=
 OpenBabel11052413443D

 27 31  0  0  1  0  0  0  0  0999 V2000
  191.3410  177.7420  142.3130 N   0  0  0  0  0  0  0  0  0  0  0  0
  189.0020  177.8790  141.5430 C   0  0  0  0  0  0  0  0  0  0  0  0
  188.7570  177.3600  144.0240 N   0  0  0  0  0  2  0  0  0  0  0  0
  184.5820  178.8970  141.5680 S   0  0  0  0  0  0  0  0  0  0  0  0
  184.2000  179.6760  144.1720 C   0  0  0  0  0  1  0  0  0  0  0  0
  188.3720  178.3440  140.4220 N   0  0  0  0  0  0  0  0  0  0  0  0
  185.9080  177.9890  143.7300 N   0  0  0  0  0  0  0  0  0  0  0  0
  186.1290  177.3290  145.0080 C   0  0  0  0  0  1  0  0  0  0  0  0
  186.8560  178.0500  142.6650 C   0  0  0  0  0  0  0  0  0  0  0  0
  190.4570  177.5410  141.3800 C   0  0  0  0  0  0  0  0  0  0  0  0
  184.5750  178.4540  143.3540 C   0  0  2  0  0  3  0  0  0  0  0  0
  186.3140  178.5040  141.4970 C   0  0  0  0  0  0  0  0  0  0  0  0
  191.0410  178.1570  143.6620 C   0  0  0  0  0  0  0  0  0  0  0  0
  188.2290  177.7430  142.7420 C   0  0  0  0  0  0  0  0  0  0  0  0
  187.0760  178.6540  140.3930 N   0  0  0  0  0  0  0  0  0  0  0  0
  190.9730  179.6510  143.8850 C   0  0  0  0  0  2  0  0  0  0  0  0
  192.1900  178.8500  144.3590 C   0  0  0  0  0  2  0  0  0  0  0  0
  190.1410  177.2100  144.4380 C   0  0  1  0  0  3  0  0  0  0  0  0
  191.9380  176.0790  137.6840 N   0  0  0  0  0  0  0  0  0  0  0  0
  190.9570  177.0420  140.0720 C   0  0  0  0  0  0  0  0  0  0  0  0
  190.1160  176.3630  139.1820 C   0  0  0  0  0  3  0  0  0  0  0  0
  190.6260  175.8850  137.9780 C   0  0  0  0  0  3  0  0  0  0  0  0
  192.7510  176.7150  138.5290 N   0  0  0  0  0  0  0  0  0  0  0  0
  192.3020  177.2000  139.7170 C   0  0  0  0  0  3  0  0  0  0  0  0
  190.2670  177.2580  145.9650 C   0  0  0  0  0  2  0  0  0  0  0  0
  191.3620  176.3420  146.4870 C   0  0  0  0  0  2  0  0  0  0  0  0
  191.8940  176.8810  147.7250 N   0  0  0  0  0  1  0  0  0  0  0  0
  1 13  1  0  0  0  0
  2 14  1  0  0  0  0
  3 18  1  0  0  0  0
  4 11  1  0  0  0  0
  6  2  2  0  0  0  0
  7  8  1  0  0  0  0
  9 14  2  0  0  0  0
  9  7  1  0  0  0  0
 10  2  1  0  0  0  0
 10  1  2  0  0  0  0
 11  7  1  0  0  0  0
 11  5  1  1  0  0  0
 12  4  1  0  0  0  0
 12  9  1  0  0  0  0
 13 16  1  0  0  0  0
 13 17  1  0  0  0  0
 13 18  1  0  0  0  0
 14  3  1  0  0  0  0
 15  6  1  0  0  0  0
 15 12  2  0  0  0  0
 16 17  1  0  0  0  0
 18 25  1  1  0  0  0
 19 22  2  0  0  0  0
 19 23  1  0  0  0  0
 20 10  1  0  0  0  0
 21 20  2  0  0  0  0
 22 21  1  0  0  0  0
 23 24  2  0  0  0  0
 24 20  1  0  0  0  0
 25 26  1  0  0  0  0
 26 27  1  0  0  0  0
M  END
>  <MODEL>
1

>  <REMARK>
 VINA RESULT:      -8.5      0.000      0.000
  Name = 
  3 active torsions:
  status: ('A' for Active; 'I' for Inactive)
    1  A    between atoms: C_9  and  C_15
    2  A    between atoms: C_10  and  C_20
    3  A    between atoms: C_20  and  C_26
                            x       y       z     vdW  Elec       q    Type
                         _______ _______ _______ _____ _____    ______ ____

>  <TORSDO>
F 3

$$$$
=
 OpenBabel11052413443D

 27 31  0  0  1  0  0  0  0  0999 V2000
  190.2860  177.5180  140.7870 N   0  0  0  0  0  0  0  0  0  0  0  0
  187.9390  178.0720  141.3040 C   0  0  0  0  0  0  0  0  0  0  0  0
  188.6860  176.7770  143.3650 N   0  0  0  0  0  2  0  0  0  0  0  0
  184.3130  179.3420  143.7160 S   0  0  0  0  0  0  0  0  0  0  0  0
  185.2800  179.2350  146.2820 C   0  0  0  0  0  1  0  0  0  0  0  0
  187.0050  178.9290  140.7890 N   0  0  0  0  0  0  0  0  0  0  0  0
  186.2080  177.6720  144.6520 N   0  0  0  0  0  0  0  0  0  0  0  0
  186.8100  176.6100  145.4450 C   0  0  0  0  0  1  0  0  0  0  0  0
  186.5890  178.0150  143.3200 C   0  0  0  0  0  0  0  0  0  0  0  0
  189.0650  177.7030  140.3800 C   0  0  0  0  0  0  0  0  0  0  0  0
  184.9830  178.3310  145.1000 C   0  0  2  0  0  3  0  0  0  0  0  0
  185.7090  178.8700  142.7200 C   0  0  0  0  0  0  0  0  0  0  0  0
  190.7000  177.4820  142.1700 C   0  0  0  0  0  0  0  0  0  0  0  0
  187.7530  177.6010  142.6450 C   0  0  0  0  0  0  0  0  0  0  0  0
  185.9280  179.3230  141.4680 N   0  0  0  0  0  0  0  0  0  0  0  0
  191.0670  178.8160  142.7760 C   0  0  0  0  0  2  0  0  0  0  0  0
  192.1590  177.8170  142.3800 C   0  0  0  0  0  2  0  0  0  0  0  0
  190.0410  176.3970  143.0070 C   0  0  1  0  0  3  0  0  0  0  0  0
  188.4520  177.5230  136.1870 N   0  0  0  0  0  0  0  0  0  0  0  0
  188.8240  177.6330  138.9140 C   0  0  0  0  0  0  0  0  0  0  0  0
  188.2850  176.4870  138.3180 C   0  0  0  0  0  3  0  0  0  0  0  0
  188.1000  176.4480  136.9390 C   0  0  0  0  0  3  0  0  0  0  0  0
  188.9760  178.6160  136.7420 N   0  0  0  0  0  0  0  0  0  0  0  0
  189.1770  178.7040  138.0830 C   0  0  0  0  0  3  0  0  0  0  0  0
  190.8240  175.9260  144.2370 C   0  0  0  0  0  2  0  0  0  0  0  0
  190.5770  176.8010  145.4550 C   0  0  0  0  0  2  0  0  0  0  0  0
  191.7540  176.7920  146.3040 N   0  0  0  0  0  1  0  0  0  0  0  0
  1 13  1  0  0  0  0
  2 14  1  0  0  0  0
  4 11  1  0  0  0  0
  6  2  2  0  0  0  0
  6 15  1  0  0  0  0
  7 11  1  0  0  0  0
  7  8  1  0  0  0  0
  9  7  1  0  0  0  0
 10  1  2  0  0  0  0
 10  2  1  0  0  0  0
 11  5  1  1  0  0  0
 12  9  1  0  0  0  0
 12  4  1  0  0  0  0
 13 17  1  0  0  0  0
 13 16  1  0  0  0  0
 13 18  1  0  0  0  0
 14  9  2  0  0  0  0
 14  3  1  0  0  0  0
 15 12  2  0  0  0  0
 17 16  1  0  0  0  0
 18  3  1  0  0  0  0
 18 25  1  1  0  0  0
 19 23  2  0  0  0  0
 19 22  1  0  0  0  0
 20 10  1  0  0  0  0
 21 20  1  0  0  0  0
 22 21  2  0  0  0  0
 23 24  1  0  0  0  0
 24 20  2  0  0  0  0
 25 26  1  0  0  0  0
 26 27  1  0  0  0  0
M  END
>  <MODEL>
2

>  <REMARK>
 VINA RESULT:      -7.3      1.862      2.147
  Name = 
  3 active torsions:
  status: ('A' for Active; 'I' for Inactive)
    1  A    between atoms: C_9  and  C_15
    2  A    between atoms: C_10  and  C_20
    3  A    between atoms: C_20  and  C_26
                            x       y       z     vdW  Elec       q    Type
                         _______ _______ _______ _____ _____    ______ ____

>  <TORSDO>
F 3

$$$$
=
 OpenBabel11052413443D

 27 31  0  0  1  0  0  0  0  0999 V2000
  189.1440  176.5860  136.9270 N   0  0  0  0  0  0  0  0  0  0  0  0
  189.7770  176.7460  139.3060 C   0  0  0  0  0  0  0  0  0  0  0  0
  187.6480  178.1390  139.1870 N   0  0  0  0  0  2  0  0  0  0  0  0
  189.3170  176.8740  143.8170 S   0  0  0  0  0  0  0  0  0  0  0  0
  186.6030  177.1650  144.0970 C   0  0  0  0  0  1  0  0  0  0  0  0
  190.6440  176.0820  140.1300 N   0  0  0  0  0  0  0  0  0  0  0  0
  187.6520  178.1380  142.1190 N   0  0  0  0  0  0  0  0  0  0  0  0
  186.7030  179.1310  141.6360 C   0  0  0  0  0  1  0  0  0  0  0  0
  188.6360  177.4880  141.3160 C   0  0  0  0  0  0  0  0  0  0  0  0
  190.0730  176.6520  137.8360 C   0  0  0  0  0  0  0  0  0  0  0  0
  187.8140  177.9000  143.5520 C   0  0  2  0  0  3  0  0  0  0  0  0
  189.5530  176.7970  142.0560 C   0  0  0  0  0  0  0  0  0  0  0  0
  187.7320  176.7510  137.1750 C   0  0  0  0  0  0  0  0  0  0  0  0
  188.6970  177.4700  139.9090 C   0  0  0  0  0  0  0  0  0  0  0  0
  190.5390  176.0970  141.4580 N   0  0  0  0  0  0  0  0  0  0  0  0
  186.9820  175.4900  137.5390 C   0  0  0  0  0  2  0  0  0  0  0  0
  186.8490  176.0940  136.1380 C   0  0  0  0  0  2  0  0  0  0  0  0
  187.3380  178.0930  137.7690 C   0  0  1  0  0  3  0  0  0  0  0  0
  194.1040  176.2600  136.5770 N   0  0  0  0  0  0  0  0  0  0  0  0
  191.4810  176.5310  137.3730 C   0  0  0  0  0  0  0  0  0  0  0  0
  191.7880  176.0840  136.0820 C   0  0  0  0  0  3  0  0  0  0  0  0
  193.1180  175.9550  135.6940 C   0  0  0  0  0  3  0  0  0  0  0  0
  193.8250  176.6770  137.8130 N   0  0  0  0  0  0  0  0  0  0  0  0
  192.5420  176.8190  138.2400 C   0  0  0  0  0  3  0  0  0  0  0  0
  185.9000  178.5520  137.5050 C   0  0  0  0  0  2  0  0  0  0  0  0
  185.0310  178.4860  138.7510 C   0  0  0  0  0  2  0  0  0  0  0  0
  184.4950  179.8050  139.0360 N   0  0  0  0  0  1  0  0  0  0  0  0
  1 13  1  0  0  0  0
  1 10  2  0  0  0  0
  2 14  2  0  0  0  0
  2  6  1  0  0  0  0
  3 14  1  0  0  0  0
  6 15  2  0  0  0  0
  7 11  1  0  0  0  0
  8  7  1  0  0  0  0
  9 12  2  0  0  0  0
  9  7  1  0  0  0  0
 10  2  1  0  0  0  0
 11  4  1  0  0  0  0
 11  5  1  6  0  0  0
 12  4  1  0  0  0  0
 13 16  1  0  0  0  0
 13 18  1  0  0  0  0
 14  9  1  0  0  0  0
 15 12  1  0  0  0  0
 17 13  1  0  0  0  0
 17 16  1  0  0  0  0
 18 25  1  1  0  0  0
 18  3  1  0  0  0  0
 19 23  1  0  0  0  0
 20 10  1  0  0  0  0
 20 24  1  0  0  0  0
 21 20  2  0  0  0  0
 22 21  1  0  0  0  0
 22 19  2  0  0  0  0
 23 24  2  0  0  0  0
 25 26  1  0  0  0  0
 26 27  1  0  0  0  0
M  END
>  <MODEL>
3

>  <REMARK>
 VINA RESULT:      -6.9      2.766      5.696
  Name = 
  3 active torsions:
  status: ('A' for Active; 'I' for Inactive)
    1  A    between atoms: C_9  and  C_15
    2  A    between atoms: C_10  and  C_20
    3  A    between atoms: C_20  and  C_26
                            x       y       z     vdW  Elec       q    Type
                         _______ _______ _______ _____ _____    ______ ____

>  <TORSDO>
F 3

$$$$
=
 OpenBabel11052413443D

 27 31  0  0  1  0  0  0  0  0999 V2000
  181.8950  178.8030  141.9640 N   0  0  0  0  0  0  0  0  0  0  0  0
  183.8730  178.3320  140.5690 C   0  0  0  0  0  0  0  0  0  0  0  0
  182.0160  177.0680  139.3700 N   0  0  0  0  0  2  0  0  0  0  0  0
  186.3800  177.6930  136.8420 S   0  0  0  0  0  0  0  0  0  0  0  0
  184.4540  177.5020  134.8960 C   0  0  0  0  0  1  0  0  0  0  0  0
  185.1340  178.8510  140.4600 N   0  0  0  0  0  0  0  0  0  0  0  0
  183.8860  176.7210  137.1370 N   0  0  0  0  0  0  0  0  0  0  0  0
  182.7410  175.8400  136.9530 C   0  0  0  0  0  1  0  0  0  0  0  0
  184.1990  177.4130  138.3450 C   0  0  0  0  0  0  0  0  0  0  0  0
  183.1730  178.5850  141.8740 C   0  0  0  0  0  0  0  0  0  0  0  0
  184.9470  176.7790  136.1360 C   0  0  2  0  0  3  0  0  0  0  0  0
  185.4470  177.9670  138.3310 C   0  0  0  0  0  0  0  0  0  0  0  0
  180.9560  178.6790  140.8740 C   0  0  0  0  0  0  0  0  0  0  0  0
  183.3510  177.5950  139.4550 C   0  0  0  0  0  0  0  0  0  0  0  0
  185.8980  178.6840  139.3810 N   0  0  0  0  0  0  0  0  0  0  0  0
  180.7590  179.9220  140.0380 C   0  0  0  0  0  2  0  0  0  0  0  0
  179.6970  179.4960  141.0560 C   0  0  0  0  0  2  0  0  0  0  0  0
  180.8810  177.2960  140.2480 C   0  0  1  0  0  3  0  0  0  0  0  0
  185.3780  178.8560  145.4880 N   0  0  0  0  0  0  0  0  0  0  0  0
  183.9670  178.6920  143.1270 C   0  0  0  0  0  0  0  0  0  0  0  0
  185.2590  178.1620  143.2190 C   0  0  0  0  0  3  0  0  0  0  0  0
  185.9610  178.2560  144.4180 C   0  0  0  0  0  3  0  0  0  0  0  0
  184.1430  179.3550  145.4160 N   0  0  0  0  0  0  0  0  0  0  0  0
  183.4170  179.2880  144.2690 C   0  0  0  0  0  3  0  0  0  0  0  0
  179.5640  176.9420  139.5480 C   0  0  0  0  0  2  0  0  0  0  0  0
  179.0780  175.5440  139.8960 C   0  0  0  0  0  2  0  0  0  0  0  0
  178.9310  175.4280  141.3350 N   0  0  0  0  0  1  0  0  0  0  0  0
  2 10  1  0  0  0  0
  3 14  1  0  0  0  0
  3 18  1  0  0  0  0
  4 12  1  0  0  0  0
  6  2  1  0  0  0  0
  7  9  1  0  0  0  0
  8  7  1  0  0  0  0
  9 14  1  0  0  0  0
 10  1  2  0  0  0  0
 10 20  1  0  0  0  0
 11  5  1  6  0  0  0
 11  4  1  0  0  0  0
 11  7  1  0  0  0  0
 12  9  2  0  0  0  0
 12 15  1  0  0  0  0
 13 17  1  0  0  0  0
 13  1  1  0  0  0  0
 14  2  2  0  0  0  0
 15  6  2  0  0  0  0
 16 13  1  0  0  0  0
 16 17  1  0  0  0  0
 18 25  1  6  0  0  0
 18 13  1  0  0  0  0
 20 21  2  0  0  0  0
 20 24  1  0  0  0  0
 21 22  1  0  0  0  0
 22 19  2  0  0  0  0
 23 19  1  0  0  0  0
 24 23  2  0  0  0  0
 25 26  1  0  0  0  0
 26 27  1  0  0  0  0
M  END
>  <MODEL>
4

>  <REMARK>
 VINA RESULT:      -6.6      4.792      9.034
  Name = 
  3 active torsions:
  status: ('A' for Active; 'I' for Inactive)
    1  A    between atoms: C_9  and  C_15
    2  A    between atoms: C_10  and  C_20
    3  A    between atoms: C_20  and  C_26
                            x       y       z     vdW  Elec       q    Type
                         _______ _______ _______ _____ _____    ______ ____

>  <TORSDO>
F 3

$$$$
=
 OpenBabel11052413443D

 27 31  0  0  1  0  0  0  0  0999 V2000
  188.3350  177.5720  142.0210 N   0  0  0  0  0  0  0  0  0  0  0  0
  189.1470  177.1680  139.7270 C   0  0  0  0  0  0  0  0  0  0  0  0
  191.3010  177.5040  141.0440 N   0  0  0  0  0  2  0  0  0  0  0  0
  191.7400  175.5670  136.3670 S   0  0  0  0  0  0  0  0  0  0  0  0
  193.9060  174.5950  137.7430 C   0  0  0  0  0  1  0  0  0  0  0  0
  188.5980  176.6890  138.5700 N   0  0  0  0  0  0  0  0  0  0  0  0
  192.7330  176.5180  138.6830 N   0  0  0  0  0  0  0  0  0  0  0  0
  193.6800  177.1270  139.6060 C   0  0  0  0  0  1  0  0  0  0  0  0
  191.3140  176.6470  138.7640 C   0  0  0  0  0  0  0  0  0  0  0  0
  188.1740  177.7070  140.7380 C   0  0  0  0  0  0  0  0  0  0  0  0
  193.1950  175.9020  137.4420 C   0  0  2  0  0  3  0  0  0  0  0  0
  190.6750  176.1930  137.6460 C   0  0  0  0  0  0  0  0  0  0  0  0
  189.5190  177.0420  142.6550 C   0  0  0  0  0  0  0  0  0  0  0  0
  190.5740  177.1300  139.8610 C   0  0  0  0  0  0  0  0  0  0  0  0
  189.3280  176.2110  137.5630 N   0  0  0  0  0  0  0  0  0  0  0  0
  189.5420  175.5430  142.8440 C   0  0  0  0  0  2  0  0  0  0  0  0
  189.2710  176.4710  144.0320 C   0  0  0  0  0  2  0  0  0  0  0  0
  190.7970  177.8140  142.3710 C   0  0  1  0  0  3  0  0  0  0  0  0
  184.5560  179.4590  139.3850 N   0  0  0  0  0  0  0  0  0  0  0  0
  186.9110  178.3430  140.2780 C   0  0  0  0  0  0  0  0  0  0  0  0
  185.9580  178.8130  141.1900 C   0  0  0  0  0  3  0  0  0  0  0  0
  184.7750  179.3770  140.7230 C   0  0  0  0  0  3  0  0  0  0  0  0
  185.4510  179.0060  138.5070 N   0  0  0  0  0  0  0  0  0  0  0  0
  186.6220  178.4460  138.9120 C   0  0  0  0  0  3  0  0  0  0  0  0
  191.9050  177.6950  143.4230 C   0  0  0  0  0  2  0  0  0  0  0  0
  191.9670  178.9030  144.3430 C   0  0  0  0  0  2  0  0  0  0  0  0
  190.9310  179.8490  143.9690 N   0  0  0  0  0  1  0  0  0  0  0  0
  1 13  1  0  0  0  0
  2 14  1  0  0  0  0
  2 10  1  0  0  0  0
  3 18  1  0  0  0  0
  4 11  1  0  0  0  0
  4 12  1  0  0  0  0
  6  2  2  0  0  0  0
  7  9  1  0  0  0  0
  7  8  1  0  0  0  0
  9 14  2  0  0  0  0
 10  1  2  0  0  0  0
 11  5  1  1  0  0  0
 11  7  1  0  0  0  0
 12  9  1  0  0  0  0
 13 16  1  0  0  0  0
 13 17  1  0  0  0  0
 14  3  1  0  0  0  0
 15 12  2  0  0  0  0
 15  6  1  0  0  0  0
 16 17  1  0  0  0  0
 18 13  1  0  0  0  0
 18 25  1  1  0  0  0
 19 22  1  0  0  0  0
 20 10  1  0  0  0  0
 20 21  1  0  0  0  0
 22 21  2  0  0  0  0
 23 24  1  0  0  0  0
 23 19  2  0  0  0  0
 24 20  2  0  0  0  0
 25 26  1  0  0  0  0
 27 26  1  0  0  0  0
M  END
>  <MODEL>
5

>  <REMARK>
 VINA RESULT:      -6.5      2.731      6.166
  Name = 
  3 active torsions:
  status: ('A' for Active; 'I' for Inactive)
    1  A    between atoms: C_9  and  C_15
    2  A    between atoms: C_10  and  C_20
    3  A    between atoms: C_20  and  C_26
                            x       y       z     vdW  Elec       q    Type
                         _______ _______ _______ _____ _____    ______ ____

>  <TORSDO>
F 3

$$$$
=
 OpenBabel11052413443D

 27 31  0  0  1  0  0  0  0  0999 V2000
  182.5140  178.9880  140.8570 N   0  0  0  0  0  0  0  0  0  0  0  0
  184.7460  178.4090  139.9800 C   0  0  0  0  0  0  0  0  0  0  0  0
  183.1740  177.4370  138.2270 N   0  0  0  0  0  2  0  0  0  0  0  0
  188.0890  177.7740  136.9800 S   0  0  0  0  0  0  0  0  0  0  0  0
  186.7400  177.9270  134.5950 C   0  0  0  0  0  1  0  0  0  0  0  0
  186.0290  178.7980  140.2500 N   0  0  0  0  0  0  0  0  0  0  0  0
  185.5330  177.0530  136.5280 N   0  0  0  0  0  0  0  0  0  0  0  0
  184.4090  176.3140  135.9720 C   0  0  0  0  0  1  0  0  0  0  0  0
  185.5710  177.6210  137.8370 C   0  0  0  0  0  0  0  0  0  0  0  0
  183.7480  178.6420  141.0790 C   0  0  0  0  0  0  0  0  0  0  0  0
  186.8240  177.0690  135.8450 C   0  0  2  0  0  3  0  0  0  0  0  0
  186.8210  178.0390  138.1980 C   0  0  0  0  0  0  0  0  0  0  0  0
  181.8910  179.0420  139.5560 C   0  0  0  0  0  0  0  0  0  0  0  0
  184.4780  177.8130  138.7040 C   0  0  0  0  0  0  0  0  0  0  0  0
  187.0350  178.6280  139.3930 N   0  0  0  0  0  0  0  0  0  0  0  0
  182.0280  180.3550  138.8210 C   0  0  0  0  0  2  0  0  0  0  0  0
  180.7020  179.9720  139.4860 C   0  0  0  0  0  2  0  0  0  0  0  0
  181.8700  177.7230  138.8010 C   0  0  1  0  0  3  0  0  0  0  0  0
  185.0590  178.4960  145.1100 N   0  0  0  0  0  0  0  0  0  0  0  0
  184.1860  178.5750  142.4980 C   0  0  0  0  0  0  0  0  0  0  0  0
  183.3350  178.9570  143.5420 C   0  0  0  0  0  3  0  0  0  0  0  0
  183.7900  178.9080  144.8570 C   0  0  0  0  0  3  0  0  0  0  0  0
  185.8830  178.1400  144.1230 N   0  0  0  0  0  0  0  0  0  0  0  0
  185.4870  178.1710  142.8230 C   0  0  0  0  0  3  0  0  0  0  0  0
  180.7610  177.5610  137.7560 C   0  0  0  0  0  2  0  0  0  0  0  0
  179.9730  176.2740  137.9390 C   0  0  0  0  0  2  0  0  0  0  0  0
  180.1330  175.7980  139.3010 N   0  0  0  0  0  1  0  0  0  0  0  0
  1 10  2  0  0  0  0
  2  6  1  0  0  0  0
  2 10  1  0  0  0  0
  3 14  1  0  0  0  0
  3 18  1  0  0  0  0
  4 12  1  0  0  0  0
  7  9  1  0  0  0  0
  8  7  1  0  0  0  0
  9 12  2  0  0  0  0
  9 14  1  0  0  0  0
 10 20  1  0  0  0  0
 11  5  1  6  0  0  0
 11  7  1  0  0  0  0
 11  4  1  0  0  0  0
 12 15  1  0  0  0  0
 13  1  1  0  0  0  0
 14  2  2  0  0  0  0
 15  6  2  0  0  0  0
 16 17  1  0  0  0  0
 16 13  1  0  0  0  0
 17 13  1  0  0  0  0
 18 25  1  6  0  0  0
 18 13  1  0  0  0  0
 20 24  2  0  0  0  0
 20 21  1  0  0  0  0
 21 22  2  0  0  0  0
 22 19  1  0  0  0  0
 23 19  2  0  0  0  0
 24 23  1  0  0  0  0
 25 26  1  0  0  0  0
 26 27  1  0  0  0  0
M  END
>  <MODEL>
6

>  <REMARK>
 VINA RESULT:      -6.2      4.578      8.894
  Name = 
  3 active torsions:
  status: ('A' for Active; 'I' for Inactive)
    1  A    between atoms: C_9  and  C_15
    2  A    between atoms: C_10  and  C_20
    3  A    between atoms: C_20  and  C_26
                            x       y       z     vdW  Elec       q    Type
                         _______ _______ _______ _____ _____    ______ ____

>  <TORSDO>
F 3

$$$$
=
 OpenBabel11052413443D

 27 31  0  0  1  0  0  0  0  0999 V2000
  189.9550  176.9460  144.7490 N   0  0  0  0  0  0  0  0  0  0  0  0
  187.9360  177.7250  143.5670 C   0  0  0  0  0  0  0  0  0  0  0  0
  189.7760  178.0720  141.8410 N   0  0  0  0  0  2  0  0  0  0  0  0
  184.9810  178.3570  140.1830 S   0  0  0  0  0  0  0  0  0  0  0  0
  186.4360  177.5360  138.0060 C   0  0  0  0  0  1  0  0  0  0  0  0
  186.5870  177.6190  143.7690 N   0  0  0  0  0  0  0  0  0  0  0  0
  187.6500  178.5330  139.8740 N   0  0  0  0  0  0  0  0  0  0  0  0
  188.9280  178.9530  139.3160 C   0  0  0  0  0  1  0  0  0  0  0  0
  187.4180  178.2330  141.2500 C   0  0  0  0  0  0  0  0  0  0  0  0
  188.7950  177.5330  144.7840 C   0  0  0  0  0  0  0  0  0  0  0  0
  186.4290  178.6110  139.0770 C   0  0  2  0  0  3  0  0  0  0  0  0
  186.0910  178.1090  141.5500 C   0  0  0  0  0  0  0  0  0  0  0  0
  190.6440  176.5460  143.5450 C   0  0  0  0  0  0  0  0  0  0  0  0
  188.3960  178.0200  142.2410 C   0  0  0  0  0  0  0  0  0  0  0  0
  185.6900  177.7970  142.7990 N   0  0  0  0  0  0  0  0  0  0  0  0
  190.3150  175.1620  143.0340 C   0  0  0  0  0  2  0  0  0  0  0  0
  191.6400  175.4290  143.7530 C   0  0  0  0  0  2  0  0  0  0  0  0
  190.9610  177.6790  142.5830 C   0  0  1  0  0  3  0  0  0  0  0  0
  187.2730  178.6310  148.5880 N   0  0  0  0  0  0  0  0  0  0  0  0
  188.2820  177.9360  146.1200 C   0  0  0  0  0  0  0  0  0  0  0  0
  189.0950  177.8820  147.2590 C   0  0  0  0  0  3  0  0  0  0  0  0
  188.5700  178.2400  148.4980 C   0  0  0  0  0  3  0  0  0  0  0  0
  186.4860  178.6750  147.5120 N   0  0  0  0  0  0  0  0  0  0  0  0
  186.9500  178.3360  146.2800 C   0  0  0  0  0  3  0  0  0  0  0  0
  192.1490  177.4520  141.6410 C   0  0  0  0  0  2  0  0  0  0  0  0
  191.7160  177.2140  140.2040 C   0  0  0  0  0  2  0  0  0  0  0  0
  192.8890  177.0730  139.3620 N   0  0  0  0  0  1  0  0  0  0  0  0
  1 10  2  0  0  0  0
  2  6  1  0  0  0  0
  2 10  1  0  0  0  0
  3 14  1  0  0  0  0
  3 18  1  0  0  0  0
  4 12  1  0  0  0  0
  7  9  1  0  0  0  0
  8  7  1  0  0  0  0
  9 12  2  0  0  0  0
  9 14  1  0  0  0  0
 10 20  1  0  0  0  0
 11  5  1  6  0  0  0
 11  7  1  0  0  0  0
 11  4  1  0  0  0  0
 12 15  1  0  0  0  0
 13 17  1  0  0  0  0
 13  1  1  0  0  0  0
 14  2  2  0  0  0  0
 15  6  2  0  0  0  0
 16 13  1  0  0  0  0
 16 17  1  0  0  0  0
 18 25  1  6  0  0  0
 18 13  1  0  0  0  0
 20 24  2  0  0  0  0
 20 21  1  0  0  0  0
 21 22  2  0  0  0  0
 22 19  1  0  0  0  0
 23 19  2  0  0  0  0
 24 23  1  0  0  0  0
 26 25  1  0  0  0  0
 27 26  1  0  0  0  0
M  END
>  <MODEL>
7

>  <REMARK>
 VINA RESULT:      -6.2      2.107      5.917
  Name = 
  3 active torsions:
  status: ('A' for Active; 'I' for Inactive)
    1  A    between atoms: C_9  and  C_15
    2  A    between atoms: C_10  and  C_20
    3  A    between atoms: C_20  and  C_26
                            x       y       z     vdW  Elec       q    Type
                         _______ _______ _______ _____ _____    ______ ____

>  <TORSDO>
F 3

$$$$
=
 OpenBabel11052413443D

 27 31  0  0  1  0  0  0  0  0999 V2000
  188.7220  177.5100  139.9170 N   0  0  0  0  0  0  0  0  0  0  0  0
  191.0240  176.7370  139.4890 C   0  0  0  0  0  0  0  0  0  0  0  0
  189.6940  175.6300  137.6200 N   0  0  0  0  0  2  0  0  0  0  0  0
  194.7560  175.6050  137.1710 S   0  0  0  0  0  0  0  0  0  0  0  0
  193.8150  175.5300  134.5950 C   0  0  0  0  0  1  0  0  0  0  0  0
  192.2700  177.1000  139.9220 N   0  0  0  0  0  0  0  0  0  0  0  0
  192.2650  174.9450  136.3870 N   0  0  0  0  0  0  0  0  0  0  0  0
  191.2010  174.1930  135.7390 C   0  0  0  0  0  1  0  0  0  0  0  0
  192.1300  175.6630  137.6130 C   0  0  0  0  0  0  0  0  0  0  0  0
  189.8810  177.1410  140.3770 C   0  0  0  0  0  0  0  0  0  0  0  0
  193.6470  174.8250  135.9280 C   0  0  2  0  0  3  0  0  0  0  0  0
  193.3290  176.0680  138.1270 C   0  0  0  0  0  0  0  0  0  0  0  0
  188.3180  177.4340  138.5340 C   0  0  0  0  0  0  0  0  0  0  0  0
  190.9270  176.0040  138.2610 C   0  0  0  0  0  0  0  0  0  0  0  0
  193.3870  176.7860  139.2680 N   0  0  0  0  0  0  0  0  0  0  0  0
  188.6500  178.6440  137.6900 C   0  0  0  0  0  2  0  0  0  0  0  0
  187.2150  178.4000  138.1650 C   0  0  0  0  0  2  0  0  0  0  0  0
  188.3360  176.0370  137.9370 C   0  0  1  0  0  3  0  0  0  0  0  0
  190.5280  177.3510  144.5630 N   0  0  0  0  0  0  0  0  0  0  0  0
  190.0830  177.2260  141.8470 C   0  0  0  0  0  0  0  0  0  0  0  0
  189.9600  178.4410  142.5310 C   0  0  0  0  0  3  0  0  0  0  0  0
  190.1850  178.4870  143.9040 C   0  0  0  0  0  3  0  0  0  0  0  0
  190.6590  176.1890  143.9210 N   0  0  0  0  0  0  0  0  0  0  0  0
  190.4510  176.0920  142.5820 C   0  0  0  0  0  3  0  0  0  0  0  0
  187.3990  175.7980  136.7470 C   0  0  0  0  0  2  0  0  0  0  0  0
  186.2680  174.8390  137.0810 C   0  0  0  0  0  2  0  0  0  0  0  0
  185.0330  175.5860  137.2390 N   0  0  0  0  0  1  0  0  0  0  0  0
  1 10  2  0  0  0  0
  2  6  1  0  0  0  0
  2 10  1  0  0  0  0
  3 18  1  0  0  0  0
  3 14  1  0  0  0  0
  4 12  1  0  0  0  0
  7  9  1  0  0  0  0
  8  7  1  0  0  0  0
  9 12  2  0  0  0  0
  9 14  1  0  0  0  0
 10 20  1  0  0  0  0
 11  5  1  6  0  0  0
 11  7  1  0  0  0  0
 11  4  1  0  0  0  0
 12 15  1  0  0  0  0
 13  1  1  0  0  0  0
 14  2  2  0  0  0  0
 15  6  2  0  0  0  0
 16 17  1  0  0  0  0
 16 13  1  0  0  0  0
 17 13  1  0  0  0  0
 18 25  1  6  0  0  0
 18 13  1  0  0  0  0
 20 21  2  0  0  0  0
 20 24  1  0  0  0  0
 21 22  1  0  0  0  0
 22 19  2  0  0  0  0
 23 19  1  0  0  0  0
 24 23  2  0  0  0  0
 25 26  1  0  0  0  0
 26 27  1  0  0  0  0
M  END
>  <MODEL>
8

>  <REMARK>
 VINA RESULT:      -6.2      3.501      7.972
  Name = 
  3 active torsions:
  status: ('A' for Active; 'I' for Inactive)
    1  A    between atoms: C_9  and  C_15
    2  A    between atoms: C_10  and  C_20
    3  A    between atoms: C_20  and  C_26
                            x       y       z     vdW  Elec       q    Type
                         _______ _______ _______ _____ _____    ______ ____

>  <TORSDO>
F 3

$$$$
=
 OpenBabel11052413443D

 27 31  0  0  1  0  0  0  0  0999 V2000
  189.0440  177.1920  144.3620 N   0  0  0  0  0  0  0  0  0  0  0  0
  187.2810  177.8970  142.7880 C   0  0  0  0  0  0  0  0  0  0  0  0
  189.4110  178.1690  141.4180 N   0  0  0  0  0  2  0  0  0  0  0  0
  185.0070  178.3390  138.8870 S   0  0  0  0  0  0  0  0  0  0  0  0
  186.8400  177.4190  137.0630 C   0  0  0  0  0  1  0  0  0  0  0  0
  185.9180  177.7910  142.7420 N   0  0  0  0  0  0  0  0  0  0  0  0
  187.6890  178.5170  139.0700 N   0  0  0  0  0  0  0  0  0  0  0  0
  189.0490  178.9170  138.7380 C   0  0  0  0  0  1  0  0  0  0  0  0
  187.2050  178.2840  140.3930 C   0  0  0  0  0  0  0  0  0  0  0  0
  187.8990  177.7720  144.1520 C   0  0  0  0  0  0  0  0  0  0  0  0
  186.6360  178.5470  138.0580 C   0  0  2  0  0  3  0  0  0  0  0  0
  185.8450  178.1670  140.4470 C   0  0  0  0  0  0  0  0  0  0  0  0
  189.9430  176.7370  143.3290 C   0  0  0  0  0  0  0  0  0  0  0  0
  187.9800  178.1280  141.5580 C   0  0  0  0  0  0  0  0  0  0  0  0
  185.2180  177.9150  141.6150 N   0  0  0  0  0  0  0  0  0  0  0  0
  189.7110  175.3270  142.8360 C   0  0  0  0  0  2  0  0  0  0  0  0
  190.8810  175.6380  143.7740 C   0  0  0  0  0  2  0  0  0  0  0  0
  190.4370  177.8220  142.3860 C   0  0  1  0  0  3  0  0  0  0  0  0
  185.6930  179.0630  147.5360 N   0  0  0  0  0  0  0  0  0  0  0  0
  187.1480  178.2380  145.3470 C   0  0  0  0  0  0  0  0  0  0  0  0
  187.6110  177.9820  146.6440 C   0  0  0  0  0  3  0  0  0  0  0  0
  186.8650  178.4090  147.7390 C   0  0  0  0  0  3  0  0  0  0  0  0
  185.2370  179.3030  146.3060 N   0  0  0  0  0  0  0  0  0  0  0  0
  185.9270  178.9070  145.2040 C   0  0  0  0  0  3  0  0  0  0  0  0
  191.7780  177.5560  141.6940 C   0  0  0  0  0  2  0  0  0  0  0  0
  191.6210  177.2700  140.2100 C   0  0  0  0  0  2  0  0  0  0  0  0
  192.9320  177.1540  139.5980 N   0  0  0  0  0  1  0  0  0  0  0  0
  2 10  1  0  0  0  0
  3 14  1  0  0  0  0
  3 18  1  0  0  0  0
  4 12  1  0  0  0  0
  6  2  1  0  0  0  0
  7  9  1  0  0  0  0
  8  7  1  0  0  0  0
  9 12  2  0  0  0  0
  9 14  1  0  0  0  0
 10  1  2  0  0  0  0
 10 20  1  0  0  0  0
 11  5  1  6  0  0  0
 11  4  1  0  0  0  0
 11  7  1  0  0  0  0
 12 15  1  0  0  0  0
 13 17  1  0  0  0  0
 13  1  1  0  0  0  0
 14  2  2  0  0  0  0
 15  6  2  0  0  0  0
 16 13  1  0  0  0  0
 16 17  1  0  0  0  0
 18 25  1  6  0  0  0
 18 13  1  0  0  0  0
 19 22  1  0  0  0  0
 20 21  1  0  0  0  0
 21 22  2  0  0  0  0
 23 19  2  0  0  0  0
 24 20  2  0  0  0  0
 24 23  1  0  0  0  0
 26 25  1  0  0  0  0
 27 26  1  0  0  0  0
M  END
>  <MODEL>
9

>  <REMARK>
 VINA RESULT:      -6.1      2.115      6.014
  Name = 
  3 active torsions:
  status: ('A' for Active; 'I' for Inactive)
    1  A    between atoms: C_9  and  C_15
    2  A    between atoms: C_10  and  C_20
    3  A    between atoms: C_20  and  C_26
                            x       y       z     vdW  Elec       q    Type
                         _______ _______ _______ _____ _____    ______ ____

>  <TORSDO>
F 3

$$$$
