=
 OpenBabel11052414423D

 32 37  0  0  1  0  0  0  0  0999 V2000
  189.3800  178.5190  142.2800 C   0  0  2  0  0  3  0  0  0  0  0  0
  186.9570  178.5230  142.8710 C   0  0  2  0  0  3  0  0  0  0  0  0
  188.3000  177.8330  143.1420 C   0  0  2  0  0  3  0  0  0  0  0  0
  185.8270  177.6390  143.3900 C   0  0  2  0  0  3  0  0  0  0  0  0
  183.6190  179.2800  139.1820 C   0  0  0  0  0  2  0  0  0  0  0  0
  186.7690  178.9690  141.3930 C   0  0  1  0  0  3  0  0  0  0  0  0
  183.2210  177.7100  141.1980 C   0  0  0  0  0  2  0  0  0  0  0  0
  184.1520  178.7430  141.8410 C   0  0  1  0  0  3  0  0  0  0  0  0
  185.7930  177.9790  147.1670 C   0  0  0  0  0  1  0  0  0  0  0  0
  188.5460  177.8590  144.6570 C   0  0  1  0  0  3  0  0  0  0  0  0
  184.5070  178.3860  143.2780 C   0  0  0  0  0  2  0  0  0  0  0  0
  187.4070  177.2110  145.4590 C   0  0  1  0  0  3  0  0  0  0  0  0
  189.8100  177.1050  145.0310 C   0  0  0  0  0  1  0  0  0  0  0  0
  187.6270  178.1340  140.4380 C   0  0  0  0  0  2  0  0  0  0  0  0
  186.3770  178.2760  145.8020 C   0  0  1  0  0  3  0  0  0  0  0  0
  189.1210  178.2370  140.7750 C   0  0  2  0  0  3  0  0  0  0  0  0
  185.3270  179.0460  140.9330 C   0  0  0  0  0  0  0  0  0  0  0  0
  185.9980  177.1590  144.8460 C   0  0  1  0  0  3  0  0  0  0  0  0
  182.9210  178.0160  139.7120 C   0  0  0  0  0  2  0  0  0  0  0  0
  185.0480  179.3150  139.6480 C   0  0  0  0  0  3  0  0  0  0  0  0
  190.3340  175.6640  138.0980 C   0  0  0  0  0  0  0  0  0  0  0  0
  193.8440  175.9600  138.4940 O   0  0  0  0  0  0  0  0  0  0  0  0
  189.4600  174.6690  137.4090 C   0  0  0  0  0  1  0  0  0  0  0  0
  192.3400  177.3200  139.7170 C   0  0  0  0  0  2  0  0  0  0  0  0
  189.8540  177.0180  140.1810 C   0  0  2  0  0  3  0  0  0  0  0  0
  191.6140  175.4250  138.1300 N   0  0  0  0  0  0  0  0  0  0  0  0
  191.2870  176.8710  140.7200 C   0  0  0  0  0  2  0  0  0  0  0  0
  189.7350  176.9350  138.6510 C   0  0  2  0  0  3  0  0  0  0  0  0
  188.3950  177.0640  138.2660 O   0  0  0  0  0  1  0  0  0  0  0  0
  192.6400  176.2160  138.7510 C   0  0  0  0  0  0  0  0  0  0  0  0
  190.6880  178.1950  142.6550 O   0  0  0  0  0  0  0  0  0  0  0  0
  191.1650  179.3350  143.3040 C   0  0  0  0  0  1  0  0  0  0  0  0
  1 31  1  1  0  0  0
  1  3  1  0  0  0  0
  2  3  1  0  0  0  0
  2  4  1  0  0  0  0
  3 10  1  0  0  0  0
  4 18  1  0  0  0  0
  5 20  1  0  0  0  0
  5 19  1  0  0  0  0
  6  2  1  0  0  0  0
  7  8  1  0  0  0  0
  8 11  1  0  0  0  0
 10 13  1  0  0  0  0
 10 12  1  0  0  0  0
 11  4  1  0  0  0  0
 12 15  1  0  0  0  0
 14 16  1  0  0  0  0
 14  6  1  0  0  0  0
 15  9  1  0  0  0  0
 16  1  1  0  0  0  0
 17  6  1  0  0  0  0
 17  8  1  0  0  0  0
 18 12  1  0  0  0  0
 18 15  1  0  0  0  0
 19  7  1  0  0  0  0
 20 17  2  0  0  0  0
 21 26  2  0  0  0  0
 21 28  1  0  0  0  0
 22 30  2  0  0  0  0
 23 21  1  0  0  0  0
 24 27  1  0  0  0  0
 25 27  1  0  0  0  0
 25 16  1  0  0  0  0
 26 30  1  0  0  0  0
 28 25  1  0  0  0  0
 29 28  1  0  0  0  0
 30 24  1  0  0  0  0
 31 32  1  0  0  0  0
M  END
>  <MODEL>
1

>  <REMARK>
 VINA RESULT:      -8.7      0.000      0.000
  Name = 
  2 active torsions:
  status: ('A' for Active; 'I' for Inactive)
    1  A    between atoms: C_1  and  O_4
    2  A    between atoms: C_16  and  C_27
                            x       y       z     vdW  Elec       q    Type
                         _______ _______ _______ _____ _____    ______ ____

>  <TORSDO>
F 2

$$$$
=
 OpenBabel11052414423D

 32 37  0  0  1  0  0  0  0  0999 V2000
  189.9890  177.4680  140.6210 C   0  0  2  0  0  3  0  0  0  0  0  0
  187.9550  177.9890  141.9650 C   0  0  2  0  0  3  0  0  0  0  0  0
  189.1390  177.0230  141.8280 C   0  0  2  0  0  3  0  0  0  0  0  0
  186.9020  177.3660  142.8770 C   0  0  2  0  0  3  0  0  0  0  0  0
  183.8190  179.4840  139.5180 C   0  0  0  0  0  2  0  0  0  0  0  0
  187.3860  178.4800  140.6030 C   0  0  1  0  0  3  0  0  0  0  0  0
  183.7930  178.0180  141.6490 C   0  0  0  0  0  2  0  0  0  0  0  0
  185.0770  178.8200  141.8890 C   0  0  1  0  0  3  0  0  0  0  0  0
  188.1890  177.6700  146.4310 C   0  0  0  0  0  1  0  0  0  0  0  0
  189.8710  176.9810  143.1770 C   0  0  1  0  0  3  0  0  0  0  0  0
  185.8040  178.3800  143.1530 C   0  0  0  0  0  2  0  0  0  0  0  0
  188.9520  176.5870  144.3430 C   0  0  1  0  0  3  0  0  0  0  0  0
  191.0030  175.9690  143.1660 C   0  0  0  0  0  1  0  0  0  0  0  0
  187.6870  177.4880  139.4750 C   0  0  0  0  0  2  0  0  0  0  0  0
  188.3380  177.8460  144.9350 C   0  0  1  0  0  3  0  0  0  0  0  0
  189.1960  177.2630  139.3020 C   0  0  2  0  0  3  0  0  0  0  0  0
  185.9220  178.8700  140.6320 C   0  0  0  0  0  0  0  0  0  0  0  0
  187.4420  176.8460  144.2250 C   0  0  1  0  0  3  0  0  0  0  0  0
  183.0890  178.3950  140.3250 C   0  0  0  0  0  2  0  0  0  0  0  0
  185.2960  179.2050  139.4930 C   0  0  0  0  0  3  0  0  0  0  0  0
  188.6580  174.3730  136.7290 C   0  0  0  0  0  0  0  0  0  0  0  0
  191.8840  174.2320  135.2670 O   0  0  0  0  0  0  0  0  0  0  0  0
  187.4800  173.4570  136.7040 C   0  0  0  0  0  1  0  0  0  0  0  0
  191.3330  175.8590  136.8960 C   0  0  0  0  0  2  0  0  0  0  0  0
  189.4230  175.9200  138.5810 C   0  0  2  0  0  3  0  0  0  0  0  0
  189.7500  173.9710  136.1430 N   0  0  0  0  0  0  0  0  0  0  0  0
  190.9130  175.6230  138.3400 C   0  0  0  0  0  2  0  0  0  0  0  0
  188.5290  175.7480  137.3420 C   0  0  2  0  0  3  0  0  0  0  0  0
  187.1970  176.0250  137.6700 O   0  0  0  0  0  1  0  0  0  0  0  0
  191.0070  174.6620  136.0600 C   0  0  0  0  0  0  0  0  0  0  0  0
  191.2510  176.8660  140.5710 O   0  0  0  0  0  0  0  0  0  0  0  0
  192.1530  177.9300  140.5510 C   0  0  0  0  0  1  0  0  0  0  0  0
  1 31  1  6  0  0  0
  1  3  1  0  0  0  0
  2  4  1  0  0  0  0
  3  2  1  0  0  0  0
  3 10  1  0  0  0  0
  4 11  1  0  0  0  0
  4 18  1  0  0  0  0
  5 19  1  0  0  0  0
  6 17  1  0  0  0  0
  6  2  1  0  0  0  0
  7  8  1  0  0  0  0
  8 11  1  0  0  0  0
 10 12  1  0  0  0  0
 12 15  1  0  0  0  0
 13 10  1  0  0  0  0
 14  6  1  0  0  0  0
 15  9  1  0  0  0  0
 16 14  1  0  0  0  0
 16  1  1  0  0  0  0
 17  8  1  0  0  0  0
 18 12  1  0  0  0  0
 18 15  1  0  0  0  0
 19  7  1  0  0  0  0
 20  5  1  0  0  0  0
 20 17  2  0  0  0  0
 21 28  1  0  0  0  0
 22 30  2  0  0  0  0
 23 21  1  0  0  0  0
 24 27  1  0  0  0  0
 25 16  1  0  0  0  0
 26 21  2  0  0  0  0
 27 25  1  0  0  0  0
 28 29  1  0  0  0  0
 28 25  1  0  0  0  0
 30 26  1  0  0  0  0
 30 24  1  0  0  0  0
 32 31  1  0  0  0  0
M  END
>  <MODEL>
2

>  <REMARK>
 VINA RESULT:      -8.7      1.586      2.150
  Name = 
  2 active torsions:
  status: ('A' for Active; 'I' for Inactive)
    1  A    between atoms: C_1  and  O_4
    2  A    between atoms: C_16  and  C_27
                            x       y       z     vdW  Elec       q    Type
                         _______ _______ _______ _____ _____    ______ ____

>  <TORSDO>
F 2

$$$$
=
 OpenBabel11052414423D

 32 37  0  0  1  0  0  0  0  0999 V2000
  183.3040  178.4020  140.0050 C   0  0  2  0  0  3  0  0  0  0  0  0
  184.2120  177.4400  137.8910 C   0  0  2  0  0  3  0  0  0  0  0  0
  183.3470  177.1380  139.1210 C   0  0  2  0  0  3  0  0  0  0  0  0
  184.5950  176.1270  137.2140 C   0  0  2  0  0  3  0  0  0  0  0  0
  188.9480  178.5710  136.6170 C   0  0  0  0  0  2  0  0  0  0  0  0
  185.4280  178.3620  138.1910 C   0  0  1  0  0  3  0  0  0  0  0  0
  187.8300  176.2840  136.1600 C   0  0  0  0  0  2  0  0  0  0  0  0
  186.6030  177.2000  136.1010 C   0  0  1  0  0  3  0  0  0  0  0  0
  181.5260  174.8950  135.3590 C   0  0  0  0  0  1  0  0  0  0  0  0
  181.9870  176.6260  138.6270 C   0  0  1  0  0  3  0  0  0  0  0  0
  185.3090  176.4200  135.9040 C   0  0  0  0  0  2  0  0  0  0  0  0
  182.1070  175.4020  137.7080 C   0  0  1  0  0  3  0  0  0  0  0  0
  181.0960  176.2040  139.7820 C   0  0  0  0  0  1  0  0  0  0  0  0
  185.8490  178.2810  139.6610 C   0  0  0  0  0  2  0  0  0  0  0  0
  182.2350  175.8750  136.2680 C   0  0  1  0  0  3  0  0  0  0  0  0
  184.7080  178.6850  140.6050 C   0  0  2  0  0  3  0  0  0  0  0  0
  186.6070  178.1790  137.2570 C   0  0  0  0  0  0  0  0  0  0  0  0
  183.4130  175.1790  136.9280 C   0  0  1  0  0  3  0  0  0  0  0  0
  189.1410  177.0540  136.4440 C   0  0  0  0  0  2  0  0  0  0  0  0
  187.7510  178.8440  137.4850 C   0  0  0  0  0  3  0  0  0  0  0  0
  186.6880  177.6910  143.8230 C   0  0  0  0  0  0  0  0  0  0  0  0
  184.6880  179.2590  146.2930 O   0  0  0  0  0  0  0  0  0  0  0  0
  187.7720  176.6670  143.8790 C   0  0  0  0  0  1  0  0  0  0  0  0
  184.2110  179.4890  143.9860 C   0  0  0  0  0  2  0  0  0  0  0  0
  184.9760  178.0880  142.0010 C   0  0  2  0  0  3  0  0  0  0  0  0
  186.0820  177.9930  144.9350 N   0  0  0  0  0  0  0  0  0  0  0  0
  183.8460  178.3880  142.9990 C   0  0  0  0  0  2  0  0  0  0  0  0
  186.3890  178.3990  142.5210 C   0  0  2  0  0  3  0  0  0  0  0  0
  187.3410  178.0770  141.5480 O   0  0  0  0  0  1  0  0  0  0  0  0
  185.0020  178.9220  145.1230 C   0  0  0  0  0  0  0  0  0  0  0  0
  182.3110  178.3640  140.9900 O   0  0  0  0  0  0  0  0  0  0  0  0
  181.4850  179.4530  140.7050 C   0  0  0  0  0  1  0  0  0  0  0  0
  1 16  1  0  0  0  0
  1 31  1  1  0  0  0
  2  6  1  0  0  0  0
  2  3  1  0  0  0  0
  3  1  1  0  0  0  0
  4  2  1  0  0  0  0
  5 20  1  0  0  0  0
  6 14  1  0  0  0  0
  7 19  1  0  0  0  0
  8  7  1  0  0  0  0
  8 17  1  0  0  0  0
  9 15  1  0  0  0  0
 10  3  1  0  0  0  0
 10 13  1  0  0  0  0
 11  8  1  0  0  0  0
 11  4  1  0  0  0  0
 12 10  1  0  0  0  0
 14 16  1  0  0  0  0
 15 18  1  0  0  0  0
 15 12  1  0  0  0  0
 16 25  1  0  0  0  0
 17 20  2  0  0  0  0
 17  6  1  0  0  0  0
 18  4  1  0  0  0  0
 18 12  1  0  0  0  0
 19  5  1  0  0  0  0
 21 23  1  0  0  0  0
 21 26  2  0  0  0  0
 24 30  1  0  0  0  0
 25 28  1  0  0  0  0
 25 27  1  0  0  0  0
 26 30  1  0  0  0  0
 27 24  1  0  0  0  0
 28 21  1  0  0  0  0
 29 28  1  0  0  0  0
 30 22  2  0  0  0  0
 32 31  1  0  0  0  0
M  END
>  <MODEL>
3

>  <REMARK>
 VINA RESULT:      -8.2      3.509      7.761
  Name = 
  2 active torsions:
  status: ('A' for Active; 'I' for Inactive)
    1  A    between atoms: C_1  and  O_4
    2  A    between atoms: C_16  and  C_27
                            x       y       z     vdW  Elec       q    Type
                         _______ _______ _______ _____ _____    ______ ____

>  <TORSDO>
F 2

$$$$
=
 OpenBabel11052414423D

 32 37  0  0  1  0  0  0  0  0999 V2000
  184.7130  179.1550  140.2010 C   0  0  2  0  0  3  0  0  0  0  0  0
  186.6260  178.6480  141.7180 C   0  0  2  0  0  3  0  0  0  0  0  0
  185.9520  178.2570  140.3960 C   0  0  2  0  0  3  0  0  0  0  0  0
  187.5980  177.5460  142.1290 C   0  0  2  0  0  3  0  0  0  0  0  0
  185.7870  178.6790  146.6800 C   0  0  0  0  0  2  0  0  0  0  0  0
  185.6230  179.0430  142.8400 C   0  0  1  0  0  3  0  0  0  0  0  0
  187.4210  177.0620  145.4960 C   0  0  0  0  0  2  0  0  0  0  0  0
  187.5090  178.2700  144.5570 C   0  0  1  0  0  3  0  0  0  0  0  0
  190.6560  177.8740  139.9110 C   0  0  0  0  0  1  0  0  0  0  0  0
  187.0100  178.3360  139.2870 C   0  0  1  0  0  3  0  0  0  0  0  0
  188.3910  177.9960  143.3450 C   0  0  0  0  0  2  0  0  0  0  0  0
  188.2420  177.4630  139.5720 C   0  0  1  0  0  3  0  0  0  0  0  0
  186.4570  177.8670  137.9530 C   0  0  0  0  0  1  0  0  0  0  0  0
  184.2480  178.4060  142.6170 C   0  0  0  0  0  2  0  0  0  0  0  0
  189.2640  178.2860  140.3390 C   0  0  1  0  0  3  0  0  0  0  0  0
  183.6380  178.8240  141.2710 C   0  0  2  0  0  3  0  0  0  0  0  0
  186.1280  178.8130  144.2500 C   0  0  0  0  0  0  0  0  0  0  0  0
  188.5880  177.1140  141.0280 C   0  0  1  0  0  3  0  0  0  0  0  0
  186.4610  177.2960  146.6850 C   0  0  0  0  0  2  0  0  0  0  0  0
  185.3090  179.0160  145.2950 C   0  0  0  0  0  3  0  0  0  0  0  0
  180.1880  177.4080  140.1050 C   0  0  0  0  0  0  0  0  0  0  0  0
  181.1940  175.6190  137.2150 O   0  0  0  0  0  0  0  0  0  0  0  0
  178.9380  177.4210  140.9210 C   0  0  0  0  0  1  0  0  0  0  0  0
  182.7340  176.9010  138.4770 C   0  0  0  0  0  2  0  0  0  0  0  0
  182.5740  177.7860  140.8600 C   0  0  2  0  0  3  0  0  0  0  0  0
  180.2670  176.5460  139.1320 N   0  0  0  0  0  0  0  0  0  0  0  0
  183.1390  176.6990  139.9310 C   0  0  0  0  0  2  0  0  0  0  0  0
  181.2680  178.4310  140.3700 C   0  0  2  0  0  3  0  0  0  0  0  0
  180.8320  179.3910  141.2890 O   0  0  0  0  0  1  0  0  0  0  0  0
  181.3700  176.3330  138.2360 C   0  0  0  0  0  0  0  0  0  0  0  0
  184.1900  179.1150  138.9040 O   0  0  0  0  0  0  0  0  0  0  0  0
  183.6210  180.3740  138.7100 C   0  0  0  0  0  1  0  0  0  0  0  0
  1 31  1  6  0  0  0
  1  3  1  0  0  0  0
  1 16  1  0  0  0  0
  2  4  1  0  0  0  0
  2  6  1  0  0  0  0
  3  2  1  0  0  0  0
  4 11  1  0  0  0  0
  5 19  1  0  0  0  0
  6 17  1  0  0  0  0
  7 19  1  0  0  0  0
  8  7  1  0  0  0  0
  9 15  1  0  0  0  0
 10 12  1  0  0  0  0
 10  3  1  0  0  0  0
 11  8  1  0  0  0  0
 12 15  1  0  0  0  0
 12 18  1  0  0  0  0
 13 10  1  0  0  0  0
 14  6  1  0  0  0  0
 15 18  1  0  0  0  0
 16 14  1  0  0  0  0
 17  8  1  0  0  0  0
 17 20  2  0  0  0  0
 18  4  1  0  0  0  0
 20  5  1  0  0  0  0
 21 28  1  0  0  0  0
 21 23  1  0  0  0  0
 22 30  2  0  0  0  0
 24 27  1  0  0  0  0
 25 16  1  0  0  0  0
 26 21  2  0  0  0  0
 27 25  1  0  0  0  0
 28 25  1  0  0  0  0
 28 29  1  0  0  0  0
 30 24  1  0  0  0  0
 30 26  1  0  0  0  0
 32 31  1  0  0  0  0
M  END
>  <MODEL>
4

>  <REMARK>
 VINA RESULT:      -8.2      3.487      7.414
  Name = 
  2 active torsions:
  status: ('A' for Active; 'I' for Inactive)
    1  A    between atoms: C_1  and  O_4
    2  A    between atoms: C_16  and  C_27
                            x       y       z     vdW  Elec       q    Type
                         _______ _______ _______ _____ _____    ______ ____

>  <TORSDO>
F 2

$$$$
=
 OpenBabel11052414423D

 32 37  0  0  1  0  0  0  0  0999 V2000
  183.5460  178.2740  138.6810 C   0  0  2  0  0  3  0  0  0  0  0  0
  185.8150  178.4830  139.6940 C   0  0  2  0  0  3  0  0  0  0  0  0
  185.0140  177.8150  138.5690 C   0  0  2  0  0  3  0  0  0  0  0  0
  187.1510  177.7620  139.8530 C   0  0  2  0  0  3  0  0  0  0  0  0
  186.1680  178.5950  144.7130 C   0  0  0  0  0  2  0  0  0  0  0  0
  185.0240  178.6280  141.0250 C   0  0  1  0  0  3  0  0  0  0  0  0
  187.9110  177.4800  143.1610 C   0  0  0  0  0  2  0  0  0  0  0  0
  187.3970  178.5890  142.2370 C   0  0  1  0  0  3  0  0  0  0  0  0
  189.3570  178.8600  136.9710 C   0  0  0  0  0  1  0  0  0  0  0  0
  185.7100  178.1380  137.2390 C   0  0  1  0  0  3  0  0  0  0  0  0
  188.0190  178.5170  140.8480 C   0  0  0  0  0  2  0  0  0  0  0  0
  187.1840  177.7060  137.2160 C   0  0  1  0  0  3  0  0  0  0  0  0
  185.0420  177.4320  136.0730 C   0  0  0  0  0  1  0  0  0  0  0  0
  183.9050  177.5870  141.1330 C   0  0  0  0  0  2  0  0  0  0  0  0
  188.0430  178.8540  137.7230 C   0  0  1  0  0  3  0  0  0  0  0  0
  182.9040  177.7040  139.9750 C   0  0  2  0  0  3  0  0  0  0  0  0
  185.8840  178.6600  142.2720 C   0  0  0  0  0  0  0  0  0  0  0  0
  187.9460  177.5810  138.5450 C   0  0  1  0  0  3  0  0  0  0  0  0
  187.2250  177.4890  144.5470 C   0  0  0  0  0  2  0  0  0  0  0  0
  185.3060  178.6730  143.4840 C   0  0  0  0  0  3  0  0  0  0  0  0
  179.9030  175.2230  139.6590 C   0  0  0  0  0  0  0  0  0  0  0  0
  180.7250  173.6370  136.5980 O   0  0  0  0  0  0  0  0  0  0  0  0
  178.9350  174.9070  140.7500 C   0  0  0  0  0  1  0  0  0  0  0  0
  182.0320  175.4110  137.4640 C   0  0  0  0  0  2  0  0  0  0  0  0
  182.1560  176.3650  139.8220 C   0  0  2  0  0  3  0  0  0  0  0  0
  180.0220  174.3630  138.6880 N   0  0  0  0  0  0  0  0  0  0  0  0
  182.8040  175.4430  138.7760 C   0  0  0  0  0  2  0  0  0  0  0  0
  180.6370  176.5430  139.6650 C   0  0  2  0  0  3  0  0  0  0  0  0
  180.1460  177.3830  140.6700 O   0  0  0  0  0  1  0  0  0  0  0  0
  180.8990  174.4380  137.5520 C   0  0  0  0  0  0  0  0  0  0  0  0
  182.7790  177.9880  137.5470 O   0  0  0  0  0  0  0  0  0  0  0  0
  181.9110  179.0720  137.4200 C   0  0  0  0  0  1  0  0  0  0  0  0
  1 31  1  6  0  0  0
  1 16  1  0  0  0  0
  2  4  1  0  0  0  0
  2  6  1  0  0  0  0
  3  1  1  0  0  0  0
  3  2  1  0  0  0  0
  4 11  1  0  0  0  0
  6 14  1  0  0  0  0
  6 17  1  0  0  0  0
  7 19  1  0  0  0  0
  8 17  1  0  0  0  0
  8  7  1  0  0  0  0
  9 15  1  0  0  0  0
 10  3  1  0  0  0  0
 11  8  1  0  0  0  0
 12 10  1  0  0  0  0
 12 15  1  0  0  0  0
 12 18  1  0  0  0  0
 13 10  1  0  0  0  0
 15 18  1  0  0  0  0
 16 14  1  0  0  0  0
 17 20  2  0  0  0  0
 18  4  1  0  0  0  0
 19  5  1  0  0  0  0
 20  5  1  0  0  0  0
 21 28  1  0  0  0  0
 21 23  1  0  0  0  0
 22 30  2  0  0  0  0
 24 30  1  0  0  0  0
 24 27  1  0  0  0  0
 25 16  1  0  0  0  0
 26 21  2  0  0  0  0
 27 25  1  0  0  0  0
 28 25  1  0  0  0  0
 28 29  1  0  0  0  0
 30 26  1  0  0  0  0
 32 31  1  0  0  0  0
M  END
>  <MODEL>
5

>  <REMARK>
 VINA RESULT:      -8.0      4.022      8.082
  Name = 
  2 active torsions:
  status: ('A' for Active; 'I' for Inactive)
    1  A    between atoms: C_1  and  O_4
    2  A    between atoms: C_16  and  C_27
                            x       y       z     vdW  Elec       q    Type
                         _______ _______ _______ _____ _____    ______ ____

>  <TORSDO>
F 2

$$$$
=
 OpenBabel11052414423D

 32 37  0  0  1  0  0  0  0  0999 V2000
  188.1350  177.5780  136.2930 C   0  0  2  0  0  3  0  0  0  0  0  0
  189.7600  177.2120  138.1480 C   0  0  2  0  0  3  0  0  0  0  0  0
  189.2320  176.6350  136.8290 C   0  0  2  0  0  3  0  0  0  0  0  0
  190.5420  176.1320  138.8900 C   0  0  2  0  0  3  0  0  0  0  0  0
  188.2700  178.2530  142.8420 C   0  0  0  0  0  2  0  0  0  0  0  0
  188.6650  177.8940  139.0180 C   0  0  1  0  0  3  0  0  0  0  0  0
  189.8630  176.3110  142.2230 C   0  0  0  0  0  2  0  0  0  0  0  0
  190.2070  177.3080  141.1100 C   0  0  1  0  0  3  0  0  0  0  0  0
  193.8880  175.7810  137.1400 C   0  0  0  0  0  1  0  0  0  0  0  0
  190.4310  176.4150  135.8970 C   0  0  1  0  0  3  0  0  0  0  0  0
  191.2090  176.7380  140.1140 C   0  0  0  0  0  2  0  0  0  0  0  0
  191.5110  175.5130  136.5160 C   0  0  1  0  0  3  0  0  0  0  0  0
  190.0150  175.7480  134.5980 C   0  0  0  0  0  1  0  0  0  0  0  0
  187.2710  177.3420  138.7030 C   0  0  0  0  0  2  0  0  0  0  0  0
  192.5040  176.3800  137.2730 C   0  0  1  0  0  3  0  0  0  0  0  0
  186.8960  177.5450  137.2280 C   0  0  2  0  0  3  0  0  0  0  0  0
  188.9470  177.8940  140.5060 C   0  0  0  0  0  0  0  0  0  0  0  0
  191.6180  175.4200  138.0460 C   0  0  1  0  0  3  0  0  0  0  0  0
  188.7830  176.8450  143.1920 C   0  0  0  0  0  2  0  0  0  0  0  0
  188.0230  178.3580  141.3630 C   0  0  0  0  0  3  0  0  0  0  0  0
  184.9800  174.1480  137.0130 C   0  0  0  0  0  0  0  0  0  0  0  0
  181.8500  175.1100  138.3680 O   0  0  0  0  0  0  0  0  0  0  0  0
  185.4440  172.9500  136.2520 C   0  0  0  0  0  1  0  0  0  0  0  0
  183.6680  176.6230  138.2520 C   0  0  0  0  0  2  0  0  0  0  0  0
  185.7910  176.5400  136.8490 C   0  0  2  0  0  3  0  0  0  0  0  0
  183.7110  174.2330  137.2920 N   0  0  0  0  0  0  0  0  0  0  0  0
  184.3790  177.1280  137.0040 C   0  0  0  0  0  2  0  0  0  0  0  0
  185.9870  175.1620  137.5030 C   0  0  2  0  0  3  0  0  0  0  0  0
  187.2940  174.7110  137.2920 O   0  0  0  0  0  1  0  0  0  0  0  0
  183.0340  175.2940  137.9860 C   0  0  0  0  0  0  0  0  0  0  0  0
  187.7900  177.3360  134.9590 O   0  0  0  0  0  0  0  0  0  0  0  0
  186.9960  178.4240  134.5940 C   0  0  0  0  0  1  0  0  0  0  0  0
  1 31  1  6  0  0  0
  1  3  1  0  0  0  0
  1 16  1  0  0  0  0
  2  4  1  0  0  0  0
  2  6  1  0  0  0  0
  3  2  1  0  0  0  0
  4 11  1  0  0  0  0
  5 19  1  0  0  0  0
  6 17  1  0  0  0  0
  7 19  1  0  0  0  0
  8  7  1  0  0  0  0
  9 15  1  0  0  0  0
 10 12  1  0  0  0  0
 10  3  1  0  0  0  0
 11  8  1  0  0  0  0
 12 15  1  0  0  0  0
 12 18  1  0  0  0  0
 13 10  1  0  0  0  0
 14  6  1  0  0  0  0
 15 18  1  0  0  0  0
 16 14  1  0  0  0  0
 17  8  1  0  0  0  0
 17 20  2  0  0  0  0
 18  4  1  0  0  0  0
 20  5  1  0  0  0  0
 21 26  2  0  0  0  0
 21 28  1  0  0  0  0
 23 21  1  0  0  0  0
 25 27  1  0  0  0  0
 25 16  1  0  0  0  0
 25 28  1  0  0  0  0
 26 30  1  0  0  0  0
 27 24  1  0  0  0  0
 29 28  1  0  0  0  0
 30 24  1  0  0  0  0
 30 22  2  0  0  0  0
 32 31  1  0  0  0  0
M  END
>  <MODEL>
6

>  <REMARK>
 VINA RESULT:      -8.0      3.247      7.530
  Name = 
  2 active torsions:
  status: ('A' for Active; 'I' for Inactive)
    1  A    between atoms: C_1  and  O_4
    2  A    between atoms: C_16  and  C_27
                            x       y       z     vdW  Elec       q    Type
                         _______ _______ _______ _____ _____    ______ ____

>  <TORSDO>
F 2

$$$$
=
 OpenBabel11052414423D

 32 37  0  0  1  0  0  0  0  0999 V2000
  182.6900  176.4920  136.6880 C   0  0  2  0  0  3  0  0  0  0  0  0
  185.0150  175.6000  136.5600 C   0  0  2  0  0  3  0  0  0  0  0  0
  183.6020  175.3120  137.0820 C   0  0  2  0  0  3  0  0  0  0  0  0
  186.0060  174.6710  137.2560 C   0  0  2  0  0  3  0  0  0  0  0  0
  188.8280  178.8300  137.1570 C   0  0  0  0  0  2  0  0  0  0  0  0
  185.4160  177.1010  136.6300 C   0  0  1  0  0  3  0  0  0  0  0  0
  188.8590  176.3810  137.9870 C   0  0  0  0  0  2  0  0  0  0  0  0
  187.9340  176.2420  136.7730 C   0  0  1  0  0  3  0  0  0  0  0  0
  185.6000  171.2400  135.6930 C   0  0  0  0  0  1  0  0  0  0  0  0
  183.1740  173.9360  136.5520 C   0  0  1  0  0  3  0  0  0  0  0  0
  187.3800  174.8310  136.6270 C   0  0  0  0  0  2  0  0  0  0  0  0
  184.1560  172.8180  136.9330 C   0  0  1  0  0  3  0  0  0  0  0  0
  181.8220  173.5210  137.1040 C   0  0  0  0  0  1  0  0  0  0  0  0
  184.6230  177.8460  137.7080 C   0  0  0  0  0  2  0  0  0  0  0  0
  185.2110  172.6940  135.8450 C   0  0  1  0  0  3  0  0  0  0  0  0
  183.1100  177.7740  137.4560 C   0  0  2  0  0  3  0  0  0  0  0  0
  186.9050  177.3540  136.7510 C   0  0  0  0  0  0  0  0  0  0  0  0
  185.6210  173.1780  137.2250 C   0  0  1  0  0  3  0  0  0  0  0  0
  189.3610  177.8290  138.1960 C   0  0  0  0  0  2  0  0  0  0  0  0
  187.3590  178.6050  136.9290 C   0  0  0  0  0  3  0  0  0  0  0  0
  180.3540  179.1020  139.8850 C   0  0  0  0  0  0  0  0  0  0  0  0
  179.3770  176.0690  141.4360 O   0  0  0  0  0  0  0  0  0  0  0  0
  180.1130  180.5400  140.2030 C   0  0  0  0  0  1  0  0  0  0  0  0
  180.9810  176.1090  139.6960 C   0  0  0  0  0  2  0  0  0  0  0  0
  182.3680  178.0390  138.7810 C   0  0  2  0  0  3  0  0  0  0  0  0
  179.9170  178.2140  140.7320 N   0  0  0  0  0  0  0  0  0  0  0  0
  182.3360  176.8040  139.6970 C   0  0  0  0  0  2  0  0  0  0  0  0
  181.0050  178.7200  138.5760 C   0  0  2  0  0  3  0  0  0  0  0  0
  181.1460  179.8360  137.7440 O   0  0  0  0  0  1  0  0  0  0  0  0
  180.0510  176.7850  140.6540 C   0  0  0  0  0  0  0  0  0  0  0  0
  181.3260  176.2190  136.8320 O   0  0  0  0  0  0  0  0  0  0  0  0
  180.7460  176.6630  135.6420 C   0  0  0  0  0  1  0  0  0  0  0  0
  1 31  1  1  0  0  0
  1  3  1  0  0  0  0
  1 16  1  0  0  0  0
  2  6  1  0  0  0  0
  2  3  1  0  0  0  0
  2  4  1  0  0  0  0
  5 19  1  0  0  0  0
  6 17  1  0  0  0  0
  6 14  1  0  0  0  0
  7 19  1  0  0  0  0
  8  7  1  0  0  0  0
  9 15  1  0  0  0  0
 10 12  1  0  0  0  0
 10  3  1  0  0  0  0
 10 13  1  0  0  0  0
 11  8  1  0  0  0  0
 11  4  1  0  0  0  0
 12 18  1  0  0  0  0
 15 12  1  0  0  0  0
 15 18  1  0  0  0  0
 16 14  1  0  0  0  0
 16 25  1  0  0  0  0
 17  8  1  0  0  0  0
 17 20  2  0  0  0  0
 18  4  1  0  0  0  0
 20  5  1  0  0  0  0
 21 23  1  0  0  0  0
 21 26  2  0  0  0  0
 24 27  1  0  0  0  0
 24 30  1  0  0  0  0
 25 27  1  0  0  0  0
 28 25  1  0  0  0  0
 28 21  1  0  0  0  0
 29 28  1  0  0  0  0
 30 26  1  0  0  0  0
 30 22  2  0  0  0  0
 32 31  1  0  0  0  0
M  END
>  <MODEL>
7

>  <REMARK>
 VINA RESULT:      -7.9      5.762      9.394
  Name = 
  2 active torsions:
  status: ('A' for Active; 'I' for Inactive)
    1  A    between atoms: C_1  and  O_4
    2  A    between atoms: C_16  and  C_27
                            x       y       z     vdW  Elec       q    Type
                         _______ _______ _______ _____ _____    ______ ____

>  <TORSDO>
F 2

$$$$
=
 OpenBabel11052414423D

 32 37  0  0  1  0  0  0  0  0999 V2000
  187.6190  177.7400  136.7070 C   0  0  2  0  0  3  0  0  0  0  0  0
  188.4660  177.8830  139.0480 C   0  0  2  0  0  3  0  0  0  0  0  0
  188.5550  177.0830  137.7420 C   0  0  2  0  0  3  0  0  0  0  0  0
  189.0560  177.0530  140.1850 C   0  0  2  0  0  3  0  0  0  0  0  0
  185.2000  179.0980  142.6790 C   0  0  0  0  0  2  0  0  0  0  0  0
  187.0420  178.4300  139.3520 C   0  0  1  0  0  3  0  0  0  0  0  0
  187.1620  177.4420  142.9890 C   0  0  0  0  0  2  0  0  0  0  0  0
  187.7550  178.3660  141.9190 C   0  0  1  0  0  3  0  0  0  0  0  0
  192.8270  177.1660  139.8040 C   0  0  0  0  0  1  0  0  0  0  0  0
  190.0340  177.0000  137.3410 C   0  0  1  0  0  3  0  0  0  0  0  0
  189.1260  177.8980  141.4470 C   0  0  0  0  0  2  0  0  0  0  0  0
  190.9180  176.3890  138.4390 C   0  0  1  0  0  3  0  0  0  0  0  0
  190.2310  176.1370  136.1070 C   0  0  0  0  0  1  0  0  0  0  0  0
  185.9580  177.5940  138.6650 C   0  0  0  0  0  2  0  0  0  0  0  0
  191.4250  177.5020  139.3420 C   0  0  1  0  0  3  0  0  0  0  0  0
  186.1380  177.5690  137.1400 C   0  0  2  0  0  3  0  0  0  0  0  0
  186.7440  178.6370  140.8240 C   0  0  0  0  0  0  0  0  0  0  0  0
  190.4580  176.4750  139.9020 C   0  0  1  0  0  3  0  0  0  0  0  0
  185.7350  177.8570  143.4150 C   0  0  0  0  0  2  0  0  0  0  0  0
  185.5110  179.0030  141.2120 C   0  0  0  0  0  3  0  0  0  0  0  0
  185.0760  173.8340  136.7190 C   0  0  0  0  0  0  0  0  0  0  0  0
  181.5660  174.1370  137.1010 O   0  0  0  0  0  0  0  0  0  0  0  0
  185.9630  172.7430  136.2170 C   0  0  0  0  0  1  0  0  0  0  0  0
  183.0030  176.0020  137.3430 C   0  0  0  0  0  2  0  0  0  0  0  0
  185.4060  176.3380  136.5690 C   0  0  2  0  0  3  0  0  0  0  0  0
  183.7890  173.6510  136.6420 N   0  0  0  0  0  0  0  0  0  0  0  0
  183.9190  176.6120  136.2900 C   0  0  0  0  0  2  0  0  0  0  0  0
  185.6820  175.0550  137.3700 C   0  0  2  0  0  3  0  0  0  0  0  0
  187.0590  174.8910  137.5550 O   0  0  0  0  0  1  0  0  0  0  0  0
  182.7480  174.5600  137.0340 C   0  0  0  0  0  0  0  0  0  0  0  0
  187.8350  177.3020  135.3970 O   0  0  0  0  0  0  0  0  0  0  0  0
  187.2060  178.2540  134.5940 C   0  0  0  0  0  1  0  0  0  0  0  0
  1 31  1  6  0  0  0
  1 16  1  0  0  0  0
  1  3  1  0  0  0  0
  2  6  1  0  0  0  0
  2  4  1  0  0  0  0
  3  2  1  0  0  0  0
  4 11  1  0  0  0  0
  5 19  1  0  0  0  0
  6 17  1  0  0  0  0
  7 19  1  0  0  0  0
  8  7  1  0  0  0  0
 10  3  1  0  0  0  0
 10 12  1  0  0  0  0
 11  8  1  0  0  0  0
 12 15  1  0  0  0  0
 12 18  1  0  0  0  0
 13 10  1  0  0  0  0
 14  6  1  0  0  0  0
 15  9  1  0  0  0  0
 15 18  1  0  0  0  0
 16 14  1  0  0  0  0
 17 20  2  0  0  0  0
 17  8  1  0  0  0  0
 18  4  1  0  0  0  0
 20  5  1  0  0  0  0
 21 28  1  0  0  0  0
 23 21  1  0  0  0  0
 25 16  1  0  0  0  0
 25 28  1  0  0  0  0
 26 21  2  0  0  0  0
 26 30  1  0  0  0  0
 27 25  1  0  0  0  0
 27 24  1  0  0  0  0
 28 29  1  0  0  0  0
 30 22  2  0  0  0  0
 30 24  1  0  0  0  0
 32 31  1  0  0  0  0
M  END
>  <MODEL>
8

>  <REMARK>
 VINA RESULT:      -7.9      3.178      6.643
  Name = 
  2 active torsions:
  status: ('A' for Active; 'I' for Inactive)
    1  A    between atoms: C_1  and  O_4
    2  A    between atoms: C_16  and  C_27
                            x       y       z     vdW  Elec       q    Type
                         _______ _______ _______ _____ _____    ______ ____

>  <TORSDO>
F 2

$$$$
=
 OpenBabel11052414423D

 32 37  0  0  1  0  0  0  0  0999 V2000
  184.9600  179.3810  142.7390 C   0  0  2  0  0  3  0  0  0  0  0  0
  183.7360  178.7590  140.6580 C   0  0  2  0  0  3  0  0  0  0  0  0
  183.7850  178.5550  142.1770 C   0  0  2  0  0  3  0  0  0  0  0  0
  182.8610  177.6750  140.0350 C   0  0  2  0  0  3  0  0  0  0  0  0
  186.4310  177.8770  136.5000 C   0  0  0  0  0  2  0  0  0  0  0  0
  185.1380  178.8830  139.9960 C   0  0  1  0  0  3  0  0  0  0  0  0
  184.2630  176.6090  137.1200 C   0  0  0  0  0  2  0  0  0  0  0  0
  183.9820  177.9630  137.7790 C   0  0  1  0  0  3  0  0  0  0  0  0
  179.2570  178.5980  140.7650 C   0  0  0  0  0  1  0  0  0  0  0  0
  182.4010  178.8980  142.7440 C   0  0  1  0  0  3  0  0  0  0  0  0
  182.6700  177.9660  138.5550 C   0  0  0  0  0  2  0  0  0  0  0  0
  181.2710  178.0790  142.1010 C   0  0  1  0  0  3  0  0  0  0  0  0
  182.3250  178.6270  144.2360 C   0  0  0  0  0  1  0  0  0  0  0  0
  186.2210  178.1980  140.8360 C   0  0  0  0  0  2  0  0  0  0  0  0
  180.7470  178.8300  140.8860 C   0  0  1  0  0  3  0  0  0  0  0  0
  186.3110  178.7950  142.2480 C   0  0  2  0  0  3  0  0  0  0  0  0
  185.1950  178.4500  138.5450 C   0  0  0  0  0  0  0  0  0  0  0  0
  181.4740  177.5110  140.6870 C   0  0  1  0  0  3  0  0  0  0  0  0
  185.6320  176.5660  136.4010 C   0  0  0  0  0  2  0  0  0  0  0  0
  186.3730  178.4120  137.9030 C   0  0  0  0  0  3  0  0  0  0  0  0
  189.1550  176.9510  144.1900 C   0  0  0  0  0  0  0  0  0  0  0  0
  187.9460  177.2620  147.5070 O   0  0  0  0  0  0  0  0  0  0  0  0
  190.2180  176.1140  143.5600 C   0  0  0  0  0  1  0  0  0  0  0  0
  186.8150  178.2530  145.6790 C   0  0  0  0  0  2  0  0  0  0  0  0
  186.9820  177.7710  143.1840 C   0  0  2  0  0  3  0  0  0  0  0  0
  188.8970  176.7530  145.4510 N   0  0  0  0  0  0  0  0  0  0  0  0
  186.1880  177.5500  144.4820 C   0  0  0  0  0  2  0  0  0  0  0  0
  188.4820  178.0400  143.3880 C   0  0  2  0  0  3  0  0  0  0  0  0
  189.1120  178.2110  142.1500 O   0  0  0  0  0  1  0  0  0  0  0  0
  187.9090  177.4120  146.2590 C   0  0  0  0  0  0  0  0  0  0  0  0
  184.9290  179.5280  144.1300 O   0  0  0  0  0  0  0  0  0  0  0  0
  184.9300  180.9070  144.3430 C   0  0  0  0  0  1  0  0  0  0  0  0
  1 31  1  1  0  0  0
  2  3  1  0  0  0  0
  3  1  1  0  0  0  0
  3 10  1  0  0  0  0
  4  2  1  0  0  0  0
  4 18  1  0  0  0  0
  5 20  1  0  0  0  0
  6  2  1  0  0  0  0
  6 14  1  0  0  0  0
  7  8  1  0  0  0  0
  8 17  1  0  0  0  0
  8 11  1  0  0  0  0
  9 15  1  0  0  0  0
 10 13  1  0  0  0  0
 11  4  1  0  0  0  0
 12 10  1  0  0  0  0
 14 16  1  0  0  0  0
 15 12  1  0  0  0  0
 16  1  1  0  0  0  0
 16 25  1  0  0  0  0
 17  6  1  0  0  0  0
 18 15  1  0  0  0  0
 18 12  1  0  0  0  0
 19  5  1  0  0  0  0
 19  7  1  0  0  0  0
 20 17  2  0  0  0  0
 21 26  2  0  0  0  0
 23 21  1  0  0  0  0
 24 30  1  0  0  0  0
 25 28  1  0  0  0  0
 25 27  1  0  0  0  0
 26 30  1  0  0  0  0
 27 24  1  0  0  0  0
 28 21  1  0  0  0  0
 29 28  1  0  0  0  0
 30 22  2  0  0  0  0
 31 32  1  0  0  0  0
M  END
>  <MODEL>
9

>  <REMARK>
 VINA RESULT:      -7.8      3.007      5.926
  Name = 
  2 active torsions:
  status: ('A' for Active; 'I' for Inactive)
    1  A    between atoms: C_1  and  O_4
    2  A    between atoms: C_16  and  C_27
                            x       y       z     vdW  Elec       q    Type
                         _______ _______ _______ _____ _____    ______ ____

>  <TORSDO>
F 2

$$$$
