=
 OpenBabel11052412413D

 25 28  0  0  1  0  0  0  0  0999 V2000
  189.0200  177.5090  145.4280 C   0  0  0  0  0  0  0  0  0  0  0  0
  188.2740  177.7300  144.2720 C   0  0  0  0  0  0  0  0  0  0  0  0
  187.0430  177.6420  146.7890 C   0  0  0  0  0  3  0  0  0  0  0  0
  190.4860  177.3780  145.6290 C   0  0  1  0  0  3  0  0  0  0  0  0
  188.7970  178.0500  140.6540 N   0  0  0  0  0  2  0  0  0  0  0  0
  192.3870  175.7230  146.9630 N   0  0  0  0  0  0  0  0  0  0  0  0
  186.3020  177.8420  145.6590 N   0  0  0  0  0  0  0  0  0  0  0  0
  190.5090  177.1650  147.1190 C   0  0  2  0  0  3  0  0  0  0  0  0
  191.6610  176.4960  147.7220 C   0  0  0  0  0  3  0  0  0  0  0  0
  186.1040  178.1070  143.2650 C   0  0  0  0  0  0  0  0  0  0  0  0
  184.6260  178.2830  143.3420 C   0  0  0  0  0  1  0  0  0  0  0  0
  188.2040  178.2790  139.3680 C   0  0  0  0  0  0  0  0  0  0  0  0
  188.8550  177.7890  143.0460 N   0  0  0  0  0  0  0  0  0  0  0  0
  192.0550  175.4730  145.5790 C   0  0  0  0  0  3  0  0  0  0  0  0
  188.4220  177.4930  146.6600 C   0  0  0  0  0  0  0  0  0  0  0  0
  189.3500  177.2330  147.7000 N   0  0  0  0  0  2  0  0  0  0  0  0
  186.7310  178.1610  142.0170 C   0  0  0  0  0  3  0  0  0  0  0  0
  191.1170  176.1950  144.9430 C   0  0  0  0  0  3  0  0  0  0  0  0
  188.1220  178.0010  141.9190 C   0  0  0  0  0  0  0  0  0  0  0  0
  186.8750  177.8910  144.4150 C   0  0  0  0  0  0  0  0  0  0  0  0
  186.9720  178.5220  139.2580 O   0  0  0  0  0  0  0  0  0  0  0  0
  188.5390  177.4720  137.1780 F   0  0  0  0  0  0  0  0  0  0  0  0
  189.0720  178.2970  138.1510 C   0  0  0  0  0  0  0  0  0  0  0  0
  190.3360  177.8490  138.4850 F   0  0  0  0  0  0  0  0  0  0  0  0
  189.1640  179.5830  137.6490 F   0  0  0  0  0  0  0  0  0  0  0  0
  1  4  1  0  0  0  0
  1 15  1  0  0  0  0
  2 20  1  0  0  0  0
  2  1  2  0  0  0  0
  4 18  1  6  0  0  0
  4  8  1  0  0  0  0
  5 19  1  0  0  0  0
  6  9  2  0  0  0  0
  7  3  1  0  0  0  0
  8 16  1  0  0  0  0
  8  9  1  6  0  0  0
 10 11  1  0  0  0  0
 10 20  1  0  0  0  0
 12  5  1  0  0  0  0
 13  2  1  0  0  0  0
 14  6  1  0  0  0  0
 15  3  2  0  0  0  0
 15 16  1  0  0  0  0
 17 10  2  0  0  0  0
 18 14  2  0  0  0  0
 19 17  1  0  0  0  0
 19 13  2  0  0  0  0
 20  7  2  0  0  0  0
 21 12  2  0  0  0  0
 22 23  1  0  0  0  0
 23 24  1  0  0  0  0
 23 12  1  0  0  0  0
 25 23  1  0  0  0  0
M  END
>  <MODEL>
1

>  <REMARK>
 VINA RESULT:      -9.8      0.000      0.000
  Name = 
  1 active torsions:
  status: ('A' for Active; 'I' for Inactive)
    1  A    between atoms: C_7  and  C_15
                            x       y       z     vdW  Elec       q    Type
                         _______ _______ _______ _____ _____    ______ ____

>  <TORSDO>
F 1

$$$$
=
 OpenBabel11052412413D

 25 28  0  0  1  0  0  0  0  0999 V2000
  184.1010  178.4440  142.8420 C   0  0  0  0  0  0  0  0  0  0  0  0
  185.2100  178.2590  143.6660 C   0  0  0  0  0  0  0  0  0  0  0  0
  182.7720  179.1640  144.7110 C   0  0  0  0  0  3  0  0  0  0  0  0
  183.9030  178.1550  141.3990 C   0  0  1  0  0  3  0  0  0  0  0  0
  188.7000  177.1560  143.4080 N   0  0  0  0  0  2  0  0  0  0  0  0
  182.8600  179.3620  139.0340 N   0  0  0  0  0  0  0  0  0  0  0  0
  183.8590  179.0030  145.5220 N   0  0  0  0  0  0  0  0  0  0  0  0
  182.4760  178.6130  141.2530 C   0  0  2  0  0  3  0  0  0  0  0  0
  181.9860  178.9950  139.9300 C   0  0  0  0  0  3  0  0  0  0  0  0
  186.1680  178.3890  145.8860 C   0  0  0  0  0  0  0  0  0  0  0  0
  186.0850  178.6880  147.3430 C   0  0  0  0  0  1  0  0  0  0  0  0
  189.9330  176.8940  144.0930 C   0  0  0  0  0  0  0  0  0  0  0  0
  186.3950  177.8080  143.1790 N   0  0  0  0  0  0  0  0  0  0  0  0
  184.2720  179.4510  139.3300 C   0  0  0  0  0  3  0  0  0  0  0  0
  182.9020  178.8610  143.3580 C   0  0  0  0  0  0  0  0  0  0  0  0
  181.9120  179.0060  142.3540 N   0  0  0  0  0  2  0  0  0  0  0  0
  187.3750  177.9250  145.3550 C   0  0  0  0  0  3  0  0  0  0  0  0
  184.7820  178.9470  140.4670 C   0  0  0  0  0  3  0  0  0  0  0  0
  187.4770  177.6330  143.9860 C   0  0  0  0  0  0  0  0  0  0  0  0
  185.0640  178.5600  145.0410 C   0  0  0  0  0  0  0  0  0  0  0  0
  190.0180  177.0230  145.3450 O   0  0  0  0  0  0  0  0  0  0  0  0
  192.0550  177.3990  143.1980 F   0  0  0  0  0  0  0  0  0  0  0  0
  191.1120  176.3960  143.3200 C   0  0  0  0  0  0  0  0  0  0  0  0
  190.7000  176.0030  142.0610 F   0  0  0  0  0  0  0  0  0  0  0  0
  191.6860  175.3170  143.9680 F   0  0  0  0  0  0  0  0  0  0  0  0
  1 15  2  0  0  0  0
  1  2  1  0  0  0  0
  2 20  2  0  0  0  0
  3  7  2  0  0  0  0
  4 18  1  6  0  0  0
  4  1  1  0  0  0  0
  5 19  1  0  0  0  0
  5 12  1  0  0  0  0
  6 14  1  0  0  0  0
  6  9  2  0  0  0  0
  8  9  1  6  0  0  0
  8  4  1  0  0  0  0
  8 16  1  0  0  0  0
 10 11  1  0  0  0  0
 12 21  2  0  0  0  0
 13  2  1  0  0  0  0
 13 19  2  0  0  0  0
 14 18  2  0  0  0  0
 15  3  1  0  0  0  0
 16 15  1  0  0  0  0
 17 10  2  0  0  0  0
 19 17  1  0  0  0  0
 20  7  1  0  0  0  0
 20 10  1  0  0  0  0
 22 23  1  0  0  0  0
 23 25  1  0  0  0  0
 23 12  1  0  0  0  0
 24 23  1  0  0  0  0
M  END
>  <MODEL>
2

>  <REMARK>
 VINA RESULT:      -9.8      3.423      6.864
  Name = 
  1 active torsions:
  status: ('A' for Active; 'I' for Inactive)
    1  A    between atoms: C_7  and  C_15
                            x       y       z     vdW  Elec       q    Type
                         _______ _______ _______ _____ _____    ______ ____

>  <TORSDO>
F 1

$$$$
=
 OpenBabel11052412413D

 25 28  0  0  1  0  0  0  0  0999 V2000
  188.1710  177.7130  144.6650 C   0  0  0  0  0  0  0  0  0  0  0  0
  186.9060  178.0150  144.1680 C   0  0  0  0  0  0  0  0  0  0  0  0
  187.3760  177.8850  146.9270 C   0  0  0  0  0  3  0  0  0  0  0  0
  189.4660  177.5040  143.9690 C   0  0  1  0  0  3  0  0  0  0  0  0
  185.2330  178.4540  140.9310 N   0  0  0  0  0  2  0  0  0  0  0  0
  191.6810  175.7080  143.9280 N   0  0  0  0  0  0  0  0  0  0  0  0
  186.1280  178.1650  146.4480 N   0  0  0  0  0  0  0  0  0  0  0  0
  190.3430  177.2310  145.1620 C   0  0  2  0  0  3  0  0  0  0  0  0
  191.5850  176.4840  144.9720 C   0  0  0  0  0  3  0  0  0  0  0  0
  184.5850  178.5350  144.6240 C   0  0  0  0  0  0  0  0  0  0  0  0
  183.4460  178.7780  145.5540 C   0  0  0  0  0  1  0  0  0  0  0  0
  184.0160  178.7620  140.2380 C   0  0  0  0  0  0  0  0  0  0  0  0
  186.6620  178.0950  142.8330 N   0  0  0  0  0  0  0  0  0  0  0  0
  190.5870  175.5290  143.0000 C   0  0  0  0  0  3  0  0  0  0  0  0
  188.4070  177.6750  146.0150 C   0  0  0  0  0  0  0  0  0  0  0  0
  189.7490  177.3310  146.3120 N   0  0  0  0  0  2  0  0  0  0  0  0
  184.3660  178.6090  143.2460 C   0  0  0  0  0  3  0  0  0  0  0  0
  189.5020  176.3210  143.0380 C   0  0  0  0  0  3  0  0  0  0  0  0
  185.4240  178.3870  142.3510 C   0  0  0  0  0  0  0  0  0  0  0  0
  185.8670  178.2370  145.1030 C   0  0  0  0  0  0  0  0  0  0  0  0
  182.9690  179.0680  140.8710 O   0  0  0  0  0  0  0  0  0  0  0  0
  185.2990  178.9140  138.2650 F   0  0  0  0  0  0  0  0  0  0  0  0
  184.0070  178.7870  138.7430 C   0  0  0  0  0  0  0  0  0  0  0  0
  183.2540  179.8610  138.3080 F   0  0  0  0  0  0  0  0  0  0  0  0
  183.4590  177.6170  138.2490 F   0  0  0  0  0  0  0  0  0  0  0  0
  1 15  1  0  0  0  0
  2  1  2  0  0  0  0
  2 20  1  0  0  0  0
  4 18  1  6  0  0  0
  4  1  1  0  0  0  0
  4  8  1  0  0  0  0
  5 19  1  0  0  0  0
  6  9  2  0  0  0  0
  7  3  1  0  0  0  0
  8  9  1  6  0  0  0
  8 16  1  0  0  0  0
 10 20  1  0  0  0  0
 10 11  1  0  0  0  0
 12 21  2  0  0  0  0
 12  5  1  0  0  0  0
 13  2  1  0  0  0  0
 14 18  2  0  0  0  0
 14  6  1  0  0  0  0
 15 16  1  0  0  0  0
 15  3  2  0  0  0  0
 17 10  2  0  0  0  0
 19 13  2  0  0  0  0
 19 17  1  0  0  0  0
 20  7  2  0  0  0  0
 22 23  1  0  0  0  0
 23 12  1  0  0  0  0
 24 23  1  0  0  0  0
 25 23  1  0  0  0  0
M  END
>  <MODEL>
3

>  <REMARK>
 VINA RESULT:      -9.1      2.664      3.228
  Name = 
  1 active torsions:
  status: ('A' for Active; 'I' for Inactive)
    1  A    between atoms: C_7  and  C_15
                            x       y       z     vdW  Elec       q    Type
                         _______ _______ _______ _____ _____    ______ ____

>  <TORSDO>
F 1

$$$$
=
 OpenBabel11052412413D

 25 28  0  0  1  0  0  0  0  0999 V2000
  189.9290  177.6630  143.5680 C   0  0  0  0  0  0  0  0  0  0  0  0
  188.8170  177.7400  144.4030 C   0  0  0  0  0  0  0  0  0  0  0  0
  191.3430  177.0810  145.4230 C   0  0  0  0  0  3  0  0  0  0  0  0
  190.0840  177.9670  142.1220 C   0  0  1  0  0  3  0  0  0  0  0  0
  185.2330  178.4950  144.1810 N   0  0  0  0  0  2  0  0  0  0  0  0
  191.2150  176.8630  139.7480 N   0  0  0  0  0  0  0  0  0  0  0  0
  190.2530  177.1370  146.2460 N   0  0  0  0  0  0  0  0  0  0  0  0
  191.5470  177.6510  141.9620 C   0  0  2  0  0  3  0  0  0  0  0  0
  192.0590  177.3160  140.6340 C   0  0  0  0  0  3  0  0  0  0  0  0
  187.8990  177.5220  146.6330 C   0  0  0  0  0  0  0  0  0  0  0  0
  188.0270  177.2360  148.0900 C   0  0  0  0  0  1  0  0  0  0  0  0
  183.9870  178.6370  144.8790 C   0  0  0  0  0  0  0  0  0  0  0  0
  187.5880  178.0720  143.9280 N   0  0  0  0  0  0  0  0  0  0  0  0
  189.8220  176.6370  140.0590 C   0  0  0  0  0  3  0  0  0  0  0  0
  191.1690  177.3670  144.0720 C   0  0  0  0  0  0  0  0  0  0  0  0
  192.1580  177.3180  143.0570 N   0  0  0  0  0  2  0  0  0  0  0  0
  186.6470  177.8640  146.1150 C   0  0  0  0  0  3  0  0  0  0  0  0
  189.2770  177.0900  141.2010 C   0  0  0  0  0  3  0  0  0  0  0  0
  186.5030  178.1420  144.7460 C   0  0  0  0  0  0  0  0  0  0  0  0
  189.0060  177.4580  145.7770 C   0  0  0  0  0  0  0  0  0  0  0  0
  183.9280  178.5030  146.1310 O   0  0  0  0  0  0  0  0  0  0  0  0
  182.6270  180.3910  144.0830 F   0  0  0  0  0  0  0  0  0  0  0  0
  182.7570  179.0150  144.1180 C   0  0  0  0  0  0  0  0  0  0  0  0
  181.6500  178.4700  144.7390 F   0  0  0  0  0  0  0  0  0  0  0  0
  182.8330  178.5380  142.8210 F   0  0  0  0  0  0  0  0  0  0  0  0
  1 15  2  0  0  0  0
  1  2  1  0  0  0  0
  2 20  2  0  0  0  0
  3  7  2  0  0  0  0
  4 18  1  6  0  0  0
  4  1  1  0  0  0  0
  5 19  1  0  0  0  0
  5 12  1  0  0  0  0
  6 14  1  0  0  0  0
  6  9  2  0  0  0  0
  8  9  1  6  0  0  0
  8  4  1  0  0  0  0
  8 16  1  0  0  0  0
 10 11  1  0  0  0  0
 12 21  2  0  0  0  0
 13  2  1  0  0  0  0
 13 19  2  0  0  0  0
 14 18  2  0  0  0  0
 15  3  1  0  0  0  0
 16 15  1  0  0  0  0
 17 10  2  0  0  0  0
 19 17  1  0  0  0  0
 20  7  1  0  0  0  0
 20 10  1  0  0  0  0
 22 23  1  0  0  0  0
 23 24  1  0  0  0  0
 23 12  1  0  0  0  0
 25 23  1  0  0  0  0
M  END
>  <MODEL>
4

>  <REMARK>
 VINA RESULT:      -9.1      3.991      5.844
  Name = 
  1 active torsions:
  status: ('A' for Active; 'I' for Inactive)
    1  A    between atoms: C_7  and  C_15
                            x       y       z     vdW  Elec       q    Type
                         _______ _______ _______ _____ _____    ______ ____

>  <TORSDO>
F 1

$$$$
=
 OpenBabel11052412413D

 25 28  0  0  1  0  0  0  0  0999 V2000
  189.6000  177.3790  140.1590 C   0  0  0  0  0  0  0  0  0  0  0  0
  188.7870  177.6580  141.2550 C   0  0  0  0  0  0  0  0  0  0  0  0
  187.9320  178.2180  138.6460 C   0  0  0  0  0  3  0  0  0  0  0  0
  190.9230  176.7070  140.0740 C   0  0  1  0  0  3  0  0  0  0  0  0
  188.8580  177.3430  144.9100 N   0  0  0  0  0  2  0  0  0  0  0  0
  193.4820  177.0270  138.8590 N   0  0  0  0  0  0  0  0  0  0  0  0
  187.1350  178.5110  139.7160 N   0  0  0  0  0  0  0  0  0  0  0  0
  191.1380  176.7810  138.5870 C   0  0  2  0  0  3  0  0  0  0  0  0
  192.5010  176.7040  138.0630 C   0  0  0  0  0  3  0  0  0  0  0  0
  186.6940  178.5430  142.0920 C   0  0  0  0  0  0  0  0  0  0  0  0
  185.3530  179.1650  141.8990 C   0  0  0  0  0  1  0  0  0  0  0  0
  188.1630  177.5430  146.1490 C   0  0  0  0  0  0  0  0  0  0  0  0
  189.1790  177.3810  142.5260 N   0  0  0  0  0  0  0  0  0  0  0  0
  193.2560  177.5030  140.2050 C   0  0  0  0  0  3  0  0  0  0  0  0
  189.1710  177.6290  138.8820 C   0  0  0  0  0  0  0  0  0  0  0  0
  190.1530  177.2940  137.9150 N   0  0  0  0  0  2  0  0  0  0  0  0
  187.1260  178.2470  143.3880 C   0  0  0  0  0  3  0  0  0  0  0  0
  192.0440  177.4230  140.7800 C   0  0  0  0  0  3  0  0  0  0  0  0
  188.3830  177.6580  143.5950 C   0  0  0  0  0  0  0  0  0  0  0  0
  187.5250  178.2470  141.0040 C   0  0  0  0  0  0  0  0  0  0  0  0
  186.9850  177.9910  146.1650 O   0  0  0  0  0  0  0  0  0  0  0  0
  189.9380  176.3780  147.1750 F   0  0  0  0  0  0  0  0  0  0  0  0
  188.8210  177.1490  147.4330 C   0  0  0  0  0  0  0  0  0  0  0  0
  187.9310  176.4190  148.1980 F   0  0  0  0  0  0  0  0  0  0  0  0
  189.2060  178.2770  148.1370 F   0  0  0  0  0  0  0  0  0  0  0  0
  1  2  1  0  0  0  0
  2 13  1  0  0  0  0
  3 15  1  0  0  0  0
  3  7  2  0  0  0  0
  4  1  1  0  0  0  0
  4 18  1  1  0  0  0
  5 12  1  0  0  0  0
  6 14  1  0  0  0  0
  7 20  1  0  0  0  0
  8  9  1  1  0  0  0
  8  4  1  0  0  0  0
  9  6  2  0  0  0  0
 10 17  2  0  0  0  0
 11 10  1  0  0  0  0
 12 21  2  0  0  0  0
 12 23  1  0  0  0  0
 13 19  2  0  0  0  0
 14 18  2  0  0  0  0
 15  1  2  0  0  0  0
 16  8  1  0  0  0  0
 16 15  1  0  0  0  0
 17 19  1  0  0  0  0
 19  5  1  0  0  0  0
 20  2  2  0  0  0  0
 20 10  1  0  0  0  0
 22 23  1  0  0  0  0
 23 25  1  0  0  0  0
 23 24  1  0  0  0  0
M  END
>  <MODEL>
5

>  <REMARK>
 VINA RESULT:      -9.1      4.240      6.815
  Name = 
  1 active torsions:
  status: ('A' for Active; 'I' for Inactive)
    1  A    between atoms: C_7  and  C_15
                            x       y       z     vdW  Elec       q    Type
                         _______ _______ _______ _____ _____    ______ ____

>  <TORSDO>
F 1

$$$$
=
 OpenBabel11052412413D

 25 28  0  0  1  0  0  0  0  0999 V2000
  187.6230  177.6810  144.1710 C   0  0  0  0  0  0  0  0  0  0  0  0
  188.3740  177.7040  142.9980 C   0  0  0  0  0  0  0  0  0  0  0  0
  189.6100  177.4060  145.4960 C   0  0  0  0  0  3  0  0  0  0  0  0
  186.1540  177.7030  144.3870 C   0  0  1  0  0  3  0  0  0  0  0  0
  187.8510  178.0030  139.3780 N   0  0  0  0  0  2  0  0  0  0  0  0
  184.1810  179.0030  145.9840 N   0  0  0  0  0  0  0  0  0  0  0  0
  190.3560  177.4460  144.3520 N   0  0  0  0  0  0  0  0  0  0  0  0
  186.1270  177.6490  145.8900 C   0  0  2  0  0  3  0  0  0  0  0  0
  184.9470  178.1440  146.5970 C   0  0  0  0  0  3  0  0  0  0  0  0
  190.5550  177.6170  141.9490 C   0  0  0  0  0  0  0  0  0  0  0  0
  192.0400  177.5020  142.0000 C   0  0  0  0  0  1  0  0  0  0  0  0
  188.4490  178.0330  138.0750 C   0  0  0  0  0  0  0  0  0  0  0  0
  187.7910  177.8340  141.7780 N   0  0  0  0  0  0  0  0  0  0  0  0
  184.4940  179.5090  144.6670 C   0  0  0  0  0  3  0  0  0  0  0  0
  188.2260  177.5090  145.3900 C   0  0  0  0  0  0  0  0  0  0  0  0
  187.2900  177.5350  146.4550 N   0  0  0  0  0  2  0  0  0  0  0  0
  189.9260  177.7540  140.7090 C   0  0  0  0  0  3  0  0  0  0  0  0
  185.4630  178.9560  143.9170 C   0  0  0  0  0  3  0  0  0  0  0  0
  188.5280  177.8600  140.6340 C   0  0  0  0  0  0  0  0  0  0  0  0
  189.7800  177.5890  143.1160 C   0  0  0  0  0  0  0  0  0  0  0  0
  189.6910  177.8740  137.9280 O   0  0  0  0  0  0  0  0  0  0  0  0
  187.5550  179.5110  136.4690 F   0  0  0  0  0  0  0  0  0  0  0  0
  187.5770  178.1880  136.8700 C   0  0  0  0  0  0  0  0  0  0  0  0
  186.2920  177.7860  137.1810 F   0  0  0  0  0  0  0  0  0  0  0  0
  188.0570  177.4120  135.8300 F   0  0  0  0  0  0  0  0  0  0  0  0
  1  4  1  0  0  0  0
  1 15  1  0  0  0  0
  2 20  1  0  0  0  0
  2  1  2  0  0  0  0
  4 18  1  1  0  0  0
  4  8  1  0  0  0  0
  5 19  1  0  0  0  0
  6  9  2  0  0  0  0
  7  3  1  0  0  0  0
  8 16  1  0  0  0  0
  8  9  1  1  0  0  0
 10 11  1  0  0  0  0
 10 20  1  0  0  0  0
 12  5  1  0  0  0  0
 13  2  1  0  0  0  0
 14  6  1  0  0  0  0
 15  3  2  0  0  0  0
 15 16  1  0  0  0  0
 17 10  2  0  0  0  0
 18 14  2  0  0  0  0
 19 17  1  0  0  0  0
 19 13  2  0  0  0  0
 20  7  2  0  0  0  0
 21 12  2  0  0  0  0
 22 23  1  0  0  0  0
 23 24  1  0  0  0  0
 23 12  1  0  0  0  0
 25 23  1  0  0  0  0
M  END
>  <MODEL>
6

>  <REMARK>
 VINA RESULT:      -9.0      1.976      4.384
  Name = 
  1 active torsions:
  status: ('A' for Active; 'I' for Inactive)
    1  A    between atoms: C_7  and  C_15
                            x       y       z     vdW  Elec       q    Type
                         _______ _______ _______ _____ _____    ______ ____

>  <TORSDO>
F 1

$$$$
=
 OpenBabel11052412413D

 25 28  0  0  1  0  0  0  0  0999 V2000
  186.9590  177.7530  144.5330 C   0  0  0  0  0  0  0  0  0  0  0  0
  185.9680  178.0980  143.6170 C   0  0  0  0  0  0  0  0  0  0  0  0
  188.6210  177.7230  142.7970 C   0  0  0  0  0  3  0  0  0  0  0  0
  186.8780  177.4340  145.9820 C   0  0  1  0  0  3  0  0  0  0  0  0
  182.3630  178.7810  143.5620 N   0  0  0  0  0  2  0  0  0  0  0  0
  188.1660  178.0510  148.4500 N   0  0  0  0  0  0  0  0  0  0  0  0
  187.6590  178.0780  141.8950 N   0  0  0  0  0  0  0  0  0  0  0  0
  188.3330  177.1660  146.2540 C   0  0  2  0  0  3  0  0  0  0  0  0
  188.8340  177.2970  147.6220 C   0  0  0  0  0  3  0  0  0  0  0  0
  185.3730  178.6210  141.3290 C   0  0  0  0  0  0  0  0  0  0  0  0
  185.7080  178.8170  139.8900 C   0  0  0  0  0  1  0  0  0  0  0  0
  181.2140  179.1190  142.7710 C   0  0  0  0  0  0  0  0  0  0  0  0
  184.6740  178.2710  143.9950 N   0  0  0  0  0  0  0  0  0  0  0  0
  186.9940  178.7910  148.0410 C   0  0  0  0  0  3  0  0  0  0  0  0
  188.2510  177.5440  144.1270 C   0  0  0  0  0  0  0  0  0  0  0  0
  189.1050  177.2230  145.2130 N   0  0  0  0  0  2  0  0  0  0  0  0
  184.0510  178.7940  141.7480 C   0  0  0  0  0  3  0  0  0  0  0  0
  186.4030  178.5660  146.8540 C   0  0  0  0  0  3  0  0  0  0  0  0
  183.7090  178.6110  143.0980 C   0  0  0  0  0  0  0  0  0  0  0  0
  186.3520  178.2670  142.2660 C   0  0  0  0  0  0  0  0  0  0  0  0
  181.3040  179.2480  141.5210 O   0  0  0  0  0  0  0  0  0  0  0  0
  179.9350  178.7400  144.7160 F   0  0  0  0  0  0  0  0  0  0  0  0
  179.8800  179.2530  143.4330 C   0  0  0  0  0  0  0  0  0  0  0  0
  178.9360  178.5550  142.7040 F   0  0  0  0  0  0  0  0  0  0  0  0
  179.5110  180.5850  143.4980 F   0  0  0  0  0  0  0  0  0  0  0  0
  1  4  1  0  0  0  0
  2 13  1  0  0  0  0
  2  1  2  0  0  0  0
  3 15  2  0  0  0  0
  4  8  1  0  0  0  0
  4 18  1  1  0  0  0
  7 20  2  0  0  0  0
  7  3  1  0  0  0  0
  8  9  1  1  0  0  0
  9  6  2  0  0  0  0
 10 17  2  0  0  0  0
 10 20  1  0  0  0  0
 11 10  1  0  0  0  0
 12 23  1  0  0  0  0
 12  5  1  0  0  0  0
 14  6  1  0  0  0  0
 15  1  1  0  0  0  0
 15 16  1  0  0  0  0
 16  8  1  0  0  0  0
 17 19  1  0  0  0  0
 18 14  2  0  0  0  0
 19  5  1  0  0  0  0
 19 13  2  0  0  0  0
 20  2  1  0  0  0  0
 21 12  2  0  0  0  0
 23 25  1  0  0  0  0
 23 22  1  0  0  0  0
 24 23  1  0  0  0  0
M  END
>  <MODEL>
7

>  <REMARK>
 VINA RESULT:      -8.9      4.641      6.090
  Name = 
  1 active torsions:
  status: ('A' for Active; 'I' for Inactive)
    1  A    between atoms: C_7  and  C_15
                            x       y       z     vdW  Elec       q    Type
                         _______ _______ _______ _____ _____    ______ ____

>  <TORSDO>
F 1

$$$$
=
 OpenBabel11052412413D

 25 28  0  0  1  0  0  0  0  0999 V2000
  185.4700  178.6450  144.3560 C   0  0  0  0  0  0  0  0  0  0  0  0
  185.3270  178.6290  142.9700 C   0  0  0  0  0  0  0  0  0  0  0  0
  183.0840  178.6980  144.6500 C   0  0  0  0  0  3  0  0  0  0  0  0
  186.6840  178.7220  145.2090 C   0  0  1  0  0  3  0  0  0  0  0  0
  187.4360  178.5660  139.9680 N   0  0  0  0  0  2  0  0  0  0  0  0
  187.8460  177.4910  147.5030 N   0  0  0  0  0  0  0  0  0  0  0  0
  182.9350  178.6640  143.2920 N   0  0  0  0  0  0  0  0  0  0  0  0
  186.0310  178.6980  146.5640 C   0  0  2  0  0  3  0  0  0  0  0  0
  186.8120  178.2550  147.7190 C   0  0  0  0  0  3  0  0  0  0  0  0
  183.8460  178.6080  141.0540 C   0  0  0  0  0  0  0  0  0  0  0  0
  182.4910  178.6080  140.4340 C   0  0  0  0  0  1  0  0  0  0  0  0
  187.4890  178.5610  138.5340 C   0  0  0  0  0  0  0  0  0  0  0  0
  186.4030  178.6100  142.1410 N   0  0  0  0  0  0  0  0  0  0  0  0
  188.2010  177.0340  146.1790 C   0  0  0  0  0  3  0  0  0  0  0  0
  184.3740  178.7060  145.1760 C   0  0  0  0  0  0  0  0  0  0  0  0
  184.7330  178.6920  146.5470 N   0  0  0  0  0  2  0  0  0  0  0  0
  184.9720  178.5860  140.2270 C   0  0  0  0  0  3  0  0  0  0  0  0
  187.6230  177.5520  145.0810 C   0  0  0  0  0  3  0  0  0  0  0  0
  186.2590  178.5900  140.7880 C   0  0  0  0  0  0  0  0  0  0  0  0
  184.0130  178.6320  142.4450 C   0  0  0  0  0  0  0  0  0  0  0  0
  186.4340  178.6350  137.8480 O   0  0  0  0  0  0  0  0  0  0  0  0
  188.8400  177.5340  136.8970 F   0  0  0  0  0  0  0  0  0  0  0  0
  188.8170  178.5380  137.8480 C   0  0  0  0  0  0  0  0  0  0  0  0
  189.8090  178.3040  138.7810 F   0  0  0  0  0  0  0  0  0  0  0  0
  189.0540  179.7510  137.2260 F   0  0  0  0  0  0  0  0  0  0  0  0
  1 15  1  0  0  0  0
  1  4  1  0  0  0  0
  2  1  2  0  0  0  0
  3 15  2  0  0  0  0
  4 18  1  1  0  0  0
  4  8  1  0  0  0  0
  5 19  1  0  0  0  0
  6  9  2  0  0  0  0
  7  3  1  0  0  0  0
  8  9  1  6  0  0  0
 10 20  1  0  0  0  0
 11 10  1  0  0  0  0
 12  5  1  0  0  0  0
 13  2  1  0  0  0  0
 14  6  1  0  0  0  0
 15 16  1  0  0  0  0
 16  8  1  0  0  0  0
 17 19  1  0  0  0  0
 17 10  2  0  0  0  0
 18 14  2  0  0  0  0
 19 13  2  0  0  0  0
 20  2  1  0  0  0  0
 20  7  2  0  0  0  0
 21 12  2  0  0  0  0
 22 23  1  0  0  0  0
 23 12  1  0  0  0  0
 23 24  1  0  0  0  0
 25 23  1  0  0  0  0
M  END
>  <MODEL>
8

>  <REMARK>
 VINA RESULT:      -8.9      2.138      3.429
  Name = 
  1 active torsions:
  status: ('A' for Active; 'I' for Inactive)
    1  A    between atoms: C_7  and  C_15
                            x       y       z     vdW  Elec       q    Type
                         _______ _______ _______ _____ _____    ______ ____

>  <TORSDO>
F 1

$$$$
=
 OpenBabel11052412413D

 25 28  0  0  1  0  0  0  0  0999 V2000
  186.9850  178.3770  141.2280 C   0  0  0  0  0  0  0  0  0  0  0  0
  187.9030  178.0230  142.2140 C   0  0  0  0  0  0  0  0  0  0  0  0
  188.5240  177.7370  139.4960 C   0  0  0  0  0  3  0  0  0  0  0  0
  185.6460  179.0120  141.3290 C   0  0  1  0  0  3  0  0  0  0  0  0
  188.1660  177.9920  145.8740 N   0  0  0  0  0  2  0  0  0  0  0  0
  182.9920  178.7260  140.3260 N   0  0  0  0  0  0  0  0  0  0  0  0
  189.4230  177.3700  140.4560 N   0  0  0  0  0  0  0  0  0  0  0  0
  185.2940  179.0710  139.8670 C   0  0  2  0  0  3  0  0  0  0  0  0
  183.8870  179.1530  139.4790 C   0  0  0  0  0  3  0  0  0  0  0  0
  190.0850  177.1300  142.7690 C   0  0  0  0  0  0  0  0  0  0  0  0
  191.4160  176.5720  142.3960 C   0  0  0  0  0  1  0  0  0  0  0  0
  188.9790  177.6990  147.0200 C   0  0  0  0  0  0  0  0  0  0  0  0
  187.6250  178.1670  143.5360 N   0  0  0  0  0  0  0  0  0  0  0  0
  183.3540  178.1340  141.5940 C   0  0  0  0  0  3  0  0  0  0  0  0
  187.2990  178.2620  139.9000 C   0  0  0  0  0  0  0  0  0  0  0  0
  186.2240  178.6540  139.0630 N   0  0  0  0  0  2  0  0  0  0  0  0
  189.7690  177.2890  144.1200 C   0  0  0  0  0  3  0  0  0  0  0  0
  184.6120  178.1980  142.0610 C   0  0  0  0  0  3  0  0  0  0  0  0
  188.5230  177.8170  144.4960 C   0  0  0  0  0  0  0  0  0  0  0  0
  189.1490  177.5000  141.7940 C   0  0  0  0  0  0  0  0  0  0  0  0
  190.1630  177.2890  146.8860 O   0  0  0  0  0  0  0  0  0  0  0  0
  189.4500  178.3630  149.2330 F   0  0  0  0  0  0  0  0  0  0  0  0
  188.4350  177.9500  148.3900 C   0  0  0  0  0  0  0  0  0  0  0  0
  187.8810  176.7830  148.8820 F   0  0  0  0  0  0  0  0  0  0  0  0
  187.4610  178.9320  148.3440 F   0  0  0  0  0  0  0  0  0  0  0  0
  1  4  1  0  0  0  0
  1  2  1  0  0  0  0
  2 13  1  0  0  0  0
  3 15  1  0  0  0  0
  3  7  2  0  0  0  0
  4 18  1  1  0  0  0
  5 12  1  0  0  0  0
  6 14  1  0  0  0  0
  7 20  1  0  0  0  0
  8  9  1  1  0  0  0
  8  4  1  0  0  0  0
  9  6  2  0  0  0  0
 10 17  2  0  0  0  0
 11 10  1  0  0  0  0
 12 23  1  0  0  0  0
 13 19  2  0  0  0  0
 14 18  2  0  0  0  0
 15  1  2  0  0  0  0
 16  8  1  0  0  0  0
 16 15  1  0  0  0  0
 17 19  1  0  0  0  0
 19  5  1  0  0  0  0
 20  2  2  0  0  0  0
 20 10  1  0  0  0  0
 21 12  2  0  0  0  0
 23 24  1  0  0  0  0
 23 22  1  0  0  0  0
 25 23  1  0  0  0  0
M  END
>  <MODEL>
9

>  <REMARK>
 VINA RESULT:      -8.9      4.526      7.889
  Name = 
  1 active torsions:
  status: ('A' for Active; 'I' for Inactive)
    1  A    between atoms: C_7  and  C_15
                            x       y       z     vdW  Elec       q    Type
                         _______ _______ _______ _____ _____    ______ ____

>  <TORSDO>
F 1

$$$$
