=
 OpenBabel11052415343D

 37 39  0  0  1  0  0  0  0  0999 V2000
  184.8740  173.2260  136.5820 O   0  0  0  0  0  0  0  0  0  0  0  0
  182.7550  176.7850  138.5850 C   0  0  0  0  0  0  0  0  0  0  0  0
  183.9350  173.9190  135.7410 C   0  0  2  0  0  0  0  0  0  0  0  0
  186.0080  178.1400  137.0200 C   0  0  0  0  0  2  0  0  0  0  0  0
  184.2370  176.7530  138.2170 C   0  0  0  0  0  2  0  0  0  0  0  0
  187.5870  175.3850  136.1170 C   0  0  1  0  0  3  0  0  0  0  0  0
  181.6770  177.1790  137.5720 C   0  0  2  0  0  3  0  0  0  0  0  0
  184.8150  178.1470  137.9870 C   0  0  1  0  0  3  0  0  0  0  0  0
  184.4620  175.2780  135.2730 C   0  0  0  0  0  1  0  0  0  0  0  0
  181.9280  176.5840  136.1850 C   0  0  0  0  0  2  0  0  0  0  0  0
  182.6770  174.1250  136.6030 C   0  0  0  0  0  2  0  0  0  0  0  0
  182.4360  177.0570  140.0410 C   0  0  0  0  0  2  0  0  0  0  0  0
  181.5790  175.0910  136.1140 C   0  0  2  0  0  3  0  0  0  0  0  0
  186.2770  173.2820  136.5250 C   0  0  0  0  0  0  0  0  0  0  0  0
  187.2340  177.3740  137.5240 C   0  0  0  0  0  2  0  0  0  0  0  0
  182.3440  175.6440  139.4880 C   0  0  0  0  0  2  0  0  0  0  0  0
  186.9470  172.5420  137.2910 O   0  0  0  0  0  0  0  0  0  0  0  0
  187.0150  175.8790  137.3940 C   0  0  2  0  0  3  0  0  0  0  0  0
  188.2480  175.1990  137.3470 O   0  0  0  0  0  0  0  0  0  0  0  0
  186.9410  174.1790  135.6790 O   0  0  0  0  0  0  0  0  0  0  0  0
  186.1340  178.3130  140.1490 N   0  0  0  0  0  2  0  0  0  0  0  0
  185.9760  179.9360  141.8340 O   0  0  0  0  0  0  0  0  0  0  0  0
  185.1350  178.8470  139.2710 C   0  0  0  0  0  0  0  0  0  0  0  0
  186.5230  178.8850  141.4020 C   0  0  0  0  0  0  0  0  0  0  0  0
  184.5290  179.9140  139.5540 O   0  0  0  0  0  0  0  0  0  0  0  0
  187.5820  178.2070  142.2090 C   0  0  2  0  0  3  0  0  0  0  0  0
  188.6540  177.6440  141.2940 C   0  0  0  0  0  1  0  0  0  0  0  0
  188.1080  176.3930  143.3630 C   0  0  0  0  0  1  0  0  0  0  0  0
  187.0230  177.1790  142.9720 O   0  0  0  0  0  0  0  0  0  0  0  0
  183.2060  171.7320  135.0230 C   0  0  0  0  0  1  0  0  0  0  0  0
  183.5770  173.0760  134.5940 N   0  0  0  0  0  2  0  0  0  0  0  0
  181.5860  178.6980  137.4690 C   0  0  0  0  0  2  0  0  0  0  0  0
  180.3060  179.2190  138.1010 C   0  0  0  0  0  2  0  0  0  0  0  0
  179.2640  178.1190  138.1690 C   0  0  0  0  0  1  0  0  0  0  0  0
  180.9330  174.6740  134.8640 N   0  0  0  0  0  2  0  0  0  0  0  0
  179.4790  174.7130  134.9730 C   0  0  0  0  0  2  0  0  0  0  0  0
  179.0740  174.4660  136.4110 C   0  0  0  0  0  1  0  0  0  0  0  0
  2 16  1  0  0  0  0
  2 12  1  0  0  0  0
  3  9  1  6  0  0  0
  3  1  1  0  0  0  0
  3 11  1  0  0  0  0
  4 15  1  0  0  0  0
  4  8  1  0  0  0  0
  5  2  1  0  0  0  0
  6 20  1  1  0  0  0
  6 19  1  0  0  0  0
  6 18  1  0  0  0  0
  7 32  1  6  0  0  0
  7  2  1  0  0  0  0
  8  5  1  0  0  0  0
  8 23  1  1  0  0  0
 10  7  1  0  0  0  0
 13 35  1  6  0  0  0
 13 10  1  0  0  0  0
 13 11  1  0  0  0  0
 14  1  1  0  0  0  0
 14 17  2  0  0  0  0
 16 12  1  0  0  0  0
 18 15  1  6  0  0  0
 19 18  1  0  0  0  0
 20 14  1  0  0  0  0
 21 24  1  0  0  0  0
 23 25  2  0  0  0  0
 23 21  1  0  0  0  0
 24 22  2  0  0  0  0
 24 26  1  0  0  0  0
 26 27  1  6  0  0  0
 26 29  1  0  0  0  0
 29 28  1  0  0  0  0
 31 30  1  0  0  0  0
 31  3  1  0  0  0  0
 32 33  1  0  0  0  0
 33 34  1  0  0  0  0
 35 36  1  0  0  0  0
 36 37  1  0  0  0  0
M  END
>  <MODEL>
1

>  <REMARK>
 VINA RESULT:      -5.1      0.000      0.000
  Name = 
  8 active torsions:
  status: ('A' for Active; 'I' for Inactive)
    1  A    between atoms: C_2  and  O_19
    2  A    between atoms: C_2  and  C_35
    3  A    between atoms: C_3  and  N_32
    4  A    between atoms: C_5  and  N_23
    5  A    between atoms: C_9  and  C_13
    6  A    between atoms: C_9  and  C_16
    7  A    between atoms: C_14  and  C_31
    8  A    between atoms: C_25  and  N_32
                            x       y       z     vdW  Elec       q    Type
                         _______ _______ _______ _____ _____    ______ ____

>  <TORSDO>
F 8

$$$$
=
 OpenBabel11052415343D

 37 39  0  0  1  0  0  0  0  0999 V2000
  184.2330  177.7030  142.0680 O   0  0  0  0  0  0  0  0  0  0  0  0
  188.6730  176.8080  142.8800 C   0  0  0  0  0  0  0  0  0  0  0  0
  184.8800  178.6230  142.9660 C   0  0  2  0  0  0  0  0  0  0  0  0
  188.5280  179.0780  139.7670 C   0  0  0  0  0  2  0  0  0  0  0  0
  188.1180  177.3000  141.5460 C   0  0  0  0  0  2  0  0  0  0  0  0
  185.3010  179.1590  139.0720 C   0  0  1  0  0  3  0  0  0  0  0  0
  189.0340  177.7740  144.0130 C   0  0  2  0  0  3  0  0  0  0  0  0
  189.1580  178.0490  140.7160 C   0  0  1  0  0  3  0  0  0  0  0  0
  185.8310  179.5780  142.2390 C   0  0  0  0  0  1  0  0  0  0  0  0
  188.0070  178.8960  144.1780 C   0  0  0  0  0  2  0  0  0  0  0  0
  185.6780  177.7530  143.9520 C   0  0  0  0  0  2  0  0  0  0  0  0
  189.4450  175.5050  142.8410 C   0  0  0  0  0  2  0  0  0  0  0  0
  186.7220  178.4190  144.8700 C   0  0  2  0  0  3  0  0  0  0  0  0
  183.8740  177.9250  140.7280 C   0  0  0  0  0  0  0  0  0  0  0  0
  187.6350  178.4790  138.6780 C   0  0  0  0  0  2  0  0  0  0  0  0
  188.0170  175.5340  143.3620 C   0  0  0  0  0  2  0  0  0  0  0  0
  183.2380  177.0310  140.1120 O   0  0  0  0  0  0  0  0  0  0  0  0
  186.2940  178.0710  139.2570 C   0  0  2  0  0  3  0  0  0  0  0  0
  185.3130  178.0170  138.2470 O   0  0  0  0  0  0  0  0  0  0  0  0
  184.2530  179.0910  140.0500 O   0  0  0  0  0  0  0  0  0  0  0  0
  189.6200  176.3520  138.8860 N   0  0  0  0  0  2  0  0  0  0  0  0
  191.6170  175.2170  138.4200 O   0  0  0  0  0  0  0  0  0  0  0  0
  190.0890  177.1200  140.0020 C   0  0  0  0  0  0  0  0  0  0  0  0
  190.4090  175.4290  138.1290 C   0  0  0  0  0  0  0  0  0  0  0  0
  191.2860  177.0390  140.3840 O   0  0  0  0  0  0  0  0  0  0  0  0
  189.7740  174.6990  136.9910 C   0  0  2  0  0  3  0  0  0  0  0  0
  188.3610  175.2080  136.7680 C   0  0  0  0  0  1  0  0  0  0  0  0
  188.4770  172.9100  136.8490 C   0  0  0  0  0  1  0  0  0  0  0  0
  189.7470  173.3270  137.2530 O   0  0  0  0  0  0  0  0  0  0  0  0
  182.8770  178.4760  144.3060 C   0  0  0  0  0  1  0  0  0  0  0  0
  183.8690  179.3720  143.7230 N   0  0  0  0  0  2  0  0  0  0  0  0
  190.4140  178.3740  143.7680 C   0  0  0  0  0  2  0  0  0  0  0  0
  191.4290  177.8560  144.7750 C   0  0  0  0  0  2  0  0  0  0  0  0
  190.7290  177.1120  145.8960 C   0  0  0  0  0  1  0  0  0  0  0  0
  186.1510  179.3770  145.8230 N   0  0  0  0  0  2  0  0  0  0  0  0
  185.8960  178.7580  147.1190 C   0  0  0  0  0  2  0  0  0  0  0  0
  187.1960  178.2420  147.6960 C   0  0  0  0  0  1  0  0  0  0  0  0
  1  3  1  0  0  0  0
  2 16  1  0  0  0  0
  2  7  1  0  0  0  0
  3  9  1  6  0  0  0
  3 31  1  0  0  0  0
  3 11  1  0  0  0  0
  4  8  1  0  0  0  0
  5  2  1  0  0  0  0
  6 19  1  6  0  0  0
  6 18  1  0  0  0  0
  6 20  1  0  0  0  0
  7 32  1  6  0  0  0
  7 10  1  0  0  0  0
  8 23  1  6  0  0  0
  8  5  1  0  0  0  0
 10 13  1  0  0  0  0
 11 13  1  0  0  0  0
 12  2  1  0  0  0  0
 12 16  1  0  0  0  0
 13 35  1  6  0  0  0
 14  1  1  0  0  0  0
 15  4  1  0  0  0  0
 17 14  2  0  0  0  0
 18 15  1  6  0  0  0
 19 18  1  0  0  0  0
 20 14  1  0  0  0  0
 21 23  1  0  0  0  0
 23 25  2  0  0  0  0
 24 22  2  0  0  0  0
 24 21  1  0  0  0  0
 26 27  1  1  0  0  0
 26 29  1  0  0  0  0
 26 24  1  0  0  0  0
 28 29  1  0  0  0  0
 31 30  1  0  0  0  0
 32 33  1  0  0  0  0
 33 34  1  0  0  0  0
 35 36  1  0  0  0  0
 36 37  1  0  0  0  0
M  END
>  <MODEL>
2

>  <REMARK>
 VINA RESULT:      -5.0      4.215      8.559
  Name = 
  8 active torsions:
  status: ('A' for Active; 'I' for Inactive)
    1  A    between atoms: C_2  and  O_19
    2  A    between atoms: C_2  and  C_35
    3  A    between atoms: C_3  and  N_32
    4  A    between atoms: C_5  and  N_23
    5  A    between atoms: C_9  and  C_13
    6  A    between atoms: C_9  and  C_16
    7  A    between atoms: C_14  and  C_31
    8  A    between atoms: C_25  and  N_32
                            x       y       z     vdW  Elec       q    Type
                         _______ _______ _______ _____ _____    ______ ____

>  <TORSDO>
F 8

$$$$
=
 OpenBabel11052415343D

 37 39  0  0  1  0  0  0  0  0999 V2000
  180.4270  178.0970  136.3780 O   0  0  0  0  0  0  0  0  0  0  0  0
  184.6690  176.3500  136.0320 C   0  0  0  0  0  0  0  0  0  0  0  0
  180.5540  176.7310  136.8150 C   0  0  2  0  0  0  0  0  0  0  0  0
  184.4130  178.0190  139.4980 C   0  0  0  0  0  2  0  0  0  0  0  0
  184.2570  177.4370  137.0220 C   0  0  0  0  0  2  0  0  0  0  0  0
  181.5330  179.6240  139.3240 C   0  0  1  0  0  3  0  0  0  0  0  0
  184.4720  174.8620  136.3340 C   0  0  2  0  0  3  0  0  0  0  0  0
  185.1420  177.4650  138.2660 C   0  0  1  0  0  3  0  0  0  0  0  0
  181.2710  176.6120  138.1620 C   0  0  0  0  0  1  0  0  0  0  0  0
  183.1280  174.5710  137.0040 C   0  0  0  0  0  2  0  0  0  0  0  0
  181.3810  176.0220  135.7280 C   0  0  0  0  0  2  0  0  0  0  0  0
  185.8110  176.6970  135.0990 C   0  0  0  0  0  2  0  0  0  0  0  0
  181.9560  174.6190  136.0140 C   0  0  2  0  0  3  0  0  0  0  0  0
  180.2840  179.2410  137.1810 C   0  0  0  0  0  0  0  0  0  0  0  0
  183.9900  179.4860  139.3840 C   0  0  0  0  0  2  0  0  0  0  0  0
  184.3780  176.7160  134.5950 C   0  0  0  0  0  2  0  0  0  0  0  0
  180.1030  180.3550  136.6250 O   0  0  0  0  0  0  0  0  0  0  0  0
  182.7660  179.6180  138.4980 C   0  0  2  0  0  3  0  0  0  0  0  0
  182.0720  180.8100  138.7860 O   0  0  0  0  0  0  0  0  0  0  0  0
  180.3920  179.1770  138.5760 O   0  0  0  0  0  0  0  0  0  0  0  0
  187.6200  177.7600  138.7320 N   0  0  0  0  0  2  0  0  0  0  0  0
  189.1040  179.3180  137.8010 O   0  0  0  0  0  0  0  0  0  0  0  0
  186.4430  178.1630  138.0200 C   0  0  0  0  0  0  0  0  0  0  0  0
  188.9150  178.3520  138.5900 C   0  0  0  0  0  0  0  0  0  0  0  0
  186.4880  179.0930  137.1720 O   0  0  0  0  0  0  0  0  0  0  0  0
  190.0470  177.8210  139.4060 C   0  0  2  0  0  3  0  0  0  0  0  0
  190.3660  176.3970  138.9910 C   0  0  0  0  0  1  0  0  0  0  0  0
  190.1970  176.6490  141.2780 C   0  0  0  0  0  1  0  0  0  0  0  0
  189.7210  177.8560  140.7640 O   0  0  0  0  0  0  0  0  0  0  0  0
  178.9310  175.6250  138.2180 C   0  0  0  0  0  1  0  0  0  0  0  0
  179.2300  176.1010  136.8720 N   0  0  0  0  0  2  0  0  0  0  0  0
  185.6050  174.3530  137.2180 C   0  0  0  0  0  2  0  0  0  0  0  0
  185.8210  172.8590  137.0360 C   0  0  0  0  0  2  0  0  0  0  0  0
  187.0810  172.6000  136.2340 C   0  0  0  0  0  1  0  0  0  0  0  0
  180.9330  173.5900  136.2290 N   0  0  0  0  0  2  0  0  0  0  0  0
  181.0750  172.4870  135.2860 C   0  0  0  0  0  2  0  0  0  0  0  0
  181.6020  171.2680  136.0120 C   0  0  0  0  0  1  0  0  0  0  0  0
  1  3  1  0  0  0  0
  1 14  1  0  0  0  0
  2  7  1  0  0  0  0
  2  5  1  0  0  0  0
  3 31  1  0  0  0  0
  3  9  1  1  0  0  0
  5  8  1  0  0  0  0
  6 20  1  6  0  0  0
  7 10  1  0  0  0  0
  7 32  1  1  0  0  0
  8 23  1  6  0  0  0
  8  4  1  0  0  0  0
 11 13  1  0  0  0  0
 11  3  1  0  0  0  0
 12  2  1  0  0  0  0
 13 35  1  1  0  0  0
 13 10  1  0  0  0  0
 14 20  1  0  0  0  0
 15  4  1  0  0  0  0
 16 12  1  0  0  0  0
 16  2  1  0  0  0  0
 17 14  2  0  0  0  0
 18 19  1  0  0  0  0
 18  6  1  0  0  0  0
 18 15  1  1  0  0  0
 19  6  1  0  0  0  0
 22 24  2  0  0  0  0
 23 21  1  0  0  0  0
 24 21  1  0  0  0  0
 24 26  1  0  0  0  0
 25 23  2  0  0  0  0
 26 27  1  6  0  0  0
 26 29  1  0  0  0  0
 29 28  1  0  0  0  0
 31 30  1  0  0  0  0
 33 32  1  0  0  0  0
 34 33  1  0  0  0  0
 36 37  1  0  0  0  0
 36 35  1  0  0  0  0
M  END
>  <MODEL>
3

>  <REMARK>
 VINA RESULT:      -4.8      2.687      5.337
  Name = 
  8 active torsions:
  status: ('A' for Active; 'I' for Inactive)
    1  A    between atoms: C_2  and  O_19
    2  A    between atoms: C_2  and  C_35
    3  A    between atoms: C_3  and  N_32
    4  A    between atoms: C_5  and  N_23
    5  A    between atoms: C_9  and  C_13
    6  A    between atoms: C_9  and  C_16
    7  A    between atoms: C_14  and  C_31
    8  A    between atoms: C_25  and  N_32
                            x       y       z     vdW  Elec       q    Type
                         _______ _______ _______ _____ _____    ______ ____

>  <TORSDO>
F 8

$$$$
=
 OpenBabel11052415343D

 37 39  0  0  1  0  0  0  0  0999 V2000
  181.3620  180.9270  136.4540 O   0  0  0  0  0  0  0  0  0  0  0  0
  182.3570  177.5620  139.4300 C   0  0  0  0  0  0  0  0  0  0  0  0
  180.7880  179.6470  136.1310 C   0  0  2  0  0  0  0  0  0  0  0  0
  179.1600  179.2960  140.7110 C   0  0  0  0  0  2  0  0  0  0  0  0
  181.4520  178.7530  139.7380 C   0  0  0  0  0  2  0  0  0  0  0  0
  178.9350  181.9480  138.7580 C   0  0  1  0  0  3  0  0  0  0  0  0
  181.8300  176.3020  138.7380 C   0  0  2  0  0  3  0  0  0  0  0  0
  180.4350  178.4490  140.8360 C   0  0  1  0  0  3  0  0  0  0  0  0
  179.6160  179.2840  137.0470 C   0  0  0  0  0  1  0  0  0  0  0  0
  180.8620  176.6190  137.5970 C   0  0  0  0  0  2  0  0  0  0  0  0
  181.9220  178.6240  136.3160 C   0  0  0  0  0  2  0  0  0  0  0  0
  183.5450  177.3730  140.3510 C   0  0  0  0  0  2  0  0  0  0  0  0
  181.5830  177.1200  136.3370 C   0  0  2  0  0  3  0  0  0  0  0  0
  180.7030  182.0520  136.9770 C   0  0  0  0  0  0  0  0  0  0  0  0
  179.3740  180.8010  140.8920 C   0  0  0  0  0  2  0  0  0  0  0  0
  183.7370  177.9710  138.9670 C   0  0  0  0  0  2  0  0  0  0  0  0
  181.3480  183.1220  137.1240 O   0  0  0  0  0  0  0  0  0  0  0  0
  179.9930  181.4030  139.6450 C   0  0  2  0  0  3  0  0  0  0  0  0
  179.7240  182.7840  139.5740 O   0  0  0  0  0  0  0  0  0  0  0  0
  179.3650  181.9930  137.3880 O   0  0  0  0  0  0  0  0  0  0  0  0
  182.3930  178.9660  142.3670 N   0  0  0  0  0  2  0  0  0  0  0  0
  182.5060  178.7860  144.7010 O   0  0  0  0  0  0  0  0  0  0  0  0
  181.0360  178.5350  142.2040 C   0  0  0  0  0  0  0  0  0  0  0  0
  183.0790  179.0810  143.6170 C   0  0  0  0  0  0  0  0  0  0  0  0
  180.3280  178.2400  143.2030 O   0  0  0  0  0  0  0  0  0  0  0  0
  184.4990  179.5440  143.6230 C   0  0  2  0  0  3  0  0  0  0  0  0
  185.1180  179.3430  142.2520 C   0  0  0  0  0  1  0  0  0  0  0  0
  186.1740  178.1140  143.8500 C   0  0  0  0  0  1  0  0  0  0  0  0
  185.2320  178.8390  144.5810 O   0  0  0  0  0  0  0  0  0  0  0  0
  178.9330  179.8120  134.5960 C   0  0  0  0  0  1  0  0  0  0  0  0
  180.3740  179.6290  134.7230 N   0  0  0  0  0  2  0  0  0  0  0  0
  181.1440  175.3960  139.7550 C   0  0  0  0  0  2  0  0  0  0  0  0
  179.7080  175.0980  139.3500 C   0  0  0  0  0  2  0  0  0  0  0  0
  179.5210  173.6100  139.1250 C   0  0  0  0  0  1  0  0  0  0  0  0
  181.0270  176.6180  135.0760 N   0  0  0  0  0  2  0  0  0  0  0  0
  180.7030  175.1980  135.1600 C   0  0  0  0  0  2  0  0  0  0  0  0
  181.9730  174.3830  135.0310 C   0  0  0  0  0  1  0  0  0  0  0  0
  1 14  1  0  0  0  0
  2  5  1  0  0  0  0
  2 12  1  0  0  0  0
  3 11  1  0  0  0  0
  3  1  1  0  0  0  0
  3  9  1  1  0  0  0
  4  8  1  0  0  0  0
  4 15  1  0  0  0  0
  5  8  1  0  0  0  0
  6 20  1  6  0  0  0
  6 19  1  0  0  0  0
  6 18  1  0  0  0  0
  7  2  1  0  0  0  0
  7 32  1  1  0  0  0
  8 23  1  1  0  0  0
 10  7  1  0  0  0  0
 11 13  1  0  0  0  0
 13 35  1  6  0  0  0
 13 10  1  0  0  0  0
 14 17  2  0  0  0  0
 14 20  1  0  0  0  0
 16  2  1  0  0  0  0
 16 12  1  0  0  0  0
 18 15  1  1  0  0  0
 19 18  1  0  0  0  0
 21 24  1  0  0  0  0
 23 21  1  0  0  0  0
 23 25  2  0  0  0  0
 24 26  1  0  0  0  0
 24 22  2  0  0  0  0
 26 27  1  6  0  0  0
 26 29  1  0  0  0  0
 28 29  1  0  0  0  0
 30 31  1  0  0  0  0
 31  3  1  0  0  0  0
 33 32  1  0  0  0  0
 34 33  1  0  0  0  0
 35 36  1  0  0  0  0
 37 36  1  0  0  0  0
M  END
>  <MODEL>
4

>  <REMARK>
 VINA RESULT:      -4.1      3.923      6.315
  Name = 
  8 active torsions:
  status: ('A' for Active; 'I' for Inactive)
    1  A    between atoms: C_2  and  O_19
    2  A    between atoms: C_2  and  C_35
    3  A    between atoms: C_3  and  N_32
    4  A    between atoms: C_5  and  N_23
    5  A    between atoms: C_9  and  C_13
    6  A    between atoms: C_9  and  C_16
    7  A    between atoms: C_14  and  C_31
    8  A    between atoms: C_25  and  N_32
                            x       y       z     vdW  Elec       q    Type
                         _______ _______ _______ _____ _____    ______ ____

>  <TORSDO>
F 8

$$$$
=
 OpenBabel11052415343D

 37 39  0  0  1  0  0  0  0  0999 V2000
  189.8690  175.1920  137.9590 O   0  0  0  0  0  0  0  0  0  0  0  0
  185.7480  173.3990  136.9710 C   0  0  0  0  0  0  0  0  0  0  0  0
  189.7510  174.6470  136.6320 C   0  0  2  0  0  0  0  0  0  0  0  0
  185.6050  177.1400  136.0480 C   0  0  0  0  0  2  0  0  0  0  0  0
  186.0210  174.8880  137.1670 C   0  0  0  0  0  2  0  0  0  0  0  0
  188.4260  178.3100  137.3020 C   0  0  1  0  0  3  0  0  0  0  0  0
  185.9710  172.7050  135.6240 C   0  0  2  0  0  3  0  0  0  0  0  0
  185.0190  175.7720  136.4270 C   0  0  1  0  0  3  0  0  0  0  0  0
  188.9120  175.5330  135.7080 C   0  0  0  0  0  1  0  0  0  0  0  0
  187.2540  173.1660  134.9300 C   0  0  0  0  0  2  0  0  0  0  0  0
  189.0600  173.2820  136.8030 C   0  0  0  0  0  2  0  0  0  0  0  0
  184.6900  172.7920  137.8690 C   0  0  0  0  0  2  0  0  0  0  0  0
  188.5140  172.5540  135.5580 C   0  0  2  0  0  3  0  0  0  0  0  0
  189.8900  176.5470  138.3270 C   0  0  0  0  0  0  0  0  0  0  0  0
  185.9810  178.0260  137.2390 C   0  0  0  0  0  2  0  0  0  0  0  0
  186.1640  172.5590  138.1570 C   0  0  0  0  0  2  0  0  0  0  0  0
  190.0820  176.8480  139.5340 O   0  0  0  0  0  0  0  0  0  0  0  0
  187.2790  177.5520  137.8630 C   0  0  2  0  0  3  0  0  0  0  0  0
  187.8970  178.5970  138.5770 O   0  0  0  0  0  0  0  0  0  0  0  0
  189.6490  177.5650  137.3960 O   0  0  0  0  0  0  0  0  0  0  0  0
  183.5610  176.9170  138.1620 N   0  0  0  0  0  2  0  0  0  0  0  0
  181.3630  176.4000  138.7890 O   0  0  0  0  0  0  0  0  0  0  0  0
  183.7230  175.8990  137.1650 C   0  0  0  0  0  0  0  0  0  0  0  0
  182.3780  177.1340  138.9360 C   0  0  0  0  0  0  0  0  0  0  0  0
  182.7790  175.1140  136.8850 O   0  0  0  0  0  0  0  0  0  0  0  0
  182.3640  178.2380  139.9420 C   0  0  2  0  0  3  0  0  0  0  0  0
  181.7890  179.4990  139.3240 C   0  0  0  0  0  1  0  0  0  0  0  0
  183.5530  178.4610  141.7960 C   0  0  0  0  0  1  0  0  0  0  0  0
  183.6590  178.4850  140.4040 O   0  0  0  0  0  0  0  0  0  0  0  0
  191.4080  175.4260  135.0590 C   0  0  0  0  0  1  0  0  0  0  0  0
  191.0860  174.4210  136.0670 N   0  0  0  0  0  2  0  0  0  0  0  0
  184.7770  172.9470  134.7070 C   0  0  0  0  0  2  0  0  0  0  0  0
  183.9060  171.7060  134.5940 C   0  0  0  0  0  2  0  0  0  0  0  0
  182.5950  171.9110  135.3280 C   0  0  0  0  0  1  0  0  0  0  0  0
  189.5490  172.1660  134.5940 N   0  0  0  0  0  2  0  0  0  0  0  0
  189.7700  170.7240  134.5950 C   0  0  0  0  0  2  0  0  0  0  0  0
  188.6120  170.0370  135.2860 C   0  0  0  0  0  1  0  0  0  0  0  0
  1 14  1  0  0  0  0
  2  5  1  0  0  0  0
  2 12  1  0  0  0  0
  2 16  1  0  0  0  0
  3  9  1  6  0  0  0
  3 11  1  0  0  0  0
  3  1  1  0  0  0  0
  4  8  1  0  0  0  0
  4 15  1  0  0  0  0
  6 20  1  1  0  0  0
  6 18  1  0  0  0  0
  6 19  1  0  0  0  0
  7 32  1  6  0  0  0
  7  2  1  0  0  0  0
  8 23  1  1  0  0  0
  8  5  1  0  0  0  0
 10 13  1  0  0  0  0
 10  7  1  0  0  0  0
 12 16  1  0  0  0  0
 13 35  1  6  0  0  0
 13 11  1  0  0  0  0
 14 17  2  0  0  0  0
 18 15  1  6  0  0  0
 18 19  1  0  0  0  0
 20 14  1  0  0  0  0
 21 24  1  0  0  0  0
 22 24  2  0  0  0  0
 23 21  1  0  0  0  0
 24 26  1  0  0  0  0
 25 23  2  0  0  0  0
 26 27  1  6  0  0  0
 26 29  1  0  0  0  0
 29 28  1  0  0  0  0
 30 31  1  0  0  0  0
 31  3  1  0  0  0  0
 33 32  1  0  0  0  0
 33 34  1  0  0  0  0
 35 36  1  0  0  0  0
 36 37  1  0  0  0  0
M  END
>  <MODEL>
5

>  <REMARK>
 VINA RESULT:      -3.8      2.843      6.112
  Name = 
  8 active torsions:
  status: ('A' for Active; 'I' for Inactive)
    1  A    between atoms: C_2  and  O_19
    2  A    between atoms: C_2  and  C_35
    3  A    between atoms: C_3  and  N_32
    4  A    between atoms: C_5  and  N_23
    5  A    between atoms: C_9  and  C_13
    6  A    between atoms: C_9  and  C_16
    7  A    between atoms: C_14  and  C_31
    8  A    between atoms: C_25  and  N_32
                            x       y       z     vdW  Elec       q    Type
                         _______ _______ _______ _____ _____    ______ ____

>  <TORSDO>
F 8

$$$$
=
 OpenBabel11052415343D

 37 39  0  0  1  0  0  0  0  0999 V2000
  188.9330  176.7740  139.9350 O   0  0  0  0  0  0  0  0  0  0  0  0
  185.4500  176.1420  136.9960 C   0  0  0  0  0  0  0  0  0  0  0  0
  189.1040  177.4040  138.6520 C   0  0  2  0  0  0  0  0  0  0  0  0
  184.6310  179.2950  139.0590 C   0  0  0  0  0  2  0  0  0  0  0  0
  185.3720  176.9900  138.2630 C   0  0  0  0  0  2  0  0  0  0  0  0
  186.9540  179.2560  141.4040 C   0  0  1  0  0  3  0  0  0  0  0  0
  185.9860  176.7050  135.6760 C   0  0  2  0  0  3  0  0  0  0  0  0
  184.3080  178.0810  138.1760 C   0  0  1  0  0  3  0  0  0  0  0  0
  188.2210  178.6430  138.4870 C   0  0  0  0  0  1  0  0  0  0  0  0
  187.2190  177.5890  135.8710 C   0  0  0  0  0  2  0  0  0  0  0  0
  188.7050  176.3450  137.6110 C   0  0  0  0  0  2  0  0  0  0  0  0
  184.4400  175.0190  136.8820 C   0  0  0  0  0  2  0  0  0  0  0  0
  188.4890  176.7730  136.1450 C   0  0  2  0  0  3  0  0  0  0  0  0
  188.6180  177.3920  141.1560 C   0  0  0  0  0  0  0  0  0  0  0  0
  184.6550  179.0030  140.5620 C   0  0  0  0  0  2  0  0  0  0  0  0
  185.8800  174.7180  137.2610 C   0  0  0  0  0  2  0  0  0  0  0  0
  188.5860  176.6940  142.2020 O   0  0  0  0  0  0  0  0  0  0  0  0
  185.9340  178.2820  140.9410 C   0  0  2  0  0  3  0  0  0  0  0  0
  186.2180  178.4650  142.3090 O   0  0  0  0  0  0  0  0  0  0  0  0
  188.2870  178.7510  141.2260 O   0  0  0  0  0  0  0  0  0  0  0  0
  181.7850  178.3590  138.1320 N   0  0  0  0  0  2  0  0  0  0  0  0
  180.1380  176.8420  138.8240 O   0  0  0  0  0  0  0  0  0  0  0  0
  182.9310  177.5520  138.4300 C   0  0  0  0  0  0  0  0  0  0  0  0
  180.4230  177.9690  138.3360 C   0  0  0  0  0  0  0  0  0  0  0  0
  182.7980  176.3870  138.8890 O   0  0  0  0  0  0  0  0  0  0  0  0
  179.3350  178.9260  137.9770 C   0  0  2  0  0  3  0  0  0  0  0  0
  179.0290  178.8370  136.4930 C   0  0  0  0  0  1  0  0  0  0  0  0
  179.7030  180.9220  137.0930 C   0  0  0  0  0  1  0  0  0  0  0  0
  179.7120  180.2300  138.3050 O   0  0  0  0  0  0  0  0  0  0  0  0
  191.3910  176.7040  138.9850 C   0  0  0  0  0  1  0  0  0  0  0  0
  190.5180  177.7420  138.4490 N   0  0  0  0  0  2  0  0  0  0  0  0
  184.8940  177.4980  134.9650 C   0  0  0  0  0  2  0  0  0  0  0  0
  183.7180  176.6090  134.5940 C   0  0  0  0  0  2  0  0  0  0  0  0
  182.4160  177.3780  134.7150 C   0  0  0  0  0  1  0  0  0  0  0  0
  189.6980  177.2890  135.4930 N   0  0  0  0  0  2  0  0  0  0  0  0
  190.2860  176.3010  134.5940 C   0  0  0  0  0  2  0  0  0  0  0  0
  191.6030  175.8220  135.1650 C   0  0  0  0  0  1  0  0  0  0  0  0
  1 14  1  0  0  0  0
  2 16  1  0  0  0  0
  2  5  1  0  0  0  0
  3  9  1  6  0  0  0
  3  1  1  0  0  0  0
  4 15  1  0  0  0  0
  6 20  1  6  0  0  0
  6 19  1  0  0  0  0
  7 32  1  1  0  0  0
  7 10  1  0  0  0  0
  7  2  1  0  0  0  0
  8  5  1  0  0  0  0
  8 23  1  1  0  0  0
  8  4  1  0  0  0  0
 10 13  1  0  0  0  0
 11  3  1  0  0  0  0
 12  2  1  0  0  0  0
 12 16  1  0  0  0  0
 13 35  1  1  0  0  0
 13 11  1  0  0  0  0
 14 20  1  0  0  0  0
 14 17  2  0  0  0  0
 18 15  1  1  0  0  0
 18  6  1  0  0  0  0
 18 19  1  0  0  0  0
 21 24  1  0  0  0  0
 21 23  1  0  0  0  0
 23 25  2  0  0  0  0
 24 22  2  0  0  0  0
 26 27  1  6  0  0  0
 26 29  1  0  0  0  0
 26 24  1  0  0  0  0
 28 29  1  0  0  0  0
 31  3  1  0  0  0  0
 31 30  1  0  0  0  0
 33 34  1  0  0  0  0
 33 32  1  0  0  0  0
 36 37  1  0  0  0  0
 36 35  1  0  0  0  0
M  END
>  <MODEL>
6

>  <REMARK>
 VINA RESULT:      -3.5      2.875      6.933
  Name = 
  8 active torsions:
  status: ('A' for Active; 'I' for Inactive)
    1  A    between atoms: C_2  and  O_19
    2  A    between atoms: C_2  and  C_35
    3  A    between atoms: C_3  and  N_32
    4  A    between atoms: C_5  and  N_23
    5  A    between atoms: C_9  and  C_13
    6  A    between atoms: C_9  and  C_16
    7  A    between atoms: C_14  and  C_31
    8  A    between atoms: C_25  and  N_32
                            x       y       z     vdW  Elec       q    Type
                         _______ _______ _______ _____ _____    ______ ____

>  <TORSDO>
F 8

$$$$
=
 OpenBabel11052415343D

 37 39  0  0  1  0  0  0  0  0999 V2000
  184.1860  177.8470  142.4130 O   0  0  0  0  0  0  0  0  0  0  0  0
  188.6200  176.6990  142.8470 C   0  0  0  0  0  0  0  0  0  0  0  0
  184.9550  178.7220  143.2580 C   0  0  2  0  0  0  0  0  0  0  0  0
  188.3450  179.0030  139.7680 C   0  0  0  0  0  2  0  0  0  0  0  0
  187.9840  177.2340  141.5670 C   0  0  0  0  0  2  0  0  0  0  0  0
  185.0810  179.2700  139.3460 C   0  0  1  0  0  3  0  0  0  0  0  0
  189.1270  177.6320  143.9510 C   0  0  2  0  0  3  0  0  0  0  0  0
  188.9930  177.9310  140.6570 C   0  0  1  0  0  3  0  0  0  0  0  0
  185.8950  179.6280  142.4600 C   0  0  0  0  0  1  0  0  0  0  0  0
  188.1830  178.8080  144.2070 C   0  0  0  0  0  2  0  0  0  0  0  0
  185.7820  177.7990  144.1700 C   0  0  0  0  0  2  0  0  0  0  0  0
  189.3110  175.3550  142.7380 C   0  0  0  0  0  2  0  0  0  0  0  0
  186.9350  178.3970  145.0010 C   0  0  2  0  0  3  0  0  0  0  0  0
  183.7290  178.1020  141.1090 C   0  0  0  0  0  0  0  0  0  0  0  0
  187.3320  178.4650  138.7550 C   0  0  0  0  0  2  0  0  0  0  0  0
  187.9360  175.4590  143.3760 C   0  0  0  0  0  2  0  0  0  0  0  0
  182.9950  177.2510  140.5440 O   0  0  0  0  0  0  0  0  0  0  0  0
  186.0230  178.1270  139.4420 C   0  0  2  0  0  3  0  0  0  0  0  0
  184.9600  178.1370  138.5170 O   0  0  0  0  0  0  0  0  0  0  0  0
  184.1160  179.2510  140.4080 O   0  0  0  0  0  0  0  0  0  0  0  0
  191.2010  177.2060  139.6360 N   0  0  0  0  0  2  0  0  0  0  0  0
  191.6580  175.2990  138.3520 O   0  0  0  0  0  0  0  0  0  0  0  0
  189.8070  176.9590  139.8630 C   0  0  0  0  0  0  0  0  0  0  0  0
  192.0800  176.3580  138.8910 C   0  0  0  0  0  0  0  0  0  0  0  0
  189.2550  175.9200  139.4150 O   0  0  0  0  0  0  0  0  0  0  0  0
  193.5120  176.7540  138.7410 C   0  0  2  0  0  3  0  0  0  0  0  0
  194.3000  175.6280  138.0960 C   0  0  0  0  0  1  0  0  0  0  0  0
  195.0100  176.0650  140.2180 C   0  0  0  0  0  1  0  0  0  0  0  0
  194.0600  177.0630  139.9870 O   0  0  0  0  0  0  0  0  0  0  0  0
  183.0550  178.6760  144.7470 C   0  0  0  0  0  1  0  0  0  0  0  0
  184.0550  179.5180  144.1010 N   0  0  0  0  0  2  0  0  0  0  0  0
  190.5140  178.1570  143.5950 C   0  0  0  0  0  2  0  0  0  0  0  0
  191.5960  177.4480  144.3950 C   0  0  0  0  0  2  0  0  0  0  0  0
  191.0920  177.1170  145.7870 C   0  0  0  0  0  1  0  0  0  0  0  0
  186.5000  179.3760  146.0030 N   0  0  0  0  0  2  0  0  0  0  0  0
  186.3610  178.7690  147.3220 C   0  0  0  0  0  2  0  0  0  0  0  0
  187.5570  177.8830  147.5970 C   0  0  0  0  0  1  0  0  0  0  0  0
  1  3  1  0  0  0  0
  2 16  1  0  0  0  0
  2  7  1  0  0  0  0
  3  9  1  6  0  0  0
  3 31  1  0  0  0  0
  3 11  1  0  0  0  0
  4  8  1  0  0  0  0
  5  2  1  0  0  0  0
  6 19  1  6  0  0  0
  6 18  1  0  0  0  0
  6 20  1  0  0  0  0
  7 32  1  6  0  0  0
  7 10  1  0  0  0  0
  8 23  1  6  0  0  0
  8  5  1  0  0  0  0
 10 13  1  0  0  0  0
 11 13  1  0  0  0  0
 12  2  1  0  0  0  0
 12 16  1  0  0  0  0
 13 35  1  6  0  0  0
 14  1  1  0  0  0  0
 15  4  1  0  0  0  0
 17 14  2  0  0  0  0
 18 15  1  6  0  0  0
 19 18  1  0  0  0  0
 20 14  1  0  0  0  0
 21 23  1  0  0  0  0
 22 24  2  0  0  0  0
 24 21  1  0  0  0  0
 25 23  2  0  0  0  0
 26 27  1  1  0  0  0
 26 24  1  0  0  0  0
 26 29  1  0  0  0  0
 29 28  1  0  0  0  0
 31 30  1  0  0  0  0
 32 33  1  0  0  0  0
 33 34  1  0  0  0  0
 35 36  1  0  0  0  0
 36 37  1  0  0  0  0
M  END
>  <MODEL>
7

>  <REMARK>
 VINA RESULT:      -3.4      4.873      8.746
  Name = 
  8 active torsions:
  status: ('A' for Active; 'I' for Inactive)
    1  A    between atoms: C_2  and  O_19
    2  A    between atoms: C_2  and  C_35
    3  A    between atoms: C_3  and  N_32
    4  A    between atoms: C_5  and  N_23
    5  A    between atoms: C_9  and  C_13
    6  A    between atoms: C_9  and  C_16
    7  A    between atoms: C_14  and  C_31
    8  A    between atoms: C_25  and  N_32
                            x       y       z     vdW  Elec       q    Type
                         _______ _______ _______ _____ _____    ______ ____

>  <TORSDO>
F 8

$$$$
=
 OpenBabel11052415343D

 37 39  0  0  1  0  0  0  0  0999 V2000
  189.2910  176.6140  141.0230 O   0  0  0  0  0  0  0  0  0  0  0  0
  187.3730  175.4120  137.0170 C   0  0  0  0  0  0  0  0  0  0  0  0
  189.9690  177.1130  139.8560 C   0  0  2  0  0  0  0  0  0  0  0  0
  185.6950  178.6990  138.1340 C   0  0  0  0  0  2  0  0  0  0  0  0
  186.7530  176.3840  138.0180 C   0  0  0  0  0  2  0  0  0  0  0  0
  186.8240  179.0860  141.2120 C   0  0  1  0  0  3  0  0  0  0  0  0
  188.3990  175.8680  135.9750 C   0  0  2  0  0  3  0  0  0  0  0  0
  185.7980  177.3770  137.3600 C   0  0  1  0  0  3  0  0  0  0  0  0
  189.2080  178.2580  139.1820 C   0  0  0  0  0  1  0  0  0  0  0  0
  189.4170  176.8570  136.5460 C   0  0  0  0  0  2  0  0  0  0  0  0
  190.0660  175.9210  138.8880 C   0  0  0  0  0  2  0  0  0  0  0  0
  186.5280  174.2110  136.6430 C   0  0  0  0  0  2  0  0  0  0  0  0
  190.4740  176.1720  137.4220 C   0  0  2  0  0  3  0  0  0  0  0  0
  188.4800  177.3350  141.9150 C   0  0  0  0  0  0  0  0  0  0  0  0
  185.0950  178.5730  139.5360 C   0  0  0  0  0  2  0  0  0  0  0  0
  187.6850  174.0610  137.6180 C   0  0  0  0  0  2  0  0  0  0  0  0
  188.0290  176.7530  142.9350 O   0  0  0  0  0  0  0  0  0  0  0  0
  186.1130  177.9950  140.4990 C   0  0  2  0  0  3  0  0  0  0  0  0
  185.7950  178.3450  141.8260 O   0  0  0  0  0  0  0  0  0  0  0  0
  188.1190  178.6660  141.6660 O   0  0  0  0  0  0  0  0  0  0  0  0
  183.6050  176.3970  138.1800 N   0  0  0  0  0  2  0  0  0  0  0  0
  181.8140  175.5700  136.9150 O   0  0  0  0  0  0  0  0  0  0  0  0
  184.4540  176.7770  137.0890 C   0  0  0  0  0  0  0  0  0  0  0  0
  182.3060  175.8100  138.0500 C   0  0  0  0  0  0  0  0  0  0  0  0
  184.0790  176.6280  135.8960 O   0  0  0  0  0  0  0  0  0  0  0  0
  181.5410  175.4670  139.2860 C   0  0  2  0  0  3  0  0  0  0  0  0
  180.4930  174.4140  138.9750 C   0  0  0  0  0  1  0  0  0  0  0  0
  179.5710  176.2820  139.8830 C   0  0  0  0  0  1  0  0  0  0  0  0
  180.9270  176.6080  139.8060 O   0  0  0  0  0  0  0  0  0  0  0  0
  191.5370  177.4800  141.6540 C   0  0  0  0  0  1  0  0  0  0  0  0
  191.3300  177.5310  140.2120 N   0  0  0  0  0  2  0  0  0  0  0  0
  187.6880  176.4960  134.7810 C   0  0  0  0  0  2  0  0  0  0  0  0
  188.0490  177.9660  134.6340 C   0  0  0  0  0  2  0  0  0  0  0  0
  186.7950  178.8190  134.6210 C   0  0  0  0  0  1  0  0  0  0  0  0
  191.8330  176.7030  137.2660 N   0  0  0  0  0  2  0  0  0  0  0  0
  192.6250  175.8890  136.3500 C   0  0  0  0  0  2  0  0  0  0  0  0
  192.2140  174.4380  136.4810 C   0  0  0  0  0  1  0  0  0  0  0  0
  1 14  1  0  0  0  0
  2 16  1  0  0  0  0
  2  5  1  0  0  0  0
  3  9  1  6  0  0  0
  3 31  1  0  0  0  0
  3  1  1  0  0  0  0
  4 15  1  0  0  0  0
  6 20  1  1  0  0  0
  6 19  1  0  0  0  0
  7 32  1  6  0  0  0
  7 10  1  0  0  0  0
  7  2  1  0  0  0  0
  8 23  1  1  0  0  0
  8  5  1  0  0  0  0
  8  4  1  0  0  0  0
 10 13  1  0  0  0  0
 11  3  1  0  0  0  0
 12  2  1  0  0  0  0
 12 16  1  0  0  0  0
 13 35  1  1  0  0  0
 13 11  1  0  0  0  0
 14 17  2  0  0  0  0
 18 15  1  6  0  0  0
 18  6  1  0  0  0  0
 18 19  1  0  0  0  0
 20 14  1  0  0  0  0
 22 24  2  0  0  0  0
 23 21  1  0  0  0  0
 24 21  1  0  0  0  0
 24 26  1  0  0  0  0
 25 23  2  0  0  0  0
 26 27  1  6  0  0  0
 26 29  1  0  0  0  0
 29 28  1  0  0  0  0
 31 30  1  0  0  0  0
 33 32  1  0  0  0  0
 34 33  1  0  0  0  0
 36 37  1  0  0  0  0
 36 35  1  0  0  0  0
M  END
>  <MODEL>
8

>  <REMARK>
 VINA RESULT:      -3.2      2.814      7.570
  Name = 
  8 active torsions:
  status: ('A' for Active; 'I' for Inactive)
    1  A    between atoms: C_2  and  O_19
    2  A    between atoms: C_2  and  C_35
    3  A    between atoms: C_3  and  N_32
    4  A    between atoms: C_5  and  N_23
    5  A    between atoms: C_9  and  C_13
    6  A    between atoms: C_9  and  C_16
    7  A    between atoms: C_14  and  C_31
    8  A    between atoms: C_25  and  N_32
                            x       y       z     vdW  Elec       q    Type
                         _______ _______ _______ _____ _____    ______ ____

>  <TORSDO>
F 8

$$$$
=
 OpenBabel11052415343D

 37 39  0  0  1  0  0  0  0  0999 V2000
  181.2240  178.2560  138.2380 O   0  0  0  0  0  0  0  0  0  0  0  0
  184.1480  175.4840  136.0160 C   0  0  0  0  0  0  0  0  0  0  0  0
  181.2560  176.9010  138.7220 C   0  0  2  0  0  0  0  0  0  0  0  0
  186.1210  177.1440  138.8820 C   0  0  0  0  0  2  0  0  0  0  0  0
  184.5670  176.6340  136.9280 C   0  0  0  0  0  2  0  0  0  0  0  0
  184.0150  179.4330  139.9880 C   0  0  1  0  0  3  0  0  0  0  0  0
  183.8150  174.0940  136.5660 C   0  0  2  0  0  3  0  0  0  0  0  0
  185.9530  176.4280  137.5340 C   0  0  1  0  0  3  0  0  0  0  0  0
  182.5260  176.5950  139.5210 C   0  0  0  0  0  1  0  0  0  0  0  0
  182.9950  174.1530  137.8560 C   0  0  0  0  0  2  0  0  0  0  0  0
  181.2110  176.0100  137.4680 C   0  0  0  0  0  2  0  0  0  0  0  0
  184.6750  175.5320  134.5960 C   0  0  0  0  0  2  0  0  0  0  0  0
  181.5230  174.5050  137.6020 C   0  0  2  0  0  3  0  0  0  0  0  0
  181.7790  179.3940  138.8460 C   0  0  0  0  0  0  0  0  0  0  0  0
  186.0370  178.6710  138.8090 C   0  0  0  0  0  2  0  0  0  0  0  0
  183.2350  175.9200  134.8920 C   0  0  0  0  0  2  0  0  0  0  0  0
  181.5860  180.5210  138.3200 O   0  0  0  0  0  0  0  0  0  0  0  0
  184.5960  179.1160  138.6590 C   0  0  2  0  0  3  0  0  0  0  0  0
  184.4380  180.4440  139.1020 O   0  0  0  0  0  0  0  0  0  0  0  0
  182.5860  179.2970  139.9870 O   0  0  0  0  0  0  0  0  0  0  0  0
  188.3060  176.0860  136.6430 N   0  0  0  0  0  2  0  0  0  0  0  0
  189.3790  177.2110  134.8900 O   0  0  0  0  0  0  0  0  0  0  0  0
  187.0490  176.7720  136.5740 C   0  0  0  0  0  0  0  0  0  0  0  0
  189.4280  176.3290  135.7890 C   0  0  0  0  0  0  0  0  0  0  0  0
  186.8420  177.6550  135.7000 O   0  0  0  0  0  0  0  0  0  0  0  0
  190.6740  175.5310  135.9890 C   0  0  2  0  0  3  0  0  0  0  0  0
  191.5230  176.1540  137.0820 C   0  0  0  0  0  1  0  0  0  0  0  0
  191.6790  174.1150  134.6160 C   0  0  0  0  0  1  0  0  0  0  0  0
  191.4040  175.4710  134.8000 O   0  0  0  0  0  0  0  0  0  0  0  0
  178.9670  177.5290  139.1620 C   0  0  0  0  0  1  0  0  0  0  0  0
  180.0580  176.6310  139.5250 N   0  0  0  0  0  2  0  0  0  0  0  0
  185.0980  173.3070  136.8100 C   0  0  0  0  0  2  0  0  0  0  0  0
  185.3310  172.2770  135.7160 C   0  0  0  0  0  2  0  0  0  0  0  0
  184.0590  171.4960  135.4450 C   0  0  0  0  0  1  0  0  0  0  0  0
  180.5670  173.7710  138.4380 N   0  0  0  0  0  2  0  0  0  0  0  0
  179.7670  172.8420  137.6480 C   0  0  0  0  0  2  0  0  0  0  0  0
  180.5080  171.5290  137.5110 C   0  0  0  0  0  1  0  0  0  0  0  0
  1  3  1  0  0  0  0
  1 14  1  0  0  0  0
  2  7  1  0  0  0  0
  2  5  1  0  0  0  0
  3  9  1  1  0  0  0
  3 31  1  0  0  0  0
  5  8  1  0  0  0  0
  6 19  1  6  0  0  0
  7 32  1  1  0  0  0
  7 10  1  0  0  0  0
  8 23  1  6  0  0  0
  8  4  1  0  0  0  0
 11 13  1  0  0  0  0
 11  3  1  0  0  0  0
 12 16  1  0  0  0  0
 12  2  1  0  0  0  0
 13 10  1  0  0  0  0
 13 35  1  1  0  0  0
 14 20  1  0  0  0  0
 15  4  1  0  0  0  0
 16  2  1  0  0  0  0
 17 14  2  0  0  0  0
 18 15  1  1  0  0  0
 18 19  1  0  0  0  0
 18  6  1  0  0  0  0
 20  6  1  0  0  0  0
 22 24  2  0  0  0  0
 23 21  1  0  0  0  0
 24 26  1  0  0  0  0
 24 21  1  0  0  0  0
 25 23  2  0  0  0  0
 26 27  1  1  0  0  0
 28 29  1  0  0  0  0
 29 26  1  0  0  0  0
 30 31  1  0  0  0  0
 33 32  1  0  0  0  0
 34 33  1  0  0  0  0
 36 35  1  0  0  0  0
 37 36  1  0  0  0  0
M  END
>  <MODEL>
9

>  <REMARK>
 VINA RESULT:      -3.2      2.776      5.992
  Name = 
  8 active torsions:
  status: ('A' for Active; 'I' for Inactive)
    1  A    between atoms: C_2  and  O_19
    2  A    between atoms: C_2  and  C_35
    3  A    between atoms: C_3  and  N_32
    4  A    between atoms: C_5  and  N_23
    5  A    between atoms: C_9  and  C_13
    6  A    between atoms: C_9  and  C_16
    7  A    between atoms: C_14  and  C_31
    8  A    between atoms: C_25  and  N_32
                            x       y       z     vdW  Elec       q    Type
                         _______ _______ _______ _____ _____    ______ ____

>  <TORSDO>
F 8

$$$$
