=
 OpenBabel11052416153D

 43 46  0  0  0  0  0  0  0  0999 V2000
  188.8230  178.4220  138.8740 C   0  0  0  0  0  3  0  0  0  0  0  0
  189.3710  177.4810  139.7500 C   0  0  0  0  0  0  0  0  0  0  0  0
  189.1850  178.4220  137.5240 C   0  0  0  0  0  3  0  0  0  0  0  0
  190.2690  176.5240  139.2610 C   0  0  0  0  0  3  0  0  0  0  0  0
  190.6490  176.5220  137.9100 C   0  0  0  0  0  0  0  0  0  0  0  0
  190.0960  177.4770  137.0450 C   0  0  0  0  0  3  0  0  0  0  0  0
  191.2030  174.4320  136.6240 C   0  0  0  0  0  0  0  0  0  0  0  0
  193.9370  174.7270  137.2310 C   0  0  0  0  0  0  0  0  0  0  0  0
  193.0060  175.6810  137.6940 C   0  0  0  0  0  0  0  0  0  0  0  0
  193.4470  176.8010  138.3920 O   0  0  0  0  0  1  0  0  0  0  0  0
  191.6300  175.5290  137.4110 C   0  0  0  0  0  0  0  0  0  0  0  0
  192.1470  173.5210  136.1330 C   0  0  0  0  0  3  0  0  0  0  0  0
  193.4990  173.6710  136.4300 C   0  0  0  0  0  3  0  0  0  0  0  0
  196.0520  174.1980  138.5500 C   0  0  0  0  0  0  0  0  0  0  0  0
  195.5360  173.2440  139.1900 O   0  0  0  0  0  0  0  0  0  0  0  0
  197.4380  174.6290  138.8690 C   0  0  0  0  0  1  0  0  0  0  0  0
  195.3440  174.8420  137.4850 N   0  0  0  0  0  2  0  0  0  0  0  0
  189.8080  174.2320  136.3610 N   0  0  0  0  0  2  0  0  0  0  0  0
  188.9970  173.2050  137.0020 C   0  0  0  0  0  2  0  0  0  0  0  0
  187.2570  174.9980  136.9060 C   0  0  0  0  0  3  0  0  0  0  0  0
  184.9050  174.5020  137.2480 C   0  0  0  0  0  0  0  0  0  0  0  0
  186.5600  172.7280  137.3770 C   0  0  0  0  0  3  0  0  0  0  0  0
  185.9260  175.4200  136.9770 C   0  0  0  0  0  3  0  0  0  0  0  0
  187.5770  173.6540  137.1090 C   0  0  0  0  0  0  0  0  0  0  0  0
  185.2320  173.1520  137.4480 C   0  0  0  0  0  3  0  0  0  0  0  0
  183.0490  175.6170  138.4430 C   0  0  0  0  0  1  0  0  0  0  0  0
  183.5840  174.9520  137.3070 O   0  0  0  0  0  0  0  0  0  0  0  0
  188.9430  177.4730  141.1810 C   0  0  0  0  0  2  0  0  0  0  0  0
  189.7490  176.6170  141.9380 O   0  0  0  0  0  0  0  0  0  0  0  0
  188.9020  176.0800  142.9120 C   0  0  0  0  0  2  0  0  0  0  0  0
  188.0030  177.1690  143.4740 C   0  0  0  0  0  2  0  0  0  0  0  0
  187.9080  177.0400  144.9270 N   0  0  0  0  0  0  0  0  0  0  0  0
  186.5990  177.5150  145.4060 C   0  0  0  0  0  3  0  0  0  0  0  0
  185.3550  179.0640  146.9950 C   0  0  0  0  0  2  0  0  0  0  0  0
  184.6230  179.0190  144.8720 C   0  0  0  0  0  2  0  0  0  0  0  0
  184.3130  178.5890  146.1760 O   0  0  0  0  0  0  0  0  0  0  0  0
  185.8420  178.2720  144.3060 C   0  0  0  0  0  2  0  0  0  0  0  0
  186.6600  178.2960  146.7360 C   0  0  0  0  0  2  0  0  0  0  0  0
  188.9570  177.8550  145.5240 C   0  0  0  0  0  2  0  0  0  0  0  0
  189.5550  176.4850  147.3470 O   0  0  0  0  0  0  0  0  0  0  0  0
  189.9030  176.9900  146.2910 C   0  0  0  0  0  0  0  0  0  0  0  0
  192.1260  175.9840  147.2240 C   0  0  0  0  0  1  0  0  0  0  0  0
  191.5430  176.6660  145.6450 S   0  0  0  0  0  0  0  0  0  0  0  0
  1  2  1  0  0  0  0
  2 28  1  0  0  0  0
  3  1  2  0  0  0  0
  4  2  2  0  0  0  0
  5  4  1  0  0  0  0
  6  3  1  0  0  0  0
  6  5  2  0  0  0  0
  7 11  1  0  0  0  0
  8 17  1  0  0  0  0
  8  9  1  0  0  0  0
  9 10  1  0  0  0  0
 11  9  2  0  0  0  0
 11  5  1  0  0  0  0
 12 13  1  0  0  0  0
 12  7  2  0  0  0  0
 13  8  2  0  0  0  0
 14 16  1  0  0  0  0
 14 15  2  0  0  0  0
 17 14  1  0  0  0  0
 18  7  1  0  0  0  0
 18 19  1  0  0  0  0
 19 24  1  0  0  0  0
 20 23  2  0  0  0  0
 20 24  1  0  0  0  0
 21 27  1  0  0  0  0
 21 25  2  0  0  0  0
 22 25  1  0  0  0  0
 23 21  1  0  0  0  0
 24 22  2  0  0  0  0
 27 26  1  0  0  0  0
 28 29  1  0  0  0  0
 29 30  1  0  0  0  0
 30 31  1  0  0  0  0
 31 32  1  0  0  0  0
 32 33  1  0  0  0  0
 32 39  1  0  0  0  0
 33 38  1  0  0  0  0
 35 36  1  0  0  0  0
 36 34  1  0  0  0  0
 37 35  1  0  0  0  0
 37 33  1  0  0  0  0
 38 34  1  0  0  0  0
 39 41  1  0  0  0  0
 41 40  2  0  0  0  0
 43 41  1  0  0  0  0
 43 42  1  0  0  0  0
M  END
>  <MODEL>
1

>  <REMARK>
 VINA RESULT:      -8.0      0.000      0.000
  Name = 
  15 active torsions:
  status: ('A' for Active; 'I' for Inactive)
    1  A    between atoms: C_1  and  N_34
    2  A    between atoms: C_1  and  C_35
    3  A    between atoms: C_3  and  C_4
    4  A    between atoms: C_3  and  O_12
    5  A    between atoms: C_4  and  N_14
    6  A    between atoms: C_6  and  C_17
    7  A    between atoms: C_8  and  N_34
    8  A    between atoms: C_11  and  N_14
    9  A    between atoms: O_12  and  C_17
   10  A    between atoms: N_14  and  C_41
   11  A    between atoms: C_16  and  N_23
   12  A    between atoms: C_19  and  O_37
   13  A    between atoms: C_22  and  C_41
   14  A    between atoms: C_22  and  S_42
   15  A    between atoms: C_27  and  C_30
                            x       y       z     vdW  Elec       q    Type
                         _______ _______ _______ _____ _____    ______ ____

>  <TORSDO>
F 15

$$$$
=
 OpenBabel11052416153D

 43 46  0  0  0  0  0  0  0  0999 V2000
  189.4420  178.6980  137.9430 C   0  0  0  0  0  3  0  0  0  0  0  0
  188.8250  178.1450  139.0680 C   0  0  0  0  0  0  0  0  0  0  0  0
  188.6890  178.9960  136.8030 C   0  0  0  0  0  3  0  0  0  0  0  0
  187.4440  177.9130  139.0550 C   0  0  0  0  0  3  0  0  0  0  0  0
  186.6810  178.1970  137.9130 C   0  0  0  0  0  0  0  0  0  0  0  0
  187.3140  178.7440  136.7890 C   0  0  0  0  0  3  0  0  0  0  0  0
  184.7170  176.8230  137.1470 C   0  0  0  0  0  0  0  0  0  0  0  0
  182.9470  178.4450  138.6170 C   0  0  0  0  0  0  0  0  0  0  0  0
  184.3330  178.7090  138.6470 C   0  0  0  0  0  0  0  0  0  0  0  0
  184.8300  179.7260  139.4550 O   0  0  0  0  0  1  0  0  0  0  0  0
  185.2260  177.9110  137.8960 C   0  0  0  0  0  0  0  0  0  0  0  0
  183.3440  176.5470  137.1660 C   0  0  0  0  0  3  0  0  0  0  0  0
  182.4710  177.3470  137.8980 C   0  0  0  0  0  3  0  0  0  0  0  0
  181.6540  179.0060  140.7400 C   0  0  0  0  0  0  0  0  0  0  0  0
  182.3670  178.2840  141.4860 O   0  0  0  0  0  0  0  0  0  0  0  0
  180.4620  179.6880  141.3050 C   0  0  0  0  0  1  0  0  0  0  0  0
  182.0030  179.2200  139.3680 N   0  0  0  0  0  2  0  0  0  0  0  0
  185.5980  176.0270  136.3410 N   0  0  0  0  0  2  0  0  0  0  0  0
  186.3970  174.9230  136.8550 C   0  0  0  0  0  2  0  0  0  0  0  0
  188.1990  175.5730  135.2470 C   0  0  0  0  0  3  0  0  0  0  0  0
  190.5390  175.5590  135.8920 C   0  0  0  0  0  0  0  0  0  0  0  0
  188.8280  174.8940  137.4830 C   0  0  0  0  0  3  0  0  0  0  0  0
  189.5440  175.7890  134.9340 C   0  0  0  0  0  3  0  0  0  0  0  0
  187.8380  175.1220  136.5190 C   0  0  0  0  0  0  0  0  0  0  0  0
  190.1710  175.1090  137.1690 C   0  0  0  0  0  3  0  0  0  0  0  0
  192.9350  174.9540  135.9970 C   0  0  0  0  0  1  0  0  0  0  0  0
  191.8750  175.7890  135.5520 O   0  0  0  0  0  0  0  0  0  0  0  0
  189.6400  177.8690  140.2900 C   0  0  0  0  0  2  0  0  0  0  0  0
  189.0410  176.8770  141.0740 O   0  0  0  0  0  0  0  0  0  0  0  0
  189.2450  177.2820  142.3970 C   0  0  0  0  0  2  0  0  0  0  0  0
  188.1960  176.6520  143.2990 C   0  0  0  0  0  2  0  0  0  0  0  0
  188.3890  177.0950  144.6780 N   0  0  0  0  0  0  0  0  0  0  0  0
  187.2990  177.9930  145.0930 C   0  0  0  0  0  3  0  0  0  0  0  0
  184.8470  178.6190  144.8270 C   0  0  0  0  0  2  0  0  0  0  0  0
  185.6200  178.4950  146.9320 C   0  0  0  0  0  2  0  0  0  0  0  0
  185.2300  179.4040  145.9300 O   0  0  0  0  0  0  0  0  0  0  0  0
  186.9360  177.7870  146.5700 C   0  0  0  0  0  2  0  0  0  0  0  0
  186.0660  177.9590  144.1640 C   0  0  0  0  0  2  0  0  0  0  0  0
  189.6520  177.8170  144.7490 C   0  0  0  0  0  2  0  0  0  0  0  0
  191.5930  176.4900  144.9180 O   0  0  0  0  0  0  0  0  0  0  0  0
  190.6590  177.0130  145.5060 C   0  0  0  0  0  0  0  0  0  0  0  0
  192.0210  175.8360  147.3980 C   0  0  0  0  0  1  0  0  0  0  0  0
  190.5120  176.8400  147.2830 S   0  0  0  0  0  0  0  0  0  0  0  0
  1  2  1  0  0  0  0
  2 28  1  0  0  0  0
  3  1  2  0  0  0  0
  4  2  2  0  0  0  0
  5  4  1  0  0  0  0
  6  3  1  0  0  0  0
  6  5  2  0  0  0  0
  7 12  2  0  0  0  0
  7 11  1  0  0  0  0
  8  9  1  0  0  0  0
  8 17  1  0  0  0  0
  9 10  1  0  0  0  0
 11  5  1  0  0  0  0
 11  9  2  0  0  0  0
 12 13  1  0  0  0  0
 13  8  2  0  0  0  0
 14 16  1  0  0  0  0
 14 15  2  0  0  0  0
 17 14  1  0  0  0  0
 18 19  1  0  0  0  0
 18  7  1  0  0  0  0
 20 24  1  0  0  0  0
 21 25  2  0  0  0  0
 23 20  2  0  0  0  0
 23 21  1  0  0  0  0
 24 19  1  0  0  0  0
 24 22  2  0  0  0  0
 25 22  1  0  0  0  0
 27 21  1  0  0  0  0
 27 26  1  0  0  0  0
 28 29  1  0  0  0  0
 29 30  1  0  0  0  0
 30 31  1  0  0  0  0
 31 32  1  0  0  0  0
 32 39  1  0  0  0  0
 32 33  1  0  0  0  0
 33 37  1  0  0  0  0
 34 36  1  0  0  0  0
 36 35  1  0  0  0  0
 37 35  1  0  0  0  0
 38 34  1  0  0  0  0
 38 33  1  0  0  0  0
 39 41  1  0  0  0  0
 40 41  2  0  0  0  0
 41 43  1  0  0  0  0
 43 42  1  0  0  0  0
M  END
>  <MODEL>
2

>  <REMARK>
 VINA RESULT:      -7.8      2.677      6.784
  Name = 
  15 active torsions:
  status: ('A' for Active; 'I' for Inactive)
    1  A    between atoms: C_1  and  N_34
    2  A    between atoms: C_1  and  C_35
    3  A    between atoms: C_3  and  C_4
    4  A    between atoms: C_3  and  O_12
    5  A    between atoms: C_4  and  N_14
    6  A    between atoms: C_6  and  C_17
    7  A    between atoms: C_8  and  N_34
    8  A    between atoms: C_11  and  N_14
    9  A    between atoms: O_12  and  C_17
   10  A    between atoms: N_14  and  C_41
   11  A    between atoms: C_16  and  N_23
   12  A    between atoms: C_19  and  O_37
   13  A    between atoms: C_22  and  C_41
   14  A    between atoms: C_22  and  S_42
   15  A    between atoms: C_27  and  C_30
                            x       y       z     vdW  Elec       q    Type
                         _______ _______ _______ _____ _____    ______ ____

>  <TORSDO>
F 15

$$$$
=
 OpenBabel11052416153D

 43 46  0  0  0  0  0  0  0  0999 V2000
  188.9570  178.4500  138.8760 C   0  0  0  0  0  3  0  0  0  0  0  0
  189.6430  177.6820  139.8220 C   0  0  0  0  0  0  0  0  0  0  0  0
  189.1860  178.2530  137.5110 C   0  0  0  0  0  3  0  0  0  0  0  0
  190.5430  176.7000  139.3920 C   0  0  0  0  0  3  0  0  0  0  0  0
  190.7900  176.5020  138.0260 C   0  0  0  0  0  0  0  0  0  0  0  0
  190.1000  177.2840  137.0880 C   0  0  0  0  0  3  0  0  0  0  0  0
  191.3510  174.1840  137.2240 C   0  0  0  0  0  0  0  0  0  0  0  0
  194.0840  174.8440  137.0810 C   0  0  0  0  0  0  0  0  0  0  0  0
  193.1460  175.8160  137.4880 C   0  0  0  0  0  0  0  0  0  0  0  0
  193.5630  177.1160  137.7540 O   0  0  0  0  0  1  0  0  0  0  0  0
  191.7750  175.4860  137.5820 C   0  0  0  0  0  0  0  0  0  0  0  0
  192.2900  173.2460  136.7760 C   0  0  0  0  0  3  0  0  0  0  0  0
  193.6400  173.5760  136.7010 C   0  0  0  0  0  3  0  0  0  0  0  0
  196.1750  175.4170  135.7410 C   0  0  0  0  0  0  0  0  0  0  0  0
  195.5440  175.7160  134.6930 O   0  0  0  0  0  0  0  0  0  0  0  0
  197.6600  175.4100  135.7240 C   0  0  0  0  0  1  0  0  0  0  0  0
  195.4840  175.1320  136.9620 N   0  0  0  0  0  2  0  0  0  0  0  0
  189.9710  173.8130  137.3530 N   0  0  0  0  0  2  0  0  0  0  0  0
  189.0610  173.6540  136.2270 C   0  0  0  0  0  2  0  0  0  0  0  0
  187.0530  175.1000  136.5860 C   0  0  0  0  0  3  0  0  0  0  0  0
  184.9710  174.1880  137.4390 C   0  0  0  0  0  0  0  0  0  0  0  0
  186.9020  172.7470  137.1320 C   0  0  0  0  0  3  0  0  0  0  0  0
  185.7200  175.2740  136.9710 C   0  0  0  0  0  3  0  0  0  0  0  0
  187.6470  173.8390  136.6690 C   0  0  0  0  0  0  0  0  0  0  0  0
  185.5720  172.9220  137.5180 C   0  0  0  0  0  3  0  0  0  0  0  0
  183.1710  175.6230  138.3470 C   0  0  0  0  0  1  0  0  0  0  0  0
  183.6400  174.3920  137.8120 O   0  0  0  0  0  0  0  0  0  0  0  0
  189.3570  177.8810  141.2750 C   0  0  0  0  0  2  0  0  0  0  0  0
  188.4630  176.9110  141.7430 O   0  0  0  0  0  0  0  0  0  0  0  0
  187.6360  177.5820  142.6510 C   0  0  0  0  0  2  0  0  0  0  0  0
  187.6730  176.8820  144.0000 C   0  0  0  0  0  2  0  0  0  0  0  0
  187.8660  177.8610  145.0670 N   0  0  0  0  0  0  0  0  0  0  0  0
  189.2210  177.7540  145.6320 C   0  0  0  0  0  3  0  0  0  0  0  0
  190.6810  176.7900  147.4790 C   0  0  0  0  0  2  0  0  0  0  0  0
  191.4790  176.6180  145.3870 C   0  0  0  0  0  2  0  0  0  0  0  0
  191.6410  177.3200  146.5960 O   0  0  0  0  0  0  0  0  0  0  0  0
  190.1610  176.9900  144.6890 C   0  0  0  0  0  2  0  0  0  0  0  0
  189.2600  177.2170  147.0790 C   0  0  0  0  0  2  0  0  0  0  0  0
  186.8910  177.5860  146.1140 C   0  0  0  0  0  2  0  0  0  0  0  0
  185.7730  179.5430  146.8040 O   0  0  0  0  0  0  0  0  0  0  0  0
  185.7780  178.5810  146.0510 C   0  0  0  0  0  0  0  0  0  0  0  0
  184.9610  179.8670  143.9300 C   0  0  0  0  0  1  0  0  0  0  0  0
  184.4660  178.3800  144.8490 S   0  0  0  0  0  0  0  0  0  0  0  0
  1  2  1  0  0  0  0
  2 28  1  0  0  0  0
  3  1  2  0  0  0  0
  4  2  2  0  0  0  0
  5  4  1  0  0  0  0
  6  3  1  0  0  0  0
  6  5  2  0  0  0  0
  7 18  1  0  0  0  0
  7 11  1  0  0  0  0
  8  9  1  0  0  0  0
  9 11  2  0  0  0  0
  9 10  1  0  0  0  0
 11  5  1  0  0  0  0
 12  7  2  0  0  0  0
 13 12  1  0  0  0  0
 13  8  2  0  0  0  0
 14 17  1  0  0  0  0
 15 14  2  0  0  0  0
 16 14  1  0  0  0  0
 17  8  1  0  0  0  0
 19 24  1  0  0  0  0
 19 18  1  0  0  0  0
 20 24  2  0  0  0  0
 20 23  1  0  0  0  0
 21 25  1  0  0  0  0
 21 27  1  0  0  0  0
 22 25  2  0  0  0  0
 23 21  2  0  0  0  0
 24 22  1  0  0  0  0
 27 26  1  0  0  0  0
 28 29  1  0  0  0  0
 29 30  1  0  0  0  0
 30 31  1  0  0  0  0
 31 32  1  0  0  0  0
 32 33  1  0  0  0  0
 32 39  1  0  0  0  0
 33 38  1  0  0  0  0
 35 36  1  0  0  0  0
 36 34  1  0  0  0  0
 37 35  1  0  0  0  0
 37 33  1  0  0  0  0
 38 34  1  0  0  0  0
 41 39  1  0  0  0  0
 41 40  2  0  0  0  0
 42 43  1  0  0  0  0
 43 41  1  0  0  0  0
M  END
>  <MODEL>
3

>  <REMARK>
 VINA RESULT:      -7.6      1.705      3.112
  Name = 
  15 active torsions:
  status: ('A' for Active; 'I' for Inactive)
    1  A    between atoms: C_1  and  N_34
    2  A    between atoms: C_1  and  C_35
    3  A    between atoms: C_3  and  C_4
    4  A    between atoms: C_3  and  O_12
    5  A    between atoms: C_4  and  N_14
    6  A    between atoms: C_6  and  C_17
    7  A    between atoms: C_8  and  N_34
    8  A    between atoms: C_11  and  N_14
    9  A    between atoms: O_12  and  C_17
   10  A    between atoms: N_14  and  C_41
   11  A    between atoms: C_16  and  N_23
   12  A    between atoms: C_19  and  O_37
   13  A    between atoms: C_22  and  C_41
   14  A    between atoms: C_22  and  S_42
   15  A    between atoms: C_27  and  C_30
                            x       y       z     vdW  Elec       q    Type
                         _______ _______ _______ _____ _____    ______ ____

>  <TORSDO>
F 15

$$$$
=
 OpenBabel11052416153D

 43 46  0  0  0  0  0  0  0  0999 V2000
  182.3130  179.1830  143.6910 C   0  0  0  0  0  3  0  0  0  0  0  0
  182.4450  178.6050  142.4250 C   0  0  0  0  0  0  0  0  0  0  0  0
  183.4480  179.4600  144.4590 C   0  0  0  0  0  3  0  0  0  0  0  0
  183.7210  178.3250  141.9230 C   0  0  0  0  0  3  0  0  0  0  0  0
  184.8660  178.5880  142.6890 C   0  0  0  0  0  0  0  0  0  0  0  0
  184.7190  179.1610  143.9600 C   0  0  0  0  0  3  0  0  0  0  0  0
  187.1100  177.4760  142.9360 C   0  0  0  0  0  0  0  0  0  0  0  0
  187.8890  178.3750  140.3830 C   0  0  0  0  0  0  0  0  0  0  0  0
  186.6020  178.6820  140.8760 C   0  0  0  0  0  0  0  0  0  0  0  0
  185.6970  179.3700  140.0740 O   0  0  0  0  0  1  0  0  0  0  0  0
  186.2120  178.2510  142.1640 C   0  0  0  0  0  0  0  0  0  0  0  0
  188.3650  177.1410  142.4120 C   0  0  0  0  0  3  0  0  0  0  0  0
  188.7460  177.5820  141.1480 C   0  0  0  0  0  3  0  0  0  0  0  0
  188.1550  178.0340  137.8720 C   0  0  0  0  0  0  0  0  0  0  0  0
  187.3420  177.0740  137.8150 O   0  0  0  0  0  0  0  0  0  0  0  0
  188.9060  178.4310  136.6540 C   0  0  0  0  0  1  0  0  0  0  0  0
  188.3280  178.7820  139.0810 N   0  0  0  0  0  2  0  0  0  0  0  0
  186.7530  177.0660  144.2630 N   0  0  0  0  0  2  0  0  0  0  0  0
  186.9090  177.9040  145.4440 C   0  0  0  0  0  2  0  0  0  0  0  0
  188.3270  177.4400  147.4520 C   0  0  0  0  0  3  0  0  0  0  0  0
  190.7320  177.1690  147.2690 C   0  0  0  0  0  0  0  0  0  0  0  0
  189.4020  177.6450  145.2930 C   0  0  0  0  0  3  0  0  0  0  0  0
  189.5680  177.1920  148.0460 C   0  0  0  0  0  3  0  0  0  0  0  0
  188.2420  177.6710  146.0770 C   0  0  0  0  0  0  0  0  0  0  0  0
  190.6410  177.3980  145.8880 C   0  0  0  0  0  3  0  0  0  0  0  0
  192.5320  175.6140  147.9470 C   0  0  0  0  0  1  0  0  0  0  0  0
  191.9580  176.9130  147.8900 O   0  0  0  0  0  0  0  0  0  0  0  0
  181.2220  178.3520  141.6040 C   0  0  0  0  0  2  0  0  0  0  0  0
  180.3350  179.4300  141.6870 O   0  0  0  0  0  0  0  0  0  0  0  0
  180.3980  180.0560  140.4380 C   0  0  0  0  0  2  0  0  0  0  0  0
  179.8550  179.1260  139.3650 C   0  0  0  0  0  2  0  0  0  0  0  0
  180.5670  179.3410  138.1080 N   0  0  0  0  0  0  0  0  0  0  0  0
  181.4410  178.1960  137.8030 C   0  0  0  0  0  3  0  0  0  0  0  0
  183.6840  177.0670  138.2170 C   0  0  0  0  0  2  0  0  0  0  0  0
  181.8740  175.7400  138.2850 C   0  0  0  0  0  2  0  0  0  0  0  0
  182.9890  176.0780  137.4960 O   0  0  0  0  0  0  0  0  0  0  0  0
  180.8470  176.8830  138.3320 C   0  0  0  0  0  2  0  0  0  0  0  0
  182.9130  178.3970  138.2220 C   0  0  0  0  0  2  0  0  0  0  0  0
  181.3850  180.5380  138.2490 C   0  0  0  0  0  2  0  0  0  0  0  0
  180.8330  182.7530  137.6640 O   0  0  0  0  0  0  0  0  0  0  0  0
  180.9190  181.5920  137.2980 C   0  0  0  0  0  0  0  0  0  0  0  0
  180.6680  182.8710  135.0350 C   0  0  0  0  0  1  0  0  0  0  0  0
  180.5120  181.1550  135.6090 S   0  0  0  0  0  0  0  0  0  0  0  0
  1  3  1  0  0  0  0
  2  1  2  0  0  0  0
  4  2  1  0  0  0  0
  4  5  2  0  0  0  0
  5  6  1  0  0  0  0
  6  3  2  0  0  0  0
  7 18  1  0  0  0  0
  8  9  2  0  0  0  0
  8 13  1  0  0  0  0
  9 11  1  0  0  0  0
 10  9  1  0  0  0  0
 11  5  1  0  0  0  0
 11  7  2  0  0  0  0
 12  7  1  0  0  0  0
 13 12  2  0  0  0  0
 14 17  1  0  0  0  0
 15 14  2  0  0  0  0
 16 14  1  0  0  0  0
 17  8  1  0  0  0  0
 18 19  1  0  0  0  0
 19 24  1  0  0  0  0
 20 23  1  0  0  0  0
 21 27  1  0  0  0  0
 21 23  2  0  0  0  0
 22 25  2  0  0  0  0
 22 24  1  0  0  0  0
 24 20  2  0  0  0  0
 25 21  1  0  0  0  0
 27 26  1  0  0  0  0
 28 29  1  0  0  0  0
 28  2  1  0  0  0  0
 30 29  1  0  0  0  0
 31 30  1  0  0  0  0
 32 39  1  0  0  0  0
 32 31  1  0  0  0  0
 33 32  1  0  0  0  0
 33 38  1  0  0  0  0
 33 37  1  0  0  0  0
 34 38  1  0  0  0  0
 35 37  1  0  0  0  0
 36 34  1  0  0  0  0
 36 35  1  0  0  0  0
 41 40  2  0  0  0  0
 41 39  1  0  0  0  0
 42 43  1  0  0  0  0
 43 41  1  0  0  0  0
M  END
>  <MODEL>
4

>  <REMARK>
 VINA RESULT:      -7.4      4.903     10.115
  Name = 
  15 active torsions:
  status: ('A' for Active; 'I' for Inactive)
    1  A    between atoms: C_1  and  N_34
    2  A    between atoms: C_1  and  C_35
    3  A    between atoms: C_3  and  C_4
    4  A    between atoms: C_3  and  O_12
    5  A    between atoms: C_4  and  N_14
    6  A    between atoms: C_6  and  C_17
    7  A    between atoms: C_8  and  N_34
    8  A    between atoms: C_11  and  N_14
    9  A    between atoms: O_12  and  C_17
   10  A    between atoms: N_14  and  C_41
   11  A    between atoms: C_16  and  N_23
   12  A    between atoms: C_19  and  O_37
   13  A    between atoms: C_22  and  C_41
   14  A    between atoms: C_22  and  S_42
   15  A    between atoms: C_27  and  C_30
                            x       y       z     vdW  Elec       q    Type
                         _______ _______ _______ _____ _____    ______ ____

>  <TORSDO>
F 15

$$$$
=
 OpenBabel11052416153D

 43 46  0  0  0  0  0  0  0  0999 V2000
  189.4190  178.4940  137.9010 C   0  0  0  0  0  3  0  0  0  0  0  0
  188.7790  177.8170  138.9420 C   0  0  0  0  0  0  0  0  0  0  0  0
  188.6850  178.9510  136.8020 C   0  0  0  0  0  3  0  0  0  0  0  0
  187.3940  177.6190  138.8890 C   0  0  0  0  0  3  0  0  0  0  0  0
  186.6480  178.0630  137.7860 C   0  0  0  0  0  0  0  0  0  0  0  0
  187.3050  178.7340  136.7450 C   0  0  0  0  0  3  0  0  0  0  0  0
  184.6840  176.6780  137.0420 C   0  0  0  0  0  0  0  0  0  0  0  0
  182.8950  178.4660  138.2800 C   0  0  0  0  0  0  0  0  0  0  0  0
  184.2850  178.6950  138.3560 C   0  0  0  0  0  0  0  0  0  0  0  0
  184.7730  179.7660  139.0980 O   0  0  0  0  0  1  0  0  0  0  0  0
  185.1880  177.8130  137.7210 C   0  0  0  0  0  0  0  0  0  0  0  0
  183.3030  176.4400  137.0170 C   0  0  0  0  0  3  0  0  0  0  0  0
  182.4210  177.3220  137.6340 C   0  0  0  0  0  3  0  0  0  0  0  0
  181.3520  179.1120  140.2030 C   0  0  0  0  0  0  0  0  0  0  0  0
  181.8470  178.2830  141.0110 O   0  0  0  0  0  0  0  0  0  0  0  0
  180.1730  179.9180  140.6100 C   0  0  0  0  0  1  0  0  0  0  0  0
  181.9390  179.3260  138.9140 N   0  0  0  0  0  2  0  0  0  0  0  0
  185.5770  175.7930  136.3520 N   0  0  0  0  0  2  0  0  0  0  0  0
  186.0340  174.5170  136.8860 C   0  0  0  0  0  2  0  0  0  0  0  0
  187.8940  172.9240  136.3780 C   0  0  0  0  0  3  0  0  0  0  0  0
  190.0470  173.7050  135.5730 C   0  0  0  0  0  0  0  0  0  0  0  0
  188.2800  175.2940  136.0770 C   0  0  0  0  0  3  0  0  0  0  0  0
  189.1950  172.6570  135.9430 C   0  0  0  0  0  3  0  0  0  0  0  0
  187.4360  174.2420  136.4500 C   0  0  0  0  0  0  0  0  0  0  0  0
  189.5800  175.0260  135.6430 C   0  0  0  0  0  3  0  0  0  0  0  0
  192.3980  173.0850  136.0290 C   0  0  0  0  0  1  0  0  0  0  0  0
  191.3400  173.4070  135.1360 O   0  0  0  0  0  0  0  0  0  0  0  0
  189.5740  177.3710  140.1260 C   0  0  0  0  0  2  0  0  0  0  0  0
  188.8520  177.5560  141.3090 O   0  0  0  0  0  0  0  0  0  0  0  0
  189.8090  177.5400  142.3300 C   0  0  0  0  0  2  0  0  0  0  0  0
  189.2560  176.8180  143.5470 C   0  0  0  0  0  2  0  0  0  0  0  0
  188.3750  177.7070  144.3010 N   0  0  0  0  0  0  0  0  0  0  0  0
  188.8540  177.8630  145.6840 C   0  0  0  0  0  3  0  0  0  0  0  0
  188.4530  177.3380  148.1410 C   0  0  0  0  0  2  0  0  0  0  0  0
  190.5490  177.0460  147.3900 C   0  0  0  0  0  2  0  0  0  0  0  0
  189.7440  177.8980  148.1700 O   0  0  0  0  0  0  0  0  0  0  0  0
  190.1920  177.1410  145.8980 C   0  0  0  0  0  2  0  0  0  0  0  0
  187.8040  177.5070  146.7590 C   0  0  0  0  0  2  0  0  0  0  0  0
  187.0440  177.1160  144.3220 C   0  0  0  0  0  2  0  0  0  0  0  0
  185.8800  178.2270  142.6010 O   0  0  0  0  0  0  0  0  0  0  0  0
  186.0410  178.0940  143.8040 C   0  0  0  0  0  0  0  0  0  0  0  0
  183.5500  178.8650  143.9450 C   0  0  0  0  0  1  0  0  0  0  0  0
  185.0520  179.0530  144.9490 S   0  0  0  0  0  0  0  0  0  0  0  0
  1  2  1  0  0  0  0
  2 28  1  0  0  0  0
  3  1  2  0  0  0  0
  4  2  2  0  0  0  0
  5  4  1  0  0  0  0
  6  3  1  0  0  0  0
  6  5  2  0  0  0  0
  7 11  1  0  0  0  0
  8  9  1  0  0  0  0
  8 17  1  0  0  0  0
  9 10  1  0  0  0  0
 11  5  1  0  0  0  0
 11  9  2  0  0  0  0
 12  7  2  0  0  0  0
 12 13  1  0  0  0  0
 13  8  2  0  0  0  0
 14 16  1  0  0  0  0
 14 15  2  0  0  0  0
 17 14  1  0  0  0  0
 18 19  1  0  0  0  0
 18  7  1  0  0  0  0
 20 24  1  0  0  0  0
 21 25  2  0  0  0  0
 21 23  1  0  0  0  0
 22 24  2  0  0  0  0
 23 20  2  0  0  0  0
 24 19  1  0  0  0  0
 25 22  1  0  0  0  0
 27 21  1  0  0  0  0
 27 26  1  0  0  0  0
 28 29  1  0  0  0  0
 29 30  1  0  0  0  0
 30 31  1  0  0  0  0
 31 32  1  0  0  0  0
 32 39  1  0  0  0  0
 32 33  1  0  0  0  0
 33 37  1  0  0  0  0
 33 38  1  0  0  0  0
 34 36  1  0  0  0  0
 35 36  1  0  0  0  0
 37 35  1  0  0  0  0
 38 34  1  0  0  0  0
 40 41  2  0  0  0  0
 41 39  1  0  0  0  0
 41 43  1  0  0  0  0
 42 43  1  0  0  0  0
M  END
>  <MODEL>
5

>  <REMARK>
 VINA RESULT:      -7.1      3.081      7.295
  Name = 
  15 active torsions:
  status: ('A' for Active; 'I' for Inactive)
    1  A    between atoms: C_1  and  N_34
    2  A    between atoms: C_1  and  C_35
    3  A    between atoms: C_3  and  C_4
    4  A    between atoms: C_3  and  O_12
    5  A    between atoms: C_4  and  N_14
    6  A    between atoms: C_6  and  C_17
    7  A    between atoms: C_8  and  N_34
    8  A    between atoms: C_11  and  N_14
    9  A    between atoms: O_12  and  C_17
   10  A    between atoms: N_14  and  C_41
   11  A    between atoms: C_16  and  N_23
   12  A    between atoms: C_19  and  O_37
   13  A    between atoms: C_22  and  C_41
   14  A    between atoms: C_22  and  S_42
   15  A    between atoms: C_27  and  C_30
                            x       y       z     vdW  Elec       q    Type
                         _______ _______ _______ _____ _____    ______ ____

>  <TORSDO>
F 15

$$$$
=
 OpenBabel11052416153D

 43 46  0  0  0  0  0  0  0  0999 V2000
  184.3060  178.6130  145.5540 C   0  0  0  0  0  3  0  0  0  0  0  0
  184.8290  178.4920  144.2640 C   0  0  0  0  0  0  0  0  0  0  0  0
  185.1290  178.4220  146.6680 C   0  0  0  0  0  3  0  0  0  0  0  0
  186.1880  178.2010  144.0940 C   0  0  0  0  0  3  0  0  0  0  0  0
  187.0210  177.9960  145.2040 C   0  0  0  0  0  0  0  0  0  0  0  0
  186.4810  178.1130  146.4930 C   0  0  0  0  0  3  0  0  0  0  0  0
  188.9850  177.5000  143.7120 C   0  0  0  0  0  0  0  0  0  0  0  0
  190.6560  177.1420  145.9500 C   0  0  0  0  0  0  0  0  0  0  0  0
  189.3000  177.4880  146.1320 C   0  0  0  0  0  0  0  0  0  0  0  0
  188.8070  177.7160  147.4120 O   0  0  0  0  0  1  0  0  0  0  0  0
  188.4500  177.6490  145.0140 C   0  0  0  0  0  0  0  0  0  0  0  0
  190.3450  177.2040  143.5490 C   0  0  0  0  0  3  0  0  0  0  0  0
  191.1700  177.0330  144.6560 C   0  0  0  0  0  3  0  0  0  0  0  0
  192.3010  175.7870  147.3470 C   0  0  0  0  0  0  0  0  0  0  0  0
  192.4330  174.8750  146.4890 O   0  0  0  0  0  0  0  0  0  0  0  0
  192.9690  175.6530  148.6660 C   0  0  0  0  0  1  0  0  0  0  0  0
  191.5590  176.9760  147.0510 N   0  0  0  0  0  2  0  0  0  0  0  0
  188.1330  177.6150  142.5640 N   0  0  0  0  0  2  0  0  0  0  0  0
  188.2570  178.6640  141.5590 C   0  0  0  0  0  2  0  0  0  0  0  0
  189.6110  177.3300  139.9340 C   0  0  0  0  0  3  0  0  0  0  0  0
  188.8160  176.8870  137.6840 C   0  0  0  0  0  0  0  0  0  0  0  0
  187.4730  178.2100  139.2170 C   0  0  0  0  0  3  0  0  0  0  0  0
  189.7910  176.7450  138.6770 C   0  0  0  0  0  3  0  0  0  0  0  0
  188.4560  178.0670  140.2050 C   0  0  0  0  0  0  0  0  0  0  0  0
  187.6550  177.6250  137.9630 C   0  0  0  0  0  3  0  0  0  0  0  0
  188.1100  175.3450  135.8830 C   0  0  0  0  0  1  0  0  0  0  0  0
  189.0200  176.2850  136.4400 O   0  0  0  0  0  0  0  0  0  0  0  0
  183.9430  178.7370  143.0870 C   0  0  0  0  0  2  0  0  0  0  0  0
  184.2670  177.8790  142.0310 O   0  0  0  0  0  0  0  0  0  0  0  0
  183.8690  178.5540  140.8730 C   0  0  0  0  0  2  0  0  0  0  0  0
  182.9840  177.6530  140.0270 C   0  0  0  0  0  2  0  0  0  0  0  0
  182.5500  178.3620  138.8250 N   0  0  0  0  0  0  0  0  0  0  0  0
  183.2710  177.8670  137.6410 C   0  0  0  0  0  3  0  0  0  0  0  0
  184.4570  175.9010  136.5460 C   0  0  0  0  0  2  0  0  0  0  0  0
  183.0020  177.0280  135.2590 C   0  0  0  0  0  2  0  0  0  0  0  0
  184.3770  176.8200  135.4830 O   0  0  0  0  0  0  0  0  0  0  0  0
  182.3540  177.8120  136.4110 C   0  0  0  0  0  2  0  0  0  0  0  0
  184.0370  176.5480  137.8750 C   0  0  0  0  0  2  0  0  0  0  0  0
  182.8450  179.7780  139.0040 C   0  0  0  0  0  2  0  0  0  0  0  0
  181.7490  181.7230  138.2470 O   0  0  0  0  0  0  0  0  0  0  0  0
  181.6310  180.5950  138.7000 C   0  0  0  0  0  0  0  0  0  0  0  0
  180.0780  180.1970  140.7620 C   0  0  0  0  0  1  0  0  0  0  0  0
  179.9990  179.9070  138.9710 S   0  0  0  0  0  0  0  0  0  0  0  0
  1  3  1  0  0  0  0
  2  1  2  0  0  0  0
  4  2  1  0  0  0  0
  4  5  2  0  0  0  0
  5  6  1  0  0  0  0
  6  3  2  0  0  0  0
  7 11  1  0  0  0  0
  8  9  1  0  0  0  0
  8 17  1  0  0  0  0
  9 10  1  0  0  0  0
 11  5  1  0  0  0  0
 11  9  2  0  0  0  0
 12  7  2  0  0  0  0
 12 13  1  0  0  0  0
 13  8  2  0  0  0  0
 14 16  1  0  0  0  0
 15 14  2  0  0  0  0
 17 14  1  0  0  0  0
 18  7  1  0  0  0  0
 19 18  1  0  0  0  0
 20 24  1  0  0  0  0
 21 25  2  0  0  0  0
 21 23  1  0  0  0  0
 22 24  2  0  0  0  0
 23 20  2  0  0  0  0
 24 19  1  0  0  0  0
 25 22  1  0  0  0  0
 26 27  1  0  0  0  0
 27 21  1  0  0  0  0
 28  2  1  0  0  0  0
 29 28  1  0  0  0  0
 30 29  1  0  0  0  0
 31 30  1  0  0  0  0
 32 39  1  0  0  0  0
 32 31  1  0  0  0  0
 33 38  1  0  0  0  0
 33 32  1  0  0  0  0
 34 38  1  0  0  0  0
 35 36  1  0  0  0  0
 35 37  1  0  0  0  0
 36 34  1  0  0  0  0
 37 33  1  0  0  0  0
 40 41  2  0  0  0  0
 41 43  1  0  0  0  0
 41 39  1  0  0  0  0
 43 42  1  0  0  0  0
M  END
>  <MODEL>
6

>  <REMARK>
 VINA RESULT:      -7.0      4.154      8.714
  Name = 
  15 active torsions:
  status: ('A' for Active; 'I' for Inactive)
    1  A    between atoms: C_1  and  N_34
    2  A    between atoms: C_1  and  C_35
    3  A    between atoms: C_3  and  C_4
    4  A    between atoms: C_3  and  O_12
    5  A    between atoms: C_4  and  N_14
    6  A    between atoms: C_6  and  C_17
    7  A    between atoms: C_8  and  N_34
    8  A    between atoms: C_11  and  N_14
    9  A    between atoms: O_12  and  C_17
   10  A    between atoms: N_14  and  C_41
   11  A    between atoms: C_16  and  N_23
   12  A    between atoms: C_19  and  O_37
   13  A    between atoms: C_22  and  C_41
   14  A    between atoms: C_22  and  S_42
   15  A    between atoms: C_27  and  C_30
                            x       y       z     vdW  Elec       q    Type
                         _______ _______ _______ _____ _____    ______ ____

>  <TORSDO>
F 15

$$$$
=
 OpenBabel11052416153D

 43 46  0  0  0  0  0  0  0  0999 V2000
  188.9550  178.3110  138.6130 C   0  0  0  0  0  3  0  0  0  0  0  0
  189.5170  177.3970  139.5070 C   0  0  0  0  0  0  0  0  0  0  0  0
  189.2980  178.2730  137.2580 C   0  0  0  0  0  3  0  0  0  0  0  0
  190.4100  176.4270  139.0340 C   0  0  0  0  0  3  0  0  0  0  0  0
  190.7710  176.3870  137.6790 C   0  0  0  0  0  0  0  0  0  0  0  0
  190.2040  177.3150  136.7940 C   0  0  0  0  0  3  0  0  0  0  0  0
  191.3180  174.2870  136.4040 C   0  0  0  0  0  0  0  0  0  0  0  0
  194.0470  174.5520  137.0460 C   0  0  0  0  0  0  0  0  0  0  0  0
  193.1210  175.5180  137.4950 C   0  0  0  0  0  0  0  0  0  0  0  0
  193.5660  176.6340  138.1960 O   0  0  0  0  0  1  0  0  0  0  0  0
  191.7470  175.3810  137.1940 C   0  0  0  0  0  0  0  0  0  0  0  0
  192.2580  173.3640  135.9280 C   0  0  0  0  0  3  0  0  0  0  0  0
  193.6060  173.5000  136.2420 C   0  0  0  0  0  3  0  0  0  0  0  0
  196.1280  174.0500  138.4280 C   0  0  0  0  0  0  0  0  0  0  0  0
  195.5810  173.1410  139.1070 O   0  0  0  0  0  0  0  0  0  0  0  0
  197.5170  174.4680  138.7480 C   0  0  0  0  0  1  0  0  0  0  0  0
  195.4510  174.6510  137.3190 N   0  0  0  0  0  2  0  0  0  0  0  0
  189.9240  174.1030  136.1230 N   0  0  0  0  0  2  0  0  0  0  0  0
  189.0940  173.0840  136.7530 C   0  0  0  0  0  2  0  0  0  0  0  0
  186.7140  172.7320  137.4390 C   0  0  0  0  0  3  0  0  0  0  0  0
  185.0540  174.4870  137.2040 C   0  0  0  0  0  0  0  0  0  0  0  0
  187.3470  174.8700  136.4990 C   0  0  0  0  0  3  0  0  0  0  0  0
  185.4030  173.1890  137.5950 C   0  0  0  0  0  3  0  0  0  0  0  0
  187.6870  173.5690  136.8880 C   0  0  0  0  0  0  0  0  0  0  0  0
  186.0360  175.3250  136.6540 C   0  0  0  0  0  3  0  0  0  0  0  0
  183.3400  175.7630  138.4500 C   0  0  0  0  0  1  0  0  0  0  0  0
  183.7360  174.9180  137.3780 O   0  0  0  0  0  0  0  0  0  0  0  0
  189.1080  177.4290  140.9440 C   0  0  0  0  0  2  0  0  0  0  0  0
  190.1820  177.8030  141.7590 O   0  0  0  0  0  0  0  0  0  0  0  0
  189.6010  178.2510  142.9500 C   0  0  0  0  0  2  0  0  0  0  0  0
  188.6180  177.2140  143.4680 C   0  0  0  0  0  2  0  0  0  0  0  0
  187.5690  177.8650  144.2500 N   0  0  0  0  0  0  0  0  0  0  0  0
  187.6970  177.5230  145.6770 C   0  0  0  0  0  3  0  0  0  0  0  0
  189.2060  177.4910  147.7250 C   0  0  0  0  0  2  0  0  0  0  0  0
  187.1170  178.2550  148.0380 C   0  0  0  0  0  2  0  0  0  0  0  0
  187.9570  177.1510  148.2780 O   0  0  0  0  0  0  0  0  0  0  0  0
  186.7790  178.3950  146.5450 C   0  0  0  0  0  2  0  0  0  0  0  0
  189.1530  177.4920  146.1900 C   0  0  0  0  0  2  0  0  0  0  0  0
  186.2810  177.3930  143.7620 C   0  0  0  0  0  2  0  0  0  0  0  0
  186.3680  179.1220  142.1620 O   0  0  0  0  0  0  0  0  0  0  0  0
  185.6630  178.4230  142.8730 C   0  0  0  0  0  0  0  0  0  0  0  0
  183.7960  179.0620  144.5840 C   0  0  0  0  0  1  0  0  0  0  0  0
  183.8820  178.6120  142.8260 S   0  0  0  0  0  0  0  0  0  0  0  0
  1  2  1  0  0  0  0
  2 28  1  0  0  0  0
  3  1  2  0  0  0  0
  4  2  2  0  0  0  0
  5  4  1  0  0  0  0
  6  3  1  0  0  0  0
  6  5  2  0  0  0  0
  7 11  1  0  0  0  0
  8 17  1  0  0  0  0
  8  9  1  0  0  0  0
  9 10  1  0  0  0  0
 11  9  2  0  0  0  0
 11  5  1  0  0  0  0
 12 13  1  0  0  0  0
 12  7  2  0  0  0  0
 13  8  2  0  0  0  0
 14 16  1  0  0  0  0
 14 15  2  0  0  0  0
 17 14  1  0  0  0  0
 18  7  1  0  0  0  0
 18 19  1  0  0  0  0
 19 24  1  0  0  0  0
 20 23  1  0  0  0  0
 21 27  1  0  0  0  0
 21 23  2  0  0  0  0
 22 25  2  0  0  0  0
 22 24  1  0  0  0  0
 24 20  2  0  0  0  0
 25 21  1  0  0  0  0
 27 26  1  0  0  0  0
 28 29  1  0  0  0  0
 29 30  1  0  0  0  0
 30 31  1  0  0  0  0
 31 32  1  0  0  0  0
 32 33  1  0  0  0  0
 33 38  1  0  0  0  0
 33 37  1  0  0  0  0
 34 36  1  0  0  0  0
 35 36  1  0  0  0  0
 37 35  1  0  0  0  0
 38 34  1  0  0  0  0
 39 32  1  0  0  0  0
 40 41  2  0  0  0  0
 41 39  1  0  0  0  0
 43 41  1  0  0  0  0
 43 42  1  0  0  0  0
M  END
>  <MODEL>
7

>  <REMARK>
 VINA RESULT:      -7.0      1.668      2.832
  Name = 
  15 active torsions:
  status: ('A' for Active; 'I' for Inactive)
    1  A    between atoms: C_1  and  N_34
    2  A    between atoms: C_1  and  C_35
    3  A    between atoms: C_3  and  C_4
    4  A    between atoms: C_3  and  O_12
    5  A    between atoms: C_4  and  N_14
    6  A    between atoms: C_6  and  C_17
    7  A    between atoms: C_8  and  N_34
    8  A    between atoms: C_11  and  N_14
    9  A    between atoms: O_12  and  C_17
   10  A    between atoms: N_14  and  C_41
   11  A    between atoms: C_16  and  N_23
   12  A    between atoms: C_19  and  O_37
   13  A    between atoms: C_22  and  C_41
   14  A    between atoms: C_22  and  S_42
   15  A    between atoms: C_27  and  C_30
                            x       y       z     vdW  Elec       q    Type
                         _______ _______ _______ _____ _____    ______ ____

>  <TORSDO>
F 15

$$$$
=
 OpenBabel11052416153D

 43 46  0  0  0  0  0  0  0  0999 V2000
  184.2970  178.6560  145.3120 C   0  0  0  0  0  3  0  0  0  0  0  0
  184.8340  178.4690  144.0350 C   0  0  0  0  0  0  0  0  0  0  0  0
  185.1060  178.5120  146.4430 C   0  0  0  0  0  3  0  0  0  0  0  0
  186.1910  178.1570  143.8950 C   0  0  0  0  0  3  0  0  0  0  0  0
  187.0100  177.9970  145.0230 C   0  0  0  0  0  0  0  0  0  0  0  0
  186.4570  178.1810  146.2980 C   0  0  0  0  0  3  0  0  0  0  0  0
  188.9960  177.4520  143.5780 C   0  0  0  0  0  0  0  0  0  0  0  0
  190.6170  177.1060  145.8530 C   0  0  0  0  0  0  0  0  0  0  0  0
  189.2630  177.4720  146.0030 C   0  0  0  0  0  0  0  0  0  0  0  0
  188.7480  177.7270  147.2700 O   0  0  0  0  0  1  0  0  0  0  0  0
  188.4380  177.6280  144.8660 C   0  0  0  0  0  0  0  0  0  0  0  0
  190.3540  177.1350  143.4460 C   0  0  0  0  0  3  0  0  0  0  0  0
  191.1550  176.9690  144.5720 C   0  0  0  0  0  3  0  0  0  0  0  0
  192.2720  175.7750  147.2620 C   0  0  0  0  0  0  0  0  0  0  0  0
  192.4600  174.8900  146.3870 O   0  0  0  0  0  0  0  0  0  0  0  0
  192.9090  175.6320  148.5960 C   0  0  0  0  0  1  0  0  0  0  0  0
  191.4960  176.9440  146.9740 N   0  0  0  0  0  2  0  0  0  0  0  0
  188.1680  177.5610  142.4120 N   0  0  0  0  0  2  0  0  0  0  0  0
  188.3230  178.5940  141.3960 C   0  0  0  0  0  2  0  0  0  0  0  0
  189.8330  177.1350  140.0380 C   0  0  0  0  0  3  0  0  0  0  0  0
  189.4640  176.7920  137.6630 C   0  0  0  0  0  0  0  0  0  0  0  0
  187.9840  178.2400  138.9340 C   0  0  0  0  0  3  0  0  0  0  0  0
  190.2000  176.5410  138.8270 C   0  0  0  0  0  3  0  0  0  0  0  0
  188.7280  177.9880  140.0930 C   0  0  0  0  0  0  0  0  0  0  0  0
  188.3530  177.6470  137.7250 C   0  0  0  0  0  3  0  0  0  0  0  0
  189.0310  175.2410  135.7860 C   0  0  0  0  0  1  0  0  0  0  0  0
  189.8520  176.1790  136.4680 O   0  0  0  0  0  0  0  0  0  0  0  0
  183.9630  178.6650  142.8370 C   0  0  0  0  0  2  0  0  0  0  0  0
  182.6260  178.8320  143.2150 O   0  0  0  0  0  0  0  0  0  0  0  0
  181.9210  178.9770  142.0150 C   0  0  0  0  0  2  0  0  0  0  0  0
  182.7450  178.4310  140.8610 C   0  0  0  0  0  2  0  0  0  0  0  0
  182.0090  177.3710  140.1760 N   0  0  0  0  0  0  0  0  0  0  0  0
  182.6300  177.0610  138.8780 C   0  0  0  0  0  3  0  0  0  0  0  0
  184.6060  177.4520  137.3230 C   0  0  0  0  0  2  0  0  0  0  0  0
  183.9450  175.3200  137.5780 C   0  0  0  0  0  2  0  0  0  0  0  0
  183.9290  176.4010  136.6750 O   0  0  0  0  0  0  0  0  0  0  0  0
  183.0400  175.5850  138.7920 C   0  0  0  0  0  2  0  0  0  0  0  0
  183.7700  178.0230  138.4790 C   0  0  0  0  0  2  0  0  0  0  0  0
  180.6470  177.8370  139.9520 C   0  0  0  0  0  2  0  0  0  0  0  0
  179.2730  176.7100  141.5000 O   0  0  0  0  0  0  0  0  0  0  0  0
  179.6720  176.7760  140.3480 C   0  0  0  0  0  0  0  0  0  0  0  0
  179.5360  174.1780  140.1230 C   0  0  0  0  0  1  0  0  0  0  0  0
  179.0630  175.6190  139.1240 S   0  0  0  0  0  0  0  0  0  0  0  0
  1  3  1  0  0  0  0
  2  1  2  0  0  0  0
  4  2  1  0  0  0  0
  4  5  2  0  0  0  0
  5  6  1  0  0  0  0
  6  3  2  0  0  0  0
  7 11  1  0  0  0  0
  8  9  1  0  0  0  0
  8 17  1  0  0  0  0
  9 10  1  0  0  0  0
 11  5  1  0  0  0  0
 11  9  2  0  0  0  0
 12  7  2  0  0  0  0
 12 13  1  0  0  0  0
 13  8  2  0  0  0  0
 14 16  1  0  0  0  0
 15 14  2  0  0  0  0
 17 14  1  0  0  0  0
 18  7  1  0  0  0  0
 19 18  1  0  0  0  0
 20 24  1  0  0  0  0
 21 25  2  0  0  0  0
 21 23  1  0  0  0  0
 22 24  2  0  0  0  0
 23 20  2  0  0  0  0
 24 19  1  0  0  0  0
 25 22  1  0  0  0  0
 26 27  1  0  0  0  0
 27 21  1  0  0  0  0
 28 29  1  0  0  0  0
 28  2  1  0  0  0  0
 30 29  1  0  0  0  0
 31 30  1  0  0  0  0
 32 31  1  0  0  0  0
 33 32  1  0  0  0  0
 34 38  1  0  0  0  0
 35 37  1  0  0  0  0
 36 34  1  0  0  0  0
 36 35  1  0  0  0  0
 37 33  1  0  0  0  0
 38 33  1  0  0  0  0
 39 32  1  0  0  0  0
 39 41  1  0  0  0  0
 41 40  2  0  0  0  0
 43 42  1  0  0  0  0
 43 41  1  0  0  0  0
M  END
>  <MODEL>
8

>  <REMARK>
 VINA RESULT:      -7.0      3.976      8.582
  Name = 
  15 active torsions:
  status: ('A' for Active; 'I' for Inactive)
    1  A    between atoms: C_1  and  N_34
    2  A    between atoms: C_1  and  C_35
    3  A    between atoms: C_3  and  C_4
    4  A    between atoms: C_3  and  O_12
    5  A    between atoms: C_4  and  N_14
    6  A    between atoms: C_6  and  C_17
    7  A    between atoms: C_8  and  N_34
    8  A    between atoms: C_11  and  N_14
    9  A    between atoms: O_12  and  C_17
   10  A    between atoms: N_14  and  C_41
   11  A    between atoms: C_16  and  N_23
   12  A    between atoms: C_19  and  O_37
   13  A    between atoms: C_22  and  C_41
   14  A    between atoms: C_22  and  S_42
   15  A    between atoms: C_27  and  C_30
                            x       y       z     vdW  Elec       q    Type
                         _______ _______ _______ _____ _____    ______ ____

>  <TORSDO>
F 15

$$$$
=
 OpenBabel11052416153D

 43 46  0  0  0  0  0  0  0  0999 V2000
  184.3980  178.6210  145.6000 C   0  0  0  0  0  3  0  0  0  0  0  0
  184.8520  178.3150  144.3150 C   0  0  0  0  0  0  0  0  0  0  0  0
  185.2850  178.6120  146.6810 C   0  0  0  0  0  3  0  0  0  0  0  0
  186.2060  178.0210  144.1130 C   0  0  0  0  0  3  0  0  0  0  0  0
  187.1030  177.9970  145.1910 C   0  0  0  0  0  0  0  0  0  0  0  0
  186.6310  178.2990  146.4770 C   0  0  0  0  0  3  0  0  0  0  0  0
  189.0370  177.4970  143.6610 C   0  0  0  0  0  0  0  0  0  0  0  0
  190.7480  177.1300  145.8660 C   0  0  0  0  0  0  0  0  0  0  0  0
  189.3970  177.4790  146.0750 C   0  0  0  0  0  0  0  0  0  0  0  0
  188.9290  177.7080  147.3640 O   0  0  0  0  0  1  0  0  0  0  0  0
  188.5270  177.6460  144.9730 C   0  0  0  0  0  0  0  0  0  0  0  0
  190.3920  177.1970  143.4720 C   0  0  0  0  0  3  0  0  0  0  0  0
  191.2370  177.0210  144.5630 C   0  0  0  0  0  3  0  0  0  0  0  0
  192.3650  175.7470  147.2690 C   0  0  0  0  0  0  0  0  0  0  0  0
  192.4310  174.8000  146.4420 O   0  0  0  0  0  0  0  0  0  0  0  0
  193.0610  175.6270  148.5760 C   0  0  0  0  0  1  0  0  0  0  0  0
  191.6720  176.9580  146.9500 N   0  0  0  0  0  2  0  0  0  0  0  0
  188.1630  177.6170  142.5300 N   0  0  0  0  0  2  0  0  0  0  0  0
  188.3030  178.6360  141.4970 C   0  0  0  0  0  2  0  0  0  0  0  0
  187.7250  177.9640  139.1580 C   0  0  0  0  0  3  0  0  0  0  0  0
  189.3490  176.8860  137.7120 C   0  0  0  0  0  0  0  0  0  0  0  0
  189.9510  177.4950  139.9850 C   0  0  0  0  0  3  0  0  0  0  0  0
  188.0660  177.4030  137.9240 C   0  0  0  0  0  3  0  0  0  0  0  0
  188.6640  178.0080  140.1910 C   0  0  0  0  0  0  0  0  0  0  0  0
  190.2900  176.9350  138.7520 C   0  0  0  0  0  3  0  0  0  0  0  0
  190.9680  175.8820  136.1340 C   0  0  0  0  0  1  0  0  0  0  0  0
  189.6630  176.3370  136.4650 O   0  0  0  0  0  0  0  0  0  0  0  0
  183.8970  178.3680  143.1670 C   0  0  0  0  0  2  0  0  0  0  0  0
  184.5820  178.5120  141.9560 O   0  0  0  0  0  0  0  0  0  0  0  0
  183.7420  177.9500  140.9890 C   0  0  0  0  0  2  0  0  0  0  0  0
  182.8280  179.0190  140.4120 C   0  0  0  0  0  2  0  0  0  0  0  0
  181.4760  178.4890  140.2520 N   0  0  0  0  0  0  0  0  0  0  0  0
  180.9880  178.7170  138.8820 C   0  0  0  0  0  3  0  0  0  0  0  0
  180.7280  180.3750  136.9690 C   0  0  0  0  0  2  0  0  0  0  0  0
  181.4800  178.3310  136.4200 C   0  0  0  0  0  2  0  0  0  0  0  0
  180.3470  179.1650  136.3590 O   0  0  0  0  0  0  0  0  0  0  0  0
  181.7760  177.8850  137.8610 C   0  0  0  0  0  2  0  0  0  0  0  0
  180.8870  180.2070  138.4880 C   0  0  0  0  0  2  0  0  0  0  0  0
  180.6030  179.1830  141.1890 C   0  0  0  0  0  2  0  0  0  0  0  0
  179.3700  177.2410  141.7030 O   0  0  0  0  0  0  0  0  0  0  0  0
  179.9850  178.2040  142.1340 C   0  0  0  0  0  0  0  0  0  0  0  0
  178.9330  179.7500  143.9570 C   0  0  0  0  0  1  0  0  0  0  0  0
  180.1740  178.4250  143.9020 S   0  0  0  0  0  0  0  0  0  0  0  0
  1  3  1  0  0  0  0
  2  1  2  0  0  0  0
  4  2  1  0  0  0  0
  4  5  2  0  0  0  0
  5  6  1  0  0  0  0
  6  3  2  0  0  0  0
  7 11  1  0  0  0  0
  8  9  1  0  0  0  0
  8 17  1  0  0  0  0
  9 10  1  0  0  0  0
 11  5  1  0  0  0  0
 11  9  2  0  0  0  0
 12  7  2  0  0  0  0
 12 13  1  0  0  0  0
 13  8  2  0  0  0  0
 14 16  1  0  0  0  0
 15 14  2  0  0  0  0
 17 14  1  0  0  0  0
 18  7  1  0  0  0  0
 19 18  1  0  0  0  0
 20 24  1  0  0  0  0
 21 23  1  0  0  0  0
 21 25  2  0  0  0  0
 22 24  2  0  0  0  0
 23 20  2  0  0  0  0
 24 19  1  0  0  0  0
 25 22  1  0  0  0  0
 26 27  1  0  0  0  0
 27 21  1  0  0  0  0
 28  2  1  0  0  0  0
 29 28  1  0  0  0  0
 30 29  1  0  0  0  0
 31 30  1  0  0  0  0
 32 31  1  0  0  0  0
 32 39  1  0  0  0  0
 33 32  1  0  0  0  0
 34 38  1  0  0  0  0
 35 37  1  0  0  0  0
 36 35  1  0  0  0  0
 36 34  1  0  0  0  0
 37 33  1  0  0  0  0
 38 33  1  0  0  0  0
 39 41  1  0  0  0  0
 40 41  2  0  0  0  0
 41 43  1  0  0  0  0
 43 42  1  0  0  0  0
M  END
>  <MODEL>
9

>  <REMARK>
 VINA RESULT:      -7.0      4.000      8.583
  Name = 
  15 active torsions:
  status: ('A' for Active; 'I' for Inactive)
    1  A    between atoms: C_1  and  N_34
    2  A    between atoms: C_1  and  C_35
    3  A    between atoms: C_3  and  C_4
    4  A    between atoms: C_3  and  O_12
    5  A    between atoms: C_4  and  N_14
    6  A    between atoms: C_6  and  C_17
    7  A    between atoms: C_8  and  N_34
    8  A    between atoms: C_11  and  N_14
    9  A    between atoms: O_12  and  C_17
   10  A    between atoms: N_14  and  C_41
   11  A    between atoms: C_16  and  N_23
   12  A    between atoms: C_19  and  O_37
   13  A    between atoms: C_22  and  C_41
   14  A    between atoms: C_22  and  S_42
   15  A    between atoms: C_27  and  C_30
                            x       y       z     vdW  Elec       q    Type
                         _______ _______ _______ _____ _____    ______ ____

>  <TORSDO>
F 15

$$$$
