=
 OpenBabel11052415543D

 34 39  0  0  1  0  0  0  0  0999 V2000
  188.6840  178.0110  141.3880 C   0  0  0  0  0  0  0  0  0  0  0  0
  190.4420  176.0920  139.3310 C   0  0  0  0  0  2  0  0  0  0  0  0
  191.4300  177.5060  141.0370 O   0  0  0  0  0  0  0  0  0  0  0  0
  187.5290  177.6410  143.9300 C   0  0  0  0  0  3  0  0  0  0  0  0
  187.3210  178.2690  141.6030 C   0  0  0  0  0  3  0  0  0  0  0  0
  188.8920  177.4060  143.7470 C   0  0  0  0  0  0  0  0  0  0  0  0
  191.0580  176.8090  144.6500 C   0  0  0  0  0  3  0  0  0  0  0  0
  189.6870  177.0160  144.8280 C   0  0  0  0  0  3  0  0  0  0  0  0
  186.7280  178.0710  142.8610 C   0  0  0  0  0  0  0  0  0  0  0  0
  190.8480  177.3570  142.2980 C   0  0  0  0  0  0  0  0  0  0  0  0
  189.4740  177.5850  142.4710 C   0  0  0  0  0  0  0  0  0  0  0  0
  191.6380  176.9820  143.3890 C   0  0  0  0  0  3  0  0  0  0  0  0
  189.8300  175.9970  137.9240 C   0  0  0  0  0  2  0  0  0  0  0  0
  189.9880  177.2840  137.1100 C   0  0  2  0  0  3  0  0  0  0  0  0
  188.9690  178.3720  137.5010 C   0  0  0  0  0  2  0  0  0  0  0  0
  190.6420  177.5260  139.8460 C   0  0  2  0  0  3  0  0  0  0  0  0
  188.3350  178.1850  138.8830 C   0  0  0  0  0  2  0  0  0  0  0  0
  189.3280  178.3190  140.0500 C   0  0  1  0  0  3  0  0  0  0  0  0
  183.4020  178.8180  144.5510 C   0  0  0  0  0  3  0  0  0  0  0  0
  184.3990  178.3400  141.9610 C   0  0  0  0  0  3  0  0  0  0  0  0
  180.7090  178.9550  141.9640 C   0  0  2  0  0  3  0  0  0  0  0  0
  181.1040  179.0720  143.4450 C   0  0  0  0  0  2  0  0  0  0  0  0
  182.5600  178.8190  143.4410 C   0  0  0  0  0  0  0  0  0  0  0  0
  181.9780  178.6430  141.1540 C   0  0  1  0  0  3  0  0  0  0  0  0
  183.0420  178.5830  142.1810 C   0  0  0  0  0  0  0  0  0  0  0  0
  181.8420  177.3980  140.5410 O   0  0  0  0  0  1  0  0  0  0  0  0
  185.2820  178.3290  143.0600 C   0  0  0  0  0  0  0  0  0  0  0  0
  184.7680  178.5700  144.3540 C   0  0  0  0  0  3  0  0  0  0  0  0
  180.0850  180.2250  141.4890 C   0  0  0  0  0  0  0  0  0  0  0  0
  179.6620  181.0630  142.3260 O   0  0  0  0  0  1  0  0  0  0  0  0
  179.9680  180.4900  140.1290 O   0  0  0  0  0  0  0  0  0  0  0  0
  189.8690  176.9650  135.6310 C   0  0  0  0  0  2  0  0  0  0  0  0
  188.5030  177.3710  135.1100 C   0  0  0  0  0  2  0  0  0  0  0  0
  187.6930  176.1310  134.7970 C   0  0  0  0  0  1  0  0  0  0  0  0
  1  5  2  0  0  0  0
  1 11  1  0  0  0  0
  3 10  1  0  0  0  0
  5  9  1  0  0  0  0
  6  4  1  0  0  0  0
  6  8  1  0  0  0  0
  7  8  2  0  0  0  0
  9 27  1  0  0  0  0
  9  4  2  0  0  0  0
 10 11  1  0  0  0  0
 10 12  2  0  0  0  0
 11  6  2  0  0  0  0
 12  7  1  0  0  0  0
 13  2  1  0  0  0  0
 14 32  1  6  0  0  0
 14 15  1  0  0  0  0
 14 13  1  0  0  0  0
 15 17  1  0  0  0  0
 16  2  1  1  0  0  0
 16 18  1  0  0  0  0
 16  3  1  0  0  0  0
 18 17  1  6  0  0  0
 18  1  1  0  0  0  0
 20 25  2  0  0  0  0
 20 27  1  0  0  0  0
 21 29  1  6  0  0  0
 21 22  1  0  0  0  0
 23 22  1  0  0  0  0
 23 19  2  0  0  0  0
 24 26  1  1  0  0  0
 24 21  1  0  0  0  0
 24 25  1  0  0  0  0
 25 23  1  0  0  0  0
 27 28  2  0  0  0  0
 28 19  1  0  0  0  0
 29 30  1  0  0  0  0
 31 29  2  0  0  0  0
 33 32  1  0  0  0  0
 34 33  1  0  0  0  0
M  END
>  <MODEL>
1

>  <REMARK>
 VINA RESULT:     -10.6      0.000      0.000
  Name = 
  4 active torsions:
  status: ('A' for Active; 'I' for Inactive)
    1  A    between atoms: C_3  and  C_13
    2  A    between atoms: C_3  and  C_25
    3  A    between atoms: C_7  and  C_11
    4  A    between atoms: C_18  and  C_30
                            x       y       z     vdW  Elec       q    Type
                         _______ _______ _______ _____ _____    ______ ____

>  <TORSDO>
F 4

$$$$
=
 OpenBabel11052415543D

 34 39  0  0  1  0  0  0  0  0999 V2000
  187.8890  178.2400  142.7710 C   0  0  0  0  0  0  0  0  0  0  0  0
  190.2070  176.3270  141.3670 C   0  0  0  0  0  2  0  0  0  0  0  0
  190.6320  177.8150  143.2350 O   0  0  0  0  0  0  0  0  0  0  0  0
  186.0650  177.8970  144.8900 C   0  0  0  0  0  3  0  0  0  0  0  0
  186.5160  178.4580  142.5800 C   0  0  0  0  0  3  0  0  0  0  0  0
  187.4280  177.7020  145.1110 C   0  0  0  0  0  0  0  0  0  0  0  0
  189.2590  177.1990  146.6140 C   0  0  0  0  0  3  0  0  0  0  0  0
  187.8900  177.3660  146.3860 C   0  0  0  0  0  3  0  0  0  0  0  0
  185.5930  178.2730  143.6220 C   0  0  0  0  0  0  0  0  0  0  0  0
  189.7180  177.6790  144.2830 C   0  0  0  0  0  0  0  0  0  0  0  0
  188.3460  177.8670  144.0490 C   0  0  0  0  0  0  0  0  0  0  0  0
  190.1710  177.3580  145.5660 C   0  0  0  0  0  3  0  0  0  0  0  0
  190.0260  176.1770  139.8480 C   0  0  0  0  0  2  0  0  0  0  0  0
  190.3790  177.4470  139.0710 C   0  0  2  0  0  3  0  0  0  0  0  0
  189.2660  178.5100  139.1170 C   0  0  0  0  0  2  0  0  0  0  0  0
  190.2180  177.7790  141.8700 C   0  0  2  0  0  3  0  0  0  0  0  0
  188.2670  178.3380  140.2670 C   0  0  0  0  0  2  0  0  0  0  0  0
  188.8810  178.5350  141.6630 C   0  0  1  0  0  3  0  0  0  0  0  0
  181.8950  178.8910  144.2730 C   0  0  0  0  0  3  0  0  0  0  0  0
  183.6230  178.5070  142.0830 C   0  0  0  0  0  3  0  0  0  0  0  0
  180.0770  179.0280  141.0110 C   0  0  2  0  0  3  0  0  0  0  0  0
  180.0160  179.1160  142.5450 C   0  0  0  0  0  2  0  0  0  0  0  0
  181.4160  178.9000  142.9650 C   0  0  0  0  0  0  0  0  0  0  0  0
  181.5370  178.7710  140.6050 C   0  0  1  0  0  3  0  0  0  0  0  0
  182.2540  178.7100  141.8980 C   0  0  0  0  0  0  0  0  0  0  0  0
  181.6270  177.5390  139.9570 O   0  0  0  0  0  1  0  0  0  0  0  0
  184.1450  178.4890  143.3920 C   0  0  0  0  0  0  0  0  0  0  0  0
  183.2660  178.6830  144.4820 C   0  0  0  0  0  3  0  0  0  0  0  0
  179.5800  180.2950  140.3970 C   0  0  0  0  0  0  0  0  0  0  0  0
  179.6100  181.3630  141.0600 O   0  0  0  0  0  1  0  0  0  0  0  0
  179.0830  180.3030  139.0980 O   0  0  0  0  0  0  0  0  0  0  0  0
  190.6950  177.0870  137.6310 C   0  0  0  0  0  2  0  0  0  0  0  0
  191.6920  175.9440  137.5760 C   0  0  0  0  0  2  0  0  0  0  0  0
  193.0950  176.4890  137.7400 C   0  0  0  0  0  1  0  0  0  0  0  0
  1 11  1  0  0  0  0
  3 10  1  0  0  0  0
  4  6  1  0  0  0  0
  5  1  2  0  0  0  0
  5  9  1  0  0  0  0
  6  8  1  0  0  0  0
  8  7  2  0  0  0  0
  9  4  2  0  0  0  0
 10 12  2  0  0  0  0
 11 10  1  0  0  0  0
 11  6  2  0  0  0  0
 12  7  1  0  0  0  0
 13  2  1  0  0  0  0
 14 32  1  6  0  0  0
 14 15  1  0  0  0  0
 14 13  1  0  0  0  0
 15 17  1  0  0  0  0
 16  2  1  1  0  0  0
 16  3  1  0  0  0  0
 18 17  1  6  0  0  0
 18 16  1  0  0  0  0
 18  1  1  0  0  0  0
 19 28  1  0  0  0  0
 20 27  1  0  0  0  0
 21 29  1  6  0  0  0
 21 22  1  0  0  0  0
 22 23  1  0  0  0  0
 23 19  2  0  0  0  0
 24 26  1  1  0  0  0
 24 21  1  0  0  0  0
 24 25  1  0  0  0  0
 25 20  2  0  0  0  0
 25 23  1  0  0  0  0
 27  9  1  0  0  0  0
 27 28  2  0  0  0  0
 29 30  1  0  0  0  0
 31 29  2  0  0  0  0
 33 32  1  0  0  0  0
 33 34  1  0  0  0  0
M  END
>  <MODEL>
2

>  <REMARK>
 VINA RESULT:     -10.2      1.455      2.109
  Name = 
  4 active torsions:
  status: ('A' for Active; 'I' for Inactive)
    1  A    between atoms: C_3  and  C_13
    2  A    between atoms: C_3  and  C_25
    3  A    between atoms: C_7  and  C_11
    4  A    between atoms: C_18  and  C_30
                            x       y       z     vdW  Elec       q    Type
                         _______ _______ _______ _____ _____    ______ ____

>  <TORSDO>
F 4

$$$$
=
 OpenBabel11052415543D

 34 39  0  0  1  0  0  0  0  0999 V2000
  187.5770  177.4440  144.2530 C   0  0  0  0  0  0  0  0  0  0  0  0
  185.3440  179.5830  145.4520 C   0  0  0  0  0  2  0  0  0  0  0  0
  186.1930  177.6790  146.6920 O   0  0  0  0  0  0  0  0  0  0  0  0
  190.3900  177.3090  144.2720 C   0  0  0  0  0  3  0  0  0  0  0  0
  188.2990  177.3110  143.0560 C   0  0  0  0  0  3  0  0  0  0  0  0
  189.6930  177.4120  145.4760 C   0  0  0  0  0  0  0  0  0  0  0  0
  189.6850  177.4950  147.8960 C   0  0  0  0  0  3  0  0  0  0  0  0
  190.3860  177.4200  146.6890 C   0  0  0  0  0  3  0  0  0  0  0  0
  189.7020  177.2600  143.0500 C   0  0  0  0  0  0  0  0  0  0  0  0
  187.5870  177.5800  146.6870 C   0  0  0  0  0  0  0  0  0  0  0  0
  188.2810  177.4860  145.4700 C   0  0  0  0  0  0  0  0  0  0  0  0
  188.2890  177.5710  147.8950 C   0  0  0  0  0  3  0  0  0  0  0  0
  184.3680  180.1000  144.3820 C   0  0  0  0  0  2  0  0  0  0  0  0
  183.3510  179.0470  143.9360 C   0  0  2  0  0  3  0  0  0  0  0  0
  183.9370  178.0300  142.9380 C   0  0  0  0  0  2  0  0  0  0  0  0
  185.4640  178.0530  145.5230 C   0  0  2  0  0  3  0  0  0  0  0  0
  185.4670  177.9440  142.9400 C   0  0  0  0  0  2  0  0  0  0  0  0
  186.0610  177.4020  144.2510 C   0  0  1  0  0  3  0  0  0  0  0  0
  192.5250  177.3690  140.5010 C   0  0  0  0  0  3  0  0  0  0  0  0
  189.7970  176.6810  140.6080 C   0  0  0  0  0  3  0  0  0  0  0  0
  191.2430  176.2000  137.1920 C   0  0  2  0  0  3  0  0  0  0  0  0
  192.4280  176.7150  138.0250 C   0  0  0  0  0  2  0  0  0  0  0  0
  191.8500  176.9130  139.3710 C   0  0  0  0  0  0  0  0  0  0  0  0
  190.0140  176.1120  138.1110 C   0  0  1  0  0  3  0  0  0  0  0  0
  190.5220  176.5820  139.4200 C   0  0  0  0  0  0  0  0  0  0  0  0
  189.0270  176.9820  137.6490 O   0  0  0  0  0  1  0  0  0  0  0  0
  190.4450  177.1410  141.7730 C   0  0  0  0  0  0  0  0  0  0  0  0
  191.8140  177.4830  141.7050 C   0  0  0  0  0  3  0  0  0  0  0  0
  191.5570  174.8610  136.6120 C   0  0  0  0  0  0  0  0  0  0  0  0
  192.2220  174.7830  135.5470 O   0  0  0  0  0  0  0  0  0  0  0  0
  191.1210  173.6990  137.2390 O   0  0  0  0  0  1  0  0  0  0  0  0
  182.1430  179.7360  143.3290 C   0  0  0  0  0  2  0  0  0  0  0  0
  181.0950  178.7150  142.9270 C   0  0  0  0  0  2  0  0  0  0  0  0
  180.1130  178.5270  144.0630 C   0  0  0  0  0  1  0  0  0  0  0  0
  1 11  1  0  0  0  0
  4  6  1  0  0  0  0
  5  1  2  0  0  0  0
  6  8  1  0  0  0  0
  8  7  2  0  0  0  0
  9  5  1  0  0  0  0
  9  4  2  0  0  0  0
 10  3  1  0  0  0  0
 10 12  2  0  0  0  0
 11  6  2  0  0  0  0
 11 10  1  0  0  0  0
 12  7  1  0  0  0  0
 13  2  1  0  0  0  0
 14 32  1  6  0  0  0
 14 13  1  0  0  0  0
 15 17  1  0  0  0  0
 15 14  1  0  0  0  0
 16  2  1  6  0  0  0
 16  3  1  0  0  0  0
 18 17  1  6  0  0  0
 18  1  1  0  0  0  0
 18 16  1  0  0  0  0
 19 28  1  0  0  0  0
 20 27  1  0  0  0  0
 21 29  1  1  0  0  0
 21 22  1  0  0  0  0
 21 24  1  0  0  0  0
 22 23  1  0  0  0  0
 23 25  1  0  0  0  0
 23 19  2  0  0  0  0
 24 26  1  6  0  0  0
 24 25  1  0  0  0  0
 25 20  2  0  0  0  0
 27  9  1  0  0  0  0
 28 27  2  0  0  0  0
 29 31  1  0  0  0  0
 30 29  2  0  0  0  0
 33 32  1  0  0  0  0
 33 34  1  0  0  0  0
M  END
>  <MODEL>
3

>  <REMARK>
 VINA RESULT:     -10.1      3.090      8.492
  Name = 
  4 active torsions:
  status: ('A' for Active; 'I' for Inactive)
    1  A    between atoms: C_3  and  C_13
    2  A    between atoms: C_3  and  C_25
    3  A    between atoms: C_7  and  C_11
    4  A    between atoms: C_18  and  C_30
                            x       y       z     vdW  Elec       q    Type
                         _______ _______ _______ _____ _____    ______ ____

>  <TORSDO>
F 4

$$$$
=
 OpenBabel11052415543D

 34 39  0  0  1  0  0  0  0  0999 V2000
  188.3480  177.3160  142.6970 C   0  0  0  0  0  0  0  0  0  0  0  0
  191.2980  178.1390  143.9720 C   0  0  0  0  0  2  0  0  0  0  0  0
  191.0150  176.7320  142.0160 O   0  0  0  0  0  0  0  0  0  0  0  0
  186.6490  178.4520  140.7600 C   0  0  0  0  0  3  0  0  0  0  0  0
  187.0080  177.6070  142.9980 C   0  0  0  0  0  3  0  0  0  0  0  0
  187.9690  178.1460  140.4300 C   0  0  0  0  0  0  0  0  0  0  0  0
  189.7530  178.0410  138.7960 C   0  0  0  0  0  3  0  0  0  0  0  0
  188.4390  178.3750  139.1330 C   0  0  0  0  0  3  0  0  0  0  0  0
  186.1540  178.1900  142.0470 C   0  0  0  0  0  0  0  0  0  0  0  0
  190.1510  177.2670  141.0570 C   0  0  0  0  0  0  0  0  0  0  0  0
  188.8260  177.5820  141.4010 C   0  0  0  0  0  0  0  0  0  0  0  0
  190.6060  177.4860  139.7540 C   0  0  0  0  0  3  0  0  0  0  0  0
  191.2850  178.2410  145.5060 C   0  0  0  0  0  2  0  0  0  0  0  0
  191.1900  176.8800  146.1990 C   0  0  2  0  0  3  0  0  0  0  0  0
  189.7600  176.3070  146.2060 C   0  0  0  0  0  2  0  0  0  0  0  0
  190.7340  176.8240  143.4130 C   0  0  2  0  0  3  0  0  0  0  0  0
  188.8250  176.9140  145.1540 C   0  0  0  0  0  2  0  0  0  0  0  0
  189.2290  176.6020  143.7040 C   0  0  1  0  0  3  0  0  0  0  0  0
  183.0790  179.2250  144.0350 C   0  0  0  0  0  3  0  0  0  0  0  0
  183.7320  178.4070  141.4200 C   0  0  0  0  0  3  0  0  0  0  0  0
  180.0790  179.1130  141.8090 C   0  0  2  0  0  3  0  0  0  0  0  0
  180.6610  179.4000  143.2030 C   0  0  0  0  0  2  0  0  0  0  0  0
  182.1020  179.1110  143.0480 C   0  0  0  0  0  0  0  0  0  0  0  0
  181.2310  178.6720  140.8920 C   0  0  1  0  0  3  0  0  0  0  0  0
  182.4170  178.7110  141.7760 C   0  0  0  0  0  0  0  0  0  0  0  0
  181.0060  177.3650  140.4610 O   0  0  0  0  0  1  0  0  0  0  0  0
  184.7480  178.5080  142.3920 C   0  0  0  0  0  0  0  0  0  0  0  0
  184.4070  178.9190  143.7010 C   0  0  0  0  0  3  0  0  0  0  0  0
  179.4130  180.3320  141.2610 C   0  0  0  0  0  0  0  0  0  0  0  0
  179.2840  181.3510  141.9870 O   0  0  0  0  0  1  0  0  0  0  0  0
  178.9330  180.3490  139.9560 O   0  0  0  0  0  0  0  0  0  0  0  0
  191.7110  176.9980  147.6190 C   0  0  0  0  0  2  0  0  0  0  0  0
  192.5200  175.7700  147.9920 C   0  0  0  0  0  2  0  0  0  0  0  0
  193.3800  176.0790  149.1990 C   0  0  0  0  0  1  0  0  0  0  0  0
  1  5  1  0  0  0  0
  1 18  1  0  0  0  0
  2 13  1  0  0  0  0
  3 16  1  0  0  0  0
  4  9  1  0  0  0  0
  6  4  2  0  0  0  0
  6 11  1  0  0  0  0
  7  8  2  0  0  0  0
  7 12  1  0  0  0  0
  8  6  1  0  0  0  0
  9 27  1  0  0  0  0
  9  5  2  0  0  0  0
 10 11  1  0  0  0  0
 10  3  1  0  0  0  0
 11  1  2  0  0  0  0
 12 10  2  0  0  0  0
 13 14  1  0  0  0  0
 14 15  1  0  0  0  0
 14 32  1  1  0  0  0
 16 18  1  0  0  0  0
 16  2  1  6  0  0  0
 17 15  1  0  0  0  0
 18 17  1  1  0  0  0
 20 25  2  0  0  0  0
 20 27  1  0  0  0  0
 21 29  1  6  0  0  0
 21 22  1  0  0  0  0
 23 22  1  0  0  0  0
 23 19  2  0  0  0  0
 24 26  1  1  0  0  0
 24 25  1  0  0  0  0
 24 21  1  0  0  0  0
 25 23  1  0  0  0  0
 27 28  2  0  0  0  0
 28 19  1  0  0  0  0
 29 30  1  0  0  0  0
 31 29  2  0  0  0  0
 32 33  1  0  0  0  0
 33 34  1  0  0  0  0
M  END
>  <MODEL>
4

>  <REMARK>
 VINA RESULT:      -9.7      1.576      5.501
  Name = 
  4 active torsions:
  status: ('A' for Active; 'I' for Inactive)
    1  A    between atoms: C_3  and  C_13
    2  A    between atoms: C_3  and  C_25
    3  A    between atoms: C_7  and  C_11
    4  A    between atoms: C_18  and  C_30
                            x       y       z     vdW  Elec       q    Type
                         _______ _______ _______ _____ _____    ______ ____

>  <TORSDO>
F 4

$$$$
=
 OpenBabel11052415543D

 34 39  0  0  1  0  0  0  0  0999 V2000
  190.0310  177.5300  140.0140 C   0  0  0  0  0  0  0  0  0  0  0  0
  188.2760  176.8540  142.7470 C   0  0  0  0  0  2  0  0  0  0  0  0
  187.6980  178.6010  141.1660 O   0  0  0  0  0  0  0  0  0  0  0  0
  189.9610  176.6230  137.3490 C   0  0  0  0  0  3  0  0  0  0  0  0
  191.1800  177.0040  139.4030 C   0  0  0  0  0  3  0  0  0  0  0  0
  188.8130  177.1680  137.9260 C   0  0  0  0  0  0  0  0  0  0  0  0
  186.5010  177.8640  137.7450 C   0  0  0  0  0  3  0  0  0  0  0  0
  187.6410  177.2910  137.1750 C   0  0  0  0  0  3  0  0  0  0  0  0
  191.1550  176.5310  138.0800 C   0  0  0  0  0  0  0  0  0  0  0  0
  187.6870  178.1760  139.8350 C   0  0  0  0  0  0  0  0  0  0  0  0
  188.8440  177.6190  139.2650 C   0  0  0  0  0  0  0  0  0  0  0  0
  186.5250  178.3070  139.0710 C   0  0  0  0  0  3  0  0  0  0  0  0
  189.1510  176.4210  143.9340 C   0  0  0  0  0  2  0  0  0  0  0  0
  189.9520  177.5750  144.5440 C   0  0  2  0  0  3  0  0  0  0  0  0
  191.2070  177.9350  143.7260 C   0  0  0  0  0  2  0  0  0  0  0  0
  188.7050  178.1720  142.0820 C   0  0  2  0  0  3  0  0  0  0  0  0
  191.1810  177.4500  142.2720 C   0  0  0  0  0  2  0  0  0  0  0  0
  190.0990  178.1210  141.4090 C   0  0  1  0  0  3  0  0  0  0  0  0
  193.6370  175.3220  135.4630 C   0  0  0  0  0  3  0  0  0  0  0  0
  193.4430  175.5140  138.2660 C   0  0  0  0  0  3  0  0  0  0  0  0
  196.6990  174.0320  137.1730 C   0  0  2  0  0  3  0  0  0  0  0  0
  195.9610  174.3130  135.8540 C   0  0  0  0  0  2  0  0  0  0  0  0
  194.6720  174.8890  136.2900 C   0  0  0  0  0  0  0  0  0  0  0  0
  195.7930  174.4750  138.3320 C   0  0  1  0  0  3  0  0  0  0  0  0
  194.5780  174.9790  137.6540 C   0  0  0  0  0  0  0  0  0  0  0  0
  195.4700  173.3670  139.1170 O   0  0  0  0  0  1  0  0  0  0  0  0
  192.3750  175.9600  137.4620 C   0  0  0  0  0  0  0  0  0  0  0  0
  192.4850  175.8580  136.0570 C   0  0  0  0  0  3  0  0  0  0  0  0
  197.9960  174.7710  137.2120 C   0  0  0  0  0  0  0  0  0  0  0  0
  198.3460  175.3580  138.2680 O   0  0  0  0  0  1  0  0  0  0  0  0
  198.8170  174.8170  136.0910 O   0  0  0  0  0  0  0  0  0  0  0  0
  190.3420  177.2220  145.9680 C   0  0  0  0  0  2  0  0  0  0  0  0
  191.6530  176.4600  145.9850 C   0  0  0  0  0  2  0  0  0  0  0  0
  191.9710  176.0340  147.4020 C   0  0  0  0  0  1  0  0  0  0  0  0
  1 18  1  0  0  0  0
  2 13  1  0  0  0  0
  3 16  1  0  0  0  0
  4  6  2  0  0  0  0
  4  9  1  0  0  0  0
  5  1  1  0  0  0  0
  6 11  1  0  0  0  0
  7 12  1  0  0  0  0
  8  7  2  0  0  0  0
  8  6  1  0  0  0  0
  9  5  2  0  0  0  0
 10  3  1  0  0  0  0
 11 10  1  0  0  0  0
 11  1  2  0  0  0  0
 12 10  2  0  0  0  0
 13 14  1  0  0  0  0
 14 32  1  1  0  0  0
 15 14  1  0  0  0  0
 16  2  1  6  0  0  0
 17 15  1  0  0  0  0
 18 16  1  0  0  0  0
 18 17  1  1  0  0  0
 19 28  2  0  0  0  0
 19 23  1  0  0  0  0
 21 29  1  6  0  0  0
 21 24  1  0  0  0  0
 22 23  1  0  0  0  0
 22 21  1  0  0  0  0
 23 25  2  0  0  0  0
 24 26  1  1  0  0  0
 25 20  1  0  0  0  0
 25 24  1  0  0  0  0
 27  9  1  0  0  0  0
 27 20  2  0  0  0  0
 28 27  1  0  0  0  0
 29 30  1  0  0  0  0
 31 29  2  0  0  0  0
 32 33  1  0  0  0  0
 33 34  1  0  0  0  0
M  END
>  <MODEL>
5

>  <REMARK>
 VINA RESULT:      -9.4      3.918     10.947
  Name = 
  4 active torsions:
  status: ('A' for Active; 'I' for Inactive)
    1  A    between atoms: C_3  and  C_13
    2  A    between atoms: C_3  and  C_25
    3  A    between atoms: C_7  and  C_11
    4  A    between atoms: C_18  and  C_30
                            x       y       z     vdW  Elec       q    Type
                         _______ _______ _______ _____ _____    ______ ____

>  <TORSDO>
F 4

$$$$
=
 OpenBabel11052415543D

 34 39  0  0  1  0  0  0  0  0999 V2000
  185.7410  178.3980  140.5220 C   0  0  0  0  0  0  0  0  0  0  0  0
  183.3060  176.9840  138.7690 C   0  0  0  0  0  2  0  0  0  0  0  0
  184.7000  178.7860  137.9370 O   0  0  0  0  0  0  0  0  0  0  0  0
  188.4950  177.8970  140.8360 C   0  0  0  0  0  3  0  0  0  0  0  0
  186.2980  178.2150  141.7970 C   0  0  0  0  0  3  0  0  0  0  0  0
  187.9700  178.1040  139.5600 C   0  0  0  0  0  0  0  0  0  0  0  0
  188.2880  178.3270  137.1700 C   0  0  0  0  0  3  0  0  0  0  0  0
  188.8110  178.0910  138.4450 C   0  0  0  0  0  3  0  0  0  0  0  0
  187.6660  177.9470  141.9680 C   0  0  0  0  0  0  0  0  0  0  0  0
  186.0680  178.5670  138.1120 C   0  0  0  0  0  0  0  0  0  0  0  0
  186.5870  178.3500  139.3980 C   0  0  0  0  0  0  0  0  0  0  0  0
  186.9210  178.5680  137.0050 C   0  0  0  0  0  3  0  0  0  0  0  0
  182.1030  176.5710  139.6330 C   0  0  0  0  0  2  0  0  0  0  0  0
  181.2740  177.7630  140.1180 C   0  0  2  0  0  3  0  0  0  0  0  0
  181.9100  178.4890  141.3190 C   0  0  0  0  0  2  0  0  0  0  0  0
  183.7510  178.4440  138.9460 C   0  0  2  0  0  3  0  0  0  0  0  0
  183.4100  178.2270  141.5000 C   0  0  0  0  0  2  0  0  0  0  0  0
  184.2830  178.7800  140.3620 C   0  0  1  0  0  3  0  0  0  0  0  0
  187.9000  177.4230  145.7290 C   0  0  0  0  0  3  0  0  0  0  0  0
  189.6220  177.6380  143.5110 C   0  0  0  0  0  3  0  0  0  0  0  0
  191.4920  177.0950  146.7060 C   0  0  2  0  0  3  0  0  0  0  0  0
  190.0170  177.1100  147.1390 C   0  0  0  0  0  2  0  0  0  0  0  0
  189.2830  177.3350  145.8770 C   0  0  0  0  0  0  0  0  0  0  0  0
  191.5450  177.3050  145.1840 C   0  0  1  0  0  3  0  0  0  0  0  0
  190.1220  177.4420  144.8000 C   0  0  0  0  0  0  0  0  0  0  0  0
  192.2250  178.4900  144.9040 O   0  0  0  0  0  1  0  0  0  0  0  0
  188.2290  177.7360  143.3220 C   0  0  0  0  0  0  0  0  0  0  0  0
  187.3760  177.6270  144.4440 C   0  0  0  0  0  3  0  0  0  0  0  0
  192.1310  175.7980  147.0760 C   0  0  0  0  0  0  0  0  0  0  0  0
  192.4970  175.6000  148.2630 O   0  0  0  0  0  1  0  0  0  0  0  0
  192.3250  174.8070  146.1200 O   0  0  0  0  0  0  0  0  0  0  0  0
  179.8750  177.2930  140.4750 C   0  0  0  0  0  2  0  0  0  0  0  0
  179.6180  175.9120  139.9040 C   0  0  0  0  0  2  0  0  0  0  0  0
  179.0800  175.0070  140.9920 C   0  0  0  0  0  1  0  0  0  0  0  0
  1  5  1  0  0  0  0
  2 13  1  0  0  0  0
  3 10  1  0  0  0  0
  3 16  1  0  0  0  0
  4  9  1  0  0  0  0
  5  9  2  0  0  0  0
  6  4  2  0  0  0  0
  7  8  2  0  0  0  0
  8  6  1  0  0  0  0
  9 27  1  0  0  0  0
 10 11  1  0  0  0  0
 11  6  1  0  0  0  0
 11  1  2  0  0  0  0
 12  7  1  0  0  0  0
 12 10  2  0  0  0  0
 13 14  1  0  0  0  0
 14 32  1  1  0  0  0
 14 15  1  0  0  0  0
 15 17  1  0  0  0  0
 16  2  1  1  0  0  0
 16 18  1  0  0  0  0
 18  1  1  0  0  0  0
 18 17  1  1  0  0  0
 19 23  1  0  0  0  0
 20 25  1  0  0  0  0
 21 29  1  6  0  0  0
 21 22  1  0  0  0  0
 23 22  1  0  0  0  0
 24 26  1  1  0  0  0
 24 21  1  0  0  0  0
 25 24  1  0  0  0  0
 25 23  2  0  0  0  0
 27 20  2  0  0  0  0
 27 28  1  0  0  0  0
 28 19  2  0  0  0  0
 29 30  1  0  0  0  0
 31 29  2  0  0  0  0
 33 32  1  0  0  0  0
 33 34  1  0  0  0  0
M  END
>  <MODEL>
6

>  <REMARK>
 VINA RESULT:      -9.4      2.662      8.314
  Name = 
  4 active torsions:
  status: ('A' for Active; 'I' for Inactive)
    1  A    between atoms: C_3  and  C_13
    2  A    between atoms: C_3  and  C_25
    3  A    between atoms: C_7  and  C_11
    4  A    between atoms: C_18  and  C_30
                            x       y       z     vdW  Elec       q    Type
                         _______ _______ _______ _____ _____    ______ ____

>  <TORSDO>
F 4

$$$$
=
 OpenBabel11052415543D

 34 39  0  0  1  0  0  0  0  0999 V2000
  188.2810  178.0960  140.3450 C   0  0  0  0  0  0  0  0  0  0  0  0
  186.9730  177.2770  143.2810 C   0  0  0  0  0  2  0  0  0  0  0  0
  186.1930  179.1280  141.9230 O   0  0  0  0  0  0  0  0  0  0  0  0
  187.7580  177.3600  137.6770 C   0  0  0  0  0  3  0  0  0  0  0  0
  189.3030  177.5910  139.5240 C   0  0  0  0  0  3  0  0  0  0  0  0
  186.7330  177.8850  138.4650 C   0  0  0  0  0  0  0  0  0  0  0  0
  184.4410  178.6270  138.7040 C   0  0  0  0  0  3  0  0  0  0  0  0
  185.4590  178.0740  137.9230 C   0  0  0  0  0  3  0  0  0  0  0  0
  189.0520  177.2030  138.1980 C   0  0  0  0  0  0  0  0  0  0  0  0
  185.9570  178.7880  140.5880 C   0  0  0  0  0  0  0  0  0  0  0  0
  186.9910  178.2500  139.8060 C   0  0  0  0  0  0  0  0  0  0  0  0
  184.6900  178.9860  140.0320 C   0  0  0  0  0  3  0  0  0  0  0  0
  188.0170  176.7570  144.2830 C   0  0  0  0  0  2  0  0  0  0  0  0
  188.9350  177.8570  144.8220 C   0  0  2  0  0  3  0  0  0  0  0  0
  190.0500  178.2480  143.8340 C   0  0  0  0  0  2  0  0  0  0  0  0
  187.3230  178.6270  142.6360 C   0  0  2  0  0  3  0  0  0  0  0  0
  189.7770  177.8560  142.3770 C   0  0  0  0  0  2  0  0  0  0  0  0
  188.5880  178.5970  141.7430 C   0  0  1  0  0  3  0  0  0  0  0  0
  190.8730  175.5080  135.3190 C   0  0  0  0  0  3  0  0  0  0  0  0
  191.4850  176.7500  137.7720 C   0  0  0  0  0  3  0  0  0  0  0  0
  194.5480  175.5390  135.9980 C   0  0  2  0  0  3  0  0  0  0  0  0
  193.3970  175.1480  135.0560 C   0  0  0  0  0  2  0  0  0  0  0  0
  192.1890  175.6200  135.7650 C   0  0  0  0  0  0  0  0  0  0  0  0
  193.9440  176.2390  137.2260 C   0  0  1  0  0  3  0  0  0  0  0  0
  192.4880  176.2200  136.9590 C   0  0  0  0  0  0  0  0  0  0  0  0
  194.2240  175.4910  138.3700 O   0  0  0  0  0  1  0  0  0  0  0  0
  190.1410  176.6540  137.3570 C   0  0  0  0  0  0  0  0  0  0  0  0
  189.8480  176.0280  136.1240 C   0  0  0  0  0  3  0  0  0  0  0  0
  195.5080  176.4440  135.3000 C   0  0  0  0  0  0  0  0  0  0  0  0
  196.4730  175.9550  134.6590 O   0  0  0  0  0  0  0  0  0  0  0  0
  195.3440  177.8240  135.3540 O   0  0  0  0  0  1  0  0  0  0  0  0
  189.5400  177.4090  146.1400 C   0  0  0  0  0  2  0  0  0  0  0  0
  188.4930  177.4280  147.2380 C   0  0  0  0  0  2  0  0  0  0  0  0
  189.0220  178.2010  148.4270 C   0  0  0  0  0  1  0  0  0  0  0  0
  1 18  1  0  0  0  0
  2 13  1  0  0  0  0
  3 16  1  0  0  0  0
  4  9  2  0  0  0  0
  4  6  1  0  0  0  0
  5  1  2  0  0  0  0
  6 11  1  0  0  0  0
  7 12  2  0  0  0  0
  8  6  2  0  0  0  0
  8  7  1  0  0  0  0
  9  5  1  0  0  0  0
 10  3  1  0  0  0  0
 11  1  1  0  0  0  0
 11 10  2  0  0  0  0
 12 10  1  0  0  0  0
 13 14  1  0  0  0  0
 14 32  1  1  0  0  0
 15 14  1  0  0  0  0
 16  2  1  6  0  0  0
 17 15  1  0  0  0  0
 18 17  1  1  0  0  0
 18 16  1  0  0  0  0
 19 23  2  0  0  0  0
 19 28  1  0  0  0  0
 21 29  1  6  0  0  0
 21 24  1  0  0  0  0
 22 23  1  0  0  0  0
 22 21  1  0  0  0  0
 23 25  1  0  0  0  0
 24 26  1  1  0  0  0
 25 24  1  0  0  0  0
 25 20  2  0  0  0  0
 27 20  1  0  0  0  0
 27  9  1  0  0  0  0
 28 27  2  0  0  0  0
 29 31  1  0  0  0  0
 30 29  2  0  0  0  0
 32 33  1  0  0  0  0
 33 34  1  0  0  0  0
M  END
>  <MODEL>
7

>  <REMARK>
 VINA RESULT:      -9.1      3.164     10.074
  Name = 
  4 active torsions:
  status: ('A' for Active; 'I' for Inactive)
    1  A    between atoms: C_3  and  C_13
    2  A    between atoms: C_3  and  C_25
    3  A    between atoms: C_7  and  C_11
    4  A    between atoms: C_18  and  C_30
                            x       y       z     vdW  Elec       q    Type
                         _______ _______ _______ _____ _____    ______ ____

>  <TORSDO>
F 4

$$$$
=
 OpenBabel11052415543D

 34 39  0  0  1  0  0  0  0  0999 V2000
  189.4390  177.4370  140.2410 C   0  0  0  0  0  0  0  0  0  0  0  0
  187.4880  177.1430  142.9080 C   0  0  0  0  0  2  0  0  0  0  0  0
  187.1500  178.7910  141.1610 O   0  0  0  0  0  0  0  0  0  0  0  0
  189.4320  176.3180  137.6570 C   0  0  0  0  0  3  0  0  0  0  0  0
  190.5690  176.7680  139.7440 C   0  0  0  0  0  3  0  0  0  0  0  0
  188.3080  177.0030  138.1180 C   0  0  0  0  0  0  0  0  0  0  0  0
  186.0780  177.8690  137.7430 C   0  0  0  0  0  3  0  0  0  0  0  0
  187.1930  177.1580  137.2900 C   0  0  0  0  0  3  0  0  0  0  0  0
  190.5730  176.1900  138.4650 C   0  0  0  0  0  0  0  0  0  0  0  0
  187.1740  178.2580  139.8700 C   0  0  0  0  0  0  0  0  0  0  0  0
  188.3060  177.5610  139.4170 C   0  0  0  0  0  0  0  0  0  0  0  0
  186.0700  178.4200  139.0280 C   0  0  0  0  0  3  0  0  0  0  0  0
  188.2570  176.7410  144.1770 C   0  0  0  0  0  2  0  0  0  0  0  0
  189.1220  177.8720  144.7400 C   0  0  2  0  0  3  0  0  0  0  0  0
  190.4450  178.0560  143.9730 C   0  0  0  0  0  2  0  0  0  0  0  0
  188.0650  178.3590  142.1670 C   0  0  2  0  0  3  0  0  0  0  0  0
  190.4550  177.4540  142.5630 C   0  0  0  0  0  2  0  0  0  0  0  0
  189.4840  178.1370  141.5860 C   0  0  1  0  0  3  0  0  0  0  0  0
  194.2010  175.3190  137.7180 C   0  0  0  0  0  3  0  0  0  0  0  0
  191.6340  174.2470  137.2790 C   0  0  0  0  0  3  0  0  0  0  0  0
  194.3340  172.0760  135.8660 C   0  0  2  0  0  3  0  0  0  0  0  0
  195.0970  173.2550  136.4910 C   0  0  0  0  0  2  0  0  0  0  0  0
  194.0280  174.1150  137.0390 C   0  0  0  0  0  0  0  0  0  0  0  0
  192.8310  172.3060  136.0940 C   0  0  1  0  0  3  0  0  0  0  0  0
  192.7800  173.5940  136.8210 C   0  0  0  0  0  0  0  0  0  0  0  0
  192.1910  172.4340  134.8610 O   0  0  0  0  0  1  0  0  0  0  0  0
  191.7700  175.4700  137.9680 C   0  0  0  0  0  0  0  0  0  0  0  0
  193.0630  175.9970  138.1820 C   0  0  0  0  0  3  0  0  0  0  0  0
  194.7650  170.7890  136.4880 C   0  0  0  0  0  0  0  0  0  0  0  0
  195.9340  170.6760  136.9390 O   0  0  0  0  0  1  0  0  0  0  0  0
  193.8860  169.7150  136.5710 O   0  0  0  0  0  0  0  0  0  0  0  0
  189.4030  177.6090  146.2080 C   0  0  0  0  0  2  0  0  0  0  0  0
  188.1040  177.5040  146.9860 C   0  0  0  0  0  2  0  0  0  0  0  0
  188.3480  177.8850  148.4300 C   0  0  0  0  0  1  0  0  0  0  0  0
  1 18  1  0  0  0  0
  2 13  1  0  0  0  0
  3 16  1  0  0  0  0
  4  6  2  0  0  0  0
  4  9  1  0  0  0  0
  5  1  1  0  0  0  0
  6 11  1  0  0  0  0
  7 12  1  0  0  0  0
  8  7  2  0  0  0  0
  8  6  1  0  0  0  0
  9  5  2  0  0  0  0
 10  3  1  0  0  0  0
 11 10  1  0  0  0  0
 11  1  2  0  0  0  0
 12 10  2  0  0  0  0
 13 14  1  0  0  0  0
 14 32  1  1  0  0  0
 15 14  1  0  0  0  0
 16  2  1  6  0  0  0
 17 15  1  0  0  0  0
 18 16  1  0  0  0  0
 18 17  1  1  0  0  0
 19 28  1  0  0  0  0
 20 27  1  0  0  0  0
 21 24  1  0  0  0  0
 21 29  1  1  0  0  0
 21 22  1  0  0  0  0
 22 23  1  0  0  0  0
 23 19  2  0  0  0  0
 24 26  1  6  0  0  0
 24 25  1  0  0  0  0
 25 23  1  0  0  0  0
 25 20  2  0  0  0  0
 27 28  2  0  0  0  0
 27  9  1  0  0  0  0
 29 31  2  0  0  0  0
 29 30  1  0  0  0  0
 32 33  1  0  0  0  0
 33 34  1  0  0  0  0
M  END
>  <MODEL>
8

>  <REMARK>
 VINA RESULT:      -8.7      3.993     10.525
  Name = 
  4 active torsions:
  status: ('A' for Active; 'I' for Inactive)
    1  A    between atoms: C_3  and  C_13
    2  A    between atoms: C_3  and  C_25
    3  A    between atoms: C_7  and  C_11
    4  A    between atoms: C_18  and  C_30
                            x       y       z     vdW  Elec       q    Type
                         _______ _______ _______ _____ _____    ______ ____

>  <TORSDO>
F 4

$$$$
=
 OpenBabel11052415543D

 34 39  0  0  1  0  0  0  0  0999 V2000
  188.2990  177.3740  141.7360 C   0  0  0  0  0  0  0  0  0  0  0  0
  190.7830  178.2150  143.7670 C   0  0  0  0  0  2  0  0  0  0  0  0
  190.9780  176.5570  142.0080 O   0  0  0  0  0  0  0  0  0  0  0  0
  187.3900  178.3060  139.2380 C   0  0  0  0  0  3  0  0  0  0  0  0
  186.9660  177.7750  141.5600 C   0  0  0  0  0  3  0  0  0  0  0  0
  188.7130  177.8850  139.3810 C   0  0  0  0  0  0  0  0  0  0  0  0
  190.8920  177.4510  138.4200 C   0  0  0  0  0  3  0  0  0  0  0  0
  189.5760  177.8990  138.2820 C   0  0  0  0  0  3  0  0  0  0  0  0
  186.5030  178.2590  140.3250 C   0  0  0  0  0  0  0  0  0  0  0  0
  190.5040  176.9920  140.7680 C   0  0  0  0  0  0  0  0  0  0  0  0
  189.1740  177.4230  140.6350 C   0  0  0  0  0  0  0  0  0  0  0  0
  191.3540  176.9950  139.6590 C   0  0  0  0  0  3  0  0  0  0  0  0
  190.3120  178.5390  145.1940 C   0  0  0  0  0  2  0  0  0  0  0  0
  189.8800  177.2990  145.9810 C   0  0  2  0  0  3  0  0  0  0  0  0
  188.4690  176.8100  145.6060 C   0  0  0  0  0  2  0  0  0  0  0  0
  190.2940  176.8640  143.2220 C   0  0  2  0  0  3  0  0  0  0  0  0
  187.9620  177.3070  144.2470 C   0  0  0  0  0  2  0  0  0  0  0  0
  188.7580  176.7670  143.0470 C   0  0  1  0  0  3  0  0  0  0  0  0
  183.3520  179.7860  138.8380 C   0  0  0  0  0  3  0  0  0  0  0  0
  184.1510  178.4450  141.1820 C   0  0  0  0  0  3  0  0  0  0  0  0
  180.5170  179.3350  141.2310 C   0  0  2  0  0  3  0  0  0  0  0  0
  181.0090  179.8660  139.8750 C   0  0  0  0  0  2  0  0  0  0  0  0
  182.4460  179.5210  139.8630 C   0  0  0  0  0  0  0  0  0  0  0  0
  181.7100  178.6870  141.9520 C   0  0  1  0  0  3  0  0  0  0  0  0
  182.8330  178.8730  141.0060 C   0  0  0  0  0  0  0  0  0  0  0  0
  181.9700  179.3810  143.1340 O   0  0  0  0  0  1  0  0  0  0  0  0
  185.0960  178.6970  140.1680 C   0  0  0  0  0  0  0  0  0  0  0  0
  184.6820  179.3710  138.9960 C   0  0  0  0  0  3  0  0  0  0  0  0
  179.4230  178.3390  141.0350 C   0  0  0  0  0  0  0  0  0  0  0  0
  178.9310  178.1720  139.8900 O   0  0  0  0  0  0  0  0  0  0  0  0
  178.9430  177.5960  142.1080 O   0  0  0  0  0  1  0  0  0  0  0  0
  189.9510  177.5950  147.4680 C   0  0  0  0  0  2  0  0  0  0  0  0
  188.6600  177.1860  148.1520 C   0  0  0  0  0  2  0  0  0  0  0  0
  187.9610  178.4170  148.6880 C   0  0  0  0  0  1  0  0  0  0  0  0
  1 18  1  0  0  0  0
  2 13  1  0  0  0  0
  3 16  1  0  0  0  0
  4  6  2  0  0  0  0
  4  9  1  0  0  0  0
  5  1  1  0  0  0  0
  6 11  1  0  0  0  0
  7 12  1  0  0  0  0
  8  7  2  0  0  0  0
  8  6  1  0  0  0  0
  9  5  2  0  0  0  0
 10  3  1  0  0  0  0
 11 10  1  0  0  0  0
 11  1  2  0  0  0  0
 12 10  2  0  0  0  0
 13 14  1  0  0  0  0
 14 32  1  1  0  0  0
 15 14  1  0  0  0  0
 16  2  1  6  0  0  0
 17 15  1  0  0  0  0
 18 16  1  0  0  0  0
 18 17  1  1  0  0  0
 19 28  2  0  0  0  0
 19 23  1  0  0  0  0
 21 29  1  6  0  0  0
 21 24  1  0  0  0  0
 22 21  1  0  0  0  0
 23 22  1  0  0  0  0
 23 25  2  0  0  0  0
 24 26  1  1  0  0  0
 25 20  1  0  0  0  0
 25 24  1  0  0  0  0
 27  9  1  0  0  0  0
 27 20  2  0  0  0  0
 28 27  1  0  0  0  0
 29 31  1  0  0  0  0
 30 29  2  0  0  0  0
 32 33  1  0  0  0  0
 33 34  1  0  0  0  0
M  END
>  <MODEL>
9

>  <REMARK>
 VINA RESULT:      -8.6      1.916      5.668
  Name = 
  4 active torsions:
  status: ('A' for Active; 'I' for Inactive)
    1  A    between atoms: C_3  and  C_13
    2  A    between atoms: C_3  and  C_25
    3  A    between atoms: C_7  and  C_11
    4  A    between atoms: C_18  and  C_30
                            x       y       z     vdW  Elec       q    Type
                         _______ _______ _______ _____ _____    ______ ____

>  <TORSDO>
F 4

$$$$
