=
 OpenBabel11052413513D

 27 32  0  0  1  0  0  0  0  0999 V2000
  186.3900  178.0510  142.1470 C   0  0  2  0  0  3  0  0  0  0  0  0
  184.9590  177.9530  141.8000 N   0  0  2  0  0  0  0  0  0  0  0  0
  185.0420  179.0350  143.8430 C   0  0  2  0  0  0  0  0  0  0  0  0
  180.8950  178.1860  141.3440 N   0  0  0  0  0  0  0  0  0  0  0  0
  178.9330  178.9370  142.6970 C   0  0  0  0  0  1  0  0  0  0  0  0
  184.5880  178.0300  140.3850 C   0  0  0  0  0  2  0  0  0  0  0  0
  181.5970  179.3370  143.4880 S   0  0  0  0  0  0  0  0  0  0  0  0
  186.4220  177.7150  145.9740 C   0  0  0  0  0  0  0  0  0  0  0  0
  184.9220  180.3020  144.6520 C   0  0  0  0  0  2  0  0  0  0  0  0
  187.2980  177.2570  147.0930 C   0  0  0  0  0  1  0  0  0  0  0  0
  182.8230  178.7380  142.5050 C   0  0  0  0  0  0  0  0  0  0  0  0
  180.3890  178.7730  142.4530 C   0  0  0  0  0  0  0  0  0  0  0  0
  182.2530  178.1910  141.3610 C   0  0  0  0  0  0  0  0  0  0  0  0
  186.4560  178.5280  143.6090 C   0  0  1  0  0  3  0  0  0  0  0  0
  184.2900  179.0110  142.5410 C   0  0  2  0  0  3  0  0  0  0  0  0
  185.3420  178.4570  146.2680 C   0  0  0  0  0  3  0  0  0  0  0  0
  183.0980  177.6410  140.2330 C   0  0  0  0  0  2  0  0  0  0  0  0
  188.0630  176.9420  144.4050 O   0  0  0  0  0  1  0  0  0  0  0  0
  186.7330  177.3480  144.5400 C   0  0  1  0  0  3  0  0  0  0  0  0
  184.3890  178.9810  145.2200 C   0  0  2  0  0  3  0  0  0  0  0  0
  187.2160  178.9450  141.2010 C   0  0  0  0  0  2  0  0  0  0  0  0
  190.5940  176.6900  139.8400 C   0  0  0  0  0  2  0  0  0  0  0  0
  188.6040  178.4010  140.8860 C   0  0  2  0  0  3  0  0  0  0  0  0
  188.8480  178.4640  139.3700 C   0  0  0  0  0  2  0  0  0  0  0  0
  189.5380  177.1990  138.8550 C   0  0  0  0  0  2  0  0  0  0  0  0
  190.1040  176.7770  141.2950 C   0  0  0  0  0  2  0  0  0  0  0  0
  188.7320  177.0840  141.3640 O   0  0  0  0  0  0  0  0  0  0  0  0
  1 21  1  6  0  0  0
  1 14  1  0  0  0  0
  2  6  1  6  0  0  0
  2  1  1  0  0  0  0
  2 15  1  0  0  0  0
  3  9  1  1  0  0  0
  3 20  1  0  0  0  0
  4 13  1  0  0  0  0
  4 12  2  0  0  0  0
  8 16  2  0  0  0  0
  8 10  1  0  0  0  0
  9 20  1  0  0  0  0
 11 15  1  0  0  0  0
 11  7  1  0  0  0  0
 12  5  1  0  0  0  0
 12  7  1  0  0  0  0
 13 11  2  0  0  0  0
 14  3  1  0  0  0  0
 14 19  1  0  0  0  0
 15  3  1  0  0  0  0
 17  6  1  0  0  0  0
 17 13  1  0  0  0  0
 18 19  1  0  0  0  0
 19  8  1  0  0  0  0
 20 16  1  0  0  0  0
 22 26  1  0  0  0  0
 23 21  1  0  0  0  0
 23 27  1  0  0  0  0
 24 23  1  0  0  0  0
 25 24  1  0  0  0  0
 25 22  1  0  0  0  0
 26 27  1  0  0  0  0
M  END
>  <MODEL>
1

>  <REMARK>
 VINA RESULT:      -7.6      0.000      0.000
  Name = 
  2 active torsions:
  status: ('A' for Active; 'I' for Inactive)
    1  A    between atoms: C_1  and  C_15
    2  A    between atoms: C_9  and  C_15
                            x       y       z     vdW  Elec       q    Type
                         _______ _______ _______ _____ _____    ______ ____

>  <TORSDO>
F 2

$$$$
=
 OpenBabel11052413513D

 27 32  0  0  1  0  0  0  0  0999 V2000
  188.2070  178.3510  141.6350 C   0  0  2  0  0  3  0  0  0  0  0  0
  189.3140  178.2580  142.6060 N   0  0  2  0  0  0  0  0  0  0  0  0
  187.4630  177.3620  143.6670 C   0  0  2  0  0  0  0  0  0  0  0  0
  191.9600  177.5270  145.6470 N   0  0  0  0  0  0  0  0  0  0  0  0
  191.8740  176.6710  147.9920 C   0  0  0  0  0  1  0  0  0  0  0  0
  190.6640  178.0230  142.0890 C   0  0  0  0  0  2  0  0  0  0  0  0
  189.6660  176.6420  146.2580 S   0  0  0  0  0  0  0  0  0  0  0  0
  185.1220  179.0000  143.8320 C   0  0  0  0  0  0  0  0  0  0  0  0
  186.7060  176.1600  144.1730 C   0  0  0  0  0  2  0  0  0  0  0  0
  183.7760  179.6450  143.7840 C   0  0  0  0  0  1  0  0  0  0  0  0
  189.8490  177.2940  144.7190 C   0  0  0  0  0  0  0  0  0  0  0  0
  191.2670  176.9790  146.6720 C   0  0  0  0  0  0  0  0  0  0  0  0
  191.1750  177.6780  144.5490 C   0  0  0  0  0  0  0  0  0  0  0  0
  186.9180  178.0060  142.4020 C   0  0  1  0  0  3  0  0  0  0  0  0
  188.9510  177.1940  143.5310 C   0  0  2  0  0  3  0  0  0  0  0  0
  185.3990  178.1670  144.8480 C   0  0  0  0  0  3  0  0  0  0  0  0
  191.6850  178.2270  143.2340 C   0  0  0  0  0  2  0  0  0  0  0  0
  185.5690  179.8240  141.6240 O   0  0  0  0  0  1  0  0  0  0  0  0
  186.1600  179.2820  142.7670 C   0  0  1  0  0  3  0  0  0  0  0  0
  186.7220  177.4540  144.9960 C   0  0  2  0  0  3  0  0  0  0  0  0
  188.3880  177.4820  140.3740 C   0  0  0  0  0  2  0  0  0  0  0  0
  187.5700  178.6640  136.3390 C   0  0  0  0  0  2  0  0  0  0  0  0
  188.1680  178.2320  139.0660 C   0  0  2  0  0  3  0  0  0  0  0  0
  186.6930  178.1210  138.6530 C   0  0  0  0  0  2  0  0  0  0  0  0
  186.5430  177.8690  137.1510 C   0  0  0  0  0  2  0  0  0  0  0  0
  188.9570  178.6440  137.0010 C   0  0  0  0  0  2  0  0  0  0  0  0
  189.0130  177.7220  138.0630 O   0  0  0  0  0  0  0  0  0  0  0  0
  1 21  1  6  0  0  0
  1 14  1  0  0  0  0
  1  2  1  0  0  0  0
  2  6  1  6  0  0  0
  2 15  1  0  0  0  0
  3  9  1  6  0  0  0
  3 20  1  0  0  0  0
  4 12  2  0  0  0  0
  6 17  1  0  0  0  0
  7 12  1  0  0  0  0
  8 16  2  0  0  0  0
  9 20  1  0  0  0  0
 10  8  1  0  0  0  0
 11  7  1  0  0  0  0
 12  5  1  0  0  0  0
 13 11  2  0  0  0  0
 13  4  1  0  0  0  0
 14 19  1  0  0  0  0
 14  3  1  0  0  0  0
 15  3  1  0  0  0  0
 15 11  1  0  0  0  0
 16 20  1  0  0  0  0
 17 13  1  0  0  0  0
 18 19  1  0  0  0  0
 19  8  1  0  0  0  0
 22 26  1  0  0  0  0
 22 25  1  0  0  0  0
 23 21  1  0  0  0  0
 24 23  1  0  0  0  0
 25 24  1  0  0  0  0
 26 27  1  0  0  0  0
 27 23  1  0  0  0  0
M  END
>  <MODEL>
2

>  <REMARK>
 VINA RESULT:      -7.6      3.407      6.304
  Name = 
  2 active torsions:
  status: ('A' for Active; 'I' for Inactive)
    1  A    between atoms: C_1  and  C_15
    2  A    between atoms: C_9  and  C_15
                            x       y       z     vdW  Elec       q    Type
                         _______ _______ _______ _____ _____    ______ ____

>  <TORSDO>
F 2

$$$$
=
 OpenBabel11052413513D

 27 32  0  0  1  0  0  0  0  0999 V2000
  187.9340  177.8240  143.5010 C   0  0  2  0  0  3  0  0  0  0  0  0
  188.4310  178.0000  142.1230 N   0  0  2  0  0  0  0  0  0  0  0  0
  189.7540  176.3530  143.0660 C   0  0  2  0  0  0  0  0  0  0  0  0
  190.1340  177.8510  138.4000 N   0  0  0  0  0  0  0  0  0  0  0  0
  192.0600  176.6970  137.3040 C   0  0  0  0  0  1  0  0  0  0  0  0
  187.4600  178.3470  141.0810 C   0  0  0  0  0  2  0  0  0  0  0  0
  191.1960  176.1190  139.9120 S   0  0  0  0  0  0  0  0  0  0  0  0
  191.1020  176.9900  145.5080 C   0  0  0  0  0  0  0  0  0  0  0  0
  190.1360  174.9000  143.1880 C   0  0  0  0  0  2  0  0  0  0  0  0
  191.6690  177.1040  146.8860 C   0  0  0  0  0  1  0  0  0  0  0  0
  189.9150  177.0050  140.5460 C   0  0  0  0  0  0  0  0  0  0  0  0
  191.1410  176.9490  138.4440 C   0  0  0  0  0  0  0  0  0  0  0  0
  189.4340  177.8630  139.5630 C   0  0  0  0  0  0  0  0  0  0  0  0
  188.9560  176.9290  144.2250 C   0  0  1  0  0  3  0  0  0  0  0  0
  189.1020  176.7570  141.7730 C   0  0  2  0  0  3  0  0  0  0  0  0
  191.7110  176.1780  144.6290 C   0  0  0  0  0  3  0  0  0  0  0  0
  188.2220  178.7410  139.7930 C   0  0  0  0  0  2  0  0  0  0  0  0
  189.1760  178.2270  146.2250 O   0  0  0  0  0  1  0  0  0  0  0  0
  189.8760  177.7780  145.1030 C   0  0  1  0  0  3  0  0  0  0  0  0
  191.2240  175.9800  143.2140 C   0  0  2  0  0  3  0  0  0  0  0  0
  186.4990  177.2690  143.5970 C   0  0  0  0  0  2  0  0  0  0  0  0
  182.8950  179.5450  144.0170 C   0  0  0  0  0  2  0  0  0  0  0  0
  185.4170  178.3420  143.6050 C   0  0  2  0  0  3  0  0  0  0  0  0
  185.0360  178.6750  145.0550 C   0  0  0  0  0  2  0  0  0  0  0  0
  183.5220  178.8340  145.2190 C   0  0  0  0  0  2  0  0  0  0  0  0
  183.4900  179.0490  142.6880 C   0  0  0  0  0  2  0  0  0  0  0  0
  184.2960  177.9100  142.8730 O   0  0  0  0  0  0  0  0  0  0  0  0
  1 21  1  6  0  0  0
  1 14  1  0  0  0  0
  2  6  1  6  0  0  0
  2  1  1  0  0  0  0
  3  9  1  1  0  0  0
  3 20  1  0  0  0  0
  3 14  1  0  0  0  0
  4 12  2  0  0  0  0
  4 13  1  0  0  0  0
  5 12  1  0  0  0  0
  7 11  1  0  0  0  0
  8 10  1  0  0  0  0
  9 20  1  0  0  0  0
 11 15  1  0  0  0  0
 12  7  1  0  0  0  0
 13 17  1  0  0  0  0
 13 11  2  0  0  0  0
 14 19  1  0  0  0  0
 15  2  1  0  0  0  0
 15  3  1  0  0  0  0
 16  8  2  0  0  0  0
 17  6  1  0  0  0  0
 19  8  1  0  0  0  0
 19 18  1  0  0  0  0
 20 16  1  0  0  0  0
 21 23  1  0  0  0  0
 22 25  1  0  0  0  0
 23 24  1  0  0  0  0
 24 25  1  0  0  0  0
 26 27  1  0  0  0  0
 26 22  1  0  0  0  0
 27 23  1  0  0  0  0
M  END
>  <MODEL>
3

>  <REMARK>
 VINA RESULT:      -6.8      3.307      6.992
  Name = 
  2 active torsions:
  status: ('A' for Active; 'I' for Inactive)
    1  A    between atoms: C_1  and  C_15
    2  A    between atoms: C_9  and  C_15
                            x       y       z     vdW  Elec       q    Type
                         _______ _______ _______ _____ _____    ______ ____

>  <TORSDO>
F 2

$$$$
=
 OpenBabel11052413513D

 27 32  0  0  1  0  0  0  0  0999 V2000
  187.5900  178.1120  142.6380 C   0  0  2  0  0  3  0  0  0  0  0  0
  188.0320  177.5580  143.9310 N   0  0  2  0  0  0  0  0  0  0  0  0
  189.9660  178.0560  142.7630 C   0  0  2  0  0  0  0  0  0  0  0  0
  189.8990  176.3130  147.3590 N   0  0  0  0  0  0  0  0  0  0  0  0
  192.2390  175.8960  148.1300 C   0  0  0  0  0  1  0  0  0  0  0  0
  187.2080  177.8290  145.1120 C   0  0  0  0  0  2  0  0  0  0  0  0
  191.6160  177.0850  145.6640 S   0  0  0  0  0  0  0  0  0  0  0  0
  190.2670  176.8930  140.1660 C   0  0  0  0  0  0  0  0  0  0  0  0
  191.1680  178.9410  142.5500 C   0  0  0  0  0  2  0  0  0  0  0  0
  190.4470  176.5490  138.7230 C   0  0  0  0  0  1  0  0  0  0  0  0
  189.9970  177.2640  145.2470 C   0  0  0  0  0  0  0  0  0  0  0  0
  191.2340  176.3710  147.1440 C   0  0  0  0  0  0  0  0  0  0  0  0
  189.2110  176.8360  146.3120 C   0  0  0  0  0  0  0  0  0  0  0  0
  188.8430  178.2060  141.7480 C   0  0  1  0  0  3  0  0  0  0  0  0
  189.3800  178.0620  144.1480 C   0  0  2  0  0  3  0  0  0  0  0  0
  191.3610  177.0660  140.9250 C   0  0  0  0  0  3  0  0  0  0  0  0
  187.7010  176.9460  146.2840 C   0  0  0  0  0  2  0  0  0  0  0  0
  187.9240  177.2180  139.7710 O   0  0  0  0  0  1  0  0  0  0  0  0
  188.8860  177.0360  140.7660 C   0  0  1  0  0  3  0  0  0  0  0  0
  191.3010  177.4210  142.3920 C   0  0  2  0  0  3  0  0  0  0  0  0
  186.8430  179.4560  142.7400 C   0  0  0  0  0  2  0  0  0  0  0  0
  182.6830  178.4690  142.4750 C   0  0  0  0  0  2  0  0  0  0  0  0
  185.3600  179.3700  142.4020 C   0  0  2  0  0  3  0  0  0  0  0  0
  184.5290  179.7590  143.6350 C   0  0  0  0  0  2  0  0  0  0  0  0
  183.3220  178.8360  143.8180 C   0  0  0  0  0  2  0  0  0  0  0  0
  183.7440  178.1670  141.4040 C   0  0  0  0  0  2  0  0  0  0  0  0
  185.0340  178.0750  141.9610 O   0  0  0  0  0  0  0  0  0  0  0  0
  1 21  1  1  0  0  0
  1  2  1  0  0  0  0
  2 15  1  0  0  0  0
  2  6  1  1  0  0  0
  3  9  1  6  0  0  0
  3 15  1  0  0  0  0
  6 17  1  0  0  0  0
  7 12  1  0  0  0  0
  8 19  1  0  0  0  0
  8 16  2  0  0  0  0
 10  8  1  0  0  0  0
 11  7  1  0  0  0  0
 11 13  2  0  0  0  0
 12  4  2  0  0  0  0
 12  5  1  0  0  0  0
 13  4  1  0  0  0  0
 14  1  1  0  0  0  0
 14  3  1  0  0  0  0
 15 11  1  0  0  0  0
 16 20  1  0  0  0  0
 17 13  1  0  0  0  0
 18 19  1  0  0  0  0
 19 14  1  0  0  0  0
 20  9  1  0  0  0  0
 20  3  1  0  0  0  0
 22 25  1  0  0  0  0
 23 21  1  0  0  0  0
 23 24  1  0  0  0  0
 24 25  1  0  0  0  0
 26 27  1  0  0  0  0
 26 22  1  0  0  0  0
 27 23  1  0  0  0  0
M  END
>  <MODEL>
4

>  <REMARK>
 VINA RESULT:      -6.6      3.324      7.424
  Name = 
  2 active torsions:
  status: ('A' for Active; 'I' for Inactive)
    1  A    between atoms: C_1  and  C_15
    2  A    between atoms: C_9  and  C_15
                            x       y       z     vdW  Elec       q    Type
                         _______ _______ _______ _____ _____    ______ ____

>  <TORSDO>
F 2

$$$$
=
 OpenBabel11052413513D

 27 32  0  0  1  0  0  0  0  0999 V2000
  189.7390  177.7430  145.9200 C   0  0  2  0  0  3  0  0  0  0  0  0
  188.3660  178.2800  145.9810 N   0  0  2  0  0  0  0  0  0  0  0  0
  188.4890  177.0790  144.0070 C   0  0  2  0  0  0  0  0  0  0  0  0
  184.4080  179.2780  145.6430 N   0  0  0  0  0  0  0  0  0  0  0  0
  182.5900  179.0410  143.9450 C   0  0  0  0  0  1  0  0  0  0  0  0
  187.7390  178.4150  147.2980 C   0  0  0  0  0  2  0  0  0  0  0  0
  185.1080  177.8240  143.6900 S   0  0  0  0  0  0  0  0  0  0  0  0
  190.5640  177.7840  142.1670 C   0  0  0  0  0  0  0  0  0  0  0  0
  188.1420  175.8490  143.2070 C   0  0  0  0  0  2  0  0  0  0  0  0
  191.7250  177.8860  141.2340 C   0  0  0  0  0  1  0  0  0  0  0  0
  186.2570  178.1060  144.8850 C   0  0  0  0  0  0  0  0  0  0  0  0
  183.9590  178.7880  144.4640 C   0  0  0  0  0  0  0  0  0  0  0  0
  185.6810  178.8750  145.8900 C   0  0  0  0  0  0  0  0  0  0  0  0
  189.9230  177.1660  144.5050 C   0  0  1  0  0  3  0  0  0  0  0  0
  187.5560  177.4140  145.1380 C   0  0  2  0  0  3  0  0  0  0  0  0
  189.3830  177.3720  141.6800 C   0  0  0  0  0  3  0  0  0  0  0  0
  186.4330  179.2330  147.1530 C   0  0  0  0  0  2  0  0  0  0  0  0
  192.0480  178.1520  144.0150 O   0  0  0  0  0  1  0  0  0  0  0  0
  190.7060  178.1440  143.6300 C   0  0  1  0  0  3  0  0  0  0  0  0
  188.1430  177.2250  142.5300 C   0  0  2  0  0  3  0  0  0  0  0  0
  190.0730  176.7160  147.0190 C   0  0  0  0  0  2  0  0  0  0  0  0
  193.5740  176.6010  149.4840 C   0  0  0  0  0  2  0  0  0  0  0  0
  191.4470  176.9040  147.6500 C   0  0  2  0  0  3  0  0  0  0  0  0
  192.2180  175.5750  147.6060 C   0  0  0  0  0  2  0  0  0  0  0  0
  192.9700  175.3150  148.9140 C   0  0  0  0  0  2  0  0  0  0  0  0
  192.6040  177.7890  149.3620 C   0  0  0  0  0  2  0  0  0  0  0  0
  191.3180  177.3710  148.9710 O   0  0  0  0  0  0  0  0  0  0  0  0
  1  2  1  0  0  0  0
  1 21  1  1  0  0  0
  2  6  1  1  0  0  0
  3  9  1  1  0  0  0
  3 14  1  0  0  0  0
  3 15  1  0  0  0  0
  4 13  1  0  0  0  0
  5 12  1  0  0  0  0
  7 12  1  0  0  0  0
  7 11  1  0  0  0  0
  8 19  1  0  0  0  0
 10  8  1  0  0  0  0
 11 15  1  0  0  0  0
 11 13  2  0  0  0  0
 12  4  2  0  0  0  0
 13 17  1  0  0  0  0
 14  1  1  0  0  0  0
 15  2  1  0  0  0  0
 16  8  2  0  0  0  0
 16 20  1  0  0  0  0
 17  6  1  0  0  0  0
 19 18  1  0  0  0  0
 19 14  1  0  0  0  0
 20  9  1  0  0  0  0
 20  3  1  0  0  0  0
 21 23  1  0  0  0  0
 23 27  1  0  0  0  0
 24 23  1  0  0  0  0
 24 25  1  0  0  0  0
 25 22  1  0  0  0  0
 26 22  1  0  0  0  0
 27 26  1  0  0  0  0
M  END
>  <MODEL>
5

>  <REMARK>
 VINA RESULT:      -6.6      3.530      6.428
  Name = 
  2 active torsions:
  status: ('A' for Active; 'I' for Inactive)
    1  A    between atoms: C_1  and  C_15
    2  A    between atoms: C_9  and  C_15
                            x       y       z     vdW  Elec       q    Type
                         _______ _______ _______ _____ _____    ______ ____

>  <TORSDO>
F 2

$$$$
=
 OpenBabel11052413513D

 27 32  0  0  1  0  0  0  0  0999 V2000
  190.6390  176.9890  139.6740 C   0  0  2  0  0  3  0  0  0  0  0  0
  189.4020  177.4000  138.9850 N   0  0  2  0  0  0  0  0  0  0  0  0
  190.2810  175.6690  137.7270 C   0  0  2  0  0  0  0  0  0  0  0  0
  186.0190  177.9060  136.7300 N   0  0  0  0  0  0  0  0  0  0  0  0
  185.0810  177.0080  134.5960 C   0  0  0  0  0  1  0  0  0  0  0  0
  188.2840  177.8760  139.8040 C   0  0  0  0  0  2  0  0  0  0  0  0
  187.3990  175.9910  135.8110 S   0  0  0  0  0  0  0  0  0  0  0  0
  192.9750  175.9520  136.8050 C   0  0  0  0  0  0  0  0  0  0  0  0
  190.2390  174.2280  137.2840 C   0  0  0  0  0  2  0  0  0  0  0  0
  194.4260  175.8630  136.4620 C   0  0  0  0  0  1  0  0  0  0  0  0
  187.9480  176.7200  137.2230 C   0  0  0  0  0  0  0  0  0  0  0  0
  186.0850  177.0430  135.6900 C   0  0  0  0  0  0  0  0  0  0  0  0
  187.0440  177.7080  137.5980 C   0  0  0  0  0  0  0  0  0  0  0  0
  191.3730  176.0250  138.7240 C   0  0  1  0  0  3  0  0  0  0  0  0
  188.9770  176.2520  138.1970 C   0  0  2  0  0  3  0  0  0  0  0  0
  192.0910  175.3120  136.0240 C   0  0  0  0  0  3  0  0  0  0  0  0
  187.2100  178.4970  138.8790 C   0  0  0  0  0  2  0  0  0  0  0  0
  193.5560  176.9920  138.8870 O   0  0  0  0  0  1  0  0  0  0  0  0
  192.5050  176.7530  138.0000 C   0  0  1  0  0  3  0  0  0  0  0  0
  190.6020  175.3260  136.2770 C   0  0  2  0  0  3  0  0  0  0  0  0
  190.4200  176.3780  141.0730 C   0  0  0  0  0  2  0  0  0  0  0  0
  191.5030  178.2060  144.7920 C   0  0  0  0  0  2  0  0  0  0  0  0
  191.0790  177.1590  142.2020 C   0  0  2  0  0  3  0  0  0  0  0  0
  191.5880  176.1810  143.2720 C   0  0  0  0  0  2  0  0  0  0  0  0
  191.3030  176.6910  144.6870 C   0  0  0  0  0  2  0  0  0  0  0  0
  190.9360  178.9410  143.5650 C   0  0  0  0  0  2  0  0  0  0  0  0
  190.1720  178.0820  142.7530 O   0  0  0  0  0  0  0  0  0  0  0  0
  1 21  1  1  0  0  0
  2  1  1  0  0  0  0
  2  6  1  1  0  0  0
  3  9  1  1  0  0  0
  3 15  1  0  0  0  0
  3 14  1  0  0  0  0
  4 13  1  0  0  0  0
  5 12  1  0  0  0  0
  7 11  1  0  0  0  0
  8 19  1  0  0  0  0
 10  8  1  0  0  0  0
 11 13  2  0  0  0  0
 11 15  1  0  0  0  0
 12  7  1  0  0  0  0
 12  4  2  0  0  0  0
 13 17  1  0  0  0  0
 14  1  1  0  0  0  0
 15  2  1  0  0  0  0
 16 20  1  0  0  0  0
 16  8  2  0  0  0  0
 17  6  1  0  0  0  0
 19 14  1  0  0  0  0
 19 18  1  0  0  0  0
 20  9  1  0  0  0  0
 20  3  1  0  0  0  0
 21 23  1  0  0  0  0
 23 27  1  0  0  0  0
 23 24  1  0  0  0  0
 24 25  1  0  0  0  0
 25 22  1  0  0  0  0
 26 22  1  0  0  0  0
 27 26  1  0  0  0  0
M  END
>  <MODEL>
6

>  <REMARK>
 VINA RESULT:      -6.5      5.115      7.889
  Name = 
  2 active torsions:
  status: ('A' for Active; 'I' for Inactive)
    1  A    between atoms: C_1  and  C_15
    2  A    between atoms: C_9  and  C_15
                            x       y       z     vdW  Elec       q    Type
                         _______ _______ _______ _____ _____    ______ ____

>  <TORSDO>
F 2

$$$$
=
 OpenBabel11052413513D

 27 32  0  0  1  0  0  0  0  0999 V2000
  185.0680  178.6480  142.6100 C   0  0  2  0  0  3  0  0  0  0  0  0
  186.2780  178.6520  141.7670 N   0  0  2  0  0  0  0  0  0  0  0  0
  186.8370  177.4610  143.6700 C   0  0  2  0  0  0  0  0  0  0  0  0
  189.8600  178.1230  139.8500 N   0  0  0  0  0  0  0  0  0  0  0  0
  192.0970  177.1410  140.3720 C   0  0  0  0  0  1  0  0  0  0  0  0
  186.1030  178.6290  140.3120 C   0  0  0  0  0  2  0  0  0  0  0  0
  189.8750  176.9080  142.0730 S   0  0  0  0  0  0  0  0  0  0  0  0
  186.4550  178.7590  146.1910 C   0  0  0  0  0  0  0  0  0  0  0  0
  187.1200  176.1440  144.3460 C   0  0  0  0  0  2  0  0  0  0  0  0
  186.0910  179.2200  147.5650 C   0  0  0  0  0  1  0  0  0  0  0  0
  188.4400  177.6590  141.6210 C   0  0  0  0  0  0  0  0  0  0  0  0
  190.6740  177.4340  140.6820 C   0  0  0  0  0  0  0  0  0  0  0  0
  188.6070  178.2250  140.3620 C   0  0  0  0  0  0  0  0  0  0  0  0
  185.4900  178.0930  143.9820 C   0  0  1  0  0  3  0  0  0  0  0  0
  187.0660  177.5020  142.1840 C   0  0  2  0  0  3  0  0  0  0  0  0
  187.4920  177.9180  146.0500 C   0  0  0  0  0  3  0  0  0  0  0  0
  187.4670  178.9070  139.6360 C   0  0  0  0  0  2  0  0  0  0  0  0
  184.4400  179.7520  145.3510 O   0  0  0  0  0  1  0  0  0  0  0  0
  185.6820  179.2340  144.9800 C   0  0  1  0  0  3  0  0  0  0  0  0
  187.9460  177.3830  144.7130 C   0  0  2  0  0  3  0  0  0  0  0  0
  183.8740  177.8790  142.0090 C   0  0  0  0  0  2  0  0  0  0  0  0
  179.8840  179.4280  141.8380 C   0  0  0  0  0  2  0  0  0  0  0  0
  182.6200  178.7250  141.8240 C   0  0  2  0  0  3  0  0  0  0  0  0
  181.9820  179.0020  143.1940 C   0  0  0  0  0  2  0  0  0  0  0  0
  180.4580  178.8700  143.1440 C   0  0  0  0  0  2  0  0  0  0  0  0
  180.7430  179.0340  140.6250 C   0  0  0  0  0  2  0  0  0  0  0  0
  181.7140  178.0730  140.9670 O   0  0  0  0  0  0  0  0  0  0  0  0
  1 21  1  6  0  0  0
  1 14  1  0  0  0  0
  2  6  1  6  0  0  0
  2 15  1  0  0  0  0
  2  1  1  0  0  0  0
  3 14  1  0  0  0  0
  3  9  1  1  0  0  0
  3 20  1  0  0  0  0
  4 13  1  0  0  0  0
  4 12  2  0  0  0  0
  5 12  1  0  0  0  0
  8 10  1  0  0  0  0
  9 20  1  0  0  0  0
 11  7  1  0  0  0  0
 11 15  1  0  0  0  0
 12  7  1  0  0  0  0
 13 11  2  0  0  0  0
 14 19  1  0  0  0  0
 15  3  1  0  0  0  0
 16  8  2  0  0  0  0
 17  6  1  0  0  0  0
 17 13  1  0  0  0  0
 19 18  1  0  0  0  0
 19  8  1  0  0  0  0
 20 16  1  0  0  0  0
 22 25  1  0  0  0  0
 23 21  1  0  0  0  0
 23 24  1  0  0  0  0
 25 24  1  0  0  0  0
 26 27  1  0  0  0  0
 26 22  1  0  0  0  0
 27 23  1  0  0  0  0
M  END
>  <MODEL>
7

>  <REMARK>
 VINA RESULT:      -6.5      2.792      6.478
  Name = 
  2 active torsions:
  status: ('A' for Active; 'I' for Inactive)
    1  A    between atoms: C_1  and  C_15
    2  A    between atoms: C_9  and  C_15
                            x       y       z     vdW  Elec       q    Type
                         _______ _______ _______ _____ _____    ______ ____

>  <TORSDO>
F 2

$$$$
=
 OpenBabel11052413513D

 27 32  0  0  1  0  0  0  0  0999 V2000
  183.3190  179.3620  138.8940 C   0  0  2  0  0  3  0  0  0  0  0  0
  184.0560  179.3120  140.1710 N   0  0  2  0  0  0  0  0  0  0  0  0
  181.8220  179.0640  140.7190 C   0  0  2  0  0  0  0  0  0  0  0  0
  185.4930  178.8870  143.9830 N   0  0  0  0  0  0  0  0  0  0  0  0
  184.5550  178.6730  146.2890 C   0  0  0  0  0  1  0  0  0  0  0  0
  185.3920  178.7120  140.1700 C   0  0  0  0  0  2  0  0  0  0  0  0
  182.9740  178.6200  143.9690 S   0  0  0  0  0  0  0  0  0  0  0  0
  180.0160  181.0930  139.8190 C   0  0  0  0  0  0  0  0  0  0  0  0
  180.6780  178.1870  141.1610 C   0  0  0  0  0  2  0  0  0  0  0  0
  178.9420  181.9420  139.2230 C   0  0  0  0  0  1  0  0  0  0  0  0
  183.7300  178.8230  142.4800 C   0  0  0  0  0  0  0  0  0  0  0  0
  184.4320  178.7480  144.8100 C   0  0  0  0  0  0  0  0  0  0  0  0
  185.1040  178.9020  142.6830 C   0  0  0  0  0  0  0  0  0  0  0  0
  181.8250  179.4620  139.2520 C   0  0  1  0  0  3  0  0  0  0  0  0
  183.1980  178.5970  141.1050 C   0  0  2  0  0  3  0  0  0  0  0  0
  179.7840  180.5030  141.0030 C   0  0  0  0  0  3  0  0  0  0  0  0
  186.0760  179.0030  141.5270 C   0  0  0  0  0  2  0  0  0  0  0  0
  181.2440  181.2450  137.7640 O   0  0  0  0  0  1  0  0  0  0  0  0
  181.3420  180.9050  139.1150 C   0  0  1  0  0  3  0  0  0  0  0  0
  180.7920  179.6190  141.6970 C   0  0  2  0  0  3  0  0  0  0  0  0
  183.6150  178.1890  137.9380 C   0  0  0  0  0  2  0  0  0  0  0  0
  180.9970  174.9740  136.8610 C   0  0  0  0  0  2  0  0  0  0  0  0
  182.4420  177.2360  137.7430 C   0  0  2  0  0  3  0  0  0  0  0  0
  182.7410  175.9030  138.4460 C   0  0  0  0  0  2  0  0  0  0  0  0
  182.3150  174.7060  137.5940 C   0  0  0  0  0  2  0  0  0  0  0  0
  180.9450  176.4000  136.2880 C   0  0  0  0  0  2  0  0  0  0  0  0
  182.1970  177.0400  136.3710 O   0  0  0  0  0  0  0  0  0  0  0  0
  1 21  1  6  0  0  0
  1 14  1  0  0  0  0
  1  2  1  0  0  0  0
  2  6  1  6  0  0  0
  2 15  1  0  0  0  0
  3 15  1  0  0  0  0
  3  9  1  6  0  0  0
  3 20  1  0  0  0  0
  4 12  2  0  0  0  0
  6 17  1  0  0  0  0
  7 12  1  0  0  0  0
  8 16  2  0  0  0  0
  9 20  1  0  0  0  0
 10  8  1  0  0  0  0
 11 13  2  0  0  0  0
 11  7  1  0  0  0  0
 12  5  1  0  0  0  0
 13  4  1  0  0  0  0
 14  3  1  0  0  0  0
 15 11  1  0  0  0  0
 16 20  1  0  0  0  0
 17 13  1  0  0  0  0
 18 19  1  0  0  0  0
 19 14  1  0  0  0  0
 19  8  1  0  0  0  0
 22 25  1  0  0  0  0
 23 21  1  0  0  0  0
 23 24  1  0  0  0  0
 25 24  1  0  0  0  0
 26 27  1  0  0  0  0
 26 22  1  0  0  0  0
 27 23  1  0  0  0  0
M  END
>  <MODEL>
8

>  <REMARK>
 VINA RESULT:      -6.3      3.454      6.724
  Name = 
  2 active torsions:
  status: ('A' for Active; 'I' for Inactive)
    1  A    between atoms: C_1  and  C_15
    2  A    between atoms: C_9  and  C_15
                            x       y       z     vdW  Elec       q    Type
                         _______ _______ _______ _____ _____    ______ ____

>  <TORSDO>
F 2

$$$$
=
 OpenBabel11052413513D

 27 32  0  0  1  0  0  0  0  0999 V2000
  185.0540  178.4790  139.2960 C   0  0  2  0  0  3  0  0  0  0  0  0
  185.5040  178.2070  140.6750 N   0  0  2  0  0  0  0  0  0  0  0  0
  187.4210  178.2470  139.3810 C   0  0  2  0  0  0  0  0  0  0  0  0
  187.4050  177.6390  144.2590 N   0  0  0  0  0  0  0  0  0  0  0  0
  189.7330  177.2120  145.0570 C   0  0  0  0  0  1  0  0  0  0  0  0
  184.7540  178.8170  141.7750 C   0  0  0  0  0  2  0  0  0  0  0  0
  189.1070  177.8410  142.3930 S   0  0  0  0  0  0  0  0  0  0  0  0
  187.5220  176.4870  137.1260 C   0  0  0  0  0  0  0  0  0  0  0  0
  188.6810  178.9490  138.9390 C   0  0  0  0  0  2  0  0  0  0  0  0
  187.6140  175.8020  135.8030 C   0  0  0  0  0  1  0  0  0  0  0  0
  187.4910  178.0580  141.9810 C   0  0  0  0  0  0  0  0  0  0  0  0
  188.7300  177.5290  144.0090 C   0  0  0  0  0  0  0  0  0  0  0  0
  186.7180  177.9610  143.1330 C   0  0  0  0  0  0  0  0  0  0  0  0
  186.2730  178.2530  138.3840 C   0  0  1  0  0  3  0  0  0  0  0  0
  186.8960  178.6280  140.7370 C   0  0  2  0  0  3  0  0  0  0  0  0
  188.6560  176.7370  137.8000 C   0  0  0  0  0  3  0  0  0  0  0  0
  185.2220  178.1930  143.1120 C   0  0  0  0  0  2  0  0  0  0  0  0
  185.1980  176.9140  136.7160 O   0  0  0  0  0  1  0  0  0  0  0  0
  186.1820  176.8860  137.7060 C   0  0  1  0  0  3  0  0  0  0  0  0
  188.6850  177.4290  139.1420 C   0  0  2  0  0  3  0  0  0  0  0  0
  184.4220  179.8710  139.0940 C   0  0  0  0  0  2  0  0  0  0  0  0
  180.3300  180.0420  137.8380 C   0  0  0  0  0  2  0  0  0  0  0  0
  182.9020  179.8530  138.9920 C   0  0  2  0  0  3  0  0  0  0  0  0
  182.4610  178.6940  138.0850 C   0  0  0  0  0  2  0  0  0  0  0  0
  181.3300  179.1120  137.1440 C   0  0  0  0  0  2  0  0  0  0  0  0
  181.0400  181.0840  138.7180 C   0  0  0  0  0  2  0  0  0  0  0  0
  182.4310  181.0860  138.5020 O   0  0  0  0  0  0  0  0  0  0  0  0
  1 21  1  1  0  0  0
  1  2  1  0  0  0  0
  2 15  1  0  0  0  0
  2  6  1  1  0  0  0
  3  9  1  6  0  0  0
  3 15  1  0  0  0  0
  6 17  1  0  0  0  0
  7 12  1  0  0  0  0
  8 19  1  0  0  0  0
  8 16  2  0  0  0  0
  9 20  1  0  0  0  0
 10  8  1  0  0  0  0
 11  7  1  0  0  0  0
 11 13  2  0  0  0  0
 12  4  2  0  0  0  0
 12  5  1  0  0  0  0
 13  4  1  0  0  0  0
 14  1  1  0  0  0  0
 14  3  1  0  0  0  0
 15 11  1  0  0  0  0
 16 20  1  0  0  0  0
 17 13  1  0  0  0  0
 18 19  1  0  0  0  0
 19 14  1  0  0  0  0
 20  3  1  0  0  0  0
 22 26  1  0  0  0  0
 23 21  1  0  0  0  0
 24 23  1  0  0  0  0
 25 22  1  0  0  0  0
 25 24  1  0  0  0  0
 27 26  1  0  0  0  0
 27 23  1  0  0  0  0
M  END
>  <MODEL>
9

>  <REMARK>
 VINA RESULT:      -6.2      3.390      7.261
  Name = 
  2 active torsions:
  status: ('A' for Active; 'I' for Inactive)
    1  A    between atoms: C_1  and  C_15
    2  A    between atoms: C_9  and  C_15
                            x       y       z     vdW  Elec       q    Type
                         _______ _______ _______ _____ _____    ______ ____

>  <TORSDO>
F 2

$$$$
