=
 OpenBabel11052413183D

 31 34  0  0  1  0  0  0  0  0999 V2000
  189.1360  178.3770  139.2690 C   0  0  0  0  0  0  0  0  0  0  0  0
  187.0600  178.2830  142.4850 C   0  0  2  0  0  3  0  0  0  0  0  0
  185.6210  178.4880  142.0180 C   0  0  0  0  0  0  0  0  0  0  0  0
  183.9760  179.0760  140.3390 C   0  0  0  0  0  3  0  0  0  0  0  0
  188.0960  177.9140  141.4260 C   0  0  0  0  0  0  0  0  0  0  0  0
  190.1180  177.4220  139.5260 C   0  0  0  0  0  3  0  0  0  0  0  0
  185.3030  178.8400  140.7000 C   0  0  0  0  0  3  0  0  0  0  0  0
  188.4820  176.9470  144.1470 C   0  0  2  0  0  3  0  0  0  0  0  0
  189.1450  179.0770  138.0710 O   0  0  0  0  0  1  0  0  0  0  0  0
  184.8490  178.0640  144.3270 N   0  0  0  0  0  2  0  0  0  0  0  0
  182.9890  178.9770  141.2660 N   0  0  0  0  0  0  0  0  0  0  0  0
  189.2460  176.2660  143.0150 C   0  0  0  0  0  2  0  0  0  0  0  0
  187.0770  177.3280  143.6880 C   0  0  1  0  0  3  0  0  0  0  0  0
  188.1450  178.6300  140.2180 C   0  0  0  0  0  3  0  0  0  0  0  0
  182.2390  178.5690  143.4510 F   0  0  0  0  0  0  0  0  0  0  0  0
  189.1430  176.9990  141.7070 C   0  0  0  0  0  0  0  0  0  0  0  0
  190.1220  176.7410  140.7430 C   0  0  0  0  0  3  0  0  0  0  0  0
  186.2120  177.8810  144.8130 C   0  0  0  0  0  2  0  0  0  0  0  0
  184.5750  178.4210  142.9650 C   0  0  0  0  0  0  0  0  0  0  0  0
  183.2560  178.6570  142.5590 C   0  0  0  0  0  0  0  0  0  0  0  0
  189.2650  178.0360  144.9040 C   0  0  0  0  0  2  0  0  0  0  0  0
  192.1140  176.4600  146.5870 O   0  0  0  0  0  0  0  0  0  0  0  0
  190.9460  176.9010  146.4040 C   0  0  0  0  0  0  0  0  0  0  0  0
  190.6400  177.6550  145.2180 N   0  0  0  0  0  0  0  0  0  0  0  0
  191.2560  179.4980  143.7350 C   0  0  0  0  0  1  0  0  0  0  0  0
  191.7140  178.2170  144.4060 C   0  0  0  0  0  2  0  0  0  0  0  0
  189.9070  176.6740  147.4600 C   0  0  0  0  0  2  0  0  0  0  0  0
  189.6200  177.9440  148.2500 C   0  0  0  0  0  2  0  0  0  0  0  0
  188.1870  177.9730  148.7570 C   0  0  2  0  0  3  0  0  0  0  0  0
  187.5980  176.6560  148.6080 N   0  0  0  0  0  1  0  0  0  0  0  0
  187.3730  178.9800  147.9660 C   0  0  0  0  0  1  0  0  0  0  0  0
  1  6  2  0  0  0  0
  1 14  1  0  0  0  0
  2  5  1  6  0  0  0
  2 13  1  0  0  0  0
  3  2  1  0  0  0  0
  3 19  1  0  0  0  0
  4  7  1  0  0  0  0
  4 11  2  0  0  0  0
  5 16  1  0  0  0  0
  6 17  1  0  0  0  0
  7  3  2  0  0  0  0
  8 21  1  6  0  0  0
  9  1  1  0  0  0  0
 10 18  1  0  0  0  0
 11 20  1  0  0  0  0
 12  8  1  0  0  0  0
 13  8  1  0  0  0  0
 13 18  1  1  0  0  0
 14  5  2  0  0  0  0
 16 12  1  0  0  0  0
 17 16  2  0  0  0  0
 19 10  1  0  0  0  0
 20 19  2  0  0  0  0
 20 15  1  0  0  0  0
 21 24  1  0  0  0  0
 23 22  2  0  0  0  0
 23 27  1  0  0  0  0
 24 23  1  0  0  0  0
 25 26  1  0  0  0  0
 26 24  1  0  0  0  0
 27 28  1  0  0  0  0
 28 29  1  0  0  0  0
 29 31  1  6  0  0  0
 30 29  1  0  0  0  0
M  END
>  <MODEL>
1

>  <REMARK>
 VINA RESULT:      -9.3      0.000      0.000
  Name = 
  6 active torsions:
  status: ('A' for Active; 'I' for Inactive)
    1  A    between atoms: C_1  and  C_24
    2  A    between atoms: C_6  and  C_19
    3  A    between atoms: C_6  and  C_24
    4  A    between atoms: C_9  and  N_22
    5  A    between atoms: C_15  and  C_23
    6  A    between atoms: N_22  and  C_23
                            x       y       z     vdW  Elec       q    Type
                         _______ _______ _______ _____ _____    ______ ____

>  <TORSDO>
F 6

$$$$
=
 OpenBabel11052413183D

 31 34  0  0  1  0  0  0  0  0999 V2000
  189.1760  176.9380  141.4190 C   0  0  0  0  0  0  0  0  0  0  0  0
  186.8490  177.7240  144.3560 C   0  0  2  0  0  3  0  0  0  0  0  0
  187.7500  177.6580  145.5870 C   0  0  0  0  0  0  0  0  0  0  0  0
  189.8290  177.0900  146.6930 C   0  0  0  0  0  3  0  0  0  0  0  0
  187.5290  177.8100  142.9920 C   0  0  0  0  0  0  0  0  0  0  0  0
  188.6820  177.7760  140.4210 C   0  0  0  0  0  3  0  0  0  0  0  0
  189.0680  177.1870  145.5280 C   0  0  0  0  0  3  0  0  0  0  0  0
  184.9160  179.0560  143.3260 C   0  0  2  0  0  3  0  0  0  0  0  0
  190.2470  176.0960  141.1520 O   0  0  0  0  0  1  0  0  0  0  0  0
  185.8670  178.4760  146.9640 N   0  0  0  0  0  2  0  0  0  0  0  0
  189.2920  177.4400  147.8900 N   0  0  0  0  0  0  0  0  0  0  0  0
  185.7790  179.4760  142.1390 C   0  0  0  0  0  2  0  0  0  0  0  0
  185.7850  178.8140  144.5570 C   0  0  1  0  0  3  0  0  0  0  0  0
  188.5940  176.9460  142.6870 C   0  0  0  0  0  3  0  0  0  0  0  0
  187.5180  178.2220  149.2100 F   0  0  0  0  0  0  0  0  0  0  0  0
  186.9870  178.6020  141.9470 C   0  0  0  0  0  0  0  0  0  0  0  0
  187.5890  178.6000  140.6850 C   0  0  0  0  0  3  0  0  0  0  0  0
  184.9720  178.5330  145.8140 C   0  0  0  0  0  2  0  0  0  0  0  0
  187.2110  177.9880  146.8510 C   0  0  0  0  0  0  0  0  0  0  0  0
  188.0130  177.8840  147.9940 C   0  0  0  0  0  0  0  0  0  0  0  0
  183.8610  177.9770  143.0190 C   0  0  0  0  0  2  0  0  0  0  0  0
  181.3180  178.5680  140.4470 O   0  0  0  0  0  0  0  0  0  0  0  0
  182.4190  178.2340  140.9650 C   0  0  0  0  0  0  0  0  0  0  0  0
  182.6680  178.4970  142.3570 N   0  0  0  0  0  0  0  0  0  0  0  0
  180.8010  178.7120  143.9210 C   0  0  0  0  0  1  0  0  0  0  0  0
  181.8340  179.4460  143.0860 C   0  0  0  0  0  2  0  0  0  0  0  0
  183.4730  177.6100  140.1010 C   0  0  0  0  0  2  0  0  0  0  0  0
  183.9630  178.5740  139.0280 C   0  0  0  0  0  2  0  0  0  0  0  0
  184.3180  177.8430  137.7420 C   0  0  2  0  0  3  0  0  0  0  0  0
  183.8340  176.4780  137.8170 N   0  0  0  0  0  1  0  0  0  0  0  0
  185.8220  177.8320  137.5470 C   0  0  0  0  0  1  0  0  0  0  0  0
  1 14  1  0  0  0  0
  2  5  1  6  0  0  0
  2 13  1  0  0  0  0
  2  3  1  0  0  0  0
  3 19  1  0  0  0  0
  4 11  2  0  0  0  0
  6 17  1  0  0  0  0
  6  1  2  0  0  0  0
  7  3  2  0  0  0  0
  7  4  1  0  0  0  0
  8 21  1  6  0  0  0
  8 13  1  0  0  0  0
  9  1  1  0  0  0  0
 11 20  1  0  0  0  0
 12  8  1  0  0  0  0
 13 18  1  1  0  0  0
 14  5  2  0  0  0  0
 16 12  1  0  0  0  0
 16  5  1  0  0  0  0
 17 16  2  0  0  0  0
 18 10  1  0  0  0  0
 19 10  1  0  0  0  0
 19 20  2  0  0  0  0
 20 15  1  0  0  0  0
 22 23  2  0  0  0  0
 23 24  1  0  0  0  0
 24 21  1  0  0  0  0
 24 26  1  0  0  0  0
 26 25  1  0  0  0  0
 27 23  1  0  0  0  0
 28 27  1  0  0  0  0
 29 31  1  1  0  0  0
 29 30  1  0  0  0  0
 29 28  1  0  0  0  0
M  END
>  <MODEL>
2

>  <REMARK>
 VINA RESULT:      -8.8      2.767      7.295
  Name = 
  6 active torsions:
  status: ('A' for Active; 'I' for Inactive)
    1  A    between atoms: C_1  and  C_24
    2  A    between atoms: C_6  and  C_19
    3  A    between atoms: C_6  and  C_24
    4  A    between atoms: C_9  and  N_22
    5  A    between atoms: C_15  and  C_23
    6  A    between atoms: N_22  and  C_23
                            x       y       z     vdW  Elec       q    Type
                         _______ _______ _______ _____ _____    ______ ____

>  <TORSDO>
F 6

$$$$
=
 OpenBabel11052413183D

 31 34  0  0  1  0  0  0  0  0999 V2000
  190.1310  176.8830  146.3300 C   0  0  0  0  0  0  0  0  0  0  0  0
  187.4130  177.7630  143.7800 C   0  0  2  0  0  3  0  0  0  0  0  0
  186.2110  178.1720  144.6270 C   0  0  0  0  0  0  0  0  0  0  0  0
  185.0340  178.3360  146.7390 C   0  0  0  0  0  3  0  0  0  0  0  0
  188.7710  177.6940  144.4750 C   0  0  0  0  0  0  0  0  0  0  0  0
  191.2840  177.3490  145.7020 C   0  0  0  0  0  3  0  0  0  0  0  0
  186.1810  178.0030  146.0180 C   0  0  0  0  0  3  0  0  0  0  0  0
  188.6900  178.3730  141.6420 C   0  0  2  0  0  3  0  0  0  0  0  0
  190.2170  176.2600  147.5670 O   0  0  0  0  0  1  0  0  0  0  0  0
  185.0260  178.8360  142.5620 N   0  0  0  0  0  2  0  0  0  0  0  0
  183.9390  178.8150  146.0950 N   0  0  0  0  0  0  0  0  0  0  0  0
  189.9520  178.7010  142.4350 C   0  0  0  0  0  2  0  0  0  0  0  0
  187.4470  178.6070  142.4970 C   0  0  1  0  0  3  0  0  0  0  0  0
  188.8900  177.0410  145.7130 C   0  0  0  0  0  3  0  0  0  0  0  0
  182.8030  179.4560  144.1450 F   0  0  0  0  0  0  0  0  0  0  0  0
  189.9590  178.0960  143.8120 C   0  0  0  0  0  0  0  0  0  0  0  0
  191.1970  177.9480  144.4450 C   0  0  0  0  0  3  0  0  0  0  0  0
  186.1490  178.4380  141.7200 C   0  0  0  0  0  2  0  0  0  0  0  0
  185.0460  178.6450  143.9840 C   0  0  0  0  0  0  0  0  0  0  0  0
  183.9200  178.9760  144.7460 C   0  0  0  0  0  0  0  0  0  0  0  0
  188.7340  177.0470  140.8610 C   0  0  0  0  0  2  0  0  0  0  0  0
  189.6350  177.8710  137.4060 O   0  0  0  0  0  0  0  0  0  0  0  0
  188.9180  177.6810  138.4260 C   0  0  0  0  0  0  0  0  0  0  0  0
  189.4990  177.1250  139.6190 N   0  0  0  0  0  0  0  0  0  0  0  0
  191.8920  177.3860  140.0430 C   0  0  0  0  0  1  0  0  0  0  0  0
  190.7930  176.4560  139.5640 C   0  0  0  0  0  2  0  0  0  0  0  0
  187.4530  177.9920  138.3580 C   0  0  0  0  0  2  0  0  0  0  0  0
  186.7590  177.1910  137.2640 C   0  0  0  0  0  2  0  0  0  0  0  0
  185.2550  177.1390  137.4810 C   0  0  2  0  0  3  0  0  0  0  0  0
  184.5830  177.1790  136.1960 N   0  0  0  0  0  1  0  0  0  0  0  0
  184.8070  178.3230  138.3180 C   0  0  0  0  0  1  0  0  0  0  0  0
  1  9  1  0  0  0  0
  2  5  1  1  0  0  0
  2  3  1  0  0  0  0
  3  7  1  0  0  0  0
  5 14  2  0  0  0  0
  6  1  2  0  0  0  0
  7  4  2  0  0  0  0
  8 21  1  1  0  0  0
  8 12  1  0  0  0  0
  8 13  1  0  0  0  0
 10 19  1  0  0  0  0
 11  4  1  0  0  0  0
 12 16  1  0  0  0  0
 13 18  1  6  0  0  0
 13  2  1  0  0  0  0
 14  1  1  0  0  0  0
 15 20  1  0  0  0  0
 16 17  2  0  0  0  0
 16  5  1  0  0  0  0
 17  6  1  0  0  0  0
 18 10  1  0  0  0  0
 19  3  2  0  0  0  0
 19 20  1  0  0  0  0
 20 11  2  0  0  0  0
 22 23  2  0  0  0  0
 23 24  1  0  0  0  0
 24 21  1  0  0  0  0
 26 24  1  0  0  0  0
 26 25  1  0  0  0  0
 27 23  1  0  0  0  0
 28 29  1  0  0  0  0
 28 27  1  0  0  0  0
 29 31  1  1  0  0  0
 30 29  1  0  0  0  0
M  END
>  <MODEL>
3

>  <REMARK>
 VINA RESULT:      -8.5      2.162      6.428
  Name = 
  6 active torsions:
  status: ('A' for Active; 'I' for Inactive)
    1  A    between atoms: C_1  and  C_24
    2  A    between atoms: C_6  and  C_19
    3  A    between atoms: C_6  and  C_24
    4  A    between atoms: C_9  and  N_22
    5  A    between atoms: C_15  and  C_23
    6  A    between atoms: N_22  and  C_23
                            x       y       z     vdW  Elec       q    Type
                         _______ _______ _______ _____ _____    ______ ____

>  <TORSDO>
F 6

$$$$
=
 OpenBabel11052413183D

 31 34  0  0  1  0  0  0  0  0999 V2000
  190.0230  177.0260  145.7000 C   0  0  0  0  0  0  0  0  0  0  0  0
  187.1360  177.8690  143.3290 C   0  0  2  0  0  3  0  0  0  0  0  0
  185.9850  178.2610  144.2520 C   0  0  0  0  0  0  0  0  0  0  0  0
  184.9430  178.4090  146.4340 C   0  0  0  0  0  3  0  0  0  0  0  0
  188.5360  177.8180  143.9360 C   0  0  0  0  0  0  0  0  0  0  0  0
  191.1270  177.5080  144.9990 C   0  0  0  0  0  3  0  0  0  0  0  0
  186.0460  178.0920  145.6410 C   0  0  0  0  0  3  0  0  0  0  0  0
  188.2650  178.4960  141.1150 C   0  0  2  0  0  3  0  0  0  0  0  0
  190.1960  176.4050  146.9280 O   0  0  0  0  0  1  0  0  0  0  0  0
  184.6620  178.9090  142.2670 N   0  0  0  0  0  2  0  0  0  0  0  0
  183.8020  178.8720  145.8620 N   0  0  0  0  0  0  0  0  0  0  0  0
  189.5700  178.8410  141.8260 C   0  0  0  0  0  2  0  0  0  0  0  0
  187.0760  178.7130  142.0470 C   0  0  1  0  0  3  0  0  0  0  0  0
  188.7420  177.1670  145.1640 C   0  0  0  0  0  3  0  0  0  0  0  0
  182.5360  179.4980  143.9890 F   0  0  0  0  0  0  0  0  0  0  0  0
  189.6740  178.2360  143.1990 C   0  0  0  0  0  0  0  0  0  0  0  0
  190.9510  178.1060  143.7520 C   0  0  0  0  0  3  0  0  0  0  0  0
  185.7330  178.5260  141.3540 C   0  0  0  0  0  2  0  0  0  0  0  0
  184.7740  178.7180  143.6840 C   0  0  0  0  0  0  0  0  0  0  0  0
  183.6940  179.0330  144.5170 C   0  0  0  0  0  0  0  0  0  0  0  0
  188.2770  177.1700  140.3310 C   0  0  0  0  0  2  0  0  0  0  0  0
  189.7070  176.8280  136.9740 O   0  0  0  0  0  0  0  0  0  0  0  0
  189.6260  176.7940  138.2330 C   0  0  0  0  0  0  0  0  0  0  0  0
  188.4720  177.3430  138.8940 N   0  0  0  0  0  0  0  0  0  0  0  0
  186.3270  177.5010  137.7310 C   0  0  0  0  0  1  0  0  0  0  0  0
  187.5740  178.2420  138.1790 C   0  0  0  0  0  2  0  0  0  0  0  0
  190.7660  176.2250  139.0230 C   0  0  0  0  0  2  0  0  0  0  0  0
  191.8920  175.7450  138.1180 C   0  0  0  0  0  2  0  0  0  0  0  0
  193.1670  176.5440  138.3430 C   0  0  2  0  0  3  0  0  0  0  0  0
  194.3100  175.6540  138.2700 N   0  0  0  0  0  1  0  0  0  0  0  0
  193.1330  177.2060  139.7080 C   0  0  0  0  0  1  0  0  0  0  0  0
  1  9  1  0  0  0  0
  2  5  1  1  0  0  0
  2  3  1  0  0  0  0
  3  7  1  0  0  0  0
  5 14  2  0  0  0  0
  6  1  2  0  0  0  0
  7  4  2  0  0  0  0
  8 21  1  1  0  0  0
  8 12  1  0  0  0  0
  8 13  1  0  0  0  0
 10 19  1  0  0  0  0
 11  4  1  0  0  0  0
 12 16  1  0  0  0  0
 13 18  1  6  0  0  0
 13  2  1  0  0  0  0
 14  1  1  0  0  0  0
 15 20  1  0  0  0  0
 16 17  2  0  0  0  0
 16  5  1  0  0  0  0
 17  6  1  0  0  0  0
 18 10  1  0  0  0  0
 19  3  2  0  0  0  0
 19 20  1  0  0  0  0
 20 11  2  0  0  0  0
 22 23  2  0  0  0  0
 23 24  1  0  0  0  0
 23 27  1  0  0  0  0
 24 21  1  0  0  0  0
 25 26  1  0  0  0  0
 26 24  1  0  0  0  0
 28 29  1  0  0  0  0
 28 27  1  0  0  0  0
 29 31  1  1  0  0  0
 30 29  1  0  0  0  0
M  END
>  <MODEL>
4

>  <REMARK>
 VINA RESULT:      -8.4      2.517      6.433
  Name = 
  6 active torsions:
  status: ('A' for Active; 'I' for Inactive)
    1  A    between atoms: C_1  and  C_24
    2  A    between atoms: C_6  and  C_19
    3  A    between atoms: C_6  and  C_24
    4  A    between atoms: C_9  and  N_22
    5  A    between atoms: C_15  and  C_23
    6  A    between atoms: N_22  and  C_23
                            x       y       z     vdW  Elec       q    Type
                         _______ _______ _______ _____ _____    ______ ____

>  <TORSDO>
F 6

$$$$
=
 OpenBabel11052413183D

 31 34  0  0  1  0  0  0  0  0999 V2000
  190.9070  177.1500  141.3810 C   0  0  0  0  0  0  0  0  0  0  0  0
  187.2450  178.2210  141.7090 C   0  0  2  0  0  3  0  0  0  0  0  0
  186.7500  178.3360  140.2700 C   0  0  0  0  0  0  0  0  0  0  0  0
  187.1190  178.4260  137.8770 C   0  0  0  0  0  3  0  0  0  0  0  0
  188.5560  177.4730  141.9430 C   0  0  0  0  0  0  0  0  0  0  0  0
  191.0570  176.2820  142.4610 C   0  0  0  0  0  3  0  0  0  0  0  0
  187.6130  178.2540  139.1700 C   0  0  0  0  0  3  0  0  0  0  0  0
  186.5360  177.4310  144.0420 C   0  0  2  0  0  3  0  0  0  0  0  0
  191.9860  177.4190  140.5510 O   0  0  0  0  0  1  0  0  0  0  0  0
  184.4650  178.7310  141.1260 N   0  0  0  0  0  2  0  0  0  0  0  0
  185.8010  178.6870  137.6810 N   0  0  0  0  0  0  0  0  0  0  0  0
  187.6410  176.3780  144.0710 C   0  0  0  0  0  2  0  0  0  0  0  0
  186.1060  177.7120  142.6050 C   0  0  1  0  0  3  0  0  0  0  0  0
  189.6720  177.7510  141.1360 C   0  0  0  0  0  3  0  0  0  0  0  0
  183.6250  179.0560  138.4770 F   0  0  0  0  0  0  0  0  0  0  0  0
  188.7400  176.6480  143.0820 C   0  0  0  0  0  0  0  0  0  0  0  0
  189.9770  176.0370  143.3100 C   0  0  0  0  0  3  0  0  0  0  0  0
  184.9060  178.6460  142.5140 C   0  0  0  0  0  2  0  0  0  0  0  0
  185.3890  178.6360  140.0340 C   0  0  0  0  0  0  0  0  0  0  0  0
  184.9330  178.7940  138.7200 C   0  0  0  0  0  0  0  0  0  0  0  0
  186.7830  178.6640  144.9290 C   0  0  0  0  0  2  0  0  0  0  0  0
  187.5670  178.0510  148.4560 O   0  0  0  0  0  0  0  0  0  0  0  0
  187.7260  178.1300  147.2070 C   0  0  0  0  0  0  0  0  0  0  0  0
  186.6000  178.4060  146.3550 N   0  0  0  0  0  0  0  0  0  0  0  0
  184.2510  178.9420  145.9430 C   0  0  0  0  0  1  0  0  0  0  0  0
  185.2410  178.2450  146.8580 C   0  0  0  0  0  2  0  0  0  0  0  0
  189.0860  177.8820  146.6270 C   0  0  0  0  0  2  0  0  0  0  0  0
  189.7970  176.7350  147.3330 C   0  0  0  0  0  2  0  0  0  0  0  0
  191.3090  176.8890  147.2620 C   0  0  2  0  0  3  0  0  0  0  0  0
  191.6760  177.4400  145.9710 N   0  0  0  0  0  1  0  0  0  0  0  0
  191.9800  175.5400  147.4420 C   0  0  0  0  0  1  0  0  0  0  0  0
  1  6  1  0  0  0  0
  2  3  1  6  0  0  0
  2  5  1  0  0  0  0
  2 13  1  0  0  0  0
  4  7  1  0  0  0  0
  5 16  2  0  0  0  0
  6 17  2  0  0  0  0
  7  3  2  0  0  0  0
  8 12  1  0  0  0  0
  8 21  1  6  0  0  0
  9  1  1  0  0  0  0
 10 18  1  0  0  0  0
 11  4  2  0  0  0  0
 11 20  1  0  0  0  0
 13 18  1  1  0  0  0
 13  8  1  0  0  0  0
 14  1  2  0  0  0  0
 14  5  1  0  0  0  0
 15 20  1  0  0  0  0
 16 17  1  0  0  0  0
 16 12  1  0  0  0  0
 19  3  1  0  0  0  0
 19 10  1  0  0  0  0
 20 19  2  0  0  0  0
 21 24  1  0  0  0  0
 23 22  2  0  0  0  0
 24 26  1  0  0  0  0
 24 23  1  0  0  0  0
 25 26  1  0  0  0  0
 27 23  1  0  0  0  0
 27 28  1  0  0  0  0
 29 28  1  0  0  0  0
 29 31  1  6  0  0  0
 30 29  1  0  0  0  0
M  END
>  <MODEL>
5

>  <REMARK>
 VINA RESULT:      -8.3      2.194      3.703
  Name = 
  6 active torsions:
  status: ('A' for Active; 'I' for Inactive)
    1  A    between atoms: C_1  and  C_24
    2  A    between atoms: C_6  and  C_19
    3  A    between atoms: C_6  and  C_24
    4  A    between atoms: C_9  and  N_22
    5  A    between atoms: C_15  and  C_23
    6  A    between atoms: N_22  and  C_23
                            x       y       z     vdW  Elec       q    Type
                         _______ _______ _______ _____ _____    ______ ____

>  <TORSDO>
F 6

$$$$
=
 OpenBabel11052413183D

 31 34  0  0  1  0  0  0  0  0999 V2000
  189.0590  178.2450  139.6760 C   0  0  0  0  0  0  0  0  0  0  0  0
  186.1760  178.4580  142.1870 C   0  0  2  0  0  3  0  0  0  0  0  0
  184.9350  178.6900  141.3280 C   0  0  0  0  0  0  0  0  0  0  0  0
  183.8530  179.2270  139.2280 C   0  0  0  0  0  3  0  0  0  0  0  0
  187.4400  177.9750  141.4810 C   0  0  0  0  0  0  0  0  0  0  0  0
  189.8740  177.2710  140.2480 C   0  0  0  0  0  3  0  0  0  0  0  0
  185.0140  178.9630  139.9560 C   0  0  0  0  0  3  0  0  0  0  0  0
  187.0050  177.1830  144.2510 C   0  0  2  0  0  3  0  0  0  0  0  0
  189.4370  178.8600  138.4910 O   0  0  0  0  0  1  0  0  0  0  0  0
  183.5340  178.4570  143.3510 N   0  0  0  0  0  2  0  0  0  0  0  0
  182.6450  179.2330  139.8480 N   0  0  0  0  0  0  0  0  0  0  0  0
  188.0100  176.3940  143.4150 C   0  0  0  0  0  2  0  0  0  0  0  0
  185.8060  177.5890  143.3980 C   0  0  1  0  0  3  0  0  0  0  0  0
  187.8610  178.6030  140.2960 C   0  0  0  0  0  3  0  0  0  0  0  0
  181.3010  179.0080  141.7570 F   0  0  0  0  0  0  0  0  0  0  0  0
  188.3140  177.0400  142.0920 C   0  0  0  0  0  0  0  0  0  0  0  0
  189.5040  176.6750  141.4530 C   0  0  0  0  0  3  0  0  0  0  0  0
  184.6980  178.2520  144.2060 C   0  0  0  0  0  2  0  0  0  0  0  0
  183.6670  178.7310  141.9490 C   0  0  0  0  0  0  0  0  0  0  0  0
  182.5270  178.9920  141.1800 C   0  0  0  0  0  0  0  0  0  0  0  0
  187.6130  178.2880  145.1340 C   0  0  0  0  0  2  0  0  0  0  0  0
  188.6840  177.1460  148.4480 O   0  0  0  0  0  0  0  0  0  0  0  0
  188.6640  177.2780  147.1930 C   0  0  0  0  0  0  0  0  0  0  0  0
  187.5780  177.9800  146.5620 N   0  0  0  0  0  0  0  0  0  0  0  0
  186.0430  179.7150  147.3400 C   0  0  0  0  0  1  0  0  0  0  0  0
  186.3400  178.2280  147.2910 C   0  0  0  0  0  2  0  0  0  0  0  0
  189.7530  176.6520  146.3760 C   0  0  0  0  0  2  0  0  0  0  0  0
  191.0190  177.4990  146.3830 C   0  0  0  0  0  2  0  0  0  0  0  0
  191.6640  177.5490  145.0070 C   0  0  2  0  0  3  0  0  0  0  0  0
  190.9890  178.5440  144.1960 N   0  0  0  0  0  1  0  0  0  0  0  0
  191.5570  176.1940  144.3310 C   0  0  0  0  0  1  0  0  0  0  0  0
  1  6  2  0  0  0  0
  1 14  1  0  0  0  0
  2  3  1  6  0  0  0
  2 13  1  0  0  0  0
  3 19  1  0  0  0  0
  4 11  2  0  0  0  0
  4  7  1  0  0  0  0
  5 16  1  0  0  0  0
  5  2  1  0  0  0  0
  6 17  1  0  0  0  0
  7  3  2  0  0  0  0
  8 21  1  6  0  0  0
  9  1  1  0  0  0  0
 10 18  1  0  0  0  0
 11 20  1  0  0  0  0
 12  8  1  0  0  0  0
 13 18  1  1  0  0  0
 13  8  1  0  0  0  0
 14  5  2  0  0  0  0
 16 12  1  0  0  0  0
 17 16  2  0  0  0  0
 19 10  1  0  0  0  0
 20 15  1  0  0  0  0
 20 19  2  0  0  0  0
 21 24  1  0  0  0  0
 23 22  2  0  0  0  0
 24 23  1  0  0  0  0
 24 26  1  0  0  0  0
 26 25  1  0  0  0  0
 27 28  1  0  0  0  0
 27 23  1  0  0  0  0
 29 31  1  6  0  0  0
 29 28  1  0  0  0  0
 30 29  1  0  0  0  0
M  END
>  <MODEL>
6

>  <REMARK>
 VINA RESULT:      -8.0      1.429      2.832
  Name = 
  6 active torsions:
  status: ('A' for Active; 'I' for Inactive)
    1  A    between atoms: C_1  and  C_24
    2  A    between atoms: C_6  and  C_19
    3  A    between atoms: C_6  and  C_24
    4  A    between atoms: C_9  and  N_22
    5  A    between atoms: C_15  and  C_23
    6  A    between atoms: N_22  and  C_23
                            x       y       z     vdW  Elec       q    Type
                         _______ _______ _______ _____ _____    ______ ____

>  <TORSDO>
F 6

$$$$
=
 OpenBabel11052413183D

 31 34  0  0  1  0  0  0  0  0999 V2000
  186.0510  179.0280  146.3200 C   0  0  0  0  0  0  0  0  0  0  0  0
  189.2360  177.5080  144.8330 C   0  0  2  0  0  3  0  0  0  0  0  0
  190.0500  177.0630  146.0450 C   0  0  0  0  0  0  0  0  0  0  0  0
  190.5000  177.0190  148.4250 C   0  0  0  0  0  3  0  0  0  0  0  0
  187.7610  177.8310  145.0570 C   0  0  0  0  0  0  0  0  0  0  0  0
  185.0810  178.6330  145.4000 C   0  0  0  0  0  3  0  0  0  0  0  0
  189.6880  177.3990  147.3560 C   0  0  0  0  0  3  0  0  0  0  0  0
  188.5800  176.8000  142.4580 C   0  0  2  0  0  3  0  0  0  0  0  0
  185.6970  179.8050  147.4130 O   0  0  0  0  0  1  0  0  0  0  0  0
  191.6800  176.0060  144.5170 N   0  0  0  0  0  2  0  0  0  0  0  0
  191.6490  176.3320  148.1980 N   0  0  0  0  0  0  0  0  0  0  0  0
  187.1030  176.7310  142.8380 C   0  0  0  0  0  2  0  0  0  0  0  0
  189.4560  176.5220  143.6760 C   0  0  1  0  0  3  0  0  0  0  0  0
  187.3800  178.6420  146.1390 C   0  0  0  0  0  3  0  0  0  0  0  0
  193.2020  175.3180  146.7620 F   0  0  0  0  0  0  0  0  0  0  0  0
  186.7780  177.4990  144.0890 C   0  0  0  0  0  0  0  0  0  0  0  0
  185.4460  177.8760  144.2880 C   0  0  0  0  0  3  0  0  0  0  0  0
  190.9380  176.4310  143.3350 C   0  0  0  0  0  2  0  0  0  0  0  0
  191.2660  176.3730  145.8400 C   0  0  0  0  0  0  0  0  0  0  0  0
  192.0460  176.0030  146.9420 C   0  0  0  0  0  0  0  0  0  0  0  0
  188.9790  178.0130  141.5990 C   0  0  0  0  0  2  0  0  0  0  0  0
  188.3230  177.9420  137.9940 O   0  0  0  0  0  0  0  0  0  0  0  0
  188.1160  178.0910  139.2300 C   0  0  0  0  0  0  0  0  0  0  0  0
  189.1240  177.7020  140.1790 N   0  0  0  0  0  0  0  0  0  0  0  0
  191.5550  177.5020  140.0070 C   0  0  0  0  0  1  0  0  0  0  0  0
  190.2170  176.8250  139.7740 C   0  0  0  0  0  2  0  0  0  0  0  0
  186.7940  178.6270  139.6890 C   0  0  0  0  0  2  0  0  0  0  0  0
  185.6720  178.2520  138.7300 C   0  0  0  0  0  2  0  0  0  0  0  0
  184.3160  178.6930  139.2590 C   0  0  2  0  0  3  0  0  0  0  0  0
  184.1800  180.1280  139.0940 N   0  0  0  0  0  1  0  0  0  0  0  0
  184.1910  178.3440  140.7300 C   0  0  0  0  0  1  0  0  0  0  0  0
  1  9  1  0  0  0  0
  2  5  1  1  0  0  0
  2  3  1  0  0  0  0
  3  7  1  0  0  0  0
  5 14  2  0  0  0  0
  6  1  2  0  0  0  0
  7  4  2  0  0  0  0
  8 21  1  1  0  0  0
  8 12  1  0  0  0  0
  8 13  1  0  0  0  0
 10 19  1  0  0  0  0
 11  4  1  0  0  0  0
 12 16  1  0  0  0  0
 13 18  1  6  0  0  0
 13  2  1  0  0  0  0
 14  1  1  0  0  0  0
 15 20  1  0  0  0  0
 16 17  2  0  0  0  0
 16  5  1  0  0  0  0
 17  6  1  0  0  0  0
 18 10  1  0  0  0  0
 19  3  2  0  0  0  0
 19 20  1  0  0  0  0
 20 11  2  0  0  0  0
 22 23  2  0  0  0  0
 23 27  1  0  0  0  0
 23 24  1  0  0  0  0
 24 21  1  0  0  0  0
 26 25  1  0  0  0  0
 26 24  1  0  0  0  0
 28 29  1  0  0  0  0
 28 27  1  0  0  0  0
 29 31  1  1  0  0  0
 30 29  1  0  0  0  0
M  END
>  <MODEL>
7

>  <REMARK>
 VINA RESULT:      -7.8      3.143      7.544
  Name = 
  6 active torsions:
  status: ('A' for Active; 'I' for Inactive)
    1  A    between atoms: C_1  and  C_24
    2  A    between atoms: C_6  and  C_19
    3  A    between atoms: C_6  and  C_24
    4  A    between atoms: C_9  and  N_22
    5  A    between atoms: C_15  and  C_23
    6  A    between atoms: N_22  and  C_23
                            x       y       z     vdW  Elec       q    Type
                         _______ _______ _______ _____ _____    ______ ____

>  <TORSDO>
F 6

$$$$
=
 OpenBabel11052413183D

 31 34  0  0  1  0  0  0  0  0999 V2000
  189.3580  176.8290  141.4980 C   0  0  0  0  0  0  0  0  0  0  0  0
  186.2250  177.8350  143.4550 C   0  0  2  0  0  3  0  0  0  0  0  0
  186.7010  177.9670  144.8990 C   0  0  0  0  0  0  0  0  0  0  0  0
  188.3440  177.6500  146.6510 C   0  0  0  0  0  3  0  0  0  0  0  0
  187.2920  177.7920  142.3640 C   0  0  0  0  0  0  0  0  0  0  0  0
  189.1850  177.5120  140.2960 C   0  0  0  0  0  3  0  0  0  0  0  0
  187.9790  177.5640  145.3070 C   0  0  0  0  0  3  0  0  0  0  0  0
  184.6860  178.9250  141.7190 C   0  0  2  0  0  3  0  0  0  0  0  0
  190.4700  176.0200  141.6830 O   0  0  0  0  0  1  0  0  0  0  0  0
  184.4730  178.8400  145.5170 N   0  0  0  0  0  2  0  0  0  0  0  0
  187.4580  178.1120  147.5700 N   0  0  0  0  0  0  0  0  0  0  0  0
  185.8680  179.2460  140.8070 C   0  0  0  0  0  2  0  0  0  0  0  0
  185.1350  178.8810  143.1770 C   0  0  1  0  0  3  0  0  0  0  0  0
  188.4110  176.9570  142.5150 C   0  0  0  0  0  3  0  0  0  0  0  0
  185.3510  178.9490  148.1720 F   0  0  0  0  0  0  0  0  0  0  0  0
  187.0890  178.4230  141.1100 C   0  0  0  0  0  0  0  0  0  0  0  0
  188.0510  178.3010  140.1030 C   0  0  0  0  0  3  0  0  0  0  0  0
  183.9770  178.7090  144.1510 C   0  0  0  0  0  2  0  0  0  0  0  0
  185.7930  178.4160  145.8840 C   0  0  0  0  0  0  0  0  0  0  0  0
  186.2030  178.4940  147.2200 C   0  0  0  0  0  0  0  0  0  0  0  0
  183.7940  177.7610  141.2490 C   0  0  0  0  0  2  0  0  0  0  0  0
  181.6820  178.2110  138.2880 O   0  0  0  0  0  0  0  0  0  0  0  0
  182.7080  177.9720  138.9820 C   0  0  0  0  0  0  0  0  0  0  0  0
  182.6800  178.1830  140.4050 N   0  0  0  0  0  0  0  0  0  0  0  0
  180.5240  178.1020  141.5540 C   0  0  0  0  0  1  0  0  0  0  0  0
  181.6250  178.9910  141.0070 C   0  0  0  0  0  2  0  0  0  0  0  0
  183.9630  177.5190  138.2970 C   0  0  0  0  0  2  0  0  0  0  0  0
  183.6910  176.3830  137.3200 C   0  0  0  0  0  2  0  0  0  0  0  0
  183.3480  175.0930  138.0480 C   0  0  2  0  0  3  0  0  0  0  0  0
  184.3590  174.0940  137.7560 N   0  0  0  0  0  1  0  0  0  0  0  0
  181.9930  174.5820  137.5950 C   0  0  0  0  0  1  0  0  0  0  0  0
  1  9  1  0  0  0  0
  1 14  1  0  0  0  0
  2  5  1  6  0  0  0
  2  3  1  0  0  0  0
  3  7  2  0  0  0  0
  3 19  1  0  0  0  0
  4 11  2  0  0  0  0
  5 14  2  0  0  0  0
  6  1  2  0  0  0  0
  7  4  1  0  0  0  0
  8 21  1  6  0  0  0
  8 13  1  0  0  0  0
 10 19  1  0  0  0  0
 12 16  1  0  0  0  0
 12  8  1  0  0  0  0
 13  2  1  0  0  0  0
 13 18  1  1  0  0  0
 16  5  1  0  0  0  0
 17  6  1  0  0  0  0
 17 16  2  0  0  0  0
 18 10  1  0  0  0  0
 19 20  2  0  0  0  0
 20 11  1  0  0  0  0
 20 15  1  0  0  0  0
 22 23  2  0  0  0  0
 23 24  1  0  0  0  0
 24 26  1  0  0  0  0
 24 21  1  0  0  0  0
 26 25  1  0  0  0  0
 27 23  1  0  0  0  0
 28 29  1  0  0  0  0
 28 27  1  0  0  0  0
 29 31  1  6  0  0  0
 30 29  1  0  0  0  0
M  END
>  <MODEL>
8

>  <REMARK>
 VINA RESULT:      -7.7      2.977      7.494
  Name = 
  6 active torsions:
  status: ('A' for Active; 'I' for Inactive)
    1  A    between atoms: C_1  and  C_24
    2  A    between atoms: C_6  and  C_19
    3  A    between atoms: C_6  and  C_24
    4  A    between atoms: C_9  and  N_22
    5  A    between atoms: C_15  and  C_23
    6  A    between atoms: N_22  and  C_23
                            x       y       z     vdW  Elec       q    Type
                         _______ _______ _______ _____ _____    ______ ____

>  <TORSDO>
F 6

$$$$
=
 OpenBabel11052413183D

 31 34  0  0  1  0  0  0  0  0999 V2000
  186.2280  176.7970  137.1890 C   0  0  0  0  0  0  0  0  0  0  0  0
  189.7290  176.6390  138.7320 C   0  0  2  0  0  3  0  0  0  0  0  0
  190.6650  176.4560  137.5400 C   0  0  0  0  0  0  0  0  0  0  0  0
  191.0910  175.9790  135.2030 C   0  0  0  0  0  3  0  0  0  0  0  0
  188.3010  177.0920  138.4400 C   0  0  0  0  0  0  0  0  0  0  0  0
  185.5940  177.7390  137.9970 C   0  0  0  0  0  3  0  0  0  0  0  0
  190.1920  176.1980  136.2470 C   0  0  0  0  0  3  0  0  0  0  0  0
  189.5160  177.8620  140.9740 C   0  0  2  0  0  3  0  0  0  0  0  0
  185.5320  176.1860  136.1560 O   0  0  0  0  0  1  0  0  0  0  0  0
  192.5960  176.7050  139.0630 N   0  0  0  0  0  2  0  0  0  0  0  0
  192.4280  176.0010  135.4380 N   0  0  0  0  0  0  0  0  0  0  0  0
  188.2890  178.6300  140.4900 C   0  0  0  0  0  2  0  0  0  0  0  0
  190.4190  177.5040  139.7970 C   0  0  1  0  0  3  0  0  0  0  0  0
  187.5640  176.4670  137.4210 C   0  0  0  0  0  3  0  0  0  0  0  0
  194.2710  176.2420  136.8690 F   0  0  0  0  0  0  0  0  0  0  0  0
  187.6240  177.9930  139.3020 C   0  0  0  0  0  0  0  0  0  0  0  0
  186.2900  178.3290  139.0520 C   0  0  0  0  0  3  0  0  0  0  0  0
  191.7320  176.8630  140.2270 C   0  0  0  0  0  2  0  0  0  0  0  0
  192.0610  176.4450  137.7570 C   0  0  0  0  0  0  0  0  0  0  0  0
  192.9280  176.2290  136.6800 C   0  0  0  0  0  0  0  0  0  0  0  0
  189.2250  176.7280  141.9750 C   0  0  0  0  0  2  0  0  0  0  0  0
  188.8530  177.4820  145.5420 O   0  0  0  0  0  0  0  0  0  0  0  0
  188.5460  177.3360  144.3260 C   0  0  0  0  0  0  0  0  0  0  0  0
  189.5700  177.0620  143.3540 N   0  0  0  0  0  0  0  0  0  0  0  0
  191.6810  175.9870  143.9580 C   0  0  0  0  0  1  0  0  0  0  0  0
  190.9720  177.2990  143.6760 C   0  0  0  0  0  2  0  0  0  0  0  0
  187.1160  177.5030  143.9100 C   0  0  0  0  0  2  0  0  0  0  0  0
  186.1800  177.5330  145.1120 C   0  0  0  0  0  2  0  0  0  0  0  0
  185.3100  178.7800  145.1090 C   0  0  2  0  0  3  0  0  0  0  0  0
  184.3780  178.7170  146.2190 N   0  0  0  0  0  1  0  0  0  0  0  0
  184.5350  178.8740  143.8080 C   0  0  0  0  0  1  0  0  0  0  0  0
  1 14  2  0  0  0  0
  1  6  1  0  0  0  0
  2  3  1  6  0  0  0
  2 13  1  0  0  0  0
  3 19  1  0  0  0  0
  4 11  2  0  0  0  0
  4  7  1  0  0  0  0
  5  2  1  0  0  0  0
  5 16  2  0  0  0  0
  6 17  2  0  0  0  0
  7  3  2  0  0  0  0
  8 21  1  6  0  0  0
  9  1  1  0  0  0  0
 10 18  1  0  0  0  0
 11 20  1  0  0  0  0
 12  8  1  0  0  0  0
 13 18  1  1  0  0  0
 13  8  1  0  0  0  0
 14  5  1  0  0  0  0
 16 12  1  0  0  0  0
 17 16  1  0  0  0  0
 19 10  1  0  0  0  0
 20 15  1  0  0  0  0
 20 19  2  0  0  0  0
 21 24  1  0  0  0  0
 23 22  2  0  0  0  0
 24 26  1  0  0  0  0
 24 23  1  0  0  0  0
 26 25  1  0  0  0  0
 27 23  1  0  0  0  0
 27 28  1  0  0  0  0
 29 31  1  6  0  0  0
 29 28  1  0  0  0  0
 29 30  1  0  0  0  0
M  END
>  <MODEL>
9

>  <REMARK>
 VINA RESULT:      -7.4      4.046      6.297
  Name = 
  6 active torsions:
  status: ('A' for Active; 'I' for Inactive)
    1  A    between atoms: C_1  and  C_24
    2  A    between atoms: C_6  and  C_19
    3  A    between atoms: C_6  and  C_24
    4  A    between atoms: C_9  and  N_22
    5  A    between atoms: C_15  and  C_23
    6  A    between atoms: N_22  and  C_23
                            x       y       z     vdW  Elec       q    Type
                         _______ _______ _______ _____ _____    ______ ____

>  <TORSDO>
F 6

$$$$
