=
 OpenBabel11052414243D

 34 38  0  0  1  0  0  0  0  0999 V2000
  189.8360  177.1310  146.3770 C   0  0  0  0  0  0  0  0  0  0  0  0
  191.2260  175.9670  144.7650 C   0  0  0  0  0  0  0  0  0  0  0  0
  189.1730  177.2250  144.0130 C   0  0  0  0  0  0  0  0  0  0  0  0
  188.4620  177.5940  141.7050 C   0  0  0  0  0  0  0  0  0  0  0  0
  190.7590  176.8360  147.3820 C   0  0  0  0  0  3  0  0  0  0  0  0
  192.1340  175.6700  145.7850 C   0  0  0  0  0  3  0  0  0  0  0  0
  190.9210  177.4360  142.1610 C   0  0  0  0  0  2  0  0  0  0  0  0
  190.0990  176.7940  145.0220 C   0  0  0  0  0  0  0  0  0  0  0  0
  191.1040  177.0220  140.7090 C   0  0  0  0  0  2  0  0  0  0  0  0
  188.6920  177.5380  140.2200 C   0  0  0  0  0  2  0  0  0  0  0  0
  191.9200  176.1270  147.0830 C   0  0  0  0  0  3  0  0  0  0  0  0
  187.8880  177.6840  144.4270 C   0  0  0  0  0  0  0  0  0  0  0  0
  188.6260  177.7090  146.7410 C   0  0  0  0  0  3  0  0  0  0  0  0
  191.3820  175.3060  143.5920 F   0  0  0  0  0  0  0  0  0  0  0  0
  187.2120  177.8690  142.1440 N   0  0  0  0  0  0  0  0  0  0  0  0
  186.8880  177.9470  143.4590 C   0  0  0  0  0  0  0  0  0  0  0  0
  190.1450  177.8280  139.8420 C   0  0  2  0  0  3  0  0  0  0  0  0
  189.4900  177.3010  142.6280 C   0  0  0  0  0  0  0  0  0  0  0  0
  187.6530  177.9490  145.7810 C   0  0  0  0  0  3  0  0  0  0  0  0
  183.1940  178.6930  143.0810 C   0  0  0  0  0  0  0  0  0  0  0  0
  182.8090  178.9180  144.4050 C   0  0  0  0  0  3  0  0  0  0  0  0
  185.4880  178.3140  143.8020 C   0  0  0  0  0  0  0  0  0  0  0  0
  183.7540  178.8330  145.4300 C   0  0  0  0  0  3  0  0  0  0  0  0
  184.5250  178.3870  142.7830 C   0  0  0  0  0  3  0  0  0  0  0  0
  185.0840  178.5270  145.1310 C   0  0  0  0  0  3  0  0  0  0  0  0
  182.2320  178.7730  142.0380 N   0  0  0  0  0  1  0  0  0  0  0  0
  190.3890  177.6180  138.4130 N   0  0  0  0  0  2  0  0  0  0  0  0
  189.1420  177.3250  137.7110 C   0  0  0  0  0  2  0  0  0  0  0  0
  189.0260  179.6850  137.3590 O   0  0  0  0  0  1  0  0  0  0  0  0
  188.8120  178.4520  136.7440 C   0  0  2  0  0  3  0  0  0  0  0  0
  187.3780  178.3560  136.2170 C   0  0  0  0  0  2  0  0  0  0  0  0
  185.9820  178.7750  138.2460 O   0  0  0  0  0  1  0  0  0  0  0  0
  186.4120  177.8950  137.2610 C   0  0  0  0  0  0  0  0  0  0  0  0
  185.9690  176.7180  137.2340 O   0  0  0  0  0  0  0  0  0  0  0  0
  1 13  1  0  0  0  0
  1  5  2  0  0  0  0
  2  8  2  0  0  0  0
  2  6  1  0  0  0  0
  3 12  1  0  0  0  0
  3  8  1  0  0  0  0
  4 15  2  0  0  0  0
  4 18  1  0  0  0  0
  6 11  2  0  0  0  0
  7 18  1  0  0  0  0
  8  1  1  0  0  0  0
  9  7  1  0  0  0  0
 10  4  1  0  0  0  0
 11  5  1  0  0  0  0
 12 19  1  0  0  0  0
 14  2  1  0  0  0  0
 15 16  1  0  0  0  0
 16 22  1  0  0  0  0
 16 12  2  0  0  0  0
 17 27  1  6  0  0  0
 17 10  1  0  0  0  0
 17  9  1  0  0  0  0
 18  3  2  0  0  0  0
 19 13  2  0  0  0  0
 20 21  1  0  0  0  0
 21 23  2  0  0  0  0
 22 25  2  0  0  0  0
 24 20  2  0  0  0  0
 24 22  1  0  0  0  0
 25 23  1  0  0  0  0
 26 20  1  0  0  0  0
 28 27  1  0  0  0  0
 30 29  1  1  0  0  0
 30 28  1  0  0  0  0
 31 30  1  0  0  0  0
 31 33  1  0  0  0  0
 33 32  1  0  0  0  0
 34 33  2  0  0  0  0
M  END
>  <MODEL>
1

>  <REMARK>
 VINA RESULT:     -11.2      0.000      0.000
  Name = 
  6 active torsions:
  status: ('A' for Active; 'I' for Inactive)
    1  A    between atoms: N_3  and  C_13
    2  A    between atoms: N_3  and  C_29
    3  A    between atoms: C_12  and  C_28
    4  A    between atoms: C_13  and  C_33
    5  A    between atoms: C_20  and  C_22
    6  A    between atoms: C_22  and  C_33
                            x       y       z     vdW  Elec       q    Type
                         _______ _______ _______ _____ _____    ______ ____

>  <TORSDO>
F 6

$$$$
=
 OpenBabel11052414243D

 34 38  0  0  1  0  0  0  0  0999 V2000
  189.6760  177.3430  146.5750 C   0  0  0  0  0  0  0  0  0  0  0  0
  191.1870  176.1140  145.1270 C   0  0  0  0  0  0  0  0  0  0  0  0
  189.1700  177.2890  144.1710 C   0  0  0  0  0  0  0  0  0  0  0  0
  188.6080  177.5130  141.8050 C   0  0  0  0  0  0  0  0  0  0  0  0
  190.5350  177.1220  147.6530 C   0  0  0  0  0  3  0  0  0  0  0  0
  192.0290  175.8920  146.2200 C   0  0  0  0  0  3  0  0  0  0  0  0
  191.0340  177.4250  142.4280 C   0  0  0  0  0  2  0  0  0  0  0  0
  190.0330  176.9340  145.2620 C   0  0  0  0  0  0  0  0  0  0  0  0
  191.3190  176.9330  141.0180 C   0  0  0  0  0  2  0  0  0  0  0  0
  188.9370  177.3760  140.3430 C   0  0  0  0  0  2  0  0  0  0  0  0
  191.7230  176.4190  147.4720 C   0  0  0  0  0  3  0  0  0  0  0  0
  187.8550  177.7480  144.4730 C   0  0  0  0  0  0  0  0  0  0  0  0
  188.4370  177.9180  146.8240 C   0  0  0  0  0  3  0  0  0  0  0  0
  191.4290  175.3900  144.0080 F   0  0  0  0  0  0  0  0  0  0  0  0
  187.3280  177.7900  142.1430 N   0  0  0  0  0  0  0  0  0  0  0  0
  186.9170  177.9380  143.4280 C   0  0  0  0  0  0  0  0  0  0  0  0
  190.4070  177.6700  140.0440 C   0  0  2  0  0  3  0  0  0  0  0  0
  189.5770  177.2910  142.8080 C   0  0  0  0  0  0  0  0  0  0  0  0
  187.5270  178.0860  145.7910 C   0  0  0  0  0  3  0  0  0  0  0  0
  183.2550  178.6340  142.7590 C   0  0  0  0  0  0  0  0  0  0  0  0
  182.7710  178.8890  144.0450 C   0  0  0  0  0  3  0  0  0  0  0  0
  185.4920  178.2980  143.6570 C   0  0  0  0  0  0  0  0  0  0  0  0
  183.6380  178.8400  145.1390 C   0  0  0  0  0  3  0  0  0  0  0  0
  184.6070  178.3350  142.5690 C   0  0  0  0  0  3  0  0  0  0  0  0
  184.9890  178.5410  144.9460 C   0  0  0  0  0  3  0  0  0  0  0  0
  182.3720  178.6770  141.6460 N   0  0  0  0  0  1  0  0  0  0  0  0
  190.7490  177.3840  138.6490 N   0  0  0  0  0  2  0  0  0  0  0  0
  191.9630  176.5760  138.5670 C   0  0  0  0  0  2  0  0  0  0  0  0
  190.6010  174.7070  137.9710 O   0  0  0  0  0  1  0  0  0  0  0  0
  191.7510  175.4110  137.6130 C   0  0  2  0  0  3  0  0  0  0  0  0
  192.9620  174.4760  137.5690 C   0  0  0  0  0  2  0  0  0  0  0  0
  195.0910  175.1310  138.6990 O   0  0  0  0  0  1  0  0  0  0  0  0
  194.2610  175.2160  137.5890 C   0  0  0  0  0  0  0  0  0  0  0  0
  194.6140  175.8950  136.5910 O   0  0  0  0  0  0  0  0  0  0  0  0
  1 13  1  0  0  0  0
  1  5  2  0  0  0  0
  2  8  2  0  0  0  0
  2  6  1  0  0  0  0
  3 12  1  0  0  0  0
  3  8  1  0  0  0  0
  4 15  2  0  0  0  0
  4 18  1  0  0  0  0
  6 11  2  0  0  0  0
  7 18  1  0  0  0  0
  8  1  1  0  0  0  0
  9  7  1  0  0  0  0
 10  4  1  0  0  0  0
 11  5  1  0  0  0  0
 12 19  1  0  0  0  0
 14  2  1  0  0  0  0
 15 16  1  0  0  0  0
 16 22  1  0  0  0  0
 16 12  2  0  0  0  0
 17 27  1  6  0  0  0
 17 10  1  0  0  0  0
 17  9  1  0  0  0  0
 18  3  2  0  0  0  0
 19 13  2  0  0  0  0
 20 21  1  0  0  0  0
 21 23  2  0  0  0  0
 22 25  2  0  0  0  0
 24 20  2  0  0  0  0
 24 22  1  0  0  0  0
 25 23  1  0  0  0  0
 26 20  1  0  0  0  0
 28 27  1  0  0  0  0
 30 29  1  1  0  0  0
 30 28  1  0  0  0  0
 31 33  1  0  0  0  0
 31 30  1  0  0  0  0
 33 32  1  0  0  0  0
 34 33  2  0  0  0  0
M  END
>  <MODEL>
2

>  <REMARK>
 VINA RESULT:     -10.9      2.384      3.198
  Name = 
  6 active torsions:
  status: ('A' for Active; 'I' for Inactive)
    1  A    between atoms: N_3  and  C_13
    2  A    between atoms: N_3  and  C_29
    3  A    between atoms: C_12  and  C_28
    4  A    between atoms: C_13  and  C_33
    5  A    between atoms: C_20  and  C_22
    6  A    between atoms: C_22  and  C_33
                            x       y       z     vdW  Elec       q    Type
                         _______ _______ _______ _____ _____    ______ ____

>  <TORSDO>
F 6

$$$$
=
 OpenBabel11052414243D

 34 38  0  0  1  0  0  0  0  0999 V2000
  186.9910  178.3020  146.9820 C   0  0  0  0  0  0  0  0  0  0  0  0
  188.9050  177.1270  146.0630 C   0  0  0  0  0  0  0  0  0  0  0  0
  187.0970  178.0140  144.5440 C   0  0  0  0  0  0  0  0  0  0  0  0
  187.1170  177.9980  142.1010 C   0  0  0  0  0  0  0  0  0  0  0  0
  187.5740  178.2530  148.2500 C   0  0  0  0  0  3  0  0  0  0  0  0
  189.4680  177.0770  147.3410 C   0  0  0  0  0  3  0  0  0  0  0  0
  189.3140  178.2070  143.2890 C   0  0  0  0  0  2  0  0  0  0  0  0
  187.6910  177.8330  145.8380 C   0  0  0  0  0  0  0  0  0  0  0  0
  189.9760  177.6400  142.0420 C   0  0  0  0  0  2  0  0  0  0  0  0
  187.8050  177.7850  140.7800 C   0  0  0  0  0  2  0  0  0  0  0  0
  188.8220  177.6630  148.4260 C   0  0  0  0  0  3  0  0  0  0  0  0
  185.7150  178.3570  144.4780 C   0  0  0  0  0  0  0  0  0  0  0  0
  185.6860  178.7640  146.8720 C   0  0  0  0  0  3  0  0  0  0  0  0
  189.4730  176.3490  145.1100 F   0  0  0  0  0  0  0  0  0  0  0  0
  185.7750  178.1680  142.0970 N   0  0  0  0  0  0  0  0  0  0  0  0
  185.0500  178.3700  143.2270 C   0  0  0  0  0  0  0  0  0  0  0  0
  189.2750  178.2040  140.8120 C   0  0  2  0  0  3  0  0  0  0  0  0
  187.8240  177.9540  143.3230 C   0  0  0  0  0  0  0  0  0  0  0  0
  185.0470  178.7590  145.6400 C   0  0  0  0  0  3  0  0  0  0  0  0
  181.6480  178.7900  141.6180 C   0  0  0  0  0  0  0  0  0  0  0  0
  180.8190  178.9410  142.7320 C   0  0  0  0  0  3  0  0  0  0  0  0
  183.5890  178.5980  143.0740 C   0  0  0  0  0  0  0  0  0  0  0  0
  181.3660  178.9120  144.0170 C   0  0  0  0  0  3  0  0  0  0  0  0
  183.0240  178.6130  141.7890 C   0  0  0  0  0  3  0  0  0  0  0  0
  182.7420  178.7370  144.1870 C   0  0  0  0  0  3  0  0  0  0  0  0
  181.0910  178.8120  140.3100 N   0  0  0  0  0  1  0  0  0  0  0  0
  189.9700  177.8490  139.5730 N   0  0  0  0  0  2  0  0  0  0  0  0
  189.0290  177.3510  138.5730 C   0  0  0  0  0  2  0  0  0  0  0  0
  189.0550  179.6060  137.7850 O   0  0  0  0  0  1  0  0  0  0  0  0
  189.0140  178.2750  137.3660 C   0  0  2  0  0  3  0  0  0  0  0  0
  187.7970  178.0310  136.4690 C   0  0  0  0  0  2  0  0  0  0  0  0
  185.9810  178.7940  138.0050 O   0  0  0  0  0  1  0  0  0  0  0  0
  186.5490  177.7750  137.2520 C   0  0  0  0  0  0  0  0  0  0  0  0
  185.9990  176.6450  137.2090 O   0  0  0  0  0  0  0  0  0  0  0  0
  1  5  2  0  0  0  0
  2  6  1  0  0  0  0
  3  8  1  0  0  0  0
  4 18  1  0  0  0  0
  5 11  1  0  0  0  0
  6 11  2  0  0  0  0
  7 18  1  0  0  0  0
  8  2  2  0  0  0  0
  8  1  1  0  0  0  0
  9  7  1  0  0  0  0
 10 17  1  0  0  0  0
 10  4  1  0  0  0  0
 12  3  1  0  0  0  0
 12 19  1  0  0  0  0
 13  1  1  0  0  0  0
 14  2  1  0  0  0  0
 15  4  2  0  0  0  0
 15 16  1  0  0  0  0
 16 12  2  0  0  0  0
 17 27  1  6  0  0  0
 17  9  1  0  0  0  0
 18  3  2  0  0  0  0
 19 13  2  0  0  0  0
 20 24  2  0  0  0  0
 20 21  1  0  0  0  0
 21 23  2  0  0  0  0
 22 16  1  0  0  0  0
 22 25  2  0  0  0  0
 23 25  1  0  0  0  0
 24 22  1  0  0  0  0
 26 20  1  0  0  0  0
 28 27  1  0  0  0  0
 30 29  1  1  0  0  0
 30 28  1  0  0  0  0
 31 33  1  0  0  0  0
 31 30  1  0  0  0  0
 33 32  1  0  0  0  0
 34 33  2  0  0  0  0
M  END
>  <MODEL>
3

>  <REMARK>
 VINA RESULT:     -10.9      1.391      2.181
  Name = 
  6 active torsions:
  status: ('A' for Active; 'I' for Inactive)
    1  A    between atoms: N_3  and  C_13
    2  A    between atoms: N_3  and  C_29
    3  A    between atoms: C_12  and  C_28
    4  A    between atoms: C_13  and  C_33
    5  A    between atoms: C_20  and  C_22
    6  A    between atoms: C_22  and  C_33
                            x       y       z     vdW  Elec       q    Type
                         _______ _______ _______ _____ _____    ______ ____

>  <TORSDO>
F 6

$$$$
=
 OpenBabel11052414243D

 34 38  0  0  1  0  0  0  0  0999 V2000
  188.8170  177.1780  146.0890 C   0  0  0  0  0  0  0  0  0  0  0  0
  186.9930  178.5240  146.9520 C   0  0  0  0  0  0  0  0  0  0  0  0
  187.1400  177.9970  144.4900 C   0  0  0  0  0  0  0  0  0  0  0  0
  185.4810  178.5510  142.7860 C   0  0  0  0  0  0  0  0  0  0  0  0
  189.2590  176.9460  147.3930 C   0  0  0  0  0  3  0  0  0  0  0  0
  187.4550  178.2910  148.2500 C   0  0  0  0  0  3  0  0  0  0  0  0
  184.6620  178.0820  145.1070 C   0  0  0  0  0  2  0  0  0  0  0  0
  187.6110  177.8870  145.8420 C   0  0  0  0  0  0  0  0  0  0  0  0
  183.4290  178.9090  144.7770 C   0  0  0  0  0  2  0  0  0  0  0  0
  184.1250  179.0490  142.3640 C   0  0  0  0  0  2  0  0  0  0  0  0
  188.5650  177.4810  148.4750 C   0  0  0  0  0  3  0  0  0  0  0  0
  188.0420  177.6780  143.4330 C   0  0  0  0  0  0  0  0  0  0  0  0
  189.6160  176.7530  145.0350 C   0  0  0  0  0  3  0  0  0  0  0  0
  186.0570  179.4930  146.7980 F   0  0  0  0  0  0  0  0  0  0  0  0
  186.4220  178.3870  141.8280 N   0  0  0  0  0  0  0  0  0  0  0  0
  187.6770  177.9420  142.0900 C   0  0  0  0  0  0  0  0  0  0  0  0
  183.0210  178.6300  143.3350 C   0  0  2  0  0  3  0  0  0  0  0  0
  185.8000  178.3230  144.1420 C   0  0  0  0  0  0  0  0  0  0  0  0
  189.2480  177.0310  143.7260 C   0  0  0  0  0  3  0  0  0  0  0  0
  189.2710  178.3840  138.6840 C   0  0  0  0  0  0  0  0  0  0  0  0
  190.3530  177.5030  138.7560 C   0  0  0  0  0  3  0  0  0  0  0  0
  188.5960  177.7550  140.9360 C   0  0  0  0  0  0  0  0  0  0  0  0
  190.5670  176.7540  139.9160 C   0  0  0  0  0  3  0  0  0  0  0  0
  188.4020  178.5120  139.7700 C   0  0  0  0  0  3  0  0  0  0  0  0
  189.6960  176.8840  141.0010 C   0  0  0  0  0  3  0  0  0  0  0  0
  189.0570  179.1510  137.5070 N   0  0  0  0  0  1  0  0  0  0  0  0
  181.7360  179.2490  143.0000 N   0  0  0  0  0  2  0  0  0  0  0  0
  181.0780  178.5250  141.9160 C   0  0  0  0  0  2  0  0  0  0  0  0
  179.6600  179.4080  140.2080 O   0  0  0  0  0  1  0  0  0  0  0  0
  180.9720  179.4120  140.6860 C   0  0  2  0  0  3  0  0  0  0  0  0
  181.9460  178.9880  139.5840 C   0  0  0  0  0  2  0  0  0  0  0  0
  182.0710  181.2300  138.4880 O   0  0  0  0  0  0  0  0  0  0  0  0
  182.7300  180.1370  139.0370 C   0  0  0  0  0  0  0  0  0  0  0  0
  183.9870  180.1270  139.0940 O   0  0  0  0  0  1  0  0  0  0  0  0
  1  5  2  0  0  0  0
  2  6  1  0  0  0  0
  3  8  1  0  0  0  0
  4 18  2  0  0  0  0
  5 11  1  0  0  0  0
  6 11  2  0  0  0  0
  8  1  1  0  0  0  0
  8  2  2  0  0  0  0
  9  7  1  0  0  0  0
 10  4  1  0  0  0  0
 10 17  1  0  0  0  0
 12 19  1  0  0  0  0
 12  3  2  0  0  0  0
 13  1  1  0  0  0  0
 14  2  1  0  0  0  0
 15 16  2  0  0  0  0
 15  4  1  0  0  0  0
 16 12  1  0  0  0  0
 17 27  1  6  0  0  0
 17  9  1  0  0  0  0
 18  3  1  0  0  0  0
 18  7  1  0  0  0  0
 19 13  2  0  0  0  0
 20 21  2  0  0  0  0
 20 24  1  0  0  0  0
 21 23  1  0  0  0  0
 22 25  1  0  0  0  0
 22 16  1  0  0  0  0
 23 25  2  0  0  0  0
 24 22  2  0  0  0  0
 26 20  1  0  0  0  0
 28 27  1  0  0  0  0
 30 29  1  6  0  0  0
 30 28  1  0  0  0  0
 31 30  1  0  0  0  0
 32 33  2  0  0  0  0
 33 34  1  0  0  0  0
 33 31  1  0  0  0  0
M  END
>  <MODEL>
4

>  <REMARK>
 VINA RESULT:     -10.7      2.489      6.073
  Name = 
  6 active torsions:
  status: ('A' for Active; 'I' for Inactive)
    1  A    between atoms: N_3  and  C_13
    2  A    between atoms: N_3  and  C_29
    3  A    between atoms: C_12  and  C_28
    4  A    between atoms: C_13  and  C_33
    5  A    between atoms: C_20  and  C_22
    6  A    between atoms: C_22  and  C_33
                            x       y       z     vdW  Elec       q    Type
                         _______ _______ _______ _____ _____    ______ ____

>  <TORSDO>
F 6

$$$$
=
 OpenBabel11052414243D

 34 38  0  0  1  0  0  0  0  0999 V2000
  187.1700  178.2930  146.9740 C   0  0  0  0  0  0  0  0  0  0  0  0
  189.0910  177.1250  146.0610 C   0  0  0  0  0  0  0  0  0  0  0  0
  187.2860  178.0080  144.5360 C   0  0  0  0  0  0  0  0  0  0  0  0
  187.3150  177.9950  142.0940 C   0  0  0  0  0  0  0  0  0  0  0  0
  187.7490  178.2440  148.2440 C   0  0  0  0  0  3  0  0  0  0  0  0
  189.6500  177.0750  147.3410 C   0  0  0  0  0  3  0  0  0  0  0  0
  189.5070  178.2100  143.2890 C   0  0  0  0  0  2  0  0  0  0  0  0
  187.8760  177.8270  145.8320 C   0  0  0  0  0  0  0  0  0  0  0  0
  190.1740  177.6470  142.0440 C   0  0  0  0  0  2  0  0  0  0  0  0
  188.0070  177.7860  140.7750 C   0  0  0  0  0  2  0  0  0  0  0  0
  188.9990  177.6580  148.4240 C   0  0  0  0  0  3  0  0  0  0  0  0
  185.9030  178.3470  144.4660 C   0  0  0  0  0  0  0  0  0  0  0  0
  185.8650  178.7510  146.8600 C   0  0  0  0  0  3  0  0  0  0  0  0
  189.6650  176.3500  145.1090 F   0  0  0  0  0  0  0  0  0  0  0  0
  185.9720  178.1610  142.0860 N   0  0  0  0  0  0  0  0  0  0  0  0
  185.2430  178.3590  143.2130 C   0  0  0  0  0  0  0  0  0  0  0  0
  189.4760  178.2100  140.8130 C   0  0  2  0  0  3  0  0  0  0  0  0
  188.0180  177.9520  143.3180 C   0  0  0  0  0  0  0  0  0  0  0  0
  185.2290  178.7450  145.6270 C   0  0  0  0  0  3  0  0  0  0  0  0
  181.8240  178.6520  141.6090 C   0  0  0  0  0  0  0  0  0  0  0  0
  181.0100  178.9130  142.7130 C   0  0  0  0  0  3  0  0  0  0  0  0
  183.7810  178.5830  143.0550 C   0  0  0  0  0  0  0  0  0  0  0  0
  181.5720  179.0000  143.9890 C   0  0  0  0  0  3  0  0  0  0  0  0
  183.2010  178.4820  141.7810 C   0  0  0  0  0  3  0  0  0  0  0  0
  182.9480  178.8310  144.1590 C   0  0  0  0  0  3  0  0  0  0  0  0
  181.2530  178.5550  140.3110 N   0  0  0  0  0  1  0  0  0  0  0  0
  190.1770  177.8580  139.5760 N   0  0  0  0  0  2  0  0  0  0  0  0
  190.3410  176.4110  139.4650 C   0  0  0  0  0  2  0  0  0  0  0  0
  189.8320  175.1630  137.4930 O   0  0  0  0  0  1  0  0  0  0  0  0
  190.7620  176.0410  138.0510 C   0  0  2  0  0  3  0  0  0  0  0  0
  192.1660  175.4340  138.0100 C   0  0  0  0  0  2  0  0  0  0  0  0
  193.5750  177.1140  139.2070 O   0  0  0  0  0  1  0  0  0  0  0  0
  193.2420  176.4730  138.0220 C   0  0  0  0  0  0  0  0  0  0  0  0
  193.8630  176.7490  136.9630 O   0  0  0  0  0  0  0  0  0  0  0  0
  1  5  2  0  0  0  0
  2  6  1  0  0  0  0
  3  8  1  0  0  0  0
  4 18  1  0  0  0  0
  5 11  1  0  0  0  0
  6 11  2  0  0  0  0
  7 18  1  0  0  0  0
  8  2  2  0  0  0  0
  8  1  1  0  0  0  0
  9  7  1  0  0  0  0
 10 17  1  0  0  0  0
 10  4  1  0  0  0  0
 12  3  1  0  0  0  0
 12 19  1  0  0  0  0
 13  1  1  0  0  0  0
 14  2  1  0  0  0  0
 15  4  2  0  0  0  0
 15 16  1  0  0  0  0
 16 12  2  0  0  0  0
 17 27  1  6  0  0  0
 17  9  1  0  0  0  0
 18  3  2  0  0  0  0
 19 13  2  0  0  0  0
 20 24  2  0  0  0  0
 20 21  1  0  0  0  0
 21 23  2  0  0  0  0
 22 16  1  0  0  0  0
 22 25  2  0  0  0  0
 23 25  1  0  0  0  0
 24 22  1  0  0  0  0
 26 20  1  0  0  0  0
 28 27  1  0  0  0  0
 30 29  1  1  0  0  0
 30 28  1  0  0  0  0
 31 33  1  0  0  0  0
 31 30  1  0  0  0  0
 33 32  1  0  0  0  0
 34 33  2  0  0  0  0
M  END
>  <MODEL>
5

>  <REMARK>
 VINA RESULT:     -10.6      2.273      3.373
  Name = 
  6 active torsions:
  status: ('A' for Active; 'I' for Inactive)
    1  A    between atoms: N_3  and  C_13
    2  A    between atoms: N_3  and  C_29
    3  A    between atoms: C_12  and  C_28
    4  A    between atoms: C_13  and  C_33
    5  A    between atoms: C_20  and  C_22
    6  A    between atoms: C_22  and  C_33
                            x       y       z     vdW  Elec       q    Type
                         _______ _______ _______ _____ _____    ______ ____

>  <TORSDO>
F 6

$$$$
=
 OpenBabel11052414243D

 34 38  0  0  1  0  0  0  0  0999 V2000
  191.1070  176.3160  145.1240 C   0  0  0  0  0  0  0  0  0  0  0  0
  189.8190  177.5770  146.7480 C   0  0  0  0  0  0  0  0  0  0  0  0
  189.0260  177.3780  144.3620 C   0  0  0  0  0  0  0  0  0  0  0  0
  186.9050  178.1930  143.4660 C   0  0  0  0  0  0  0  0  0  0  0  0
  191.9740  175.9020  146.1370 C   0  0  0  0  0  3  0  0  0  0  0  0
  190.7040  177.1630  147.7480 C   0  0  0  0  0  3  0  0  0  0  0  0
  186.9540  177.4390  145.8550 C   0  0  0  0  0  2  0  0  0  0  0  0
  189.9460  177.0790  145.4230 C   0  0  0  0  0  0  0  0  0  0  0  0
  185.7460  178.3310  146.1000 C   0  0  0  0  0  2  0  0  0  0  0  0
  185.5280  178.7740  143.6340 C   0  0  0  0  0  2  0  0  0  0  0  0
  191.7590  176.3040  147.4530 C   0  0  0  0  0  3  0  0  0  0  0  0
  189.4590  177.1820  143.0180 C   0  0  0  0  0  0  0  0  0  0  0  0
  191.4370  176.0160  143.8090 C   0  0  0  0  0  3  0  0  0  0  0  0
  188.9630  178.5790  147.0620 F   0  0  0  0  0  0  0  0  0  0  0  0
  187.4210  178.1360  142.2160 N   0  0  0  0  0  0  0  0  0  0  0  0
  188.6510  177.6310  141.9440 C   0  0  0  0  0  0  0  0  0  0  0  0
  184.8240  178.2560  144.8890 C   0  0  2  0  0  3  0  0  0  0  0  0
  187.6780  177.7790  144.5730 C   0  0  0  0  0  0  0  0  0  0  0  0
  190.6400  176.4740  142.7690 C   0  0  0  0  0  3  0  0  0  0  0  0
  188.7150  178.2610  138.2110 C   0  0  0  0  0  0  0  0  0  0  0  0
  189.8720  177.5800  137.8240 C   0  0  0  0  0  3  0  0  0  0  0  0
  189.0730  177.5770  140.5190 C   0  0  0  0  0  0  0  0  0  0  0  0
  190.6370  176.9060  138.7790 C   0  0  0  0  0  3  0  0  0  0  0  0
  188.3220  178.2630  139.5520 C   0  0  0  0  0  3  0  0  0  0  0  0
  190.2420  176.9100  140.1190 C   0  0  0  0  0  3  0  0  0  0  0  0
  187.9400  178.9530  137.2410 N   0  0  0  0  0  1  0  0  0  0  0  0
  183.5530  178.9440  145.1250 N   0  0  0  0  0  2  0  0  0  0  0  0
  183.1720  179.7430  143.9630 C   0  0  0  0  0  2  0  0  0  0  0  0
  182.5710  178.9590  141.7880 O   0  0  0  0  0  1  0  0  0  0  0  0
  182.1560  178.9870  143.1210 C   0  0  2  0  0  3  0  0  0  0  0  0
  180.7530  179.5880  143.2350 C   0  0  0  0  0  2  0  0  0  0  0  0
  179.3400  177.6400  142.5640 O   0  0  0  0  0  0  0  0  0  0  0  0
  179.7110  178.5590  143.5360 C   0  0  0  0  0  0  0  0  0  0  0  0
  179.1860  178.5100  144.6790 O   0  0  0  0  0  1  0  0  0  0  0  0
  1  8  1  0  0  0  0
  1  5  2  0  0  0  0
  2 14  1  0  0  0  0
  2  6  1  0  0  0  0
  3 18  1  0  0  0  0
  3  8  1  0  0  0  0
  4 10  1  0  0  0  0
  4 18  2  0  0  0  0
  5 11  1  0  0  0  0
  7  9  1  0  0  0  0
  8  2  2  0  0  0  0
 10 17  1  0  0  0  0
 11  6  2  0  0  0  0
 12  3  2  0  0  0  0
 13  1  1  0  0  0  0
 15  4  1  0  0  0  0
 16 15  2  0  0  0  0
 16 12  1  0  0  0  0
 17 27  1  1  0  0  0
 17  9  1  0  0  0  0
 18  7  1  0  0  0  0
 19 12  1  0  0  0  0
 19 13  2  0  0  0  0
 20 24  1  0  0  0  0
 21 20  2  0  0  0  0
 21 23  1  0  0  0  0
 22 16  1  0  0  0  0
 23 25  2  0  0  0  0
 24 22  2  0  0  0  0
 25 22  1  0  0  0  0
 26 20  1  0  0  0  0
 28 27  1  0  0  0  0
 30 29  1  6  0  0  0
 30 31  1  0  0  0  0
 30 28  1  0  0  0  0
 31 33  1  0  0  0  0
 32 33  2  0  0  0  0
 33 34  1  0  0  0  0
M  END
>  <MODEL>
6

>  <REMARK>
 VINA RESULT:     -10.5      2.751      6.314
  Name = 
  6 active torsions:
  status: ('A' for Active; 'I' for Inactive)
    1  A    between atoms: N_3  and  C_13
    2  A    between atoms: N_3  and  C_29
    3  A    between atoms: C_12  and  C_28
    4  A    between atoms: C_13  and  C_33
    5  A    between atoms: C_20  and  C_22
    6  A    between atoms: C_22  and  C_33
                            x       y       z     vdW  Elec       q    Type
                         _______ _______ _______ _____ _____    ______ ____

>  <TORSDO>
F 6

$$$$
=
 OpenBabel11052414243D

 34 38  0  0  1  0  0  0  0  0999 V2000
  188.8930  177.1720  146.0950 C   0  0  0  0  0  0  0  0  0  0  0  0
  187.0920  178.5030  147.0280 C   0  0  0  0  0  0  0  0  0  0  0  0
  187.1630  177.9980  144.5580 C   0  0  0  0  0  0  0  0  0  0  0  0
  185.4480  178.5610  142.9120 C   0  0  0  0  0  0  0  0  0  0  0  0
  189.3770  176.9300  147.3820 C   0  0  0  0  0  3  0  0  0  0  0  0
  187.5960  178.2600  148.3090 C   0  0  0  0  0  3  0  0  0  0  0  0
  184.7060  178.0680  145.2540 C   0  0  0  0  0  2  0  0  0  0  0  0
  187.6770  177.8780  145.8930 C   0  0  0  0  0  0  0  0  0  0  0  0
  183.4600  178.8930  144.9700 C   0  0  0  0  0  2  0  0  0  0  0  0
  184.0790  179.0580  142.5380 C   0  0  0  0  0  2  0  0  0  0  0  0
  188.7150  177.4520  148.4900 C   0  0  0  0  0  3  0  0  0  0  0  0
  188.0320  177.6920  143.4700 C   0  0  0  0  0  0  0  0  0  0  0  0
  189.6590  176.7590  145.0130 C   0  0  0  0  0  3  0  0  0  0  0  0
  186.1490  179.4690  146.9120 F   0  0  0  0  0  0  0  0  0  0  0  0
  186.3600  178.4100  141.9230 N   0  0  0  0  0  0  0  0  0  0  0  0
  187.6240  177.9680  142.1420 C   0  0  0  0  0  0  0  0  0  0  0  0
  183.0070  178.6270  143.5400 C   0  0  2  0  0  3  0  0  0  0  0  0
  185.8110  178.3230  144.2550 C   0  0  0  0  0  0  0  0  0  0  0  0
  189.2500  177.0470  143.7190 C   0  0  0  0  0  3  0  0  0  0  0  0
  189.1620  178.5020  138.7230 C   0  0  0  0  0  0  0  0  0  0  0  0
  190.2000  177.5670  138.7240 C   0  0  0  0  0  3  0  0  0  0  0  0
  188.5060  177.7940  140.9570 C   0  0  0  0  0  0  0  0  0  0  0  0
  190.4010  176.7510  139.8400 C   0  0  0  0  0  3  0  0  0  0  0  0
  188.3240  178.6180  139.8360 C   0  0  0  0  0  3  0  0  0  0  0  0
  189.5630  176.8680  140.9520 C   0  0  0  0  0  3  0  0  0  0  0  0
  188.9600  179.3380  137.5910 N   0  0  0  0  0  1  0  0  0  0  0  0
  181.7100  179.2430  143.2510 N   0  0  0  0  0  2  0  0  0  0  0  0
  181.2350  178.8560  141.9250 C   0  0  0  0  0  2  0  0  0  0  0  0
  179.5840  177.8740  143.3460 O   0  0  0  0  0  1  0  0  0  0  0  0
  179.8430  178.2500  142.0270 C   0  0  2  0  0  3  0  0  0  0  0  0
  179.6640  177.0590  141.0830 C   0  0  0  0  0  2  0  0  0  0  0  0
  179.3090  178.3930  139.0010 O   0  0  0  0  0  0  0  0  0  0  0  0
  180.0050  177.3920  139.6660 C   0  0  0  0  0  0  0  0  0  0  0  0
  180.9390  176.7830  139.0830 O   0  0  0  0  0  1  0  0  0  0  0  0
  1  5  2  0  0  0  0
  2  6  1  0  0  0  0
  3  8  1  0  0  0  0
  4 18  2  0  0  0  0
  5 11  1  0  0  0  0
  6 11  2  0  0  0  0
  8  1  1  0  0  0  0
  8  2  2  0  0  0  0
  9  7  1  0  0  0  0
 10  4  1  0  0  0  0
 10 17  1  0  0  0  0
 12 19  1  0  0  0  0
 12  3  2  0  0  0  0
 13  1  1  0  0  0  0
 14  2  1  0  0  0  0
 15 16  2  0  0  0  0
 15  4  1  0  0  0  0
 16 12  1  0  0  0  0
 17 27  1  6  0  0  0
 17  9  1  0  0  0  0
 18  3  1  0  0  0  0
 18  7  1  0  0  0  0
 19 13  2  0  0  0  0
 20 21  2  0  0  0  0
 20 24  1  0  0  0  0
 21 23  1  0  0  0  0
 22 16  1  0  0  0  0
 23 25  2  0  0  0  0
 24 22  2  0  0  0  0
 25 22  1  0  0  0  0
 26 20  1  0  0  0  0
 28 30  1  0  0  0  0
 28 27  1  0  0  0  0
 30 29  1  1  0  0  0
 31 30  1  0  0  0  0
 32 33  2  0  0  0  0
 33 31  1  0  0  0  0
 34 33  1  0  0  0  0
M  END
>  <MODEL>
7

>  <REMARK>
 VINA RESULT:     -10.4      2.932      6.445
  Name = 
  6 active torsions:
  status: ('A' for Active; 'I' for Inactive)
    1  A    between atoms: N_3  and  C_13
    2  A    between atoms: N_3  and  C_29
    3  A    between atoms: C_12  and  C_28
    4  A    between atoms: C_13  and  C_33
    5  A    between atoms: C_20  and  C_22
    6  A    between atoms: C_22  and  C_33
                            x       y       z     vdW  Elec       q    Type
                         _______ _______ _______ _____ _____    ______ ____

>  <TORSDO>
F 6

$$$$
=
 OpenBabel11052414243D

 34 38  0  0  1  0  0  0  0  0999 V2000
  189.6230  177.2990  146.3670 C   0  0  0  0  0  0  0  0  0  0  0  0
  191.1010  176.1110  144.8540 C   0  0  0  0  0  0  0  0  0  0  0  0
  189.0690  177.3180  143.9730 C   0  0  0  0  0  0  0  0  0  0  0  0
  188.4600  177.6130  141.6270 C   0  0  0  0  0  0  0  0  0  0  0  0
  190.5030  177.0450  147.4210 C   0  0  0  0  0  3  0  0  0  0  0  0
  191.9650  175.8560  145.9220 C   0  0  0  0  0  3  0  0  0  0  0  0
  190.8970  177.5030  142.1980 C   0  0  0  0  0  2  0  0  0  0  0  0
  189.9530  176.9290  145.0350 C   0  0  0  0  0  0  0  0  0  0  0  0
  191.1520  177.0520  140.7680 C   0  0  0  0  0  2  0  0  0  0  0  0
  188.7580  177.5190  140.1550 C   0  0  0  0  0  2  0  0  0  0  0  0
  191.6860  176.3450  147.1950 C   0  0  0  0  0  3  0  0  0  0  0  0
  187.7610  177.7700  144.3150 C   0  0  0  0  0  0  0  0  0  0  0  0
  188.3910  177.8690  146.6590 C   0  0  0  0  0  3  0  0  0  0  0  0
  191.3200  175.4200  143.7080 F   0  0  0  0  0  0  0  0  0  0  0  0
  187.1870  177.8820  141.9990 N   0  0  0  0  0  0  0  0  0  0  0  0
  186.8020  177.9920  143.2960 C   0  0  0  0  0  0  0  0  0  0  0  0
  190.2230  177.8190  139.8360 C   0  0  2  0  0  3  0  0  0  0  0  0
  189.4480  177.3600  142.6030 C   0  0  0  0  0  0  0  0  0  0  0  0
  187.4600  178.0690  145.6490 C   0  0  0  0  0  3  0  0  0  0  0  0
  183.1120  178.6320  142.7380 C   0  0  0  0  0  0  0  0  0  0  0  0
  182.6720  178.9280  144.0300 C   0  0  0  0  0  3  0  0  0  0  0  0
  185.3830  178.3470  143.5640 C   0  0  0  0  0  0  0  0  0  0  0  0
  183.5790  178.9260  145.0930 C   0  0  0  0  0  3  0  0  0  0  0  0
  184.4590  178.3380  142.5080 C   0  0  0  0  0  3  0  0  0  0  0  0
  184.9260  178.6320  144.8610 C   0  0  0  0  0  3  0  0  0  0  0  0
  182.1890  178.6270  141.6570 N   0  0  0  0  0  1  0  0  0  0  0  0
  190.5360  177.5740  138.4260 N   0  0  0  0  0  2  0  0  0  0  0  0
  190.8430  176.1640  138.2000 C   0  0  0  0  0  2  0  0  0  0  0  0
  191.1150  175.2500  136.0100 O   0  0  0  0  0  1  0  0  0  0  0  0
  190.1590  175.6780  136.9320 C   0  0  2  0  0  3  0  0  0  0  0  0
  189.2600  176.7530  136.3150 C   0  0  0  0  0  2  0  0  0  0  0  0
  187.3940  175.3600  137.2190 O   0  0  0  0  0  1  0  0  0  0  0  0
  187.8070  176.4150  136.4170 C   0  0  0  0  0  0  0  0  0  0  0  0
  186.9560  177.1020  135.7950 O   0  0  0  0  0  0  0  0  0  0  0  0
  1 13  1  0  0  0  0
  1  5  2  0  0  0  0
  2  8  2  0  0  0  0
  2  6  1  0  0  0  0
  3 12  1  0  0  0  0
  3  8  1  0  0  0  0
  4 15  2  0  0  0  0
  4 18  1  0  0  0  0
  6 11  2  0  0  0  0
  7 18  1  0  0  0  0
  8  1  1  0  0  0  0
  9  7  1  0  0  0  0
 10  4  1  0  0  0  0
 11  5  1  0  0  0  0
 12 19  1  0  0  0  0
 14  2  1  0  0  0  0
 15 16  1  0  0  0  0
 16 22  1  0  0  0  0
 16 12  2  0  0  0  0
 17 27  1  6  0  0  0
 17 10  1  0  0  0  0
 17  9  1  0  0  0  0
 18  3  2  0  0  0  0
 19 13  2  0  0  0  0
 20 21  1  0  0  0  0
 21 23  2  0  0  0  0
 22 25  2  0  0  0  0
 24 20  2  0  0  0  0
 24 22  1  0  0  0  0
 25 23  1  0  0  0  0
 26 20  1  0  0  0  0
 28 27  1  0  0  0  0
 30 29  1  6  0  0  0
 30 28  1  0  0  0  0
 31 33  1  0  0  0  0
 31 30  1  0  0  0  0
 33 32  1  0  0  0  0
 34 33  2  0  0  0  0
M  END
>  <MODEL>
8

>  <REMARK>
 VINA RESULT:     -10.4      1.209      1.439
  Name = 
  6 active torsions:
  status: ('A' for Active; 'I' for Inactive)
    1  A    between atoms: N_3  and  C_13
    2  A    between atoms: N_3  and  C_29
    3  A    between atoms: C_12  and  C_28
    4  A    between atoms: C_13  and  C_33
    5  A    between atoms: C_20  and  C_22
    6  A    between atoms: C_22  and  C_33
                            x       y       z     vdW  Elec       q    Type
                         _______ _______ _______ _____ _____    ______ ____

>  <TORSDO>
F 6

$$$$
=
 OpenBabel11052414243D

 34 38  0  0  1  0  0  0  0  0999 V2000
  185.5880  177.9850  143.1870 C   0  0  0  0  0  0  0  0  0  0  0  0
  185.9800  178.8390  140.9490 C   0  0  0  0  0  0  0  0  0  0  0  0
  187.8520  177.7650  142.2550 C   0  0  0  0  0  0  0  0  0  0  0  0
  190.1020  177.2840  141.4370 C   0  0  0  0  0  0  0  0  0  0  0  0
  184.2260  178.2590  143.0490 C   0  0  0  0  0  3  0  0  0  0  0  0
  184.6150  179.1160  140.8330 C   0  0  0  0  0  3  0  0  0  0  0  0
  188.2140  177.1970  139.7910 C   0  0  0  0  0  2  0  0  0  0  0  0
  186.4840  178.1720  142.0990 C   0  0  0  0  0  0  0  0  0  0  0  0
  189.2350  177.4600  138.6950 C   0  0  0  0  0  2  0  0  0  0  0  0
  191.1210  177.1850  140.3350 C   0  0  0  0  0  2  0  0  0  0  0  0
  183.7350  178.8000  141.8640 C   0  0  0  0  0  3  0  0  0  0  0  0
  188.3290  177.4940  143.5710 C   0  0  0  0  0  0  0  0  0  0  0  0
  186.0590  177.5840  144.4300 C   0  0  0  0  0  3  0  0  0  0  0  0
  186.7980  179.3740  140.0110 F   0  0  0  0  0  0  0  0  0  0  0  0
  190.5380  177.1920  142.7140 N   0  0  0  0  0  0  0  0  0  0  0  0
  189.7100  177.2650  143.7870 C   0  0  0  0  0  0  0  0  0  0  0  0
  190.5140  176.6980  139.0190 C   0  0  2  0  0  3  0  0  0  0  0  0
  188.7390  177.5350  141.1680 C   0  0  0  0  0  0  0  0  0  0  0  0
  187.4170  177.3760  144.6260 C   0  0  0  0  0  3  0  0  0  0  0  0
  190.1990  177.4700  147.5370 C   0  0  0  0  0  0  0  0  0  0  0  0
  191.3680  176.7270  147.7160 C   0  0  0  0  0  3  0  0  0  0  0  0
  190.3150  177.0930  145.1350 C   0  0  0  0  0  0  0  0  0  0  0  0
  192.0080  176.1580  146.6130 C   0  0  0  0  0  3  0  0  0  0  0  0
  189.6730  177.6470  146.2540 C   0  0  0  0  0  3  0  0  0  0  0  0
  191.4810  176.3360  145.3310 C   0  0  0  0  0  3  0  0  0  0  0  0
  189.5420  178.0430  148.6600 N   0  0  0  0  0  1  0  0  0  0  0  0
  191.4790  176.7550  137.9190 N   0  0  0  0  0  2  0  0  0  0  0  0
  192.1390  175.4630  137.7400 C   0  0  0  0  0  2  0  0  0  0  0  0
  194.0870  176.5650  136.9040 O   0  0  0  0  0  1  0  0  0  0  0  0
  193.6470  175.6310  137.8420 C   0  0  2  0  0  3  0  0  0  0  0  0
  194.3870  174.3020  137.6650 C   0  0  0  0  0  2  0  0  0  0  0  0
  195.6880  175.0640  139.6560 O   0  0  0  0  0  1  0  0  0  0  0  0
  195.4200  174.0730  138.7210 C   0  0  0  0  0  0  0  0  0  0  0  0
  196.0290  172.9740  138.7790 O   0  0  0  0  0  0  0  0  0  0  0  0
  1 13  1  0  0  0  0
  2  8  1  0  0  0  0
  3 12  1  0  0  0  0
  4 15  2  0  0  0  0
  5  1  1  0  0  0  0
  6  2  2  0  0  0  0
  6 11  1  0  0  0  0
  7 18  1  0  0  0  0
  8  3  1  0  0  0  0
  8  1  2  0  0  0  0
  9 17  1  0  0  0  0
  9  7  1  0  0  0  0
 10  4  1  0  0  0  0
 11  5  2  0  0  0  0
 12 16  2  0  0  0  0
 12 19  1  0  0  0  0
 13 19  2  0  0  0  0
 14  2  1  0  0  0  0
 15 16  1  0  0  0  0
 16 22  1  0  0  0  0
 17 27  1  6  0  0  0
 17 10  1  0  0  0  0
 18  4  1  0  0  0  0
 18  3  2  0  0  0  0
 20 21  1  0  0  0  0
 20 26  1  0  0  0  0
 22 25  2  0  0  0  0
 22 24  1  0  0  0  0
 23 21  2  0  0  0  0
 24 20  2  0  0  0  0
 25 23  1  0  0  0  0
 28 30  1  0  0  0  0
 28 27  1  0  0  0  0
 30 29  1  6  0  0  0
 31 30  1  0  0  0  0
 31 33  1  0  0  0  0
 33 34  2  0  0  0  0
 33 32  1  0  0  0  0
M  END
>  <MODEL>
9

>  <REMARK>
 VINA RESULT:      -9.6      3.550      6.432
  Name = 
  6 active torsions:
  status: ('A' for Active; 'I' for Inactive)
    1  A    between atoms: N_3  and  C_13
    2  A    between atoms: N_3  and  C_29
    3  A    between atoms: C_12  and  C_28
    4  A    between atoms: C_13  and  C_33
    5  A    between atoms: C_20  and  C_22
    6  A    between atoms: C_22  and  C_33
                            x       y       z     vdW  Elec       q    Type
                         _______ _______ _______ _____ _____    ______ ____

>  <TORSDO>
F 6

$$$$
