=
 OpenBabel11052412403D

 25 27  0  0  1  0  0  0  0  0999 V2000
  187.3570  176.8810  144.5170 C   0  0  2  0  0  3  0  0  0  0  0  0
  188.3600  176.2650  143.5370 C   0  0  0  0  0  2  0  0  0  0  0  0
  189.0390  178.1270  146.0210 C   0  0  0  0  0  2  0  0  0  0  0  0
  186.7080  178.2050  144.0620 C   0  0  2  0  0  3  0  0  0  0  0  0
  184.7290  179.5340  144.6170 C   0  0  0  0  0  2  0  0  0  0  0  0
  190.2990  177.8070  145.2320 C   0  0  0  0  0  2  0  0  0  0  0  0
  185.6470  178.0320  146.3710 C   0  0  0  0  0  2  0  0  0  0  0  0
  186.0060  178.9580  145.2030 C   0  0  1  0  0  3  0  0  0  0  0  0
  190.7700  177.7190  142.7940 C   0  0  0  0  0  2  0  0  0  0  0  0
  191.2320  179.7940  144.0740 C   0  0  0  0  0  1  0  0  0  0  0  0
  188.0700  176.5820  142.2080 O   0  0  0  0  0  0  0  0  0  0  0  0
  184.6990  179.1450  143.1520 C   0  0  0  0  0  2  0  0  0  0  0  0
  187.9750  177.0240  145.9220 C   0  0  1  0  0  3  0  0  0  0  0  0
  186.8810  177.3270  146.9550 C   0  0  0  0  0  2  0  0  0  0  0  0
  188.9330  178.7820  141.0910 O   0  0  0  0  0  0  0  0  0  0  0  0
  185.6380  177.9700  143.0160 C   0  0  0  0  0  2  0  0  0  0  0  0
  189.4110  177.4420  141.5990 P   0  0  1  0  0  0  0  0  0  0  0  0
  190.3060  178.6040  143.9370 C   0  0  2  0  0  3  0  0  0  0  0  0
  190.0950  176.5110  140.1960 C   0  0  0  0  0  2  0  0  0  0  0  0
  189.3950  176.8680  138.9710 N   0  0  0  0  0  2  0  0  0  0  0  0
  190.0760  177.0780  137.7320 C   0  0  0  0  0  0  0  0  0  0  0  0
  191.3130  176.8600  137.6340 O   0  0  0  0  0  0  0  0  0  0  0  0
  189.3230  177.5870  136.5520 C   0  0  0  0  0  2  0  0  0  0  0  0
  188.9480  179.7730  137.4300 O   0  0  0  0  0  1  0  0  0  0  0  0
  188.3030  178.6240  136.9780 C   0  0  0  0  0  2  0  0  0  0  0  0
  1  2  1  6  0  0  0
  1 13  1  0  0  0  0
  4 16  1  6  0  0  0
  4  1  1  0  0  0  0
  4  8  1  0  0  0  0
  6  3  1  0  0  0  0
  7 14  1  0  0  0  0
  8  5  1  6  0  0  0
  8  7  1  0  0  0  0
  9 18  1  0  0  0  0
 11  2  1  0  0  0  0
 12  5  1  0  0  0  0
 13  3  1  6  0  0  0
 13 14  1  0  0  0  0
 16 12  1  0  0  0  0
 17 15  2  6  0  0  0
 17 11  1  0  0  0  0
 17  9  1  0  0  0  0
 18 10  1  1  0  0  0
 18  6  1  0  0  0  0
 19 17  1  0  0  0  0
 20 19  1  0  0  0  0
 21 20  1  0  0  0  0
 22 21  2  0  0  0  0
 23 25  1  0  0  0  0
 23 21  1  0  0  0  0
 25 24  1  0  0  0  0
M  END
>  <MODEL>
1

>  <REMARK>
 VINA RESULT:      -8.3      0.000      0.000
  Name = 
  4 active torsions:
  status: ('A' for Active; 'I' for Inactive)
    1  A    between atoms: C_2  and  C_12
    2  A    between atoms: C_2  and  C_21
    3  A    between atoms: C_6  and  N_15
    4  A    between atoms: C_6  and  P_23
                            x       y       z     vdW  Elec       q    Type
                         _______ _______ _______ _____ _____    ______ ____

>  <TORSDO>
F 4

$$$$
=
 OpenBabel11052412403D

 25 27  0  0  1  0  0  0  0  0999 V2000
  187.8040  176.7890  144.9940 C   0  0  2  0  0  3  0  0  0  0  0  0
  188.5330  176.2840  143.7450 C   0  0  0  0  0  2  0  0  0  0  0  0
  189.8080  177.9300  146.1470 C   0  0  0  0  0  2  0  0  0  0  0  0
  187.0650  178.1350  144.8360 C   0  0  2  0  0  3  0  0  0  0  0  0
  185.2870  179.3670  145.9810 C   0  0  0  0  0  2  0  0  0  0  0  0
  190.8330  177.7090  145.0460 C   0  0  0  0  0  2  0  0  0  0  0  0
  186.6060  177.7340  147.3090 C   0  0  0  0  0  2  0  0  0  0  0  0
  186.6680  178.7670  146.1790 C   0  0  1  0  0  3  0  0  0  0  0  0
  190.6880  177.8490  142.5690 C   0  0  0  0  0  2  0  0  0  0  0  0
  191.4560  179.8100  143.8810 C   0  0  0  0  0  1  0  0  0  0  0  0
  187.9240  176.7130  142.5640 O   0  0  0  0  0  0  0  0  0  0  0  0
  184.8960  179.1100  144.5380 C   0  0  0  0  0  2  0  0  0  0  0  0
  188.7500  176.8180  146.2110 C   0  0  1  0  0  3  0  0  0  0  0  0
  187.9450  177.0060  147.5050 C   0  0  0  0  0  2  0  0  0  0  0  0
  188.4900  179.0220  141.4750 O   0  0  0  0  0  0  0  0  0  0  0  0
  185.7700  177.9720  144.0680 C   0  0  0  0  0  2  0  0  0  0  0  0
  189.0760  177.6520  141.7250 P   0  0  1  0  0  0  0  0  0  0  0  0
  190.5220  178.6180  143.8680 C   0  0  2  0  0  3  0  0  0  0  0  0
  189.3900  176.8640  140.1180 C   0  0  0  0  0  2  0  0  0  0  0  0
  190.7280  177.1980  139.6510 N   0  0  0  0  0  2  0  0  0  0  0  0
  191.4890  176.3240  138.8150 C   0  0  0  0  0  0  0  0  0  0  0  0
  190.9810  175.2620  138.3640 O   0  0  0  0  0  0  0  0  0  0  0  0
  192.9050  176.6540  138.4960 C   0  0  0  0  0  2  0  0  0  0  0  0
  194.3300  176.8180  136.5890 O   0  0  0  0  0  1  0  0  0  0  0  0
  193.3000  176.0680  137.1550 C   0  0  0  0  0  2  0  0  0  0  0  0
  1  2  1  6  0  0  0
  1 13  1  0  0  0  0
  4 16  1  6  0  0  0
  4  1  1  0  0  0  0
  4  8  1  0  0  0  0
  6  3  1  0  0  0  0
  7 14  1  0  0  0  0
  8  5  1  6  0  0  0
  8  7  1  0  0  0  0
  9 18  1  0  0  0  0
 11  2  1  0  0  0  0
 12  5  1  0  0  0  0
 13  3  1  6  0  0  0
 13 14  1  0  0  0  0
 16 12  1  0  0  0  0
 17 15  2  6  0  0  0
 17 11  1  0  0  0  0
 17  9  1  0  0  0  0
 18 10  1  6  0  0  0
 18  6  1  0  0  0  0
 19 17  1  0  0  0  0
 20 19  1  0  0  0  0
 21 20  1  0  0  0  0
 22 21  2  0  0  0  0
 23 21  1  0  0  0  0
 24 25  1  0  0  0  0
 25 23  1  0  0  0  0
M  END
>  <MODEL>
2

>  <REMARK>
 VINA RESULT:      -8.1      1.588      2.111
  Name = 
  4 active torsions:
  status: ('A' for Active; 'I' for Inactive)
    1  A    between atoms: C_2  and  C_12
    2  A    between atoms: C_2  and  C_21
    3  A    between atoms: C_6  and  N_15
    4  A    between atoms: C_6  and  P_23
                            x       y       z     vdW  Elec       q    Type
                         _______ _______ _______ _____ _____    ______ ____

>  <TORSDO>
F 4

$$$$
=
 OpenBabel11052412403D

 25 27  0  0  1  0  0  0  0  0999 V2000
  189.5740  177.4050  137.6650 C   0  0  2  0  0  3  0  0  0  0  0  0
  190.3840  176.8440  136.4910 C   0  0  0  0  0  2  0  0  0  0  0  0
  187.4770  175.9310  137.3930 C   0  0  0  0  0  2  0  0  0  0  0  0
  189.8890  176.7880  139.0450 C   0  0  2  0  0  3  0  0  0  0  0  0
  189.5730  177.3730  141.4000 C   0  0  0  0  0  2  0  0  0  0  0  0
  187.9810  175.0620  136.2520 C   0  0  0  0  0  2  0  0  0  0  0  0
  188.0010  178.3490  139.7420 C   0  0  0  0  0  2  0  0  0  0  0  0
  188.8240  177.1080  140.1060 C   0  0  1  0  0  3  0  0  0  0  0  0
  190.1910  174.0270  135.7850 C   0  0  0  0  0  2  0  0  0  0  0  0
  188.4330  172.7250  136.9550 C   0  0  0  0  0  1  0  0  0  0  0  0
  191.6470  176.3940  136.8820 O   0  0  0  0  0  0  0  0  0  0  0  0
  191.0480  177.1860  141.1040 C   0  0  0  0  0  2  0  0  0  0  0  0
  188.0630  177.3500  137.3680 C   0  0  1  0  0  3  0  0  0  0  0  0
  187.2910  178.1990  138.3880 C   0  0  0  0  0  2  0  0  0  0  0  0
  192.0330  173.9730  137.7870 O   0  0  0  0  0  0  0  0  0  0  0  0
  191.1910  177.3190  139.6070 C   0  0  0  0  0  2  0  0  0  0  0  0
  191.7140  174.7290  136.5190 P   0  0  1  0  0  0  0  0  0  0  0  0
  189.0390  174.1010  136.7700 C   0  0  2  0  0  3  0  0  0  0  0  0
  193.0680  174.4580  135.3370 C   0  0  0  0  0  2  0  0  0  0  0  0
  194.2320  173.9210  136.0250 N   0  0  0  0  0  2  0  0  0  0  0  0
  195.2510  174.7570  136.5770 C   0  0  0  0  0  0  0  0  0  0  0  0
  195.1250  176.0100  136.5750 O   0  0  0  0  0  0  0  0  0  0  0  0
  196.4890  174.1430  137.1340 C   0  0  0  0  0  2  0  0  0  0  0  0
  195.5100  173.0650  139.0240 O   0  0  0  0  0  1  0  0  0  0  0  0
  196.4090  174.0610  138.6460 C   0  0  0  0  0  2  0  0  0  0  0  0
  1  2  1  6  0  0  0
  1  4  1  0  0  0  0
  2 11  1  0  0  0  0
  4 16  1  1  0  0  0
  4  8  1  0  0  0  0
  6 18  1  0  0  0  0
  6  3  1  0  0  0  0
  8  7  1  6  0  0  0
  8  5  1  0  0  0  0
  9 17  1  0  0  0  0
  9 18  1  0  0  0  0
 12  5  1  0  0  0  0
 13  3  1  1  0  0  0
 13  1  1  0  0  0  0
 13 14  1  0  0  0  0
 14  7  1  0  0  0  0
 16 12  1  0  0  0  0
 17 11  1  0  0  0  0
 17 15  2  1  0  0  0
 18 10  1  6  0  0  0
 19 20  1  0  0  0  0
 19 17  1  0  0  0  0
 20 21  1  0  0  0  0
 21 23  1  0  0  0  0
 22 21  2  0  0  0  0
 23 25  1  0  0  0  0
 25 24  1  0  0  0  0
M  END
>  <MODEL>
3

>  <REMARK>
 VINA RESULT:      -5.5      4.410      7.542
  Name = 
  4 active torsions:
  status: ('A' for Active; 'I' for Inactive)
    1  A    between atoms: C_2  and  C_12
    2  A    between atoms: C_2  and  C_21
    3  A    between atoms: C_6  and  N_15
    4  A    between atoms: C_6  and  P_23
                            x       y       z     vdW  Elec       q    Type
                         _______ _______ _______ _____ _____    ______ ____

>  <TORSDO>
F 4

$$$$
=
 OpenBabel11052412403D

 25 27  0  0  1  0  0  0  0  0999 V2000
  181.8210  176.1950  138.5770 C   0  0  2  0  0  3  0  0  0  0  0  0
  182.7630  176.5360  139.7360 C   0  0  0  0  0  2  0  0  0  0  0  0
  179.6200  177.0000  139.6510 C   0  0  0  0  0  2  0  0  0  0  0  0
  181.7240  177.2600  137.4630 C   0  0  2  0  0  3  0  0  0  0  0  0
  181.0060  177.3720  135.1260 C   0  0  0  0  0  2  0  0  0  0  0  0
  180.2090  177.5660  140.9320 C   0  0  0  0  0  2  0  0  0  0  0  0
  180.0120  175.6050  136.5620 C   0  0  0  0  0  2  0  0  0  0  0  0
  180.5220  177.0490  136.5290 C   0  0  1  0  0  3  0  0  0  0  0  0
  182.2680  178.8800  141.3900 C   0  0  0  0  0  2  0  0  0  0  0  0
  180.1100  180.0450  141.0180 C   0  0  0  0  0  1  0  0  0  0  0  0
  183.8200  177.3580  139.3400 O   0  0  0  0  0  0  0  0  0  0  0  0
  182.4600  177.7880  135.2430 C   0  0  0  0  0  2  0  0  0  0  0  0
  180.4220  175.8120  139.0970 C   0  0  1  0  0  3  0  0  0  0  0  0
  179.5970  175.1660  137.9750 C   0  0  0  0  0  2  0  0  0  0  0  0
  183.5990  179.9620  139.2780 O   0  0  0  0  0  0  0  0  0  0  0  0
  182.9430  177.2370  136.5640 C   0  0  0  0  0  2  0  0  0  0  0  0
  183.6900  178.8010  140.2400 P   0  0  1  0  0  0  0  0  0  0  0  0
  180.9580  178.8540  140.6250 C   0  0  2  0  0  3  0  0  0  0  0  0
  185.2050  178.9950  141.2260 C   0  0  0  0  0  2  0  0  0  0  0  0
  184.8680  179.3390  142.5990 N   0  0  0  0  0  2  0  0  0  0  0  0
  185.3410  178.5860  143.7170 C   0  0  0  0  0  0  0  0  0  0  0  0
  186.1620  177.6430  143.5560 O   0  0  0  0  0  0  0  0  0  0  0  0
  184.8390  178.8980  145.0840 C   0  0  0  0  0  2  0  0  0  0  0  0
  185.6750  179.4750  147.2430 O   0  0  0  0  0  1  0  0  0  0  0  0
  185.9360  178.7030  146.1120 C   0  0  0  0  0  2  0  0  0  0  0  0
  1 13  1  0  0  0  0
  1  2  1  1  0  0  0
  3  6  1  0  0  0  0
  4 16  1  6  0  0  0
  4  1  1  0  0  0  0
  5 12  1  0  0  0  0
  7 14  1  0  0  0  0
  8  5  1  6  0  0  0
  8  7  1  0  0  0  0
  8  4  1  0  0  0  0
 11  2  1  0  0  0  0
 11 17  1  0  0  0  0
 12 16  1  0  0  0  0
 13 14  1  6  0  0  0
 13  3  1  0  0  0  0
 17 15  2  6  0  0  0
 17 19  1  0  0  0  0
 17  9  1  0  0  0  0
 18  6  1  0  0  0  0
 18 10  1  1  0  0  0
 18  9  1  0  0  0  0
 19 20  1  0  0  0  0
 20 21  1  0  0  0  0
 21 23  1  0  0  0  0
 22 21  2  0  0  0  0
 23 25  1  0  0  0  0
 25 24  1  0  0  0  0
M  END
>  <MODEL>
4

>  <REMARK>
 VINA RESULT:      -5.4      5.655      9.020
  Name = 
  4 active torsions:
  status: ('A' for Active; 'I' for Inactive)
    1  A    between atoms: C_2  and  C_12
    2  A    between atoms: C_2  and  C_21
    3  A    between atoms: C_6  and  N_15
    4  A    between atoms: C_6  and  P_23
                            x       y       z     vdW  Elec       q    Type
                         _______ _______ _______ _____ _____    ______ ____

>  <TORSDO>
F 4

$$$$
=
 OpenBabel11052412403D

 25 27  0  0  1  0  0  0  0  0999 V2000
  196.3240  173.5530  137.3480 C   0  0  2  0  0  3  0  0  0  0  0  0
  194.8410  173.5440  136.9610 C   0  0  0  0  0  2  0  0  0  0  0  0
  197.2330  174.7720  135.2660 C   0  0  0  0  0  2  0  0  0  0  0  0
  196.7630  174.7060  138.2760 C   0  0  2  0  0  3  0  0  0  0  0  0
  198.6240  175.2050  139.7830 C   0  0  0  0  0  2  0  0  0  0  0  0
  195.9000  175.0560  134.5940 C   0  0  0  0  0  2  0  0  0  0  0  0
  199.0350  173.6120  137.9210 C   0  0  0  0  0  2  0  0  0  0  0  0
  198.2880  174.8840  138.3380 C   0  0  1  0  0  3  0  0  0  0  0  0
  193.6950  175.7760  135.4850 C   0  0  0  0  0  2  0  0  0  0  0  0
  195.3010  177.4640  134.6350 C   0  0  0  0  0  1  0  0  0  0  0  0
  194.0310  174.1140  137.9450 O   0  0  0  0  0  0  0  0  0  0  0  0
  197.3140  175.2380  140.5470 C   0  0  0  0  0  2  0  0  0  0  0  0
  197.2210  173.4800  136.0970 C   0  0  1  0  0  3  0  0  0  0  0  0
  198.6680  173.1620  136.4990 C   0  0  0  0  0  2  0  0  0  0  0  0
  193.5790  176.6860  138.0460 O   0  0  0  0  0  0  0  0  0  0  0  0
  196.3250  174.4670  139.7060 C   0  0  0  0  0  2  0  0  0  0  0  0
  193.2550  175.4550  137.2330 P   0  0  1  0  0  0  0  0  0  0  0  0
  195.1620  176.1430  135.3610 C   0  0  2  0  0  3  0  0  0  0  0  0
  191.4600  175.1800  137.3050 C   0  0  0  0  0  2  0  0  0  0  0  0
  190.9340  175.6420  138.5810 N   0  0  0  0  0  2  0  0  0  0  0  0
  190.2510  176.8890  138.7240 C   0  0  0  0  0  0  0  0  0  0  0  0
  189.9880  177.5960  137.7140 O   0  0  0  0  0  0  0  0  0  0  0  0
  189.8710  177.3730  140.0800 C   0  0  0  0  0  2  0  0  0  0  0  0
  192.0870  177.6900  140.9040 O   0  0  0  0  0  1  0  0  0  0  0  0
  190.9130  176.9650  141.1020 C   0  0  0  0  0  2  0  0  0  0  0  0
  1  2  1  6  0  0  0
  1  4  1  0  0  0  0
  2 11  1  0  0  0  0
  4  8  1  0  0  0  0
  4 16  1  1  0  0  0
  5 12  1  0  0  0  0
  6  3  1  0  0  0  0
  6 18  1  0  0  0  0
  8  7  1  1  0  0  0
  8  5  1  0  0  0  0
  9 17  1  0  0  0  0
 13  3  1  1  0  0  0
 13 14  1  0  0  0  0
 13  1  1  0  0  0  0
 14  7  1  0  0  0  0
 16 12  1  0  0  0  0
 17 19  1  0  0  0  0
 17 11  1  0  0  0  0
 17 15  2  1  0  0  0
 18 10  1  6  0  0  0
 18  9  1  0  0  0  0
 19 20  1  0  0  0  0
 20 21  1  0  0  0  0
 21 23  1  0  0  0  0
 22 21  2  0  0  0  0
 23 25  1  0  0  0  0
 24 25  1  0  0  0  0
M  END
>  <MODEL>
5

>  <REMARK>
 VINA RESULT:      -5.3      6.055     10.440
  Name = 
  4 active torsions:
  status: ('A' for Active; 'I' for Inactive)
    1  A    between atoms: C_2  and  C_12
    2  A    between atoms: C_2  and  C_21
    3  A    between atoms: C_6  and  N_15
    4  A    between atoms: C_6  and  P_23
                            x       y       z     vdW  Elec       q    Type
                         _______ _______ _______ _____ _____    ______ ____

>  <TORSDO>
F 4

$$$$
