=
 OpenBabel11052413113D

 31 35  0  0  1  0  0  0  0  0999 V2000
  190.9960  177.2450  140.5810 C   0  0  0  0  0  0  0  0  0  0  0  0
  190.1570  177.5330  141.7190 N   0  0  0  0  0  0  0  0  0  0  0  0
  192.2460  177.3820  140.6610 O   0  0  0  0  0  0  0  0  0  0  0  0
  190.7420  177.8080  143.0350 C   0  0  1  0  0  0  0  0  0  0  0  0
  190.3300  176.8490  144.0460 C   0  0  1  0  0  3  0  0  0  0  0  0
  191.9900  175.3330  143.6710 C   0  0  0  0  0  2  0  0  0  0  0  0
  191.7960  176.8410  143.6180 C   0  0  1  0  0  3  0  0  0  0  0  0
  190.3700  178.9330  145.1560 N   0  0  0  0  0  2  0  0  0  0  0  0
  191.7790  174.7840  145.1170 C   0  0  0  0  0  2  0  0  0  0  0  0
  190.5270  179.1650  143.7100 C   0  0  0  0  0  2  0  0  0  0  0  0
  191.9950  175.8100  146.2630 C   0  0  0  0  0  2  0  0  0  0  0  0
  190.6310  177.2690  147.5920 O   0  0  0  0  0  0  0  0  0  0  0  0
  190.3130  177.5380  145.2970 N   0  0  0  0  0  0  0  0  0  0  0  0
  190.9150  176.8790  146.4290 C   0  0  0  0  0  0  0  0  0  0  0  0
  191.1070  175.5960  138.8980 O   0  0  0  0  0  1  0  0  0  0  0  0
  190.4170  176.7370  139.3020 C   0  0  0  0  0  2  0  0  0  0  0  0
  188.7080  177.3670  141.6210 C   0  0  0  0  0  2  0  0  0  0  0  0
  188.0360  178.6920  141.2950 C   0  0  0  0  0  2  0  0  0  0  0  0
  186.7090  178.4690  140.5970 C   0  0  0  0  0  2  0  0  0  0  0  0
  185.6900  179.0670  141.3380 O   0  0  0  0  0  0  0  0  0  0  0  0
  185.0080  178.0060  141.9400 C   0  0  0  0  0  2  0  0  0  0  0  0
  186.4220  178.3270  147.0240 C   0  0  0  0  0  0  0  0  0  0  0  0
  186.7710  177.9000  144.5350 C   0  0  0  0  0  2  0  0  0  0  0  0
  183.3670  179.1860  144.9940 C   0  0  0  0  0  3  0  0  0  0  0  0
  183.4030  178.9060  143.6260 C   0  0  0  0  0  3  0  0  0  0  0  0
  186.9680  178.4970  148.1440 O   0  0  0  0  0  0  0  0  0  0  0  0
  184.5970  178.3690  143.2900 N   0  0  0  0  0  0  0  0  0  0  0  0
  187.1050  177.4730  145.9780 C   0  0  0  0  0  2  0  0  0  0  0  0
  184.6050  178.7830  145.4510 C   0  0  0  0  0  0  0  0  0  0  0  0
  185.3260  178.2830  144.4110 C   0  0  0  0  0  0  0  0  0  0  0  0
  185.1240  178.8830  146.7730 N   0  0  0  0  0  2  0  0  0  0  0  0
  1  3  2  0  0  0  0
  1  2  1  0  0  0  0
  4  2  1  6  0  0  0
  4  7  1  0  0  0  0
  4 10  1  0  0  0  0
  4  5  1  0  0  0  0
  5 13  1  1  0  0  0
  6  9  1  0  0  0  0
  7  6  1  6  0  0  0
  7  5  1  0  0  0  0
  8 13  1  0  0  0  0
  9 11  1  0  0  0  0
 10  8  1  0  0  0  0
 11 14  1  0  0  0  0
 13 14  1  0  0  0  0
 14 12  2  0  0  0  0
 15 16  1  0  0  0  0
 16  1  1  0  0  0  0
 17  2  1  0  0  0  0
 18 17  1  0  0  0  0
 19 18  1  0  0  0  0
 19 20  1  0  0  0  0
 20 21  1  0  0  0  0
 21 27  1  0  0  0  0
 22 26  2  0  0  0  0
 23 28  1  0  0  0  0
 24 29  1  0  0  0  0
 25 24  2  0  0  0  0
 27 25  1  0  0  0  0
 27 30  1  0  0  0  0
 28 22  1  0  0  0  0
 29 31  1  0  0  0  0
 30 23  1  0  0  0  0
 30 29  2  0  0  0  0
 31 22  1  0  0  0  0
M  END
>  <MODEL>
1

>  <REMARK>
 VINA RESULT:      -7.7      0.000      0.000
  Name = 
  8 active torsions:
  status: ('A' for Active; 'I' for Inactive)
    1  A    between atoms: C_2  and  C_28
    2  A    between atoms: C_4  and  N_12
    3  A    between atoms: N_9  and  C_23
    4  A    between atoms: N_12  and  C_25
    5  A    between atoms: O_15  and  C_20
    6  A    between atoms: O_15  and  C_23
    7  A    between atoms: C_20  and  C_27
    8  A    between atoms: C_25  and  C_27
                            x       y       z     vdW  Elec       q    Type
                         _______ _______ _______ _____ _____    ______ ____

>  <TORSDO>
F 8

$$$$
=
 OpenBabel11052413113D

 31 35  0  0  1  0  0  0  0  0999 V2000
  188.9860  178.3480  139.7800 C   0  0  0  0  0  0  0  0  0  0  0  0
  190.0340  177.3710  139.9420 N   0  0  0  0  0  0  0  0  0  0  0  0
  188.8480  178.9590  138.6870 O   0  0  0  0  0  0  0  0  0  0  0  0
  190.8390  176.9340  138.7970 C   0  0  1  0  0  0  0  0  0  0  0  0
  190.7090  175.5110  138.5280 C   0  0  1  0  0  3  0  0  0  0  0  0
  188.9020  175.6630  137.1470 C   0  0  0  0  0  2  0  0  0  0  0  0
  190.1350  176.4820  137.4980 C   0  0  1  0  0  3  0  0  0  0  0  0
  192.9860  176.0040  138.1420 N   0  0  0  0  0  2  0  0  0  0  0  0
  189.2940  174.2850  136.5270 C   0  0  0  0  0  2  0  0  0  0  0  0
  192.3500  177.1720  138.7760 C   0  0  0  0  0  2  0  0  0  0  0  0
  190.6960  174.2220  135.8620 C   0  0  0  0  0  2  0  0  0  0  0  0
  192.9090  173.5450  136.4950 O   0  0  0  0  0  0  0  0  0  0  0  0
  191.9500  175.0730  137.9720 N   0  0  0  0  0  0  0  0  0  0  0  0
  191.8960  174.2240  136.8080 C   0  0  0  0  0  0  0  0  0  0  0  0
  186.7240  178.7030  140.3520 O   0  0  0  0  0  1  0  0  0  0  0  0
  188.0130  178.6270  140.8780 C   0  0  0  0  0  2  0  0  0  0  0  0
  190.1840  176.6610  141.2120 C   0  0  0  0  0  2  0  0  0  0  0  0
  191.0350  177.4670  142.1810 C   0  0  0  0  0  2  0  0  0  0  0  0
  191.0060  176.8530  143.5660 C   0  0  0  0  0  2  0  0  0  0  0  0
  190.1830  177.6180  144.3930 O   0  0  0  0  0  0  0  0  0  0  0  0
  189.6000  176.7010  145.2730 C   0  0  0  0  0  2  0  0  0  0  0  0
  184.7480  178.7530  145.7340 C   0  0  0  0  0  0  0  0  0  0  0  0
  186.6480  177.5080  144.5740 C   0  0  0  0  0  2  0  0  0  0  0  0
  187.7190  178.2640  147.9990 C   0  0  0  0  0  3  0  0  0  0  0  0
  188.8600  177.6780  147.4470 C   0  0  0  0  0  3  0  0  0  0  0  0
  183.5230  179.0370  145.7260 O   0  0  0  0  0  0  0  0  0  0  0  0
  188.6480  177.3750  146.1480 N   0  0  0  0  0  0  0  0  0  0  0  0
  185.4670  178.4880  144.4280 C   0  0  0  0  0  2  0  0  0  0  0  0
  186.8190  178.2950  146.9540 C   0  0  0  0  0  0  0  0  0  0  0  0
  187.4030  177.7650  145.8440 C   0  0  0  0  0  0  0  0  0  0  0  0
  185.4720  178.7540  146.9720 N   0  0  0  0  0  2  0  0  0  0  0  0
  1  2  1  0  0  0  0
  1 16  1  0  0  0  0
  2 17  1  0  0  0  0
  3  1  2  0  0  0  0
  4  2  1  1  0  0  0
  5 13  1  6  0  0  0
  5  4  1  0  0  0  0
  7  6  1  1  0  0  0
  7  5  1  0  0  0  0
  7  4  1  0  0  0  0
  8 10  1  0  0  0  0
  9  6  1  0  0  0  0
 10  4  1  0  0  0  0
 11  9  1  0  0  0  0
 11 14  1  0  0  0  0
 12 14  2  0  0  0  0
 13  8  1  0  0  0  0
 14 13  1  0  0  0  0
 15 16  1  0  0  0  0
 17 18  1  0  0  0  0
 18 19  1  0  0  0  0
 19 20  1  0  0  0  0
 20 21  1  0  0  0  0
 21 27  1  0  0  0  0
 22 31  1  0  0  0  0
 23 30  1  0  0  0  0
 25 24  2  0  0  0  0
 26 22  2  0  0  0  0
 27 25  1  0  0  0  0
 28 23  1  0  0  0  0
 28 22  1  0  0  0  0
 29 31  1  0  0  0  0
 29 24  1  0  0  0  0
 30 27  1  0  0  0  0
 30 29  2  0  0  0  0
M  END
>  <MODEL>
2

>  <REMARK>
 VINA RESULT:      -7.5      2.522      5.849
  Name = 
  8 active torsions:
  status: ('A' for Active; 'I' for Inactive)
    1  A    between atoms: C_2  and  C_28
    2  A    between atoms: C_4  and  N_12
    3  A    between atoms: N_9  and  C_23
    4  A    between atoms: N_12  and  C_25
    5  A    between atoms: O_15  and  C_20
    6  A    between atoms: O_15  and  C_23
    7  A    between atoms: C_20  and  C_27
    8  A    between atoms: C_25  and  C_27
                            x       y       z     vdW  Elec       q    Type
                         _______ _______ _______ _____ _____    ______ ____

>  <TORSDO>
F 8

$$$$
=
 OpenBabel11052413113D

 31 35  0  0  1  0  0  0  0  0999 V2000
  189.9960  176.8640  146.7120 C   0  0  0  0  0  0  0  0  0  0  0  0
  189.1960  177.6370  145.7930 N   0  0  0  0  0  0  0  0  0  0  0  0
  189.4520  176.2490  147.6680 O   0  0  0  0  0  0  0  0  0  0  0  0
  187.7310  177.5780  145.8380 C   0  0  1  0  0  0  0  0  0  0  0  0
  187.1020  178.5560  144.9660 C   0  0  1  0  0  3  0  0  0  0  0  0
  187.0550  177.2560  143.0940 C   0  0  0  0  0  2  0  0  0  0  0  0
  186.9500  177.0800  144.6020 C   0  0  1  0  0  3  0  0  0  0  0  0
  185.7580  178.5090  146.9060 N   0  0  0  0  0  2  0  0  0  0  0  0
  185.8920  178.1380  142.5430 C   0  0  0  0  0  2  0  0  0  0  0  0
  186.9890  177.7440  147.1660 C   0  0  0  0  0  2  0  0  0  0  0  0
  184.6080  178.1790  143.4160 C   0  0  0  0  0  2  0  0  0  0  0  0
  183.6790  179.6060  145.1050 O   0  0  0  0  0  0  0  0  0  0  0  0
  185.8590  178.9190  145.5680 N   0  0  0  0  0  0  0  0  0  0  0  0
  184.6970  178.9750  144.7170 C   0  0  0  0  0  0  0  0  0  0  0  0
  192.1040  176.7950  147.7700 O   0  0  0  0  0  1  0  0  0  0  0  0
  191.4710  176.7310  146.5290 C   0  0  0  0  0  2  0  0  0  0  0  0
  189.8320  178.3430  144.6820 C   0  0  0  0  0  2  0  0  0  0  0  0
  190.3120  177.3600  143.6250 C   0  0  0  0  0  2  0  0  0  0  0  0
  191.7100  177.7090  143.1570 C   0  0  0  0  0  2  0  0  0  0  0  0
  191.7200  177.8080  141.7650 O   0  0  0  0  0  0  0  0  0  0  0  0
  190.7220  176.9300  141.3320 C   0  0  0  0  0  2  0  0  0  0  0  0
  187.8480  178.2460  137.0930 C   0  0  0  0  0  0  0  0  0  0  0  0
  188.4120  178.1310  139.5770 C   0  0  0  0  0  2  0  0  0  0  0  0
  191.2290  176.7030  137.7120 C   0  0  0  0  0  3  0  0  0  0  0  0
  191.6100  176.4980  139.0400 C   0  0  0  0  0  3  0  0  0  0  0  0
  187.1270  178.7700  136.2060 O   0  0  0  0  0  0  0  0  0  0  0  0
  190.6430  176.9340  139.8770 N   0  0  0  0  0  0  0  0  0  0  0  0
  187.3120  178.0850  138.4990 C   0  0  0  0  0  2  0  0  0  0  0  0
  189.9800  177.2810  137.8070 C   0  0  0  0  0  0  0  0  0  0  0  0
  189.6400  177.4010  139.1200 C   0  0  0  0  0  0  0  0  0  0  0  0
  189.1450  177.7400  136.7490 N   0  0  0  0  0  2  0  0  0  0  0  0
  1  3  2  0  0  0  0
  2  1  1  0  0  0  0
  4  2  1  1  0  0  0
  4 10  1  0  0  0  0
  5 13  1  1  0  0  0
  5  4  1  0  0  0  0
  7  6  1  6  0  0  0
  7  5  1  0  0  0  0
  7  4  1  0  0  0  0
  8 10  1  0  0  0  0
  9  6  1  0  0  0  0
  9 11  1  0  0  0  0
 11 14  1  0  0  0  0
 13  8  1  0  0  0  0
 14 12  2  0  0  0  0
 14 13  1  0  0  0  0
 16  1  1  0  0  0  0
 16 15  1  0  0  0  0
 17  2  1  0  0  0  0
 18 17  1  0  0  0  0
 19 18  1  0  0  0  0
 20 19  1  0  0  0  0
 21 20  1  0  0  0  0
 22 28  1  0  0  0  0
 24 29  1  0  0  0  0
 24 25  2  0  0  0  0
 25 27  1  0  0  0  0
 26 22  2  0  0  0  0
 27 21  1  0  0  0  0
 28 23  1  0  0  0  0
 29 30  2  0  0  0  0
 30 23  1  0  0  0  0
 30 27  1  0  0  0  0
 31 22  1  0  0  0  0
 31 29  1  0  0  0  0
M  END
>  <MODEL>
3

>  <REMARK>
 VINA RESULT:      -7.5      2.061      7.203
  Name = 
  8 active torsions:
  status: ('A' for Active; 'I' for Inactive)
    1  A    between atoms: C_2  and  C_28
    2  A    between atoms: C_4  and  N_12
    3  A    between atoms: N_9  and  C_23
    4  A    between atoms: N_12  and  C_25
    5  A    between atoms: O_15  and  C_20
    6  A    between atoms: O_15  and  C_23
    7  A    between atoms: C_20  and  C_27
    8  A    between atoms: C_25  and  C_27
                            x       y       z     vdW  Elec       q    Type
                         _______ _______ _______ _____ _____    ______ ____

>  <TORSDO>
F 8

$$$$
=
 OpenBabel11052413113D

 31 35  0  0  1  0  0  0  0  0999 V2000
  189.5250  178.1200  138.4260 C   0  0  0  0  0  0  0  0  0  0  0  0
  190.4690  177.0970  138.8060 N   0  0  0  0  0  0  0  0  0  0  0  0
  189.4840  178.5370  137.2370 O   0  0  0  0  0  0  0  0  0  0  0  0
  191.2660  176.3950  137.7950 C   0  0  1  0  0  0  0  0  0  0  0  0
  191.1360  174.9490  137.8810 C   0  0  1  0  0  3  0  0  0  0  0  0
  189.3190  174.7610  136.5180 C   0  0  0  0  0  2  0  0  0  0  0  0
  190.5530  175.6420  136.6500 C   0  0  1  0  0  3  0  0  0  0  0  0
  193.4090  175.3340  137.3700 N   0  0  0  0  0  2  0  0  0  0  0  0
  189.7090  173.2740  136.2480 C   0  0  0  0  0  2  0  0  0  0  0  0
  192.7760  176.6210  137.7060 C   0  0  0  0  0  2  0  0  0  0  0  0
  191.1060  173.0520  135.6080 C   0  0  0  0  0  2  0  0  0  0  0  0
  193.3240  172.5480  136.3700 O   0  0  0  0  0  0  0  0  0  0  0  0
  192.3740  174.3890  137.4390 N   0  0  0  0  0  0  0  0  0  0  0  0
  192.3130  173.2830  136.5170 C   0  0  0  0  0  0  0  0  0  0  0  0
  187.2560  178.2860  139.0520 O   0  0  0  0  0  1  0  0  0  0  0  0
  188.5470  178.6730  139.4080 C   0  0  0  0  0  2  0  0  0  0  0  0
  190.5070  176.6120  140.1850 C   0  0  0  0  0  2  0  0  0  0  0  0
  191.4530  177.4560  141.0250 C   0  0  0  0  0  2  0  0  0  0  0  0
  191.4090  177.0320  142.4800 C   0  0  0  0  0  2  0  0  0  0  0  0
  190.2040  177.4510  143.0470 O   0  0  0  0  0  0  0  0  0  0  0  0
  189.8310  176.4160  143.9090 C   0  0  0  0  0  2  0  0  0  0  0  0
  185.4590  178.4950  146.0380 C   0  0  0  0  0  0  0  0  0  0  0  0
  186.8680  177.4100  144.2100 C   0  0  0  0  0  2  0  0  0  0  0  0
  188.8950  177.5520  147.2630 C   0  0  0  0  0  3  0  0  0  0  0  0
  189.7930  177.0350  146.3270 C   0  0  0  0  0  3  0  0  0  0  0  0
  184.3040  178.8100  146.4230 O   0  0  0  0  0  0  0  0  0  0  0  0
  189.2100  176.9600  145.1110 N   0  0  0  0  0  0  0  0  0  0  0  0
  185.7680  178.4320  144.5580 C   0  0  0  0  0  2  0  0  0  0  0  0
  187.7470  177.7820  146.5340 C   0  0  0  0  0  0  0  0  0  0  0  0
  187.9610  177.4300  145.2370 C   0  0  0  0  0  0  0  0  0  0  0  0
  186.4950  178.2690  147.0050 N   0  0  0  0  0  2  0  0  0  0  0  0
  1  2  1  0  0  0  0
  1 16  1  0  0  0  0
  2 17  1  0  0  0  0
  3  1  2  0  0  0  0
  4  5  1  0  0  0  0
  4  2  1  1  0  0  0
  5 13  1  6  0  0  0
  7  6  1  1  0  0  0
  7  4  1  0  0  0  0
  7  5  1  0  0  0  0
  8 13  1  0  0  0  0
  8 10  1  0  0  0  0
  9  6  1  0  0  0  0
 10  4  1  0  0  0  0
 11  9  1  0  0  0  0
 11 14  1  0  0  0  0
 12 14  2  0  0  0  0
 14 13  1  0  0  0  0
 15 16  1  0  0  0  0
 17 18  1  0  0  0  0
 18 19  1  0  0  0  0
 19 20  1  0  0  0  0
 20 21  1  0  0  0  0
 21 27  1  0  0  0  0
 22 26  2  0  0  0  0
 22 31  1  0  0  0  0
 23 28  1  0  0  0  0
 23 30  1  0  0  0  0
 25 24  2  0  0  0  0
 27 30  1  0  0  0  0
 27 25  1  0  0  0  0
 28 22  1  0  0  0  0
 29 31  1  0  0  0  0
 29 24  1  0  0  0  0
 30 29  2  0  0  0  0
M  END
>  <MODEL>
4

>  <REMARK>
 VINA RESULT:      -7.3      2.975      6.194
  Name = 
  8 active torsions:
  status: ('A' for Active; 'I' for Inactive)
    1  A    between atoms: C_2  and  C_28
    2  A    between atoms: C_4  and  N_12
    3  A    between atoms: N_9  and  C_23
    4  A    between atoms: N_12  and  C_25
    5  A    between atoms: O_15  and  C_20
    6  A    between atoms: O_15  and  C_23
    7  A    between atoms: C_20  and  C_27
    8  A    between atoms: C_25  and  C_27
                            x       y       z     vdW  Elec       q    Type
                         _______ _______ _______ _____ _____    ______ ____

>  <TORSDO>
F 8

$$$$
=
 OpenBabel11052413113D

 31 35  0  0  1  0  0  0  0  0999 V2000
  189.1000  177.3440  147.1750 C   0  0  0  0  0  0  0  0  0  0  0  0
  188.3860  177.5440  145.9370 N   0  0  0  0  0  0  0  0  0  0  0  0
  190.0520  176.5200  147.2340 O   0  0  0  0  0  0  0  0  0  0  0  0
  188.8610  176.9400  144.6880 C   0  0  1  0  0  0  0  0  0  0  0  0
  189.4080  177.9180  143.7630 C   0  0  1  0  0  3  0  0  0  0  0  0
  191.5460  177.8670  144.5510 C   0  0  0  0  0  2  0  0  0  0  0  0
  190.3740  176.9110  144.3820 C   0  0  1  0  0  3  0  0  0  0  0  0
  188.2290  176.3840  142.4090 N   0  0  0  0  0  2  0  0  0  0  0  0
  192.0380  178.4100  143.1730 C   0  0  0  0  0  2  0  0  0  0  0  0
  187.9130  176.1080  143.8210 C   0  0  0  0  0  2  0  0  0  0  0  0
  191.7090  177.5190  141.9440 C   0  0  0  0  0  2  0  0  0  0  0  0
  189.9980  177.4060  140.2660 O   0  0  0  0  0  0  0  0  0  0  0  0
  189.1620  177.4320  142.4420 N   0  0  0  0  0  0  0  0  0  0  0  0
  190.2480  177.4920  141.4970 C   0  0  0  0  0  0  0  0  0  0  0  0
  187.7840  177.4720  149.1280 O   0  0  0  0  0  1  0  0  0  0  0  0
  188.7670  178.1350  148.3960 C   0  0  0  0  0  2  0  0  0  0  0  0
  187.2870  178.5060  145.8740 C   0  0  0  0  0  2  0  0  0  0  0  0
  185.9540  177.8170  146.1220 C   0  0  0  0  0  2  0  0  0  0  0  0
  184.8930  178.8200  146.5270 C   0  0  0  0  0  2  0  0  0  0  0  0
  184.3580  179.4140  145.3830 O   0  0  0  0  0  0  0  0  0  0  0  0
  183.2530  178.6250  145.0480 C   0  0  0  0  0  2  0  0  0  0  0  0
  185.1160  178.8030  140.1030 C   0  0  0  0  0  0  0  0  0  0  0  0
  185.2480  178.4810  142.6290 C   0  0  0  0  0  2  0  0  0  0  0  0
  181.7280  178.9960  141.7390 C   0  0  0  0  0  3  0  0  0  0  0  0
  181.6810  178.9290  143.1340 C   0  0  0  0  0  3  0  0  0  0  0  0
  185.6930  178.6500  138.9960 O   0  0  0  0  0  0  0  0  0  0  0  0
  182.9270  178.7850  143.6370 N   0  0  0  0  0  0  0  0  0  0  0  0
  185.9380  179.0110  141.3560 C   0  0  0  0  0  2  0  0  0  0  0  0
  183.0700  178.8870  141.4440 C   0  0  0  0  0  0  0  0  0  0  0  0
  183.7770  178.7720  142.6010 C   0  0  0  0  0  0  0  0  0  0  0  0
  183.6830  178.8510  140.1590 N   0  0  0  0  0  2  0  0  0  0  0  0
  1  3  2  0  0  0  0
  1 16  1  0  0  0  0
  2  1  1  0  0  0  0
  4  2  1  1  0  0  0
  5 13  1  6  0  0  0
  5  7  1  0  0  0  0
  5  4  1  0  0  0  0
  7  6  1  1  0  0  0
  7  4  1  0  0  0  0
  8 13  1  0  0  0  0
  8 10  1  0  0  0  0
  9  6  1  0  0  0  0
 10  4  1  0  0  0  0
 11  9  1  0  0  0  0
 12 14  2  0  0  0  0
 14 11  1  0  0  0  0
 14 13  1  0  0  0  0
 16 15  1  0  0  0  0
 17  2  1  0  0  0  0
 17 18  1  0  0  0  0
 18 19  1  0  0  0  0
 20 19  1  0  0  0  0
 21 20  1  0  0  0  0
 22 31  1  0  0  0  0
 22 28  1  0  0  0  0
 24 25  2  0  0  0  0
 25 27  1  0  0  0  0
 26 22  2  0  0  0  0
 27 21  1  0  0  0  0
 28 23  1  0  0  0  0
 29 24  1  0  0  0  0
 29 30  2  0  0  0  0
 30 23  1  0  0  0  0
 30 27  1  0  0  0  0
 31 29  1  0  0  0  0
M  END
>  <MODEL>
5

>  <REMARK>
 VINA RESULT:      -7.3      1.872      5.330
  Name = 
  8 active torsions:
  status: ('A' for Active; 'I' for Inactive)
    1  A    between atoms: C_2  and  C_28
    2  A    between atoms: C_4  and  N_12
    3  A    between atoms: N_9  and  C_23
    4  A    between atoms: N_12  and  C_25
    5  A    between atoms: O_15  and  C_20
    6  A    between atoms: O_15  and  C_23
    7  A    between atoms: C_20  and  C_27
    8  A    between atoms: C_25  and  C_27
                            x       y       z     vdW  Elec       q    Type
                         _______ _______ _______ _____ _____    ______ ____

>  <TORSDO>
F 8

$$$$
=
 OpenBabel11052413113D

 31 35  0  0  1  0  0  0  0  0999 V2000
  181.1030  179.0610  142.0980 C   0  0  0  0  0  0  0  0  0  0  0  0
  182.4540  178.7390  141.7060 N   0  0  0  0  0  0  0  0  0  0  0  0
  180.2790  179.4920  141.2470 O   0  0  0  0  0  0  0  0  0  0  0  0
  182.8440  178.7270  140.2920 C   0  0  1  0  0  0  0  0  0  0  0  0
  183.7040  177.6050  139.9550 C   0  0  1  0  0  3  0  0  0  0  0  0
  182.0390  176.1280  139.4640 C   0  0  0  0  0  2  0  0  0  0  0  0
  182.2980  177.6240  139.3590 C   0  0  1  0  0  3  0  0  0  0  0  0
  184.5590  179.4260  138.7200 N   0  0  0  0  0  2  0  0  0  0  0  0
  183.0520  175.3140  138.5990 C   0  0  0  0  0  2  0  0  0  0  0  0
  183.5590  179.9310  139.6760 C   0  0  0  0  0  2  0  0  0  0  0  0
  183.6940  176.0850  137.4140 C   0  0  0  0  0  2  0  0  0  0  0  0
  185.7170  177.3070  137.0060 O   0  0  0  0  0  0  0  0  0  0  0  0
  184.5610  178.0340  138.8960 N   0  0  0  0  0  0  0  0  0  0  0  0
  184.7360  177.1420  137.7770 C   0  0  0  0  0  0  0  0  0  0  0  0
  179.6780  177.8370  143.5250 O   0  0  0  0  0  1  0  0  0  0  0  0
  180.6340  178.8510  143.4990 C   0  0  0  0  0  2  0  0  0  0  0  0
  183.4030  178.2340  142.6960 C   0  0  0  0  0  2  0  0  0  0  0  0
  184.0230  179.3810  143.4800 C   0  0  0  0  0  2  0  0  0  0  0  0
  183.9390  179.1250  144.9710 C   0  0  0  0  0  2  0  0  0  0  0  0
  185.1920  179.3340  145.5470 O   0  0  0  0  0  0  0  0  0  0  0  0
  185.3810  178.2480  146.4070 C   0  0  0  0  0  2  0  0  0  0  0  0
  189.7650  176.6190  143.9390 C   0  0  0  0  0  0  0  0  0  0  0  0
  187.3230  177.3320  144.1170 C   0  0  0  0  0  2  0  0  0  0  0  0
  188.8720  177.7790  147.4110 C   0  0  0  0  0  3  0  0  0  0  0  0
  187.5370  178.1070  147.6570 C   0  0  0  0  0  3  0  0  0  0  0  0
  190.7350  176.3850  143.1740 O   0  0  0  0  0  0  0  0  0  0  0  0
  186.8010  177.9460  146.5350 N   0  0  0  0  0  0  0  0  0  0  0  0
  188.3500  176.3960  143.4510 C   0  0  0  0  0  2  0  0  0  0  0  0
  188.8880  177.4130  146.0810 C   0  0  0  0  0  0  0  0  0  0  0  0
  187.6280  177.5100  145.5740 C   0  0  0  0  0  0  0  0  0  0  0  0
  190.0090  177.0270  145.2930 N   0  0  0  0  0  2  0  0  0  0  0  0
  1 16  1  0  0  0  0
  2  1  1  0  0  0  0
  2 17  1  0  0  0  0
  3  1  2  0  0  0  0
  4  2  1  1  0  0  0
  5 13  1  6  0  0  0
  5  4  1  0  0  0  0
  7  6  1  1  0  0  0
  7  5  1  0  0  0  0
  7  4  1  0  0  0  0
  8 13  1  0  0  0  0
  8 10  1  0  0  0  0
  9  6  1  0  0  0  0
 10  4  1  0  0  0  0
 11 14  1  0  0  0  0
 11  9  1  0  0  0  0
 12 14  2  0  0  0  0
 14 13  1  0  0  0  0
 16 15  1  0  0  0  0
 17 18  1  0  0  0  0
 18 19  1  0  0  0  0
 19 20  1  0  0  0  0
 20 21  1  0  0  0  0
 21 27  1  0  0  0  0
 22 31  1  0  0  0  0
 23 30  1  0  0  0  0
 24 25  2  0  0  0  0
 26 22  2  0  0  0  0
 27 25  1  0  0  0  0
 28 22  1  0  0  0  0
 28 23  1  0  0  0  0
 29 24  1  0  0  0  0
 30 29  2  0  0  0  0
 30 27  1  0  0  0  0
 31 29  1  0  0  0  0
M  END
>  <MODEL>
6

>  <REMARK>
 VINA RESULT:      -7.1      3.213      8.062
  Name = 
  8 active torsions:
  status: ('A' for Active; 'I' for Inactive)
    1  A    between atoms: C_2  and  C_28
    2  A    between atoms: C_4  and  N_12
    3  A    between atoms: N_9  and  C_23
    4  A    between atoms: N_12  and  C_25
    5  A    between atoms: O_15  and  C_20
    6  A    between atoms: O_15  and  C_23
    7  A    between atoms: C_20  and  C_27
    8  A    between atoms: C_25  and  C_27
                            x       y       z     vdW  Elec       q    Type
                         _______ _______ _______ _____ _____    ______ ____

>  <TORSDO>
F 8

$$$$
=
 OpenBabel11052413113D

 31 35  0  0  1  0  0  0  0  0999 V2000
  192.2100  176.5390  138.9600 C   0  0  0  0  0  0  0  0  0  0  0  0
  190.7920  176.8020  138.9870 N   0  0  0  0  0  0  0  0  0  0  0  0
  192.7040  175.7990  138.0680 O   0  0  0  0  0  0  0  0  0  0  0  0
  189.9260  176.3730  137.8840 C   0  0  1  0  0  0  0  0  0  0  0  0
  188.5570  176.8390  138.0290 C   0  0  1  0  0  3  0  0  0  0  0  0
  188.8400  178.8380  136.9730 C   0  0  0  0  0  2  0  0  0  0  0  0
  189.3860  177.4210  136.8860 C   0  0  1  0  0  3  0  0  0  0  0  0
  188.3730  174.6510  137.1600 N   0  0  0  0  0  2  0  0  0  0  0  0
  187.3060  178.8740  136.6870 C   0  0  0  0  0  2  0  0  0  0  0  0
  189.7720  174.8870  137.5540 C   0  0  0  0  0  2  0  0  0  0  0  0
  186.7520  177.6940  135.8440 C   0  0  0  0  0  2  0  0  0  0  0  0
  185.7070  175.5760  136.2640 O   0  0  0  0  0  0  0  0  0  0  0  0
  187.7130  175.8630  137.4160 N   0  0  0  0  0  0  0  0  0  0  0  0
  186.6670  176.3390  136.5460 C   0  0  0  0  0  0  0  0  0  0  0  0
  194.3630  176.5160  139.9260 O   0  0  0  0  0  1  0  0  0  0  0  0
  193.1320  177.1690  139.9510 C   0  0  0  0  0  2  0  0  0  0  0  0
  190.2270  177.6670  140.0220 C   0  0  0  0  0  2  0  0  0  0  0  0
  189.9040  176.8660  141.2740 C   0  0  0  0  0  2  0  0  0  0  0  0
  190.8100  177.2680  142.4220 C   0  0  0  0  0  2  0  0  0  0  0  0
  190.0380  177.8070  143.4520 O   0  0  0  0  0  0  0  0  0  0  0  0
  189.7460  176.7260  144.2900 C   0  0  0  0  0  2  0  0  0  0  0  0
  185.1250  178.6710  145.9710 C   0  0  0  0  0  0  0  0  0  0  0  0
  186.7710  177.7290  144.2660 C   0  0  0  0  0  2  0  0  0  0  0  0
  188.3590  177.5830  147.5690 C   0  0  0  0  0  3  0  0  0  0  0  0
  189.3770  177.1360  146.7240 C   0  0  0  0  0  3  0  0  0  0  0  0
  183.9290  178.9670  146.2180 O   0  0  0  0  0  0  0  0  0  0  0  0
  188.9660  177.1730  145.4370 N   0  0  0  0  0  0  0  0  0  0  0  0
  185.6350  178.7310  144.5470 C   0  0  0  0  0  2  0  0  0  0  0  0
  187.3220  177.8890  146.7120 C   0  0  0  0  0  0  0  0  0  0  0  0
  187.7120  177.6460  145.4310 C   0  0  0  0  0  0  0  0  0  0  0  0
  186.0170  178.3500  147.0470 N   0  0  0  0  0  2  0  0  0  0  0  0
  1  2  1  0  0  0  0
  1 16  1  0  0  0  0
  2 17  1  0  0  0  0
  3  1  2  0  0  0  0
  4  5  1  0  0  0  0
  4  2  1  1  0  0  0
  5 13  1  6  0  0  0
  7  6  1  1  0  0  0
  7  4  1  0  0  0  0
  7  5  1  0  0  0  0
  8 13  1  0  0  0  0
  8 10  1  0  0  0  0
  9  6  1  0  0  0  0
 10  4  1  0  0  0  0
 11 14  1  0  0  0  0
 11  9  1  0  0  0  0
 12 14  2  0  0  0  0
 14 13  1  0  0  0  0
 15 16  1  0  0  0  0
 17 18  1  0  0  0  0
 18 19  1  0  0  0  0
 19 20  1  0  0  0  0
 20 21  1  0  0  0  0
 21 27  1  0  0  0  0
 22 26  2  0  0  0  0
 22 31  1  0  0  0  0
 23 28  1  0  0  0  0
 23 30  1  0  0  0  0
 25 24  2  0  0  0  0
 27 25  1  0  0  0  0
 28 22  1  0  0  0  0
 29 31  1  0  0  0  0
 29 24  1  0  0  0  0
 30 27  1  0  0  0  0
 30 29  2  0  0  0  0
M  END
>  <MODEL>
7

>  <REMARK>
 VINA RESULT:      -7.1      2.883      6.220
  Name = 
  8 active torsions:
  status: ('A' for Active; 'I' for Inactive)
    1  A    between atoms: C_2  and  C_28
    2  A    between atoms: C_4  and  N_12
    3  A    between atoms: N_9  and  C_23
    4  A    between atoms: N_12  and  C_25
    5  A    between atoms: O_15  and  C_20
    6  A    between atoms: O_15  and  C_23
    7  A    between atoms: C_20  and  C_27
    8  A    between atoms: C_25  and  C_27
                            x       y       z     vdW  Elec       q    Type
                         _______ _______ _______ _____ _____    ______ ____

>  <TORSDO>
F 8

$$$$
=
 OpenBabel11052413113D

 31 35  0  0  1  0  0  0  0  0999 V2000
  191.5240  176.2790  146.5570 C   0  0  0  0  0  0  0  0  0  0  0  0
  190.5300  177.2840  146.2730 N   0  0  0  0  0  0  0  0  0  0  0  0
  192.2500  175.8210  145.6340 O   0  0  0  0  0  0  0  0  0  0  0  0
  190.4650  177.9260  144.9560 C   0  0  1  0  0  0  0  0  0  0  0  0
  190.6120  176.9810  143.8620 C   0  0  1  0  0  3  0  0  0  0  0  0
  188.4030  176.4520  143.6660 C   0  0  0  0  0  2  0  0  0  0  0  0
  189.2530  177.6580  144.0360 C   0  0  1  0  0  3  0  0  0  0  0  0
  191.8000  178.9040  143.1770 N   0  0  0  0  0  2  0  0  0  0  0  0
  188.6700  175.9990  142.1960 C   0  0  0  0  0  2  0  0  0  0  0  0
  191.4330  179.0550  144.5960 C   0  0  0  0  0  2  0  0  0  0  0  0
  189.2270  177.0940  141.2470 C   0  0  0  0  0  2  0  0  0  0  0  0
  191.3800  177.8040  140.4600 O   0  0  0  0  0  0  0  0  0  0  0  0
  191.2380  177.6790  142.7840 N   0  0  0  0  0  0  0  0  0  0  0  0
  190.6830  177.5040  141.4650 C   0  0  0  0  0  0  0  0  0  0  0  0
  192.7470  176.5550  148.5560 O   0  0  0  0  0  1  0  0  0  0  0  0
  191.7530  175.7900  147.9490 C   0  0  0  0  0  2  0  0  0  0  0  0
  189.6950  177.8150  147.3500 C   0  0  0  0  0  2  0  0  0  0  0  0
  188.3320  177.1410  147.3550 C   0  0  0  0  0  2  0  0  0  0  0  0
  187.2250  178.1620  147.5310 C   0  0  0  0  0  2  0  0  0  0  0  0
  186.1840  177.8700  146.6500 O   0  0  0  0  0  0  0  0  0  0  0  0
  186.2530  178.8610  145.6660 C   0  0  0  0  0  2  0  0  0  0  0  0
  184.1860  178.6570  140.8030 C   0  0  0  0  0  0  0  0  0  0  0  0
  186.0470  178.5890  142.5450 C   0  0  0  0  0  2  0  0  0  0  0  0
  182.8470  178.8310  144.3210 C   0  0  0  0  0  3  0  0  0  0  0  0
  183.7760  178.8960  145.3610 C   0  0  0  0  0  3  0  0  0  0  0  0
  183.8580  178.4290  139.6110 O   0  0  0  0  0  0  0  0  0  0  0  0
  185.0340  178.8670  144.8680 N   0  0  0  0  0  0  0  0  0  0  0  0
  185.6160  179.0280  141.1330 C   0  0  0  0  0  2  0  0  0  0  0  0
  183.6230  178.7640  143.1820 C   0  0  0  0  0  0  0  0  0  0  0  0
  184.9380  178.7980  143.5330 C   0  0  0  0  0  0  0  0  0  0  0  0
  183.1870  178.6360  141.8330 N   0  0  0  0  0  2  0  0  0  0  0  0
  1 16  1  0  0  0  0
  2  1  1  0  0  0  0
  2 17  1  0  0  0  0
  3  1  2  0  0  0  0
  4  2  1  1  0  0  0
  5 13  1  6  0  0  0
  5  7  1  0  0  0  0
  5  4  1  0  0  0  0
  7  6  1  1  0  0  0
  7  4  1  0  0  0  0
  8 10  1  0  0  0  0
  9  6  1  0  0  0  0
 10  4  1  0  0  0  0
 11 14  1  0  0  0  0
 11  9  1  0  0  0  0
 12 14  2  0  0  0  0
 13  8  1  0  0  0  0
 14 13  1  0  0  0  0
 16 15  1  0  0  0  0
 17 18  1  0  0  0  0
 18 19  1  0  0  0  0
 20 19  1  0  0  0  0
 21 20  1  0  0  0  0
 22 28  1  0  0  0  0
 22 31  1  0  0  0  0
 23 30  1  0  0  0  0
 24 25  2  0  0  0  0
 26 22  2  0  0  0  0
 27 25  1  0  0  0  0
 27 21  1  0  0  0  0
 28 23  1  0  0  0  0
 29 30  2  0  0  0  0
 29 24  1  0  0  0  0
 30 27  1  0  0  0  0
 31 29  1  0  0  0  0
M  END
>  <MODEL>
8

>  <REMARK>
 VINA RESULT:      -7.0      1.576      5.080
  Name = 
  8 active torsions:
  status: ('A' for Active; 'I' for Inactive)
    1  A    between atoms: C_2  and  C_28
    2  A    between atoms: C_4  and  N_12
    3  A    between atoms: N_9  and  C_23
    4  A    between atoms: N_12  and  C_25
    5  A    between atoms: O_15  and  C_20
    6  A    between atoms: O_15  and  C_23
    7  A    between atoms: C_20  and  C_27
    8  A    between atoms: C_25  and  C_27
                            x       y       z     vdW  Elec       q    Type
                         _______ _______ _______ _____ _____    ______ ____

>  <TORSDO>
F 8

$$$$
=
 OpenBabel11052413113D

 31 35  0  0  1  0  0  0  0  0999 V2000
  182.1870  178.9560  142.7760 C   0  0  0  0  0  0  0  0  0  0  0  0
  182.9340  178.6150  141.5900 N   0  0  0  0  0  0  0  0  0  0  0  0
  181.0200  179.4220  142.6820 O   0  0  0  0  0  0  0  0  0  0  0  0
  182.2960  178.6270  140.2700 C   0  0  1  0  0  0  0  0  0  0  0  0
  182.9430  177.7330  139.3240 C   0  0  1  0  0  3  0  0  0  0  0  0
  181.7330  175.8720  139.8440 C   0  0  0  0  0  2  0  0  0  0  0  0
  181.5290  177.3790  139.7820 C   0  0  1  0  0  3  0  0  0  0  0  0
  182.3610  179.6430  138.0640 N   0  0  0  0  0  2  0  0  0  0  0  0
  182.0790  175.2870  138.4390 C   0  0  0  0  0  2  0  0  0  0  0  0
  182.1510  179.9370  139.4920 C   0  0  0  0  0  2  0  0  0  0  0  0
  181.6030  176.1310  137.2250 C   0  0  0  0  0  2  0  0  0  0  0  0
  182.5400  177.7870  135.7640 O   0  0  0  0  0  0  0  0  0  0  0  0
  182.7790  178.3040  138.0250 N   0  0  0  0  0  0  0  0  0  0  0  0
  182.3670  177.4260  136.9580 C   0  0  0  0  0  0  0  0  0  0  0  0
  183.5160  179.8240  144.5220 O   0  0  0  0  0  1  0  0  0  0  0  0
  182.7520  178.7230  144.1390 C   0  0  0  0  0  2  0  0  0  0  0  0
  184.2860  178.0690  141.7070 C   0  0  0  0  0  2  0  0  0  0  0  0
  185.3190  179.1850  141.7020 C   0  0  0  0  0  2  0  0  0  0  0  0
  186.7250  178.6200  141.6670 C   0  0  0  0  0  2  0  0  0  0  0  0
  186.8230  177.5680  142.5770 O   0  0  0  0  0  0  0  0  0  0  0  0
  188.1590  177.5690  142.9900 C   0  0  0  0  0  2  0  0  0  0  0  0
  191.3010  176.7560  147.1640 C   0  0  0  0  0  0  0  0  0  0  0  0
  190.7520  177.1120  144.7000 C   0  0  0  0  0  2  0  0  0  0  0  0
  187.6500  177.5030  146.6160 C   0  0  0  0  0  3  0  0  0  0  0  0
  187.2080  177.6240  145.2970 C   0  0  0  0  0  3  0  0  0  0  0  0
  192.2010  176.7170  148.0410 O   0  0  0  0  0  0  0  0  0  0  0  0
  188.2390  177.4550  144.4410 N   0  0  0  0  0  0  0  0  0  0  0  0
  191.6290  176.3810  145.7350 C   0  0  0  0  0  2  0  0  0  0  0  0
  189.0000  177.2490  146.4950 C   0  0  0  0  0  0  0  0  0  0  0  0
  189.3330  177.2130  145.1760 C   0  0  0  0  0  0  0  0  0  0  0  0
  189.9560  177.0840  147.5370 N   0  0  0  0  0  2  0  0  0  0  0  0
  1 16  1  0  0  0  0
  2 17  1  0  0  0  0
  2  1  1  0  0  0  0
  3  1  2  0  0  0  0
  4  2  1  1  0  0  0
  5 13  1  6  0  0  0
  5  7  1  0  0  0  0
  5  4  1  0  0  0  0
  7  6  1  1  0  0  0
  7  4  1  0  0  0  0
  8 10  1  0  0  0  0
  9  6  1  0  0  0  0
 10  4  1  0  0  0  0
 11  9  1  0  0  0  0
 12 14  2  0  0  0  0
 13  8  1  0  0  0  0
 14 11  1  0  0  0  0
 14 13  1  0  0  0  0
 16 15  1  0  0  0  0
 18 17  1  0  0  0  0
 19 18  1  0  0  0  0
 19 20  1  0  0  0  0
 20 21  1  0  0  0  0
 21 27  1  0  0  0  0
 22 31  1  0  0  0  0
 22 26  2  0  0  0  0
 23 30  1  0  0  0  0
 23 28  1  0  0  0  0
 25 24  2  0  0  0  0
 27 30  1  0  0  0  0
 27 25  1  0  0  0  0
 28 22  1  0  0  0  0
 29 24  1  0  0  0  0
 29 31  1  0  0  0  0
 30 29  2  0  0  0  0
M  END
>  <MODEL>
9

>  <REMARK>
 VINA RESULT:      -7.0      3.422      8.311
  Name = 
  8 active torsions:
  status: ('A' for Active; 'I' for Inactive)
    1  A    between atoms: C_2  and  C_28
    2  A    between atoms: C_4  and  N_12
    3  A    between atoms: N_9  and  C_23
    4  A    between atoms: N_12  and  C_25
    5  A    between atoms: O_15  and  C_20
    6  A    between atoms: O_15  and  C_23
    7  A    between atoms: C_20  and  C_27
    8  A    between atoms: C_25  and  C_27
                            x       y       z     vdW  Elec       q    Type
                         _______ _______ _______ _____ _____    ______ ____

>  <TORSDO>
F 8

$$$$
