=
 OpenBabel11052415343D

 37 41  0  0  1  0  0  0  0  0999 V2000
  187.7200  177.9550  139.5570 C   0  0  1  0  0  3  0  0  0  0  0  0
  189.4840  179.1760  140.3390 O   0  0  0  0  0  1  0  0  0  0  0  0
  187.8540  177.3380  142.1530 C   0  0  1  0  0  3  0  0  0  0  0  0
  190.3620  175.6160  141.7630 O   0  0  0  0  0  0  0  0  0  0  0  0
  186.8610  177.6370  143.2940 C   0  0  0  0  0  2  0  0  0  0  0  0
  189.1690  178.3150  139.2790 C   0  0  1  0  0  0  0  0  0  0  0  0
  190.3800  176.8760  141.7520 C   0  0  0  0  0  0  0  0  0  0  0  0
  191.5000  177.4850  139.6030 C   0  0  0  0  0  0  0  0  0  0  0  0
  186.2190  178.8570  141.3750 C   0  0  0  0  0  0  0  0  0  0  0  0
  188.6120  176.4790  139.4170 S   0  0  0  0  0  0  0  0  0  0  0  0
  190.4990  177.8500  138.7640 C   0  0  0  0  0  3  0  0  0  0  0  0
  187.3580  178.1160  140.9890 N   0  0  0  0  0  0  0  0  0  0  0  0
  189.3460  177.6530  142.5500 C   0  0  2  0  0  3  0  0  0  0  0  0
  185.8170  178.6330  142.7780 C   0  0  1  0  0  3  0  0  0  0  0  0
  191.3740  177.5470  141.0120 O   0  0  0  0  0  0  0  0  0  0  0  0
  185.6140  179.6380  140.5930 O   0  0  0  0  0  0  0  0  0  0  0  0
  183.7600  177.9580  141.5000 C   0  0  0  0  0  2  0  0  0  0  0  0
  184.3850  178.0870  142.8730 C   0  0  2  0  0  3  0  0  0  0  0  0
  183.4410  178.9870  143.6270 C   0  0  0  0  0  2  0  0  0  0  0  0
  182.3810  179.3220  142.6010 C   0  0  1  0  0  3  0  0  0  0  0  0
  182.4170  178.3580  141.5820 O   0  0  0  0  0  0  0  0  0  0  0  0
  180.3200  180.5350  142.8420 O   0  0  0  0  0  1  0  0  0  0  0  0
  181.0000  179.3790  143.2390 C   0  0  0  0  0  2  0  0  0  0  0  0
  190.6800  179.7670  143.8030 O   0  0  0  0  0  1  0  0  0  0  0  0
  190.4310  178.7360  144.7110 C   0  0  2  0  0  3  0  0  0  0  0  0
  191.2040  177.4980  144.2760 C   0  0  2  0  0  3  0  0  0  0  0  0
  189.6860  177.5760  144.0560 C   0  0  2  0  0  0  0  0  0  0  0  0
  191.6340  176.7020  145.4730 C   0  0  0  0  0  0  0  0  0  0  0  0
  191.8950  175.4770  145.3480 O   0  0  0  0  0  0  0  0  0  0  0  0
  191.8000  177.3160  146.7090 O   0  0  0  0  0  1  0  0  0  0  0  0
  188.8300  176.6980  144.9850 C   0  0  0  0  0  2  0  0  0  0  0  0
  188.3140  177.4440  146.1650 C   0  0  0  0  0  0  0  0  0  0  0  0
  188.2290  177.6950  148.5690 O   0  0  0  0  0  1  0  0  0  0  0  0
  187.5180  178.4070  146.0000 O   0  0  0  0  0  0  0  0  0  0  0  0
  188.7080  177.0520  147.4780 N   0  0  0  0  0  2  0  0  0  0  0  0
  193.8030  177.1780  139.9870 O   0  0  0  0  0  1  0  0  0  0  0  0
  192.8060  177.0820  139.0180 C   0  0  0  0  0  2  0  0  0  0  0  0
  1 10  1  1  0  0  0
  1 12  1  0  0  0  0
  3 13  1  0  0  0  0
  3  5  1  1  0  0  0
  6 10  1  0  0  0  0
  6  1  1  0  0  0  0
  6  2  1  1  0  0  0
  7  4  2  0  0  0  0
  8 15  1  0  0  0  0
  9 14  1  0  0  0  0
 11  6  1  0  0  0  0
 11  8  2  0  0  0  0
 12  9  1  0  0  0  0
 12  3  1  0  0  0  0
 13  7  1  6  0  0  0
 13 27  1  0  0  0  0
 14 18  1  0  0  0  0
 14  5  1  6  0  0  0
 15  7  1  0  0  0  0
 16  9  2  0  0  0  0
 17 21  1  0  0  0  0
 18 17  1  6  0  0  0
 18 19  1  0  0  0  0
 20 23  1  1  0  0  0
 20 19  1  0  0  0  0
 21 20  1  0  0  0  0
 22 23  1  0  0  0  0
 25 24  1  6  0  0  0
 26 25  1  0  0  0  0
 26 28  1  1  0  0  0
 27 26  1  0  0  0  0
 27 25  1  0  0  0  0
 27 31  1  1  0  0  0
 28 30  1  0  0  0  0
 29 28  2  0  0  0  0
 31 32  1  0  0  0  0
 32 35  1  0  0  0  0
 34 32  2  0  0  0  0
 35 33  1  0  0  0  0
 37  8  1  0  0  0  0
 37 36  1  0  0  0  0
M  END
>  <MODEL>
1

>  <REMARK>
 VINA RESULT:      -7.9      0.000      0.000
  Name = 
  7 active torsions:
  status: ('A' for Active; 'I' for Inactive)
    1  A    between atoms: C_1  and  C_5
    2  A    between atoms: C_1  and  C_36
    3  A    between atoms: C_6  and  C_31
    4  A    between atoms: C_11  and  C_33
    5  A    between atoms: C_18  and  C_19
    6  A    between atoms: C_21  and  C_30
    7  A    between atoms: C_29  and  C_36
                            x       y       z     vdW  Elec       q    Type
                         _______ _______ _______ _____ _____    ______ ____

>  <TORSDO>
F 7

$$$$
=
 OpenBabel11052415343D

 37 41  0  0  1  0  0  0  0  0999 V2000
  184.8060  179.0810  138.8550 C   0  0  1  0  0  3  0  0  0  0  0  0
  183.1060  178.7410  137.3690 O   0  0  0  0  0  1  0  0  0  0  0  0
  185.1810  176.5850  137.9780 C   0  0  1  0  0  3  0  0  0  0  0  0
  182.8050  175.5070  139.5890 O   0  0  0  0  0  0  0  0  0  0  0  0
  186.3270  175.9950  137.1340 C   0  0  0  0  0  2  0  0  0  0  0  0
  183.3050  179.2200  138.6710 C   0  0  1  0  0  0  0  0  0  0  0  0
  182.6750  176.1820  138.5320 C   0  0  0  0  0  0  0  0  0  0  0  0
  181.1480  178.0600  139.1500 C   0  0  0  0  0  0  0  0  0  0  0  0
  186.5160  178.3500  137.1480 C   0  0  0  0  0  0  0  0  0  0  0  0
  184.0360  178.2410  140.1570 S   0  0  0  0  0  0  0  0  0  0  0  0
  181.9510  179.1410  139.3130 C   0  0  0  0  0  3  0  0  0  0  0  0
  185.3960  178.0550  137.9570 N   0  0  0  0  0  0  0  0  0  0  0  0
  183.7600  176.1350  137.4690 C   0  0  2  0  0  3  0  0  0  0  0  0
  187.1750  177.1520  136.5920 C   0  0  1  0  0  3  0  0  0  0  0  0
  181.5120  176.9540  138.3440 O   0  0  0  0  0  0  0  0  0  0  0  0
  186.9050  179.5270  136.9220 O   0  0  0  0  0  0  0  0  0  0  0  0
  189.0820  175.6190  137.1650 C   0  0  0  0  0  2  0  0  0  0  0  0
  188.6440  177.0610  137.0300 C   0  0  2  0  0  3  0  0  0  0  0  0
  188.9100  177.6590  138.3870 C   0  0  0  0  0  2  0  0  0  0  0  0
  189.4430  176.4910  139.1870 C   0  0  1  0  0  3  0  0  0  0  0  0
  189.9040  175.5070  138.2980 O   0  0  0  0  0  0  0  0  0  0  0  0
  190.4850  176.2360  141.3370 O   0  0  0  0  0  1  0  0  0  0  0  0
  190.5550  176.9320  140.1270 C   0  0  0  0  0  2  0  0  0  0  0  0
  184.2960  176.0210  134.7280 O   0  0  0  0  0  1  0  0  0  0  0  0
  183.9760  174.7540  135.2180 C   0  0  2  0  0  3  0  0  0  0  0  0
  182.5350  174.7670  135.7130 C   0  0  2  0  0  3  0  0  0  0  0  0
  183.6960  174.7860  136.7190 C   0  0  2  0  0  0  0  0  0  0  0  0
  181.8970  173.4260  135.5020 C   0  0  0  0  0  0  0  0  0  0  0  0
  182.3250  172.6650  134.5960 O   0  0  0  0  0  0  0  0  0  0  0  0
  180.8700  172.9930  136.3340 O   0  0  0  0  0  1  0  0  0  0  0  0
  183.9330  173.4750  137.4890 C   0  0  0  0  0  2  0  0  0  0  0  0
  185.1590  172.7590  137.0390 C   0  0  0  0  0  0  0  0  0  0  0  0
  187.5210  172.3340  137.3300 O   0  0  0  0  0  1  0  0  0  0  0  0
  185.1090  171.9990  136.0350 O   0  0  0  0  0  0  0  0  0  0  0  0
  186.3870  172.9500  137.7370 N   0  0  0  0  0  2  0  0  0  0  0  0
  179.8130  177.2970  140.9340 O   0  0  0  0  0  1  0  0  0  0  0  0
  179.8010  178.0770  139.7780 C   0  0  0  0  0  2  0  0  0  0  0  0
  1 10  1  1  0  0  0
  3  5  1  6  0  0  0
  6  2  1  6  0  0  0
  6  1  1  0  0  0  0
  6 11  1  0  0  0  0
  6 10  1  0  0  0  0
  7  4  2  0  0  0  0
  8 11  2  0  0  0  0
  8 37  1  0  0  0  0
  9 12  1  0  0  0  0
 12  3  1  0  0  0  0
 12  1  1  0  0  0  0
 13  3  1  0  0  0  0
 13  7  1  1  0  0  0
 14 18  1  0  0  0  0
 14  5  1  1  0  0  0
 14  9  1  0  0  0  0
 15  7  1  0  0  0  0
 15  8  1  0  0  0  0
 16  9  2  0  0  0  0
 17 21  1  0  0  0  0
 18 17  1  1  0  0  0
 18 19  1  0  0  0  0
 19 20  1  0  0  0  0
 20 23  1  1  0  0  0
 21 20  1  0  0  0  0
 23 22  1  0  0  0  0
 25 24  1  6  0  0  0
 25 26  1  0  0  0  0
 25 27  1  0  0  0  0
 26 28  1  1  0  0  0
 26 27  1  0  0  0  0
 27 13  1  0  0  0  0
 27 31  1  1  0  0  0
 28 30  1  0  0  0  0
 29 28  2  0  0  0  0
 32 31  1  0  0  0  0
 32 35  1  0  0  0  0
 33 35  1  0  0  0  0
 34 32  2  0  0  0  0
 37 36  1  0  0  0  0
M  END
>  <MODEL>
2

>  <REMARK>
 VINA RESULT:      -6.1      4.831      9.712
  Name = 
  7 active torsions:
  status: ('A' for Active; 'I' for Inactive)
    1  A    between atoms: C_1  and  C_5
    2  A    between atoms: C_1  and  C_36
    3  A    between atoms: C_6  and  C_31
    4  A    between atoms: C_11  and  C_33
    5  A    between atoms: C_18  and  C_19
    6  A    between atoms: C_21  and  C_30
    7  A    between atoms: C_29  and  C_36
                            x       y       z     vdW  Elec       q    Type
                         _______ _______ _______ _____ _____    ______ ____

>  <TORSDO>
F 7

$$$$
=
 OpenBabel11052415343D

 37 41  0  0  1  0  0  0  0  0999 V2000
  184.2560  178.7450  139.5530 C   0  0  1  0  0  3  0  0  0  0  0  0
  182.4700  179.0540  138.1640 O   0  0  0  0  0  1  0  0  0  0  0  0
  184.0030  176.4150  138.2690 C   0  0  1  0  0  3  0  0  0  0  0  0
  181.5000  175.6430  139.8650 O   0  0  0  0  0  0  0  0  0  0  0  0
  184.9460  175.7340  137.2590 C   0  0  0  0  0  2  0  0  0  0  0  0
  182.8230  179.2470  139.5070 C   0  0  1  0  0  0  0  0  0  0  0  0
  181.4930  176.4990  138.9400 C   0  0  0  0  0  0  0  0  0  0  0  0
  180.4740  178.5390  139.9590 C   0  0  0  0  0  0  0  0  0  0  0  0
  185.6830  177.9490  137.6290 C   0  0  0  0  0  0  0  0  0  0  0  0
  183.3590  177.8910  140.7610 S   0  0  0  0  0  0  0  0  0  0  0  0
  181.5140  179.3680  140.2280 C   0  0  0  0  0  3  0  0  0  0  0  0
  184.5560  177.7800  138.4630 N   0  0  0  0  0  0  0  0  0  0  0  0
  182.4980  176.3900  137.8040 C   0  0  2  0  0  3  0  0  0  0  0  0
  186.0210  176.7450  136.8440 C   0  0  1  0  0  3  0  0  0  0  0  0
  180.5380  177.5340  138.9630 O   0  0  0  0  0  0  0  0  0  0  0  0
  186.3280  179.0290  137.5610 O   0  0  0  0  0  0  0  0  0  0  0  0
  188.4120  176.6850  136.0700 C   0  0  0  0  0  2  0  0  0  0  0  0
  187.4430  176.2530  137.1500 C   0  0  2  0  0  3  0  0  0  0  0  0
  187.5720  174.7520  137.1860 C   0  0  0  0  0  2  0  0  0  0  0  0
  188.5760  174.4600  136.0940 C   0  0  1  0  0  3  0  0  0  0  0  0
  189.3040  175.6300  135.8250 O   0  0  0  0  0  0  0  0  0  0  0  0
  190.5180  173.7940  137.3430 O   0  0  0  0  0  1  0  0  0  0  0  0
  189.5080  173.3260  136.4960 C   0  0  0  0  0  2  0  0  0  0  0  0
  182.7580  176.6820  135.0360 O   0  0  0  0  0  1  0  0  0  0  0  0
  182.2270  175.4300  135.3500 C   0  0  2  0  0  3  0  0  0  0  0  0
  180.8690  175.6230  136.0120 C   0  0  2  0  0  3  0  0  0  0  0  0
  182.0910  175.2380  136.8590 C   0  0  2  0  0  0  0  0  0  0  0  0
  179.9510  174.4880  135.6650 C   0  0  0  0  0  0  0  0  0  0  0  0
  180.1350  173.8360  134.6040 O   0  0  0  0  0  0  0  0  0  0  0  0
  178.9310  174.1140  136.5320 O   0  0  0  0  0  1  0  0  0  0  0  0
  182.1190  173.7880  137.3710 C   0  0  0  0  0  2  0  0  0  0  0  0
  183.1310  172.9500  136.6700 C   0  0  0  0  0  0  0  0  0  0  0  0
  185.3300  171.9440  136.6690 O   0  0  0  0  0  1  0  0  0  0  0  0
  182.8850  172.4990  135.5190 O   0  0  0  0  0  0  0  0  0  0  0  0
  184.3810  172.6780  137.2980 N   0  0  0  0  0  2  0  0  0  0  0  0
  179.0220  177.7510  141.6360 O   0  0  0  0  0  1  0  0  0  0  0  0
  179.1920  178.7520  140.6810 C   0  0  0  0  0  2  0  0  0  0  0  0
  1 10  1  1  0  0  0
  3  5  1  6  0  0  0
  3 12  1  0  0  0  0
  6  2  1  6  0  0  0
  6  1  1  0  0  0  0
  6 11  1  0  0  0  0
  6 10  1  0  0  0  0
  7 15  1  0  0  0  0
  7  4  2  0  0  0  0
  8 11  2  0  0  0  0
  8 37  1  0  0  0  0
  9 12  1  0  0  0  0
 12  1  1  0  0  0  0
 13  3  1  0  0  0  0
 13  7  1  1  0  0  0
 14 18  1  0  0  0  0
 14  5  1  1  0  0  0
 14  9  1  0  0  0  0
 15  8  1  0  0  0  0
 16  9  2  0  0  0  0
 18 17  1  6  0  0  0
 18 19  1  0  0  0  0
 20 23  1  1  0  0  0
 20 19  1  0  0  0  0
 21 17  1  0  0  0  0
 21 20  1  0  0  0  0
 23 22  1  0  0  0  0
 25 24  1  1  0  0  0
 25 26  1  0  0  0  0
 25 27  1  0  0  0  0
 26 28  1  6  0  0  0
 26 27  1  0  0  0  0
 27 31  1  1  0  0  0
 27 13  1  0  0  0  0
 28 30  1  0  0  0  0
 29 28  2  0  0  0  0
 32 35  1  0  0  0  0
 32 31  1  0  0  0  0
 33 35  1  0  0  0  0
 34 32  2  0  0  0  0
 37 36  1  0  0  0  0
M  END
>  <MODEL>
3

>  <REMARK>
 VINA RESULT:      -6.1      6.034     10.523
  Name = 
  7 active torsions:
  status: ('A' for Active; 'I' for Inactive)
    1  A    between atoms: C_1  and  C_5
    2  A    between atoms: C_1  and  C_36
    3  A    between atoms: C_6  and  C_31
    4  A    between atoms: C_11  and  C_33
    5  A    between atoms: C_18  and  C_19
    6  A    between atoms: C_21  and  C_30
    7  A    between atoms: C_29  and  C_36
                            x       y       z     vdW  Elec       q    Type
                         _______ _______ _______ _____ _____    ______ ____

>  <TORSDO>
F 7

$$$$
=
 OpenBabel11052415343D

 37 41  0  0  1  0  0  0  0  0999 V2000
  182.4740  175.3950  137.0370 C   0  0  1  0  0  3  0  0  0  0  0  0
  183.5820  175.3450  135.0410 O   0  0  0  0  0  1  0  0  0  0  0  0
  184.8850  176.4050  137.5910 C   0  0  1  0  0  3  0  0  0  0  0  0
  186.2390  173.6590  137.4010 O   0  0  0  0  0  0  0  0  0  0  0  0
  185.2860  177.8280  138.0240 C   0  0  0  0  0  2  0  0  0  0  0  0
  182.8090  174.5040  135.8530 C   0  0  1  0  0  0  0  0  0  0  0  0
  185.8610  174.3150  136.3930 C   0  0  0  0  0  0  0  0  0  0  0  0
  184.4090  172.7410  135.1070 C   0  0  0  0  0  0  0  0  0  0  0  0
  183.0240  177.8400  137.3420 C   0  0  0  0  0  0  0  0  0  0  0  0
  183.2130  173.9560  137.6530 S   0  0  0  0  0  0  0  0  0  0  0  0
  183.1360  173.1180  135.3800 C   0  0  0  0  0  3  0  0  0  0  0  0
  183.4520  176.5000  137.2110 N   0  0  0  0  0  0  0  0  0  0  0  0
  185.8150  175.8330  136.4550 C   0  0  2  0  0  3  0  0  0  0  0  0
  184.0730  178.7480  137.8440 C   0  0  1  0  0  3  0  0  0  0  0  0
  185.5070  173.6290  135.2150 O   0  0  0  0  0  0  0  0  0  0  0  0
  181.8570  178.2160  137.0490 O   0  0  0  0  0  0  0  0  0  0  0  0
  184.6490  179.1510  140.2580 C   0  0  0  0  0  2  0  0  0  0  0  0
  183.6500  179.4290  139.1550 C   0  0  2  0  0  3  0  0  0  0  0  0
  182.3410  178.9250  139.7050 C   0  0  0  0  0  2  0  0  0  0  0  0
  182.7190  178.3700  141.0590 C   0  0  1  0  0  3  0  0  0  0  0  0
  183.9440  178.9310  141.4520 O   0  0  0  0  0  0  0  0  0  0  0  0
  182.2090  179.0040  143.3200 O   0  0  0  0  0  1  0  0  0  0  0  0
  181.6390  178.6610  142.0910 C   0  0  0  0  0  2  0  0  0  0  0  0
  186.3890  178.0450  134.8440 O   0  0  0  0  0  1  0  0  0  0  0  0
  187.5410  177.5980  135.4930 C   0  0  2  0  0  3  0  0  0  0  0  0
  187.8690  176.1940  135.0030 C   0  0  2  0  0  3  0  0  0  0  0  0
  187.2510  176.4000  136.3940 C   0  0  2  0  0  0  0  0  0  0  0  0
  189.3540  175.9760  134.9910 C   0  0  0  0  0  0  0  0  0  0  0  0
  189.8140  174.8050  134.9830 O   0  0  0  0  0  1  0  0  0  0  0  0
  190.2260  177.0570  134.9340 O   0  0  0  0  0  0  0  0  0  0  0  0
  188.2030  176.1920  137.5850 C   0  0  0  0  0  2  0  0  0  0  0  0
  188.4980  177.4570  138.3130 C   0  0  0  0  0  0  0  0  0  0  0  0
  188.6000  178.6490  140.4140 O   0  0  0  0  0  1  0  0  0  0  0  0
  188.8460  178.4840  137.6720 O   0  0  0  0  0  0  0  0  0  0  0  0
  188.3670  177.5040  139.7320 N   0  0  0  0  0  2  0  0  0  0  0  0
  184.3720  170.4390  135.6010 O   0  0  0  0  0  1  0  0  0  0  0  0
  184.6480  171.3660  134.5960 C   0  0  0  0  0  2  0  0  0  0  0  0
  1 12  1  0  0  0  0
  1 10  1  1  0  0  0
  3  5  1  6  0  0  0
  6  2  1  6  0  0  0
  6  1  1  0  0  0  0
  6 10  1  0  0  0  0
  7  4  2  0  0  0  0
  8 15  1  0  0  0  0
  8 11  2  0  0  0  0
  9 14  1  0  0  0  0
 11  6  1  0  0  0  0
 12  9  1  0  0  0  0
 12  3  1  0  0  0  0
 13  7  1  1  0  0  0
 13  3  1  0  0  0  0
 14  5  1  1  0  0  0
 14 18  1  0  0  0  0
 15  7  1  0  0  0  0
 16  9  2  0  0  0  0
 17 21  1  0  0  0  0
 18 19  1  1  0  0  0
 18 17  1  0  0  0  0
 19 20  1  0  0  0  0
 20 21  1  0  0  0  0
 20 23  1  1  0  0  0
 23 22  1  0  0  0  0
 25 24  1  6  0  0  0
 25 27  1  0  0  0  0
 26 28  1  1  0  0  0
 26 25  1  0  0  0  0
 26 27  1  0  0  0  0
 27 13  1  0  0  0  0
 27 31  1  1  0  0  0
 29 28  1  0  0  0  0
 30 28  2  0  0  0  0
 31 32  1  0  0  0  0
 32 35  1  0  0  0  0
 34 32  2  0  0  0  0
 35 33  1  0  0  0  0
 37  8  1  0  0  0  0
 37 36  1  0  0  0  0
M  END
>  <MODEL>
4

>  <REMARK>
 VINA RESULT:      -5.9      5.082      7.680
  Name = 
  7 active torsions:
  status: ('A' for Active; 'I' for Inactive)
    1  A    between atoms: C_1  and  C_5
    2  A    between atoms: C_1  and  C_36
    3  A    between atoms: C_6  and  C_31
    4  A    between atoms: C_11  and  C_33
    5  A    between atoms: C_18  and  C_19
    6  A    between atoms: C_21  and  C_30
    7  A    between atoms: C_29  and  C_36
                            x       y       z     vdW  Elec       q    Type
                         _______ _______ _______ _____ _____    ______ ____

>  <TORSDO>
F 7

$$$$
=
 OpenBabel11052415343D

 37 41  0  0  1  0  0  0  0  0999 V2000
  191.6200  176.4260  139.7020 C   0  0  1  0  0  3  0  0  0  0  0  0
  190.5430  174.9370  138.3450 O   0  0  0  0  0  1  0  0  0  0  0  0
  189.2240  177.5290  139.2750 C   0  0  1  0  0  3  0  0  0  0  0  0
  189.9290  178.2950  136.3910 O   0  0  0  0  0  0  0  0  0  0  0  0
  188.0680  177.7990  140.2590 C   0  0  0  0  0  2  0  0  0  0  0  0
  191.7760  175.5980  138.4380 C   0  0  1  0  0  0  0  0  0  0  0  0
  189.6590  177.1160  136.7470 C   0  0  0  0  0  0  0  0  0  0  0  0
  191.5910  175.7450  135.9540 C   0  0  0  0  0  0  0  0  0  0  0  0
  189.6810  176.4350  141.3190 C   0  0  0  0  0  0  0  0  0  0  0  0
  192.0640  177.5000  138.4210 S   0  0  0  0  0  0  0  0  0  0  0  0
  192.3510  175.5200  137.0550 C   0  0  0  0  0  3  0  0  0  0  0  0
  190.1960  176.6990  140.0310 N   0  0  0  0  0  0  0  0  0  0  0  0
  188.7320  176.8790  137.9270 C   0  0  2  0  0  3  0  0  0  0  0  0
  188.3740  177.0720  141.5740 C   0  0  1  0  0  3  0  0  0  0  0  0
  190.2070  176.0350  136.0300 O   0  0  0  0  0  0  0  0  0  0  0  0
  190.2830  175.7180  142.1630 O   0  0  0  0  0  0  0  0  0  0  0  0
  189.8590  178.4650  143.0470 C   0  0  0  0  0  2  0  0  0  0  0  0
  188.4360  178.0270  142.7750 C   0  0  2  0  0  3  0  0  0  0  0  0
  187.9860  177.4030  144.0710 C   0  0  0  0  0  2  0  0  0  0  0  0
  189.2080  177.5080  144.9550 C   0  0  1  0  0  3  0  0  0  0  0  0
  190.0570  178.4990  144.4360 O   0  0  0  0  0  0  0  0  0  0  0  0
  187.4300  177.8250  146.5390 O   0  0  0  0  0  1  0  0  0  0  0  0
  188.8200  177.8290  146.3900 C   0  0  0  0  0  2  0  0  0  0  0  0
  186.9030  174.7910  137.5940 O   0  0  0  0  0  1  0  0  0  0  0  0
  186.3000  176.0200  137.3200 C   0  0  2  0  0  3  0  0  0  0  0  0
  186.9770  176.6410  136.1050 C   0  0  2  0  0  3  0  0  0  0  0  0
  187.2740  177.1800  137.5120 C   0  0  2  0  0  0  0  0  0  0  0  0
  185.9920  177.4450  135.3090 C   0  0  0  0  0  0  0  0  0  0  0  0
  186.3940  178.4000  134.5950 O   0  0  0  0  0  0  0  0  0  0  0  0
  184.6420  177.1110  135.3110 O   0  0  0  0  0  1  0  0  0  0  0  0
  186.6540  178.5470  137.8480 C   0  0  0  0  0  2  0  0  0  0  0  0
  185.4620  178.4360  138.7330 C   0  0  0  0  0  0  0  0  0  0  0  0
  184.2830  179.1860  140.7060 O   0  0  0  0  0  1  0  0  0  0  0  0
  184.5720  177.5800  138.4830 O   0  0  0  0  0  0  0  0  0  0  0  0
  185.3420  179.2880  139.8700 N   0  0  0  0  0  2  0  0  0  0  0  0
  193.5520  176.0140  134.6780 O   0  0  0  0  0  1  0  0  0  0  0  0
  192.2210  175.6010  134.6160 C   0  0  0  0  0  2  0  0  0  0  0  0
  1 10  1  6  0  0  0
  1 12  1  0  0  0  0
  3 12  1  0  0  0  0
  3  5  1  1  0  0  0
  4  7  2  0  0  0  0
  6  2  1  6  0  0  0
  6  1  1  0  0  0  0
  8 15  1  0  0  0  0
  8 11  2  0  0  0  0
  9 14  1  0  0  0  0
  9 16  2  0  0  0  0
 10  6  1  0  0  0  0
 11  6  1  0  0  0  0
 12  9  1  0  0  0  0
 13  7  1  6  0  0  0
 13  3  1  0  0  0  0
 14  5  1  6  0  0  0
 14 18  1  0  0  0  0
 15  7  1  0  0  0  0
 17 21  1  0  0  0  0
 18 17  1  1  0  0  0
 18 19  1  0  0  0  0
 19 20  1  0  0  0  0
 20 23  1  1  0  0  0
 21 20  1  0  0  0  0
 23 22  1  0  0  0  0
 25 27  1  0  0  0  0
 25 24  1  1  0  0  0
 26 28  1  6  0  0  0
 26 25  1  0  0  0  0
 26 27  1  0  0  0  0
 27 31  1  1  0  0  0
 27 13  1  0  0  0  0
 28 30  1  0  0  0  0
 29 28  2  0  0  0  0
 31 32  1  0  0  0  0
 32 35  1  0  0  0  0
 34 32  2  0  0  0  0
 35 33  1  0  0  0  0
 37 36  1  0  0  0  0
 37  8  1  0  0  0  0
M  END
>  <MODEL>
5

>  <REMARK>
 VINA RESULT:      -5.7      3.127      7.001
  Name = 
  7 active torsions:
  status: ('A' for Active; 'I' for Inactive)
    1  A    between atoms: C_1  and  C_5
    2  A    between atoms: C_1  and  C_36
    3  A    between atoms: C_6  and  C_31
    4  A    between atoms: C_11  and  C_33
    5  A    between atoms: C_18  and  C_19
    6  A    between atoms: C_21  and  C_30
    7  A    between atoms: C_29  and  C_36
                            x       y       z     vdW  Elec       q    Type
                         _______ _______ _______ _____ _____    ______ ____

>  <TORSDO>
F 7

$$$$
=
 OpenBabel11052415343D

 37 41  0  0  1  0  0  0  0  0999 V2000
  187.0120  178.1580  147.4130 C   0  0  1  0  0  3  0  0  0  0  0  0
  188.1530  176.2970  146.7410 O   0  0  0  0  0  1  0  0  0  0  0  0
  187.3840  178.5180  144.7910 C   0  0  1  0  0  3  0  0  0  0  0  0
  190.3660  179.1340  145.1510 O   0  0  0  0  0  0  0  0  0  0  0  0
  186.3560  178.5670  143.6430 C   0  0  0  0  0  2  0  0  0  0  0  0
  188.2020  177.2740  147.7450 C   0  0  1  0  0  0  0  0  0  0  0  0
  189.8860  177.9710  145.2300 C   0  0  0  0  0  0  0  0  0  0  0  0
  190.6720  177.0990  147.4350 C   0  0  0  0  0  0  0  0  0  0  0  0
  185.2810  177.8130  145.6080 C   0  0  0  0  0  0  0  0  0  0  0  0
  188.4140  179.1690  147.4950 S   0  0  0  0  0  0  0  0  0  0  0  0
  189.6060  177.2070  148.2680 C   0  0  0  0  0  3  0  0  0  0  0  0
  186.6190  178.0680  145.9820 N   0  0  0  0  0  0  0  0  0  0  0  0
  188.6310  177.6190  144.4490 C   0  0  2  0  0  3  0  0  0  0  0  0
  185.0020  178.0950  144.1860 C   0  0  1  0  0  3  0  0  0  0  0  0
  190.5340  177.0090  146.0290 O   0  0  0  0  0  0  0  0  0  0  0  0
  184.4150  177.3810  146.4160 O   0  0  0  0  0  0  0  0  0  0  0  0
  182.7390  178.8720  144.9540 C   0  0  0  0  0  2  0  0  0  0  0  0
  183.9010  179.1540  144.0260 C   0  0  2  0  0  3  0  0  0  0  0  0
  183.2820  179.1820  142.6530 C   0  0  0  0  0  2  0  0  0  0  0  0
  181.8250  178.8760  142.9190 C   0  0  1  0  0  3  0  0  0  0  0  0
  181.5450  179.1460  144.2680 O   0  0  0  0  0  0  0  0  0  0  0  0
  180.1390  180.5800  142.7540 O   0  0  0  0  0  1  0  0  0  0  0  0
  180.9190  179.6920  142.0080 C   0  0  0  0  0  2  0  0  0  0  0  0
  188.0790  175.2260  143.1110 O   0  0  0  0  0  1  0  0  0  0  0  0
  188.6810  176.1440  142.2480 C   0  0  2  0  0  3  0  0  0  0  0  0
  190.0930  176.4320  142.7430 C   0  0  2  0  0  3  0  0  0  0  0  0
  188.9770  177.4670  142.9500 C   0  0  2  0  0  0  0  0  0  0  0  0
  191.0070  176.7050  141.5850 C   0  0  0  0  0  0  0  0  0  0  0  0
  192.0740  177.3480  141.7690 O   0  0  0  0  0  1  0  0  0  0  0  0
  190.7150  176.2080  140.3200 O   0  0  0  0  0  0  0  0  0  0  0  0
  189.0500  178.7170  142.0560 C   0  0  0  0  0  2  0  0  0  0  0  0
  188.1730  178.6170  140.8570 C   0  0  0  0  0  0  0  0  0  0  0  0
  187.9680  178.6140  138.4480 O   0  0  0  0  0  1  0  0  0  0  0  0
  186.9260  178.5010  140.9990 O   0  0  0  0  0  0  0  0  0  0  0  0
  188.7460  178.6730  139.5540 N   0  0  0  0  0  2  0  0  0  0  0  0
  192.4920  175.6800  147.9030 O   0  0  0  0  0  1  0  0  0  0  0  0
  192.0290  176.9890  148.0310 C   0  0  0  0  0  2  0  0  0  0  0  0
  1 10  1  6  0  0  0
  1  6  1  0  0  0  0
  3  5  1  6  0  0  0
  3 12  1  0  0  0  0
  4  7  2  0  0  0  0
  6  2  1  6  0  0  0
  6 11  1  0  0  0  0
  7 15  1  0  0  0  0
  8 37  1  0  0  0  0
  8 11  2  0  0  0  0
  9 12  1  0  0  0  0
  9 16  2  0  0  0  0
 10  6  1  0  0  0  0
 12  1  1  0  0  0  0
 13  3  1  0  0  0  0
 13  7  1  1  0  0  0
 14  5  1  1  0  0  0
 14  9  1  0  0  0  0
 15  8  1  0  0  0  0
 18 19  1  6  0  0  0
 18 14  1  0  0  0  0
 18 17  1  0  0  0  0
 19 20  1  0  0  0  0
 20 23  1  6  0  0  0
 20 21  1  0  0  0  0
 21 17  1  0  0  0  0
 23 22  1  0  0  0  0
 25 26  1  0  0  0  0
 25 27  1  0  0  0  0
 25 24  1  1  0  0  0
 26 28  1  6  0  0  0
 26 27  1  0  0  0  0
 27 31  1  6  0  0  0
 27 13  1  0  0  0  0
 28 29  1  0  0  0  0
 30 28  2  0  0  0  0
 32 34  2  0  0  0  0
 32 31  1  0  0  0  0
 33 35  1  0  0  0  0
 35 32  1  0  0  0  0
 36 37  1  0  0  0  0
M  END
>  <MODEL>
6

>  <REMARK>
 VINA RESULT:      -5.5      2.280      5.497
  Name = 
  7 active torsions:
  status: ('A' for Active; 'I' for Inactive)
    1  A    between atoms: C_1  and  C_5
    2  A    between atoms: C_1  and  C_36
    3  A    between atoms: C_6  and  C_31
    4  A    between atoms: C_11  and  C_33
    5  A    between atoms: C_18  and  C_19
    6  A    between atoms: C_21  and  C_30
    7  A    between atoms: C_29  and  C_36
                            x       y       z     vdW  Elec       q    Type
                         _______ _______ _______ _____ _____    ______ ____

>  <TORSDO>
F 7

$$$$
=
 OpenBabel11052415343D

 37 41  0  0  1  0  0  0  0  0999 V2000
  184.4410  178.5910  140.5900 C   0  0  1  0  0  3  0  0  0  0  0  0
  184.8870  179.6220  138.6010 O   0  0  0  0  0  1  0  0  0  0  0  0
  186.7400  177.4990  139.7780 C   0  0  1  0  0  3  0  0  0  0  0  0
  185.3530  175.8470  137.5970 O   0  0  0  0  0  0  0  0  0  0  0  0
  188.1510  177.5920  140.3910 C   0  0  0  0  0  2  0  0  0  0  0  0
  183.8280  178.9780  139.2550 C   0  0  1  0  0  0  0  0  0  0  0  0
  185.5580  177.0870  137.5010 C   0  0  0  0  0  0  0  0  0  0  0  0
  183.3200  178.0710  136.9860 C   0  0  0  0  0  0  0  0  0  0  0  0
  186.7410  179.1580  141.4610 C   0  0  0  0  0  0  0  0  0  0  0  0
  183.7950  177.1560  139.8710 S   0  0  0  0  0  0  0  0  0  0  0  0
  182.8800  178.6010  138.1550 C   0  0  0  0  0  3  0  0  0  0  0  0
  185.9220  178.4870  140.5260 N   0  0  0  0  0  0  0  0  0  0  0  0
  186.7430  177.7150  138.2170 C   0  0  2  0  0  3  0  0  0  0  0  0
  188.1380  178.6800  141.4710 C   0  0  1  0  0  3  0  0  0  0  0  0
  184.6950  177.8710  136.7100 O   0  0  0  0  0  0  0  0  0  0  0  0
  186.3150  180.0790  142.2080 O   0  0  0  0  0  0  0  0  0  0  0  0
  189.6100  179.0150  143.4810 C   0  0  0  0  0  2  0  0  0  0  0  0
  188.5420  178.1450  142.8520 C   0  0  2  0  0  3  0  0  0  0  0  0
  189.1590  176.7710  142.8140 C   0  0  0  0  0  2  0  0  0  0  0  0
  190.5400  176.9890  143.3910 C   0  0  1  0  0  3  0  0  0  0  0  0
  190.5380  178.1840  144.1270 O   0  0  0  0  0  0  0  0  0  0  0  0
  191.6920  176.2630  145.3700 O   0  0  0  0  0  1  0  0  0  0  0  0
  190.9590  175.8180  144.2660 C   0  0  0  0  0  2  0  0  0  0  0  0
  188.6240  179.6980  137.6310 O   0  0  0  0  0  1  0  0  0  0  0  0
  189.0520  178.4580  137.1530 C   0  0  2  0  0  3  0  0  0  0  0  0
  188.0850  177.9840  136.0770 C   0  0  2  0  0  3  0  0  0  0  0  0
  188.0500  177.3530  137.4770 C   0  0  2  0  0  0  0  0  0  0  0  0
  188.8110  177.1840  135.0360 C   0  0  0  0  0  0  0  0  0  0  0  0
  189.9170  177.5900  134.5940 O   0  0  0  0  0  1  0  0  0  0  0  0
  188.2990  175.9690  134.5940 O   0  0  0  0  0  0  0  0  0  0  0  0
  188.6130  175.9250  137.5800 C   0  0  0  0  0  2  0  0  0  0  0  0
  190.0010  175.8920  138.1180 C   0  0  0  0  0  0  0  0  0  0  0  0
  192.3690  175.6440  137.6960 O   0  0  0  0  0  1  0  0  0  0  0  0
  190.1980  176.0130  139.3570 O   0  0  0  0  0  0  0  0  0  0  0  0
  191.1000  175.7070  137.2290 N   0  0  0  0  0  2  0  0  0  0  0  0
  181.5600  178.9050  135.6630 O   0  0  0  0  0  1  0  0  0  0  0  0
  182.3240  177.7690  135.9250 C   0  0  0  0  0  2  0  0  0  0  0  0
  1 10  1  6  0  0  0
  3  5  1  1  0  0  0
  3 12  1  0  0  0  0
  6  2  1  6  0  0  0
  6 10  1  0  0  0  0
  6  1  1  0  0  0  0
  7  4  2  0  0  0  0
  8 11  2  0  0  0  0
  9 14  1  0  0  0  0
  9 16  2  0  0  0  0
 11  6  1  0  0  0  0
 12  1  1  0  0  0  0
 12  9  1  0  0  0  0
 13  7  1  6  0  0  0
 13  3  1  0  0  0  0
 14  5  1  6  0  0  0
 14 18  1  0  0  0  0
 15  8  1  0  0  0  0
 15  7  1  0  0  0  0
 17 21  1  0  0  0  0
 18 19  1  6  0  0  0
 18 17  1  0  0  0  0
 19 20  1  0  0  0  0
 20 21  1  0  0  0  0
 20 23  1  1  0  0  0
 23 22  1  0  0  0  0
 25 27  1  0  0  0  0
 25 24  1  1  0  0  0
 26 28  1  6  0  0  0
 26 25  1  0  0  0  0
 26 27  1  0  0  0  0
 27 31  1  1  0  0  0
 27 13  1  0  0  0  0
 29 28  1  0  0  0  0
 30 28  2  0  0  0  0
 31 32  1  0  0  0  0
 32 34  2  0  0  0  0
 35 33  1  0  0  0  0
 35 32  1  0  0  0  0
 36 37  1  0  0  0  0
 37  8  1  0  0  0  0
M  END
>  <MODEL>
7

>  <REMARK>
 VINA RESULT:      -5.2      3.309      7.858
  Name = 
  7 active torsions:
  status: ('A' for Active; 'I' for Inactive)
    1  A    between atoms: C_1  and  C_5
    2  A    between atoms: C_1  and  C_36
    3  A    between atoms: C_6  and  C_31
    4  A    between atoms: C_11  and  C_33
    5  A    between atoms: C_18  and  C_19
    6  A    between atoms: C_21  and  C_30
    7  A    between atoms: C_29  and  C_36
                            x       y       z     vdW  Elec       q    Type
                         _______ _______ _______ _____ _____    ______ ____

>  <TORSDO>
F 7

$$$$
=
 OpenBabel11052415343D

 37 41  0  0  1  0  0  0  0  0999 V2000
  180.7590  177.2010  140.3590 C   0  0  1  0  0  3  0  0  0  0  0  0
  181.1970  178.5880  138.5990 O   0  0  0  0  0  1  0  0  0  0  0  0
  183.4250  177.3650  140.2920 C   0  0  1  0  0  3  0  0  0  0  0  0
  183.6160  175.5910  137.7970 O   0  0  0  0  0  0  0  0  0  0  0  0
  184.4040  177.9870  141.3070 C   0  0  0  0  0  2  0  0  0  0  0  0
  180.4260  177.4580  138.9000 C   0  0  1  0  0  0  0  0  0  0  0  0
  183.2390  176.7930  137.7640 C   0  0  0  0  0  0  0  0  0  0  0  0
  181.0360  176.7450  136.5880 C   0  0  0  0  0  0  0  0  0  0  0  0
  182.1980  178.6010  141.8900 C   0  0  0  0  0  0  0  0  0  0  0  0
  181.0770  175.7440  139.4830 S   0  0  0  0  0  0  0  0  0  0  0  0
  180.1010  176.8560  137.5640 C   0  0  0  0  0  3  0  0  0  0  0  0
  182.0730  177.7740  140.7510 N   0  0  0  0  0  0  0  0  0  0  0  0
  183.7510  177.7740  138.8060 C   0  0  2  0  0  3  0  0  0  0  0  0
  183.5950  178.7960  142.3270 C   0  0  1  0  0  3  0  0  0  0  0  0
  182.3620  177.2150  136.7450 O   0  0  0  0  0  0  0  0  0  0  0  0
  181.2080  179.1240  142.4680 O   0  0  0  0  0  0  0  0  0  0  0  0
  183.3640  179.3560  144.7660 C   0  0  0  0  0  2  0  0  0  0  0  0
  183.8080  178.3080  143.7680 C   0  0  2  0  0  3  0  0  0  0  0  0
  185.2520  178.0530  144.1140 C   0  0  0  0  0  2  0  0  0  0  0  0
  185.5130  179.0080  145.2580 C   0  0  1  0  0  3  0  0  0  0  0  0
  184.2840  179.3780  145.8270 O   0  0  0  0  0  0  0  0  0  0  0  0
  187.5030  177.7340  145.6930 O   0  0  0  0  0  1  0  0  0  0  0  0
  186.4210  178.3760  146.3020 C   0  0  0  0  0  2  0  0  0  0  0  0
  184.5550  180.4500  138.7270 O   0  0  0  0  0  1  0  0  0  0  0  0
  185.6310  179.6060  138.4470 C   0  0  2  0  0  3  0  0  0  0  0  0
  185.3450  178.8580  137.1510 C   0  0  2  0  0  3  0  0  0  0  0  0
  185.2220  178.1360  138.5010 C   0  0  2  0  0  0  0  0  0  0  0  0
  186.6210  178.5980  136.4040 C   0  0  0  0  0  0  0  0  0  0  0  0
  186.6790  177.6530  135.5750 O   0  0  0  0  0  0  0  0  0  0  0  0
  187.7240  179.4260  136.5790 O   0  0  0  0  0  1  0  0  0  0  0  0
  186.3360  177.1250  138.8230 C   0  0  0  0  0  2  0  0  0  0  0  0
  187.5320  177.7650  139.4390 C   0  0  0  0  0  0  0  0  0  0  0  0
  189.9400  177.9380  139.5680 O   0  0  0  0  0  1  0  0  0  0  0  0
  187.3850  178.6190  140.3540 O   0  0  0  0  0  0  0  0  0  0  0  0
  188.8370  177.3930  139.0040 N   0  0  0  0  0  2  0  0  0  0  0  0
  179.2720  175.8470  135.3110 O   0  0  0  0  0  1  0  0  0  0  0  0
  180.6250  176.1830  135.2740 C   0  0  0  0  0  2  0  0  0  0  0  0
  1 10  1  6  0  0  0
  1 12  1  0  0  0  0
  3 12  1  0  0  0  0
  3  5  1  1  0  0  0
  6  2  1  6  0  0  0
  6 10  1  0  0  0  0
  6  1  1  0  0  0  0
  7  4  2  0  0  0  0
  8 15  1  0  0  0  0
  8 11  2  0  0  0  0
  9 14  1  0  0  0  0
  9 16  2  0  0  0  0
 11  6  1  0  0  0  0
 12  9  1  0  0  0  0
 13  7  1  6  0  0  0
 13  3  1  0  0  0  0
 14  5  1  6  0  0  0
 14 18  1  0  0  0  0
 15  7  1  0  0  0  0
 17 21  1  0  0  0  0
 18 19  1  6  0  0  0
 18 17  1  0  0  0  0
 19 20  1  0  0  0  0
 20 21  1  0  0  0  0
 20 23  1  1  0  0  0
 22 23  1  0  0  0  0
 25 27  1  0  0  0  0
 25 24  1  1  0  0  0
 26 28  1  6  0  0  0
 26 25  1  0  0  0  0
 26 27  1  0  0  0  0
 27 13  1  0  0  0  0
 27 31  1  1  0  0  0
 28 30  1  0  0  0  0
 29 28  2  0  0  0  0
 31 32  1  0  0  0  0
 32 34  2  0  0  0  0
 35 32  1  0  0  0  0
 35 33  1  0  0  0  0
 37 36  1  0  0  0  0
 37  8  1  0  0  0  0
M  END
>  <MODEL>
8

>  <REMARK>
 VINA RESULT:      -5.0      3.712      7.942
  Name = 
  7 active torsions:
  status: ('A' for Active; 'I' for Inactive)
    1  A    between atoms: C_1  and  C_5
    2  A    between atoms: C_1  and  C_36
    3  A    between atoms: C_6  and  C_31
    4  A    between atoms: C_11  and  C_33
    5  A    between atoms: C_18  and  C_19
    6  A    between atoms: C_21  and  C_30
    7  A    between atoms: C_29  and  C_36
                            x       y       z     vdW  Elec       q    Type
                         _______ _______ _______ _____ _____    ______ ____

>  <TORSDO>
F 7

$$$$
=
 OpenBabel11052415343D

 37 41  0  0  1  0  0  0  0  0999 V2000
  184.3780  173.6530  136.7910 C   0  0  1  0  0  3  0  0  0  0  0  0
  185.5220  173.8230  134.8220 O   0  0  0  0  0  1  0  0  0  0  0  0
  186.2740  175.4710  137.2800 C   0  0  1  0  0  3  0  0  0  0  0  0
  188.4890  173.3510  137.3610 O   0  0  0  0  0  0  0  0  0  0  0  0
  186.1470  176.9760  137.5860 C   0  0  0  0  0  2  0  0  0  0  0  0
  185.0470  172.8380  135.6980 C   0  0  1  0  0  0  0  0  0  0  0  0
  187.9550  173.7530  136.2920 C   0  0  0  0  0  0  0  0  0  0  0  0
  187.1840  171.6770  135.1380 C   0  0  0  0  0  0  0  0  0  0  0  0
  184.0480  176.1540  136.8770 C   0  0  0  0  0  0  0  0  0  0  0  0
  185.5350  172.6110  137.5450 S   0  0  0  0  0  0  0  0  0  0  0  0
  185.8470  171.6150  135.3590 C   0  0  0  0  0  3  0  0  0  0  0  0
  184.9130  175.0370  136.8750 N   0  0  0  0  0  0  0  0  0  0  0  0
  187.3920  175.1630  136.2140 C   0  0  2  0  0  3  0  0  0  0  0  0
  184.7020  177.4060  137.3070 C   0  0  1  0  0  3  0  0  0  0  0  0
  187.9070  172.8930  135.1770 O   0  0  0  0  0  0  0  0  0  0  0  0
  182.8370  176.0830  136.5360 O   0  0  0  0  0  0  0  0  0  0  0  0
  183.2420  176.9460  139.3010 C   0  0  0  0  0  2  0  0  0  0  0  0
  184.0160  178.0050  138.5440 C   0  0  2  0  0  3  0  0  0  0  0  0
  182.9860  179.0550  138.2180 C   0  0  0  0  0  2  0  0  0  0  0  0
  181.7070  178.4820  138.7860 C   0  0  1  0  0  3  0  0  0  0  0  0
  182.0350  177.5090  139.7440 O   0  0  0  0  0  0  0  0  0  0  0  0
  180.9780  179.5840  140.7930 O   0  0  0  0  0  1  0  0  0  0  0  0
  180.8440  179.5740  139.4020 C   0  0  0  0  0  2  0  0  0  0  0  0
  187.1460  177.4280  134.5940 O   0  0  0  0  0  1  0  0  0  0  0  0
  188.3970  177.4010  135.2140 C   0  0  2  0  0  3  0  0  0  0  0  0
  189.1680  176.1870  134.7130 C   0  0  2  0  0  3  0  0  0  0  0  0
  188.5500  176.1810  136.1200 C   0  0  2  0  0  0  0  0  0  0  0  0
  190.6390  176.4840  134.6660 C   0  0  0  0  0  0  0  0  0  0  0  0
  191.0340  177.6760  134.5950 O   0  0  0  0  0  0  0  0  0  0  0  0
  191.5710  175.4550  134.7540 O   0  0  0  0  0  1  0  0  0  0  0  0
  189.5430  176.3140  137.2870 C   0  0  0  0  0  2  0  0  0  0  0  0
  189.1960  177.4260  138.2130 C   0  0  0  0  0  0  0  0  0  0  0  0
  188.6840  178.1520  140.4620 O   0  0  0  0  0  1  0  0  0  0  0  0
  189.0360  178.5920  137.7620 O   0  0  0  0  0  0  0  0  0  0  0  0
  189.0290  177.1630  139.6040 N   0  0  0  0  0  2  0  0  0  0  0  0
  189.2700  170.6020  134.9430 O   0  0  0  0  0  1  0  0  0  0  0  0
  187.8980  170.4300  134.7580 C   0  0  0  0  0  2  0  0  0  0  0  0
  1 12  1  0  0  0  0
  1 10  1  1  0  0  0
  3  5  1  6  0  0  0
  6  2  1  6  0  0  0
  6  1  1  0  0  0  0
  6 10  1  0  0  0  0
  7  4  2  0  0  0  0
  8 15  1  0  0  0  0
  8 11  2  0  0  0  0
  9 14  1  0  0  0  0
 11  6  1  0  0  0  0
 12  9  1  0  0  0  0
 12  3  1  0  0  0  0
 13  7  1  1  0  0  0
 13  3  1  0  0  0  0
 14  5  1  1  0  0  0
 14 18  1  0  0  0  0
 15  7  1  0  0  0  0
 16  9  2  0  0  0  0
 17 21  1  0  0  0  0
 18 19  1  6  0  0  0
 18 17  1  0  0  0  0
 19 20  1  0  0  0  0
 20 23  1  1  0  0  0
 20 21  1  0  0  0  0
 23 22  1  0  0  0  0
 25 24  1  6  0  0  0
 25 27  1  0  0  0  0
 26 28  1  1  0  0  0
 26 25  1  0  0  0  0
 26 27  1  0  0  0  0
 27 13  1  0  0  0  0
 27 31  1  1  0  0  0
 28 30  1  0  0  0  0
 29 28  2  0  0  0  0
 31 32  1  0  0  0  0
 32 35  1  0  0  0  0
 34 32  2  0  0  0  0
 35 33  1  0  0  0  0
 37 36  1  0  0  0  0
 37  8  1  0  0  0  0
M  END
>  <MODEL>
9

>  <REMARK>
 VINA RESULT:      -5.0      5.129      7.487
  Name = 
  7 active torsions:
  status: ('A' for Active; 'I' for Inactive)
    1  A    between atoms: C_1  and  C_5
    2  A    between atoms: C_1  and  C_36
    3  A    between atoms: C_6  and  C_31
    4  A    between atoms: C_11  and  C_33
    5  A    between atoms: C_18  and  C_19
    6  A    between atoms: C_21  and  C_30
    7  A    between atoms: C_29  and  C_36
                            x       y       z     vdW  Elec       q    Type
                         _______ _______ _______ _____ _____    ______ ____

>  <TORSDO>
F 7

$$$$
