=
 OpenBabel11052412203D

 30 32  0  0  1  0  0  0  0  0999 V2000
  182.7600  178.6830  139.7280 C   0  0  0  0  0  0  0  0  0  0  0  0
  180.6920  177.2130  139.9200 C   0  0  2  0  0  3  0  0  0  0  0  0
  182.3640  179.8580  139.2250 C   0  0  0  0  0  3  0  0  0  0  0  0
  178.9310  179.4980  137.6420 C   0  0  0  0  0  3  0  0  0  0  0  0
  179.9950  179.3030  138.5300 C   0  0  0  0  0  0  0  0  0  0  0  0
  181.3060  180.9220  137.2720 C   0  0  0  0  0  3  0  0  0  0  0  0
  181.2040  180.0140  138.3320 C   0  0  0  0  0  0  0  0  0  0  0  0
  179.7510  178.4210  139.7320 C   0  0  2  0  0  3  0  0  0  0  0  0
  179.0540  180.3860  136.5720 C   0  0  0  0  0  3  0  0  0  0  0  0
  180.2380  181.1030  136.3910 C   0  0  0  0  0  3  0  0  0  0  0  0
  182.0780  177.4070  139.2760 C   0  0  2  0  0  3  0  0  0  0  0  0
  185.1860  178.6460  140.4790 C   0  0  0  0  0  0  0  0  0  0  0  0
  186.1240  178.6440  141.5180 C   0  0  0  0  0  3  0  0  0  0  0  0
  185.7910  178.5530  138.8300 Cl  0  0  0  0  0  0  0  0  0  0  0  0
  183.4000  178.6800  142.1230 C   0  0  0  0  0  3  0  0  0  0  0  0
  183.8150  178.7000  144.8190 Cl  0  0  0  0  0  0  0  0  0  0  0  0
  183.8050  178.6680  140.7790 C   0  0  0  0  0  0  0  0  0  0  0  0
  185.7050  178.6650  142.8490 C   0  0  0  0  0  3  0  0  0  0  0  0
  184.3430  178.6800  143.1510 C   0  0  0  0  0  0  0  0  0  0  0  0
  179.8850  180.5360  140.9160 O   0  0  0  0  0  1  0  0  0  0  0  0
  179.4430  179.2150  141.0070 C   0  0  2  0  0  3  0  0  0  0  0  0
  180.0230  178.5570  142.2200 C   0  0  0  0  0  3  0  0  0  0  0  0
  179.3010  178.1230  143.1040 O   0  0  0  0  0  0  0  0  0  0  0  0
  182.9800  176.1760  139.4010 C   0  0  0  0  0  2  0  0  0  0  0  0
  183.1140  176.6540  137.0650 O   0  0  0  0  0  1  0  0  0  0  0  0
  183.4830  175.7260  138.0400 C   0  0  0  0  0  2  0  0  0  0  0  0
  179.9830  175.9890  139.3450 C   0  0  0  0  0  2  0  0  0  0  0  0
  178.9310  175.3080  141.3780 O   0  0  0  0  0  1  0  0  0  0  0  0
  179.8250  174.8970  140.3890 C   0  0  1  0  0  3  0  0  0  0  0  0
  179.3430  173.7530  139.7850 F   0  0  0  0  0  0  0  0  0  0  0  0
  1 17  1  0  0  0  0
  2 27  1  6  0  0  0
  3  1  2  0  0  0  0
  4  5  1  0  0  0  0
  5  8  1  0  0  0  0
  6  7  1  0  0  0  0
  7  5  2  0  0  0  0
  7  3  1  0  0  0  0
  8  2  1  0  0  0  0
  8 21  1  1  0  0  0
  9  4  2  0  0  0  0
 10  9  1  0  0  0  0
 10  6  2  0  0  0  0
 11 24  1  1  0  0  0
 11  1  1  0  0  0  0
 11  2  1  0  0  0  0
 12 17  2  0  0  0  0
 12 13  1  0  0  0  0
 13 18  2  0  0  0  0
 14 12  1  0  0  0  0
 15 19  2  0  0  0  0
 17 15  1  0  0  0  0
 18 19  1  0  0  0  0
 19 16  1  0  0  0  0
 21 20  1  6  0  0  0
 21 22  1  0  0  0  0
 22 23  2  0  0  0  0
 25 26  1  0  0  0  0
 26 24  1  0  0  0  0
 27 29  1  0  0  0  0
 29 30  1  6  0  0  0
 29 28  1  0  0  0  0
M  END
>  <MODEL>
1

>  <REMARK>
 VINA RESULT:      -5.5      0.000      0.000
  Name = 
  7 active torsions:
  status: ('A' for Active; 'I' for Inactive)
    1  A    between atoms: C_1  and  C_22
    2  A    between atoms: C_4  and  C_25
    3  A    between atoms: C_7  and  C_30
    4  A    between atoms: C_10  and  C_23
    5  A    between atoms: C_10  and  C_26
    6  A    between atoms: C_11  and  C_25
    7  A    between atoms: C_13  and  C_30
                            x       y       z     vdW  Elec       q    Type
                         _______ _______ _______ _____ _____    ______ ____

>  <TORSDO>
F 7

$$$$
=
 OpenBabel11052412203D

 30 32  0  0  1  0  0  0  0  0999 V2000
  184.2890  178.9350  139.5930 C   0  0  0  0  0  0  0  0  0  0  0  0
  183.8960  177.0620  137.9160 C   0  0  2  0  0  3  0  0  0  0  0  0
  183.1900  179.7000  139.5950 C   0  0  0  0  0  3  0  0  0  0  0  0
  181.1240  179.0060  136.4850 C   0  0  0  0  0  3  0  0  0  0  0  0
  181.9690  178.7820  137.5780 C   0  0  0  0  0  0  0  0  0  0  0  0
  181.7700  181.1310  138.1810 C   0  0  0  0  0  3  0  0  0  0  0  0
  182.3070  179.8630  138.4280 C   0  0  0  0  0  0  0  0  0  0  0  0
  182.3820  177.3560  137.8610 C   0  0  2  0  0  3  0  0  0  0  0  0
  180.6150  180.2820  136.2320 C   0  0  0  0  0  3  0  0  0  0  0  0
  180.9330  181.3420  137.0840 C   0  0  0  0  0  3  0  0  0  0  0  0
  184.7470  178.2880  138.3020 C   0  0  2  0  0  3  0  0  0  0  0  0
  184.2890  178.4580  142.0880 C   0  0  0  0  0  0  0  0  0  0  0  0
  185.0040  178.2050  143.2630 C   0  0  0  0  0  3  0  0  0  0  0  0
  182.5370  178.5550  142.2000 Cl  0  0  0  0  0  0  0  0  0  0  0  0
  186.3870  178.6410  140.8800 C   0  0  0  0  0  3  0  0  0  0  0  0
  188.8390  178.3440  142.0370 Cl  0  0  0  0  0  0  0  0  0  0  0  0
  184.9840  178.6750  140.8760 C   0  0  0  0  0  0  0  0  0  0  0  0
  186.3990  178.1660  143.2490 C   0  0  0  0  0  3  0  0  0  0  0  0
  187.0900  178.3870  142.0570 C   0  0  0  0  0  0  0  0  0  0  0  0
  182.3470  176.0120  139.8820 O   0  0  0  0  0  1  0  0  0  0  0  0
  181.5480  176.6960  138.9650 C   0  0  2  0  0  3  0  0  0  0  0  0
  180.5080  175.7810  138.3970 C   0  0  0  0  0  3  0  0  0  0  0  0
  180.7730  175.0260  137.4740 O   0  0  0  0  0  0  0  0  0  0  0  0
  186.2520  178.0080  138.2800 C   0  0  0  0  0  2  0  0  0  0  0  0
  188.1810  179.1210  137.4160 O   0  0  0  0  0  1  0  0  0  0  0  0
  186.9120  178.6530  137.0730 C   0  0  0  0  0  2  0  0  0  0  0  0
  184.3040  176.5160  136.5500 C   0  0  0  0  0  2  0  0  0  0  0  0
  186.0430  174.8860  136.6980 O   0  0  0  0  0  1  0  0  0  0  0  0
  184.6580  175.0410  136.6250 C   0  0  1  0  0  3  0  0  0  0  0  0
  184.0780  174.4880  137.7490 F   0  0  0  0  0  0  0  0  0  0  0  0
  1  3  2  0  0  0  0
  1 17  1  0  0  0  0
  2 27  1  6  0  0  0
  2 11  1  0  0  0  0
  4  5  1  0  0  0  0
  5  8  1  0  0  0  0
  5  7  2  0  0  0  0
  6  7  1  0  0  0  0
  7  3  1  0  0  0  0
  8  2  1  0  0  0  0
  8 21  1  1  0  0  0
  9  4  2  0  0  0  0
  9 10  1  0  0  0  0
 10  6  2  0  0  0  0
 11 24  1  1  0  0  0
 11  1  1  0  0  0  0
 12 14  1  0  0  0  0
 12 13  1  0  0  0  0
 15 19  2  0  0  0  0
 16 19  1  0  0  0  0
 17 15  1  0  0  0  0
 17 12  2  0  0  0  0
 18 13  2  0  0  0  0
 19 18  1  0  0  0  0
 21 20  1  1  0  0  0
 22 21  1  0  0  0  0
 23 22  2  0  0  0  0
 26 25  1  0  0  0  0
 26 24  1  0  0  0  0
 27 29  1  0  0  0  0
 29 28  1  1  0  0  0
 29 30  1  0  0  0  0
M  END
>  <MODEL>
2

>  <REMARK>
 VINA RESULT:      -5.2      2.603      4.004
  Name = 
  7 active torsions:
  status: ('A' for Active; 'I' for Inactive)
    1  A    between atoms: C_1  and  C_22
    2  A    between atoms: C_4  and  C_25
    3  A    between atoms: C_7  and  C_30
    4  A    between atoms: C_10  and  C_23
    5  A    between atoms: C_10  and  C_26
    6  A    between atoms: C_11  and  C_25
    7  A    between atoms: C_13  and  C_30
                            x       y       z     vdW  Elec       q    Type
                         _______ _______ _______ _____ _____    ______ ____

>  <TORSDO>
F 7

$$$$
=
 OpenBabel11052412203D

 30 32  0  0  1  0  0  0  0  0999 V2000
  181.5790  177.9610  140.6710 C   0  0  0  0  0  0  0  0  0  0  0  0
  181.3450  179.1810  138.4500 C   0  0  2  0  0  3  0  0  0  0  0  0
  181.4110  176.6570  140.4240 C   0  0  0  0  0  3  0  0  0  0  0  0
  179.7590  176.1810  137.0370 C   0  0  0  0  0  3  0  0  0  0  0  0
  180.5700  176.7290  138.0390 C   0  0  0  0  0  0  0  0  0  0  0  0
  179.8110  174.9930  139.5650 C   0  0  0  0  0  3  0  0  0  0  0  0
  180.5830  176.1340  139.3240 C   0  0  0  0  0  0  0  0  0  0  0  0
  181.4850  177.8680  137.6530 C   0  0  2  0  0  3  0  0  0  0  0  0
  178.9710  175.0580  137.2980 C   0  0  0  0  0  3  0  0  0  0  0  0
  179.0030  174.4600  138.5600 C   0  0  0  0  0  3  0  0  0  0  0  0
  180.7900  178.9810  139.8740 C   0  0  2  0  0  3  0  0  0  0  0  0
  182.2750  178.6390  143.0180 C   0  0  0  0  0  0  0  0  0  0  0  0
  183.2840  179.0180  143.9100 C   0  0  0  0  0  3  0  0  0  0  0  0
  180.6270  178.5690  143.6260 Cl  0  0  0  0  0  0  0  0  0  0  0  0
  183.9260  178.5150  141.2420 C   0  0  0  0  0  3  0  0  0  0  0  0
  186.5790  179.0510  141.5910 Cl  0  0  0  0  0  0  0  0  0  0  0  0
  182.5950  178.3780  141.6650 C   0  0  0  0  0  0  0  0  0  0  0  0
  184.6040  179.1410  143.4760 C   0  0  0  0  0  3  0  0  0  0  0  0
  184.9250  178.8920  142.1410 C   0  0  0  0  0  0  0  0  0  0  0  0
  183.8570  178.3090  137.9110 O   0  0  0  0  0  1  0  0  0  0  0  0
  182.9240  177.4160  137.3830 C   0  0  2  0  0  3  0  0  0  0  0  0
  183.1730  177.2100  135.9210 C   0  0  0  0  0  3  0  0  0  0  0  0
  182.3580  177.5740  135.0880 O   0  0  0  0  0  0  0  0  0  0  0  0
  180.5840  180.2950  140.6310 C   0  0  0  0  0  2  0  0  0  0  0  0
  178.9310  181.8400  141.3970 O   0  0  0  0  0  1  0  0  0  0  0  0
  179.1090  180.5500  140.8930 C   0  0  0  0  0  2  0  0  0  0  0  0
  180.4530  180.1150  137.6370 C   0  0  0  0  0  2  0  0  0  0  0  0
  180.2110  182.4670  137.9760 O   0  0  0  0  0  1  0  0  0  0  0  0
  181.0800  181.4920  137.4870 C   0  0  1  0  0  3  0  0  0  0  0  0
  182.2620  181.5350  138.2000 F   0  0  0  0  0  0  0  0  0  0  0  0
  1 17  1  0  0  0  0
  2 27  1  6  0  0  0
  2 11  1  0  0  0  0
  3  1  2  0  0  0  0
  4  9  2  0  0  0  0
  4  5  1  0  0  0  0
  5  7  2  0  0  0  0
  7  6  1  0  0  0  0
  7  3  1  0  0  0  0
  8 21  1  1  0  0  0
  8  5  1  0  0  0  0
  8  2  1  0  0  0  0
  9 10  1  0  0  0  0
 10  6  2  0  0  0  0
 11 24  1  1  0  0  0
 11  1  1  0  0  0  0
 12 14  1  0  0  0  0
 12 13  1  0  0  0  0
 15 17  1  0  0  0  0
 15 19  2  0  0  0  0
 16 19  1  0  0  0  0
 17 12  2  0  0  0  0
 18 13  2  0  0  0  0
 19 18  1  0  0  0  0
 21 20  1  6  0  0  0
 22 21  1  0  0  0  0
 23 22  2  0  0  0  0
 24 26  1  0  0  0  0
 26 25  1  0  0  0  0
 29 27  1  0  0  0  0
 29 28  1  1  0  0  0
 29 30  1  0  0  0  0
M  END
>  <MODEL>
3

>  <REMARK>
 VINA RESULT:      -5.1      2.588      5.248
  Name = 
  7 active torsions:
  status: ('A' for Active; 'I' for Inactive)
    1  A    between atoms: C_1  and  C_22
    2  A    between atoms: C_4  and  C_25
    3  A    between atoms: C_7  and  C_30
    4  A    between atoms: C_10  and  C_23
    5  A    between atoms: C_10  and  C_26
    6  A    between atoms: C_11  and  C_25
    7  A    between atoms: C_13  and  C_30
                            x       y       z     vdW  Elec       q    Type
                         _______ _______ _______ _____ _____    ______ ____

>  <TORSDO>
F 7

$$$$
=
 OpenBabel11052412203D

 30 32  0  0  1  0  0  0  0  0999 V2000
  183.1460  178.8560  139.6360 C   0  0  0  0  0  0  0  0  0  0  0  0
  181.1500  177.2820  139.7640 C   0  0  2  0  0  3  0  0  0  0  0  0
  182.6650  180.0840  139.4110 C   0  0  0  0  0  3  0  0  0  0  0  0
  179.0850  179.8670  138.1630 C   0  0  0  0  0  3  0  0  0  0  0  0
  180.2480  179.5590  138.8790 C   0  0  0  0  0  0  0  0  0  0  0  0
  181.3660  181.4430  137.8190 C   0  0  0  0  0  3  0  0  0  0  0  0
  181.4080  180.3500  138.6920 C   0  0  0  0  0  0  0  0  0  0  0  0
  180.1630  178.4590  139.9110 C   0  0  2  0  0  3  0  0  0  0  0  0
  179.0640  180.9430  137.2730 C   0  0  0  0  0  3  0  0  0  0  0  0
  180.2020  181.7350  137.1070 C   0  0  0  0  0  3  0  0  0  0  0  0
  182.4490  177.6570  139.0250 C   0  0  2  0  0  3  0  0  0  0  0  0
  184.1540  178.5280  141.9440 C   0  0  0  0  0  0  0  0  0  0  0  0
  185.2870  178.3680  142.7500 C   0  0  0  0  0  3  0  0  0  0  0  0
  182.5860  178.5790  142.7380 Cl  0  0  0  0  0  0  0  0  0  0  0  0
  185.5930  178.7020  139.9970 C   0  0  0  0  0  3  0  0  0  0  0  0
  188.3150  178.5490  140.0990 Cl  0  0  0  0  0  0  0  0  0  0  0  0
  184.3030  178.6940  140.5480 C   0  0  0  0  0  0  0  0  0  0  0  0
  186.5630  178.3700  142.1850 C   0  0  0  0  0  3  0  0  0  0  0  0
  186.7160  178.5400  140.8090 C   0  0  0  0  0  0  0  0  0  0  0  0
  179.2730  178.0910  142.1380 O   0  0  0  0  0  1  0  0  0  0  0  0
  179.9830  178.9870  141.3380 C   0  0  2  0  0  3  0  0  0  0  0  0
  179.3210  180.3300  141.3500 C   0  0  0  0  0  3  0  0  0  0  0  0
  179.6330  181.1770  142.1730 O   0  0  0  0  0  0  0  0  0  0  0  0
  183.3900  176.4670  138.8170 C   0  0  0  0  0  2  0  0  0  0  0  0
  183.1300  175.4650  136.6650 O   0  0  0  0  0  1  0  0  0  0  0  0
  183.8800  176.4000  137.3800 C   0  0  0  0  0  2  0  0  0  0  0  0
  180.4120  176.1550  139.0460 C   0  0  0  0  0  2  0  0  0  0  0  0
  178.9450  175.1750  140.6550 O   0  0  0  0  0  1  0  0  0  0  0  0
  180.1480  174.9830  139.9760 C   0  0  1  0  0  3  0  0  0  0  0  0
  180.0730  173.8200  139.2350 F   0  0  0  0  0  0  0  0  0  0  0  0
  1 17  1  0  0  0  0
  2 27  1  6  0  0  0
  2  8  1  0  0  0  0
  3  1  2  0  0  0  0
  4  5  1  0  0  0  0
  5  8  1  0  0  0  0
  6  7  1  0  0  0  0
  7  5  2  0  0  0  0
  7  3  1  0  0  0  0
  8 21  1  1  0  0  0
  9  4  2  0  0  0  0
 10  9  1  0  0  0  0
 10  6  2  0  0  0  0
 11 24  1  1  0  0  0
 11  1  1  0  0  0  0
 11  2  1  0  0  0  0
 12 14  1  0  0  0  0
 12 13  1  0  0  0  0
 15 17  1  0  0  0  0
 15 19  2  0  0  0  0
 16 19  1  0  0  0  0
 17 12  2  0  0  0  0
 18 13  2  0  0  0  0
 19 18  1  0  0  0  0
 21 22  1  0  0  0  0
 21 20  1  1  0  0  0
 22 23  2  0  0  0  0
 25 26  1  0  0  0  0
 26 24  1  0  0  0  0
 27 29  1  0  0  0  0
 29 30  1  6  0  0  0
 29 28  1  0  0  0  0
M  END
>  <MODEL>
4

>  <REMARK>
 VINA RESULT:      -4.9      1.022      2.067
  Name = 
  7 active torsions:
  status: ('A' for Active; 'I' for Inactive)
    1  A    between atoms: C_1  and  C_22
    2  A    between atoms: C_4  and  C_25
    3  A    between atoms: C_7  and  C_30
    4  A    between atoms: C_10  and  C_23
    5  A    between atoms: C_10  and  C_26
    6  A    between atoms: C_11  and  C_25
    7  A    between atoms: C_13  and  C_30
                            x       y       z     vdW  Elec       q    Type
                         _______ _______ _______ _____ _____    ______ ____

>  <TORSDO>
F 7

$$$$
=
 OpenBabel11052412203D

 30 32  0  0  1  0  0  0  0  0999 V2000
  181.3260  175.7390  137.6050 C   0  0  0  0  0  0  0  0  0  0  0  0
  181.7600  177.0840  139.7210 C   0  0  2  0  0  3  0  0  0  0  0  0
  181.1480  176.6160  136.6100 C   0  0  0  0  0  3  0  0  0  0  0  0
  180.4160  180.0600  138.0320 C   0  0  0  0  0  3  0  0  0  0  0  0
  180.9680  178.7800  137.9090 C   0  0  0  0  0  0  0  0  0  0  0  0
  179.7300  178.4750  135.8370 C   0  0  0  0  0  3  0  0  0  0  0  0
  180.6080  177.9720  136.8030 C   0  0  0  0  0  0  0  0  0  0  0  0
  182.0210  178.3720  138.9130 C   0  0  2  0  0  3  0  0  0  0  0  0
  179.5200  180.5410  137.0760 C   0  0  0  0  0  3  0  0  0  0  0  0
  179.1820  179.7510  135.9750 C   0  0  0  0  0  3  0  0  0  0  0  0
  180.8390  176.0810  138.9990 C   0  0  2  0  0  3  0  0  0  0  0  0
  181.4390  173.3140  136.8600 C   0  0  0  0  0  0  0  0  0  0  0  0
  182.2000  172.1660  136.6110 C   0  0  0  0  0  3  0  0  0  0  0  0
  179.6990  173.2090  136.6250 Cl  0  0  0  0  0  0  0  0  0  0  0  0
  183.4560  174.4720  137.5540 C   0  0  0  0  0  3  0  0  0  0  0  0
  185.9340  173.3300  137.5800 Cl  0  0  0  0  0  0  0  0  0  0  0  0
  182.0700  174.4860  137.3340 C   0  0  0  0  0  0  0  0  0  0  0  0
  183.5790  172.1710  136.8280 C   0  0  0  0  0  3  0  0  0  0  0  0
  184.2060  173.3230  137.3020 C   0  0  0  0  0  0  0  0  0  0  0  0
  184.2110  177.3790  138.5810 O   0  0  0  0  0  1  0  0  0  0  0  0
  183.4510  178.5320  138.3820 C   0  0  2  0  0  3  0  0  0  0  0  0
  184.1350  179.7170  138.9900 C   0  0  0  0  0  3  0  0  0  0  0  0
  184.9360  179.5800  139.9020 O   0  0  0  0  0  0  0  0  0  0  0  0
  180.5230  174.8400  139.8380 C   0  0  0  0  0  2  0  0  0  0  0  0
  179.0290  174.7930  141.7000 O   0  0  0  0  0  1  0  0  0  0  0  0
  179.0780  174.8490  140.3060 C   0  0  0  0  0  2  0  0  0  0  0  0
  181.1720  177.5020  141.0660 C   0  0  0  0  0  2  0  0  0  0  0  0
  181.1450  179.2740  142.6670 O   0  0  0  0  0  1  0  0  0  0  0  0
  181.9000  178.7060  141.6410 C   0  0  1  0  0  3  0  0  0  0  0  0
  183.1220  178.3040  142.1420 F   0  0  0  0  0  0  0  0  0  0  0  0
  1 11  1  0  0  0  0
  2 27  1  1  0  0  0
  3  7  1  0  0  0  0
  3  1  2  0  0  0  0
  5  4  1  0  0  0  0
  5  8  1  0  0  0  0
  6 10  2  0  0  0  0
  6  7  1  0  0  0  0
  7  5  2  0  0  0  0
  8 21  1  6  0  0  0
  8  2  1  0  0  0  0
  9  4  2  0  0  0  0
 10  9  1  0  0  0  0
 11  2  1  0  0  0  0
 11 24  1  1  0  0  0
 12 17  1  0  0  0  0
 13 18  1  0  0  0  0
 13 12  2  0  0  0  0
 14 12  1  0  0  0  0
 17 15  2  0  0  0  0
 17  1  1  0  0  0  0
 18 19  2  0  0  0  0
 19 15  1  0  0  0  0
 19 16  1  0  0  0  0
 21 20  1  1  0  0  0
 21 22  1  0  0  0  0
 22 23  2  0  0  0  0
 24 26  1  0  0  0  0
 26 25  1  0  0  0  0
 27 29  1  0  0  0  0
 29 30  1  1  0  0  0
 29 28  1  0  0  0  0
M  END
>  <MODEL>
5

>  <REMARK>
 VINA RESULT:      -4.8      2.964      5.401
  Name = 
  7 active torsions:
  status: ('A' for Active; 'I' for Inactive)
    1  A    between atoms: C_1  and  C_22
    2  A    between atoms: C_4  and  C_25
    3  A    between atoms: C_7  and  C_30
    4  A    between atoms: C_10  and  C_23
    5  A    between atoms: C_10  and  C_26
    6  A    between atoms: C_11  and  C_25
    7  A    between atoms: C_13  and  C_30
                            x       y       z     vdW  Elec       q    Type
                         _______ _______ _______ _____ _____    ______ ____

>  <TORSDO>
F 7

$$$$
=
 OpenBabel11052412203D

 30 32  0  0  1  0  0  0  0  0999 V2000
  181.9990  177.7510  140.2470 C   0  0  0  0  0  0  0  0  0  0  0  0
  181.4350  178.7240  137.9640 C   0  0  2  0  0  3  0  0  0  0  0  0
  181.8010  176.4290  140.1720 C   0  0  0  0  0  3  0  0  0  0  0  0
  179.6670  175.6080  137.1400 C   0  0  0  0  0  3  0  0  0  0  0  0
  180.6150  176.2510  137.9440 C   0  0  0  0  0  0  0  0  0  0  0  0
  180.0980  174.7020  139.7480 C   0  0  0  0  0  3  0  0  0  0  0  0
  180.8220  175.8000  139.2710 C   0  0  0  0  0  0  0  0  0  0  0  0
  181.4590  177.3290  137.3050 C   0  0  2  0  0  3  0  0  0  0  0  0
  178.9310  174.5300  137.6360 C   0  0  0  0  0  3  0  0  0  0  0  0
  179.1510  174.0730  138.9370 C   0  0  0  0  0  3  0  0  0  0  0  0
  181.0980  178.6870  139.4680 C   0  0  2  0  0  3  0  0  0  0  0  0
  184.3900  178.5880  140.4320 C   0  0  0  0  0  0  0  0  0  0  0  0
  185.4350  179.0770  141.2230 C   0  0  0  0  0  3  0  0  0  0  0  0
  184.7060  178.3430  138.7190 Cl  0  0  0  0  0  0  0  0  0  0  0  0
  182.9960  178.4270  142.4130 C   0  0  0  0  0  3  0  0  0  0  0  0
  183.8270  179.1210  144.9170 Cl  0  0  0  0  0  0  0  0  0  0  0  0
  183.1500  178.2610  141.0280 C   0  0  0  0  0  0  0  0  0  0  0  0
  185.2630  179.2450  142.5980 C   0  0  0  0  0  3  0  0  0  0  0  0
  184.0440  178.9170  143.1930 C   0  0  0  0  0  0  0  0  0  0  0  0
  183.3190  177.5160  135.7560 O   0  0  0  0  0  1  0  0  0  0  0  0
  182.8440  176.8320  136.8760 C   0  0  2  0  0  3  0  0  0  0  0  0
  182.8480  175.3570  136.6240 C   0  0  0  0  0  3  0  0  0  0  0  0
  182.8330  174.9140  135.4860 O   0  0  0  0  0  0  0  0  0  0  0  0
  181.0010  180.0790  140.0980 C   0  0  0  0  0  2  0  0  0  0  0  0
  180.0720  180.5130  142.2550 O   0  0  0  0  0  1  0  0  0  0  0  0
  179.7380  180.2150  140.9330 C   0  0  0  0  0  2  0  0  0  0  0  0
  180.4280  179.5740  137.1940 C   0  0  0  0  0  2  0  0  0  0  0  0
  180.4080  180.9700  135.2560 O   0  0  0  0  0  1  0  0  0  0  0  0
  181.1170  180.6880  136.4240 C   0  0  1  0  0  3  0  0  0  0  0  0
  181.1690  181.8230  137.2100 F   0  0  0  0  0  0  0  0  0  0  0  0
  1 17  1  0  0  0  0
  2 27  1  6  0  0  0
  2 11  1  0  0  0  0
  3  1  2  0  0  0  0
  4  9  2  0  0  0  0
  4  5  1  0  0  0  0
  5  7  2  0  0  0  0
  7  6  1  0  0  0  0
  7  3  1  0  0  0  0
  8 21  1  1  0  0  0
  8  5  1  0  0  0  0
  8  2  1  0  0  0  0
  9 10  1  0  0  0  0
 10  6  2  0  0  0  0
 11 24  1  1  0  0  0
 11  1  1  0  0  0  0
 12 17  2  0  0  0  0
 12 13  1  0  0  0  0
 13 18  2  0  0  0  0
 14 12  1  0  0  0  0
 15 19  2  0  0  0  0
 17 15  1  0  0  0  0
 18 19  1  0  0  0  0
 19 16  1  0  0  0  0
 21 20  1  6  0  0  0
 22 21  1  0  0  0  0
 23 22  2  0  0  0  0
 24 26  1  0  0  0  0
 26 25  1  0  0  0  0
 29 28  1  6  0  0  0
 29 27  1  0  0  0  0
 29 30  1  0  0  0  0
M  END
>  <MODEL>
6

>  <REMARK>
 VINA RESULT:      -4.7      2.309      5.043
  Name = 
  7 active torsions:
  status: ('A' for Active; 'I' for Inactive)
    1  A    between atoms: C_1  and  C_22
    2  A    between atoms: C_4  and  C_25
    3  A    between atoms: C_7  and  C_30
    4  A    between atoms: C_10  and  C_23
    5  A    between atoms: C_10  and  C_26
    6  A    between atoms: C_11  and  C_25
    7  A    between atoms: C_13  and  C_30
                            x       y       z     vdW  Elec       q    Type
                         _______ _______ _______ _____ _____    ______ ____

>  <TORSDO>
F 7

$$$$
=
 OpenBabel11052412203D

 30 32  0  0  1  0  0  0  0  0999 V2000
  182.2190  176.3060  137.8070 C   0  0  0  0  0  0  0  0  0  0  0  0
  182.3590  178.7040  138.6470 C   0  0  2  0  0  3  0  0  0  0  0  0
  183.4650  175.8190  137.7930 C   0  0  0  0  0  3  0  0  0  0  0  0
  185.9710  178.6670  137.9660 C   0  0  0  0  0  3  0  0  0  0  0  0
  184.8040  177.9290  138.1930 C   0  0  0  0  0  0  0  0  0  0  0  0
  185.7050  176.1340  136.8190 C   0  0  0  0  0  3  0  0  0  0  0  0
  184.6650  176.6500  137.5980 C   0  0  0  0  0  0  0  0  0  0  0  0
  183.7970  178.4940  139.1670 C   0  0  2  0  0  3  0  0  0  0  0  0
  186.9920  178.1520  137.1630 C   0  0  0  0  0  3  0  0  0  0  0  0
  186.8610  176.8830  136.5960 C   0  0  0  0  0  3  0  0  0  0  0  0
  181.9840  177.7680  137.4820 C   0  0  2  0  0  3  0  0  0  0  0  0
  180.3980  174.6090  137.3020 C   0  0  0  0  0  0  0  0  0  0  0  0
  179.3640  173.7840  137.7570 C   0  0  0  0  0  3  0  0  0  0  0  0
  180.7200  174.6400  135.5740 Cl  0  0  0  0  0  0  0  0  0  0  0  0
  180.7480  175.3840  139.5760 C   0  0  0  0  0  3  0  0  0  0  0  0
  179.2920  174.5250  141.7170 Cl  0  0  0  0  0  0  0  0  0  0  0  0
  181.1060  175.4190  138.2190 C   0  0  0  0  0  0  0  0  0  0  0  0
  179.0260  173.7540  139.1110 C   0  0  0  0  0  3  0  0  0  0  0  0
  179.7170  174.5560  140.0200 C   0  0  0  0  0  0  0  0  0  0  0  0
  182.6750  177.8760  141.2280 O   0  0  0  0  0  1  0  0  0  0  0  0
  183.9030  177.8780  140.5660 C   0  0  2  0  0  3  0  0  0  0  0  0
  184.9390  178.5690  141.3960 C   0  0  0  0  0  3  0  0  0  0  0  0
  185.2550  179.7270  141.1700 O   0  0  0  0  0  0  0  0  0  0  0  0
  180.5830  178.0330  136.9220 C   0  0  0  0  0  2  0  0  0  0  0  0
  181.1040  179.4760  135.0920 O   0  0  0  0  0  1  0  0  0  0  0  0
  180.6210  178.2070  135.4130 C   0  0  0  0  0  2  0  0  0  0  0  0
  182.2320  180.1700  138.2400 C   0  0  0  0  0  2  0  0  0  0  0  0
  180.2630  181.5220  138.2730 O   0  0  0  0  0  1  0  0  0  0  0  0
  181.2040  180.8960  139.0920 C   0  0  1  0  0  3  0  0  0  0  0  0
  180.5630  179.9850  139.9090 F   0  0  0  0  0  0  0  0  0  0  0  0
  1 17  1  0  0  0  0
  2 27  1  6  0  0  0
  2  8  1  0  0  0  0
  3  1  2  0  0  0  0
  4  5  1  0  0  0  0
  5  8  1  0  0  0  0
  6  7  1  0  0  0  0
  7  3  1  0  0  0  0
  7  5  2  0  0  0  0
  8 21  1  1  0  0  0
  9  4  2  0  0  0  0
 10  6  2  0  0  0  0
 10  9  1  0  0  0  0
 11 24  1  1  0  0  0
 11  1  1  0  0  0  0
 11  2  1  0  0  0  0
 12 13  2  0  0  0  0
 12 17  1  0  0  0  0
 13 18  1  0  0  0  0
 14 12  1  0  0  0  0
 15 19  1  0  0  0  0
 17 15  2  0  0  0  0
 18 19  2  0  0  0  0
 19 16  1  0  0  0  0
 21 20  1  1  0  0  0
 21 22  1  0  0  0  0
 23 22  2  0  0  0  0
 25 26  1  0  0  0  0
 26 24  1  0  0  0  0
 27 29  1  0  0  0  0
 29 28  1  6  0  0  0
 29 30  1  0  0  0  0
M  END
>  <MODEL>
7

>  <REMARK>
 VINA RESULT:      -4.6      3.195      5.913
  Name = 
  7 active torsions:
  status: ('A' for Active; 'I' for Inactive)
    1  A    between atoms: C_1  and  C_22
    2  A    between atoms: C_4  and  C_25
    3  A    between atoms: C_7  and  C_30
    4  A    between atoms: C_10  and  C_23
    5  A    between atoms: C_10  and  C_26
    6  A    between atoms: C_11  and  C_25
    7  A    between atoms: C_13  and  C_30
                            x       y       z     vdW  Elec       q    Type
                         _______ _______ _______ _____ _____    ______ ____

>  <TORSDO>
F 7

$$$$
=
 OpenBabel11052412203D

 30 32  0  0  1  0  0  0  0  0999 V2000
  181.4380  177.4660  139.8780 C   0  0  0  0  0  0  0  0  0  0  0  0
  182.0380  178.1810  137.5100 C   0  0  2  0  0  3  0  0  0  0  0  0
  181.1910  176.1520  139.8420 C   0  0  0  0  0  3  0  0  0  0  0  0
  180.5900  175.0420  136.2600 C   0  0  0  0  0  3  0  0  0  0  0  0
  181.1230  175.7480  137.3450 C   0  0  0  0  0  0  0  0  0  0  0  0
  179.7300  174.4360  138.8480 C   0  0  0  0  0  3  0  0  0  0  0  0
  180.6750  175.4490  138.6560 C   0  0  0  0  0  0  0  0  0  0  0  0
  182.2460  176.7190  137.0650 C   0  0  2  0  0  3  0  0  0  0  0  0
  179.6270  174.0510  136.4630 C   0  0  0  0  0  3  0  0  0  0  0  0
  179.2030  173.7440  137.7570 C   0  0  0  0  0  3  0  0  0  0  0  0
  181.0600  178.3310  138.6920 C   0  0  2  0  0  3  0  0  0  0  0  0
  181.4760  178.4910  142.2020 C   0  0  0  0  0  0  0  0  0  0  0  0
  182.2090  179.0030  143.2780 C   0  0  0  0  0  3  0  0  0  0  0  0
  179.7220  178.5090  142.3230 Cl  0  0  0  0  0  0  0  0  0  0  0  0
  183.5520  178.1060  141.0030 C   0  0  0  0  0  3  0  0  0  0  0  0
  186.0200  178.6960  142.0050 Cl  0  0  0  0  0  0  0  0  0  0  0  0
  182.1520  178.0310  141.0480 C   0  0  0  0  0  0  0  0  0  0  0  0
  183.6020  179.0630  143.2210 C   0  0  0  0  0  3  0  0  0  0  0  0
  184.2730  178.6170  142.0820 C   0  0  0  0  0  0  0  0  0  0  0  0
  184.5150  177.1070  137.8380 O   0  0  0  0  0  1  0  0  0  0  0  0
  183.6330  176.1350  137.3620 C   0  0  2  0  0  3  0  0  0  0  0  0
  184.2120  175.4510  136.1630 C   0  0  0  0  0  3  0  0  0  0  0  0
  184.7040  174.3380  136.2520 O   0  0  0  0  0  0  0  0  0  0  0  0
  180.8000  179.7890  139.0790 C   0  0  0  0  0  2  0  0  0  0  0  0
  181.5720  181.8900  138.2470 O   0  0  0  0  0  1  0  0  0  0  0  0
  182.0010  180.6630  138.7560 C   0  0  0  0  0  2  0  0  0  0  0  0
  181.5560  178.9640  136.2920 C   0  0  0  0  0  2  0  0  0  0  0  0
  179.4910  180.0770  135.8430 O   0  0  0  0  0  1  0  0  0  0  0  0
  180.0540  178.8280  136.1030 C   0  0  1  0  0  3  0  0  0  0  0  0
  179.8030  177.9830  135.0390 F   0  0  0  0  0  0  0  0  0  0  0  0
  1 17  1  0  0  0  0
  2 27  1  6  0  0  0
  2 11  1  0  0  0  0
  3  1  2  0  0  0  0
  4  9  2  0  0  0  0
  4  5  1  0  0  0  0
  5  7  2  0  0  0  0
  7  6  1  0  0  0  0
  7  3  1  0  0  0  0
  8  5  1  0  0  0  0
  8 21  1  1  0  0  0
  8  2  1  0  0  0  0
  9 10  1  0  0  0  0
 10  6  2  0  0  0  0
 11 24  1  1  0  0  0
 11  1  1  0  0  0  0
 12 14  1  0  0  0  0
 12 13  1  0  0  0  0
 15 17  1  0  0  0  0
 15 19  2  0  0  0  0
 16 19  1  0  0  0  0
 17 12  2  0  0  0  0
 18 13  2  0  0  0  0
 19 18  1  0  0  0  0
 21 20  1  6  0  0  0
 22 23  2  0  0  0  0
 22 21  1  0  0  0  0
 25 26  1  0  0  0  0
 26 24  1  0  0  0  0
 28 29  1  0  0  0  0
 29 30  1  6  0  0  0
 29 27  1  0  0  0  0
M  END
>  <MODEL>
8

>  <REMARK>
 VINA RESULT:      -4.2      2.714      5.233
  Name = 
  7 active torsions:
  status: ('A' for Active; 'I' for Inactive)
    1  A    between atoms: C_1  and  C_22
    2  A    between atoms: C_4  and  C_25
    3  A    between atoms: C_7  and  C_30
    4  A    between atoms: C_10  and  C_23
    5  A    between atoms: C_10  and  C_26
    6  A    between atoms: C_11  and  C_25
    7  A    between atoms: C_13  and  C_30
                            x       y       z     vdW  Elec       q    Type
                         _______ _______ _______ _____ _____    ______ ____

>  <TORSDO>
F 7

$$$$
=
 OpenBabel11052412203D

 30 32  0  0  1  0  0  0  0  0999 V2000
  188.9190  174.3960  136.4140 C   0  0  0  0  0  0  0  0  0  0  0  0
  189.0430  176.9090  136.7970 C   0  0  2  0  0  3  0  0  0  0  0  0
  189.9580  173.8480  137.0540 C   0  0  0  0  0  3  0  0  0  0  0  0
  192.5420  176.5140  137.8510 C   0  0  0  0  0  3  0  0  0  0  0  0
  191.2950  175.9120  137.6460 C   0  0  0  0  0  0  0  0  0  0  0  0
  192.4180  173.8080  137.1670 C   0  0  0  0  0  3  0  0  0  0  0  0
  191.2350  174.5440  137.2850 C   0  0  0  0  0  0  0  0  0  0  0  0
  190.0640  176.7370  137.9410 C   0  0  2  0  0  3  0  0  0  0  0  0
  193.7180  175.7750  137.7030 C   0  0  0  0  0  3  0  0  0  0  0  0
  193.6560  174.4210  137.3680 C   0  0  0  0  0  3  0  0  0  0  0  0
  189.0710  175.7600  135.7700 C   0  0  2  0  0  3  0  0  0  0  0  0
  187.3860  172.5090  135.6770 C   0  0  0  0  0  0  0  0  0  0  0  0
  186.1370  171.8820  135.7370 C   0  0  0  0  0  3  0  0  0  0  0  0
  188.5990  171.8170  134.6080 Cl  0  0  0  0  0  0  0  0  0  0  0  0
  186.5770  174.2130  137.2050 C   0  0  0  0  0  3  0  0  0  0  0  0
  184.0550  174.2480  138.2470 Cl  0  0  0  0  0  0  0  0  0  0  0  0
  187.6160  173.6880  136.4220 C   0  0  0  0  0  0  0  0  0  0  0  0
  185.1160  172.4110  136.5270 C   0  0  0  0  0  3  0  0  0  0  0  0
  185.3360  173.5780  137.2590 C   0  0  0  0  0  0  0  0  0  0  0  0
  188.2850  177.1650  139.5360 O   0  0  0  0  0  1  0  0  0  0  0  0
  189.4600  176.4430  139.3180 C   0  0  2  0  0  3  0  0  0  0  0  0
  190.4410  176.7040  140.4190 C   0  0  0  0  0  3  0  0  0  0  0  0
  190.1920  176.3840  141.5710 O   0  0  0  0  0  0  0  0  0  0  0  0
  188.1090  175.9730  134.5990 C   0  0  0  0  0  2  0  0  0  0  0  0
  185.7310  176.1960  134.5980 O   0  0  0  0  0  1  0  0  0  0  0  0
  186.9120  176.8100  135.0190 C   0  0  0  0  0  2  0  0  0  0  0  0
  189.3280  178.2510  136.1290 C   0  0  0  0  0  2  0  0  0  0  0  0
  187.3860  179.0320  137.2800 O   0  0  0  0  0  1  0  0  0  0  0  0
  188.6730  179.3970  136.8840 C   0  0  1  0  0  3  0  0  0  0  0  0
  189.4270  179.6980  138.0010 F   0  0  0  0  0  0  0  0  0  0  0  0
  1 17  1  0  0  0  0
  1  3  2  0  0  0  0
  2 27  1  6  0  0  0
  2  8  1  0  0  0  0
  3  7  1  0  0  0  0
  5  4  2  0  0  0  0
  5  8  1  0  0  0  0
  6  7  2  0  0  0  0
  6 10  1  0  0  0  0
  7  5  1  0  0  0  0
  8 21  1  1  0  0  0
  9  4  1  0  0  0  0
 10  9  2  0  0  0  0
 11 24  1  6  0  0  0
 11  1  1  0  0  0  0
 11  2  1  0  0  0  0
 12 13  2  0  0  0  0
 12 17  1  0  0  0  0
 13 18  1  0  0  0  0
 14 12  1  0  0  0  0
 15 19  1  0  0  0  0
 17 15  2  0  0  0  0
 18 19  2  0  0  0  0
 19 16  1  0  0  0  0
 21 20  1  1  0  0  0
 21 22  1  0  0  0  0
 22 23  2  0  0  0  0
 24 26  1  0  0  0  0
 25 26  1  0  0  0  0
 27 29  1  0  0  0  0
 29 28  1  1  0  0  0
 29 30  1  0  0  0  0
M  END
>  <MODEL>
9

>  <REMARK>
 VINA RESULT:      -4.1      7.252     10.053
  Name = 
  7 active torsions:
  status: ('A' for Active; 'I' for Inactive)
    1  A    between atoms: C_1  and  C_22
    2  A    between atoms: C_4  and  C_25
    3  A    between atoms: C_7  and  C_30
    4  A    between atoms: C_10  and  C_23
    5  A    between atoms: C_10  and  C_26
    6  A    between atoms: C_11  and  C_25
    7  A    between atoms: C_13  and  C_30
                            x       y       z     vdW  Elec       q    Type
                         _______ _______ _______ _____ _____    ______ ____

>  <TORSDO>
F 7

$$$$
