=
 OpenBabel11052414493D

 55 61  0  0  1  0  0  0  0  0999 V2000
  184.3430  179.0980  139.1520 O   0  0  0  0  0  0  0  0  0  0  0  0
  185.6990  175.4960  136.3720 C   0  0  0  0  0  2  0  0  0  0  0  0
  183.1820  174.5310  135.3560 O   0  0  0  0  0  1  0  0  0  0  0  0
  180.0930  176.4960  138.0430 C   0  0  0  0  0  2  0  0  0  0  0  0
  179.0220  175.8340  138.8980 C   0  0  0  0  0  2  0  0  0  0  0  0
  181.4030  177.0200  140.1690 C   0  0  1  0  0  3  0  0  0  0  0  0
  180.2620  176.4150  140.9840 C   0  0  0  0  0  2  0  0  0  0  0  0
  182.7700  176.5650  136.5470 C   0  0  0  0  0  2  0  0  0  0  0  0
  178.9310  176.5300  140.2490 C   0  0  0  0  0  2  0  0  0  0  0  0
  186.2250  178.2760  140.4100 C   0  0  0  0  0  3  0  0  0  0  0  0
  181.4600  176.4380  138.7410 C   0  0  2  0  0  3  0  0  0  0  0  0
  187.7960  178.2350  138.1220 C   0  0  0  0  0  0  0  0  0  0  0  0
  183.6810  179.4100  137.9320 C   0  0  0  0  0  2  0  0  0  0  0  0
  186.4780  178.6850  138.0430 C   0  0  0  0  0  3  0  0  0  0  0  0
  181.2930  179.2170  138.8600 C   0  0  2  0  0  3  0  0  0  0  0  0
  187.0400  175.3210  137.0710 C   0  0  0  0  0  2  0  0  0  0  0  0
  181.3880  178.5560  140.2410 C   0  0  0  0  0  2  0  0  0  0  0  0
  184.5930  174.9450  137.2580 C   0  0  0  0  0  2  0  0  0  0  0  0
  183.2110  175.1050  136.6260 C   0  0  2  0  0  3  0  0  0  0  0  0
  187.5470  177.8330  140.4510 C   0  0  0  0  0  3  0  0  0  0  0  0
  188.2150  175.8000  136.2180 C   0  0  2  0  0  3  0  0  0  0  0  0
  185.6800  178.6950  139.1950 C   0  0  0  0  0  0  0  0  0  0  0  0
  182.5480  177.1660  137.9330 C   0  0  2  0  0  3  0  0  0  0  0  0
  182.3370  178.6920  137.8480 C   0  0  2  0  0  3  0  0  0  0  0  0
  188.0770  177.2720  135.8300 C   0  0  0  0  0  2  0  0  0  0  0  0
  188.6540  178.1930  136.9010 C   0  0  0  0  0  2  0  0  0  0  0  0
  188.2980  177.8170  139.3160 N   0  0  0  0  0  0  0  0  0  0  0  0
  181.2220  181.3120  137.5970 O   0  0  0  0  0  0  0  0  0  0  0  0
  179.0140  182.3150  137.6770 C   0  0  2  0  0  3  0  0  0  0  0  0
  179.9420  181.2330  139.7410 C   0  0  0  0  0  2  0  0  0  0  0  0
  179.3700  182.5170  139.1550 C   0  0  0  0  0  2  0  0  0  0  0  0
  179.9440  181.2990  137.0000 C   0  0  0  0  0  2  0  0  0  0  0  0
  181.1400  180.7440  138.8960 C   0  0  1  0  0  3  0  0  0  0  0  0
  179.0270  183.6220  136.9510 C   0  0  0  0  0  0  0  0  0  0  0  0
  179.1850  183.6360  135.1680 S   0  0  0  0  0  1  0  0  0  0  0  0
  178.9310  184.6760  137.5610 O   0  0  0  0  0  0  0  0  0  0  0  0
  188.3800  174.9180  134.9850 C   0  0  0  0  0  2  0  0  0  0  0  0
  193.8670  173.5650  136.3430 C   0  0  0  0  0  2  0  0  0  0  0  0
  191.6360  174.6130  136.3430 C   0  0  2  0  0  3  0  0  0  0  0  0
  188.4360  172.1060  135.0640 O   0  0  0  0  0  0  0  0  0  0  0  0
  192.3770  173.2620  136.3370 C   0  0  1  0  0  3  0  0  0  0  0  0
  192.0410  172.3760  135.1370 C   0  0  0  0  0  2  0  0  0  0  0  0
  189.5550  172.6880  135.1040 C   0  0  0  0  0  0  0  0  0  0  0  0
  189.6070  174.1320  135.0680 N   0  0  0  0  0  0  0  0  0  0  0  0
  193.9920  175.0410  136.0360 C   0  0  1  0  0  3  0  0  0  0  0  0
  190.7030  171.8930  135.2180 O   0  0  0  0  0  0  0  0  0  0  0  0
  190.8570  174.8760  135.0590 C   0  0  0  0  0  2  0  0  0  0  0  0
  192.6920  175.6870  136.5170 C   0  0  2  0  0  3  0  0  0  0  0  0
  192.7260  176.1400  137.9490 C   0  0  0  0  0  0  0  0  0  0  0  0
  193.5970  176.9590  138.3480 O   0  0  0  0  0  0  0  0  0  0  0  0
  191.7930  175.6350  138.8450 O   0  0  0  0  0  1  0  0  0  0  0  0
  195.1800  175.6040  136.6660 N   0  0  0  0  0  2  0  0  0  0  0  0
  196.2660  175.5190  135.7040 C   0  0  1  0  0  3  0  0  0  0  0  0
  196.0360  176.5220  134.5940 C   0  0  0  0  0  1  0  0  0  0  0  0
  197.5260  175.8110  136.3620 N   0  0  0  0  0  1  0  0  0  0  0  0
  1 22  1  0  0  0  0
  2 16  1  0  0  0  0
  2 18  1  0  0  0  0
  4  5  1  0  0  0  0
  5  9  1  0  0  0  0
  6 17  1  6  0  0  0
  6  7  1  0  0  0  0
  8 19  1  0  0  0  0
  9  7  1  0  0  0  0
 10 20  1  0  0  0  0
 11  4  1  6  0  0  0
 11  6  1  0  0  0  0
 12 27  1  0  0  0  0
 13  1  1  0  0  0  0
 14 12  2  0  0  0  0
 14 22  1  0  0  0  0
 15 33  1  0  0  0  0
 15 17  1  1  0  0  0
 19  3  1  6  0  0  0
 19 18  1  0  0  0  0
 21 37  1  6  0  0  0
 21 16  1  0  0  0  0
 22 10  2  0  0  0  0
 23  8  1  6  0  0  0
 23 11  1  0  0  0  0
 24 13  1  1  0  0  0
 24 23  1  0  0  0  0
 24 15  1  0  0  0  0
 25 21  1  0  0  0  0
 25 26  1  0  0  0  0
 26 12  1  0  0  0  0
 27 20  2  0  0  0  0
 28 33  1  0  0  0  0
 29 34  1  6  0  0  0
 29 31  1  0  0  0  0
 31 30  1  0  0  0  0
 32 28  1  0  0  0  0
 32 29  1  0  0  0  0
 33 30  1  6  0  0  0
 34 36  2  0  0  0  0
 35 34  1  0  0  0  0
 37 44  1  0  0  0  0
 39 47  1  6  0  0  0
 39 48  1  0  0  0  0
 40 43  2  0  0  0  0
 41 42  1  6  0  0  0
 41 38  1  0  0  0  0
 41 39  1  0  0  0  0
 42 46  1  0  0  0  0
 43 46  1  0  0  0  0
 44 43  1  0  0  0  0
 45 38  1  0  0  0  0
 45 48  1  0  0  0  0
 45 52  1  1  0  0  0
 47 44  1  0  0  0  0
 48 49  1  1  0  0  0
 49 50  2  0  0  0  0
 49 51  1  0  0  0  0
 53 54  1  6  0  0  0
 53 55  1  0  0  0  0
 53 52  1  0  0  0  0
M  END
>  <MODEL>
1

>  <REMARK>
 VINA RESULT:      -6.5      0.000      0.000
  Name = 
  7 active torsions:
  status: ('A' for Active; 'I' for Inactive)
    1  A    between atoms: C_1  and  C_53
    2  A    between atoms: C_8  and  N_22
    3  A    between atoms: C_8  and  C_43
    4  A    between atoms: C_10  and  C_32
    5  A    between atoms: C_11  and  N_29
    6  A    between atoms: N_29  and  C_38
    7  A    between atoms: C_33  and  C_52
                            x       y       z     vdW  Elec       q    Type
                         _______ _______ _______ _____ _____    ______ ____

>  <TORSDO>
F 7

$$$$
