=
 OpenBabel11052412293D

 30 32  0  0  1  0  0  0  0  0999 V2000
  186.0680  177.8080  142.4070 C   0  0  0  0  0  3  0  0  0  0  0  0
  183.6770  178.4160  142.0260 C   0  0  1  0  0  3  0  0  0  0  0  0
  185.7960  178.4360  146.5560 C   0  0  0  0  0  3  0  0  0  0  0  0
  187.1910  177.5770  143.2090 C   0  0  0  0  0  0  0  0  0  0  0  0
  186.9110  178.2290  147.3700 C   0  0  0  0  0  3  0  0  0  0  0  0
  182.5320  179.2010  142.6580 C   0  0  0  0  0  2  0  0  0  0  0  0
  184.0540  179.0360  140.8470 F   0  0  0  0  0  0  0  0  0  0  0  0
  185.8720  178.2250  145.1680 C   0  0  0  0  0  0  0  0  0  0  0  0
  182.2560  178.6760  144.0570 C   0  0  0  0  0  2  0  0  0  0  0  0
  184.8650  178.2610  142.9470 C   0  0  0  0  0  0  0  0  0  0  0  0
  187.0980  177.7910  144.5990 C   0  0  0  0  0  0  0  0  0  0  0  0
  188.1170  177.8130  146.8080 C   0  0  0  0  0  3  0  0  0  0  0  0
  188.2100  177.5970  145.4330 C   0  0  0  0  0  3  0  0  0  0  0  0
  183.4620  178.9640  144.9410 C   0  0  0  0  0  2  0  0  0  0  0  0
  184.7480  178.4450  144.3440 C   0  0  0  0  0  0  0  0  0  0  0  0
  189.3730  176.5010  140.5530 O   0  0  0  0  0  0  0  0  0  0  0  0
  188.6940  177.3410  141.2050 C   0  0  0  0  0  0  0  0  0  0  0  0
  188.4040  177.0960  142.5960 N   0  0  0  0  0  0  0  0  0  0  0  0
  188.4850  179.6930  141.0380 O   0  0  0  0  0  0  0  0  0  0  0  0
  188.2370  178.5680  140.5250 C   0  0  0  0  0  0  0  0  0  0  0  0
  187.5090  178.4810  139.3340 O   0  0  0  0  0  0  0  0  0  0  0  0
  188.9300  178.9400  137.4460 C   0  0  0  0  0  1  0  0  0  0  0  0
  188.0510  177.9220  138.1470 C   0  0  0  0  0  2  0  0  0  0  0  0
  189.2330  176.1460  143.3320 C   0  0  0  0  0  2  0  0  0  0  0  0
  190.7000  176.5280  143.2100 C   0  0  0  0  0  2  0  0  0  0  0  0
  191.5110  175.8710  144.3150 C   0  0  0  0  0  2  0  0  0  0  0  0
  191.7300  176.8180  145.4910 C   0  0  0  0  0  2  0  0  0  0  0  0
  191.3650  177.1100  147.9410 C   0  0  0  0  0  1  0  0  0  0  0  0
  191.5550  176.1030  146.8230 C   0  0  2  0  0  3  0  0  0  0  0  0
  192.7370  175.3070  147.0980 N   0  0  0  0  0  1  0  0  0  0  0  0
  1 10  2  0  0  0  0
  1  4  1  0  0  0  0
  2  7  1  6  0  0  0
  2  6  1  0  0  0  0
  2 10  1  0  0  0  0
  3  5  2  0  0  0  0
  4 11  2  0  0  0  0
  6  9  1  0  0  0  0
  8  3  1  0  0  0  0
  9 14  1  0  0  0  0
 10 15  1  0  0  0  0
 11  8  1  0  0  0  0
 11 13  1  0  0  0  0
 12  5  1  0  0  0  0
 13 12  2  0  0  0  0
 15 14  1  0  0  0  0
 15  8  2  0  0  0  0
 16 17  2  0  0  0  0
 17 18  1  0  0  0  0
 18  4  1  0  0  0  0
 18 24  1  0  0  0  0
 20 19  2  0  0  0  0
 20 17  1  0  0  0  0
 21 20  1  0  0  0  0
 22 23  1  0  0  0  0
 23 21  1  0  0  0  0
 25 24  1  0  0  0  0
 25 26  1  0  0  0  0
 26 27  1  0  0  0  0
 27 29  1  0  0  0  0
 29 30  1  0  0  0  0
 29 28  1  1  0  0  0
M  END
>  <MODEL>
1

>  <REMARK>
 VINA RESULT:      -8.5      0.000      0.000
  Name = 
  9 active torsions:
  status: ('A' for Active; 'I' for Inactive)
    1  A    between atoms: C_4  and  N_13
    2  A    between atoms: O_5  and  C_12
    3  A    between atoms: O_5  and  C_21
    4  A    between atoms: C_7  and  C_15
    5  A    between atoms: C_7  and  C_16
    6  A    between atoms: C_8  and  C_12
    7  A    between atoms: N_13  and  C_27
    8  A    between atoms: C_16  and  C_30
    9  A    between atoms: C_27  and  C_30
                            x       y       z     vdW  Elec       q    Type
                         _______ _______ _______ _____ _____    ______ ____

>  <TORSDO>
F 9

$$$$
=
 OpenBabel11052412293D

 30 32  0  0  1  0  0  0  0  0999 V2000
  184.1240  178.6690  141.3300 C   0  0  0  0  0  3  0  0  0  0  0  0
  185.7500  178.5280  143.2190 C   0  0  1  0  0  3  0  0  0  0  0  0
  180.8130  178.9220  143.9100 C   0  0  0  0  0  3  0  0  0  0  0  0
  182.8420  178.8030  140.7870 C   0  0  0  0  0  0  0  0  0  0  0  0
  179.5250  179.0360  143.3860 C   0  0  0  0  0  3  0  0  0  0  0  0
  185.8350  178.1440  144.6930 C   0  0  0  0  0  2  0  0  0  0  0  0
  186.4920  177.6270  142.4740 F   0  0  0  0  0  0  0  0  0  0  0  0
  181.9290  178.8410  143.0590 C   0  0  0  0  0  0  0  0  0  0  0  0
  184.8510  178.9740  145.5000 C   0  0  0  0  0  2  0  0  0  0  0  0
  184.3300  178.5970  142.7080 C   0  0  0  0  0  0  0  0  0  0  0  0
  181.7330  178.8840  141.6540 C   0  0  0  0  0  0  0  0  0  0  0  0
  179.3330  179.0680  142.0050 C   0  0  0  0  0  3  0  0  0  0  0  0
  180.4290  178.9910  141.1460 C   0  0  0  0  0  3  0  0  0  0  0  0
  183.4340  178.6080  145.0810 C   0  0  0  0  0  2  0  0  0  0  0  0
  183.2310  178.7140  143.5880 C   0  0  0  0  0  0  0  0  0  0  0  0
  183.1260  177.7630  137.3500 O   0  0  0  0  0  0  0  0  0  0  0  0
  182.6830  177.7030  138.5300 C   0  0  0  0  0  0  0  0  0  0  0  0
  182.6920  178.8850  139.3560 N   0  0  0  0  0  0  0  0  0  0  0  0
  182.9300  175.4720  139.2820 O   0  0  0  0  0  0  0  0  0  0  0  0
  182.1420  176.4210  139.0210 C   0  0  0  0  0  0  0  0  0  0  0  0
  180.7620  176.2520  139.1690 O   0  0  0  0  0  0  0  0  0  0  0  0
  179.3130  175.4550  140.9200 C   0  0  0  0  0  1  0  0  0  0  0  0
  180.1920  175.0830  139.7400 C   0  0  0  0  0  2  0  0  0  0  0  0
  182.7910  180.1930  138.7130 C   0  0  0  0  0  2  0  0  0  0  0  0
  181.4860  180.5290  138.0090 C   0  0  0  0  0  2  0  0  0  0  0  0
  181.1080  181.9800  138.2620 C   0  0  0  0  0  2  0  0  0  0  0  0
  180.8190  182.7210  136.9600 C   0  0  0  0  0  2  0  0  0  0  0  0
  180.8540  184.9170  135.7780 C   0  0  0  0  0  1  0  0  0  0  0  0
  181.0150  184.2210  137.1160 C   0  0  2  0  0  3  0  0  0  0  0  0
  182.3490  184.4800  137.6260 N   0  0  0  0  0  1  0  0  0  0  0  0
  1 10  1  0  0  0  0
  2  7  1  6  0  0  0
  2  6  1  0  0  0  0
  4  1  2  0  0  0  0
  4 11  1  0  0  0  0
  5  3  1  0  0  0  0
  6  9  1  0  0  0  0
  8 15  1  0  0  0  0
  8  3  2  0  0  0  0
 10  2  1  0  0  0  0
 10 15  2  0  0  0  0
 11  8  1  0  0  0  0
 12  5  2  0  0  0  0
 13 11  2  0  0  0  0
 13 12  1  0  0  0  0
 14  9  1  0  0  0  0
 15 14  1  0  0  0  0
 16 17  2  0  0  0  0
 17 20  1  0  0  0  0
 17 18  1  0  0  0  0
 18  4  1  0  0  0  0
 20 21  1  0  0  0  0
 20 19  2  0  0  0  0
 21 23  1  0  0  0  0
 23 22  1  0  0  0  0
 24 18  1  0  0  0  0
 25 26  1  0  0  0  0
 25 24  1  0  0  0  0
 27 29  1  0  0  0  0
 27 26  1  0  0  0  0
 29 28  1  6  0  0  0
 29 30  1  0  0  0  0
M  END
>  <MODEL>
2

>  <REMARK>
 VINA RESULT:      -8.3      4.755      8.918
  Name = 
  9 active torsions:
  status: ('A' for Active; 'I' for Inactive)
    1  A    between atoms: C_4  and  N_13
    2  A    between atoms: O_5  and  C_12
    3  A    between atoms: O_5  and  C_21
    4  A    between atoms: C_7  and  C_15
    5  A    between atoms: C_7  and  C_16
    6  A    between atoms: C_8  and  C_12
    7  A    between atoms: N_13  and  C_27
    8  A    between atoms: C_16  and  C_30
    9  A    between atoms: C_27  and  C_30
                            x       y       z     vdW  Elec       q    Type
                         _______ _______ _______ _____ _____    ______ ____

>  <TORSDO>
F 9

$$$$
=
 OpenBabel11052412293D

 30 32  0  0  1  0  0  0  0  0999 V2000
  188.8990  177.7120  144.4640 C   0  0  0  0  0  3  0  0  0  0  0  0
  188.9040  177.7710  146.9600 C   0  0  1  0  0  3  0  0  0  0  0  0
  184.7680  178.4670  144.2360 C   0  0  0  0  0  3  0  0  0  0  0  0
  188.2920  177.8220  143.2090 C   0  0  0  0  0  0  0  0  0  0  0  0
  184.1420  178.5610  142.9920 C   0  0  0  0  0  3  0  0  0  0  0  0
  187.9770  177.5970  148.1580 C   0  0  0  0  0  2  0  0  0  0  0  0
  189.8320  176.7440  146.9530 F   0  0  0  0  0  0  0  0  0  0  0  0
  186.1490  178.2200  144.3260 C   0  0  0  0  0  0  0  0  0  0  0  0
  186.8170  178.5730  148.0600 C   0  0  0  0  0  2  0  0  0  0  0  0
  188.1640  177.8280  145.6440 C   0  0  0  0  0  0  0  0  0  0  0  0
  186.9070  178.0720  143.1350 C   0  0  0  0  0  0  0  0  0  0  0  0
  184.8850  178.4050  141.8230 C   0  0  0  0  0  3  0  0  0  0  0  0
  186.2560  178.1610  141.8940 C   0  0  0  0  0  3  0  0  0  0  0  0
  185.9660  178.2120  146.8510 C   0  0  0  0  0  2  0  0  0  0  0  0
  186.7810  178.1140  145.5830 C   0  0  0  0  0  0  0  0  0  0  0  0
  191.3020  177.4470  141.2670 O   0  0  0  0  0  0  0  0  0  0  0  0
  190.3950  177.0630  142.0540 C   0  0  0  0  0  0  0  0  0  0  0  0
  189.1050  177.7070  142.0240 N   0  0  0  0  0  0  0  0  0  0  0  0
  189.9830  174.8910  142.9010 O   0  0  0  0  0  0  0  0  0  0  0  0
  190.6770  175.9420  142.9710 C   0  0  0  0  0  0  0  0  0  0  0  0
  191.6880  176.0560  143.9300 O   0  0  0  0  0  0  0  0  0  0  0  0
  192.2830  175.3860  146.1650 C   0  0  0  0  0  1  0  0  0  0  0  0
  192.1200  174.9560  144.7190 C   0  0  0  0  0  2  0  0  0  0  0  0
  188.7230  178.4630  140.8350 C   0  0  0  0  0  2  0  0  0  0  0  0
  188.7110  177.5520  139.6180 C   0  0  0  0  0  2  0  0  0  0  0  0
  189.1320  178.3220  138.3760 C   0  0  0  0  0  2  0  0  0  0  0  0
  187.9450  178.6080  137.4620 C   0  0  0  0  0  2  0  0  0  0  0  0
  186.2080  176.9640  136.7520 C   0  0  0  0  0  1  0  0  0  0  0  0
  186.7090  177.8310  137.8910 C   0  0  2  0  0  3  0  0  0  0  0  0
  185.6650  178.7640  138.2720 N   0  0  0  0  0  1  0  0  0  0  0  0
  1 10  1  0  0  0  0
  2  7  1  6  0  0  0
  2  6  1  0  0  0  0
  3  8  1  0  0  0  0
  4  1  2  0  0  0  0
  5  3  2  0  0  0  0
  8 15  1  0  0  0  0
  9  6  1  0  0  0  0
 10  2  1  0  0  0  0
 11  4  1  0  0  0  0
 11  8  2  0  0  0  0
 12 13  2  0  0  0  0
 12  5  1  0  0  0  0
 13 11  1  0  0  0  0
 14  9  1  0  0  0  0
 15 10  2  0  0  0  0
 15 14  1  0  0  0  0
 16 17  2  0  0  0  0
 17 20  1  0  0  0  0
 18 17  1  0  0  0  0
 18  4  1  0  0  0  0
 19 20  2  0  0  0  0
 20 21  1  0  0  0  0
 21 23  1  0  0  0  0
 23 22  1  0  0  0  0
 24 18  1  0  0  0  0
 25 24  1  0  0  0  0
 26 25  1  0  0  0  0
 27 29  1  0  0  0  0
 27 26  1  0  0  0  0
 29 28  1  6  0  0  0
 29 30  1  0  0  0  0
M  END
>  <MODEL>
3

>  <REMARK>
 VINA RESULT:      -8.2      2.546      6.302
  Name = 
  9 active torsions:
  status: ('A' for Active; 'I' for Inactive)
    1  A    between atoms: C_4  and  N_13
    2  A    between atoms: O_5  and  C_12
    3  A    between atoms: O_5  and  C_21
    4  A    between atoms: C_7  and  C_15
    5  A    between atoms: C_7  and  C_16
    6  A    between atoms: C_8  and  C_12
    7  A    between atoms: N_13  and  C_27
    8  A    between atoms: C_16  and  C_30
    9  A    between atoms: C_27  and  C_30
                            x       y       z     vdW  Elec       q    Type
                         _______ _______ _______ _____ _____    ______ ____

>  <TORSDO>
F 9

$$$$
=
 OpenBabel11052412293D

 30 32  0  0  1  0  0  0  0  0999 V2000
  188.4360  177.7730  144.1440 C   0  0  0  0  0  3  0  0  0  0  0  0
  188.1610  177.8380  146.6240 C   0  0  1  0  0  3  0  0  0  0  0  0
  184.3810  178.6470  143.4520 C   0  0  0  0  0  3  0  0  0  0  0  0
  187.9780  177.8980  142.8280 C   0  0  0  0  0  0  0  0  0  0  0  0
  183.9020  178.7560  142.1450 C   0  0  0  0  0  3  0  0  0  0  0  0
  187.1000  177.6940  147.7100 C   0  0  0  0  0  2  0  0  0  0  0  0
  189.0530  176.7850  146.7200 F   0  0  0  0  0  0  0  0  0  0  0  0
  185.7350  178.3600  143.6970 C   0  0  0  0  0  0  0  0  0  0  0  0
  185.9870  178.7030  147.4830 C   0  0  0  0  0  2  0  0  0  0  0  0
  187.5760  177.9130  145.2330 C   0  0  0  0  0  0  0  0  0  0  0  0
  186.6170  178.1870  142.5980 C   0  0  0  0  0  0  0  0  0  0  0  0
  184.7670  178.5760  141.0670 C   0  0  0  0  0  3  0  0  0  0  0  0
  186.1140  178.2920  141.2920 C   0  0  0  0  0  3  0  0  0  0  0  0
  185.2680  178.3640  146.1850 C   0  0  0  0  0  2  0  0  0  0  0  0
  186.2180  178.2400  145.0170 C   0  0  0  0  0  0  0  0  0  0  0  0
  191.1940  177.6500  141.2240 O   0  0  0  0  0  0  0  0  0  0  0  0
  190.2490  177.2510  141.9590 C   0  0  0  0  0  0  0  0  0  0  0  0
  188.9160  177.7560  141.7420 N   0  0  0  0  0  0  0  0  0  0  0  0
  190.1020  175.0760  142.8820 O   0  0  0  0  0  0  0  0  0  0  0  0
  190.5360  176.2530  143.0070 C   0  0  0  0  0  0  0  0  0  0  0  0
  191.2610  176.6200  144.1450 O   0  0  0  0  0  0  0  0  0  0  0  0
  191.9610  176.1980  146.4100 C   0  0  0  0  0  1  0  0  0  0  0  0
  191.8890  175.6670  144.9910 C   0  0  0  0  0  2  0  0  0  0  0  0
  188.5900  178.3560  140.4510 C   0  0  0  0  0  2  0  0  0  0  0  0
  188.7420  177.3270  139.3430 C   0  0  0  0  0  2  0  0  0  0  0  0
  189.4850  177.9270  138.1610 C   0  0  0  0  0  2  0  0  0  0  0  0
  190.1850  176.8540  137.3320 C   0  0  0  0  0  2  0  0  0  0  0  0
  192.5710  176.4010  137.8980 C   0  0  0  0  0  1  0  0  0  0  0  0
  191.1310  176.0200  138.1820 C   0  0  2  0  0  3  0  0  0  0  0  0
  190.9420  174.6150  137.8710 N   0  0  0  0  0  1  0  0  0  0  0  0
  1 10  1  0  0  0  0
  2  7  1  6  0  0  0
  2  6  1  0  0  0  0
  3  8  1  0  0  0  0
  4  1  2  0  0  0  0
  5  3  2  0  0  0  0
  8 15  1  0  0  0  0
  9  6  1  0  0  0  0
 10  2  1  0  0  0  0
 11  4  1  0  0  0  0
 11  8  2  0  0  0  0
 12 13  2  0  0  0  0
 12  5  1  0  0  0  0
 13 11  1  0  0  0  0
 14  9  1  0  0  0  0
 15 10  2  0  0  0  0
 15 14  1  0  0  0  0
 16 17  2  0  0  0  0
 17 20  1  0  0  0  0
 18 17  1  0  0  0  0
 18  4  1  0  0  0  0
 19 20  2  0  0  0  0
 20 21  1  0  0  0  0
 21 23  1  0  0  0  0
 23 22  1  0  0  0  0
 24 18  1  0  0  0  0
 25 24  1  0  0  0  0
 26 25  1  0  0  0  0
 27 26  1  0  0  0  0
 27 29  1  0  0  0  0
 29 28  1  6  0  0  0
 30 29  1  0  0  0  0
M  END
>  <MODEL>
4

>  <REMARK>
 VINA RESULT:      -8.2      2.507      5.788
  Name = 
  9 active torsions:
  status: ('A' for Active; 'I' for Inactive)
    1  A    between atoms: C_4  and  N_13
    2  A    between atoms: O_5  and  C_12
    3  A    between atoms: O_5  and  C_21
    4  A    between atoms: C_7  and  C_15
    5  A    between atoms: C_7  and  C_16
    6  A    between atoms: C_8  and  C_12
    7  A    between atoms: N_13  and  C_27
    8  A    between atoms: C_16  and  C_30
    9  A    between atoms: C_27  and  C_30
                            x       y       z     vdW  Elec       q    Type
                         _______ _______ _______ _____ _____    ______ ____

>  <TORSDO>
F 9

$$$$
=
 OpenBabel11052412293D

 30 32  0  0  1  0  0  0  0  0999 V2000
  188.3750  177.1350  143.3790 C   0  0  0  0  0  3  0  0  0  0  0  0
  190.6750  176.2330  143.7360 C   0  0  1  0  0  3  0  0  0  0  0  0
  187.8590  178.0370  147.4540 C   0  0  0  0  0  3  0  0  0  0  0  0
  187.1840  177.7350  143.8010 C   0  0  0  0  0  0  0  0  0  0  0  0
  186.6700  178.6180  147.8970 C   0  0  0  0  0  3  0  0  0  0  0  0
  191.5680  175.6390  144.8210 C   0  0  0  0  0  2  0  0  0  0  0  0
  190.4090  175.2610  142.7880 F   0  0  0  0  0  0  0  0  0  0  0  0
  188.0460  177.7350  146.0940 C   0  0  0  0  0  0  0  0  0  0  0  0
  191.6850  176.6110  145.9830 C   0  0  0  0  0  2  0  0  0  0  0  0
  189.3900  176.8110  144.2800 C   0  0  0  0  0  0  0  0  0  0  0  0
  187.0120  178.0330  145.1690 C   0  0  0  0  0  0  0  0  0  0  0  0
  185.6510  178.9010  146.9890 C   0  0  0  0  0  3  0  0  0  0  0  0
  185.8200  178.6090  145.6360 C   0  0  0  0  0  3  0  0  0  0  0  0
  190.3200  176.7650  146.6400 C   0  0  0  0  0  2  0  0  0  0  0  0
  189.2440  177.1380  145.6470 C   0  0  0  0  0  0  0  0  0  0  0  0
  185.6390  179.5390  141.0940 O   0  0  0  0  0  0  0  0  0  0  0  0
  186.5010  178.7810  141.6180 C   0  0  0  0  0  0  0  0  0  0  0  0
  186.1770  178.0600  142.8230 N   0  0  0  0  0  0  0  0  0  0  0  0
  188.7690  179.3840  141.3060 O   0  0  0  0  0  0  0  0  0  0  0  0
  187.8140  178.6370  140.9600 C   0  0  0  0  0  0  0  0  0  0  0  0
  187.9890  177.6960  139.9410 O   0  0  0  0  0  0  0  0  0  0  0  0
  186.6270  177.8560  137.9610 C   0  0  0  0  0  1  0  0  0  0  0  0
  188.0050  178.0530  138.5660 C   0  0  0  0  0  2  0  0  0  0  0  0
  184.7720  177.8650  143.1720 C   0  0  0  0  0  2  0  0  0  0  0  0
  184.0620  179.2080  143.2480 C   0  0  0  0  0  2  0  0  0  0  0  0
  182.6030  179.0140  143.6280 C   0  0  0  0  0  2  0  0  0  0  0  0
  181.7270  178.7820  142.4010 C   0  0  0  0  0  2  0  0  0  0  0  0
  180.0510  178.5860  144.2380 C   0  0  0  0  0  1  0  0  0  0  0  0
  180.2480  178.8280  142.7530 C   0  0  2  0  0  3  0  0  0  0  0  0
  179.5470  177.7990  142.0090 N   0  0  0  0  0  1  0  0  0  0  0  0
  1  4  2  0  0  0  0
  1 10  1  0  0  0  0
  2  7  1  6  0  0  0
  2 10  1  0  0  0  0
  2  6  1  0  0  0  0
  3  5  1  0  0  0  0
  4 11  1  0  0  0  0
  6  9  1  0  0  0  0
  8  3  2  0  0  0  0
  9 14  1  0  0  0  0
 10 15  2  0  0  0  0
 11 13  2  0  0  0  0
 11  8  1  0  0  0  0
 12  5  2  0  0  0  0
 13 12  1  0  0  0  0
 15  8  1  0  0  0  0
 15 14  1  0  0  0  0
 16 17  2  0  0  0  0
 17 18  1  0  0  0  0
 18 24  1  0  0  0  0
 18  4  1  0  0  0  0
 20 19  2  0  0  0  0
 20 17  1  0  0  0  0
 21 20  1  0  0  0  0
 22 23  1  0  0  0  0
 23 21  1  0  0  0  0
 24 25  1  0  0  0  0
 25 26  1  0  0  0  0
 27 29  1  0  0  0  0
 27 26  1  0  0  0  0
 29 28  1  1  0  0  0
 30 29  1  0  0  0  0
M  END
>  <MODEL>
5

>  <REMARK>
 VINA RESULT:      -8.0      2.456      6.509
  Name = 
  9 active torsions:
  status: ('A' for Active; 'I' for Inactive)
    1  A    between atoms: C_4  and  N_13
    2  A    between atoms: O_5  and  C_12
    3  A    between atoms: O_5  and  C_21
    4  A    between atoms: C_7  and  C_15
    5  A    between atoms: C_7  and  C_16
    6  A    between atoms: C_8  and  C_12
    7  A    between atoms: N_13  and  C_27
    8  A    between atoms: C_16  and  C_30
    9  A    between atoms: C_27  and  C_30
                            x       y       z     vdW  Elec       q    Type
                         _______ _______ _______ _____ _____    ______ ____

>  <TORSDO>
F 9

$$$$
=
 OpenBabel11052412293D

 30 32  0  0  1  0  0  0  0  0999 V2000
  188.0920  177.9150  143.9440 C   0  0  0  0  0  3  0  0  0  0  0  0
  189.2720  177.4970  146.1040 C   0  0  1  0  0  3  0  0  0  0  0  0
  184.4080  178.6270  145.8420 C   0  0  0  0  0  3  0  0  0  0  0  0
  186.9780  178.2520  143.1690 C   0  0  0  0  0  0  0  0  0  0  0  0
  183.2800  178.9460  145.0840 C   0  0  0  0  0  3  0  0  0  0  0  0
  189.0050  177.0800  147.5470 C   0  0  0  0  0  2  0  0  0  0  0  0
  190.0070  176.5060  145.4760 F   0  0  0  0  0  0  0  0  0  0  0  0
  185.6470  178.3910  145.2210 C   0  0  0  0  0  0  0  0  0  0  0  0
  188.0130  178.0370  148.1850 C   0  0  0  0  0  2  0  0  0  0  0  0
  188.0080  177.7900  145.3310 C   0  0  0  0  0  0  0  0  0  0  0  0
  185.7430  178.4870  143.8080 C   0  0  0  0  0  0  0  0  0  0  0  0
  183.3730  179.0290  143.6950 C   0  0  0  0  0  3  0  0  0  0  0  0
  184.5950  178.7990  143.0630 C   0  0  0  0  0  3  0  0  0  0  0  0
  186.6690  177.8980  147.4830 C   0  0  0  0  0  2  0  0  0  0  0  0
  186.7850  178.0590  145.9860 C   0  0  0  0  0  0  0  0  0  0  0  0
  188.6800  178.7920  140.0420 O   0  0  0  0  0  0  0  0  0  0  0  0
  188.3980  178.1570  141.0950 C   0  0  0  0  0  0  0  0  0  0  0  0
  187.1280  178.3790  141.7420 N   0  0  0  0  0  0  0  0  0  0  0  0
  188.9670  176.0710  142.0570 O   0  0  0  0  0  0  0  0  0  0  0  0
  189.3720  177.1820  141.6190 C   0  0  0  0  0  0  0  0  0  0  0  0
  190.7330  177.5000  141.6570 O   0  0  0  0  0  0  0  0  0  0  0  0
  191.6800  178.5810  143.5890 C   0  0  0  0  0  1  0  0  0  0  0  0
  191.5360  177.2870  142.8100 C   0  0  0  0  0  2  0  0  0  0  0  0
  186.0390  178.9740  140.9720 C   0  0  0  0  0  2  0  0  0  0  0  0
  185.8850  178.2530  139.6420 C   0  0  0  0  0  2  0  0  0  0  0  0
  184.4150  178.1170  139.2810 C   0  0  0  0  0  2  0  0  0  0  0  0
  183.7210  179.4740  139.2260 C   0  0  0  0  0  2  0  0  0  0  0  0
  182.0070  178.0400  140.3340 C   0  0  0  0  0  1  0  0  0  0  0  0
  182.2680  179.3780  139.6690 C   0  0  2  0  0  3  0  0  0  0  0  0
  181.4050  179.5080  138.5100 N   0  0  0  0  0  1  0  0  0  0  0  0
  1 10  1  0  0  0  0
  2  7  1  6  0  0  0
  2  6  1  0  0  0  0
  4 11  1  0  0  0  0
  4  1  2  0  0  0  0
  5  3  2  0  0  0  0
  6  9  1  0  0  0  0
  8  3  1  0  0  0  0
  8 15  1  0  0  0  0
 10 15  2  0  0  0  0
 10  2  1  0  0  0  0
 11  8  2  0  0  0  0
 12  5  1  0  0  0  0
 13 12  2  0  0  0  0
 13 11  1  0  0  0  0
 14  9  1  0  0  0  0
 15 14  1  0  0  0  0
 16 17  2  0  0  0  0
 17 20  1  0  0  0  0
 17 18  1  0  0  0  0
 18  4  1  0  0  0  0
 20 21  1  0  0  0  0
 20 19  2  0  0  0  0
 21 23  1  0  0  0  0
 23 22  1  0  0  0  0
 24 18  1  0  0  0  0
 25 24  1  0  0  0  0
 26 25  1  0  0  0  0
 27 26  1  0  0  0  0
 27 29  1  0  0  0  0
 29 28  1  6  0  0  0
 30 29  1  0  0  0  0
M  END
>  <MODEL>
6

>  <REMARK>
 VINA RESULT:      -7.8      2.649      6.463
  Name = 
  9 active torsions:
  status: ('A' for Active; 'I' for Inactive)
    1  A    between atoms: C_4  and  N_13
    2  A    between atoms: O_5  and  C_12
    3  A    between atoms: O_5  and  C_21
    4  A    between atoms: C_7  and  C_15
    5  A    between atoms: C_7  and  C_16
    6  A    between atoms: C_8  and  C_12
    7  A    between atoms: N_13  and  C_27
    8  A    between atoms: C_16  and  C_30
    9  A    between atoms: C_27  and  C_30
                            x       y       z     vdW  Elec       q    Type
                         _______ _______ _______ _____ _____    ______ ____

>  <TORSDO>
F 9

$$$$
=
 OpenBabel11052412293D

 30 32  0  0  1  0  0  0  0  0999 V2000
  189.3840  177.5840  143.5370 C   0  0  0  0  0  3  0  0  0  0  0  0
  191.3680  176.8750  144.8770 C   0  0  1  0  0  3  0  0  0  0  0  0
  186.8930  177.7740  146.9190 C   0  0  0  0  0  3  0  0  0  0  0  0
  188.0530  177.9860  143.3840 C   0  0  0  0  0  0  0  0  0  0  0  0
  185.5560  178.1540  146.7830 C   0  0  0  0  0  3  0  0  0  0  0  0
  191.7370  176.2110  146.1990 C   0  0  0  0  0  2  0  0  0  0  0  0
  191.7370  176.0440  143.8340 F   0  0  0  0  0  0  0  0  0  0  0  0
  187.7370  177.7110  145.7970 C   0  0  0  0  0  0  0  0  0  0  0  0
  191.1390  176.9940  147.3550 C   0  0  0  0  0  2  0  0  0  0  0  0
  189.9020  177.2260  144.7820 C   0  0  0  0  0  0  0  0  0  0  0  0
  187.2190  178.0460  144.5190 C   0  0  0  0  0  0  0  0  0  0  0  0
  185.0450  178.4720  145.5250 C   0  0  0  0  0  3  0  0  0  0  0  0
  185.8700  178.4160  144.4020 C   0  0  0  0  0  3  0  0  0  0  0  0
  189.6210  176.9040  147.2830 C   0  0  0  0  0  2  0  0  0  0  0  0
  189.0850  177.3170  145.9320 C   0  0  0  0  0  0  0  0  0  0  0  0
  188.2640  179.0740  139.9570 O   0  0  0  0  0  0  0  0  0  0  0  0
  188.4260  178.2650  140.9110 C   0  0  0  0  0  0  0  0  0  0  0  0
  187.5790  178.3570  142.0740 N   0  0  0  0  0  0  0  0  0  0  0  0
  189.1530  176.0120  140.9210 O   0  0  0  0  0  0  0  0  0  0  0  0
  189.4680  177.2270  140.7940 C   0  0  0  0  0  0  0  0  0  0  0  0
  190.8000  177.5910  140.5740 O   0  0  0  0  0  0  0  0  0  0  0  0
  193.0700  177.3060  139.8240 C   0  0  0  0  0  1  0  0  0  0  0  0
  191.6110  176.9620  139.5910 C   0  0  0  0  0  2  0  0  0  0  0  0
  186.3030  179.0600  141.9640 C   0  0  0  0  0  2  0  0  0  0  0  0
  185.4250  178.3880  140.9210 C   0  0  0  0  0  2  0  0  0  0  0  0
  184.0860  178.0000  141.5270 C   0  0  0  0  0  2  0  0  0  0  0  0
  182.9190  178.5770  140.7300 C   0  0  0  0  0  2  0  0  0  0  0  0
  182.1940  178.9270  143.0900 C   0  0  0  0  0  1  0  0  0  0  0  0
  181.7630  178.9690  141.6370 C   0  0  2  0  0  3  0  0  0  0  0  0
  180.6640  178.0420  141.4410 N   0  0  0  0  0  1  0  0  0  0  0  0
  1 10  1  0  0  0  0
  2  7  1  6  0  0  0
  2  6  1  0  0  0  0
  4  1  2  0  0  0  0
  4 11  1  0  0  0  0
  5  3  1  0  0  0  0
  6  9  1  0  0  0  0
  8 15  1  0  0  0  0
  8  3  2  0  0  0  0
 10  2  1  0  0  0  0
 10 15  2  0  0  0  0
 11  8  1  0  0  0  0
 12  5  2  0  0  0  0
 13 11  2  0  0  0  0
 13 12  1  0  0  0  0
 14  9  1  0  0  0  0
 15 14  1  0  0  0  0
 16 17  2  0  0  0  0
 17 18  1  0  0  0  0
 18  4  1  0  0  0  0
 20 17  1  0  0  0  0
 20 19  2  0  0  0  0
 21 20  1  0  0  0  0
 23 22  1  0  0  0  0
 23 21  1  0  0  0  0
 24 18  1  0  0  0  0
 25 26  1  0  0  0  0
 25 24  1  0  0  0  0
 27 26  1  0  0  0  0
 27 29  1  0  0  0  0
 29 28  1  1  0  0  0
 30 29  1  0  0  0  0
M  END
>  <MODEL>
7

>  <REMARK>
 VINA RESULT:      -7.6      2.589      6.384
  Name = 
  9 active torsions:
  status: ('A' for Active; 'I' for Inactive)
    1  A    between atoms: C_4  and  N_13
    2  A    between atoms: O_5  and  C_12
    3  A    between atoms: O_5  and  C_21
    4  A    between atoms: C_7  and  C_15
    5  A    between atoms: C_7  and  C_16
    6  A    between atoms: C_8  and  C_12
    7  A    between atoms: N_13  and  C_27
    8  A    between atoms: C_16  and  C_30
    9  A    between atoms: C_27  and  C_30
                            x       y       z     vdW  Elec       q    Type
                         _______ _______ _______ _____ _____    ______ ____

>  <TORSDO>
F 9

$$$$
=
 OpenBabel11052412293D

 30 32  0  0  1  0  0  0  0  0999 V2000
  184.1790  178.2200  141.2080 C   0  0  0  0  0  3  0  0  0  0  0  0
  185.8510  178.4850  143.0420 C   0  0  1  0  0  3  0  0  0  0  0  0
  180.9220  178.8980  143.7810 C   0  0  0  0  0  3  0  0  0  0  0  0
  182.8820  178.2180  140.6840 C   0  0  0  0  0  0  0  0  0  0  0  0
  179.6200  178.8800  143.2800 C   0  0  0  0  0  3  0  0  0  0  0  0
  185.9800  178.3980  144.5590 C   0  0  0  0  0  2  0  0  0  0  0  0
  186.5990  177.4730  142.4660 F   0  0  0  0  0  0  0  0  0  0  0  0
  182.0200  178.6780  142.9300 C   0  0  0  0  0  0  0  0  0  0  0  0
  184.9930  179.3470  145.2170 C   0  0  0  0  0  2  0  0  0  0  0  0
  184.4180  178.4230  142.5670 C   0  0  0  0  0  0  0  0  0  0  0  0
  181.7910  178.4420  141.5490 C   0  0  0  0  0  0  0  0  0  0  0  0
  179.3950  178.6380  141.9250 C   0  0  0  0  0  3  0  0  0  0  0  0
  180.4730  178.4190  141.0680 C   0  0  0  0  0  3  0  0  0  0  0  0
  183.5770  178.8760  144.9170 C   0  0  0  0  0  2  0  0  0  0  0  0
  183.3370  178.6850  143.4380 C   0  0  0  0  0  0  0  0  0  0  0  0
  181.5070  178.7660  137.4000 O   0  0  0  0  0  0  0  0  0  0  0  0
  182.1910  179.0640  138.4180 C   0  0  0  0  0  0  0  0  0  0  0  0
  182.6970  178.0160  139.2690 N   0  0  0  0  0  0  0  0  0  0  0  0
  183.6700  180.8740  138.7960 O   0  0  0  0  0  0  0  0  0  0  0  0
  182.4750  180.4860  138.6920 C   0  0  0  0  0  0  0  0  0  0  0  0
  181.4230  181.3920  138.8630 O   0  0  0  0  0  0  0  0  0  0  0  0
  180.3970  182.0230  136.7780 C   0  0  0  0  0  1  0  0  0  0  0  0
  181.2020  182.4820  137.9790 C   0  0  0  0  0  2  0  0  0  0  0  0
  182.7950  176.6610  138.7350 C   0  0  0  0  0  2  0  0  0  0  0  0
  183.6660  176.6520  137.4890 C   0  0  0  0  0  2  0  0  0  0  0  0
  185.1350  176.7410  137.8690 C   0  0  0  0  0  2  0  0  0  0  0  0
  185.7130  178.1190  137.5640 C   0  0  0  0  0  2  0  0  0  0  0  0
  187.9930  177.5260  138.3850 C   0  0  0  0  0  1  0  0  0  0  0  0
  187.1890  178.0390  137.2050 C   0  0  2  0  0  3  0  0  0  0  0  0
  187.6670  179.3610  136.8450 N   0  0  0  0  0  1  0  0  0  0  0  0
  1 10  1  0  0  0  0
  2  7  1  6  0  0  0
  2  6  1  0  0  0  0
  4  1  2  0  0  0  0
  4 11  1  0  0  0  0
  5  3  1  0  0  0  0
  6  9  1  0  0  0  0
  8 15  1  0  0  0  0
  8  3  2  0  0  0  0
 10  2  1  0  0  0  0
 10 15  2  0  0  0  0
 11  8  1  0  0  0  0
 12  5  2  0  0  0  0
 13 11  2  0  0  0  0
 13 12  1  0  0  0  0
 14  9  1  0  0  0  0
 15 14  1  0  0  0  0
 16 17  2  0  0  0  0
 17 20  1  0  0  0  0
 17 18  1  0  0  0  0
 18  4  1  0  0  0  0
 20 19  2  0  0  0  0
 20 21  1  0  0  0  0
 22 23  1  0  0  0  0
 23 21  1  0  0  0  0
 24 18  1  0  0  0  0
 25 26  1  0  0  0  0
 25 24  1  0  0  0  0
 27 26  1  0  0  0  0
 29 27  1  0  0  0  0
 29 28  1  1  0  0  0
 30 29  1  0  0  0  0
M  END
>  <MODEL>
8

>  <REMARK>
 VINA RESULT:      -7.5      4.324      7.191
  Name = 
  9 active torsions:
  status: ('A' for Active; 'I' for Inactive)
    1  A    between atoms: C_4  and  N_13
    2  A    between atoms: O_5  and  C_12
    3  A    between atoms: O_5  and  C_21
    4  A    between atoms: C_7  and  C_15
    5  A    between atoms: C_7  and  C_16
    6  A    between atoms: C_8  and  C_12
    7  A    between atoms: N_13  and  C_27
    8  A    between atoms: C_16  and  C_30
    9  A    between atoms: C_27  and  C_30
                            x       y       z     vdW  Elec       q    Type
                         _______ _______ _______ _____ _____    ______ ____

>  <TORSDO>
F 9

$$$$
=
 OpenBabel11052412293D

 30 32  0  0  1  0  0  0  0  0999 V2000
  187.8960  178.0270  143.7670 C   0  0  0  0  0  3  0  0  0  0  0  0
  189.1130  177.6350  145.9120 C   0  0  1  0  0  3  0  0  0  0  0  0
  184.2180  178.6380  145.7130 C   0  0  0  0  0  3  0  0  0  0  0  0
  186.7630  178.3360  143.0070 C   0  0  0  0  0  0  0  0  0  0  0  0
  183.0730  178.9280  144.9690 C   0  0  0  0  0  3  0  0  0  0  0  0
  188.8750  177.2090  147.3570 C   0  0  0  0  0  2  0  0  0  0  0  0
  189.8660  176.6660  145.2720 F   0  0  0  0  0  0  0  0  0  0  0  0
  185.4540  178.4360  145.0750 C   0  0  0  0  0  0  0  0  0  0  0  0
  187.8660  178.1380  148.0100 C   0  0  0  0  0  2  0  0  0  0  0  0
  187.8320  177.8970  145.1550 C   0  0  0  0  0  0  0  0  0  0  0  0
  185.5310  178.5370  143.6610 C   0  0  0  0  0  0  0  0  0  0  0  0
  183.1460  179.0160  143.5790 C   0  0  0  0  0  3  0  0  0  0  0  0
  184.3660  178.8200  142.9310 C   0  0  0  0  0  3  0  0  0  0  0  0
  186.5180  177.9650  147.3240 C   0  0  0  0  0  2  0  0  0  0  0  0
  186.6100  178.1320  145.8250 C   0  0  0  0  0  0  0  0  0  0  0  0
  188.4050  178.9580  139.8620 O   0  0  0  0  0  0  0  0  0  0  0  0
  188.1650  178.3100  140.9180 C   0  0  0  0  0  0  0  0  0  0  0  0
  186.8930  178.4700  141.5780 N   0  0  0  0  0  0  0  0  0  0  0  0
  189.0060  176.1380  141.3440 O   0  0  0  0  0  0  0  0  0  0  0  0
  189.1900  177.3820  141.4320 C   0  0  0  0  0  0  0  0  0  0  0  0
  190.3470  177.8820  142.0400 O   0  0  0  0  0  0  0  0  0  0  0  0
  192.1120  177.5180  140.4430 C   0  0  0  0  0  1  0  0  0  0  0  0
  191.6230  177.2850  141.8600 C   0  0  0  0  0  2  0  0  0  0  0  0
  185.7690  179.0110  140.8190 C   0  0  0  0  0  2  0  0  0  0  0  0
  185.2520  177.9720  139.8380 C   0  0  0  0  0  2  0  0  0  0  0  0
  185.4060  178.4690  138.4100 C   0  0  0  0  0  2  0  0  0  0  0  0
  185.4730  177.3140  137.4150 C   0  0  0  0  0  2  0  0  0  0  0  0
  187.7960  176.4290  137.6210 C   0  0  0  0  0  1  0  0  0  0  0  0
  186.8390  177.2250  136.7530 C   0  0  2  0  0  3  0  0  0  0  0  0
  187.3690  178.5620  136.5670 N   0  0  0  0  0  1  0  0  0  0  0  0
  1 10  1  0  0  0  0
  2  7  1  6  0  0  0
  2  6  1  0  0  0  0
  4 11  1  0  0  0  0
  4  1  2  0  0  0  0
  5  3  2  0  0  0  0
  6  9  1  0  0  0  0
  8  3  1  0  0  0  0
  8 15  1  0  0  0  0
 10 15  2  0  0  0  0
 10  2  1  0  0  0  0
 11  8  2  0  0  0  0
 12  5  1  0  0  0  0
 13 12  2  0  0  0  0
 13 11  1  0  0  0  0
 14  9  1  0  0  0  0
 15 14  1  0  0  0  0
 16 17  2  0  0  0  0
 17 20  1  0  0  0  0
 17 18  1  0  0  0  0
 18  4  1  0  0  0  0
 19 20  2  0  0  0  0
 20 21  1  0  0  0  0
 22 23  1  0  0  0  0
 23 21  1  0  0  0  0
 24 18  1  0  0  0  0
 25 24  1  0  0  0  0
 26 25  1  0  0  0  0
 27 26  1  0  0  0  0
 29 27  1  0  0  0  0
 29 28  1  1  0  0  0
 30 29  1  0  0  0  0
M  END
>  <MODEL>
9

>  <REMARK>
 VINA RESULT:      -7.4      2.612      6.025
  Name = 
  9 active torsions:
  status: ('A' for Active; 'I' for Inactive)
    1  A    between atoms: C_4  and  N_13
    2  A    between atoms: O_5  and  C_12
    3  A    between atoms: O_5  and  C_21
    4  A    between atoms: C_7  and  C_15
    5  A    between atoms: C_7  and  C_16
    6  A    between atoms: C_8  and  C_12
    7  A    between atoms: N_13  and  C_27
    8  A    between atoms: C_16  and  C_30
    9  A    between atoms: C_27  and  C_30
                            x       y       z     vdW  Elec       q    Type
                         _______ _______ _______ _____ _____    ______ ____

>  <TORSDO>
F 9

$$$$
