=
 OpenBabel11052413123D

 31 34  0  0  1  0  0  0  0  0999 V2000
  185.6230  178.8580  139.7640 C   0  0  0  0  0  0  0  0  0  0  0  0
  188.9130  177.7930  141.1180 C   0  0  0  0  0  0  0  0  0  0  0  0
  188.6830  177.9810  142.5980 C   0  0  1  0  0  3  0  0  0  0  0  0
  187.0920  177.3100  144.3990 C   0  0  0  0  0  3  0  0  0  0  0  0
  187.9090  178.1320  140.2000 C   0  0  0  0  0  0  0  0  0  0  0  0
  185.6750  178.2630  138.3910 C   0  0  0  0  0  2  0  0  0  0  0  0
  187.7500  176.8900  143.1180 C   0  0  0  0  0  2  0  0  0  0  0  0
  190.2680  176.9690  139.2770 C   0  0  0  0  0  0  0  0  0  0  0  0
  184.5800  179.4420  140.1580 O   0  0  0  0  0  0  0  0  0  0  0  0
  191.0980  177.2650  142.8760 C   0  0  0  0  0  3  0  0  0  0  0  0
  187.7650  177.5610  145.5300 C   0  0  0  0  0  3  0  0  0  0  0  0
  189.2770  177.3220  138.4120 N   0  0  0  0  0  0  0  0  0  0  0  0
  190.1060  177.2080  140.6510 C   0  0  0  0  0  0  0  0  0  0  0  0
  186.7060  178.7030  140.6340 O   0  0  0  0  0  0  0  0  0  0  0  0
  189.2580  177.4490  145.6490 C   0  0  0  0  0  2  0  0  0  0  0  0
  188.1140  177.8820  138.8340 C   0  0  0  0  0  0  0  0  0  0  0  0
  187.0960  178.3330  137.8290 C   0  0  0  0  0  2  0  0  0  0  0  0
  191.1870  176.8940  141.6020 C   0  0  0  0  0  3  0  0  0  0  0  0
  189.9420  177.9640  143.3570 N   0  0  0  0  0  0  0  0  0  0  0  0
  189.9560  178.4450  144.7310 C   0  0  0  0  0  2  0  0  0  0  0  0
  194.0560  175.5090  137.9510 C   0  0  0  0  0  1  0  0  0  0  0  0
  192.0870  172.7910  136.5000 O   0  0  0  0  0  0  0  0  0  0  0  0
  190.5420  174.5990  137.6060 O   0  0  0  0  0  0  0  0  0  0  0  0
  191.5850  175.2070  137.9690 C   0  0  0  0  0  0  0  0  0  0  0  0
  193.0660  173.5350  136.7780 C   0  0  0  0  0  0  0  0  0  0  0  0
  192.8840  174.7370  137.5570 N   0  0  0  0  0  0  0  0  0  0  0  0
  191.4830  176.3790  138.7930 N   0  0  0  0  0  2  0  0  0  0  0  0
  194.4170  173.1510  136.2620 C   0  0  0  0  0  2  0  0  0  0  0  0
  194.9690  172.0180  137.0560 C   0  0  0  0  0  0  0  0  0  0  0  0
  195.1970  170.9120  136.5010 O   0  0  0  0  0  0  0  0  0  0  0  0
  195.2650  172.1910  138.4020 O   0  0  0  0  0  1  0  0  0  0  0  0
  1  9  2  0  0  0  0
  1 14  1  0  0  0  0
  2  3  1  0  0  0  0
  3  7  1  1  0  0  0
  3 19  1  0  0  0  0
  4 11  2  0  0  0  0
  5 14  1  0  0  0  0
  5  2  1  0  0  0  0
  6  1  1  0  0  0  0
  7  4  1  0  0  0  0
  8 13  1  0  0  0  0
 10 19  1  0  0  0  0
 11 15  1  0  0  0  0
 12 16  1  0  0  0  0
 12  8  2  0  0  0  0
 13  2  2  0  0  0  0
 13 18  1  0  0  0  0
 16  5  2  0  0  0  0
 17  6  1  0  0  0  0
 17 16  1  0  0  0  0
 18 10  2  0  0  0  0
 19 20  1  0  0  0  0
 20 15  1  0  0  0  0
 22 25  2  0  0  0  0
 23 24  2  0  0  0  0
 24 27  1  0  0  0  0
 25 26  1  0  0  0  0
 26 21  1  0  0  0  0
 26 24  1  0  0  0  0
 27  8  1  0  0  0  0
 28 25  1  0  0  0  0
 28 29  1  0  0  0  0
 29 31  1  0  0  0  0
 30 29  2  0  0  0  0
M  END
>  <MODEL>
1

>  <REMARK>
 VINA RESULT:      -9.1      0.000      0.000
  Name = 
  3 active torsions:
  status: ('A' for Active; 'I' for Inactive)
    1  A    between atoms: C_1  and  C_24
    2  A    between atoms: C_15  and  N_23
    3  A    between atoms: C_19  and  C_24
                            x       y       z     vdW  Elec       q    Type
                         _______ _______ _______ _____ _____    ______ ____

>  <TORSDO>
F 3

$$$$
=
 OpenBabel11052413123D

 31 34  0  0  1  0  0  0  0  0999 V2000
  186.8030  178.4510  137.6400 C   0  0  0  0  0  0  0  0  0  0  0  0
  185.4390  178.4030  141.0930 C   0  0  0  0  0  0  0  0  0  0  0  0
  183.9600  178.5300  140.8140 C   0  0  1  0  0  3  0  0  0  0  0  0
  182.1530  177.4410  139.4810 C   0  0  0  0  0  3  0  0  0  0  0  0
  186.3600  178.4270  140.0370 C   0  0  0  0  0  0  0  0  0  0  0  0
  188.1710  177.8840  137.8680 C   0  0  0  0  0  2  0  0  0  0  0  0
  183.4300  177.2190  140.2380 C   0  0  0  0  0  2  0  0  0  0  0  0
  187.2710  177.9930  142.6360 C   0  0  0  0  0  0  0  0  0  0  0  0
  186.4160  178.7100  136.4710 O   0  0  0  0  0  0  0  0  0  0  0  0
  183.6750  178.5510  143.3310 C   0  0  0  0  0  3  0  0  0  0  0  0
  181.0250  177.8880  140.0490 C   0  0  0  0  0  3  0  0  0  0  0  0
  188.1390  178.0330  141.5880 N   0  0  0  0  0  0  0  0  0  0  0  0
  185.8990  178.1870  142.4070 C   0  0  0  0  0  0  0  0  0  0  0  0
  185.9320  178.6270  138.7190 O   0  0  0  0  0  0  0  0  0  0  0  0
  180.9040  178.2170  141.5090 C   0  0  0  0  0  2  0  0  0  0  0  0
  187.7230  178.2340  140.3110 C   0  0  0  0  0  0  0  0  0  0  0  0
  188.7330  178.3600  139.2080 C   0  0  0  0  0  2  0  0  0  0  0  0
  184.9450  178.2100  143.5290 C   0  0  0  0  0  3  0  0  0  0  0  0
  183.2000  178.8880  142.0210 N   0  0  0  0  0  0  0  0  0  0  0  0
  181.8310  179.3650  141.8900 C   0  0  0  0  0  2  0  0  0  0  0  0
  188.3620  177.4420  146.7280 C   0  0  0  0  0  1  0  0  0  0  0  0
  191.7280  176.9590  145.3830 O   0  0  0  0  0  0  0  0  0  0  0  0
  190.0260  177.5830  143.4860 O   0  0  0  0  0  0  0  0  0  0  0  0
  189.1170  177.5780  144.3590 C   0  0  0  0  0  0  0  0  0  0  0  0
  190.7850  177.1150  146.2060 C   0  0  0  0  0  0  0  0  0  0  0  0
  189.4410  177.3790  145.7490 N   0  0  0  0  0  0  0  0  0  0  0  0
  187.7480  177.7770  143.9720 N   0  0  0  0  0  2  0  0  0  0  0  0
  191.1010  177.0420  147.6660 C   0  0  0  0  0  2  0  0  0  0  0  0
  192.1500  176.0140  147.9160 C   0  0  0  0  0  0  0  0  0  0  0  0
  192.0460  174.8700  147.4030 O   0  0  0  0  0  0  0  0  0  0  0  0
  193.2610  176.3290  148.6870 O   0  0  0  0  0  1  0  0  0  0  0  0
  1  6  1  0  0  0  0
  1 14  1  0  0  0  0
  2 13  2  0  0  0  0
  3  7  1  1  0  0  0
  3  2  1  0  0  0  0
  3 19  1  0  0  0  0
  4 11  2  0  0  0  0
  4  7  1  0  0  0  0
  5 16  2  0  0  0  0
  5  2  1  0  0  0  0
  6 17  1  0  0  0  0
  8 27  1  0  0  0  0
  9  1  2  0  0  0  0
 10 18  2  0  0  0  0
 11 15  1  0  0  0  0
 12  8  2  0  0  0  0
 13  8  1  0  0  0  0
 13 18  1  0  0  0  0
 14  5  1  0  0  0  0
 15 20  1  0  0  0  0
 16 12  1  0  0  0  0
 17 16  1  0  0  0  0
 19 10  1  0  0  0  0
 20 19  1  0  0  0  0
 22 25  2  0  0  0  0
 23 24  2  0  0  0  0
 24 26  1  0  0  0  0
 25 28  1  0  0  0  0
 26 25  1  0  0  0  0
 26 21  1  0  0  0  0
 27 24  1  0  0  0  0
 28 29  1  0  0  0  0
 29 31  1  0  0  0  0
 30 29  2  0  0  0  0
M  END
>  <MODEL>
2

>  <REMARK>
 VINA RESULT:      -7.7      4.734      7.430
  Name = 
  3 active torsions:
  status: ('A' for Active; 'I' for Inactive)
    1  A    between atoms: C_1  and  C_24
    2  A    between atoms: C_15  and  N_23
    3  A    between atoms: C_19  and  C_24
                            x       y       z     vdW  Elec       q    Type
                         _______ _______ _______ _____ _____    ______ ____

>  <TORSDO>
F 3

$$$$
=
 OpenBabel11052413123D

 31 34  0  0  1  0  0  0  0  0999 V2000
  186.1350  178.1760  146.4680 C   0  0  0  0  0  0  0  0  0  0  0  0
  186.5950  178.2950  142.7850 C   0  0  0  0  0  0  0  0  0  0  0  0
  188.0360  177.8610  142.6670 C   0  0  1  0  0  3  0  0  0  0  0  0
  189.5490  176.0030  143.3610 C   0  0  0  0  0  3  0  0  0  0  0  0
  186.0040  178.4370  144.0480 C   0  0  0  0  0  0  0  0  0  0  0  0
  184.6400  178.1570  146.5670 C   0  0  0  0  0  2  0  0  0  0  0  0
  188.1500  176.3670  142.9590 C   0  0  0  0  0  2  0  0  0  0  0  0
  184.4530  178.8160  141.7620 C   0  0  0  0  0  0  0  0  0  0  0  0
  186.8360  178.0720  147.5080 O   0  0  0  0  0  0  0  0  0  0  0  0
  187.7530  178.2410  140.1780 C   0  0  0  0  0  3  0  0  0  0  0  0
  190.6100  176.1360  142.5530 C   0  0  0  0  0  3  0  0  0  0  0  0
  183.9140  178.9580  143.0040 N   0  0  0  0  0  0  0  0  0  0  0  0
  185.8130  178.4890  141.6300 C   0  0  0  0  0  0  0  0  0  0  0  0
  186.7510  178.2380  145.2150 O   0  0  0  0  0  0  0  0  0  0  0  0
  190.5240  176.6640  141.1500 C   0  0  0  0  0  2  0  0  0  0  0  0
  184.6430  178.7710  144.1350 C   0  0  0  0  0  0  0  0  0  0  0  0
  184.0200  179.0290  145.4750 C   0  0  0  0  0  2  0  0  0  0  0  0
  186.4370  178.3910  140.3000 C   0  0  0  0  0  3  0  0  0  0  0  0
  188.5920  178.1530  141.3370 N   0  0  0  0  0  0  0  0  0  0  0  0
  190.0330  178.1060  141.1370 C   0  0  0  0  0  2  0  0  0  0  0  0
  182.0930  179.7810  138.3360 C   0  0  0  0  0  1  0  0  0  0  0  0
  181.5870  176.1670  138.1230 O   0  0  0  0  0  0  0  0  0  0  0  0
  182.9840  176.8070  140.2490 O   0  0  0  0  0  0  0  0  0  0  0  0
  182.9370  178.0080  139.8650 C   0  0  0  0  0  0  0  0  0  0  0  0
  181.4700  177.4010  137.8940 C   0  0  0  0  0  0  0  0  0  0  0  0
  182.1650  178.3720  138.7040 N   0  0  0  0  0  0  0  0  0  0  0  0
  183.6510  179.0210  140.5900 N   0  0  0  0  0  2  0  0  0  0  0  0
  180.5770  177.8320  136.7740 C   0  0  0  0  0  2  0  0  0  0  0  0
  181.1740  177.4520  135.4620 C   0  0  0  0  0  0  0  0  0  0  0  0
  182.2800  177.9370  135.1110 O   0  0  0  0  0  1  0  0  0  0  0  0
  180.5270  176.5360  134.6430 O   0  0  0  0  0  0  0  0  0  0  0  0
  1  6  1  0  0  0  0
  1  9  2  0  0  0  0
  2  5  1  0  0  0  0
  3  2  1  0  0  0  0
  3  7  1  6  0  0  0
  5 16  2  0  0  0  0
  5 14  1  0  0  0  0
  7  4  1  0  0  0  0
  8 12  2  0  0  0  0
 10 18  2  0  0  0  0
 10 19  1  0  0  0  0
 11  4  2  0  0  0  0
 12 16  1  0  0  0  0
 13  8  1  0  0  0  0
 13  2  2  0  0  0  0
 14  1  1  0  0  0  0
 15 11  1  0  0  0  0
 16 17  1  0  0  0  0
 17  6  1  0  0  0  0
 18 13  1  0  0  0  0
 19  3  1  0  0  0  0
 20 15  1  0  0  0  0
 20 19  1  0  0  0  0
 21 26  1  0  0  0  0
 24 23  2  0  0  0  0
 24 27  1  0  0  0  0
 25 22  2  0  0  0  0
 25 26  1  0  0  0  0
 26 24  1  0  0  0  0
 27  8  1  0  0  0  0
 28 25  1  0  0  0  0
 29 28  1  0  0  0  0
 30 29  1  0  0  0  0
 31 29  2  0  0  0  0
M  END
>  <MODEL>
3

>  <REMARK>
 VINA RESULT:      -7.7      5.289      8.542
  Name = 
  3 active torsions:
  status: ('A' for Active; 'I' for Inactive)
    1  A    between atoms: C_1  and  C_24
    2  A    between atoms: C_15  and  N_23
    3  A    between atoms: C_19  and  C_24
                            x       y       z     vdW  Elec       q    Type
                         _______ _______ _______ _____ _____    ______ ____

>  <TORSDO>
F 3

$$$$
=
 OpenBabel11052413123D

 31 34  0  0  1  0  0  0  0  0999 V2000
  184.8290  179.1050  142.6360 C   0  0  0  0  0  0  0  0  0  0  0  0
  188.2730  178.1810  141.6000 C   0  0  0  0  0  0  0  0  0  0  0  0
  188.9630  178.1160  142.9420 C   0  0  1  0  0  3  0  0  0  0  0  0
  188.7360  177.0210  145.1720 C   0  0  0  0  0  3  0  0  0  0  0  0
  186.9250  178.5540  141.5190 C   0  0  0  0  0  0  0  0  0  0  0  0
  184.0550  178.7350  141.4080 C   0  0  0  0  0  2  0  0  0  0  0  0
  188.5070  176.8700  143.6970 C   0  0  0  0  0  2  0  0  0  0  0  0
  188.2730  177.7880  139.2020 C   0  0  0  0  0  0  0  0  0  0  0  0
  184.2250  179.5140  143.6610 O   0  0  0  0  0  0  0  0  0  0  0  0
  191.0690  177.6120  141.6260 C   0  0  0  0  0  3  0  0  0  0  0  0
  189.9490  177.1630  145.7220 C   0  0  0  0  0  3  0  0  0  0  0  0
  186.9660  178.1680  139.1570 N   0  0  0  0  0  0  0  0  0  0  0  0
  188.9560  177.7960  140.4290 C   0  0  0  0  0  0  0  0  0  0  0  0
  186.2150  178.9280  142.6670 O   0  0  0  0  0  0  0  0  0  0  0  0
  191.2230  177.1840  144.9280 C   0  0  0  0  0  2  0  0  0  0  0  0
  186.2810  178.5370  140.2710 C   0  0  0  0  0  0  0  0  0  0  0  0
  184.8700  179.0320  140.1500 C   0  0  0  0  0  2  0  0  0  0  0  0
  190.3860  177.4510  140.4960 C   0  0  0  0  0  3  0  0  0  0  0  0
  190.4280  178.1100  142.8070 N   0  0  0  0  0  0  0  0  0  0  0  0
  191.2550  178.3740  143.9760 C   0  0  0  0  0  2  0  0  0  0  0  0
  190.2770  176.9810  135.5180 C   0  0  0  0  0  1  0  0  0  0  0  0
  190.2820  173.5220  136.7030 O   0  0  0  0  0  0  0  0  0  0  0  0
  188.9950  175.0940  138.3620 O   0  0  0  0  0  0  0  0  0  0  0  0
  189.3040  176.0630  137.6170 C   0  0  0  0  0  0  0  0  0  0  0  0
  190.4220  174.5230  135.9480 C   0  0  0  0  0  0  0  0  0  0  0  0
  189.9950  175.8350  136.3740 N   0  0  0  0  0  0  0  0  0  0  0  0
  188.9620  177.4030  138.0040 N   0  0  0  0  0  2  0  0  0  0  0  0
  191.0220  174.3110  134.5950 C   0  0  0  0  0  2  0  0  0  0  0  0
  192.4910  174.0910  134.7100 C   0  0  0  0  0  0  0  0  0  0  0  0
  192.9610  172.9260  134.6400 O   0  0  0  0  0  0  0  0  0  0  0  0
  193.3460  175.1750  134.8600 O   0  0  0  0  0  1  0  0  0  0  0  0
  1 14  1  0  0  0  0
  1  9  2  0  0  0  0
  2  3  1  0  0  0  0
  3  7  1  6  0  0  0
  4 11  2  0  0  0  0
  5  2  1  0  0  0  0
  5 14  1  0  0  0  0
  6  1  1  0  0  0  0
  7  4  1  0  0  0  0
  8 13  1  0  0  0  0
 10 19  1  0  0  0  0
 12  8  2  0  0  0  0
 12 16  1  0  0  0  0
 13 18  1  0  0  0  0
 13  2  2  0  0  0  0
 15 11  1  0  0  0  0
 16  5  2  0  0  0  0
 17 16  1  0  0  0  0
 17  6  1  0  0  0  0
 18 10  2  0  0  0  0
 19  3  1  0  0  0  0
 19 20  1  0  0  0  0
 20 15  1  0  0  0  0
 21 26  1  0  0  0  0
 24 27  1  0  0  0  0
 24 23  2  0  0  0  0
 25 26  1  0  0  0  0
 25 22  2  0  0  0  0
 26 24  1  0  0  0  0
 27  8  1  0  0  0  0
 28 29  1  0  0  0  0
 28 25  1  0  0  0  0
 29 31  1  0  0  0  0
 30 29  2  0  0  0  0
M  END
>  <MODEL>
4

>  <REMARK>
 VINA RESULT:      -7.5      2.147      2.688
  Name = 
  3 active torsions:
  status: ('A' for Active; 'I' for Inactive)
    1  A    between atoms: C_1  and  C_24
    2  A    between atoms: C_15  and  N_23
    3  A    between atoms: C_19  and  C_24
                            x       y       z     vdW  Elec       q    Type
                         _______ _______ _______ _____ _____    ______ ____

>  <TORSDO>
F 3

$$$$
=
 OpenBabel11052413123D

 31 34  0  0  1  0  0  0  0  0999 V2000
  188.6710  177.8670  147.6230 C   0  0  0  0  0  0  0  0  0  0  0  0
  187.9880  177.9870  143.9750 C   0  0  0  0  0  0  0  0  0  0  0  0
  189.3740  177.7560  143.4220 C   0  0  1  0  0  3  0  0  0  0  0  0
  191.2680  176.1400  143.5850 C   0  0  0  0  0  3  0  0  0  0  0  0
  187.7870  178.0660  145.3600 C   0  0  0  0  0  0  0  0  0  0  0  0
  187.2920  177.6410  148.1630 C   0  0  0  0  0  2  0  0  0  0  0  0
  189.7760  176.2990  143.6280 C   0  0  0  0  0  2  0  0  0  0  0  0
  185.5880  178.1850  143.6510 C   0  0  0  0  0  0  0  0  0  0  0  0
  189.6570  177.8800  148.4040 O   0  0  0  0  0  0  0  0  0  0  0  0
  188.3100  178.0500  141.1410 C   0  0  0  0  0  3  0  0  0  0  0  0
  192.0100  176.4070  142.5020 C   0  0  0  0  0  3  0  0  0  0  0  0
  185.4300  178.2710  145.0010 N   0  0  0  0  0  0  0  0  0  0  0  0
  186.8780  178.0500  143.1110 C   0  0  0  0  0  0  0  0  0  0  0  0
  188.8700  177.9940  146.2460 O   0  0  0  0  0  0  0  0  0  0  0  0
  191.4360  176.8930  141.2020 C   0  0  0  0  0  2  0  0  0  0  0  0
  186.4820  178.2080  145.8580 C   0  0  0  0  0  0  0  0  0  0  0  0
  186.2590  178.3990  147.3290 C   0  0  0  0  0  2  0  0  0  0  0  0
  187.0830  178.0170  141.6530 C   0  0  0  0  0  3  0  0  0  0  0  0
  189.4610  178.1010  141.9940 N   0  0  0  0  0  0  0  0  0  0  0  0
  190.7680  178.2530  141.3730 C   0  0  0  0  0  2  0  0  0  0  0  0
  182.4320  178.3190  140.7780 C   0  0  0  0  0  1  0  0  0  0  0  0
  180.4090  179.4710  143.5970 O   0  0  0  0  0  0  0  0  0  0  0  0
  182.9200  179.1620  144.2920 O   0  0  0  0  0  0  0  0  0  0  0  0
  183.1470  178.7440  143.1240 C   0  0  0  0  0  0  0  0  0  0  0  0
  180.7540  179.1780  142.4210 C   0  0  0  0  0  0  0  0  0  0  0  0
  182.1040  178.7570  142.1290 N   0  0  0  0  0  0  0  0  0  0  0  0
  184.4520  178.2560  142.7770 N   0  0  0  0  0  2  0  0  0  0  0  0
  179.7350  179.2980  141.3330 C   0  0  0  0  0  2  0  0  0  0  0  0
  179.6770  180.7010  140.8330 C   0  0  0  0  0  0  0  0  0  0  0  0
  178.9730  181.5540  141.4320 O   0  0  0  0  0  1  0  0  0  0  0  0
  180.4270  181.0750  139.7250 O   0  0  0  0  0  0  0  0  0  0  0  0
  1  6  1  0  0  0  0
  1  9  2  0  0  0  0
  2  5  1  0  0  0  0
  3  7  1  6  0  0  0
  3  2  1  0  0  0  0
  4  7  1  0  0  0  0
  5 16  2  0  0  0  0
  5 14  1  0  0  0  0
  8 12  2  0  0  0  0
 10 18  2  0  0  0  0
 10 19  1  0  0  0  0
 11  4  2  0  0  0  0
 12 16  1  0  0  0  0
 13  8  1  0  0  0  0
 13  2  2  0  0  0  0
 14  1  1  0  0  0  0
 15 20  1  0  0  0  0
 15 11  1  0  0  0  0
 16 17  1  0  0  0  0
 17  6  1  0  0  0  0
 18 13  1  0  0  0  0
 19  3  1  0  0  0  0
 20 19  1  0  0  0  0
 21 26  1  0  0  0  0
 24 23  2  0  0  0  0
 25 22  2  0  0  0  0
 26 25  1  0  0  0  0
 26 24  1  0  0  0  0
 27 24  1  0  0  0  0
 27  8  1  0  0  0  0
 28 25  1  0  0  0  0
 29 28  1  0  0  0  0
 29 30  1  0  0  0  0
 31 29  2  0  0  0  0
M  END
>  <MODEL>
5

>  <REMARK>
 VINA RESULT:      -7.5      5.360      9.970
  Name = 
  3 active torsions:
  status: ('A' for Active; 'I' for Inactive)
    1  A    between atoms: C_1  and  C_24
    2  A    between atoms: C_15  and  N_23
    3  A    between atoms: C_19  and  C_24
                            x       y       z     vdW  Elec       q    Type
                         _______ _______ _______ _____ _____    ______ ____

>  <TORSDO>
F 3

$$$$
=
 OpenBabel11052413123D

 31 34  0  0  1  0  0  0  0  0999 V2000
  190.5080  177.4720  139.5150 C   0  0  0  0  0  0  0  0  0  0  0  0
  188.3690  177.6150  142.5470 C   0  0  0  0  0  0  0  0  0  0  0  0
  189.3880  177.3340  143.6250 C   0  0  1  0  0  3  0  0  0  0  0  0
  191.5910  178.1630  144.4530 C   0  0  0  0  0  3  0  0  0  0  0  0
  188.7500  177.6090  141.1980 C   0  0  0  0  0  0  0  0  0  0  0  0
  189.6380  178.1770  138.5200 C   0  0  0  0  0  2  0  0  0  0  0  0
  190.2920  178.5500  143.8090 C   0  0  0  0  0  2  0  0  0  0  0  0
  186.1330  178.2910  141.8760 C   0  0  0  0  0  0  0  0  0  0  0  0
  191.6660  177.1040  139.1890 O   0  0  0  0  0  0  0  0  0  0  0  0
  187.4380  177.4480  145.2390 C   0  0  0  0  0  3  0  0  0  0  0  0
  191.6800  177.6510  145.6880 C   0  0  0  0  0  3  0  0  0  0  0  0
  186.5340  178.2640  140.5750 N   0  0  0  0  0  0  0  0  0  0  0  0
  187.0460  177.9570  142.8900 C   0  0  0  0  0  0  0  0  0  0  0  0
  190.0600  177.2860  140.8260 O   0  0  0  0  0  0  0  0  0  0  0  0
  190.4930  177.4070  146.5740 C   0  0  0  0  0  2  0  0  0  0  0  0
  187.8040  177.9440  140.2160 C   0  0  0  0  0  0  0  0  0  0  0  0
  188.1660  177.8420  138.7640 C   0  0  0  0  0  2  0  0  0  0  0  0
  186.6220  177.9170  144.3000 C   0  0  0  0  0  3  0  0  0  0  0  0
  188.7530  176.9860  144.9050 N   0  0  0  0  0  0  0  0  0  0  0  0
  189.5540  176.3770  145.9580 C   0  0  0  0  0  2  0  0  0  0  0  0
  182.2320  179.3890  143.2220 C   0  0  0  0  0  1  0  0  0  0  0  0
  181.1630  178.2000  139.9340 O   0  0  0  0  0  0  0  0  0  0  0  0
  183.7330  177.8190  140.2940 O   0  0  0  0  0  0  0  0  0  0  0  0
  183.6180  178.3880  141.4130 C   0  0  0  0  0  0  0  0  0  0  0  0
  181.1150  178.6260  141.1200 C   0  0  0  0  0  0  0  0  0  0  0  0
  182.3210  178.7890  141.8960 N   0  0  0  0  0  0  0  0  0  0  0  0
  184.7820  178.6350  142.2160 N   0  0  0  0  0  2  0  0  0  0  0  0
  179.7740  178.9370  141.7060 C   0  0  0  0  0  2  0  0  0  0  0  0
  179.3540  180.3160  141.3320 C   0  0  0  0  0  0  0  0  0  0  0  0
  179.3760  181.2350  142.1900 O   0  0  0  0  0  1  0  0  0  0  0  0
  178.9730  180.5960  140.0260 O   0  0  0  0  0  0  0  0  0  0  0  0
  1 14  1  0  0  0  0
  2 13  2  0  0  0  0
  2  3  1  0  0  0  0
  3  7  1  1  0  0  0
  3 19  1  0  0  0  0
  4 11  2  0  0  0  0
  5  2  1  0  0  0  0
  6 17  1  0  0  0  0
  6  1  1  0  0  0  0
  7  4  1  0  0  0  0
  8 27  1  0  0  0  0
  8 13  1  0  0  0  0
  9  1  2  0  0  0  0
 11 15  1  0  0  0  0
 12  8  2  0  0  0  0
 13 18  1  0  0  0  0
 14  5  1  0  0  0  0
 16 12  1  0  0  0  0
 16  5  2  0  0  0  0
 17 16  1  0  0  0  0
 18 10  2  0  0  0  0
 19 10  1  0  0  0  0
 19 20  1  0  0  0  0
 20 15  1  0  0  0  0
 22 25  2  0  0  0  0
 23 24  2  0  0  0  0
 24 26  1  0  0  0  0
 24 27  1  0  0  0  0
 25 28  1  0  0  0  0
 25 26  1  0  0  0  0
 26 21  1  0  0  0  0
 29 28  1  0  0  0  0
 29 30  1  0  0  0  0
 31 29  2  0  0  0  0
M  END
>  <MODEL>
6

>  <REMARK>
 VINA RESULT:      -7.4      3.776      8.995
  Name = 
  3 active torsions:
  status: ('A' for Active; 'I' for Inactive)
    1  A    between atoms: C_1  and  C_24
    2  A    between atoms: C_15  and  N_23
    3  A    between atoms: C_19  and  C_24
                            x       y       z     vdW  Elec       q    Type
                         _______ _______ _______ _____ _____    ______ ____

>  <TORSDO>
F 3

$$$$
=
 OpenBabel11052413123D

 31 34  0  0  1  0  0  0  0  0999 V2000
  192.8860  174.9660  135.8000 C   0  0  0  0  0  0  0  0  0  0  0  0
  190.3400  176.8780  137.7090 C   0  0  0  0  0  0  0  0  0  0  0  0
  189.1960  176.8880  136.7220 C   0  0  1  0  0  3  0  0  0  0  0  0
  187.8150  175.3170  135.3620 C   0  0  0  0  0  3  0  0  0  0  0  0
  191.5600  176.2810  137.3660 C   0  0  0  0  0  0  0  0  0  0  0  0
  193.8230  174.5650  136.8980 C   0  0  0  0  0  2  0  0  0  0  0  0
  188.5690  175.4990  136.6470 C   0  0  0  0  0  2  0  0  0  0  0  0
  191.2160  177.3120  139.9330 C   0  0  0  0  0  0  0  0  0  0  0  0
  193.0800  174.5540  134.6270 O   0  0  0  0  0  0  0  0  0  0  0  0
  187.9750  178.3010  138.4340 C   0  0  0  0  0  3  0  0  0  0  0  0
  186.7430  176.0470  135.0230 C   0  0  0  0  0  3  0  0  0  0  0  0
  192.3930  176.7360  139.5630 N   0  0  0  0  0  0  0  0  0  0  0  0
  190.1660  177.4020  139.0050 C   0  0  0  0  0  0  0  0  0  0  0  0
  191.7590  175.7400  136.0900 O   0  0  0  0  0  0  0  0  0  0  0  0
  186.1680  177.1290  135.8910 C   0  0  0  0  0  2  0  0  0  0  0  0
  192.5860  176.2170  138.3230 C   0  0  0  0  0  0  0  0  0  0  0  0
  193.9330  175.6770  137.9420 C   0  0  0  0  0  2  0  0  0  0  0  0
  188.9050  178.0760  139.3580 C   0  0  0  0  0  3  0  0  0  0  0  0
  188.1710  177.8800  137.0780 N   0  0  0  0  0  0  0  0  0  0  0  0
  187.1700  178.2590  136.0920 C   0  0  0  0  0  2  0  0  0  0  0  0
  190.9780  179.1480  143.7820 C   0  0  0  0  0  1  0  0  0  0  0  0
  188.6980  176.3940  144.5480 O   0  0  0  0  0  0  0  0  0  0  0  0
  189.6990  176.1570  142.1350 O   0  0  0  0  0  0  0  0  0  0  0  0
  190.2930  177.2530  142.3200 C   0  0  0  0  0  0  0  0  0  0  0  0
  189.4370  177.4040  144.6970 C   0  0  0  0  0  0  0  0  0  0  0  0
  190.2240  177.9130  143.5990 N   0  0  0  0  0  0  0  0  0  0  0  0
  191.0490  177.8480  141.2540 N   0  0  0  0  0  2  0  0  0  0  0  0
  189.4930  178.0480  146.0460 C   0  0  0  0  0  2  0  0  0  0  0  0
  189.5590  177.0080  147.1120 C   0  0  0  0  0  0  0  0  0  0  0  0
  190.6280  176.3750  147.3080 O   0  0  0  0  0  0  0  0  0  0  0  0
  188.4500  176.7620  147.9120 O   0  0  0  0  0  1  0  0  0  0  0  0
  1 14  1  0  0  0  0
  1  6  1  0  0  0  0
  2 13  2  0  0  0  0
  3  7  1  1  0  0  0
  3 19  1  0  0  0  0
  3  2  1  0  0  0  0
  4  7  1  0  0  0  0
  5  2  1  0  0  0  0
  5 16  2  0  0  0  0
  6 17  1  0  0  0  0
  8 27  1  0  0  0  0
  9  1  2  0  0  0  0
 10 18  2  0  0  0  0
 11  4  2  0  0  0  0
 11 15  1  0  0  0  0
 12  8  2  0  0  0  0
 13 18  1  0  0  0  0
 13  8  1  0  0  0  0
 14  5  1  0  0  0  0
 15 20  1  0  0  0  0
 16 12  1  0  0  0  0
 17 16  1  0  0  0  0
 19 10  1  0  0  0  0
 20 19  1  0  0  0  0
 22 25  2  0  0  0  0
 23 24  2  0  0  0  0
 24 26  1  0  0  0  0
 25 28  1  0  0  0  0
 26 21  1  0  0  0  0
 26 25  1  0  0  0  0
 27 24  1  0  0  0  0
 28 29  1  0  0  0  0
 29 30  2  0  0  0  0
 29 31  1  0  0  0  0
M  END
>  <MODEL>
7

>  <REMARK>
 VINA RESULT:      -7.4      2.936      8.039
  Name = 
  3 active torsions:
  status: ('A' for Active; 'I' for Inactive)
    1  A    between atoms: C_1  and  C_24
    2  A    between atoms: C_15  and  N_23
    3  A    between atoms: C_19  and  C_24
                            x       y       z     vdW  Elec       q    Type
                         _______ _______ _______ _____ _____    ______ ____

>  <TORSDO>
F 3

$$$$
=
 OpenBabel11052413123D

 31 34  0  0  1  0  0  0  0  0999 V2000
  190.7240  176.6080  138.6300 C   0  0  0  0  0  0  0  0  0  0  0  0
  187.8980  177.7250  140.7640 C   0  0  0  0  0  0  0  0  0  0  0  0
  188.4660  177.4680  142.1400 C   0  0  1  0  0  3  0  0  0  0  0  0
  190.4660  178.0100  143.5290 C   0  0  0  0  0  3  0  0  0  0  0  0
  188.6400  177.3910  139.6230 C   0  0  0  0  0  0  0  0  0  0  0  0
  190.3720  177.2610  137.3280 C   0  0  0  0  0  2  0  0  0  0  0  0
  189.5400  178.5050  142.4560 C   0  0  0  0  0  2  0  0  0  0  0  0
  186.1800  178.6690  139.3290 C   0  0  0  0  0  0  0  0  0  0  0  0
  191.8050  175.9740  138.7430 O   0  0  0  0  0  0  0  0  0  0  0  0
  186.2190  178.2510  143.0100 C   0  0  0  0  0  3  0  0  0  0  0  0
  190.0710  177.7350  144.7790 C   0  0  0  0  0  3  0  0  0  0  0  0
  186.9210  178.3200  138.2410 N   0  0  0  0  0  0  0  0  0  0  0  0
  186.6540  178.3680  140.6160 C   0  0  0  0  0  0  0  0  0  0  0  0
  189.8860  176.7620  139.7380 O   0  0  0  0  0  0  0  0  0  0  0  0
  188.6550  177.8910  145.2550 C   0  0  0  0  0  2  0  0  0  0  0  0
  188.1270  177.7040  138.3540 C   0  0  0  0  0  0  0  0  0  0  0  0
  188.8570  177.2610  137.1210 C   0  0  0  0  0  2  0  0  0  0  0  0
  185.8450  178.6780  141.8070 C   0  0  0  0  0  3  0  0  0  0  0  0
  187.4240  177.4950  143.1780 N   0  0  0  0  0  0  0  0  0  0  0  0
  187.7170  176.9580  144.4990 C   0  0  0  0  0  2  0  0  0  0  0  0
  182.5790  180.9200  138.8750 C   0  0  0  0  0  1  0  0  0  0  0  0
  180.9470  177.6540  139.0800 O   0  0  0  0  0  0  0  0  0  0  0  0
  183.5390  177.4450  139.4250 O   0  0  0  0  0  0  0  0  0  0  0  0
  183.6230  178.6870  139.2220 C   0  0  0  0  0  0  0  0  0  0  0  0
  181.1080  178.9040  139.0300 C   0  0  0  0  0  0  0  0  0  0  0  0
  182.4320  179.4790  139.0470 N   0  0  0  0  0  0  0  0  0  0  0  0
  184.9110  179.3190  139.1690 N   0  0  0  0  0  2  0  0  0  0  0  0
  179.8930  179.7730  138.9750 C   0  0  0  0  0  2  0  0  0  0  0  0
  179.4500  180.1300  140.3530 C   0  0  0  0  0  0  0  0  0  0  0  0
  178.9310  179.2560  141.0930 O   0  0  0  0  0  1  0  0  0  0  0  0
  179.6430  181.4190  140.8320 O   0  0  0  0  0  0  0  0  0  0  0  0
  1  9  2  0  0  0  0
  1 14  1  0  0  0  0
  2  3  1  0  0  0  0
  3  7  1  1  0  0  0
  3 19  1  0  0  0  0
  4 11  2  0  0  0  0
  5 14  1  0  0  0  0
  5  2  1  0  0  0  0
  6  1  1  0  0  0  0
  7  4  1  0  0  0  0
  8 13  1  0  0  0  0
 10 19  1  0  0  0  0
 11 15  1  0  0  0  0
 12 16  1  0  0  0  0
 12  8  2  0  0  0  0
 13  2  2  0  0  0  0
 13 18  1  0  0  0  0
 16  5  2  0  0  0  0
 17  6  1  0  0  0  0
 17 16  1  0  0  0  0
 18 10  2  0  0  0  0
 19 20  1  0  0  0  0
 20 15  1  0  0  0  0
 21 26  1  0  0  0  0
 24 23  2  0  0  0  0
 25 26  1  0  0  0  0
 25 22  2  0  0  0  0
 26 24  1  0  0  0  0
 27 24  1  0  0  0  0
 27  8  1  0  0  0  0
 28 25  1  0  0  0  0
 28 29  1  0  0  0  0
 29 31  2  0  0  0  0
 29 30  1  0  0  0  0
M  END
>  <MODEL>
8

>  <REMARK>
 VINA RESULT:      -7.3      3.248      8.739
  Name = 
  3 active torsions:
  status: ('A' for Active; 'I' for Inactive)
    1  A    between atoms: C_1  and  C_24
    2  A    between atoms: C_15  and  N_23
    3  A    between atoms: C_19  and  C_24
                            x       y       z     vdW  Elec       q    Type
                         _______ _______ _______ _____ _____    ______ ____

>  <TORSDO>
F 3

$$$$
=
 OpenBabel11052413123D

 31 34  0  0  1  0  0  0  0  0999 V2000
  186.4150  178.1820  146.7010 C   0  0  0  0  0  0  0  0  0  0  0  0
  186.6420  178.2660  142.9960 C   0  0  0  0  0  0  0  0  0  0  0  0
  188.0870  177.8790  142.7940 C   0  0  1  0  0  3  0  0  0  0  0  0
  189.7040  176.0840  143.4140 C   0  0  0  0  0  3  0  0  0  0  0  0
  186.1250  178.4050  144.2910 C   0  0  0  0  0  0  0  0  0  0  0  0
  184.9300  178.1140  146.8940 C   0  0  0  0  0  2  0  0  0  0  0  0
  188.2710  176.3950  143.0960 C   0  0  0  0  0  2  0  0  0  0  0  0
  184.4240  178.6990  142.1020 C   0  0  0  0  0  0  0  0  0  0  0  0
  187.1810  178.1170  147.6970 O   0  0  0  0  0  0  0  0  0  0  0  0
  187.6370  178.2140  140.3230 C   0  0  0  0  0  3  0  0  0  0  0  0
  190.7080  176.2420  142.5400 C   0  0  0  0  0  3  0  0  0  0  0  0
  183.9580  178.8400  143.3740 N   0  0  0  0  0  0  0  0  0  0  0  0
  185.7830  178.4170  141.8890 C   0  0  0  0  0  0  0  0  0  0  0  0
  186.9500  178.2480  145.4120 O   0  0  0  0  0  0  0  0  0  0  0  0
  190.5160  176.7460  141.1390 C   0  0  0  0  0  2  0  0  0  0  0  0
  184.7610  178.6940  144.4590 C   0  0  0  0  0  0  0  0  0  0  0  0
  184.2130  178.9490  145.8320 C   0  0  0  0  0  2  0  0  0  0  0  0
  186.3270  178.3220  140.5240 C   0  0  0  0  0  3  0  0  0  0  0  0
  188.5490  178.1720  141.4280 N   0  0  0  0  0  0  0  0  0  0  0  0
  189.9760  178.1710  141.1400 C   0  0  0  0  0  2  0  0  0  0  0  0
  182.1000  179.2270  138.5590 C   0  0  0  0  0  1  0  0  0  0  0  0
  179.2530  179.1150  140.8510 O   0  0  0  0  0  0  0  0  0  0  0  0
  181.5270  179.0000  142.1530 O   0  0  0  0  0  0  0  0  0  0  0  0
  182.1170  179.0070  141.0380 C   0  0  0  0  0  0  0  0  0  0  0  0
  179.9260  179.2600  139.7950 C   0  0  0  0  0  0  0  0  0  0  0  0
  181.3670  179.1660  139.8180 N   0  0  0  0  0  0  0  0  0  0  0  0
  183.5440  178.8600  140.9800 N   0  0  0  0  0  2  0  0  0  0  0  0
  179.1950  179.5530  138.5230 C   0  0  0  0  0  2  0  0  0  0  0  0
  179.1620  181.0210  138.2730 C   0  0  0  0  0  0  0  0  0  0  0  0
  178.9330  181.4580  137.1160 O   0  0  0  0  0  0  0  0  0  0  0  0
  179.3480  181.9090  139.3250 O   0  0  0  0  0  1  0  0  0  0  0  0
  1  6  1  0  0  0  0
  1  9  2  0  0  0  0
  2  5  1  0  0  0  0
  3  2  1  0  0  0  0
  3  7  1  6  0  0  0
  5 16  2  0  0  0  0
  5 14  1  0  0  0  0
  7  4  1  0  0  0  0
  8 12  2  0  0  0  0
 10 18  2  0  0  0  0
 10 19  1  0  0  0  0
 11  4  2  0  0  0  0
 12 16  1  0  0  0  0
 13  8  1  0  0  0  0
 13  2  2  0  0  0  0
 14  1  1  0  0  0  0
 15 20  1  0  0  0  0
 15 11  1  0  0  0  0
 16 17  1  0  0  0  0
 17  6  1  0  0  0  0
 18 13  1  0  0  0  0
 19  3  1  0  0  0  0
 20 19  1  0  0  0  0
 21 26  1  0  0  0  0
 24 23  2  0  0  0  0
 25 26  1  0  0  0  0
 25 22  2  0  0  0  0
 26 24  1  0  0  0  0
 27 24  1  0  0  0  0
 27  8  1  0  0  0  0
 28 25  1  0  0  0  0
 29 28  1  0  0  0  0
 29 31  1  0  0  0  0
 30 29  2  0  0  0  0
M  END
>  <MODEL>
9

>  <REMARK>
 VINA RESULT:      -7.3      5.461      9.823
  Name = 
  3 active torsions:
  status: ('A' for Active; 'I' for Inactive)
    1  A    between atoms: C_1  and  C_24
    2  A    between atoms: C_15  and  N_23
    3  A    between atoms: C_19  and  C_24
                            x       y       z     vdW  Elec       q    Type
                         _______ _______ _______ _____ _____    ______ ____

>  <TORSDO>
F 3

$$$$
