=
 OpenBabel11052415193D

 37 42  0  0  1  0  0  0  0  0999 V2000
  184.2720  176.4050  136.3270 C   0  0  1  0  0  0  0  0  0  0  0  0
  182.8350  178.9740  139.1570 C   0  0  0  0  0  0  0  0  0  0  0  0
  186.4760  178.5780  138.9720 C   0  0  0  0  0  0  0  0  0  0  0  0
  183.8110  174.9460  136.2120 C   0  0  1  0  0  3  0  0  0  0  0  0
  184.5940  178.6740  141.0270 C   0  0  0  0  0  3  0  0  0  0  0  0
  187.2020  178.1260  137.8610 C   0  0  0  0  0  0  0  0  0  0  0  0
  185.7660  173.8190  137.1110 C   0  0  0  0  0  0  0  0  0  0  0  0
  185.2510  179.1790  138.7710 C   0  0  0  0  0  3  0  0  0  0  0  0
  188.4990  177.5890  138.0760 C   0  0  0  0  0  0  0  0  0  0  0  0
  186.2470  177.8970  142.5660 F   0  0  0  0  0  0  0  0  0  0  0  0
  184.4210  174.1610  137.2270 O   0  0  0  0  0  0  0  0  0  0  0  0
  183.4840  177.3070  137.1910 C   0  0  0  0  0  0  0  0  0  0  0  0
  182.3400  180.3150  138.6490 C   0  0  0  0  0  1  0  0  0  0  0  0
  188.0640  177.6110  140.4550 N   0  0  0  0  0  0  0  0  0  0  0  0
  185.9230  178.3090  141.3150 C   0  0  0  0  0  0  0  0  0  0  0  0
  182.9840  178.0320  138.0210 C   0  0  0  0  0  0  0  0  0  0  0  0
  186.5000  174.1510  135.8550 C   0  0  0  0  0  2  0  0  0  0  0  0
  186.4780  178.0660  136.5170 C   0  0  0  0  0  2  0  0  0  0  0  0
  186.8540  178.1960  140.2660 C   0  0  0  0  0  0  0  0  0  0  0  0
  185.8100  176.7010  136.2040 C   0  0  1  0  0  0  0  0  0  0  0  0
  184.2430  179.1150  139.7340 C   0  0  0  0  0  0  0  0  0  0  0  0
  181.8340  178.4150  140.1560 C   0  0  0  0  0  1  0  0  0  0  0  0
  186.8360  175.6390  135.7390 C   0  0  0  0  0  2  0  0  0  0  0  0
  186.3540  173.2230  138.0500 O   0  0  0  0  0  0  0  0  0  0  0  0
  184.8300  176.9810  135.0560 C   0  0  0  0  0  2  0  0  0  0  0  0
  188.8920  177.3420  139.4080 C   0  0  0  0  0  3  0  0  0  0  0  0
  189.3800  177.9780  135.8930 O   0  0  0  0  0  0  0  0  0  0  0  0
  189.4420  177.2910  136.9510 C   0  0  0  0  0  0  0  0  0  0  0  0
  190.1510  174.8040  136.8670 C   0  0  0  0  0  3  0  0  0  0  0  0
  190.4860  176.2370  137.0260 C   0  0  0  0  0  0  0  0  0  0  0  0
  191.7460  176.5940  137.3080 C   0  0  0  0  0  3  0  0  0  0  0  0
  193.9880  175.9600  137.6880 O   0  0  0  0  0  0  0  0  0  0  0  0
  192.5170  174.1230  137.2720 C   0  0  0  0  0  2  0  0  0  0  0  0
  192.8120  175.5890  137.4330 C   0  0  0  0  0  0  0  0  0  0  0  0
  191.0700  173.8400  136.9760 C   0  0  0  0  0  3  0  0  0  0  0  0
  181.8480  174.3940  137.4700 F   0  0  0  0  0  0  0  0  0  0  0  0
  182.2960  174.7620  136.2140 C   0  0  0  0  0  2  0  0  0  0  0  0
  1 25  1  6  0  0  0
  1 12  1  0  0  0  0
  2 21  1  0  0  0  0
  2 22  1  0  0  0  0
  3 19  1  0  0  0  0
  4 37  1  1  0  0  0
  4  1  1  0  0  0  0
  4 11  1  0  0  0  0
  5 15  1  0  0  0  0
  6  9  2  0  0  0  0
  6  3  1  0  0  0  0
  7 11  1  0  0  0  0
  7 24  2  0  0  0  0
  8  3  2  0  0  0  0
  8 21  1  0  0  0  0
  9 26  1  0  0  0  0
 12 16  3  0  0  0  0
 13  2  1  0  0  0  0
 15 10  1  0  0  0  0
 16  2  1  0  0  0  0
 17  7  1  0  0  0  0
 18  6  1  0  0  0  0
 19 14  1  0  0  0  0
 19 15  2  0  0  0  0
 20 25  1  6  0  0  0
 20  1  1  0  0  0  0
 20 18  1  0  0  0  0
 21  5  2  0  0  0  0
 23 17  1  0  0  0  0
 23 20  1  0  0  0  0
 26 14  2  0  0  0  0
 27 28  2  0  0  0  0
 28 30  1  0  0  0  0
 28  9  1  0  0  0  0
 29 35  2  0  0  0  0
 29 30  1  0  0  0  0
 30 31  2  0  0  0  0
 31 34  1  0  0  0  0
 33 34  1  0  0  0  0
 34 32  2  0  0  0  0
 35 33  1  0  0  0  0
 37 36  1  0  0  0  0
M  END
>  <MODEL>
1

>  <REMARK>
 VINA RESULT:      -6.5      0.000      0.000
  Name = 
  3 active torsions:
  status: ('A' for Active; 'I' for Inactive)
    1  A    between atoms: C_5  and  C_23
    2  A    between atoms: C_6  and  C_31
    3  A    between atoms: C_14  and  C_31
                            x       y       z     vdW  Elec       q    Type
                         _______ _______ _______ _____ _____    ______ ____

>  <TORSDO>
F 3

$$$$
=
 OpenBabel11052415193D

 37 42  0  0  1  0  0  0  0  0999 V2000
  180.4290  178.1010  138.3430 C   0  0  1  0  0  0  0  0  0  0  0  0
  182.9100  175.8240  136.0340 C   0  0  0  0  0  0  0  0  0  0  0  0
  184.3060  177.1580  139.1510 C   0  0  0  0  0  0  0  0  0  0  0  0
  179.6810  179.3290  137.8060 C   0  0  1  0  0  3  0  0  0  0  0  0
  185.1900  176.9430  136.5150 C   0  0  0  0  0  3  0  0  0  0  0  0
  183.5740  177.5720  140.2730 C   0  0  0  0  0  0  0  0  0  0  0  0
  180.9890  181.0970  138.8360 C   0  0  0  0  0  0  0  0  0  0  0  0
  183.7580  176.2190  138.3040 C   0  0  0  0  0  3  0  0  0  0  0  0
  184.1870  178.4740  141.1830 C   0  0  0  0  0  0  0  0  0  0  0  0
  186.9990  178.4210  137.0100 F   0  0  0  0  0  0  0  0  0  0  0  0
  180.5720  180.4280  137.6880 O   0  0  0  0  0  0  0  0  0  0  0  0
  181.0610  177.1990  137.3600 C   0  0  0  0  0  0  0  0  0  0  0  0
  182.6630  174.3270  136.0670 C   0  0  0  0  0  1  0  0  0  0  0  0
  185.9830  178.7870  139.5930 N   0  0  0  0  0  0  0  0  0  0  0  0
  185.9290  177.7060  137.4380 C   0  0  0  0  0  0  0  0  0  0  0  0
  181.7450  176.5370  136.6120 C   0  0  0  0  0  0  0  0  0  0  0  0
  180.3770  180.7460  140.1510 C   0  0  0  0  0  2  0  0  0  0  0  0
  182.1010  177.1740  140.3450 C   0  0  0  0  0  2  0  0  0  0  0  0
  185.4460  177.8680  138.7500 C   0  0  0  0  0  0  0  0  0  0  0  0
  181.1210  178.2200  139.7490 C   0  0  1  0  0  0  0  0  0  0  0  0
  184.0810  176.1860  136.9470 C   0  0  0  0  0  0  0  0  0  0  0  0
  183.1170  176.2670  134.5940 C   0  0  0  0  0  1  0  0  0  0  0  0
  180.8830  179.4130  140.7050 C   0  0  0  0  0  2  0  0  0  0  0  0
  181.8640  181.9990  138.7650 O   0  0  0  0  0  0  0  0  0  0  0  0
  179.7970  177.4690  139.5510 C   0  0  0  0  0  2  0  0  0  0  0  0
  185.4060  179.0670  140.7940 C   0  0  0  0  0  3  0  0  0  0  0  0
  182.4130  179.2540  142.5740 O   0  0  0  0  0  0  0  0  0  0  0  0
  183.5900  178.7990  142.5170 C   0  0  0  0  0  0  0  0  0  0  0  0
  183.6830  178.9180  145.1010 C   0  0  0  0  0  3  0  0  0  0  0  0
  184.3050  178.5790  143.8010 C   0  0  0  0  0  0  0  0  0  0  0  0
  185.5640  178.1230  143.7690 C   0  0  0  0  0  3  0  0  0  0  0  0
  187.5100  177.4830  144.9420 O   0  0  0  0  0  0  0  0  0  0  0  0
  185.7370  178.2500  146.3500 C   0  0  0  0  0  2  0  0  0  0  0  0
  186.3330  177.9240  145.0080 C   0  0  0  0  0  0  0  0  0  0  0  0
  184.3280  178.7700  146.2610 C   0  0  0  0  0  3  0  0  0  0  0  0
  179.5890  179.6870  135.4390 F   0  0  0  0  0  0  0  0  0  0  0  0
  178.9320  179.0870  136.4990 C   0  0  0  0  0  2  0  0  0  0  0  0
  1 12  1  6  0  0  0
  1 25  1  0  0  0  0
  1 20  1  0  0  0  0
  2 13  1  0  0  0  0
  2 16  1  0  0  0  0
  2 21  1  0  0  0  0
  3  6  1  0  0  0  0
  4 37  1  6  0  0  0
  4  1  1  0  0  0  0
  5 21  2  0  0  0  0
  5 15  1  0  0  0  0
  6 18  1  0  0  0  0
  6  9  2  0  0  0  0
  7 17  1  0  0  0  0
  8  3  2  0  0  0  0
  9 28  1  0  0  0  0
 10 15  1  0  0  0  0
 11  4  1  0  0  0  0
 11  7  1  0  0  0  0
 14 26  2  0  0  0  0
 15 19  2  0  0  0  0
 16 12  3  0  0  0  0
 17 23  1  0  0  0  0
 19  3  1  0  0  0  0
 19 14  1  0  0  0  0
 20 25  1  1  0  0  0
 20 18  1  0  0  0  0
 20 23  1  0  0  0  0
 21  8  1  0  0  0  0
 22  2  1  0  0  0  0
 24  7  2  0  0  0  0
 26  9  1  0  0  0  0
 28 27  2  0  0  0  0
 28 30  1  0  0  0  0
 29 35  2  0  0  0  0
 30 29  1  0  0  0  0
 31 30  2  0  0  0  0
 31 34  1  0  0  0  0
 32 34  2  0  0  0  0
 34 33  1  0  0  0  0
 35 33  1  0  0  0  0
 36 37  1  0  0  0  0
M  END
>  <MODEL>
2

>  <REMARK>
 VINA RESULT:      -6.0      4.337      7.177
  Name = 
  3 active torsions:
  status: ('A' for Active; 'I' for Inactive)
    1  A    between atoms: C_5  and  C_23
    2  A    between atoms: C_6  and  C_31
    3  A    between atoms: C_14  and  C_31
                            x       y       z     vdW  Elec       q    Type
                         _______ _______ _______ _____ _____    ______ ____

>  <TORSDO>
F 3

$$$$
=
 OpenBabel11052415193D

 37 42  0  0  1  0  0  0  0  0999 V2000
  182.8360  174.7440  136.1920 C   0  0  1  0  0  0  0  0  0  0  0  0
  180.8050  177.2710  138.6760 C   0  0  0  0  0  0  0  0  0  0  0  0
  184.2890  178.1330  137.9190 C   0  0  0  0  0  0  0  0  0  0  0  0
  182.9550  173.2360  136.4500 C   0  0  1  0  0  3  0  0  0  0  0  0
  182.7140  178.0770  140.2200 C   0  0  0  0  0  3  0  0  0  0  0  0
  185.0230  177.7000  136.8060 C   0  0  0  0  0  0  0  0  0  0  0  0
  185.2670  173.1200  137.1860 C   0  0  0  0  0  0  0  0  0  0  0  0
  182.9140  178.2000  137.8290 C   0  0  0  0  0  3  0  0  0  0  0  0
  186.4410  177.7190  136.8850 C   0  0  0  0  0  0  0  0  0  0  0  0
  184.6760  178.3320  141.5580 F   0  0  0  0  0  0  0  0  0  0  0  0
  183.9110  172.9910  137.4720 O   0  0  0  0  0  0  0  0  0  0  0  0
  181.8500  175.5000  136.9900 C   0  0  0  0  0  0  0  0  0  0  0  0
  179.7920  178.1850  138.0120 C   0  0  0  0  0  1  0  0  0  0  0  0
  186.2570  178.1800  139.2520 N   0  0  0  0  0  0  0  0  0  0  0  0
  184.1030  178.2800  140.3300 C   0  0  0  0  0  0  0  0  0  0  0  0
  181.1930  176.1880  137.7380 C   0  0  0  0  0  0  0  0  0  0  0  0
  185.6980  173.3640  135.7780 C   0  0  0  0  0  2  0  0  0  0  0  0
  184.2520  177.0600  135.6520 C   0  0  0  0  0  2  0  0  0  0  0  0
  184.9040  178.2400  139.1740 C   0  0  0  0  0  0  0  0  0  0  0  0
  184.1270  175.5160  135.7390 C   0  0  1  0  0  0  0  0  0  0  0  0
  182.1020  178.0310  138.9510 C   0  0  0  0  0  0  0  0  0  0  0  0
  180.1910  176.6650  139.9280 C   0  0  0  0  0  1  0  0  0  0  0  0
  185.4310  174.7970  135.3140 C   0  0  0  0  0  2  0  0  0  0  0  0
  186.1230  173.0200  138.1020 O   0  0  0  0  0  0  0  0  0  0  0  0
  183.0100  175.1430  134.7540 C   0  0  0  0  0  2  0  0  0  0  0  0
  187.0220  177.9640  138.1460 C   0  0  0  0  0  3  0  0  0  0  0  0
  187.0260  178.0640  134.5980 O   0  0  0  0  0  0  0  0  0  0  0  0
  187.3150  177.4980  135.6900 C   0  0  0  0  0  0  0  0  0  0  0  0
  189.7060  176.9580  134.8590 C   0  0  0  0  0  3  0  0  0  0  0  0
  188.5440  176.6620  135.7270 C   0  0  0  0  0  0  0  0  0  0  0  0
  188.5670  175.5830  136.5190 C   0  0  0  0  0  3  0  0  0  0  0  0
  189.7340  173.6980  137.3300 O   0  0  0  0  0  0  0  0  0  0  0  0
  190.9460  174.9650  135.7060 C   0  0  0  0  0  2  0  0  0  0  0  0
  189.7410  174.6990  136.5660 C   0  0  0  0  0  0  0  0  0  0  0  0
  190.8000  176.1910  134.8460 C   0  0  0  0  0  3  0  0  0  0  0  0
  181.8280  171.4630  137.6020 F   0  0  0  0  0  0  0  0  0  0  0  0
  181.6310  172.5440  136.7600 C   0  0  0  0  0  2  0  0  0  0  0  0
  1 25  1  6  0  0  0
  1  4  1  0  0  0  0
  1 12  1  0  0  0  0
  2 21  1  0  0  0  0
  2 22  1  0  0  0  0
  3 19  1  0  0  0  0
  4 37  1  1  0  0  0
  4 11  1  0  0  0  0
  5 15  1  0  0  0  0
  6  9  2  0  0  0  0
  6  3  1  0  0  0  0
  7 11  1  0  0  0  0
  7 24  2  0  0  0  0
  8  3  2  0  0  0  0
  8 21  1  0  0  0  0
  9 26  1  0  0  0  0
 12 16  3  0  0  0  0
 13  2  1  0  0  0  0
 15 10  1  0  0  0  0
 16  2  1  0  0  0  0
 17  7  1  0  0  0  0
 18 20  1  0  0  0  0
 18  6  1  0  0  0  0
 19 14  1  0  0  0  0
 19 15  2  0  0  0  0
 20 25  1  6  0  0  0
 20  1  1  0  0  0  0
 21  5  2  0  0  0  0
 23 20  1  0  0  0  0
 23 17  1  0  0  0  0
 26 14  2  0  0  0  0
 27 28  2  0  0  0  0
 28 30  1  0  0  0  0
 28  9  1  0  0  0  0
 29 30  1  0  0  0  0
 30 31  2  0  0  0  0
 31 34  1  0  0  0  0
 33 34  1  0  0  0  0
 34 32  2  0  0  0  0
 35 29  2  0  0  0  0
 35 33  1  0  0  0  0
 37 36  1  0  0  0  0
M  END
>  <MODEL>
3

>  <REMARK>
 VINA RESULT:      -5.8      1.778      2.514
  Name = 
  3 active torsions:
  status: ('A' for Active; 'I' for Inactive)
    1  A    between atoms: C_5  and  C_23
    2  A    between atoms: C_6  and  C_31
    3  A    between atoms: C_14  and  C_31
                            x       y       z     vdW  Elec       q    Type
                         _______ _______ _______ _____ _____    ______ ____

>  <TORSDO>
F 3

$$$$
=
 OpenBabel11052415193D

 37 42  0  0  1  0  0  0  0  0999 V2000
  180.8280  175.9680  137.2010 C   0  0  1  0  0  0  0  0  0  0  0  0
  183.2310  172.8300  136.1760 C   0  0  0  0  0  0  0  0  0  0  0  0
  184.8780  175.7930  137.5740 C   0  0  0  0  0  0  0  0  0  0  0  0
  179.8370  176.6160  136.2240 C   0  0  1  0  0  3  0  0  0  0  0  0
  185.3710  174.0750  135.4340 C   0  0  0  0  0  3  0  0  0  0  0  0
  184.2730  176.7730  138.3730 C   0  0  0  0  0  0  0  0  0  0  0  0
  181.0170  178.6840  135.7430 C   0  0  0  0  0  0  0  0  0  0  0  0
  184.3490  174.5190  137.5630 C   0  0  0  0  0  3  0  0  0  0  0  0
  184.8810  178.0550  138.4430 C   0  0  0  0  0  0  0  0  0  0  0  0
  187.0020  175.6040  134.5930 F   0  0  0  0  0  0  0  0  0  0  0  0
  180.5310  177.4520  135.3100 O   0  0  0  0  0  0  0  0  0  0  0  0
  181.4270  174.6750  136.8140 C   0  0  0  0  0  0  0  0  0  0  0  0
  183.2110  171.6400  137.1180 C   0  0  0  0  0  1  0  0  0  0  0  0
  186.3490  177.4070  136.6330 N   0  0  0  0  0  0  0  0  0  0  0  0
  186.1240  175.2570  135.5680 C   0  0  0  0  0  0  0  0  0  0  0  0
  182.0760  173.7160  136.4630 C   0  0  0  0  0  0  0  0  0  0  0  0
  180.6700  179.1670  137.1110 C   0  0  0  0  0  2  0  0  0  0  0  0
  182.9010  176.4580  138.9670 C   0  0  0  0  0  2  0  0  0  0  0  0
  185.8280  176.1540  136.6100 C   0  0  0  0  0  0  0  0  0  0  0  0
  181.7020  176.9180  138.0970 C   0  0  1  0  0  0  0  0  0  0  0  0
  184.4620  173.6940  136.4430 C   0  0  0  0  0  0  0  0  0  0  0  0
  183.1490  172.3350  134.7400 C   0  0  0  0  0  1  0  0  0  0  0  0
  181.4420  178.4390  138.2130 C   0  0  0  0  0  2  0  0  0  0  0  0
  181.7310  179.3880  134.9840 O   0  0  0  0  0  0  0  0  0  0  0  0
  180.4850  176.1620  138.6510 C   0  0  0  0  0  2  0  0  0  0  0  0
  185.9270  178.3320  137.5390 C   0  0  0  0  0  3  0  0  0  0  0  0
  183.9690  180.1840  139.0170 O   0  0  0  0  0  0  0  0  0  0  0  0
  184.4540  179.0940  139.4330 C   0  0  0  0  0  0  0  0  0  0  0  0
  185.8190  178.5620  141.5670 C   0  0  0  0  0  3  0  0  0  0  0  0
  184.5380  178.8960  140.9040 C   0  0  0  0  0  0  0  0  0  0  0  0
  183.4140  178.9610  141.6290 C   0  0  0  0  0  3  0  0  0  0  0  0
  182.3600  178.8140  143.7370 O   0  0  0  0  0  0  0  0  0  0  0  0
  184.7130  178.3990  143.7980 C   0  0  0  0  0  2  0  0  0  0  0  0
  183.4330  178.7350  143.0830 C   0  0  0  0  0  0  0  0  0  0  0  0
  185.9040  178.3360  142.8810 C   0  0  0  0  0  3  0  0  0  0  0  0
  179.6790  174.8600  134.6010 F   0  0  0  0  0  0  0  0  0  0  0  0
  178.9400  175.6240  135.4880 C   0  0  0  0  0  2  0  0  0  0  0  0
  1 12  1  6  0  0  0
  1 20  1  0  0  0  0
  1 25  1  0  0  0  0
  2 21  1  0  0  0  0
  2 16  1  0  0  0  0
  2 13  1  0  0  0  0
  3  6  1  0  0  0  0
  4 37  1  6  0  0  0
  4  1  1  0  0  0  0
  5 15  2  0  0  0  0
  5 21  1  0  0  0  0
  6  9  2  0  0  0  0
  6 18  1  0  0  0  0
  7 17  1  0  0  0  0
  8  3  1  0  0  0  0
  9 28  1  0  0  0  0
 10 15  1  0  0  0  0
 11  7  1  0  0  0  0
 11  4  1  0  0  0  0
 14 26  2  0  0  0  0
 15 19  1  0  0  0  0
 16 12  3  0  0  0  0
 17 23  1  0  0  0  0
 19 14  1  0  0  0  0
 19  3  2  0  0  0  0
 20 23  1  6  0  0  0
 20 25  1  0  0  0  0
 20 18  1  0  0  0  0
 21  8  2  0  0  0  0
 22  2  1  0  0  0  0
 24  7  2  0  0  0  0
 26  9  1  0  0  0  0
 27 28  2  0  0  0  0
 28 30  1  0  0  0  0
 29 35  2  0  0  0  0
 30 29  1  0  0  0  0
 30 31  2  0  0  0  0
 31 34  1  0  0  0  0
 34 32  2  0  0  0  0
 34 33  1  0  0  0  0
 35 33  1  0  0  0  0
 36 37  1  0  0  0  0
M  END
>  <MODEL>
4

>  <REMARK>
 VINA RESULT:      -4.9      4.097      6.819
  Name = 
  3 active torsions:
  status: ('A' for Active; 'I' for Inactive)
    1  A    between atoms: C_5  and  C_23
    2  A    between atoms: C_6  and  C_31
    3  A    between atoms: C_14  and  C_31
                            x       y       z     vdW  Elec       q    Type
                         _______ _______ _______ _____ _____    ______ ____

>  <TORSDO>
F 3

$$$$
=
 OpenBabel11052415193D

 37 42  0  0  1  0  0  0  0  0999 V2000
  189.2650  177.6220  138.8580 C   0  0  1  0  0  0  0  0  0  0  0  0
  189.2170  174.7110  135.9960 C   0  0  0  0  0  0  0  0  0  0  0  0
  185.9680  175.9950  137.1120 C   0  0  0  0  0  0  0  0  0  0  0  0
  189.9950  177.4640  140.1990 C   0  0  1  0  0  3  0  0  0  0  0  0
  187.0320  173.4690  136.6000 C   0  0  0  0  0  3  0  0  0  0  0  0
  185.7360  177.2350  137.7230 C   0  0  0  0  0  0  0  0  0  0  0  0
  188.0930  177.1330  141.6730 C   0  0  0  0  0  0  0  0  0  0  0  0
  187.0610  175.8510  136.2840 C   0  0  0  0  0  3  0  0  0  0  0  0
  184.5590  177.3940  138.5020 C   0  0  0  0  0  0  0  0  0  0  0  0
  185.1390  172.4670  137.6570 F   0  0  0  0  0  0  0  0  0  0  0  0
  189.2420  176.6300  141.0680 O   0  0  0  0  0  0  0  0  0  0  0  0
  189.5530  176.6340  137.8000 C   0  0  0  0  0  0  0  0  0  0  0  0
  189.5970  175.1490  134.5940 C   0  0  0  0  0  1  0  0  0  0  0  0
  184.1880  175.0090  138.3440 N   0  0  0  0  0  0  0  0  0  0  0  0
  185.7710  173.5830  137.2160 C   0  0  0  0  0  0  0  0  0  0  0  0
  189.6170  175.7530  136.9730 C   0  0  0  0  0  0  0  0  0  0  0  0
  187.7580  178.5780  141.5200 C   0  0  0  0  0  2  0  0  0  0  0  0
  186.8550  178.2750  137.6650 C   0  0  0  0  0  2  0  0  0  0  0  0
  185.2660  174.8570  137.5340 C   0  0  0  0  0  0  0  0  0  0  0  0
  187.8230  178.2460  138.8770 C   0  0  1  0  0  0  0  0  0  0  0  0
  187.6970  174.6180  136.1250 C   0  0  0  0  0  0  0  0  0  0  0  0
  189.9240  173.4050  136.3240 C   0  0  0  0  0  1  0  0  0  0  0  0
  187.2140  178.9180  140.1310 C   0  0  0  0  0  2  0  0  0  0  0  0
  187.3510  176.3780  142.3540 O   0  0  0  0  0  0  0  0  0  0  0  0
  189.0540  179.0480  138.4310 C   0  0  0  0  0  2  0  0  0  0  0  0
  183.8080  176.2370  138.7930 C   0  0  0  0  0  3  0  0  0  0  0  0
  184.3820  179.7680  138.3440 O   0  0  0  0  0  0  0  0  0  0  0  0
  184.1020  178.7280  139.0040 C   0  0  0  0  0  0  0  0  0  0  0  0
  183.8660  178.6280  141.5800 C   0  0  0  0  0  3  0  0  0  0  0  0
  183.2940  178.8960  140.2400 C   0  0  0  0  0  0  0  0  0  0  0  0
  182.0040  179.2360  140.1280 C   0  0  0  0  0  3  0  0  0  0  0  0
  179.9410  179.7090  141.1740 O   0  0  0  0  0  0  0  0  0  0  0  0
  181.6890  179.1210  142.6950 C   0  0  0  0  0  2  0  0  0  0  0  0
  181.1480  179.3770  141.3150 C   0  0  0  0  0  0  0  0  0  0  0  0
  183.1410  178.7290  142.6970 C   0  0  0  0  0  3  0  0  0  0  0  0
  192.3120  177.8780  140.6480 F   0  0  0  0  0  0  0  0  0  0  0  0
  191.4350  176.9720  140.0770 C   0  0  0  0  0  2  0  0  0  0  0  0
  1 12  1  6  0  0  0
  1 20  1  0  0  0  0
  1  4  1  0  0  0  0
  2 21  1  0  0  0  0
  2 22  1  0  0  0  0
  2 16  1  0  0  0  0
  3 19  1  0  0  0  0
  3  6  1  0  0  0  0
  4 37  1  6  0  0  0
  4 11  1  0  0  0  0
  5 15  1  0  0  0  0
  6  9  2  0  0  0  0
  7 24  2  0  0  0  0
  8  3  2  0  0  0  0
  9 26  1  0  0  0  0
  9 28  1  0  0  0  0
 11  7  1  0  0  0  0
 13  2  1  0  0  0  0
 14 26  2  0  0  0  0
 15 19  2  0  0  0  0
 15 10  1  0  0  0  0
 16 12  3  0  0  0  0
 17  7  1  0  0  0  0
 18  6  1  0  0  0  0
 19 14  1  0  0  0  0
 20 18  1  6  0  0  0
 20 23  1  0  0  0  0
 21  8  1  0  0  0  0
 21  5  2  0  0  0  0
 23 17  1  0  0  0  0
 25  1  1  0  0  0  0
 25 20  1  0  0  0  0
 27 28  2  0  0  0  0
 28 30  1  0  0  0  0
 29 35  2  0  0  0  0
 30 29  1  0  0  0  0
 31 30  2  0  0  0  0
 31 34  1  0  0  0  0
 32 34  2  0  0  0  0
 33 35  1  0  0  0  0
 34 33  1  0  0  0  0
 37 36  1  0  0  0  0
M  END
>  <MODEL>
5

>  <REMARK>
 VINA RESULT:      -4.8      2.871      7.798
  Name = 
  3 active torsions:
  status: ('A' for Active; 'I' for Inactive)
    1  A    between atoms: C_5  and  C_23
    2  A    between atoms: C_6  and  C_31
    3  A    between atoms: C_14  and  C_31
                            x       y       z     vdW  Elec       q    Type
                         _______ _______ _______ _____ _____    ______ ____

>  <TORSDO>
F 3

$$$$
=
 OpenBabel11052415193D

 37 42  0  0  1  0  0  0  0  0999 V2000
  189.0280  177.5780  138.7480 C   0  0  1  0  0  0  0  0  0  0  0  0
  188.7520  174.4870  136.0930 C   0  0  0  0  0  0  0  0  0  0  0  0
  185.6070  176.0360  137.1700 C   0  0  0  0  0  0  0  0  0  0  0  0
  189.7740  177.4670  140.0840 C   0  0  1  0  0  3  0  0  0  0  0  0
  186.5110  173.4220  136.8160 C   0  0  0  0  0  3  0  0  0  0  0  0
  185.4610  177.3260  137.6970 C   0  0  0  0  0  0  0  0  0  0  0  0
  187.8860  177.3510  141.6080 C   0  0  0  0  0  0  0  0  0  0  0  0
  186.6730  175.7710  136.3360 C   0  0  0  0  0  3  0  0  0  0  0  0
  184.3110  177.6080  138.4820 C   0  0  0  0  0  0  0  0  0  0  0  0
  184.5840  172.6090  137.9690 F   0  0  0  0  0  0  0  0  0  0  0  0
  188.9910  176.7400  141.0200 O   0  0  0  0  0  0  0  0  0  0  0  0
  189.2370  176.5050  137.7550 C   0  0  0  0  0  0  0  0  0  0  0  0
  189.1300  174.8060  134.6580 C   0  0  0  0  0  1  0  0  0  0  0  0
  183.7970  175.2440  138.4940 N   0  0  0  0  0  0  0  0  0  0  0  0
  185.2710  173.6530  137.4430 C   0  0  0  0  0  0  0  0  0  0  0  0
  189.2320  175.5670  136.9890 C   0  0  0  0  0  0  0  0  0  0  0  0
  187.6330  178.8000  141.3610 C   0  0  0  0  0  2  0  0  0  0  0  0
  186.6370  178.2910  137.5510 C   0  0  0  0  0  2  0  0  0  0  0  0
  184.8490  174.9740  137.6800 C   0  0  0  0  0  0  0  0  0  0  0  0
  187.6260  178.2870  138.7460 C   0  0  1  0  0  0  0  0  0  0  0  0
  187.2320  174.4950  136.2530 C   0  0  0  0  0  0  0  0  0  0  0  0
  189.3880  173.1670  136.4990 C   0  0  0  0  0  1  0  0  0  0  0  0
  187.0820  179.0770  139.9600 C   0  0  0  0  0  2  0  0  0  0  0  0
  187.1150  176.6900  142.3500 O   0  0  0  0  0  0  0  0  0  0  0  0
  188.8930  178.9810  138.2270 C   0  0  0  0  0  2  0  0  0  0  0  0
  183.4990  176.5200  138.8650 C   0  0  0  0  0  3  0  0  0  0  0  0
  184.6550  179.5970  139.7540 O   0  0  0  0  0  0  0  0  0  0  0  0
  183.9430  178.9980  138.8990 C   0  0  0  0  0  0  0  0  0  0  0  0
  182.4940  181.1340  138.7190 C   0  0  0  0  0  3  0  0  0  0  0  0
  182.7870  179.7370  138.3290 C   0  0  0  0  0  0  0  0  0  0  0  0
  181.9600  179.0960  137.4920 C   0  0  0  0  0  3  0  0  0  0  0  0
  180.0280  179.1380  136.1360 O   0  0  0  0  0  0  0  0  0  0  0  0
  180.4470  181.1880  137.2930 C   0  0  0  0  0  2  0  0  0  0  0  0
  180.7780  179.7670  136.9280 C   0  0  0  0  0  0  0  0  0  0  0  0
  181.4330  181.7980  138.2500 C   0  0  0  0  0  3  0  0  0  0  0  0
  192.1360  177.8580  140.1980 F   0  0  0  0  0  0  0  0  0  0  0  0
  191.1800  176.8830  139.9740 C   0  0  0  0  0  2  0  0  0  0  0  0
  1 12  1  6  0  0  0
  1  4  1  0  0  0  0
  2 21  1  0  0  0  0
  2 22  1  0  0  0  0
  2 16  1  0  0  0  0
  3 19  1  0  0  0  0
  3  6  1  0  0  0  0
  4 37  1  6  0  0  0
  4 11  1  0  0  0  0
  5 15  1  0  0  0  0
  6  9  2  0  0  0  0
  7 24  2  0  0  0  0
  8  3  2  0  0  0  0
  9 26  1  0  0  0  0
  9 28  1  0  0  0  0
 11  7  1  0  0  0  0
 13  2  1  0  0  0  0
 14 26  2  0  0  0  0
 15 19  2  0  0  0  0
 15 10  1  0  0  0  0
 16 12  3  0  0  0  0
 17  7  1  0  0  0  0
 18  6  1  0  0  0  0
 19 14  1  0  0  0  0
 20 18  1  6  0  0  0
 20  1  1  0  0  0  0
 20 23  1  0  0  0  0
 21  8  1  0  0  0  0
 21  5  2  0  0  0  0
 23 17  1  0  0  0  0
 25 20  1  0  0  0  0
 25  1  1  0  0  0  0
 28 27  2  0  0  0  0
 30 29  1  0  0  0  0
 30 28  1  0  0  0  0
 31 30  2  0  0  0  0
 32 34  2  0  0  0  0
 33 35  1  0  0  0  0
 34 33  1  0  0  0  0
 34 31  1  0  0  0  0
 35 29  2  0  0  0  0
 37 36  1  0  0  0  0
M  END
>  <MODEL>
6

>  <REMARK>
 VINA RESULT:      -4.0      2.831      7.833
  Name = 
  3 active torsions:
  status: ('A' for Active; 'I' for Inactive)
    1  A    between atoms: C_5  and  C_23
    2  A    between atoms: C_6  and  C_31
    3  A    between atoms: C_14  and  C_31
                            x       y       z     vdW  Elec       q    Type
                         _______ _______ _______ _____ _____    ______ ____

>  <TORSDO>
F 3

$$$$
=
 OpenBabel11052415193D

 37 42  0  0  1  0  0  0  0  0999 V2000
  190.0740  177.5870  138.8990 C   0  0  1  0  0  0  0  0  0  0  0  0
  190.5100  174.7480  135.9960 C   0  0  0  0  0  0  0  0  0  0  0  0
  187.0850  175.7780  136.8080 C   0  0  0  0  0  0  0  0  0  0  0  0
  190.6800  177.4470  140.3020 C   0  0  1  0  0  3  0  0  0  0  0  0
  188.3700  173.3450  136.3600 C   0  0  0  0  0  3  0  0  0  0  0  0
  186.7080  176.9850  137.4150 C   0  0  0  0  0  0  0  0  0  0  0  0
  188.6730  176.9500  141.5760 C   0  0  0  0  0  0  0  0  0  0  0  0
  188.2610  175.7300  136.0900 C   0  0  0  0  0  3  0  0  0  0  0  0
  185.4530  177.0440  138.0770 C   0  0  0  0  0  0  0  0  0  0  0  0
  186.4600  172.1900  137.2090 F   0  0  0  0  0  0  0  0  0  0  0  0
  189.9070  176.5420  141.0780 O   0  0  0  0  0  0  0  0  0  0  0  0
  190.5330  176.6470  137.8570 C   0  0  0  0  0  0  0  0  0  0  0  0
  190.9930  175.2450  134.6460 C   0  0  0  0  0  1  0  0  0  0  0  0
  185.2690  174.6430  137.8420 N   0  0  0  0  0  0  0  0  0  0  0  0
  187.0510  173.3570  136.8510 C   0  0  0  0  0  0  0  0  0  0  0  0
  190.7390  175.7920  137.0250 C   0  0  0  0  0  0  0  0  0  0  0  0
  188.2520  178.3720  141.4150 C   0  0  0  0  0  2  0  0  0  0  0  0
  187.7500  178.1000  137.4860 C   0  0  0  0  0  2  0  0  0  0  0  0
  186.4290  174.5850  137.1400 C   0  0  0  0  0  0  0  0  0  0  0  0
  188.5970  178.1090  138.7860 C   0  0  1  0  0  0  0  0  0  0  0  0
  188.9950  174.5490  135.9730 C   0  0  0  0  0  0  0  0  0  0  0  0
  191.2730  173.4870  136.3690 C   0  0  0  0  0  1  0  0  0  0  0  0
  187.8230  178.7070  139.9850 C   0  0  0  0  0  2  0  0  0  0  0  0
  187.9230  176.1300  142.1670 O   0  0  0  0  0  0  0  0  0  0  0  0
  189.8050  179.0040  138.4780 C   0  0  0  0  0  2  0  0  0  0  0  0
  184.7610  175.8300  138.2730 C   0  0  0  0  0  3  0  0  0  0  0  0
  185.1520  179.4070  137.9650 O   0  0  0  0  0  0  0  0  0  0  0  0
  184.8560  178.3300  138.5550 C   0  0  0  0  0  0  0  0  0  0  0  0
  182.4300  178.4440  139.4500 C   0  0  0  0  0  3  0  0  0  0  0  0
  183.8920  178.4070  139.6830 C   0  0  0  0  0  0  0  0  0  0  0  0
  184.3650  178.5090  140.9320 C   0  0  0  0  0  3  0  0  0  0  0  0
  183.9340  178.7100  143.2450 O   0  0  0  0  0  0  0  0  0  0  0  0
  181.9650  178.6630  141.8920 C   0  0  0  0  0  2  0  0  0  0  0  0
  183.4560  178.6280  142.0830 C   0  0  0  0  0  0  0  0  0  0  0  0
  181.5510  178.5590  140.4490 C   0  0  0  0  0  3  0  0  0  0  0  0
  192.9320  178.0640  139.7660 F   0  0  0  0  0  0  0  0  0  0  0  0
  192.1560  177.0580  140.3140 C   0  0  0  0  0  2  0  0  0  0  0  0
  1 12  1  6  0  0  0
  1  4  1  0  0  0  0
  2 22  1  0  0  0  0
  2 16  1  0  0  0  0
  3 19  1  0  0  0  0
  3  6  1  0  0  0  0
  4 37  1  6  0  0  0
  4 11  1  0  0  0  0
  5 15  1  0  0  0  0
  6 18  1  0  0  0  0
  6  9  2  0  0  0  0
  7 24  2  0  0  0  0
  8  3  2  0  0  0  0
  9 26  1  0  0  0  0
  9 28  1  0  0  0  0
 11  7  1  0  0  0  0
 13  2  1  0  0  0  0
 14 26  2  0  0  0  0
 15 19  2  0  0  0  0
 15 10  1  0  0  0  0
 16 12  3  0  0  0  0
 17  7  1  0  0  0  0
 19 14  1  0  0  0  0
 20 18  1  6  0  0  0
 20  1  1  0  0  0  0
 20 23  1  0  0  0  0
 21  2  1  0  0  0  0
 21  8  1  0  0  0  0
 21  5  2  0  0  0  0
 23 17  1  0  0  0  0
 25 20  1  0  0  0  0
 25  1  1  0  0  0  0
 27 28  2  0  0  0  0
 28 30  1  0  0  0  0
 29 30  1  0  0  0  0
 29 35  2  0  0  0  0
 30 31  2  0  0  0  0
 31 34  1  0  0  0  0
 33 34  1  0  0  0  0
 34 32  2  0  0  0  0
 35 33  1  0  0  0  0
 36 37  1  0  0  0  0
M  END
>  <MODEL>
7

>  <REMARK>
 VINA RESULT:      -3.9      2.888      7.740
  Name = 
  3 active torsions:
  status: ('A' for Active; 'I' for Inactive)
    1  A    between atoms: C_5  and  C_23
    2  A    between atoms: C_6  and  C_31
    3  A    between atoms: C_14  and  C_31
                            x       y       z     vdW  Elec       q    Type
                         _______ _______ _______ _____ _____    ______ ____

>  <TORSDO>
F 3

$$$$
=
 OpenBabel11052415193D

 37 42  0  0  1  0  0  0  0  0999 V2000
  183.0340  177.7600  140.7220 C   0  0  1  0  0  0  0  0  0  0  0  0
  179.8830  179.4220  142.7180 C   0  0  0  0  0  0  0  0  0  0  0  0
  179.6890  179.3740  139.0550 C   0  0  0  0  0  0  0  0  0  0  0  0
  184.4870  178.2070  140.9340 C   0  0  1  0  0  3  0  0  0  0  0  0
  179.1580  181.2540  141.0450 C   0  0  0  0  0  3  0  0  0  0  0  0
  180.3910  178.5100  138.2030 C   0  0  0  0  0  0  0  0  0  0  0  0
  184.8450  179.4500  138.8790 C   0  0  0  0  0  0  0  0  0  0  0  0
  179.4260  178.9700  140.3480 C   0  0  0  0  0  3  0  0  0  0  0  0
  180.5780  178.9020  136.8510 C   0  0  0  0  0  0  0  0  0  0  0  0
  179.0100  182.9600  139.3800 F   0  0  0  0  0  0  0  0  0  0  0  0
  184.7200  179.4380  140.2650 O   0  0  0  0  0  0  0  0  0  0  0  0
  182.0250  178.2250  141.6940 C   0  0  0  0  0  0  0  0  0  0  0  0
  178.9340  178.4490  143.3920 C   0  0  0  0  0  1  0  0  0  0  0  0
  179.7460  181.1000  137.4210 N   0  0  0  0  0  0  0  0  0  0  0  0
  179.1560  181.6490  139.6930 C   0  0  0  0  0  0  0  0  0  0  0  0
  181.1400  178.7240  142.3520 C   0  0  0  0  0  0  0  0  0  0  0  0
  184.8840  178.1570  138.1360 C   0  0  0  0  0  2  0  0  0  0  0  0
  181.0710  177.2930  138.8290 C   0  0  0  0  0  2  0  0  0  0  0  0
  179.4910  180.7140  138.6960 C   0  0  0  0  0  0  0  0  0  0  0  0
  182.5470  177.5230  139.2470 C   0  0  1  0  0  0  0  0  0  0  0  0
  179.2980  179.8930  141.3870 C   0  0  0  0  0  0  0  0  0  0  0  0
  180.1930  180.5650  143.6710 C   0  0  0  0  0  1  0  0  0  0  0  0
  183.5120  177.4850  138.0390 C   0  0  0  0  0  2  0  0  0  0  0  0
  184.9370  180.5410  138.2580 O   0  0  0  0  0  0  0  0  0  0  0  0
  182.8870  176.3610  140.1920 C   0  0  0  0  0  2  0  0  0  0  0  0
  180.2390  180.2260  136.5020 C   0  0  0  0  0  3  0  0  0  0  0  0
  181.9480  178.3890  134.9660 O   0  0  0  0  0  0  0  0  0  0  0  0
  181.1070  177.9660  135.8090 C   0  0  0  0  0  0  0  0  0  0  0  0
  179.2970  176.1160  135.7720 C   0  0  0  0  0  3  0  0  0  0  0  0
  180.7170  176.5340  135.7310 C   0  0  0  0  0  0  0  0  0  0  0  0
  181.6790  175.6040  135.6890 C   0  0  0  0  0  3  0  0  0  0  0  0
  182.2800  173.3220  135.6000 O   0  0  0  0  0  0  0  0  0  0  0  0
  179.9210  173.7020  135.6840 C   0  0  0  0  0  2  0  0  0  0  0  0
  181.3500  174.1700  135.6510 C   0  0  0  0  0  0  0  0  0  0  0  0
  178.9310  174.8320  135.7490 C   0  0  0  0  0  3  0  0  0  0  0  0
  185.1350  179.6020  142.7710 F   0  0  0  0  0  0  0  0  0  0  0  0
  184.9130  178.2880  142.3970 C   0  0  0  0  0  2  0  0  0  0  0  0
  1 25  1  1  0  0  0
  1  4  1  0  0  0  0
  1 12  1  0  0  0  0
  2 13  1  0  0  0  0
  2 22  1  0  0  0  0
  3  8  1  0  0  0  0
  4 37  1  1  0  0  0
  5 21  1  0  0  0  0
  6 18  1  0  0  0  0
  6  3  2  0  0  0  0
  7 11  1  0  0  0  0
  8 21  2  0  0  0  0
  9  6  1  0  0  0  0
 10 15  1  0  0  0  0
 11  4  1  0  0  0  0
 12 16  3  0  0  0  0
 14 19  2  0  0  0  0
 15  5  2  0  0  0  0
 16  2  1  0  0  0  0
 17  7  1  0  0  0  0
 18 20  1  0  0  0  0
 19  3  1  0  0  0  0
 19 15  1  0  0  0  0
 20 23  1  6  0  0  0
 20 25  1  0  0  0  0
 20  1  1  0  0  0  0
 21  2  1  0  0  0  0
 23 17  1  0  0  0  0
 24  7  2  0  0  0  0
 26  9  2  0  0  0  0
 26 14  1  0  0  0  0
 27 28  2  0  0  0  0
 28  9  1  0  0  0  0
 30 29  1  0  0  0  0
 30 28  1  0  0  0  0
 31 30  2  0  0  0  0
 32 34  2  0  0  0  0
 33 35  1  0  0  0  0
 34 33  1  0  0  0  0
 34 31  1  0  0  0  0
 35 29  2  0  0  0  0
 37 36  1  0  0  0  0
M  END
>  <MODEL>
8

>  <REMARK>
 VINA RESULT:      -3.8      4.755      7.819
  Name = 
  3 active torsions:
  status: ('A' for Active; 'I' for Inactive)
    1  A    between atoms: C_5  and  C_23
    2  A    between atoms: C_6  and  C_31
    3  A    between atoms: C_14  and  C_31
                            x       y       z     vdW  Elec       q    Type
                         _______ _______ _______ _____ _____    ______ ____

>  <TORSDO>
F 3

$$$$
