=
 OpenBabel11052413523D

 27 31  0  0  0  0  0  0  0  0999 V2000
  190.3940  177.9800  142.2340 C   0  0  0  0  0  2  0  0  0  0  0  0
  188.1120  178.1160  141.2440 C   0  0  0  0  0  0  0  0  0  0  0  0
  187.6000  177.6210  143.5660 O   0  0  0  0  0  0  0  0  0  0  0  0
  187.3830  178.5900  140.1200 N   0  0  0  0  0  0  0  0  0  0  0  0
  190.2010  176.1720  147.2960 F   0  0  0  0  0  0  0  0  0  0  0  0
  190.1660  176.8880  146.1480 C   0  0  0  0  0  0  0  0  0  0  0  0
  189.4700  177.6560  141.1850 N   0  0  0  0  0  0  0  0  0  0  0  0
  186.0370  178.5530  141.8680 N   0  0  0  0  0  0  0  0  0  0  0  0
  190.1340  177.9630  143.5410 C   0  0  0  0  0  0  0  0  0  0  0  0
  187.3170  178.0910  142.2830 C   0  0  0  0  0  0  0  0  0  0  0  0
  188.9020  176.9990  145.3970 C   0  0  0  0  0  2  0  0  0  0  0  0
  186.0580  178.8830  140.4980 N   0  0  0  0  0  0  0  0  0  0  0  0
  191.2820  177.4610  145.6900 C   0  0  0  0  0  3  0  0  0  0  0  0
  191.2740  178.3180  144.4540 C   0  0  0  0  0  2  0  0  0  0  0  0
  188.8590  177.5080  144.1610 C   0  0  0  0  0  0  0  0  0  0  0  0
  183.5900  178.6420  142.0900 C   0  0  0  0  0  3  0  0  0  0  0  0
  182.5460  178.9610  144.2510 C   0  0  0  0  0  3  0  0  0  0  0  0
  183.8060  179.0110  144.8520 C   0  0  0  0  0  3  0  0  0  0  0  0
  184.9590  178.8770  144.0710 C   0  0  0  0  0  3  0  0  0  0  0  0
  184.8610  178.6910  142.6830 C   0  0  0  0  0  0  0  0  0  0  0  0
  182.4380  178.7760  142.8700 C   0  0  0  0  0  3  0  0  0  0  0  0
  191.0280  176.1300  137.5270 C   0  0  0  0  0  3  0  0  0  0  0  0
  189.9960  177.1210  139.9510 C   0  0  0  0  0  0  0  0  0  0  0  0
  191.3840  177.0590  139.7330 C   0  0  0  0  0  3  0  0  0  0  0  0
  191.8970  176.5630  138.5310 C   0  0  0  0  0  3  0  0  0  0  0  0
  189.6470  176.1940  137.7240 C   0  0  0  0  0  3  0  0  0  0  0  0
  189.1340  176.6900  138.9260 C   0  0  0  0  0  3  0  0  0  0  0  0
  1  9  1  0  0  0  0
  2 10  2  0  0  0  0
  3 15  1  0  0  0  0
  4 12  2  0  0  0  0
  4  2  1  0  0  0  0
  6  5  1  0  0  0  0
  7  2  1  0  0  0  0
  7  1  1  0  0  0  0
  8 10  1  0  0  0  0
  8 20  1  0  0  0  0
  9 15  2  0  0  0  0
  9 14  1  0  0  0  0
 10  3  1  0  0  0  0
 11  6  1  0  0  0  0
 12  8  1  0  0  0  0
 13  6  2  0  0  0  0
 14 13  1  0  0  0  0
 15 11  1  0  0  0  0
 16 20  2  0  0  0  0
 16 21  1  0  0  0  0
 17 18  1  0  0  0  0
 19 18  2  0  0  0  0
 20 19  1  0  0  0  0
 21 17  2  0  0  0  0
 22 26  2  0  0  0  0
 22 25  1  0  0  0  0
 23  7  1  0  0  0  0
 24 23  1  0  0  0  0
 25 24  2  0  0  0  0
 26 27  1  0  0  0  0
 27 23  2  0  0  0  0
M  END
>  <MODEL>
1

>  <REMARK>
 VINA RESULT:     -10.1      0.000      0.000
  Name = 
  2 active torsions:
  status: ('A' for Active; 'I' for Inactive)
    1  A    between atoms: C_9  and  N_15
    2  A    between atoms: C_14  and  N_17
                            x       y       z     vdW  Elec       q    Type
                         _______ _______ _______ _____ _____    ______ ____

>  <TORSDO>
F 2

$$$$
=
 OpenBabel11052413523D

 27 31  0  0  0  0  0  0  0  0999 V2000
  190.3740  178.0020  142.1240 C   0  0  0  0  0  2  0  0  0  0  0  0
  188.0830  178.1270  141.1570 C   0  0  0  0  0  0  0  0  0  0  0  0
  187.5950  177.6430  143.4850 O   0  0  0  0  0  0  0  0  0  0  0  0
  187.3420  178.5930  140.0370 N   0  0  0  0  0  0  0  0  0  0  0  0
  190.2360  176.2190  147.1980 F   0  0  0  0  0  0  0  0  0  0  0  0
  190.1880  176.9290  146.0460 C   0  0  0  0  0  0  0  0  0  0  0  0
  189.4410  177.6700  141.0860 N   0  0  0  0  0  0  0  0  0  0  0  0
  186.0130  178.5630  141.7980 N   0  0  0  0  0  0  0  0  0  0  0  0
  190.1280  177.9900  143.4340 C   0  0  0  0  0  0  0  0  0  0  0  0
  187.2980  178.1050  142.2030 C   0  0  0  0  0  0  0  0  0  0  0  0
  188.9160  177.0330  145.3070 C   0  0  0  0  0  2  0  0  0  0  0  0
  186.0200  178.8850  140.4260 N   0  0  0  0  0  0  0  0  0  0  0  0
  191.2980  177.5020  145.5740 C   0  0  0  0  0  3  0  0  0  0  0  0
  191.2750  178.3530  144.3340 C   0  0  0  0  0  2  0  0  0  0  0  0
  188.8600  177.5360  144.0690 C   0  0  0  0  0  0  0  0  0  0  0  0
  184.9840  178.9070  144.0040 C   0  0  0  0  0  3  0  0  0  0  0  0
  182.5780  178.9700  144.2610 C   0  0  0  0  0  3  0  0  0  0  0  0
  182.4260  178.7650  142.8880 C   0  0  0  0  0  3  0  0  0  0  0  0
  183.5550  178.6310  142.0730 C   0  0  0  0  0  3  0  0  0  0  0  0
  184.8440  178.7010  142.6240 C   0  0  0  0  0  0  0  0  0  0  0  0
  183.8570  179.0420  144.8200 C   0  0  0  0  0  3  0  0  0  0  0  0
  190.9550  176.0250  137.4610 C   0  0  0  0  0  3  0  0  0  0  0  0
  189.9570  177.1290  139.8500 C   0  0  0  0  0  0  0  0  0  0  0  0
  189.0820  176.6630  138.8530 C   0  0  0  0  0  3  0  0  0  0  0  0
  189.5770  176.1180  137.6650 C   0  0  0  0  0  3  0  0  0  0  0  0
  191.8380  176.4740  138.4460 C   0  0  0  0  0  3  0  0  0  0  0  0
  191.3420  177.0200  139.6340 C   0  0  0  0  0  3  0  0  0  0  0  0
  1  9  1  0  0  0  0
  2 10  2  0  0  0  0
  3 15  1  0  0  0  0
  4 12  2  0  0  0  0
  4  2  1  0  0  0  0
  6  5  1  0  0  0  0
  7  2  1  0  0  0  0
  7  1  1  0  0  0  0
  8 10  1  0  0  0  0
  8 20  1  0  0  0  0
  9 15  2  0  0  0  0
  9 14  1  0  0  0  0
 10  3  1  0  0  0  0
 11  6  1  0  0  0  0
 12  8  1  0  0  0  0
 13  6  2  0  0  0  0
 14 13  1  0  0  0  0
 15 11  1  0  0  0  0
 16 21  1  0  0  0  0
 17 21  2  0  0  0  0
 18 17  1  0  0  0  0
 19 20  1  0  0  0  0
 19 18  2  0  0  0  0
 20 16  2  0  0  0  0
 22 25  2  0  0  0  0
 22 26  1  0  0  0  0
 23  7  1  0  0  0  0
 24 23  2  0  0  0  0
 25 24  1  0  0  0  0
 26 27  2  0  0  0  0
 27 23  1  0  0  0  0
M  END
>  <MODEL>
2

>  <REMARK>
 VINA RESULT:     -10.0      0.098      1.320
  Name = 
  2 active torsions:
  status: ('A' for Active; 'I' for Inactive)
    1  A    between atoms: C_9  and  N_15
    2  A    between atoms: C_14  and  N_17
                            x       y       z     vdW  Elec       q    Type
                         _______ _______ _______ _____ _____    ______ ____

>  <TORSDO>
F 2

$$$$
=
 OpenBabel11052413523D

 27 31  0  0  0  0  0  0  0  0999 V2000
  189.8130  177.8080  140.0960 C   0  0  0  0  0  2  0  0  0  0  0  0
  187.3540  178.2020  140.1550 C   0  0  0  0  0  0  0  0  0  0  0  0
  187.7660  177.3970  142.4080 O   0  0  0  0  0  0  0  0  0  0  0  0
  186.2910  178.8720  139.4920 N   0  0  0  0  0  0  0  0  0  0  0  0
  191.4740  175.2860  144.5470 F   0  0  0  0  0  0  0  0  0  0  0  0
  191.0580  176.1640  143.6040 C   0  0  0  0  0  0  0  0  0  0  0  0
  188.5170  177.6880  139.4900 N   0  0  0  0  0  0  0  0  0  0  0  0
  185.7610  178.6460  141.6220 N   0  0  0  0  0  0  0  0  0  0  0  0
  190.0980  177.6110  141.3820 C   0  0  0  0  0  0  0  0  0  0  0  0
  187.0440  178.0640  141.4180 C   0  0  0  0  0  0  0  0  0  0  0  0
  189.6180  176.4480  143.4580 C   0  0  0  0  0  2  0  0  0  0  0  0
  185.2670  179.1720  140.4120 N   0  0  0  0  0  0  0  0  0  0  0  0
  191.9510  176.7420  142.7970 C   0  0  0  0  0  3  0  0  0  0  0  0
  191.5390  177.7710  141.7800 C   0  0  0  0  0  2  0  0  0  0  0  0
  189.1380  177.1350  142.4160 C   0  0  0  0  0  0  0  0  0  0  0  0
  183.6330  178.8240  142.8390 C   0  0  0  0  0  3  0  0  0  0  0  0
  183.5820  178.8730  145.2590 C   0  0  0  0  0  3  0  0  0  0  0  0
  184.9750  178.7700  145.2900 C   0  0  0  0  0  3  0  0  0  0  0  0
  185.6970  178.6950  144.0940 C   0  0  0  0  0  3  0  0  0  0  0  0
  185.0320  178.7210  142.8580 C   0  0  0  0  0  0  0  0  0  0  0  0
  182.9110  178.8990  144.0340 C   0  0  0  0  0  3  0  0  0  0  0  0
  188.3490  176.5530  135.3890 C   0  0  0  0  0  3  0  0  0  0  0  0
  188.4460  177.3150  138.0970 C   0  0  0  0  0  0  0  0  0  0  0  0
  187.7830  176.1390  137.7040 C   0  0  0  0  0  3  0  0  0  0  0  0
  187.7310  175.7620  136.3600 C   0  0  0  0  0  3  0  0  0  0  0  0
  189.0210  177.7190  135.7630 C   0  0  0  0  0  3  0  0  0  0  0  0
  189.0720  178.0960  137.1080 C   0  0  0  0  0  3  0  0  0  0  0  0
  1  9  1  0  0  0  0
  2 10  2  0  0  0  0
  3 15  1  0  0  0  0
  4  2  1  0  0  0  0
  4 12  2  0  0  0  0
  6  5  1  0  0  0  0
  7  1  1  0  0  0  0
  7  2  1  0  0  0  0
  8 20  1  0  0  0  0
  9 14  1  0  0  0  0
  9 15  2  0  0  0  0
 10  8  1  0  0  0  0
 10  3  1  0  0  0  0
 11  6  1  0  0  0  0
 12  8  1  0  0  0  0
 13  6  2  0  0  0  0
 14 13  1  0  0  0  0
 15 11  1  0  0  0  0
 16 20  2  0  0  0  0
 16 21  1  0  0  0  0
 17 18  1  0  0  0  0
 19 18  2  0  0  0  0
 20 19  1  0  0  0  0
 21 17  2  0  0  0  0
 22 26  2  0  0  0  0
 22 25  1  0  0  0  0
 23  7  1  0  0  0  0
 24 23  1  0  0  0  0
 25 24  2  0  0  0  0
 26 27  1  0  0  0  0
 27 23  2  0  0  0  0
M  END
>  <MODEL>
3

>  <REMARK>
 VINA RESULT:      -9.3      1.684      2.272
  Name = 
  2 active torsions:
  status: ('A' for Active; 'I' for Inactive)
    1  A    between atoms: C_9  and  N_15
    2  A    between atoms: C_14  and  N_17
                            x       y       z     vdW  Elec       q    Type
                         _______ _______ _______ _____ _____    ______ ____

>  <TORSDO>
F 2

$$$$
=
 OpenBabel11052413523D

 27 31  0  0  0  0  0  0  0  0999 V2000
  186.7640  178.7920  139.9440 C   0  0  0  0  0  2  0  0  0  0  0  0
  185.9070  178.5400  142.2680 C   0  0  0  0  0  0  0  0  0  0  0  0
  188.0190  177.3520  142.4040 O   0  0  0  0  0  0  0  0  0  0  0  0
  184.9720  179.0650  143.2020 N   0  0  0  0  0  0  0  0  0  0  0  0
  191.1500  175.7770  139.1640 F   0  0  0  0  0  0  0  0  0  0  0  0
  190.2400  176.7230  139.4950 C   0  0  0  0  0  0  0  0  0  0  0  0
  185.6900  178.5020  140.8510 N   0  0  0  0  0  0  0  0  0  0  0  0
  186.6780  178.2170  144.3150 N   0  0  0  0  0  0  0  0  0  0  0  0
  188.0230  178.3720  140.0600 C   0  0  0  0  0  0  0  0  0  0  0  0
  186.9200  178.0340  142.9240 C   0  0  0  0  0  0  0  0  0  0  0  0
  189.5790  176.6680  140.8130 C   0  0  0  0  0  2  0  0  0  0  0  0
  185.4490  178.8750  144.5140 N   0  0  0  0  0  0  0  0  0  0  0  0
  189.9260  177.6770  138.6160 C   0  0  0  0  0  3  0  0  0  0  0  0
  188.9690  178.7830  138.9670 C   0  0  0  0  0  2  0  0  0  0  0  0
  188.5300  177.4430  141.1070 C   0  0  0  0  0  0  0  0  0  0  0  0
  188.8520  177.4230  145.1430 C   0  0  0  0  0  3  0  0  0  0  0  0
  189.2130  177.0160  147.5030 C   0  0  0  0  0  3  0  0  0  0  0  0
  187.8970  177.4020  147.7700 C   0  0  0  0  0  3  0  0  0  0  0  0
  187.0590  177.7990  146.7230 C   0  0  0  0  0  3  0  0  0  0  0  0
  187.5290  177.8130  145.4000 C   0  0  0  0  0  0  0  0  0  0  0  0
  189.6910  177.0270  146.1900 C   0  0  0  0  0  3  0  0  0  0  0  0
  181.7060  178.4280  139.3470 C   0  0  0  0  0  3  0  0  0  0  0  0
  184.3440  178.4640  140.3280 C   0  0  0  0  0  0  0  0  0  0  0  0
  183.9020  179.4420  139.4190 C   0  0  0  0  0  3  0  0  0  0  0  0
  182.5940  179.4220  138.9280 C   0  0  0  0  0  3  0  0  0  0  0  0
  182.1270  177.4550  140.2560 C   0  0  0  0  0  3  0  0  0  0  0  0
  183.4360  177.4750  140.7460 C   0  0  0  0  0  3  0  0  0  0  0  0
  1  9  1  0  0  0  0
  1  7  1  0  0  0  0
  2 10  2  0  0  0  0
  2  4  1  0  0  0  0
  3 10  1  0  0  0  0
  4 12  2  0  0  0  0
  5  6  1  0  0  0  0
  6 11  1  0  0  0  0
  7  2  1  0  0  0  0
  8 12  1  0  0  0  0
  8 20  1  0  0  0  0
  9 15  2  0  0  0  0
 10  8  1  0  0  0  0
 11 15  1  0  0  0  0
 13 14  1  0  0  0  0
 13  6  2  0  0  0  0
 14  9  1  0  0  0  0
 15  3  1  0  0  0  0
 16 20  2  0  0  0  0
 16 21  1  0  0  0  0
 17 18  1  0  0  0  0
 19 18  2  0  0  0  0
 20 19  1  0  0  0  0
 21 17  2  0  0  0  0
 22 26  1  0  0  0  0
 23 27  1  0  0  0  0
 23  7  1  0  0  0  0
 24 23  2  0  0  0  0
 25 22  2  0  0  0  0
 25 24  1  0  0  0  0
 26 27  2  0  0  0  0
M  END
>  <MODEL>
4

>  <REMARK>
 VINA RESULT:      -8.8      2.495      5.883
  Name = 
  2 active torsions:
  status: ('A' for Active; 'I' for Inactive)
    1  A    between atoms: C_9  and  N_15
    2  A    between atoms: C_14  and  N_17
                            x       y       z     vdW  Elec       q    Type
                         _______ _______ _______ _____ _____    ______ ____

>  <TORSDO>
F 2

$$$$
=
 OpenBabel11052413523D

 27 31  0  0  0  0  0  0  0  0999 V2000
  186.1460  178.6280  140.7130 C   0  0  0  0  0  2  0  0  0  0  0  0
  185.4880  178.4080  143.1040 C   0  0  0  0  0  0  0  0  0  0  0  0
  187.7100  177.4300  143.1260 O   0  0  0  0  0  0  0  0  0  0  0  0
  184.5770  178.8860  144.0850 N   0  0  0  0  0  0  0  0  0  0  0  0
  190.7360  176.0030  139.7220 F   0  0  0  0  0  0  0  0  0  0  0  0
  189.7650  176.8750  140.0840 C   0  0  0  0  0  0  0  0  0  0  0  0
  185.1740  178.2830  141.7100 N   0  0  0  0  0  0  0  0  0  0  0  0
  186.4320  178.2550  145.0970 N   0  0  0  0  0  0  0  0  0  0  0  0
  187.4460  178.3340  140.7490 C   0  0  0  0  0  0  0  0  0  0  0  0
  186.5900  178.0300  143.7000 C   0  0  0  0  0  0  0  0  0  0  0  0
  189.2100  176.8210  141.4490 C   0  0  0  0  0  2  0  0  0  0  0  0
  185.1630  178.8040  145.3630 N   0  0  0  0  0  0  0  0  0  0  0  0
  189.2980  177.7530  139.1930 C   0  0  0  0  0  3  0  0  0  0  0  0
  188.2660  178.7800  139.5710 C   0  0  0  0  0  2  0  0  0  0  0  0
  188.1140  177.5070  141.7910 C   0  0  0  0  0  0  0  0  0  0  0  0
  187.0770  178.2530  147.4700 C   0  0  0  0  0  3  0  0  0  0  0  0
  189.2600  177.4720  148.1670 C   0  0  0  0  0  3  0  0  0  0  0  0
  189.5880  177.2020  146.8360 C   0  0  0  0  0  3  0  0  0  0  0  0
  188.6590  177.4580  145.8220 C   0  0  0  0  0  3  0  0  0  0  0  0
  187.3950  177.9850  146.1300 C   0  0  0  0  0  0  0  0  0  0  0  0
  188.0040  177.9970  148.4840 C   0  0  0  0  0  3  0  0  0  0  0  0
  181.1420  177.7640  140.4410 C   0  0  0  0  0  3  0  0  0  0  0  0
  183.8040  178.0940  141.2930 C   0  0  0  0  0  0  0  0  0  0  0  0
  183.4940  177.2420  140.2180 C   0  0  0  0  0  3  0  0  0  0  0  0
  182.1720  177.0750  139.7970 C   0  0  0  0  0  3  0  0  0  0  0  0
  181.4340  178.6220  141.5030 C   0  0  0  0  0  3  0  0  0  0  0  0
  182.7560  178.7880  141.9250 C   0  0  0  0  0  3  0  0  0  0  0  0
  1  9  1  0  0  0  0
  1  7  1  0  0  0  0
  2 10  2  0  0  0  0
  2  4  1  0  0  0  0
  3 10  1  0  0  0  0
  4 12  2  0  0  0  0
  5  6  1  0  0  0  0
  6 11  1  0  0  0  0
  7  2  1  0  0  0  0
  8 12  1  0  0  0  0
  8 20  1  0  0  0  0
  9 15  2  0  0  0  0
 10  8  1  0  0  0  0
 11 15  1  0  0  0  0
 13 14  1  0  0  0  0
 13  6  2  0  0  0  0
 14  9  1  0  0  0  0
 15  3  1  0  0  0  0
 16 21  1  0  0  0  0
 17 21  2  0  0  0  0
 18 17  1  0  0  0  0
 19 20  1  0  0  0  0
 19 18  2  0  0  0  0
 20 16  2  0  0  0  0
 22 26  1  0  0  0  0
 23  7  1  0  0  0  0
 23 27  1  0  0  0  0
 24 23  2  0  0  0  0
 25 24  1  0  0  0  0
 25 22  2  0  0  0  0
 26 27  2  0  0  0  0
M  END
>  <MODEL>
5

>  <REMARK>
 VINA RESULT:      -8.7      2.474      6.143
  Name = 
  2 active torsions:
  status: ('A' for Active; 'I' for Inactive)
    1  A    between atoms: C_9  and  N_15
    2  A    between atoms: C_14  and  N_17
                            x       y       z     vdW  Elec       q    Type
                         _______ _______ _______ _____ _____    ______ ____

>  <TORSDO>
F 2

$$$$
=
 OpenBabel11052413523D

 27 31  0  0  0  0  0  0  0  0999 V2000
  188.6020  176.7000  144.0410 C   0  0  0  0  0  2  0  0  0  0  0  0
  186.3590  177.7790  144.1060 C   0  0  0  0  0  0  0  0  0  0  0  0
  187.0570  178.2580  141.8300 O   0  0  0  0  0  0  0  0  0  0  0  0
  185.1330  177.8190  144.8240 N   0  0  0  0  0  0  0  0  0  0  0  0
  191.2090  177.9280  139.4990 F   0  0  0  0  0  0  0  0  0  0  0  0
  190.4080  177.4220  140.4660 C   0  0  0  0  0  0  0  0  0  0  0  0
  187.6350  177.5220  144.7090 N   0  0  0  0  0  0  0  0  0  0  0  0
  184.7350  178.3570  142.7210 N   0  0  0  0  0  0  0  0  0  0  0  0
  188.8930  176.7290  142.7410 C   0  0  0  0  0  0  0  0  0  0  0  0
  186.1280  178.0990  142.8580 C   0  0  0  0  0  0  0  0  0  0  0  0
  189.0720  178.0070  140.6850 C   0  0  0  0  0  2  0  0  0  0  0  0
  184.0820  178.1780  143.9570 N   0  0  0  0  0  0  0  0  0  0  0  0
  190.8460  176.4200  141.2320 C   0  0  0  0  0  3  0  0  0  0  0  0
  189.9660  175.7860  142.2730 C   0  0  0  0  0  2  0  0  0  0  0  0
  188.3320  177.6910  141.7530 C   0  0  0  0  0  0  0  0  0  0  0  0
  182.6410  178.6540  141.4680 C   0  0  0  0  0  3  0  0  0  0  0  0
  182.6570  179.4780  139.1920 C   0  0  0  0  0  3  0  0  0  0  0  0
  184.0510  179.5680  139.2350 C   0  0  0  0  0  3  0  0  0  0  0  0
  184.7390  179.2010  140.3960 C   0  0  0  0  0  3  0  0  0  0  0  0
  184.0400  178.7400  141.5230 C   0  0  0  0  0  0  0  0  0  0  0  0
  181.9520  179.0220  140.3080 C   0  0  0  0  0  3  0  0  0  0  0  0
  188.2590  178.3970  148.8300 C   0  0  0  0  0  3  0  0  0  0  0  0
  187.8500  177.8370  146.1020 C   0  0  0  0  0  0  0  0  0  0  0  0
  189.0920  177.5820  146.7100 C   0  0  0  0  0  3  0  0  0  0  0  0
  189.2970  177.8630  148.0630 C   0  0  0  0  0  3  0  0  0  0  0  0
  187.0160  178.6480  148.2440 C   0  0  0  0  0  3  0  0  0  0  0  0
  186.8120  178.3660  146.8900 C   0  0  0  0  0  3  0  0  0  0  0  0
  1  7  1  0  0  0  0
  2  7  1  0  0  0  0
  2  4  1  0  0  0  0
  3 10  1  0  0  0  0
  5  6  1  0  0  0  0
  6 11  1  0  0  0  0
  6 13  2  0  0  0  0
  7 23  1  0  0  0  0
  8 10  1  0  0  0  0
  8 12  1  0  0  0  0
  9  1  1  0  0  0  0
 10  2  2  0  0  0  0
 11 15  1  0  0  0  0
 12  4  2  0  0  0  0
 13 14  1  0  0  0  0
 14  9  1  0  0  0  0
 15  3  1  0  0  0  0
 15  9  2  0  0  0  0
 16 20  1  0  0  0  0
 17 18  2  0  0  0  0
 17 21  1  0  0  0  0
 18 19  1  0  0  0  0
 19 20  2  0  0  0  0
 20  8  1  0  0  0  0
 21 16  2  0  0  0  0
 23 24  2  0  0  0  0
 23 27  1  0  0  0  0
 24 25  1  0  0  0  0
 25 22  2  0  0  0  0
 26 22  1  0  0  0  0
 27 26  2  0  0  0  0
M  END
>  <MODEL>
6

>  <REMARK>
 VINA RESULT:      -8.6      2.699      5.663
  Name = 
  2 active torsions:
  status: ('A' for Active; 'I' for Inactive)
    1  A    between atoms: C_9  and  N_15
    2  A    between atoms: C_14  and  N_17
                            x       y       z     vdW  Elec       q    Type
                         _______ _______ _______ _____ _____    ______ ____

>  <TORSDO>
F 2

$$$$
=
 OpenBabel11052413523D

 27 31  0  0  0  0  0  0  0  0999 V2000
  187.0280  178.7650  141.1180 C   0  0  0  0  0  2  0  0  0  0  0  0
  187.0810  178.2010  143.5430 C   0  0  0  0  0  0  0  0  0  0  0  0
  189.0170  176.9850  142.7240 O   0  0  0  0  0  0  0  0  0  0  0  0
  186.5940  178.5990  144.8170 N   0  0  0  0  0  0  0  0  0  0  0  0
  190.6180  175.8470  138.3740 F   0  0  0  0  0  0  0  0  0  0  0  0
  189.9550  176.7460  139.1390 C   0  0  0  0  0  0  0  0  0  0  0  0
  186.3520  178.3630  142.3180 N   0  0  0  0  0  0  0  0  0  0  0  0
  188.5360  177.5890  145.0910 N   0  0  0  0  0  0  0  0  0  0  0  0
  188.2120  178.3220  140.6980 C   0  0  0  0  0  0  0  0  0  0  0  0
  188.2320  177.5990  143.7000 C   0  0  0  0  0  0  0  0  0  0  0  0
  189.8290  176.5150  140.5900 C   0  0  0  0  0  2  0  0  0  0  0  0
  187.5110  178.2250  145.8190 N   0  0  0  0  0  0  0  0  0  0  0  0
  189.3960  177.8160  138.5690 C   0  0  0  0  0  3  0  0  0  0  0  0
  188.7080  178.8720  139.3900 C   0  0  0  0  0  2  0  0  0  0  0  0
  189.0130  177.2510  141.3520 C   0  0  0  0  0  0  0  0  0  0  0  0
  189.7410  176.8700  147.1100 C   0  0  0  0  0  3  0  0  0  0  0  0
  191.9740  175.9470  146.9650 C   0  0  0  0  0  3  0  0  0  0  0  0
  191.9480  176.1010  145.5770 C   0  0  0  0  0  3  0  0  0  0  0  0
  190.8170  176.6410  144.9560 C   0  0  0  0  0  3  0  0  0  0  0  0
  189.7040  177.0300  145.7160 C   0  0  0  0  0  0  0  0  0  0  0  0
  190.8710  176.3310  147.7320 C   0  0  0  0  0  3  0  0  0  0  0  0
  182.0980  178.5570  142.3640 C   0  0  0  0  0  3  0  0  0  0  0  0
  184.9090  178.4110  142.3390 C   0  0  0  0  0  0  0  0  0  0  0  0
  184.1690  178.2240  141.1580 C   0  0  0  0  0  3  0  0  0  0  0  0
  182.7730  178.2920  141.1700 C   0  0  0  0  0  3  0  0  0  0  0  0
  182.8180  178.7550  143.5440 C   0  0  0  0  0  3  0  0  0  0  0  0
  184.2140  178.6860  143.5310 C   0  0  0  0  0  3  0  0  0  0  0  0
  1  7  1  0  0  0  0
  2 10  2  0  0  0  0
  2  4  1  0  0  0  0
  3 10  1  0  0  0  0
  4 12  2  0  0  0  0
  5  6  1  0  0  0  0
  6 11  1  0  0  0  0
  7 23  1  0  0  0  0
  7  2  1  0  0  0  0
  8 20  1  0  0  0  0
  8 12  1  0  0  0  0
  9  1  1  0  0  0  0
  9 15  2  0  0  0  0
 10  8  1  0  0  0  0
 11 15  1  0  0  0  0
 13  6  2  0  0  0  0
 13 14  1  0  0  0  0
 14  9  1  0  0  0  0
 15  3  1  0  0  0  0
 16 21  1  0  0  0  0
 17 21  2  0  0  0  0
 18 17  1  0  0  0  0
 19 18  2  0  0  0  0
 19 20  1  0  0  0  0
 20 16  2  0  0  0  0
 22 26  1  0  0  0  0
 23 27  1  0  0  0  0
 24 25  1  0  0  0  0
 24 23  2  0  0  0  0
 25 22  2  0  0  0  0
 27 26  2  0  0  0  0
M  END
>  <MODEL>
7

>  <REMARK>
 VINA RESULT:      -8.5      2.416      6.719
  Name = 
  2 active torsions:
  status: ('A' for Active; 'I' for Inactive)
    1  A    between atoms: C_9  and  N_15
    2  A    between atoms: C_14  and  N_17
                            x       y       z     vdW  Elec       q    Type
                         _______ _______ _______ _____ _____    ______ ____

>  <TORSDO>
F 2

$$$$
=
 OpenBabel11052413523D

 27 31  0  0  0  0  0  0  0  0999 V2000
  183.1460  179.0030  142.8510 C   0  0  0  0  0  2  0  0  0  0  0  0
  185.2710  178.6160  141.6110 C   0  0  0  0  0  0  0  0  0  0  0  0
  183.6370  177.7110  140.0590 O   0  0  0  0  0  0  0  0  0  0  0  0
  186.6360  179.0030  141.5390 N   0  0  0  0  0  0  0  0  0  0  0  0
  179.0090  176.5940  140.3980 F   0  0  0  0  0  0  0  0  0  0  0  0
  180.0120  177.4100  140.8020 C   0  0  0  0  0  0  0  0  0  0  0  0
  184.5130  178.5660  142.8280 N   0  0  0  0  0  0  0  0  0  0  0  0
  185.9780  178.3720  139.5310 N   0  0  0  0  0  0  0  0  0  0  0  0
  182.2260  178.7500  141.9210 C   0  0  0  0  0  0  0  0  0  0  0  0
  184.8760  178.2380  140.4220 C   0  0  0  0  0  0  0  0  0  0  0  0
  181.3570  177.2540  140.2180 C   0  0  0  0  0  2  0  0  0  0  0  0
  187.1060  178.8630  140.2190 N   0  0  0  0  0  0  0  0  0  0  0  0
  179.7810  178.3250  141.7470 C   0  0  0  0  0  3  0  0  0  0  0  0
  180.8480  179.2930  142.1780 C   0  0  0  0  0  2  0  0  0  0  0  0
  182.4220  177.8820  140.7270 C   0  0  0  0  0  0  0  0  0  0  0  0
  187.1010  178.4380  137.3440 C   0  0  0  0  0  3  0  0  0  0  0  0
  186.0510  177.4980  135.3760 C   0  0  0  0  0  3  0  0  0  0  0  0
  184.9440  177.1280  136.1430 C   0  0  0  0  0  3  0  0  0  0  0  0
  184.9170  177.4130  137.5120 C   0  0  0  0  0  3  0  0  0  0  0  0
  185.9950  178.0700  138.1250 C   0  0  0  0  0  0  0  0  0  0  0  0
  187.1300  178.1530  135.9760 C   0  0  0  0  0  3  0  0  0  0  0  0
  186.5210  178.0070  146.5420 C   0  0  0  0  0  3  0  0  0  0  0  0
  185.1870  178.3590  144.0890 C   0  0  0  0  0  0  0  0  0  0  0  0
  184.6450  178.8710  145.2810 C   0  0  0  0  0  3  0  0  0  0  0  0
  185.3050  178.6930  146.5000 C   0  0  0  0  0  3  0  0  0  0  0  0
  187.0780  177.5010  145.3650 C   0  0  0  0  0  3  0  0  0  0  0  0
  186.4160  177.6790  144.1460 C   0  0  0  0  0  3  0  0  0  0  0  0
  2  7  1  0  0  0  0
  3 10  1  0  0  0  0
  3 15  1  0  0  0  0
  4  2  1  0  0  0  0
  5  6  1  0  0  0  0
  6 13  2  0  0  0  0
  7  1  1  0  0  0  0
  7 23  1  0  0  0  0
  8 12  1  0  0  0  0
  8 10  1  0  0  0  0
  9 14  1  0  0  0  0
  9  1  1  0  0  0  0
 10  2  2  0  0  0  0
 11 15  1  0  0  0  0
 11  6  1  0  0  0  0
 12  4  2  0  0  0  0
 13 14  1  0  0  0  0
 15  9  2  0  0  0  0
 16 20  1  0  0  0  0
 17 21  1  0  0  0  0
 17 18  2  0  0  0  0
 18 19  1  0  0  0  0
 19 20  2  0  0  0  0
 20  8  1  0  0  0  0
 21 16  2  0  0  0  0
 23 27  2  0  0  0  0
 23 24  1  0  0  0  0
 24 25  2  0  0  0  0
 25 22  1  0  0  0  0
 26 22  2  0  0  0  0
 27 26  1  0  0  0  0
M  END
>  <MODEL>
8

>  <REMARK>
 VINA RESULT:      -8.2      3.997      7.924
  Name = 
  2 active torsions:
  status: ('A' for Active; 'I' for Inactive)
    1  A    between atoms: C_9  and  N_15
    2  A    between atoms: C_14  and  N_17
                            x       y       z     vdW  Elec       q    Type
                         _______ _______ _______ _____ _____    ______ ____

>  <TORSDO>
F 2

$$$$
=
 OpenBabel11052413523D

 27 31  0  0  0  0  0  0  0  0999 V2000
  188.3680  177.9730  139.9760 C   0  0  0  0  0  2  0  0  0  0  0  0
  190.7350  177.2180  140.1440 C   0  0  0  0  0  0  0  0  0  0  0  0
  190.0230  176.1130  138.1030 O   0  0  0  0  0  0  0  0  0  0  0  0
  191.9810  177.5030  140.7660 N   0  0  0  0  0  0  0  0  0  0  0  0
  185.7810  175.3600  136.0490 F   0  0  0  0  0  0  0  0  0  0  0  0
  186.5430  176.1810  136.8100 C   0  0  0  0  0  0  0  0  0  0  0  0
  189.4600  177.4620  140.7540 N   0  0  0  0  0  0  0  0  0  0  0  0
  192.3690  176.5160  138.8320 N   0  0  0  0  0  0  0  0  0  0  0  0
  188.0360  177.5900  138.7440 C   0  0  0  0  0  0  0  0  0  0  0  0
  190.9600  176.6310  138.9970 C   0  0  0  0  0  0  0  0  0  0  0  0
  187.9520  175.8320  137.0710 C   0  0  0  0  0  2  0  0  0  0  0  0
  193.0380  177.0700  139.9410 N   0  0  0  0  0  0  0  0  0  0  0  0
  186.0050  177.2810  137.3410 C   0  0  0  0  0  3  0  0  0  0  0  0
  186.8310  178.2530  138.1380 C   0  0  0  0  0  2  0  0  0  0  0  0
  188.6830  176.4870  137.9800 C   0  0  0  0  0  0  0  0  0  0  0  0
  193.1470  174.5390  137.5940 C   0  0  0  0  0  3  0  0  0  0  0  0
  194.4200  174.7710  135.5480 C   0  0  0  0  0  3  0  0  0  0  0  0
  194.3450  176.1620  135.6600 C   0  0  0  0  0  3  0  0  0  0  0  0
  193.6700  176.7410  136.7390 C   0  0  0  0  0  3  0  0  0  0  0  0
  193.0640  175.9340  137.7160 C   0  0  0  0  0  0  0  0  0  0  0  0
  193.8210  173.9600  136.5140 C   0  0  0  0  0  3  0  0  0  0  0  0
  189.0660  177.5450  144.9940 C   0  0  0  0  0  3  0  0  0  0  0  0
  189.3400  177.4770  142.1940 C   0  0  0  0  0  0  0  0  0  0  0  0
  188.3230  176.7460  142.8340 C   0  0  0  0  0  3  0  0  0  0  0  0
  188.1890  176.7770  144.2250 C   0  0  0  0  0  3  0  0  0  0  0  0
  190.0750  178.2840  144.3730 C   0  0  0  0  0  3  0  0  0  0  0  0
  190.2090  178.2530  142.9810 C   0  0  0  0  0  3  0  0  0  0  0  0
  1  7  1  0  0  0  0
  2  7  1  0  0  0  0
  2  4  1  0  0  0  0
  3 10  1  0  0  0  0
  5  6  1  0  0  0  0
  6 11  1  0  0  0  0
  6 13  2  0  0  0  0
  7 23  1  0  0  0  0
  8 10  1  0  0  0  0
  8 12  1  0  0  0  0
  9  1  1  0  0  0  0
 10  2  2  0  0  0  0
 11 15  1  0  0  0  0
 12  4  2  0  0  0  0
 13 14  1  0  0  0  0
 14  9  1  0  0  0  0
 15  3  1  0  0  0  0
 15  9  2  0  0  0  0
 16 20  1  0  0  0  0
 17 18  2  0  0  0  0
 17 21  1  0  0  0  0
 18 19  1  0  0  0  0
 19 20  2  0  0  0  0
 20  8  1  0  0  0  0
 21 16  2  0  0  0  0
 23 24  2  0  0  0  0
 23 27  1  0  0  0  0
 24 25  1  0  0  0  0
 25 22  2  0  0  0  0
 26 22  1  0  0  0  0
 27 26  2  0  0  0  0
M  END
>  <MODEL>
9

>  <REMARK>
 VINA RESULT:      -8.2      3.839      8.496
  Name = 
  2 active torsions:
  status: ('A' for Active; 'I' for Inactive)
    1  A    between atoms: C_9  and  N_15
    2  A    between atoms: C_14  and  N_17
                            x       y       z     vdW  Elec       q    Type
                         _______ _______ _______ _____ _____    ______ ____

>  <TORSDO>
F 2

$$$$
