=
 OpenBabel11052414233D

 34 36  0  0  1  0  0  0  0  0999 V2000
  189.4340  177.3690  142.5120 C   0  0  1  0  0  3  0  0  0  0  0  0
  190.4350  177.8570  143.5490 C   0  0  2  0  0  3  0  0  0  0  0  0
  189.9280  177.6320  145.6840 N   0  0  0  0  0  0  0  0  0  0  0  0
  188.8660  178.2260  147.6520 O   0  0  0  0  0  0  0  0  0  0  0  0
  190.7160  176.8970  147.9070 O   0  0  0  0  0  0  0  0  0  0  0  0
  192.7670  175.9680  148.3120 O   0  0  0  0  0  0  0  0  0  0  0  0
  190.5650  176.8410  144.6320 C   0  0  2  0  0  3  0  0  0  0  0  0
  189.7940  177.5790  147.1010 C   0  0  0  0  0  0  0  0  0  0  0  0
  191.9670  175.5330  146.1320 C   0  0  0  0  0  2  0  0  0  0  0  0
  191.8410  176.1690  147.4840 C   0  0  0  0  0  0  0  0  0  0  0  0
  191.9990  176.5550  145.0140 C   0  0  0  0  0  2  0  0  0  0  0  0
  189.7240  178.6240  144.6180 C   0  0  0  0  0  2  0  0  0  0  0  0
  190.1150  176.6100  141.4740 N   0  0  0  0  0  2  0  0  0  0  0  0
  189.8860  176.8460  140.0830 C   0  0  0  0  0  0  0  0  0  0  0  0
  190.4520  176.1160  139.2290 O   0  0  0  0  0  0  0  0  0  0  0  0
  189.0280  177.9780  139.6270 C   0  0  0  0  0  2  0  0  0  0  0  0
  187.9810  177.4580  138.6590 C   0  0  0  0  0  2  0  0  0  0  0  0
  185.4400  177.5690  137.1430 C   0  0  0  0  0  1  0  0  0  0  0  0
  187.8210  178.4060  137.4700 C   0  0  2  0  0  3  0  0  0  0  0  0
  186.7600  177.9090  136.4720 C   0  0  1  0  0  3  0  0  0  0  0  0
  188.4490  177.0960  134.9700 O   0  0  0  0  0  0  0  0  0  0  0  0
  189.4660  177.3160  135.9170 C   0  0  0  0  0  2  0  0  0  0  0  0
  189.1590  178.5720  136.7410 C   0  0  0  0  0  2  0  0  0  0  0  0
  187.2980  176.7130  135.6830 C   0  0  0  0  0  2  0  0  0  0  0  0
  188.1680  176.3210  143.2930 S   0  0  0  0  0  0  0  0  0  0  0  0
  186.8920  177.6140  143.1820 C   0  0  0  0  0  2  0  0  0  0  0  0
  186.1800  177.7820  144.5220 C   0  0  0  0  0  2  0  0  0  0  0  0
  185.0450  178.8160  144.4890 C   0  0  1  0  0  3  0  0  0  0  0  0
  184.2660  179.2290  142.2340 O   0  0  0  0  0  1  0  0  0  0  0  0
  182.6000  178.9070  143.9120 C   0  0  0  0  0  1  0  0  0  0  0  0
  183.9870  178.5410  143.4170 C   0  0  2  0  0  3  0  0  0  0  0  0
  184.4480  178.9710  145.7430 O   0  0  0  0  0  0  0  0  0  0  0  0
  185.4300  178.5950  146.6620 C   0  0  0  0  0  2  0  0  0  0  0  0
  185.8090  179.7060  147.4140 O   0  0  0  0  0  1  0  0  0  0  0  0
  1 13  1  6  0  0  0
  1 25  1  0  0  0  0
  2  1  1  6  0  0  0
  2 12  1  0  0  0  0
  2  7  1  0  0  0  0
  3  8  1  0  0  0  0
  7 11  1  1  0  0  0
  7  3  1  0  0  0  0
  8  4  2  0  0  0  0
  8  5  1  0  0  0  0
  9 10  1  0  0  0  0
 10  5  1  0  0  0  0
 10  6  2  0  0  0  0
 11  9  1  0  0  0  0
 12  3  1  0  0  0  0
 14 13  1  0  0  0  0
 15 14  2  0  0  0  0
 16 14  1  0  0  0  0
 17 16  1  0  0  0  0
 19 17  1  1  0  0  0
 20 18  1  1  0  0  0
 20 19  1  0  0  0  0
 21 24  1  0  0  0  0
 21 22  1  0  0  0  0
 22 23  1  0  0  0  0
 23 19  1  0  0  0  0
 24 20  1  0  0  0  0
 26 25  1  0  0  0  0
 26 27  1  0  0  0  0
 28 27  1  1  0  0  0
 28 32  1  0  0  0  0
 29 31  1  0  0  0  0
 31 30  1  1  0  0  0
 31 28  1  0  0  0  0
 32 33  1  0  0  0  0
 33 34  1  0  0  0  0
M  END
>  <MODEL>
1

>  <REMARK>
 VINA RESULT:      -7.8      0.000      0.000
  Name = 
  12 active torsions:
  status: ('A' for Active; 'I' for Inactive)
    1  A    between atoms: O_1  and  C_15
    2  A    between atoms: O_1  and  C_24
    3  A    between atoms: C_2  and  C_15
    4  A    between atoms: C_2  and  C_25
    5  A    between atoms: C_3  and  C_13
    6  A    between atoms: C_3  and  C_17
    7  A    between atoms: C_4  and  C_31
    8  A    between atoms: N_5  and  C_31
    9  A    between atoms: S_10  and  C_25
   10  A    between atoms: S_10  and  C_31
   11  A    between atoms: C_15  and  C_19
   12  A    between atoms: C_17  and  C_18
                            x       y       z     vdW  Elec       q    Type
                         _______ _______ _______ _____ _____    ______ ____

>  <TORSDO>
F 12

$$$$
=
 OpenBabel11052414233D

 34 36  0  0  1  0  0  0  0  0999 V2000
  189.6300  177.0000  141.8910 C   0  0  1  0  0  3  0  0  0  0  0  0
  188.8660  178.2170  142.3910 C   0  0  2  0  0  3  0  0  0  0  0  0
  186.8440  178.5900  141.5930 N   0  0  0  0  0  0  0  0  0  0  0  0
  185.3280  179.3300  140.0100 O   0  0  0  0  0  0  0  0  0  0  0  0
  184.4990  179.1420  142.1380 O   0  0  0  0  0  0  0  0  0  0  0  0
  183.6960  179.4260  144.2610 O   0  0  0  0  0  0  0  0  0  0  0  0
  187.4570  177.8350  142.6860 C   0  0  2  0  0  3  0  0  0  0  0  0
  185.5380  179.0040  141.2070 C   0  0  0  0  0  0  0  0  0  0  0  0
  185.5150  177.9220  144.1530 C   0  0  0  0  0  2  0  0  0  0  0  0
  184.5550  178.8830  143.5180 C   0  0  0  0  0  0  0  0  0  0  0  0
  186.9560  178.3690  144.0090 C   0  0  0  0  0  2  0  0  0  0  0  0
  188.2310  178.9260  141.2380 C   0  0  0  0  0  2  0  0  0  0  0  0
  190.8880  177.4090  141.2840 N   0  0  0  0  0  2  0  0  0  0  0  0
  191.2790  176.9790  139.9780 C   0  0  0  0  0  0  0  0  0  0  0  0
  192.4060  177.3100  139.5290 O   0  0  0  0  0  0  0  0  0  0  0  0
  190.3500  176.1890  139.1200 C   0  0  0  0  0  2  0  0  0  0  0  0
  189.7790  177.0860  138.0360 C   0  0  0  0  0  2  0  0  0  0  0  0
  189.7630  175.4810  135.5480 C   0  0  0  0  0  1  0  0  0  0  0  0
  188.4740  176.5110  137.4850 C   0  0  2  0  0  3  0  0  0  0  0  0
  188.5390  176.2790  135.9660 C   0  0  1  0  0  3  0  0  0  0  0  0
  187.2730  178.2730  135.5330 O   0  0  0  0  0  0  0  0  0  0  0  0
  187.3560  178.6760  136.8780 C   0  0  0  0  0  2  0  0  0  0  0  0
  187.3060  177.4530  137.8010 C   0  0  0  0  0  2  0  0  0  0  0  0
  188.4780  177.6170  135.2250 C   0  0  0  0  0  2  0  0  0  0  0  0
  189.9680  175.8530  143.2640 S   0  0  0  0  0  0  0  0  0  0  0  0
  191.5760  176.6210  143.6350 C   0  0  0  0  0  2  0  0  0  0  0  0
  191.4870  177.4680  144.9020 C   0  0  0  0  0  2  0  0  0  0  0  0
  190.5230  176.9010  145.9550 C   0  0  1  0  0  3  0  0  0  0  0  0
  191.7960  177.4070  147.9510 O   0  0  0  0  0  1  0  0  0  0  0  0
  192.2780  175.3420  146.8560 C   0  0  0  0  0  1  0  0  0  0  0  0
  191.2210  176.3720  147.2110 C   0  0  2  0  0  3  0  0  0  0  0  0
  189.5270  177.8200  146.2950 O   0  0  0  0  0  0  0  0  0  0  0  0
  188.5780  177.0820  147.0050 C   0  0  0  0  0  2  0  0  0  0  0  0
  187.7410  177.9530  147.7020 O   0  0  0  0  0  1  0  0  0  0  0  0
  1 13  1  1  0  0  0
  1 25  1  0  0  0  0
  2  1  1  6  0  0  0
  2  7  1  0  0  0  0
  3  7  1  0  0  0  0
  4  8  2  0  0  0  0
  5 10  1  0  0  0  0
  7 11  1  1  0  0  0
  8  3  1  0  0  0  0
  8  5  1  0  0  0  0
 10  9  1  0  0  0  0
 10  6  2  0  0  0  0
 11  9  1  0  0  0  0
 12  3  1  0  0  0  0
 12  2  1  0  0  0  0
 14 13  1  0  0  0  0
 15 14  2  0  0  0  0
 16 14  1  0  0  0  0
 17 16  1  0  0  0  0
 19 23  1  0  0  0  0
 19 17  1  6  0  0  0
 20 18  1  1  0  0  0
 20 19  1  0  0  0  0
 21 22  1  0  0  0  0
 22 23  1  0  0  0  0
 24 21  1  0  0  0  0
 24 20  1  0  0  0  0
 25 26  1  0  0  0  0
 26 27  1  0  0  0  0
 28 27  1  6  0  0  0
 28 32  1  0  0  0  0
 28 31  1  0  0  0  0
 31 30  1  6  0  0  0
 31 29  1  0  0  0  0
 32 33  1  0  0  0  0
 33 34  1  0  0  0  0
M  END
>  <MODEL>
2

>  <REMARK>
 VINA RESULT:      -7.6      1.672      5.477
  Name = 
  12 active torsions:
  status: ('A' for Active; 'I' for Inactive)
    1  A    between atoms: O_1  and  C_15
    2  A    between atoms: O_1  and  C_24
    3  A    between atoms: C_2  and  C_15
    4  A    between atoms: C_2  and  C_25
    5  A    between atoms: C_3  and  C_13
    6  A    between atoms: C_3  and  C_17
    7  A    between atoms: C_4  and  C_31
    8  A    between atoms: N_5  and  C_31
    9  A    between atoms: S_10  and  C_25
   10  A    between atoms: S_10  and  C_31
   11  A    between atoms: C_15  and  C_19
   12  A    between atoms: C_17  and  C_18
                            x       y       z     vdW  Elec       q    Type
                         _______ _______ _______ _____ _____    ______ ____

>  <TORSDO>
F 12

$$$$
=
 OpenBabel11052414233D

 34 36  0  0  1  0  0  0  0  0999 V2000
  186.9050  177.6460  142.9300 C   0  0  1  0  0  3  0  0  0  0  0  0
  187.6080  176.6570  143.8490 C   0  0  2  0  0  3  0  0  0  0  0  0
  189.8090  176.7240  143.9780 N   0  0  0  0  0  0  0  0  0  0  0  0
  191.9580  176.2850  143.2420 O   0  0  0  0  0  0  0  0  0  0  0  0
  191.7700  176.7450  145.4790 O   0  0  0  0  0  0  0  0  0  0  0  0
  191.6520  176.7400  147.7640 O   0  0  0  0  0  0  0  0  0  0  0  0
  188.6640  177.3640  144.6270 C   0  0  2  0  0  3  0  0  0  0  0  0
  191.2100  176.6040  144.2020 C   0  0  0  0  0  0  0  0  0  0  0  0
  189.7940  177.7820  146.7430 C   0  0  0  0  0  2  0  0  0  0  0  0
  191.0950  177.0410  146.6760 C   0  0  0  0  0  0  0  0  0  0  0  0
  188.6590  177.0130  146.0970 C   0  0  0  0  0  2  0  0  0  0  0  0
  188.7890  176.0660  143.1480 C   0  0  0  0  0  2  0  0  0  0  0  0
  185.9620  178.4550  143.6890 N   0  0  0  0  0  2  0  0  0  0  0  0
  184.6770  178.8090  143.1750 C   0  0  0  0  0  0  0  0  0  0  0  0
  183.9280  179.5650  143.8460 O   0  0  0  0  0  0  0  0  0  0  0  0
  184.1880  178.2550  141.8790 C   0  0  0  0  0  2  0  0  0  0  0  0
  182.7130  178.5750  141.7180 C   0  0  0  0  0  2  0  0  0  0  0  0
  180.2070  179.9430  140.9360 C   0  0  0  0  0  1  0  0  0  0  0  0
  182.3570  178.7700  140.2440 C   0  0  2  0  0  3  0  0  0  0  0  0
  180.8390  178.9010  140.0280 C   0  0  1  0  0  3  0  0  0  0  0  0
  180.6780  176.6300  139.2620 O   0  0  0  0  0  0  0  0  0  0  0  0
  182.0060  176.3580  139.6370 C   0  0  0  0  0  2  0  0  0  0  0  0
  182.8830  177.5950  139.4110 C   0  0  0  0  0  2  0  0  0  0  0  0
  180.1620  177.5400  140.2030 C   0  0  0  0  0  2  0  0  0  0  0  0
  188.1190  178.7350  142.1220 S   0  0  0  0  0  0  0  0  0  0  0  0
  187.5550  178.2820  140.4520 C   0  0  0  0  0  2  0  0  0  0  0  0
  188.7440  177.9410  139.5580 C   0  0  0  0  0  2  0  0  0  0  0  0
  188.3410  177.3720  138.1900 C   0  0  1  0  0  3  0  0  0  0  0  0
  188.9460  179.6060  137.4810 O   0  0  0  0  0  1  0  0  0  0  0  0
  187.3080  178.4630  136.1740 C   0  0  0  0  0  1  0  0  0  0  0  0
  188.5580  178.3440  137.0260 C   0  0  2  0  0  3  0  0  0  0  0  0
  188.9660  176.1480  137.9330 O   0  0  0  0  0  0  0  0  0  0  0  0
  190.3020  176.3410  138.2900 C   0  0  0  0  0  2  0  0  0  0  0  0
  190.9350  175.1020  138.3980 O   0  0  0  0  0  1  0  0  0  0  0  0
  1 25  1  1  0  0  0
  1 13  1  0  0  0  0
  2  1  1  6  0  0  0
  2  7  1  0  0  0  0
  3  8  1  0  0  0  0
  3  7  1  0  0  0  0
  4  8  2  0  0  0  0
  5 10  1  0  0  0  0
  7 11  1  1  0  0  0
  8  5  1  0  0  0  0
 10  9  1  0  0  0  0
 10  6  2  0  0  0  0
 11  9  1  0  0  0  0
 12  2  1  0  0  0  0
 12  3  1  0  0  0  0
 14 13  1  0  0  0  0
 14 15  2  0  0  0  0
 16 14  1  0  0  0  0
 17 16  1  0  0  0  0
 19 17  1  1  0  0  0
 20 24  1  0  0  0  0
 20 19  1  0  0  0  0
 20 18  1  1  0  0  0
 21 22  1  0  0  0  0
 21 24  1  0  0  0  0
 23 22  1  0  0  0  0
 23 19  1  0  0  0  0
 26 25  1  0  0  0  0
 27 26  1  0  0  0  0
 28 27  1  1  0  0  0
 31 30  1  1  0  0  0
 31 29  1  0  0  0  0
 31 28  1  0  0  0  0
 32 28  1  0  0  0  0
 32 33  1  0  0  0  0
 33 34  1  0  0  0  0
M  END
>  <MODEL>
3

>  <REMARK>
 VINA RESULT:      -7.2      2.632      6.250
  Name = 
  12 active torsions:
  status: ('A' for Active; 'I' for Inactive)
    1  A    between atoms: O_1  and  C_15
    2  A    between atoms: O_1  and  C_24
    3  A    between atoms: C_2  and  C_15
    4  A    between atoms: C_2  and  C_25
    5  A    between atoms: C_3  and  C_13
    6  A    between atoms: C_3  and  C_17
    7  A    between atoms: C_4  and  C_31
    8  A    between atoms: N_5  and  C_31
    9  A    between atoms: S_10  and  C_25
   10  A    between atoms: S_10  and  C_31
   11  A    between atoms: C_15  and  C_19
   12  A    between atoms: C_17  and  C_18
                            x       y       z     vdW  Elec       q    Type
                         _______ _______ _______ _____ _____    ______ ____

>  <TORSDO>
F 12

$$$$
=
 OpenBabel11052414233D

 34 36  0  0  1  0  0  0  0  0999 V2000
  189.7460  177.0440  141.9940 C   0  0  1  0  0  3  0  0  0  0  0  0
  188.9790  178.2440  142.5320 C   0  0  2  0  0  3  0  0  0  0  0  0
  186.9320  178.6000  141.7910 N   0  0  0  0  0  0  0  0  0  0  0  0
  185.3650  179.3420  140.2590 O   0  0  0  0  0  0  0  0  0  0  0  0
  184.5950  179.1120  142.4040 O   0  0  0  0  0  0  0  0  0  0  0  0
  183.8440  179.3550  144.5520 O   0  0  0  0  0  0  0  0  0  0  0  0
  187.5830  177.8370  142.8560 C   0  0  2  0  0  3  0  0  0  0  0  0
  185.6110  179.0010  141.4450 C   0  0  0  0  0  0  0  0  0  0  0  0
  185.6790  177.8780  144.3750 C   0  0  0  0  0  2  0  0  0  0  0  0
  184.6900  178.8340  143.7790 C   0  0  0  0  0  0  0  0  0  0  0  0
  187.1100  178.3460  144.2000 C   0  0  0  0  0  2  0  0  0  0  0  0
  188.3050  178.9590  141.4050 C   0  0  0  0  0  2  0  0  0  0  0  0
  191.0780  177.4470  141.5690 N   0  0  0  0  0  2  0  0  0  0  0  0
  191.5070  177.3440  140.2100 C   0  0  0  0  0  0  0  0  0  0  0  0
  192.6920  177.6450  139.9100 O   0  0  0  0  0  0  0  0  0  0  0  0
  190.5590  176.9340  139.1340 C   0  0  0  0  0  2  0  0  0  0  0  0
  191.0910  175.6930  138.4390 C   0  0  0  0  0  2  0  0  0  0  0  0
  189.3540  174.8020  136.2140 C   0  0  0  0  0  1  0  0  0  0  0  0
  191.4610  175.9990  136.9880 C   0  0  2  0  0  3  0  0  0  0  0  0
  190.8480  174.9840  136.0070 C   0  0  1  0  0  3  0  0  0  0  0  0
  192.9390  173.8250  135.7840 O   0  0  0  0  0  0  0  0  0  0  0  0
  193.5170  174.5650  136.8310 C   0  0  0  0  0  2  0  0  0  0  0  0
  192.9850  176.0030  136.8190 C   0  0  0  0  0  2  0  0  0  0  0  0
  191.5820  173.6450  136.1070 C   0  0  0  0  0  2  0  0  0  0  0  0
  189.8860  175.7550  143.2720 S   0  0  0  0  0  0  0  0  0  0  0  0
  191.5170  176.3430  143.8220 C   0  0  0  0  0  2  0  0  0  0  0  0
  191.3730  177.3020  145.0000 C   0  0  0  0  0  2  0  0  0  0  0  0
  190.5270  176.7390  146.1520 C   0  0  1  0  0  3  0  0  0  0  0  0
  191.9370  177.2620  148.0500 O   0  0  0  0  0  1  0  0  0  0  0  0
  192.4290  175.2550  146.8570 C   0  0  0  0  0  1  0  0  0  0  0  0
  191.3550  176.2160  147.3290 C   0  0  2  0  0  3  0  0  0  0  0  0
  189.5720  177.6600  146.5920 O   0  0  0  0  0  0  0  0  0  0  0  0
  188.6660  176.9100  147.3450 C   0  0  0  0  0  2  0  0  0  0  0  0
  188.2650  177.6510  148.4570 O   0  0  0  0  0  1  0  0  0  0  0  0
  1 13  1  1  0  0  0
  1 25  1  0  0  0  0
  2  1  1  6  0  0  0
  2  7  1  0  0  0  0
  3  7  1  0  0  0  0
  4  8  2  0  0  0  0
  5 10  1  0  0  0  0
  7 11  1  1  0  0  0
  8  3  1  0  0  0  0
  8  5  1  0  0  0  0
 10  9  1  0  0  0  0
 10  6  2  0  0  0  0
 11  9  1  0  0  0  0
 12  3  1  0  0  0  0
 12  2  1  0  0  0  0
 14 13  1  0  0  0  0
 15 14  2  0  0  0  0
 16 14  1  0  0  0  0
 17 16  1  0  0  0  0
 19 17  1  1  0  0  0
 20 24  1  0  0  0  0
 20 18  1  1  0  0  0
 20 19  1  0  0  0  0
 21 24  1  0  0  0  0
 21 22  1  0  0  0  0
 23 22  1  0  0  0  0
 23 19  1  0  0  0  0
 25 26  1  0  0  0  0
 26 27  1  0  0  0  0
 28 27  1  6  0  0  0
 28 32  1  0  0  0  0
 28 31  1  0  0  0  0
 31 30  1  6  0  0  0
 31 29  1  0  0  0  0
 32 33  1  0  0  0  0
 33 34  1  0  0  0  0
M  END
>  <MODEL>
4

>  <REMARK>
 VINA RESULT:      -7.2      2.386      5.785
  Name = 
  12 active torsions:
  status: ('A' for Active; 'I' for Inactive)
    1  A    between atoms: O_1  and  C_15
    2  A    between atoms: O_1  and  C_24
    3  A    between atoms: C_2  and  C_15
    4  A    between atoms: C_2  and  C_25
    5  A    between atoms: C_3  and  C_13
    6  A    between atoms: C_3  and  C_17
    7  A    between atoms: C_4  and  C_31
    8  A    between atoms: N_5  and  C_31
    9  A    between atoms: S_10  and  C_25
   10  A    between atoms: S_10  and  C_31
   11  A    between atoms: C_15  and  C_19
   12  A    between atoms: C_17  and  C_18
                            x       y       z     vdW  Elec       q    Type
                         _______ _______ _______ _____ _____    ______ ____

>  <TORSDO>
F 12

$$$$
=
 OpenBabel11052414233D

 34 36  0  0  1  0  0  0  0  0999 V2000
  188.2770  177.3500  141.8970 C   0  0  1  0  0  3  0  0  0  0  0  0
  187.3310  178.5370  142.0160 C   0  0  2  0  0  3  0  0  0  0  0  0
  185.2530  178.2980  141.3160 N   0  0  0  0  0  0  0  0  0  0  0  0
  183.5880  178.2000  139.7130 O   0  0  0  0  0  0  0  0  0  0  0  0
  182.8650  178.6490  141.8410 O   0  0  0  0  0  0  0  0  0  0  0  0
  182.0870  179.5370  143.8000 O   0  0  0  0  0  0  0  0  0  0  0  0
  186.0170  178.0750  142.5440 C   0  0  2  0  0  3  0  0  0  0  0  0
  183.8850  178.3500  140.9260 C   0  0  0  0  0  0  0  0  0  0  0  0
  184.1320  178.3810  144.0550 C   0  0  0  0  0  2  0  0  0  0  0  0
  183.0040  178.9020  143.2160 C   0  0  0  0  0  0  0  0  0  0  0  0
  185.4710  178.9580  143.6430 C   0  0  0  0  0  2  0  0  0  0  0  0
  186.5520  178.6920  140.7490 C   0  0  0  0  0  2  0  0  0  0  0  0
  189.6450  177.8130  141.7180 N   0  0  0  0  0  2  0  0  0  0  0  0
  190.4950  177.2970  140.6910 C   0  0  0  0  0  0  0  0  0  0  0  0
  191.6900  177.6860  140.6230 O   0  0  0  0  0  0  0  0  0  0  0  0
  189.9730  176.3460  139.6670 C   0  0  0  0  0  2  0  0  0  0  0  0
  189.0620  177.0890  138.7070 C   0  0  0  0  0  2  0  0  0  0  0  0
  187.7850  178.8780  136.7240 C   0  0  0  0  0  1  0  0  0  0  0  0
  189.8480  177.6090  137.5030 C   0  0  2  0  0  3  0  0  0  0  0  0
  188.9290  177.9630  136.3210 C   0  0  1  0  0  3  0  0  0  0  0  0
  189.4840  175.9220  135.1830 O   0  0  0  0  0  0  0  0  0  0  0  0
  190.1630  175.4220  136.3090 C   0  0  0  0  0  2  0  0  0  0  0  0
  190.8730  176.5630  137.0480 C   0  0  0  0  0  2  0  0  0  0  0  0
  188.4030  176.6870  135.6610 C   0  0  0  0  0  2  0  0  0  0  0  0
  188.1830  176.3110  143.3890 S   0  0  0  0  0  0  0  0  0  0  0  0
  189.6010  177.1400  144.1720 C   0  0  0  0  0  2  0  0  0  0  0  0
  189.1290  178.0940  145.2660 C   0  0  0  0  0  2  0  0  0  0  0  0
  189.2880  177.5290  146.6850 C   0  0  1  0  0  3  0  0  0  0  0  0
  186.9000  177.9230  146.7190 O   0  0  0  0  0  1  0  0  0  0  0  0
  188.0630  178.1450  148.7910 C   0  0  0  0  0  1  0  0  0  0  0  0
  187.9720  177.4220  147.4610 C   0  0  2  0  0  3  0  0  0  0  0  0
  189.9600  176.3030  146.6830 O   0  0  0  0  0  0  0  0  0  0  0  0
  191.1170  176.5210  147.4330 C   0  0  0  0  0  2  0  0  0  0  0  0
  192.1850  176.7720  146.5730 O   0  0  0  0  0  1  0  0  0  0  0  0
  1 13  1  1  0  0  0
  1 25  1  0  0  0  0
  2  1  1  6  0  0  0
  2  7  1  0  0  0  0
  3  7  1  0  0  0  0
  4  8  2  0  0  0  0
  5 10  1  0  0  0  0
  7 11  1  1  0  0  0
  8  3  1  0  0  0  0
  8  5  1  0  0  0  0
 10  6  2  0  0  0  0
 10  9  1  0  0  0  0
 11  9  1  0  0  0  0
 12  3  1  0  0  0  0
 12  2  1  0  0  0  0
 14 13  1  0  0  0  0
 15 14  2  0  0  0  0
 16 14  1  0  0  0  0
 17 16  1  0  0  0  0
 19 17  1  1  0  0  0
 20 18  1  1  0  0  0
 20 19  1  0  0  0  0
 21 24  1  0  0  0  0
 21 22  1  0  0  0  0
 22 23  1  0  0  0  0
 23 19  1  0  0  0  0
 24 20  1  0  0  0  0
 25 26  1  0  0  0  0
 26 27  1  0  0  0  0
 28 27  1  6  0  0  0
 28 31  1  0  0  0  0
 29 31  1  0  0  0  0
 31 30  1  1  0  0  0
 32 28  1  0  0  0  0
 32 33  1  0  0  0  0
 34 33  1  0  0  0  0
M  END
>  <MODEL>
5

>  <REMARK>
 VINA RESULT:      -7.2      1.838      5.631
  Name = 
  12 active torsions:
  status: ('A' for Active; 'I' for Inactive)
    1  A    between atoms: O_1  and  C_15
    2  A    between atoms: O_1  and  C_24
    3  A    between atoms: C_2  and  C_15
    4  A    between atoms: C_2  and  C_25
    5  A    between atoms: C_3  and  C_13
    6  A    between atoms: C_3  and  C_17
    7  A    between atoms: C_4  and  C_31
    8  A    between atoms: N_5  and  C_31
    9  A    between atoms: S_10  and  C_25
   10  A    between atoms: S_10  and  C_31
   11  A    between atoms: C_15  and  C_19
   12  A    between atoms: C_17  and  C_18
                            x       y       z     vdW  Elec       q    Type
                         _______ _______ _______ _____ _____    ______ ____

>  <TORSDO>
F 12

$$$$
=
 OpenBabel11052414233D

 34 36  0  0  1  0  0  0  0  0999 V2000
  188.4030  177.9040  142.5680 C   0  0  1  0  0  3  0  0  0  0  0  0
  187.1310  177.2600  143.1030 C   0  0  2  0  0  3  0  0  0  0  0  0
  186.0290  178.2890  144.7120 N   0  0  0  0  0  0  0  0  0  0  0  0
  185.6360  178.9160  146.9040 O   0  0  0  0  0  0  0  0  0  0  0  0
  183.8220  179.0600  145.5110 O   0  0  0  0  0  0  0  0  0  0  0  0
  181.8670  178.8170  144.3490 O   0  0  0  0  0  0  0  0  0  0  0  0
  186.0720  178.2970  143.2500 C   0  0  2  0  0  3  0  0  0  0  0  0
  185.1780  178.7880  145.7390 C   0  0  0  0  0  0  0  0  0  0  0  0
  183.7600  179.0020  142.9480 C   0  0  0  0  0  2  0  0  0  0  0  0
  183.1200  178.9260  144.3010 C   0  0  0  0  0  0  0  0  0  0  0  0
  184.7300  177.8630  142.7050 C   0  0  0  0  0  2  0  0  0  0  0  0
  187.1250  177.3160  144.5970 C   0  0  0  0  0  2  0  0  0  0  0  0
  189.4500  176.9030  142.4220 N   0  0  0  0  0  2  0  0  0  0  0  0
  190.7710  177.1050  142.9270 C   0  0  0  0  0  0  0  0  0  0  0  0
  191.6550  176.2350  142.7150 O   0  0  0  0  0  0  0  0  0  0  0  0
  191.1050  178.3060  143.7470 C   0  0  0  0  0  2  0  0  0  0  0  0
  191.6620  177.8610  145.0880 C   0  0  0  0  0  2  0  0  0  0  0  0
  189.4200  178.2220  146.9870 C   0  0  0  0  0  1  0  0  0  0  0  0
  190.8900  176.6550  145.6240 C   0  0  2  0  0  3  0  0  0  0  0  0
  190.2400  176.9440  146.9890 C   0  0  1  0  0  3  0  0  0  0  0  0
  191.9650  175.7380  148.1470 O   0  0  0  0  0  0  0  0  0  0  0  0
  192.7360  175.6200  146.9760 C   0  0  0  0  0  2  0  0  0  0  0  0
  191.8230  175.4460  145.7570 C   0  0  0  0  0  2  0  0  0  0  0  0
  191.3090  176.9810  148.0840 C   0  0  0  0  0  2  0  0  0  0  0  0
  188.0890  178.6880  140.9560 S   0  0  0  0  0  0  0  0  0  0  0  0
  188.7730  177.2800  140.0300 C   0  0  0  0  0  2  0  0  0  0  0  0
  189.8390  177.7520  139.0450 C   0  0  0  0  0  2  0  0  0  0  0  0
  189.5210  177.4040  137.5820 C   0  0  1  0  0  3  0  0  0  0  0  0
  189.0240  179.7660  137.3880 O   0  0  0  0  0  1  0  0  0  0  0  0
  187.2790  178.2420  136.8150 C   0  0  0  0  0  1  0  0  0  0  0  0
  188.7720  178.5090  136.8320 C   0  0  2  0  0  3  0  0  0  0  0  0
  190.6680  177.0220  136.8800 O   0  0  0  0  0  0  0  0  0  0  0  0
  191.2710  176.0440  137.6740 C   0  0  0  0  0  2  0  0  0  0  0  0
  192.4990  176.5170  138.1360 O   0  0  0  0  0  1  0  0  0  0  0  0
  1 25  1  6  0  0  0
  2  1  1  6  0  0  0
  2  7  1  0  0  0  0
  2 12  1  0  0  0  0
  3  8  1  0  0  0  0
  5  8  1  0  0  0  0
  7 11  1  6  0  0  0
  7  3  1  0  0  0  0
  8  4  2  0  0  0  0
  9 10  1  0  0  0  0
 10  6  2  0  0  0  0
 10  5  1  0  0  0  0
 11  9  1  0  0  0  0
 12  3  1  0  0  0  0
 13  1  1  0  0  0  0
 13 14  1  0  0  0  0
 14 16  1  0  0  0  0
 15 14  2  0  0  0  0
 16 17  1  0  0  0  0
 19 17  1  1  0  0  0
 19 23  1  0  0  0  0
 19 20  1  0  0  0  0
 20 18  1  6  0  0  0
 20 24  1  0  0  0  0
 22 21  1  0  0  0  0
 23 22  1  0  0  0  0
 24 21  1  0  0  0  0
 26 25  1  0  0  0  0
 27 26  1  0  0  0  0
 28 27  1  1  0  0  0
 31 30  1  1  0  0  0
 31 29  1  0  0  0  0
 31 28  1  0  0  0  0
 32 28  1  0  0  0  0
 32 33  1  0  0  0  0
 33 34  1  0  0  0  0
M  END
>  <MODEL>
6

>  <REMARK>
 VINA RESULT:      -7.1      1.775      8.147
  Name = 
  12 active torsions:
  status: ('A' for Active; 'I' for Inactive)
    1  A    between atoms: O_1  and  C_15
    2  A    between atoms: O_1  and  C_24
    3  A    between atoms: C_2  and  C_15
    4  A    between atoms: C_2  and  C_25
    5  A    between atoms: C_3  and  C_13
    6  A    between atoms: C_3  and  C_17
    7  A    between atoms: C_4  and  C_31
    8  A    between atoms: N_5  and  C_31
    9  A    between atoms: S_10  and  C_25
   10  A    between atoms: S_10  and  C_31
   11  A    between atoms: C_15  and  C_19
   12  A    between atoms: C_17  and  C_18
                            x       y       z     vdW  Elec       q    Type
                         _______ _______ _______ _____ _____    ______ ____

>  <TORSDO>
F 12

$$$$
=
 OpenBabel11052414233D

 34 36  0  0  1  0  0  0  0  0999 V2000
  186.9850  177.6210  142.8020 C   0  0  1  0  0  3  0  0  0  0  0  0
  187.5930  176.6630  143.8170 C   0  0  2  0  0  3  0  0  0  0  0  0
  189.7870  176.6170  144.0350 N   0  0  0  0  0  0  0  0  0  0  0  0
  191.9340  176.0080  143.4240 O   0  0  0  0  0  0  0  0  0  0  0  0
  191.6880  176.6390  145.6130 O   0  0  0  0  0  0  0  0  0  0  0  0
  191.4810  176.8070  147.8850 O   0  0  0  0  0  0  0  0  0  0  0  0
  188.6580  177.3650  144.5870 C   0  0  2  0  0  3  0  0  0  0  0  0
  191.1690  176.4370  144.3270 C   0  0  0  0  0  0  0  0  0  0  0  0
  189.7280  177.8740  146.7150 C   0  0  0  0  0  2  0  0  0  0  0  0
  190.9850  177.0590  146.7560 C   0  0  0  0  0  0  0  0  0  0  0  0
  188.5750  177.1240  146.0780 C   0  0  0  0  0  2  0  0  0  0  0  0
  188.7640  175.9580  143.2100 C   0  0  0  0  0  2  0  0  0  0  0  0
  185.9800  178.4580  143.4400 N   0  0  0  0  0  2  0  0  0  0  0  0
  184.6760  178.6390  142.8830 C   0  0  0  0  0  0  0  0  0  0  0  0
  183.8690  179.4270  143.4410 O   0  0  0  0  0  0  0  0  0  0  0  0
  184.2390  177.8700  141.6820 C   0  0  0  0  0  2  0  0  0  0  0  0
  183.1080  178.6120  140.9920 C   0  0  0  0  0  2  0  0  0  0  0  0
  182.4060  180.3750  138.7200 C   0  0  0  0  0  1  0  0  0  0  0  0
  182.8420  178.0290  139.6040 C   0  0  2  0  0  3  0  0  0  0  0  0
  181.9260  178.9340  138.7620 C   0  0  1  0  0  3  0  0  0  0  0  0
  180.0260  177.5260  139.1820 O   0  0  0  0  0  0  0  0  0  0  0  0
  180.7330  176.7760  140.1400 C   0  0  0  0  0  2  0  0  0  0  0  0
  182.2030  176.6410  139.7270 C   0  0  0  0  0  2  0  0  0  0  0  0
  180.4870  178.8520  139.2770 C   0  0  0  0  0  2  0  0  0  0  0  0
  188.2750  178.6770  142.0720 S   0  0  0  0  0  0  0  0  0  0  0  0
  187.7720  178.2800  140.3700 C   0  0  0  0  0  2  0  0  0  0  0  0
  188.6700  177.1930  139.7840 C   0  0  0  0  0  2  0  0  0  0  0  0
  189.7250  177.7290  138.8050 C   0  0  1  0  0  3  0  0  0  0  0  0
  190.8800  175.6020  138.7250 O   0  0  0  0  0  1  0  0  0  0  0  0
  191.7970  177.2790  140.1550 C   0  0  0  0  0  1  0  0  0  0  0  0
  191.0600  176.9810  138.8630 C   0  0  2  0  0  3  0  0  0  0  0  0
  189.2410  177.7730  137.4940 O   0  0  0  0  0  0  0  0  0  0  0  0
  189.0510  179.1290  137.2230 C   0  0  0  0  0  2  0  0  0  0  0  0
  187.7120  179.3530  136.9030 O   0  0  0  0  0  1  0  0  0  0  0  0
  1 25  1  1  0  0  0
  1 13  1  0  0  0  0
  2  1  1  6  0  0  0
  2  7  1  0  0  0  0
  3  8  1  0  0  0  0
  3  7  1  0  0  0  0
  4  8  2  0  0  0  0
  5 10  1  0  0  0  0
  7 11  1  1  0  0  0
  8  5  1  0  0  0  0
  9 10  1  0  0  0  0
 10  6  2  0  0  0  0
 11  9  1  0  0  0  0
 12  2  1  0  0  0  0
 12  3  1  0  0  0  0
 14 13  1  0  0  0  0
 14 15  2  0  0  0  0
 16 14  1  0  0  0  0
 17 16  1  0  0  0  0
 19 23  1  0  0  0  0
 19 17  1  1  0  0  0
 20 18  1  1  0  0  0
 20 24  1  0  0  0  0
 20 19  1  0  0  0  0
 21 24  1  0  0  0  0
 21 22  1  0  0  0  0
 23 22  1  0  0  0  0
 26 25  1  0  0  0  0
 27 26  1  0  0  0  0
 28 31  1  0  0  0  0
 28 27  1  1  0  0  0
 29 31  1  0  0  0  0
 31 30  1  1  0  0  0
 32 28  1  0  0  0  0
 33 32  1  0  0  0  0
 34 33  1  0  0  0  0
M  END
>  <MODEL>
7

>  <REMARK>
 VINA RESULT:      -7.0      2.760      6.287
  Name = 
  12 active torsions:
  status: ('A' for Active; 'I' for Inactive)
    1  A    between atoms: O_1  and  C_15
    2  A    between atoms: O_1  and  C_24
    3  A    between atoms: C_2  and  C_15
    4  A    between atoms: C_2  and  C_25
    5  A    between atoms: C_3  and  C_13
    6  A    between atoms: C_3  and  C_17
    7  A    between atoms: C_4  and  C_31
    8  A    between atoms: N_5  and  C_31
    9  A    between atoms: S_10  and  C_25
   10  A    between atoms: S_10  and  C_31
   11  A    between atoms: C_15  and  C_19
   12  A    between atoms: C_17  and  C_18
                            x       y       z     vdW  Elec       q    Type
                         _______ _______ _______ _____ _____    ______ ____

>  <TORSDO>
F 12

$$$$
=
 OpenBabel11052414233D

 34 36  0  0  1  0  0  0  0  0999 V2000
  187.5050  177.5430  142.3990 C   0  0  1  0  0  3  0  0  0  0  0  0
  187.5510  176.7290  143.6840 C   0  0  2  0  0  3  0  0  0  0  0  0
  189.0800  177.2330  145.1920 N   0  0  0  0  0  0  0  0  0  0  0  0
  191.2120  177.2160  146.0910 O   0  0  0  0  0  0  0  0  0  0  0  0
  189.5310  177.6690  147.5810 O   0  0  0  0  0  0  0  0  0  0  0  0
  187.9330  177.6810  149.2190 O   0  0  0  0  0  0  0  0  0  0  0  0
  187.7190  177.6450  144.8470 C   0  0  2  0  0  3  0  0  0  0  0  0
  189.9810  177.3970  146.2820 C   0  0  0  0  0  0  0  0  0  0  0  0
  187.0950  178.3170  147.1030 C   0  0  0  0  0  2  0  0  0  0  0  0
  188.2010  177.8470  148.0000 C   0  0  0  0  0  0  0  0  0  0  0  0
  186.7910  177.3260  145.9970 C   0  0  0  0  0  2  0  0  0  0  0  0
  188.9670  176.3710  144.0060 C   0  0  0  0  0  2  0  0  0  0  0  0
  186.8550  178.8230  142.6370 N   0  0  0  0  0  2  0  0  0  0  0  0
  185.4410  178.9940  142.5110 C   0  0  0  0  0  0  0  0  0  0  0  0
  184.9400  180.1370  142.6640 O   0  0  0  0  0  0  0  0  0  0  0  0
  184.5460  177.8280  142.2520 C   0  0  0  0  0  2  0  0  0  0  0  0
  183.3750  178.2730  141.3940 C   0  0  0  0  0  2  0  0  0  0  0  0
  183.7950  180.0570  139.0700 C   0  0  0  0  0  1  0  0  0  0  0  0
  183.4880  177.7010  139.9810 C   0  0  2  0  0  3  0  0  0  0  0  0
  183.0810  178.7260  138.9080 C   0  0  1  0  0  3  0  0  0  0  0  0
  180.9320  177.6900  138.6290 O   0  0  0  0  0  0  0  0  0  0  0  0
  181.1340  176.8580  139.7460 C   0  0  0  0  0  2  0  0  0  0  0  0
  182.6100  176.4520  139.8430 C   0  0  0  0  0  2  0  0  0  0  0  0
  181.5620  178.9160  138.9100 C   0  0  0  0  0  2  0  0  0  0  0  0
  189.1880  177.8300  141.7670 S   0  0  0  0  0  0  0  0  0  0  0  0
  188.6070  178.0850  140.0620 C   0  0  0  0  0  2  0  0  0  0  0  0
  189.7530  177.8990  139.0710 C   0  0  0  0  0  2  0  0  0  0  0  0
  189.2990  177.3850  137.6960 C   0  0  1  0  0  3  0  0  0  0  0  0
  189.0550  179.7500  137.2390 O   0  0  0  0  0  1  0  0  0  0  0  0
  187.2030  178.3450  136.6950 C   0  0  0  0  0  1  0  0  0  0  0  0
  188.7120  178.4720  136.7920 C   0  0  2  0  0  3  0  0  0  0  0  0
  190.3210  176.6940  137.0380 O   0  0  0  0  0  0  0  0  0  0  0  0
  191.0600  176.0850  138.0530 C   0  0  0  0  0  2  0  0  0  0  0  0
  190.9040  174.7010  137.9720 O   0  0  0  0  0  1  0  0  0  0  0  0
  1 25  1  1  0  0  0
  1 13  1  0  0  0  0
  2  1  1  6  0  0  0
  2 12  1  0  0  0  0
  2  7  1  0  0  0  0
  3  8  1  0  0  0  0
  4  8  2  0  0  0  0
  5 10  1  0  0  0  0
  7  3  1  0  0  0  0
  7 11  1  1  0  0  0
  8  5  1  0  0  0  0
  9 10  1  0  0  0  0
 10  6  2  0  0  0  0
 11  9  1  0  0  0  0
 12  3  1  0  0  0  0
 14 13  1  0  0  0  0
 14 15  2  0  0  0  0
 16 14  1  0  0  0  0
 17 16  1  0  0  0  0
 19 17  1  1  0  0  0
 20 24  1  0  0  0  0
 20 18  1  1  0  0  0
 20 19  1  0  0  0  0
 21 24  1  0  0  0  0
 21 22  1  0  0  0  0
 22 23  1  0  0  0  0
 23 19  1  0  0  0  0
 26 25  1  0  0  0  0
 27 26  1  0  0  0  0
 28 27  1  1  0  0  0
 31 30  1  1  0  0  0
 31 29  1  0  0  0  0
 31 28  1  0  0  0  0
 32 28  1  0  0  0  0
 32 33  1  0  0  0  0
 34 33  1  0  0  0  0
M  END
>  <MODEL>
8

>  <REMARK>
 VINA RESULT:      -7.0      2.509      6.204
  Name = 
  12 active torsions:
  status: ('A' for Active; 'I' for Inactive)
    1  A    between atoms: O_1  and  C_15
    2  A    between atoms: O_1  and  C_24
    3  A    between atoms: C_2  and  C_15
    4  A    between atoms: C_2  and  C_25
    5  A    between atoms: C_3  and  C_13
    6  A    between atoms: C_3  and  C_17
    7  A    between atoms: C_4  and  C_31
    8  A    between atoms: N_5  and  C_31
    9  A    between atoms: S_10  and  C_25
   10  A    between atoms: S_10  and  C_31
   11  A    between atoms: C_15  and  C_19
   12  A    between atoms: C_17  and  C_18
                            x       y       z     vdW  Elec       q    Type
                         _______ _______ _______ _____ _____    ______ ____

>  <TORSDO>
F 12

$$$$
=
 OpenBabel11052414233D

 34 36  0  0  1  0  0  0  0  0999 V2000
  187.6360  178.6130  141.0190 C   0  0  1  0  0  3  0  0  0  0  0  0
  188.1380  177.4820  141.9040 C   0  0  2  0  0  3  0  0  0  0  0  0
  189.6050  177.9540  143.4820 N   0  0  0  0  0  0  0  0  0  0  0  0
  191.7220  178.4100  144.2970 O   0  0  0  0  0  0  0  0  0  0  0  0
  190.2180  177.6670  145.8580 O   0  0  0  0  0  0  0  0  0  0  0  0
  188.9620  176.5220  147.3890 O   0  0  0  0  0  0  0  0  0  0  0  0
  188.1500  177.9300  143.3250 C   0  0  2  0  0  3  0  0  0  0  0  0
  190.5430  178.0480  144.5490 C   0  0  0  0  0  0  0  0  0  0  0  0
  187.6650  177.4970  145.6720 C   0  0  0  0  0  2  0  0  0  0  0  0
  188.9800  177.1870  146.3210 C   0  0  0  0  0  0  0  0  0  0  0  0
  187.5590  176.9150  144.2770 C   0  0  0  0  0  2  0  0  0  0  0  0
  189.6220  177.5810  142.0600 C   0  0  0  0  0  2  0  0  0  0  0  0
  187.1130  178.0800  139.7690 N   0  0  0  0  0  2  0  0  0  0  0  0
  187.9310  177.9220  138.6080 C   0  0  0  0  0  0  0  0  0  0  0  0
  187.4120  177.5180  137.5350 O   0  0  0  0  0  0  0  0  0  0  0  0
  189.4000  178.1770  138.6620 C   0  0  0  0  0  2  0  0  0  0  0  0
  190.0910  177.3830  137.5680 C   0  0  0  0  0  2  0  0  0  0  0  0
  192.7780  176.7520  138.6380 C   0  0  0  0  0  1  0  0  0  0  0  0
  190.4280  175.9720  138.0500 C   0  0  2  0  0  3  0  0  0  0  0  0
  191.9360  175.6780  137.9700 C   0  0  1  0  0  3  0  0  0  0  0  0
  191.6540  174.3950  135.9590 O   0  0  0  0  0  0  0  0  0  0  0  0
  190.3110  174.7970  135.8340 C   0  0  0  0  0  2  0  0  0  0  0  0
  189.6680  174.9320  137.2190 C   0  0  0  0  0  2  0  0  0  0  0  0
  192.3580  175.4800  136.5120 C   0  0  0  0  0  2  0  0  0  0  0  0
  186.3280  179.5520  141.8670 S   0  0  0  0  0  0  0  0  0  0  0  0
  185.0040  178.7750  140.8910 C   0  0  0  0  0  2  0  0  0  0  0  0
  184.1020  177.9300  141.7870 C   0  0  0  0  0  2  0  0  0  0  0  0
  182.9940  178.7380  142.4800 C   0  0  1  0  0  3  0  0  0  0  0  0
  181.4390  179.6460  140.8600 O   0  0  0  0  0  1  0  0  0  0  0  0
  180.5050  178.6490  142.8170 C   0  0  0  0  0  1  0  0  0  0  0  0
  181.6280  178.6270  141.7970 C   0  0  2  0  0  3  0  0  0  0  0  0
  182.8940  178.4220  143.8380 O   0  0  0  0  0  0  0  0  0  0  0  0
  183.8780  179.1900  144.4630 C   0  0  0  0  0  2  0  0  0  0  0  0
  183.8030  179.0020  145.8430 O   0  0  0  0  0  1  0  0  0  0  0  0
  1 13  1  6  0  0  0
  1 25  1  0  0  0  0
  2  1  1  6  0  0  0
  2 12  1  0  0  0  0
  2  7  1  0  0  0  0
  3  8  1  0  0  0  0
  4  8  2  0  0  0  0
  5 10  1  0  0  0  0
  7  3  1  0  0  0  0
  7 11  1  1  0  0  0
  8  5  1  0  0  0  0
  9 10  1  0  0  0  0
 10  6  2  0  0  0  0
 11  9  1  0  0  0  0
 12  3  1  0  0  0  0
 14 16  1  0  0  0  0
 14 13  1  0  0  0  0
 15 14  2  0  0  0  0
 17 16  1  0  0  0  0
 19 17  1  6  0  0  0
 20 19  1  0  0  0  0
 20 18  1  6  0  0  0
 21 24  1  0  0  0  0
 22 21  1  0  0  0  0
 22 23  1  0  0  0  0
 23 19  1  0  0  0  0
 24 20  1  0  0  0  0
 26 27  1  0  0  0  0
 26 25  1  0  0  0  0
 28 27  1  6  0  0  0
 28 32  1  0  0  0  0
 29 31  1  0  0  0  0
 31 28  1  0  0  0  0
 31 30  1  1  0  0  0
 32 33  1  0  0  0  0
 33 34  1  0  0  0  0
M  END
>  <MODEL>
9

>  <REMARK>
 VINA RESULT:      -6.7      2.401      3.604
  Name = 
  12 active torsions:
  status: ('A' for Active; 'I' for Inactive)
    1  A    between atoms: O_1  and  C_15
    2  A    between atoms: O_1  and  C_24
    3  A    between atoms: C_2  and  C_15
    4  A    between atoms: C_2  and  C_25
    5  A    between atoms: C_3  and  C_13
    6  A    between atoms: C_3  and  C_17
    7  A    between atoms: C_4  and  C_31
    8  A    between atoms: N_5  and  C_31
    9  A    between atoms: S_10  and  C_25
   10  A    between atoms: S_10  and  C_31
   11  A    between atoms: C_15  and  C_19
   12  A    between atoms: C_17  and  C_18
                            x       y       z     vdW  Elec       q    Type
                         _______ _______ _______ _____ _____    ______ ____

>  <TORSDO>
F 12

$$$$
