=
 OpenBabel11052412553D

 25 29  0  0  1  0  0  0  0  0999 V2000
  190.9800  176.4880  142.3480 C   0  0  1  0  0  3  0  0  0  0  0  0
  191.0210  177.3680  141.1950 N   0  0  0  0  0  0  0  0  0  0  0  0
  188.5610  177.6980  143.1450 C   0  0  1  0  0  3  0  0  0  0  0  0
  191.0470  177.3480  143.6510 C   0  0  2  0  0  3  0  0  0  0  0  0
  191.6570  176.7320  138.9810 C   0  0  0  0  0  0  0  0  0  0  0  0
  188.8580  176.8470  141.8770 C   0  0  2  0  0  3  0  0  0  0  0  0
  187.5830  177.2440  145.2710 O   0  0  0  0  0  1  0  0  0  0  0  0
  189.9460  177.1980  144.7290 C   0  0  2  0  0  0  0  0  0  0  0  0
  189.2500  177.3380  139.4160 C   0  0  1  0  0  3  0  0  0  0  0  0
  189.1840  178.6280  138.6110 C   0  0  0  0  0  1  0  0  0  0  0  0
  192.0190  177.1660  140.1880 C   0  0  0  0  0  3  0  0  0  0  0  0
  189.7490  175.8150  142.2500 O   0  0  0  0  0  0  0  0  0  0  0  0
  188.5200  176.7720  144.3470 C   0  0  2  0  0  3  0  0  0  0  0  0
  190.2180  176.3230  138.7810 C   0  0  1  0  0  3  0  0  0  0  0  0
  189.8680  178.3070  143.6900 C   0  0  2  0  0  3  0  0  0  0  0  0
  189.8580  176.0030  137.3360 C   0  0  0  0  0  1  0  0  0  0  0  0
  189.6320  177.6850  140.8680 C   0  0  2  0  0  3  0  0  0  0  0  0
  190.2090  177.8440  146.0810 C   0  0  0  0  0  2  0  0  0  0  0  0
  190.7090  176.8000  147.0600 C   0  0  0  0  0  1  0  0  0  0  0  0
  192.6970  176.5260  137.9210 C   0  0  0  0  0  2  0  0  0  0  0  0
  193.4440  175.2180  138.1300 C   0  0  0  0  0  2  0  0  0  0  0  0
  195.6590  174.4360  139.0240 C   0  0  0  0  0  0  0  0  0  0  0  0
  195.2030  173.1240  139.0770 O   0  0  0  0  0  0  0  0  0  0  0  0
  196.8350  174.7020  139.3860 O   0  0  0  0  0  1  0  0  0  0  0  0
  194.8080  175.4810  138.5600 N   0  0  0  0  0  2  0  0  0  0  0  0
  1 12  1  1  0  0  0
  1  4  1  0  0  0  0
  2  1  1  0  0  0  0
  3 15  1  0  0  0  0
  3 13  1  0  0  0  0
  4 15  1  0  0  0  0
  4  8  1  0  0  0  0
  5 11  2  0  0  0  0
  6 12  1  0  0  0  0
  6  3  1  0  0  0  0
  8 18  1  0  0  0  0
  9 17  1  0  0  0  0
 10  9  1  0  0  0  0
 11  2  1  0  0  0  0
 13  8  1  0  0  0  0
 13  7  1  0  0  0  0
 14  5  1  0  0  0  0
 14  9  1  0  0  0  0
 15  8  1  0  0  0  0
 16 14  1  0  0  0  0
 17  2  1  0  0  0  0
 17  6  1  0  0  0  0
 18 19  1  0  0  0  0
 20 21  1  0  0  0  0
 20  5  1  0  0  0  0
 21 25  1  0  0  0  0
 22 23  2  0  0  0  0
 22 24  1  0  0  0  0
 25 22  1  0  0  0  0
M  END
>  <MODEL>
1

>  <REMARK>
 VINA RESULT:      -7.8      0.000      0.000
  Name = 
  4 active torsions:
  status: ('A' for Active; 'I' for Inactive)
    1  A    between atoms: C_6  and  C_15
    2  A    between atoms: C_8  and  C_11
    3  A    between atoms: C_15  and  C_25
    4  A    between atoms: N_21  and  C_25
                            x       y       z     vdW  Elec       q    Type
                         _______ _______ _______ _____ _____    ______ ____

>  <TORSDO>
F 4

$$$$
=
 OpenBabel11052412553D

 25 29  0  0  1  0  0  0  0  0999 V2000
  188.9630  176.7730  141.5530 C   0  0  1  0  0  3  0  0  0  0  0  0
  189.2580  177.8430  142.4880 N   0  0  0  0  0  0  0  0  0  0  0  0
  191.2540  177.4820  140.0700 C   0  0  1  0  0  3  0  0  0  0  0  0
  188.6960  177.3870  140.1410 C   0  0  2  0  0  3  0  0  0  0  0  0
  189.0610  177.7060  144.8660 C   0  0  0  0  0  0  0  0  0  0  0  0
  191.1610  176.9210  141.5180 C   0  0  2  0  0  3  0  0  0  0  0  0
  191.6980  176.5270  137.9320 O   0  0  0  0  0  1  0  0  0  0  0  0
  189.5160  176.8980  138.9220 C   0  0  2  0  0  0  0  0  0  0  0  0
  191.3630  177.8930  143.8560 C   0  0  1  0  0  3  0  0  0  0  0  0
  191.7240  179.2860  144.3520 C   0  0  0  0  0  1  0  0  0  0  0  0
  188.4890  177.9610  143.6900 C   0  0  0  0  0  3  0  0  0  0  0  0
  190.1170  175.9680  141.5440 O   0  0  0  0  0  0  0  0  0  0  0  0
  190.9450  176.3580  139.0970 C   0  0  2  0  0  3  0  0  0  0  0  0
  190.4640  177.1490  144.8600 C   0  0  1  0  0  3  0  0  0  0  0  0
  189.9240  178.1540  139.6780 C   0  0  2  0  0  3  0  0  0  0  0  0
  191.0990  177.0470  146.2410 C   0  0  0  0  0  1  0  0  0  0  0  0
  190.7080  178.0230  142.4670 C   0  0  2  0  0  3  0  0  0  0  0  0
  189.0280  177.3200  137.5460 C   0  0  0  0  0  2  0  0  0  0  0  0
  188.2250  176.1980  136.9180 C   0  0  0  0  0  1  0  0  0  0  0  0
  188.2620  177.8360  146.1270 C   0  0  0  0  0  2  0  0  0  0  0  0
  186.9260  177.1200  146.0090 C   0  0  0  0  0  2  0  0  0  0  0  0
  184.9180  178.5050  145.4050 C   0  0  0  0  0  0  0  0  0  0  0  0
  185.0320  178.1330  144.0700 O   0  0  0  0  0  0  0  0  0  0  0  0
  183.9910  179.2790  145.7590 O   0  0  0  0  0  1  0  0  0  0  0  0
  185.8420  178.0160  146.3750 N   0  0  0  0  0  2  0  0  0  0  0  0
  1 12  1  6  0  0  0
  1  2  1  0  0  0  0
  2 11  1  0  0  0  0
  3  6  1  0  0  0  0
  4  1  1  0  0  0  0
  5 20  1  0  0  0  0
  6 12  1  0  0  0  0
  6 17  1  0  0  0  0
  7 13  1  0  0  0  0
  8 13  1  0  0  0  0
  8 15  1  0  0  0  0
  8  4  1  0  0  0  0
  9 10  1  0  0  0  0
  9 14  1  0  0  0  0
 11  5  2  0  0  0  0
 13  3  1  0  0  0  0
 14  5  1  0  0  0  0
 14 16  1  0  0  0  0
 15  3  1  0  0  0  0
 15  4  1  0  0  0  0
 17  2  1  0  0  0  0
 17  9  1  0  0  0  0
 18  8  1  0  0  0  0
 19 18  1  0  0  0  0
 21 20  1  0  0  0  0
 21 25  1  0  0  0  0
 22 24  1  0  0  0  0
 22 25  1  0  0  0  0
 23 22  2  0  0  0  0
M  END
>  <MODEL>
2

>  <REMARK>
 VINA RESULT:      -7.7      2.671      7.854
  Name = 
  4 active torsions:
  status: ('A' for Active; 'I' for Inactive)
    1  A    between atoms: C_6  and  C_15
    2  A    between atoms: C_8  and  C_11
    3  A    between atoms: C_15  and  C_25
    4  A    between atoms: N_21  and  C_25
                            x       y       z     vdW  Elec       q    Type
                         _______ _______ _______ _____ _____    ______ ____

>  <TORSDO>
F 4

$$$$
=
 OpenBabel11052412553D

 25 29  0  0  1  0  0  0  0  0999 V2000
  187.4910  176.9130  143.5590 C   0  0  1  0  0  3  0  0  0  0  0  0
  186.8070  178.1520  143.2360 N   0  0  0  0  0  0  0  0  0  0  0  0
  188.4140  178.0850  145.9520 C   0  0  1  0  0  3  0  0  0  0  0  0
  189.0280  177.1840  143.6360 C   0  0  2  0  0  3  0  0  0  0  0  0
  184.6180  178.3270  142.2930 C   0  0  0  0  0  0  0  0  0  0  0  0
  186.9560  177.7530  145.5250 C   0  0  2  0  0  3  0  0  0  0  0  0
  190.0420  177.0060  147.3200 O   0  0  0  0  0  1  0  0  0  0  0  0
  189.8140  176.8030  144.9140 C   0  0  2  0  0  0  0  0  0  0  0  0
  184.9700  179.0860  144.6700 C   0  0  1  0  0  3  0  0  0  0  0  0
  184.7540  180.5800  144.4740 C   0  0  0  0  0  1  0  0  0  0  0  0
  185.9310  178.2000  142.1050 C   0  0  0  0  0  3  0  0  0  0  0  0
  186.9830  176.5310  144.8140 O   0  0  0  0  0  0  0  0  0  0  0  0
  189.1250  176.7860  146.2880 C   0  0  2  0  0  3  0  0  0  0  0  0
  184.0990  178.2560  143.7090 C   0  0  1  0  0  3  0  0  0  0  0  0
  189.3110  178.2240  144.7060 C   0  0  2  0  0  3  0  0  0  0  0  0
  182.6170  178.5780  143.8450 C   0  0  0  0  0  1  0  0  0  0  0  0
  186.4720  178.7830  144.5120 C   0  0  2  0  0  3  0  0  0  0  0  0
  191.3320  176.8290  144.8270 C   0  0  0  0  0  2  0  0  0  0  0  0
  191.8310  175.5560  144.1730 C   0  0  0  0  0  1  0  0  0  0  0  0
  183.6980  178.3840  141.1110 C   0  0  0  0  0  2  0  0  0  0  0  0
  184.2900  179.2280  139.9930 C   0  0  0  0  0  2  0  0  0  0  0  0
  185.5890  178.1300  138.1440 C   0  0  0  0  0  0  0  0  0  0  0  0
  186.7910  178.5380  138.7120 O   0  0  0  0  0  1  0  0  0  0  0  0
  185.5990  177.4620  137.0770 O   0  0  0  0  0  0  0  0  0  0  0  0
  184.3470  178.4600  138.7600 N   0  0  0  0  0  2  0  0  0  0  0  0
  1  4  1  0  0  0  0
  1 12  1  1  0  0  0
  2  1  1  0  0  0  0
  2 17  1  0  0  0  0
  3 13  1  0  0  0  0
  4 15  1  0  0  0  0
  4  8  1  0  0  0  0
  5 14  1  0  0  0  0
  6  3  1  0  0  0  0
  8 13  1  0  0  0  0
 10  9  1  0  0  0  0
 11  5  2  0  0  0  0
 11  2  1  0  0  0  0
 12  6  1  0  0  0  0
 13  7  1  0  0  0  0
 14 16  1  0  0  0  0
 14  9  1  0  0  0  0
 15  8  1  0  0  0  0
 15  3  1  0  0  0  0
 17  9  1  0  0  0  0
 17  6  1  0  0  0  0
 18  8  1  0  0  0  0
 19 18  1  0  0  0  0
 20  5  1  0  0  0  0
 21 20  1  0  0  0  0
 22 23  1  0  0  0  0
 22 25  1  0  0  0  0
 24 22  2  0  0  0  0
 25 21  1  0  0  0  0
M  END
>  <MODEL>
3

>  <REMARK>
 VINA RESULT:      -7.0      4.979      6.889
  Name = 
  4 active torsions:
  status: ('A' for Active; 'I' for Inactive)
    1  A    between atoms: C_6  and  C_15
    2  A    between atoms: C_8  and  C_11
    3  A    between atoms: C_15  and  C_25
    4  A    between atoms: N_21  and  C_25
                            x       y       z     vdW  Elec       q    Type
                         _______ _______ _______ _____ _____    ______ ____

>  <TORSDO>
F 4

$$$$
=
 OpenBabel11052412553D

 25 29  0  0  1  0  0  0  0  0999 V2000
  190.9490  176.3340  142.2520 C   0  0  1  0  0  3  0  0  0  0  0  0
  190.9430  177.2830  141.1540 N   0  0  0  0  0  0  0  0  0  0  0  0
  188.8570  177.7810  143.4700 C   0  0  1  0  0  3  0  0  0  0  0  0
  191.3190  177.0840  143.5730 C   0  0  2  0  0  3  0  0  0  0  0  0
  191.1620  176.7320  138.8390 C   0  0  0  0  0  0  0  0  0  0  0  0
  188.8500  176.9930  142.1290 C   0  0  2  0  0  3  0  0  0  0  0  0
  188.1430  177.3040  145.6940 O   0  0  0  0  0  1  0  0  0  0  0  0
  190.3750  176.9970  144.7970 C   0  0  2  0  0  0  0  0  0  0  0  0
  188.9470  177.6050  139.6660 C   0  0  1  0  0  3  0  0  0  0  0  0
  188.9410  178.9480  138.9490 C   0  0  0  0  0  1  0  0  0  0  0  0
  191.7480  177.0290  139.9980 C   0  0  0  0  0  3  0  0  0  0  0  0
  189.6370  175.8310  142.3080 O   0  0  0  0  0  0  0  0  0  0  0  0
  188.8640  176.7840  144.6150 C   0  0  2  0  0  3  0  0  0  0  0  0
  189.6660  176.5230  138.8400 C   0  0  1  0  0  3  0  0  0  0  0  0
  190.2990  178.1790  143.8410 C   0  0  2  0  0  3  0  0  0  0  0  0
  189.0620  176.3560  137.4510 C   0  0  0  0  0  1  0  0  0  0  0  0
  189.5780  177.7960  141.0590 C   0  0  2  0  0  3  0  0  0  0  0  0
  190.9150  177.5060  146.1240 C   0  0  0  0  0  2  0  0  0  0  0  0
  191.4660  176.3480  146.9330 C   0  0  0  0  0  1  0  0  0  0  0  0
  192.0000  176.4720  137.6240 C   0  0  0  0  0  2  0  0  0  0  0  0
  192.6270  175.0870  137.6730 C   0  0  0  0  0  2  0  0  0  0  0  0
  191.2070  173.5290  136.3060 C   0  0  0  0  0  0  0  0  0  0  0  0
  190.3140  173.3770  137.3610 O   0  0  0  0  0  1  0  0  0  0  0  0
  191.0010  172.9220  135.2230 O   0  0  0  0  0  0  0  0  0  0  0  0
  192.3520  174.3670  136.4410 N   0  0  0  0  0  2  0  0  0  0  0  0
  1 12  1  1  0  0  0
  1  4  1  0  0  0  0
  2  1  1  0  0  0  0
  3 15  1  0  0  0  0
  3 13  1  0  0  0  0
  4 15  1  0  0  0  0
  4  8  1  0  0  0  0
  5 14  1  0  0  0  0
  5 11  2  0  0  0  0
  6 12  1  0  0  0  0
  6  3  1  0  0  0  0
  8 18  1  0  0  0  0
  9 17  1  0  0  0  0
 10  9  1  0  0  0  0
 11  2  1  0  0  0  0
 13  8  1  0  0  0  0
 13  7  1  0  0  0  0
 14  9  1  0  0  0  0
 15  8  1  0  0  0  0
 16 14  1  0  0  0  0
 17  2  1  0  0  0  0
 17  6  1  0  0  0  0
 18 19  1  0  0  0  0
 20 21  1  0  0  0  0
 20  5  1  0  0  0  0
 22 25  1  0  0  0  0
 22 23  1  0  0  0  0
 24 22  2  0  0  0  0
 25 21  1  0  0  0  0
M  END
>  <MODEL>
4

>  <REMARK>
 VINA RESULT:      -6.9      2.050      2.261
  Name = 
  4 active torsions:
  status: ('A' for Active; 'I' for Inactive)
    1  A    between atoms: C_6  and  C_15
    2  A    between atoms: C_8  and  C_11
    3  A    between atoms: C_15  and  C_25
    4  A    between atoms: N_21  and  C_25
                            x       y       z     vdW  Elec       q    Type
                         _______ _______ _______ _____ _____    ______ ____

>  <TORSDO>
F 4

$$$$
=
 OpenBabel11052412553D

 25 29  0  0  1  0  0  0  0  0999 V2000
  188.4550  178.3340  142.9840 C   0  0  1  0  0  3  0  0  0  0  0  0
  188.2950  177.4860  141.8160 N   0  0  0  0  0  0  0  0  0  0  0  0
  190.8410  176.9660  143.6080 C   0  0  1  0  0  3  0  0  0  0  0  0
  188.4140  177.4450  144.2690 C   0  0  2  0  0  3  0  0  0  0  0  0
  187.5700  178.2150  139.6580 C   0  0  0  0  0  0  0  0  0  0  0  0
  190.5220  177.8640  142.3800 C   0  0  2  0  0  3  0  0  0  0  0  0
  191.9660  177.3080  145.6820 O   0  0  0  0  0  1  0  0  0  0  0  0
  189.5820  177.5040  145.2830 C   0  0  2  0  0  0  0  0  0  0  0  0
  189.9590  177.4600  139.9360 C   0  0  1  0  0  3  0  0  0  0  0  0
  189.9020  176.1890  139.1000 C   0  0  0  0  0  1  0  0  0  0  0  0
  187.2550  177.7720  140.8750 C   0  0  0  0  0  3  0  0  0  0  0  0
  189.7160  178.9370  142.8280 O   0  0  0  0  0  0  0  0  0  0  0  0
  191.0070  177.8570  144.8260 C   0  0  2  0  0  3  0  0  0  0  0  0
  189.0170  178.5450  139.3830 C   0  0  1  0  0  3  0  0  0  0  0  0
  189.5350  176.4200  144.2160 C   0  0  2  0  0  3  0  0  0  0  0  0
  189.3110  178.8810  137.9260 C   0  0  0  0  0  1  0  0  0  0  0  0
  189.6420  177.0990  141.4000 C   0  0  2  0  0  3  0  0  0  0  0  0
  189.3610  176.8400  146.6330 C   0  0  0  0  0  2  0  0  0  0  0  0
  188.9880  177.8860  147.6650 C   0  0  0  0  0  1  0  0  0  0  0  0
  186.4850  178.5080  138.6680 C   0  0  0  0  0  2  0  0  0  0  0  0
  185.1260  178.5870  139.3460 C   0  0  0  0  0  2  0  0  0  0  0  0
  183.0450  179.9330  138.9290 C   0  0  0  0  0  0  0  0  0  0  0  0
  182.2470  178.8240  139.1850 O   0  0  0  0  0  1  0  0  0  0  0  0
  182.5090  181.0320  138.6310 O   0  0  0  0  0  0  0  0  0  0  0  0
  184.4660  179.8360  139.0040 N   0  0  0  0  0  2  0  0  0  0  0  0
  1 12  1  6  0  0  0
  1  4  1  0  0  0  0
  2  1  1  0  0  0  0
  3 15  1  0  0  0  0
  3 13  1  0  0  0  0
  4  8  1  0  0  0  0
  5 11  2  0  0  0  0
  6 12  1  0  0  0  0
  6  3  1  0  0  0  0
  8 18  1  0  0  0  0
  9 17  1  0  0  0  0
 10  9  1  0  0  0  0
 11  2  1  0  0  0  0
 13  8  1  0  0  0  0
 13  7  1  0  0  0  0
 14  5  1  0  0  0  0
 14  9  1  0  0  0  0
 15  4  1  0  0  0  0
 15  8  1  0  0  0  0
 16 14  1  0  0  0  0
 17  2  1  0  0  0  0
 17  6  1  0  0  0  0
 18 19  1  0  0  0  0
 20 21  1  0  0  0  0
 20  5  1  0  0  0  0
 22 25  1  0  0  0  0
 22 23  1  0  0  0  0
 24 22  2  0  0  0  0
 25 21  1  0  0  0  0
M  END
>  <MODEL>
5

>  <REMARK>
 VINA RESULT:      -6.6      3.633      6.440
  Name = 
  4 active torsions:
  status: ('A' for Active; 'I' for Inactive)
    1  A    between atoms: C_6  and  C_15
    2  A    between atoms: C_8  and  C_11
    3  A    between atoms: C_15  and  C_25
    4  A    between atoms: N_21  and  C_25
                            x       y       z     vdW  Elec       q    Type
                         _______ _______ _______ _____ _____    ______ ____

>  <TORSDO>
F 4

$$$$
=
 OpenBabel11052412553D

 25 29  0  0  1  0  0  0  0  0999 V2000
  188.9650  177.7170  142.1450 C   0  0  1  0  0  3  0  0  0  0  0  0
  187.6560  177.2310  142.5430 N   0  0  0  0  0  0  0  0  0  0  0  0
  187.9790  178.1370  139.5370 C   0  0  1  0  0  3  0  0  0  0  0  0
  189.5440  176.7770  141.0390 C   0  0  2  0  0  3  0  0  0  0  0  0
  186.5530  177.7330  144.6030 C   0  0  0  0  0  0  0  0  0  0  0  0
  187.5680  178.8380  140.8620 C   0  0  2  0  0  3  0  0  0  0  0  0
  189.4320  178.6950  137.7310 O   0  0  0  0  0  1  0  0  0  0  0  0
  189.9970  177.3720  139.6840 C   0  0  2  0  0  0  0  0  0  0  0  0
  185.6040  178.6750  142.4660 C   0  0  1  0  0  3  0  0  0  0  0  0
  184.3090  177.8780  142.4130 C   0  0  0  0  0  1  0  0  0  0  0  0
  187.3960  176.9560  143.9240 C   0  0  0  0  0  3  0  0  0  0  0  0
  188.7360  179.0100  141.6400 O   0  0  0  0  0  0  0  0  0  0  0  0
  189.3480  178.6490  139.1260 C   0  0  2  0  0  3  0  0  0  0  0  0
  186.0290  178.9710  143.9160 C   0  0  1  0  0  3  0  0  0  0  0  0
  188.6110  176.7640  139.8400 C   0  0  2  0  0  3  0  0  0  0  0  0
  184.9480  179.7050  144.6990 C   0  0  0  0  0  1  0  0  0  0  0  0
  186.6860  177.9060  141.6830 C   0  0  2  0  0  3  0  0  0  0  0  0
  190.8020  176.4670  138.7650 C   0  0  0  0  0  2  0  0  0  0  0  0
  192.2810  176.7650  138.9150 C   0  0  0  0  0  1  0  0  0  0  0  0
  186.2720  177.4450  146.0460 C   0  0  0  0  0  2  0  0  0  0  0  0
  187.2530  178.1700  146.9540 C   0  0  0  0  0  2  0  0  0  0  0  0
  189.5690  177.1980  146.8880 C   0  0  0  0  0  0  0  0  0  0  0  0
  189.9220  178.0470  145.8450 O   0  0  0  0  0  0  0  0  0  0  0  0
  190.4140  176.3850  147.3430 O   0  0  0  0  0  1  0  0  0  0  0  0
  188.2590  177.2450  147.4480 N   0  0  0  0  0  2  0  0  0  0  0  0
  1 12  1  6  0  0  0
  1  2  1  0  0  0  0
  2 11  1  0  0  0  0
  3 15  1  0  0  0  0
  3  6  1  0  0  0  0
  4  1  1  0  0  0  0
  5 20  1  0  0  0  0
  6 12  1  0  0  0  0
  6 17  1  0  0  0  0
  7 13  1  0  0  0  0
  8 15  1  0  0  0  0
  8  4  1  0  0  0  0
  9 14  1  0  0  0  0
 10  9  1  0  0  0  0
 11  5  2  0  0  0  0
 13  3  1  0  0  0  0
 13  8  1  0  0  0  0
 14  5  1  0  0  0  0
 14 16  1  0  0  0  0
 15  4  1  0  0  0  0
 17  9  1  0  0  0  0
 17  2  1  0  0  0  0
 18 19  1  0  0  0  0
 18  8  1  0  0  0  0
 20 21  1  0  0  0  0
 21 25  1  0  0  0  0
 22 24  1  0  0  0  0
 22 25  1  0  0  0  0
 23 22  2  0  0  0  0
M  END
>  <MODEL>
6

>  <REMARK>
 VINA RESULT:      -6.4      3.443      7.217
  Name = 
  4 active torsions:
  status: ('A' for Active; 'I' for Inactive)
    1  A    between atoms: C_6  and  C_15
    2  A    between atoms: C_8  and  C_11
    3  A    between atoms: C_15  and  C_25
    4  A    between atoms: N_21  and  C_25
                            x       y       z     vdW  Elec       q    Type
                         _______ _______ _______ _____ _____    ______ ____

>  <TORSDO>
F 4

$$$$
=
 OpenBabel11052412553D

 25 29  0  0  1  0  0  0  0  0999 V2000
  187.3460  176.8730  143.5950 C   0  0  1  0  0  3  0  0  0  0  0  0
  186.6550  178.1110  143.2810 N   0  0  0  0  0  0  0  0  0  0  0  0
  188.4730  178.1150  145.8620 C   0  0  1  0  0  3  0  0  0  0  0  0
  188.8880  177.1210  143.5390 C   0  0  2  0  0  3  0  0  0  0  0  0
  184.4010  178.2880  142.5090 C   0  0  0  0  0  0  0  0  0  0  0  0
  186.9820  177.7930  145.5640 C   0  0  2  0  0  3  0  0  0  0  0  0
  190.1900  177.0600  147.1350 O   0  0  0  0  0  1  0  0  0  0  0  0
  189.7680  176.7740  144.7640 C   0  0  2  0  0  0  0  0  0  0  0  0
  184.9520  179.1270  144.8200 C   0  0  1  0  0  3  0  0  0  0  0  0
  184.7420  180.6160  144.5860 C   0  0  0  0  0  1  0  0  0  0  0  0
  185.6930  178.1320  142.2220 C   0  0  0  0  0  3  0  0  0  0  0  0
  186.9350  176.5450  144.8990 O   0  0  0  0  0  0  0  0  0  0  0  0
  189.1910  176.8180  146.1880 C   0  0  2  0  0  3  0  0  0  0  0  0
  183.9960  178.2770  143.9630 C   0  0  1  0  0  3  0  0  0  0  0  0
  189.2690  178.1950  144.5440 C   0  0  2  0  0  3  0  0  0  0  0  0
  182.5330  178.6280  144.2040 C   0  0  0  0  0  1  0  0  0  0  0  0
  186.4320  178.7930  144.5550 C   0  0  2  0  0  3  0  0  0  0  0  0
  191.2750  176.7710  144.5560 C   0  0  0  0  0  2  0  0  0  0  0  0
  191.7100  175.4440  143.9680 C   0  0  0  0  0  1  0  0  0  0  0  0
  183.3900  178.3180  141.4020 C   0  0  0  0  0  2  0  0  0  0  0  0
  184.0270  178.7350  140.0860 C   0  0  0  0  0  2  0  0  0  0  0  0
  182.5190  179.7320  138.3400 C   0  0  0  0  0  0  0  0  0  0  0  0
  182.8840  181.0180  138.7240 O   0  0  0  0  0  1  0  0  0  0  0  0
  181.6960  179.5720  137.4030 O   0  0  0  0  0  0  0  0  0  0  0  0
  183.0720  178.5950  138.9990 N   0  0  0  0  0  2  0  0  0  0  0  0
  1 12  1  1  0  0  0
  2  1  1  0  0  0  0
  2 17  1  0  0  0  0
  3 13  1  0  0  0  0
  4  1  1  0  0  0  0
  4 15  1  0  0  0  0
  4  8  1  0  0  0  0
  5 14  1  0  0  0  0
  6  3  1  0  0  0  0
  8 13  1  0  0  0  0
 10  9  1  0  0  0  0
 11  5  2  0  0  0  0
 11  2  1  0  0  0  0
 12  6  1  0  0  0  0
 13  7  1  0  0  0  0
 14 16  1  0  0  0  0
 14  9  1  0  0  0  0
 15  8  1  0  0  0  0
 15  3  1  0  0  0  0
 17  9  1  0  0  0  0
 17  6  1  0  0  0  0
 18  8  1  0  0  0  0
 19 18  1  0  0  0  0
 20  5  1  0  0  0  0
 21 20  1  0  0  0  0
 22 23  1  0  0  0  0
 22 25  1  0  0  0  0
 24 22  2  0  0  0  0
 25 21  1  0  0  0  0
M  END
>  <MODEL>
7

>  <REMARK>
 VINA RESULT:      -6.4      5.079      7.922
  Name = 
  4 active torsions:
  status: ('A' for Active; 'I' for Inactive)
    1  A    between atoms: C_6  and  C_15
    2  A    between atoms: C_8  and  C_11
    3  A    between atoms: C_15  and  C_25
    4  A    between atoms: N_21  and  C_25
                            x       y       z     vdW  Elec       q    Type
                         _______ _______ _______ _____ _____    ______ ____

>  <TORSDO>
F 4

$$$$
=
 OpenBabel11052412553D

 25 29  0  0  1  0  0  0  0  0999 V2000
  187.9270  177.2210  139.0580 C   0  0  1  0  0  3  0  0  0  0  0  0
  188.7600  177.8940  140.0380 N   0  0  0  0  0  0  0  0  0  0  0  0
  190.0920  177.2470  137.2500 C   0  0  1  0  0  3  0  0  0  0  0  0
  187.7590  178.1440  137.8080 C   0  0  2  0  0  3  0  0  0  0  0  0
  188.8350  177.3990  142.3740 C   0  0  0  0  0  0  0  0  0  0  0  0
  189.9620  176.5040  138.6100 C   0  0  2  0  0  3  0  0  0  0  0  0
  189.8150  176.6160  134.9680 O   0  0  0  0  0  1  0  0  0  0  0  0
  188.1350  177.6140  136.4030 C   0  0  2  0  0  0  0  0  0  0  0  0
  190.8520  176.8610  140.9620 C   0  0  1  0  0  3  0  0  0  0  0  0
  191.8220  177.8820  141.5410 C   0  0  0  0  0  1  0  0  0  0  0  0
  188.2730  178.0730  141.3720 C   0  0  0  0  0  3  0  0  0  0  0  0
  188.6290  176.0470  138.7270 O   0  0  0  0  0  0  0  0  0  0  0  0
  189.2190  176.5380  136.2300 C   0  0  2  0  0  3  0  0  0  0  0  0
  189.8650  176.3510  142.0270 C   0  0  1  0  0  3  0  0  0  0  0  0
  189.1230  178.4450  137.2090 C   0  0  2  0  0  3  0  0  0  0  0  0
  190.5730  175.7510  143.2350 C   0  0  0  0  0  1  0  0  0  0  0  0
  190.1370  177.4950  139.7540 C   0  0  2  0  0  3  0  0  0  0  0  0
  187.6920  178.4450  135.2090 C   0  0  0  0  0  2  0  0  0  0  0  0
  186.4470  177.8380  134.5940 C   0  0  0  0  0  1  0  0  0  0  0  0
  188.3340  177.5890  143.7740 C   0  0  0  0  0  2  0  0  0  0  0  0
  186.8160  177.6700  143.8090 C   0  0  0  0  0  2  0  0  0  0  0  0
  185.3190  178.7140  145.5370 C   0  0  0  0  0  0  0  0  0  0  0  0
  184.7230  179.5170  144.5710 O   0  0  0  0  0  0  0  0  0  0  0  0
  184.9420  178.7960  146.7350 O   0  0  0  0  0  1  0  0  0  0  0  0
  186.3510  177.7980  145.1810 N   0  0  0  0  0  2  0  0  0  0  0  0
  1 12  1  6  0  0  0
  1  2  1  0  0  0  0
  2 11  1  0  0  0  0
  3  6  1  0  0  0  0
  4  1  1  0  0  0  0
  5 20  1  0  0  0  0
  6 12  1  0  0  0  0
  6 17  1  0  0  0  0
  7 13  1  0  0  0  0
  8 15  1  0  0  0  0
  8  4  1  0  0  0  0
  9 10  1  0  0  0  0
  9 14  1  0  0  0  0
 11  5  2  0  0  0  0
 13  8  1  0  0  0  0
 13  3  1  0  0  0  0
 14  5  1  0  0  0  0
 14 16  1  0  0  0  0
 15  3  1  0  0  0  0
 15  4  1  0  0  0  0
 17  2  1  0  0  0  0
 17  9  1  0  0  0  0
 18  8  1  0  0  0  0
 19 18  1  0  0  0  0
 20 21  1  0  0  0  0
 21 25  1  0  0  0  0
 22 24  1  0  0  0  0
 23 22  2  0  0  0  0
 25 22  1  0  0  0  0
M  END
>  <MODEL>
8

>  <REMARK>
 VINA RESULT:      -6.2      3.472      8.129
  Name = 
  4 active torsions:
  status: ('A' for Active; 'I' for Inactive)
    1  A    between atoms: C_6  and  C_15
    2  A    between atoms: C_8  and  C_11
    3  A    between atoms: C_15  and  C_25
    4  A    between atoms: N_21  and  C_25
                            x       y       z     vdW  Elec       q    Type
                         _______ _______ _______ _____ _____    ______ ____

>  <TORSDO>
F 4

$$$$
=
 OpenBabel11052412553D

 25 29  0  0  1  0  0  0  0  0999 V2000
  188.4280  178.3020  142.5660 C   0  0  1  0  0  3  0  0  0  0  0  0
  188.3460  177.4330  141.4070 N   0  0  0  0  0  0  0  0  0  0  0  0
  190.8420  177.0420  143.2990 C   0  0  1  0  0  3  0  0  0  0  0  0
  188.3750  177.4320  143.8630 C   0  0  2  0  0  3  0  0  0  0  0  0
  187.6730  178.1000  139.2130 C   0  0  0  0  0  0  0  0  0  0  0  0
  190.5330  177.9090  142.0450 C   0  0  2  0  0  3  0  0  0  0  0  0
  191.8750  177.4600  145.4070 O   0  0  0  0  0  1  0  0  0  0  0  0
  189.5010  177.5530  144.9180 C   0  0  2  0  0  0  0  0  0  0  0  0
  190.0780  177.4470  139.5890 C   0  0  1  0  0  3  0  0  0  0  0  0
  190.1030  176.1630  138.7730 C   0  0  0  0  0  1  0  0  0  0  0  0
  187.3300  177.6620  140.4240 C   0  0  0  0  0  3  0  0  0  0  0  0
  189.6690  178.9540  142.4470 O   0  0  0  0  0  0  0  0  0  0  0  0
  190.9270  177.9570  144.5080 C   0  0  2  0  0  3  0  0  0  0  0  0
  189.1140  178.4850  138.9850 C   0  0  1  0  0  3  0  0  0  0  0  0
  189.5370  176.4520  143.8680 C   0  0  2  0  0  3  0  0  0  0  0  0
  189.4480  178.8110  137.5350 C   0  0  0  0  0  1  0  0  0  0  0  0
  189.7210  177.0940  141.0460 C   0  0  2  0  0  3  0  0  0  0  0  0
  189.2570  176.9000  146.2690 C   0  0  0  0  0  2  0  0  0  0  0  0
  188.7590  177.9360  147.2580 C   0  0  0  0  0  1  0  0  0  0  0  0
  186.6130  178.3340  138.1790 C   0  0  0  0  0  2  0  0  0  0  0  0
  185.2390  178.4640  138.8170 C   0  0  0  0  0  2  0  0  0  0  0  0
  183.2730  176.9080  138.9820 C   0  0  0  0  0  0  0  0  0  0  0  0
  183.1090  177.2170  140.3270 O   0  0  0  0  0  1  0  0  0  0  0  0
  182.4920  176.0890  138.4310 O   0  0  0  0  0  0  0  0  0  0  0  0
  184.3160  177.5120  138.2210 N   0  0  0  0  0  2  0  0  0  0  0  0
  1 12  1  6  0  0  0
  1  4  1  0  0  0  0
  2  1  1  0  0  0  0
  3 15  1  0  0  0  0
  3 13  1  0  0  0  0
  4 15  1  0  0  0  0
  4  8  1  0  0  0  0
  5 11  2  0  0  0  0
  6 12  1  0  0  0  0
  6  3  1  0  0  0  0
  8 18  1  0  0  0  0
  9 17  1  0  0  0  0
 10  9  1  0  0  0  0
 11  2  1  0  0  0  0
 13  8  1  0  0  0  0
 13  7  1  0  0  0  0
 14  5  1  0  0  0  0
 14  9  1  0  0  0  0
 15  8  1  0  0  0  0
 16 14  1  0  0  0  0
 17  2  1  0  0  0  0
 17  6  1  0  0  0  0
 18 19  1  0  0  0  0
 20 21  1  0  0  0  0
 20  5  1  0  0  0  0
 22 23  1  0  0  0  0
 24 22  2  0  0  0  0
 25 21  1  0  0  0  0
 25 22  1  0  0  0  0
M  END
>  <MODEL>
9

>  <REMARK>
 VINA RESULT:      -6.2      3.464      6.027
  Name = 
  4 active torsions:
  status: ('A' for Active; 'I' for Inactive)
    1  A    between atoms: C_6  and  C_15
    2  A    between atoms: C_8  and  C_11
    3  A    between atoms: C_15  and  C_25
    4  A    between atoms: N_21  and  C_25
                            x       y       z     vdW  Elec       q    Type
                         _______ _______ _______ _____ _____    ______ ____

>  <TORSDO>
F 4

$$$$
