=
 OpenBabel11052414073D

 34 38  0  0  1  0  0  0  0  0999 V2000
  188.9560  177.1140  146.4040 C   0  0  0  0  0  0  0  0  0  0  0  0
  190.9340  177.1110  144.9770 C   0  0  0  0  0  0  0  0  0  0  0  0
  188.6720  177.5630  144.0310 C   0  0  0  0  0  0  0  0  0  0  0  0
  188.3530  178.0080  141.7120 C   0  0  0  0  0  0  0  0  0  0  0  0
  191.1390  176.6710  147.3530 C   0  0  0  0  0  3  0  0  0  0  0  0
  191.7200  176.8170  146.0940 C   0  0  0  0  0  3  0  0  0  0  0  0
  189.5310  177.2650  145.1160 C   0  0  0  0  0  0  0  0  0  0  0  0
  189.7620  176.8190  147.5070 C   0  0  0  0  0  3  0  0  0  0  0  0
  187.2810  177.7000  144.2570 C   0  0  0  0  0  0  0  0  0  0  0  0
  187.6170  177.2550  146.5830 N   0  0  0  0  0  0  0  0  0  0  0  0
  191.5670  177.2420  143.7450 O   0  0  0  0  0  1  0  0  0  0  0  0
  186.9790  178.1500  141.8960 C   0  0  0  0  0  3  0  0  0  0  0  0
  186.4290  177.9970  143.1750 C   0  0  0  0  0  0  0  0  0  0  0  0
  189.1570  177.7250  142.7700 N   0  0  0  0  0  0  0  0  0  0  0  0
  186.7820  177.5390  145.5530 C   0  0  0  0  0  3  0  0  0  0  0  0
  182.6870  178.3010  142.2720 C   0  0  2  0  0  3  0  0  0  0  0  0
  182.3480  178.8390  143.5420 O   0  0  0  0  0  0  0  0  0  0  0  0
  184.9480  178.1460  143.3720 C   0  0  2  0  0  3  0  0  0  0  0  0
  183.2060  179.9170  143.8350 C   0  0  0  0  0  2  0  0  0  0  0  0
  184.1970  178.1070  142.0420 C   0  0  0  0  0  2  0  0  0  0  0  0
  184.6090  179.4080  144.1750 C   0  0  0  0  0  2  0  0  0  0  0  0
  182.0630  179.1060  141.1450 C   0  0  0  0  0  1  0  0  0  0  0  0
  188.9470  178.1990  140.3580 C   0  0  0  0  0  2  0  0  0  0  0  0
  191.2700  177.3330  140.1270 C   0  0  0  0  0  1  0  0  0  0  0  0
  189.7990  176.9950  139.9710 C   0  0  2  0  0  3  0  0  0  0  0  0
  188.4020  176.8720  138.0640 C   0  0  0  0  0  3  0  0  0  0  0  0
  189.5420  176.6290  138.6030 N   0  0  0  0  0  0  0  0  0  0  0  0
  187.2530  178.7050  136.1470 O   0  0  0  0  0  1  0  0  0  0  0  0
  188.1330  176.4970  136.6350 C   0  0  2  0  0  3  0  0  0  0  0  0
  187.0150  177.3370  135.9950 C   0  0  1  0  0  3  0  0  0  0  0  0
  185.3860  175.5480  136.3530 N   0  0  0  0  0  2  0  0  0  0  0  0
  186.3670  174.7610  137.0960 C   0  0  0  0  0  2  0  0  0  0  0  0
  187.7740  175.0120  136.5480 C   0  0  0  0  0  2  0  0  0  0  0  0
  185.6530  176.9670  136.5800 C   0  0  0  0  0  2  0  0  0  0  0  0
  1 10  1  0  0  0  0
  1  8  2  0  0  0  0
  2  7  2  0  0  0  0
  2  6  1  0  0  0  0
  3  9  1  0  0  0  0
  3  7  1  0  0  0  0
  4 12  2  0  0  0  0
  4 14  1  0  0  0  0
  5  8  1  0  0  0  0
  6  5  2  0  0  0  0
  7  1  1  0  0  0  0
  9 15  1  0  0  0  0
 11  2  1  0  0  0  0
 12 13  1  0  0  0  0
 13  9  2  0  0  0  0
 14  3  2  0  0  0  0
 15 10  2  0  0  0  0
 16 22  1  6  0  0  0
 16 17  1  0  0  0  0
 17 19  1  0  0  0  0
 18 13  1  6  0  0  0
 18 21  1  0  0  0  0
 19 21  1  0  0  0  0
 20 16  1  0  0  0  0
 20 18  1  0  0  0  0
 23  4  1  0  0  0  0
 25 24  1  6  0  0  0
 25 23  1  0  0  0  0
 26 27  2  0  0  0  0
 27 25  1  0  0  0  0
 29 26  1  1  0  0  0
 30 28  1  1  0  0  0
 30 34  1  0  0  0  0
 30 29  1  0  0  0  0
 31 34  1  0  0  0  0
 31 32  1  0  0  0  0
 33 29  1  0  0  0  0
 33 32  1  0  0  0  0
M  END
>  <MODEL>
1

>  <REMARK>
 VINA RESULT:      -9.6      0.000      0.000
  Name = 
  5 active torsions:
  status: ('A' for Active; 'I' for Inactive)
    1  A    between atoms: C_3  and  C_13
    2  A    between atoms: C_5  and  C_18
    3  A    between atoms: C_12  and  C_28
    4  A    between atoms: N_17  and  C_29
    5  A    between atoms: C_18  and  C_29
                            x       y       z     vdW  Elec       q    Type
                         _______ _______ _______ _____ _____    ______ ____

>  <TORSDO>
F 5

$$$$
=
 OpenBabel11052414073D

 34 38  0  0  1  0  0  0  0  0999 V2000
  191.0370  177.0420  144.9820 C   0  0  0  0  0  0  0  0  0  0  0  0
  189.0670  177.0670  146.4200 C   0  0  0  0  0  0  0  0  0  0  0  0
  188.8600  177.4040  143.9590 C   0  0  0  0  0  0  0  0  0  0  0  0
  186.7450  177.7600  142.9200 C   0  0  0  0  0  0  0  0  0  0  0  0
  191.2710  176.7130  147.3690 C   0  0  0  0  0  3  0  0  0  0  0  0
  189.8910  176.8390  147.5260 C   0  0  0  0  0  3  0  0  0  0  0  0
  189.6310  177.1740  145.1240 C   0  0  0  0  0  0  0  0  0  0  0  0
  191.8410  176.8150  146.1010 C   0  0  0  0  0  3  0  0  0  0  0  0
  189.5030  177.4980  142.7010 C   0  0  0  0  0  0  0  0  0  0  0  0
  191.6180  177.1360  143.7580 N   0  0  0  0  0  0  0  0  0  0  0  0
  187.6990  177.1880  146.6360 O   0  0  0  0  0  1  0  0  0  0  0  0
  187.3440  177.8570  141.6650 C   0  0  0  0  0  3  0  0  0  0  0  0
  188.7320  177.7260  141.5440 C   0  0  0  0  0  0  0  0  0  0  0  0
  187.5070  177.5350  144.0230 N   0  0  0  0  0  0  0  0  0  0  0  0
  190.8930  177.3580  142.6340 C   0  0  0  0  0  3  0  0  0  0  0  0
  189.1240  178.5780  137.7980 C   0  0  2  0  0  3  0  0  0  0  0  0
  190.2300  177.7020  137.6380 O   0  0  0  0  0  0  0  0  0  0  0  0
  189.3770  177.8360  140.1920 C   0  0  2  0  0  3  0  0  0  0  0  0
  189.8970  176.4340  138.1560 C   0  0  0  0  0  2  0  0  0  0  0  0
  188.4530  178.5150  139.1820 C   0  0  0  0  0  2  0  0  0  0  0  0
  189.8620  176.4720  139.6860 C   0  0  0  0  0  2  0  0  0  0  0  0
  188.1040  178.3900  136.6890 C   0  0  0  0  0  1  0  0  0  0  0  0
  185.2650  177.8700  143.0500 C   0  0  0  0  0  2  0  0  0  0  0  0
  183.8330  179.6840  143.9750 C   0  0  0  0  0  1  0  0  0  0  0  0
  184.8160  179.3180  142.8800 C   0  0  2  0  0  3  0  0  0  0  0  0
  183.4590  178.5590  141.0960 C   0  0  0  0  0  3  0  0  0  0  0  0
  184.1830  179.4910  141.5990 N   0  0  0  0  0  0  0  0  0  0  0  0
  181.1430  177.0340  140.2770 O   0  0  0  0  0  1  0  0  0  0  0  0
  182.7910  178.7400  139.7640 C   0  0  2  0  0  3  0  0  0  0  0  0
  182.0310  177.4870  139.2980 C   0  0  1  0  0  3  0  0  0  0  0  0
  183.8810  176.8380  137.8350 N   0  0  0  0  0  2  0  0  0  0  0  0
  184.7070  177.9300  138.3430 C   0  0  0  0  0  2  0  0  0  0  0  0
  183.8310  179.1310  138.7120 C   0  0  0  0  0  2  0  0  0  0  0  0
  183.0030  176.3740  138.9080 C   0  0  0  0  0  2  0  0  0  0  0  0
  1  7  1  0  0  0  0
  1  8  2  0  0  0  0
  2 11  1  0  0  0  0
  2  6  1  0  0  0  0
  3 14  1  0  0  0  0
  3  7  1  0  0  0  0
  4 23  1  0  0  0  0
  4 14  2  0  0  0  0
  5  6  2  0  0  0  0
  7  2  2  0  0  0  0
  8  5  1  0  0  0  0
  9  3  2  0  0  0  0
 10  1  1  0  0  0  0
 12  4  1  0  0  0  0
 13 12  2  0  0  0  0
 13  9  1  0  0  0  0
 15  9  1  0  0  0  0
 15 10  2  0  0  0  0
 16 22  1  6  0  0  0
 16 20  1  0  0  0  0
 17 16  1  0  0  0  0
 17 19  1  0  0  0  0
 18 13  1  1  0  0  0
 19 21  1  0  0  0  0
 20 18  1  0  0  0  0
 21 18  1  0  0  0  0
 25 23  1  0  0  0  0
 25 24  1  1  0  0  0
 26 27  2  0  0  0  0
 27 25  1  0  0  0  0
 29 26  1  1  0  0  0
 30 29  1  0  0  0  0
 30 28  1  1  0  0  0
 31 32  1  0  0  0  0
 31 34  1  0  0  0  0
 32 33  1  0  0  0  0
 33 29  1  0  0  0  0
 34 30  1  0  0  0  0
M  END
>  <MODEL>
2

>  <REMARK>
 VINA RESULT:      -9.2      2.151      5.323
  Name = 
  5 active torsions:
  status: ('A' for Active; 'I' for Inactive)
    1  A    between atoms: C_3  and  C_13
    2  A    between atoms: C_5  and  C_18
    3  A    between atoms: C_12  and  C_28
    4  A    between atoms: N_17  and  C_29
    5  A    between atoms: C_18  and  C_29
                            x       y       z     vdW  Elec       q    Type
                         _______ _______ _______ _____ _____    ______ ____

>  <TORSDO>
F 5

$$$$
=
 OpenBabel11052414073D

 34 38  0  0  1  0  0  0  0  0999 V2000
  186.6460  178.1050  138.4390 C   0  0  0  0  0  0  0  0  0  0  0  0
  186.5480  178.6170  140.8220 C   0  0  0  0  0  0  0  0  0  0  0  0
  188.6370  177.7350  139.7860 C   0  0  0  0  0  0  0  0  0  0  0  0
  190.6080  177.3610  141.0720 C   0  0  0  0  0  0  0  0  0  0  0  0
  184.6020  178.9600  139.4150 C   0  0  0  0  0  3  0  0  0  0  0  0
  185.2170  179.0140  140.6650 C   0  0  0  0  0  3  0  0  0  0  0  0
  187.2870  178.1530  139.7050 C   0  0  0  0  0  0  0  0  0  0  0  0
  185.3150  178.5060  138.3070 C   0  0  0  0  0  3  0  0  0  0  0  0
  189.3020  177.2850  138.6200 C   0  0  0  0  0  0  0  0  0  0  0  0
  187.3180  177.6690  137.3420 N   0  0  0  0  0  0  0  0  0  0  0  0
  187.1090  178.6890  142.0930 O   0  0  0  0  0  1  0  0  0  0  0  0
  191.2950  176.9120  139.9460 C   0  0  0  0  0  3  0  0  0  0  0  0
  190.6460  176.8710  138.7060 C   0  0  0  0  0  0  0  0  0  0  0  0
  189.3140  177.7600  140.9670 N   0  0  0  0  0  0  0  0  0  0  0  0
  188.6100  177.2640  137.4060 C   0  0  0  0  0  3  0  0  0  0  0  0
  191.8390  174.4480  135.9460 C   0  0  2  0  0  3  0  0  0  0  0  0
  192.9620  175.2530  135.6200 O   0  0  0  0  0  0  0  0  0  0  0  0
  191.3860  176.3830  137.4930 C   0  0  2  0  0  3  0  0  0  0  0  0
  193.6720  175.5600  136.7990 C   0  0  0  0  0  2  0  0  0  0  0  0
  191.0370  174.9310  137.1680 C   0  0  0  0  0  2  0  0  0  0  0  0
  192.9000  176.5810  137.6380 C   0  0  0  0  0  2  0  0  0  0  0  0
  192.2290  172.9870  136.0940 C   0  0  0  0  0  1  0  0  0  0  0  0
  191.3030  177.4350  142.3880 C   0  0  0  0  0  2  0  0  0  0  0  0
  191.4250  179.2460  144.0930 C   0  0  0  0  0  1  0  0  0  0  0  0
  190.5020  178.2810  143.3720 C   0  0  2  0  0  3  0  0  0  0  0  0
  188.9020  177.8840  145.0710 C   0  0  0  0  0  3  0  0  0  0  0  0
  189.8560  177.4330  144.3400 N   0  0  0  0  0  0  0  0  0  0  0  0
  186.0280  177.7260  145.3350 O   0  0  0  0  0  1  0  0  0  0  0  0
  188.2220  177.0010  146.0770 C   0  0  2  0  0  3  0  0  0  0  0  0
  186.8200  177.5010  146.4640 C   0  0  1  0  0  3  0  0  0  0  0  0
  187.6830  178.5020  148.5220 N   0  0  0  0  0  2  0  0  0  0  0  0
  189.0560  178.1780  148.1410 C   0  0  0  0  0  2  0  0  0  0  0  0
  189.0890  176.8790  147.3320 C   0  0  0  0  0  2  0  0  0  0  0  0
  186.9100  178.7700  147.3110 C   0  0  0  0  0  2  0  0  0  0  0  0
  1  7  1  0  0  0  0
  2 11  1  0  0  0  0
  3 14  1  0  0  0  0
  4 23  1  0  0  0  0
  5  6  2  0  0  0  0
  6  2  1  0  0  0  0
  7  3  1  0  0  0  0
  7  2  2  0  0  0  0
  8  1  2  0  0  0  0
  8  5  1  0  0  0  0
  9 13  1  0  0  0  0
  9  3  2  0  0  0  0
 10 15  2  0  0  0  0
 10  1  1  0  0  0  0
 12  4  1  0  0  0  0
 13 12  2  0  0  0  0
 14  4  2  0  0  0  0
 15  9  1  0  0  0  0
 16 22  1  1  0  0  0
 16 20  1  0  0  0  0
 17 16  1  0  0  0  0
 17 19  1  0  0  0  0
 18 21  1  0  0  0  0
 18 13  1  1  0  0  0
 19 21  1  0  0  0  0
 20 18  1  0  0  0  0
 23 25  1  0  0  0  0
 25 24  1  1  0  0  0
 25 27  1  0  0  0  0
 27 26  2  0  0  0  0
 29 26  1  6  0  0  0
 29 30  1  0  0  0  0
 29 33  1  0  0  0  0
 30 28  1  6  0  0  0
 30 34  1  0  0  0  0
 32 31  1  0  0  0  0
 33 32  1  0  0  0  0
 34 31  1  0  0  0  0
M  END
>  <MODEL>
3

>  <REMARK>
 VINA RESULT:      -9.2      2.735      8.834
  Name = 
  5 active torsions:
  status: ('A' for Active; 'I' for Inactive)
    1  A    between atoms: C_3  and  C_13
    2  A    between atoms: C_5  and  C_18
    3  A    between atoms: C_12  and  C_28
    4  A    between atoms: N_17  and  C_29
    5  A    between atoms: C_18  and  C_29
                            x       y       z     vdW  Elec       q    Type
                         _______ _______ _______ _____ _____    ______ ____

>  <TORSDO>
F 5

$$$$
=
 OpenBabel11052414073D

 34 38  0  0  1  0  0  0  0  0999 V2000
  190.2870  176.7870  140.0900 C   0  0  0  0  0  0  0  0  0  0  0  0
  188.6440  177.8420  138.6290 C   0  0  0  0  0  0  0  0  0  0  0  0
  188.2380  177.6430  141.0800 C   0  0  0  0  0  0  0  0  0  0  0  0
  186.2430  178.4700  142.0870 C   0  0  0  0  0  0  0  0  0  0  0  0
  190.7120  176.9640  137.7130 C   0  0  0  0  0  3  0  0  0  0  0  0
  189.4840  177.6020  137.5380 C   0  0  0  0  0  3  0  0  0  0  0  0
  189.0350  177.4340  139.9290 C   0  0  0  0  0  0  0  0  0  0  0  0
  191.1100  176.5580  138.9850 C   0  0  0  0  0  3  0  0  0  0  0  0
  188.7030  177.2040  142.3430 C   0  0  0  0  0  0  0  0  0  0  0  0
  190.7010  176.3820  141.3190 N   0  0  0  0  0  0  0  0  0  0  0  0
  187.4310  178.4790  138.3950 O   0  0  0  0  0  1  0  0  0  0  0  0
  186.6690  178.0530  143.3470 C   0  0  0  0  0  3  0  0  0  0  0  0
  187.9070  177.4140  143.4860 C   0  0  0  0  0  0  0  0  0  0  0  0
  187.0280  178.2620  140.9980 N   0  0  0  0  0  0  0  0  0  0  0  0
  189.9480  176.5730  142.4290 C   0  0  0  0  0  3  0  0  0  0  0  0
  188.0380  177.1310  147.3350 C   0  0  2  0  0  3  0  0  0  0  0  0
  189.3460  176.5800  147.3250 O   0  0  0  0  0  0  0  0  0  0  0  0
  188.3630  176.9600  144.8430 C   0  0  2  0  0  3  0  0  0  0  0  0
  190.1870  177.3920  146.5380 C   0  0  0  0  0  2  0  0  0  0  0  0
  187.5220  177.5840  145.9570 C   0  0  0  0  0  2  0  0  0  0  0  0
  189.8590  177.2210  145.0520 C   0  0  0  0  0  2  0  0  0  0  0  0
  187.9160  178.2490  148.3560 C   0  0  0  0  0  1  0  0  0  0  0  0
  184.9390  179.1760  141.9380 C   0  0  0  0  0  2  0  0  0  0  0  0
  184.1300  179.4160  139.5960 C   0  0  0  0  0  1  0  0  0  0  0  0
  184.1050  178.5380  140.8320 C   0  0  2  0  0  3  0  0  0  0  0  0
  181.7670  178.6090  140.4700 C   0  0  0  0  0  3  0  0  0  0  0  0
  182.7440  178.3770  141.2710 N   0  0  0  0  0  0  0  0  0  0  0  0
  179.5030  179.5340  138.9290 O   0  0  0  0  0  1  0  0  0  0  0  0
  180.3460  178.4360  140.9220 C   0  0  2  0  0  3  0  0  0  0  0  0
  179.3930  179.4820  140.3210 C   0  0  1  0  0  3  0  0  0  0  0  0
  179.4630  180.8100  142.3740 N   0  0  0  0  0  2  0  0  0  0  0  0
  180.4790  179.9290  142.9460 C   0  0  0  0  0  2  0  0  0  0  0  0
  180.2770  178.4940  142.4500 C   0  0  0  0  0  2  0  0  0  0  0  0
  179.6490  180.8620  140.9250 C   0  0  0  0  0  2  0  0  0  0  0  0
  1 10  1  0  0  0  0
  2  7  1  0  0  0  0
  3  9  1  0  0  0  0
  4 12  2  0  0  0  0
  5  8  2  0  0  0  0
  6  5  1  0  0  0  0
  6  2  2  0  0  0  0
  7  1  2  0  0  0  0
  7  3  1  0  0  0  0
  8  1  1  0  0  0  0
  9 15  1  0  0  0  0
  9 13  2  0  0  0  0
 10 15  2  0  0  0  0
 11  2  1  0  0  0  0
 12 13  1  0  0  0  0
 14  3  2  0  0  0  0
 14  4  1  0  0  0  0
 16 22  1  1  0  0  0
 17 16  1  0  0  0  0
 18 13  1  6  0  0  0
 18 21  1  0  0  0  0
 18 20  1  0  0  0  0
 19 17  1  0  0  0  0
 20 16  1  0  0  0  0
 21 19  1  0  0  0  0
 23  4  1  0  0  0  0
 25 24  1  6  0  0  0
 25 27  1  0  0  0  0
 25 23  1  0  0  0  0
 26 27  2  0  0  0  0
 29 26  1  1  0  0  0
 29 33  1  0  0  0  0
 30 28  1  6  0  0  0
 30 29  1  0  0  0  0
 30 34  1  0  0  0  0
 31 32  1  0  0  0  0
 33 32  1  0  0  0  0
 34 31  1  0  0  0  0
M  END
>  <MODEL>
4

>  <REMARK>
 VINA RESULT:      -9.1      2.859      7.006
  Name = 
  5 active torsions:
  status: ('A' for Active; 'I' for Inactive)
    1  A    between atoms: C_3  and  C_13
    2  A    between atoms: C_5  and  C_18
    3  A    between atoms: C_12  and  C_28
    4  A    between atoms: N_17  and  C_29
    5  A    between atoms: C_18  and  C_29
                            x       y       z     vdW  Elec       q    Type
                         _______ _______ _______ _____ _____    ______ ____

>  <TORSDO>
F 5

$$$$
=
 OpenBabel11052414073D

 34 38  0  0  1  0  0  0  0  0999 V2000
  186.8310  177.8690  145.3740 C   0  0  0  0  0  0  0  0  0  0  0  0
  189.1610  177.3480  144.8760 C   0  0  0  0  0  0  0  0  0  0  0  0
  187.5700  177.9640  143.0590 C   0  0  0  0  0  0  0  0  0  0  0  0
  188.2570  178.0680  140.7790 C   0  0  0  0  0  0  0  0  0  0  0  0
  188.3510  177.2740  147.1610 C   0  0  0  0  0  3  0  0  0  0  0  0
  189.3850  177.1280  146.2380 C   0  0  0  0  0  3  0  0  0  0  0  0
  187.8720  177.7240  144.4210 C   0  0  0  0  0  0  0  0  0  0  0  0
  187.0780  177.6430  146.7290 C   0  0  0  0  0  3  0  0  0  0  0  0
  186.2550  178.3360  142.6880 C   0  0  0  0  0  0  0  0  0  0  0  0
  185.5820  178.2290  144.9810 N   0  0  0  0  0  0  0  0  0  0  0  0
  190.2290  177.1840  144.0010 O   0  0  0  0  0  1  0  0  0  0  0  0
  186.9740  178.4370  140.3780 C   0  0  0  0  0  3  0  0  0  0  0  0
  185.9590  178.5740  141.3320 C   0  0  0  0  0  0  0  0  0  0  0  0
  188.5220  177.8470  142.0930 N   0  0  0  0  0  0  0  0  0  0  0  0
  185.2770  178.4610  143.6800 C   0  0  0  0  0  3  0  0  0  0  0  0
  182.1780  178.2470  140.6190 C   0  0  2  0  0  3  0  0  0  0  0  0
  182.1660  179.3780  139.7600 O   0  0  0  0  0  0  0  0  0  0  0  0
  184.5750  178.9660  140.8970 C   0  0  2  0  0  3  0  0  0  0  0  0
  183.1910  179.2450  138.8020 C   0  0  0  0  0  2  0  0  0  0  0  0
  183.5760  177.8300  141.1090 C   0  0  0  0  0  2  0  0  0  0  0  0
  184.5600  179.4690  139.4490 C   0  0  0  0  0  2  0  0  0  0  0  0
  181.4460  177.0710  139.9960 C   0  0  0  0  0  1  0  0  0  0  0  0
  189.3470  177.9490  139.7710 C   0  0  0  0  0  2  0  0  0  0  0  0
  191.5970  177.3540  140.6560 C   0  0  0  0  0  1  0  0  0  0  0  0
  190.2870  176.8020  140.1280 C   0  0  2  0  0  3  0  0  0  0  0  0
  189.8640  176.1600  137.8900 C   0  0  0  0  0  3  0  0  0  0  0  0
  190.5480  175.9970  138.9640 N   0  0  0  0  0  0  0  0  0  0  0  0
  189.8620  177.2460  135.2100 O   0  0  0  0  0  1  0  0  0  0  0  0
  190.1380  175.3270  136.6710 C   0  0  2  0  0  3  0  0  0  0  0  0
  189.5080  175.9070  135.3930 C   0  0  1  0  0  3  0  0  0  0  0  0
  187.6290  174.3470  135.5440 N   0  0  0  0  0  2  0  0  0  0  0  0
  188.1030  173.8530  136.8350 C   0  0  0  0  0  2  0  0  0  0  0  0
  189.6320  173.9000  136.8930 C   0  0  0  0  0  2  0  0  0  0  0  0
  187.9870  175.7600  135.4220 C   0  0  0  0  0  2  0  0  0  0  0  0
  1  8  2  0  0  0  0
  2  6  1  0  0  0  0
  3  7  1  0  0  0  0
  4 14  1  0  0  0  0
  6  5  2  0  0  0  0
  7  2  2  0  0  0  0
  7  1  1  0  0  0  0
  8  5  1  0  0  0  0
  9  3  1  0  0  0  0
  9 15  1  0  0  0  0
 10  1  1  0  0  0  0
 11  2  1  0  0  0  0
 12  4  2  0  0  0  0
 12 13  1  0  0  0  0
 13  9  2  0  0  0  0
 14  3  2  0  0  0  0
 15 10  2  0  0  0  0
 16 22  1  6  0  0  0
 16 20  1  0  0  0  0
 17 16  1  0  0  0  0
 18 20  1  0  0  0  0
 18 13  1  6  0  0  0
 19 21  1  0  0  0  0
 19 17  1  0  0  0  0
 21 18  1  0  0  0  0
 23 25  1  0  0  0  0
 23  4  1  0  0  0  0
 25 24  1  6  0  0  0
 26 27  2  0  0  0  0
 27 25  1  0  0  0  0
 29 33  1  0  0  0  0
 29 26  1  1  0  0  0
 30 28  1  1  0  0  0
 30 34  1  0  0  0  0
 30 29  1  0  0  0  0
 31 32  1  0  0  0  0
 32 33  1  0  0  0  0
 34 31  1  0  0  0  0
M  END
>  <MODEL>
5

>  <REMARK>
 VINA RESULT:      -9.1      1.721      2.418
  Name = 
  5 active torsions:
  status: ('A' for Active; 'I' for Inactive)
    1  A    between atoms: C_3  and  C_13
    2  A    between atoms: C_5  and  C_18
    3  A    between atoms: C_12  and  C_28
    4  A    between atoms: N_17  and  C_29
    5  A    between atoms: C_18  and  C_29
                            x       y       z     vdW  Elec       q    Type
                         _______ _______ _______ _____ _____    ______ ____

>  <TORSDO>
F 5

$$$$
=
 OpenBabel11052414073D

 34 38  0  0  1  0  0  0  0  0999 V2000
  190.4030  177.3520  144.9500 C   0  0  0  0  0  0  0  0  0  0  0  0
  188.4340  177.3180  146.3890 C   0  0  0  0  0  0  0  0  0  0  0  0
  188.2220  177.7010  143.9340 C   0  0  0  0  0  0  0  0  0  0  0  0
  186.1020  178.0470  142.9020 C   0  0  0  0  0  0  0  0  0  0  0  0
  190.6430  176.9780  147.3300 C   0  0  0  0  0  3  0  0  0  0  0  0
  189.2620  177.0800  147.4890 C   0  0  0  0  0  3  0  0  0  0  0  0
  188.9960  177.4590  145.0950 C   0  0  0  0  0  0  0  0  0  0  0  0
  191.2110  177.1140  146.0650 C   0  0  0  0  0  3  0  0  0  0  0  0
  188.8630  177.8290  142.6790 C   0  0  0  0  0  0  0  0  0  0  0  0
  190.9830  177.4780  143.7290 N   0  0  0  0  0  0  0  0  0  0  0  0
  187.0640  177.4140  146.6070 O   0  0  0  0  0  1  0  0  0  0  0  0
  186.6990  178.1780  141.6500 C   0  0  0  0  0  3  0  0  0  0  0  0
  188.0890  178.0700  141.5270 C   0  0  0  0  0  0  0  0  0  0  0  0
  186.8660  177.8110  144.0000 N   0  0  0  0  0  0  0  0  0  0  0  0
  190.2550  177.7120  142.6090 C   0  0  0  0  0  3  0  0  0  0  0  0
  188.3800  178.3660  137.6880 C   0  0  2  0  0  3  0  0  0  0  0  0
  189.7600  178.0330  137.6920 O   0  0  0  0  0  0  0  0  0  0  0  0
  188.7320  178.2160  140.1770 C   0  0  2  0  0  3  0  0  0  0  0  0
  189.9510  176.8520  138.4350 C   0  0  0  0  0  2  0  0  0  0  0  0
  187.6900  178.2550  139.0600 C   0  0  0  0  0  2  0  0  0  0  0  0
  189.7830  177.1270  139.9320 C   0  0  0  0  0  2  0  0  0  0  0  0
  187.6230  177.5780  136.6330 C   0  0  0  0  0  1  0  0  0  0  0  0
  184.6200  178.1310  143.0340 C   0  0  0  0  0  2  0  0  0  0  0  0
  184.2430  178.9830  145.3430 C   0  0  0  0  0  1  0  0  0  0  0  0
  184.2230  179.3440  143.8700 C   0  0  2  0  0  3  0  0  0  0  0  0
  182.1090  179.0030  142.8630 C   0  0  0  0  0  3  0  0  0  0  0  0
  182.9000  179.7810  143.5080 N   0  0  0  0  0  0  0  0  0  0  0  0
  179.7180  177.8730  144.0320 O   0  0  0  0  0  1  0  0  0  0  0  0
  180.7260  179.4540  142.4900 C   0  0  2  0  0  3  0  0  0  0  0  0
  179.6580  178.3730  142.7290 C   0  0  1  0  0  3  0  0  0  0  0  0
  179.6640  177.7620  140.3600 N   0  0  0  0  0  2  0  0  0  0  0  0
  180.7770  178.6710  140.0970 C   0  0  0  0  0  2  0  0  0  0  0  0
  180.6990  179.8880  141.0230 C   0  0  0  0  0  2  0  0  0  0  0  0
  179.7990  177.2360  141.7180 C   0  0  0  0  0  2  0  0  0  0  0  0
  1  7  1  0  0  0  0
  1  8  2  0  0  0  0
  2 11  1  0  0  0  0
  2  6  1  0  0  0  0
  3 14  1  0  0  0  0
  3  7  1  0  0  0  0
  4 23  1  0  0  0  0
  4 14  2  0  0  0  0
  5  6  2  0  0  0  0
  7  2  2  0  0  0  0
  8  5  1  0  0  0  0
  9  3  2  0  0  0  0
 10  1  1  0  0  0  0
 12  4  1  0  0  0  0
 13 12  2  0  0  0  0
 13  9  1  0  0  0  0
 15  9  1  0  0  0  0
 15 10  2  0  0  0  0
 16 22  1  6  0  0  0
 16 17  1  0  0  0  0
 16 20  1  0  0  0  0
 17 19  1  0  0  0  0
 18 13  1  1  0  0  0
 19 21  1  0  0  0  0
 20 18  1  0  0  0  0
 21 18  1  0  0  0  0
 23 25  1  0  0  0  0
 25 24  1  1  0  0  0
 26 27  2  0  0  0  0
 27 25  1  0  0  0  0
 29 30  1  0  0  0  0
 29 26  1  6  0  0  0
 30 28  1  1  0  0  0
 31 34  1  0  0  0  0
 32 31  1  0  0  0  0
 32 33  1  0  0  0  0
 33 29  1  0  0  0  0
 34 30  1  0  0  0  0
M  END
>  <MODEL>
6

>  <REMARK>
 VINA RESULT:      -9.0      2.402      6.369
  Name = 
  5 active torsions:
  status: ('A' for Active; 'I' for Inactive)
    1  A    between atoms: C_3  and  C_13
    2  A    between atoms: C_5  and  C_18
    3  A    between atoms: C_12  and  C_28
    4  A    between atoms: N_17  and  C_29
    5  A    between atoms: C_18  and  C_29
                            x       y       z     vdW  Elec       q    Type
                         _______ _______ _______ _____ _____    ______ ____

>  <TORSDO>
F 5

$$$$
=
 OpenBabel11052414073D

 34 38  0  0  1  0  0  0  0  0999 V2000
  184.5450  178.5700  144.3090 C   0  0  0  0  0  0  0  0  0  0  0  0
  184.3990  178.6670  141.8760 C   0  0  0  0  0  0  0  0  0  0  0  0
  186.5820  178.2780  143.0150 C   0  0  0  0  0  0  0  0  0  0  0  0
  188.6000  177.9860  141.7800 C   0  0  0  0  0  0  0  0  0  0  0  0
  182.4090  178.9500  143.2350 C   0  0  0  0  0  3  0  0  0  0  0  0
  183.0230  178.8880  141.9840 C   0  0  0  0  0  3  0  0  0  0  0  0
  185.1850  178.5050  143.0450 C   0  0  0  0  0  0  0  0  0  0  0  0
  183.1690  178.7920  144.3920 C   0  0  0  0  0  3  0  0  0  0  0  0
  187.2940  178.1260  144.2290 C   0  0  0  0  0  0  0  0  0  0  0  0
  185.2610  178.4180  145.4540 N   0  0  0  0  0  0  0  0  0  0  0  0
  184.9580  178.6170  140.6040 O   0  0  0  0  0  1  0  0  0  0  0  0
  189.3330  177.8310  142.9550 C   0  0  0  0  0  3  0  0  0  0  0  0
  188.6840  177.9000  144.1940 C   0  0  0  0  0  0  0  0  0  0  0  0
  187.2590  178.1990  141.8360 N   0  0  0  0  0  0  0  0  0  0  0  0
  186.5990  178.2020  145.4400 C   0  0  0  0  0  3  0  0  0  0  0  0
  191.5230  176.7530  146.5470 C   0  0  2  0  0  3  0  0  0  0  0  0
  190.7570  177.0030  147.7160 O   0  0  0  0  0  0  0  0  0  0  0  0
  189.4750  177.7380  145.4600 C   0  0  2  0  0  3  0  0  0  0  0  0
  189.4990  176.3790  147.5900 C   0  0  0  0  0  2  0  0  0  0  0  0
  190.7540  176.9350  145.2250 C   0  0  0  0  0  2  0  0  0  0  0  0
  188.6260  177.1320  146.5830 C   0  0  0  0  0  2  0  0  0  0  0  0
  192.1920  175.3900  146.6040 C   0  0  0  0  0  1  0  0  0  0  0  0
  189.2810  177.8840  140.4590 C   0  0  0  0  0  2  0  0  0  0  0  0
  191.7390  177.5030  140.5640 C   0  0  0  0  0  1  0  0  0  0  0  0
  190.3820  176.8290  140.5020 C   0  0  2  0  0  3  0  0  0  0  0  0
  189.4890  176.2680  138.3830 C   0  0  0  0  0  3  0  0  0  0  0  0
  190.3190  176.0020  139.3260 N   0  0  0  0  0  0  0  0  0  0  0  0
  191.4770  176.3770  136.2870 O   0  0  0  0  0  1  0  0  0  0  0  0
  189.4260  175.4110  137.1520 C   0  0  2  0  0  3  0  0  0  0  0  0
  190.1670  176.0270  135.9530 C   0  0  1  0  0  3  0  0  0  0  0  0
  188.0670  176.8480  135.0040 N   0  0  0  0  0  2  0  0  0  0  0  0
  187.3260  176.4100  136.1840 C   0  0  0  0  0  2  0  0  0  0  0  0
  187.9650  175.1510  136.7750 C   0  0  0  0  0  2  0  0  0  0  0  0
  189.4130  177.2430  135.4140 C   0  0  0  0  0  2  0  0  0  0  0  0
  1  8  1  0  0  0  0
  1 10  1  0  0  0  0
  2  6  2  0  0  0  0
  2  7  1  0  0  0  0
  3  7  1  0  0  0  0
  3  9  1  0  0  0  0
  4 14  1  0  0  0  0
  4 12  2  0  0  0  0
  5  8  2  0  0  0  0
  6  5  1  0  0  0  0
  7  1  2  0  0  0  0
  9 15  1  0  0  0  0
 11  2  1  0  0  0  0
 12 13  1  0  0  0  0
 13  9  2  0  0  0  0
 14  3  2  0  0  0  0
 15 10  2  0  0  0  0
 16 22  1  1  0  0  0
 16 17  1  0  0  0  0
 18 13  1  6  0  0  0
 18 21  1  0  0  0  0
 19 17  1  0  0  0  0
 20 18  1  0  0  0  0
 20 16  1  0  0  0  0
 21 19  1  0  0  0  0
 23 25  1  0  0  0  0
 23  4  1  0  0  0  0
 25 24  1  6  0  0  0
 26 27  2  0  0  0  0
 27 25  1  0  0  0  0
 29 26  1  1  0  0  0
 30 28  1  1  0  0  0
 30 29  1  0  0  0  0
 31 34  1  0  0  0  0
 31 32  1  0  0  0  0
 32 33  1  0  0  0  0
 33 29  1  0  0  0  0
 34 30  1  0  0  0  0
M  END
>  <MODEL>
7

>  <REMARK>
 VINA RESULT:      -9.0      1.775      5.499
  Name = 
  5 active torsions:
  status: ('A' for Active; 'I' for Inactive)
    1  A    between atoms: C_3  and  C_13
    2  A    between atoms: C_5  and  C_18
    3  A    between atoms: C_12  and  C_28
    4  A    between atoms: N_17  and  C_29
    5  A    between atoms: C_18  and  C_29
                            x       y       z     vdW  Elec       q    Type
                         _______ _______ _______ _____ _____    ______ ____

>  <TORSDO>
F 5

$$$$
=
 OpenBabel11052414073D

 34 38  0  0  1  0  0  0  0  0999 V2000
  188.7530  177.1340  146.2530 C   0  0  0  0  0  0  0  0  0  0  0  0
  190.7330  177.3250  144.8410 C   0  0  0  0  0  0  0  0  0  0  0  0
  188.4540  177.7300  143.9150 C   0  0  0  0  0  0  0  0  0  0  0  0
  188.1210  178.3160  141.6290 C   0  0  0  0  0  0  0  0  0  0  0  0
  190.9520  176.7340  147.1840 C   0  0  0  0  0  3  0  0  0  0  0  0
  191.5290  176.9930  145.9410 C   0  0  0  0  0  3  0  0  0  0  0  0
  189.3240  177.4000  144.9820 C   0  0  0  0  0  0  0  0  0  0  0  0
  189.5690  176.8040  147.3380 C   0  0  0  0  0  3  0  0  0  0  0  0
  187.0580  177.7830  144.1400 C   0  0  0  0  0  0  0  0  0  0  0  0
  187.4080  177.1960  146.4320 N   0  0  0  0  0  0  0  0  0  0  0  0
  191.3620  177.5700  143.6260 O   0  0  0  0  0  1  0  0  0  0  0  0
  186.7410  178.3780  141.8140 C   0  0  0  0  0  3  0  0  0  0  0  0
  186.1960  178.1120  143.0750 C   0  0  0  0  0  0  0  0  0  0  0  0
  188.9350  178.0010  142.6700 N   0  0  0  0  0  0  0  0  0  0  0  0
  186.5630  177.5090  145.4190 C   0  0  0  0  0  3  0  0  0  0  0  0
  182.4490  178.3520  142.1740 C   0  0  2  0  0  3  0  0  0  0  0  0
  182.0790  178.7310  143.4910 O   0  0  0  0  0  0  0  0  0  0  0  0
  184.7080  178.1740  143.2730 C   0  0  2  0  0  3  0  0  0  0  0  0
  182.8880  179.8070  143.9100 C   0  0  0  0  0  2  0  0  0  0  0  0
  183.9670  178.2500  141.9380 C   0  0  0  0  0  2  0  0  0  0  0  0
  184.3110  179.3240  144.2060 C   0  0  0  0  0  2  0  0  0  0  0  0
  181.7960  179.2490  141.1360 C   0  0  0  0  0  1  0  0  0  0  0  0
  188.7090  178.6280  140.2960 C   0  0  0  0  0  2  0  0  0  0  0  0
  190.5730  177.0930  139.6870 C   0  0  0  0  0  1  0  0  0  0  0  0
  189.0820  177.3460  139.5590 C   0  0  2  0  0  3  0  0  0  0  0  0
  187.9510  176.6090  137.6150 C   0  0  0  0  0  3  0  0  0  0  0  0
  188.7400  177.4590  138.1660 N   0  0  0  0  0  0  0  0  0  0  0  0
  185.8710  175.0250  136.3810 O   0  0  0  0  0  1  0  0  0  0  0  0
  187.5860  176.7280  136.1640 C   0  0  2  0  0  3  0  0  0  0  0  0
  186.9480  175.4480  135.5980 C   0  0  1  0  0  3  0  0  0  0  0  0
  189.0720  174.7640  134.5960 N   0  0  0  0  0  2  0  0  0  0  0  0
  189.7660  175.8850  135.2250 C   0  0  0  0  0  2  0  0  0  0  0  0
  188.8280  177.0890  135.3450 C   0  0  0  0  0  2  0  0  0  0  0  0
  187.9850  174.3330  135.4740 C   0  0  0  0  0  2  0  0  0  0  0  0
  1 10  1  0  0  0  0
  1  8  2  0  0  0  0
  2  7  2  0  0  0  0
  2  6  1  0  0  0  0
  3  9  1  0  0  0  0
  3  7  1  0  0  0  0
  4 12  2  0  0  0  0
  4 14  1  0  0  0  0
  5  8  1  0  0  0  0
  6  5  2  0  0  0  0
  7  1  1  0  0  0  0
  9 15  1  0  0  0  0
 11  2  1  0  0  0  0
 12 13  1  0  0  0  0
 13  9  2  0  0  0  0
 14  3  2  0  0  0  0
 15 10  2  0  0  0  0
 16 22  1  6  0  0  0
 16 17  1  0  0  0  0
 17 19  1  0  0  0  0
 18 13  1  6  0  0  0
 18 21  1  0  0  0  0
 19 21  1  0  0  0  0
 20 16  1  0  0  0  0
 20 18  1  0  0  0  0
 23  4  1  0  0  0  0
 25 24  1  6  0  0  0
 25 23  1  0  0  0  0
 26 27  2  0  0  0  0
 27 25  1  0  0  0  0
 29 26  1  1  0  0  0
 30 29  1  0  0  0  0
 30 28  1  1  0  0  0
 31 32  1  0  0  0  0
 31 34  1  0  0  0  0
 32 33  1  0  0  0  0
 33 29  1  0  0  0  0
 34 30  1  0  0  0  0
M  END
>  <MODEL>
8

>  <REMARK>
 VINA RESULT:      -9.0      1.214      1.531
  Name = 
  5 active torsions:
  status: ('A' for Active; 'I' for Inactive)
    1  A    between atoms: C_3  and  C_13
    2  A    between atoms: C_5  and  C_18
    3  A    between atoms: C_12  and  C_28
    4  A    between atoms: N_17  and  C_29
    5  A    between atoms: C_18  and  C_29
                            x       y       z     vdW  Elec       q    Type
                         _______ _______ _______ _____ _____    ______ ____

>  <TORSDO>
F 5

$$$$
=
 OpenBabel11052414073D

 34 38  0  0  1  0  0  0  0  0999 V2000
  186.5130  177.5140  136.3620 C   0  0  0  0  0  0  0  0  0  0  0  0
  188.2500  178.4560  137.7920 C   0  0  0  0  0  0  0  0  0  0  0  0
  185.9170  178.1800  138.6240 C   0  0  0  0  0  0  0  0  0  0  0  0
  185.2950  178.8200  140.8340 C   0  0  0  0  0  0  0  0  0  0  0  0
  188.7690  177.7690  135.5240 C   0  0  0  0  0  3  0  0  0  0  0  0
  189.1670  178.3070  136.7470 C   0  0  0  0  0  3  0  0  0  0  0  0
  186.9010  178.0600  137.6130 C   0  0  0  0  0  0  0  0  0  0  0  0
  187.4470  177.3750  135.3330 C   0  0  0  0  0  3  0  0  0  0  0  0
  184.5900  177.7600  138.3630 C   0  0  0  0  0  0  0  0  0  0  0  0
  185.2310  177.1200  136.1500 N   0  0  0  0  0  0  0  0  0  0  0  0
  188.7020  179.0010  138.9880 O   0  0  0  0  0  1  0  0  0  0  0  0
  183.9790  178.4160  140.6130 C   0  0  0  0  0  3  0  0  0  0  0  0
  183.6140  177.8810  139.3720 C   0  0  0  0  0  0  0  0  0  0  0  0
  186.2210  178.6910  139.8490 N   0  0  0  0  0  0  0  0  0  0  0  0
  184.2770  177.2300  137.1080 C   0  0  0  0  0  3  0  0  0  0  0  0
  179.7660  177.8260  139.6820 C   0  0  2  0  0  3  0  0  0  0  0  0
  179.6660  176.5160  139.1440 O   0  0  0  0  0  0  0  0  0  0  0  0
  182.1950  177.4510  139.1340 C   0  0  2  0  0  3  0  0  0  0  0  0
  180.5520  175.6620  139.8310 C   0  0  0  0  0  2  0  0  0  0  0  0
  181.2070  178.3150  139.9150 C   0  0  0  0  0  2  0  0  0  0  0  0
  182.0000  175.9590  139.4320 C   0  0  0  0  0  2  0  0  0  0  0  0
  178.9310  177.9720  140.9430 C   0  0  0  0  0  1  0  0  0  0  0  0
  185.6940  179.3630  142.1630 C   0  0  0  0  0  2  0  0  0  0  0  0
  185.2810  178.9930  144.5900 C   0  0  0  0  0  1  0  0  0  0  0  0
  185.5020  178.3130  143.2520 C   0  0  2  0  0  3  0  0  0  0  0  0
  187.5310  177.6430  144.2700 C   0  0  0  0  0  3  0  0  0  0  0  0
  186.6660  177.4710  143.3370 N   0  0  0  0  0  0  0  0  0  0  0  0
  189.4800  177.8730  146.3930 O   0  0  0  0  0  1  0  0  0  0  0  0
  188.7430  176.7620  144.3650 C   0  0  2  0  0  3  0  0  0  0  0  0
  189.8990  177.4140  145.1430 C   0  0  1  0  0  3  0  0  0  0  0  0
  191.0180  178.0470  143.0610 N   0  0  0  0  0  2  0  0  0  0  0  0
  189.8840  177.5730  142.2710 C   0  0  0  0  0  2  0  0  0  0  0  0
  189.2180  176.3790  142.9620 C   0  0  0  0  0  2  0  0  0  0  0  0
  190.5200  178.5560  144.3380 C   0  0  0  0  0  2  0  0  0  0  0  0
  1  7  1  0  0  0  0
  2 11  1  0  0  0  0
  3 14  1  0  0  0  0
  4 23  1  0  0  0  0
  5  6  1  0  0  0  0
  6  2  2  0  0  0  0
  7  2  1  0  0  0  0
  7  3  2  0  0  0  0
  8  5  2  0  0  0  0
  8  1  1  0  0  0  0
  9  3  1  0  0  0  0
  9 13  1  0  0  0  0
 10  1  2  0  0  0  0
 10 15  1  0  0  0  0
 12  4  1  0  0  0  0
 13 12  2  0  0  0  0
 14  4  2  0  0  0  0
 15  9  2  0  0  0  0
 16 20  1  0  0  0  0
 16 22  1  1  0  0  0
 17 16  1  0  0  0  0
 17 19  1  0  0  0  0
 18 13  1  1  0  0  0
 18 21  1  0  0  0  0
 18 20  1  0  0  0  0
 21 19  1  0  0  0  0
 23 25  1  0  0  0  0
 25 27  1  0  0  0  0
 25 24  1  1  0  0  0
 27 26  2  0  0  0  0
 29 26  1  6  0  0  0
 29 30  1  0  0  0  0
 30 28  1  1  0  0  0
 31 34  1  0  0  0  0
 32 33  1  0  0  0  0
 32 31  1  0  0  0  0
 33 29  1  0  0  0  0
 34 30  1  0  0  0  0
M  END
>  <MODEL>
9

>  <REMARK>
 VINA RESULT:      -8.8      2.398      7.429
  Name = 
  5 active torsions:
  status: ('A' for Active; 'I' for Inactive)
    1  A    between atoms: C_3  and  C_13
    2  A    between atoms: C_5  and  C_18
    3  A    between atoms: C_12  and  C_28
    4  A    between atoms: N_17  and  C_29
    5  A    between atoms: C_18  and  C_29
                            x       y       z     vdW  Elec       q    Type
                         _______ _______ _______ _____ _____    ______ ____

>  <TORSDO>
F 5

$$$$
