=
 OpenBabel11052415363D

 37 38  0  0  1  0  0  0  0  0999 V2000
  190.5690  177.2860  140.2670 C   0  0  0  0  0  2  0  0  0  0  0  0
  188.5140  179.3040  141.2450 C   0  0  0  0  0  2  0  0  0  0  0  0
  190.8050  178.4760  142.9990 C   0  0  2  0  0  3  0  0  0  0  0  0
  189.1460  177.3550  139.7130 C   0  0  1  0  0  3  0  0  0  0  0  0
  190.6380  176.4280  141.5220 C   0  0  0  0  0  2  0  0  0  0  0  0
  188.1300  177.9150  140.7300 C   0  0  2  0  0  3  0  0  0  0  0  0
  188.4570  179.3800  142.7720 C   0  0  0  0  0  2  0  0  0  0  0  0
  191.4320  177.1370  142.6180 C   0  0  0  0  0  2  0  0  0  0  0  0
  191.6920  179.2420  143.9690 C   0  0  0  0  0  1  0  0  0  0  0  0
  189.3370  178.3270  143.4450 C   0  0  2  0  0  3  0  0  0  0  0  0
  187.9670  177.4800  145.4980 C   0  0  2  0  0  3  0  0  0  0  0  0
  189.4110  177.0240  145.6550 C   0  0  1  0  0  0  0  0  0  0  0  0
  189.8380  175.9720  144.8350 O   0  0  0  0  0  1  0  0  0  0  0  0
  187.2210  176.6780  144.4320 C   0  0  0  0  0  1  0  0  0  0  0  0
  189.1320  178.3530  144.9700 C   0  0  1  0  0  3  0  0  0  0  0  0
  188.8170  177.8810  148.1900 S   0  0  0  0  0  1  0  0  0  0  0  0
  190.0090  177.1260  147.0460 C   0  0  0  0  0  2  0  0  0  0  0  0
  189.1500  178.1050  138.4170 C   0  0  0  0  0  0  0  0  0  0  0  0
  189.0570  179.3620  138.4300 O   0  0  0  0  0  0  0  0  0  0  0  0
  189.2370  177.4080  137.2090 O   0  0  0  0  0  0  0  0  0  0  0  0
  189.1300  177.4870  134.7940 C   0  0  0  0  0  1  0  0  0  0  0  0
  188.3780  177.6730  136.1030 C   0  0  1  0  0  3  0  0  0  0  0  0
  187.1470  176.7650  136.1380 C   0  0  1  0  0  3  0  0  0  0  0  0
  187.3950  175.4530  136.8760 C   0  0  0  0  0  1  0  0  0  0  0  0
  184.8490  176.5340  137.2000 C   0  0  0  0  0  1  0  0  0  0  0  0
  185.9030  177.4870  136.6540 C   0  0  0  0  0  2  0  0  0  0  0  0
  186.7130  177.9080  140.1640 C   0  0  0  0  0  2  0  0  0  0  0  0
  185.8020  178.8380  140.9470 C   0  0  1  0  0  3  0  0  0  0  0  0
  184.6860  179.2840  140.1020 C   0  0  0  0  0  0  0  0  0  0  0  0
  183.7780  179.6450  139.3970 C   0  0  0  0  0  0  0  0  0  0  0  0
  182.6780  180.0780  138.5340 C   0  0  0  0  0  2  0  0  0  0  0  0
  181.5290  177.9470  137.4090 C   0  0  0  0  0  3  0  0  0  0  0  0
  182.0490  178.9080  137.9160 C   0  0  0  0  0  0  0  0  0  0  0  0
  185.3020  178.1490  142.0860 O   0  0  0  0  0  0  0  0  0  0  0  0
  183.1620  178.6220  142.8270 O   0  0  0  0  0  0  0  0  0  0  0  0
  184.4080  178.7330  142.9860 C   0  0  0  0  0  0  0  0  0  0  0  0
  184.9330  179.4960  144.1470 C   0  0  0  0  0  1  0  0  0  0  0  0
  1  5  1  0  0  0  0
  2  7  1  0  0  0  0
  3 10  1  0  0  0  0
  3  9  1  1  0  0  0
  4 18  1  6  0  0  0
  4  1  1  0  0  0  0
  4  6  1  0  0  0  0
  5  8  1  0  0  0  0
  6 27  1  6  0  0  0
  6  2  1  0  0  0  0
  8  3  1  0  0  0  0
 10  7  1  6  0  0  0
 11 14  1  6  0  0  0
 11 12  1  0  0  0  0
 12 13  1  6  0  0  0
 12 17  1  0  0  0  0
 15 10  1  6  0  0  0
 15 11  1  0  0  0  0
 15 12  1  0  0  0  0
 17 16  1  0  0  0  0
 18 19  2  0  0  0  0
 20 18  1  0  0  0  0
 22 21  1  6  0  0  0
 22 23  1  0  0  0  0
 22 20  1  0  0  0  0
 23 26  1  0  0  0  0
 23 24  1  1  0  0  0
 26 25  1  0  0  0  0
 27 28  1  0  0  0  0
 28 29  1  6  0  0  0
 28 34  1  0  0  0  0
 30 29  3  0  0  0  0
 31 30  1  0  0  0  0
 32 33  3  0  0  0  0
 33 31  1  0  0  0  0
 34 36  1  0  0  0  0
 35 36  2  0  0  0  0
 36 37  1  0  0  0  0
M  END
>  <MODEL>
1

>  <REMARK>
 VINA RESULT:      -5.1      0.000      0.000
  Name = 
  14 active torsions:
  status: ('A' for Active; 'I' for Inactive)
    1  A    between atoms: C_2  and  C_19
    2  A    between atoms: C_2  and  C_35
    3  A    between atoms: C_4  and  O_13
    4  A    between atoms: C_4  and  C_20
    5  A    between atoms: C_4  and  C_22
    6  A    between atoms: C_5  and  C_23
    7  A    between atoms: O_6  and  C_31
    8  A    between atoms: O_6  and  C_35
    9  A    between atoms: O_13  and  C_16
   10  A    between atoms: C_14  and  C_31
   11  A    between atoms: C_22  and  C_28
   12  A    between atoms: C_25  and  C_32
   13  A    between atoms: C_26  and  C_36
   14  A    between atoms: C_30  and  C_32
                            x       y       z     vdW  Elec       q    Type
                         _______ _______ _______ _____ _____    ______ ____

>  <TORSDO>
F 14

$$$$
=
 OpenBabel11052415363D

 37 38  0  0  1  0  0  0  0  0999 V2000
  185.6410  175.4070  135.9700 C   0  0  0  0  0  2  0  0  0  0  0  0
  186.0390  178.2570  136.9570 C   0  0  0  0  0  2  0  0  0  0  0  0
  188.3030  176.7400  135.6980 C   0  0  2  0  0  3  0  0  0  0  0  0
  184.7740  176.0350  137.0610 C   0  0  1  0  0  3  0  0  0  0  0  0
  186.9140  174.8030  136.5470 C   0  0  0  0  0  2  0  0  0  0  0  0
  185.5080  177.1360  137.8540 C   0  0  2  0  0  3  0  0  0  0  0  0
  187.5070  178.5710  137.2470 C   0  0  0  0  0  2  0  0  0  0  0  0
  188.1310  175.2230  135.7260 C   0  0  0  0  0  2  0  0  0  0  0  0
  189.4160  177.1500  134.7470 C   0  0  0  0  0  1  0  0  0  0  0  0
  188.4070  177.3420  137.1130 C   0  0  2  0  0  3  0  0  0  0  0  0
  190.0740  177.7190  139.0850 C   0  0  2  0  0  3  0  0  0  0  0  0
  190.5580  176.5360  138.2590 C   0  0  1  0  0  0  0  0  0  0  0  0
  189.8480  175.3360  138.3900 O   0  0  0  0  0  1  0  0  0  0  0  0
  188.8540  177.3680  139.9360 C   0  0  0  0  0  1  0  0  0  0  0  0
  189.8420  177.6780  137.5550 C   0  0  1  0  0  3  0  0  0  0  0  0
  192.4900  174.8030  137.3760 S   0  0  0  0  0  1  0  0  0  0  0  0
  192.0510  176.4510  138.0020 C   0  0  0  0  0  2  0  0  0  0  0  0
  183.4830  176.5050  136.4650 C   0  0  0  0  0  0  0  0  0  0  0  0
  183.5050  177.3480  135.5280 O   0  0  0  0  0  0  0  0  0  0  0  0
  182.2700  176.0220  136.9630 O   0  0  0  0  0  0  0  0  0  0  0  0
  180.1170  176.9020  136.2980 C   0  0  0  0  0  1  0  0  0  0  0  0
  181.2040  176.8790  137.3620 C   0  0  1  0  0  3  0  0  0  0  0  0
  180.6200  176.4350  138.7040 C   0  0  1  0  0  3  0  0  0  0  0  0
  181.6580  175.8100  139.6300 C   0  0  0  0  0  1  0  0  0  0  0  0
  180.3060  177.8160  140.8150 C   0  0  0  0  0  1  0  0  0  0  0  0
  179.8300  177.5470  139.3950 C   0  0  0  0  0  2  0  0  0  0  0  0
  184.6340  177.6930  138.9740 C   0  0  0  0  0  2  0  0  0  0  0  0
  184.6700  179.2120  138.9990 C   0  0  1  0  0  3  0  0  0  0  0  0
  183.3360  179.7550  138.7120 C   0  0  0  0  0  0  0  0  0  0  0  0
  182.2450  180.2140  138.4830 C   0  0  0  0  0  0  0  0  0  0  0  0
  180.9240  180.7790  138.2070 C   0  0  0  0  0  2  0  0  0  0  0  0
  180.3750  180.5370  135.6050 C   0  0  0  0  0  3  0  0  0  0  0  0
  180.6220  180.6470  136.7790 C   0  0  0  0  0  0  0  0  0  0  0  0
  185.1050  179.6450  140.2820 O   0  0  0  0  0  0  0  0  0  0  0  0
  186.0930  178.2900  141.8750 O   0  0  0  0  0  0  0  0  0  0  0  0
  185.0500  178.8260  141.4110 C   0  0  0  0  0  0  0  0  0  0  0  0
  183.7440  178.5800  142.0740 C   0  0  0  0  0  1  0  0  0  0  0  0
  1  5  1  0  0  0  0
  1  4  1  0  0  0  0
  2  7  1  0  0  0  0
  2  6  1  0  0  0  0
  3  9  1  6  0  0  0
  3  8  1  0  0  0  0
  3 10  1  0  0  0  0
  4 18  1  6  0  0  0
  4  6  1  0  0  0  0
  6 27  1  1  0  0  0
  8  5  1  0  0  0  0
 10  7  1  6  0  0  0
 11 14  1  1  0  0  0
 12 13  1  1  0  0  0
 12 11  1  0  0  0  0
 15 10  1  1  0  0  0
 15 12  1  0  0  0  0
 15 11  1  0  0  0  0
 16 17  1  0  0  0  0
 17 12  1  0  0  0  0
 18 20  1  0  0  0  0
 19 18  2  0  0  0  0
 20 22  1  0  0  0  0
 22 21  1  6  0  0  0
 22 23  1  0  0  0  0
 23 26  1  0  0  0  0
 23 24  1  1  0  0  0
 26 25  1  0  0  0  0
 27 28  1  0  0  0  0
 28 29  1  1  0  0  0
 28 34  1  0  0  0  0
 30 29  3  0  0  0  0
 31 30  1  0  0  0  0
 32 33  3  0  0  0  0
 33 31  1  0  0  0  0
 34 36  1  0  0  0  0
 36 35  2  0  0  0  0
 36 37  1  0  0  0  0
M  END
>  <MODEL>
2

>  <REMARK>
 VINA RESULT:      -5.1      3.604      6.159
  Name = 
  14 active torsions:
  status: ('A' for Active; 'I' for Inactive)
    1  A    between atoms: C_2  and  C_19
    2  A    between atoms: C_2  and  C_35
    3  A    between atoms: C_4  and  O_13
    4  A    between atoms: C_4  and  C_20
    5  A    between atoms: C_4  and  C_22
    6  A    between atoms: C_5  and  C_23
    7  A    between atoms: O_6  and  C_31
    8  A    between atoms: O_6  and  C_35
    9  A    between atoms: O_13  and  C_16
   10  A    between atoms: C_14  and  C_31
   11  A    between atoms: C_22  and  C_28
   12  A    between atoms: C_25  and  C_32
   13  A    between atoms: C_26  and  C_36
   14  A    between atoms: C_30  and  C_32
                            x       y       z     vdW  Elec       q    Type
                         _______ _______ _______ _____ _____    ______ ____

>  <TORSDO>
F 14

$$$$
=
 OpenBabel11052415363D

 37 38  0  0  1  0  0  0  0  0999 V2000
  190.5060  177.2740  140.2120 C   0  0  0  0  0  2  0  0  0  0  0  0
  188.4410  179.2720  141.2120 C   0  0  0  0  0  2  0  0  0  0  0  0
  190.7570  178.4650  142.9430 C   0  0  2  0  0  3  0  0  0  0  0  0
  189.0770  177.3300  139.6720 C   0  0  1  0  0  3  0  0  0  0  0  0
  190.5950  176.4160  141.4660 C   0  0  0  0  0  2  0  0  0  0  0  0
  188.0660  177.8800  140.7000 C   0  0  2  0  0  3  0  0  0  0  0  0
  188.3980  179.3470  142.7380 C   0  0  0  0  0  2  0  0  0  0  0  0
  191.3930  177.1320  142.5540 C   0  0  0  0  0  2  0  0  0  0  0  0
  191.6460  179.2390  143.9040 C   0  0  0  0  0  1  0  0  0  0  0  0
  189.2950  178.3020  143.4020 C   0  0  2  0  0  3  0  0  0  0  0  0
  187.9490  177.4470  145.4680 C   0  0  2  0  0  3  0  0  0  0  0  0
  189.3960  176.9960  145.6100 C   0  0  1  0  0  0  0  0  0  0  0  0
  189.8190  175.9480  144.7850 O   0  0  0  0  0  1  0  0  0  0  0  0
  187.1960  176.6430  144.4080 C   0  0  0  0  0  1  0  0  0  0  0  0
  189.1040  178.3250  144.9300 C   0  0  1  0  0  3  0  0  0  0  0  0
  188.8430  177.8970  148.1400 S   0  0  0  0  0  1  0  0  0  0  0  0
  190.0070  177.0990  146.9960 C   0  0  0  0  0  2  0  0  0  0  0  0
  189.0610  178.0800  138.3760 C   0  0  0  0  0  0  0  0  0  0  0  0
  189.1880  179.3350  138.3870 O   0  0  0  0  0  0  0  0  0  0  0  0
  188.8870  177.3910  137.1740 O   0  0  0  0  0  0  0  0  0  0  0  0
  187.4460  175.6180  136.3800 C   0  0  0  0  0  1  0  0  0  0  0  0
  188.7300  175.9760  137.1120 C   0  0  1  0  0  3  0  0  0  0  0  0
  189.9300  175.3240  136.4210 C   0  0  1  0  0  3  0  0  0  0  0  0
  190.5240  176.1890  135.3140 C   0  0  0  0  0  1  0  0  0  0  0  0
  192.2340  175.7380  137.4140 C   0  0  0  0  0  1  0  0  0  0  0  0
  190.9940  174.8560  137.4150 C   0  0  0  0  0  2  0  0  0  0  0  0
  186.6430  177.8600  140.1470 C   0  0  0  0  0  2  0  0  0  0  0  0
  185.7360  178.7970  140.9260 C   0  0  1  0  0  3  0  0  0  0  0  0
  184.6180  179.2370  140.0820 C   0  0  0  0  0  0  0  0  0  0  0  0
  183.7000  179.6120  139.3960 C   0  0  0  0  0  0  0  0  0  0  0  0
  182.5880  180.0750  138.5660 C   0  0  0  0  0  2  0  0  0  0  0  0
  181.6800  178.0520  137.0780 C   0  0  0  0  0  3  0  0  0  0  0  0
  182.0900  178.9650  137.7490 C   0  0  0  0  0  0  0  0  0  0  0  0
  185.2400  178.1170  142.0720 O   0  0  0  0  0  0  0  0  0  0  0  0
  183.1100  178.5400  142.8710 O   0  0  0  0  0  0  0  0  0  0  0  0
  184.3550  178.7120  142.9750 C   0  0  0  0  0  0  0  0  0  0  0  0
  184.8890  179.5590  144.0720 C   0  0  0  0  0  1  0  0  0  0  0  0
  1  5  1  0  0  0  0
  2  7  1  0  0  0  0
  3 10  1  0  0  0  0
  3  9  1  1  0  0  0
  4 18  1  6  0  0  0
  4  1  1  0  0  0  0
  4  6  1  0  0  0  0
  5  8  1  0  0  0  0
  6 27  1  6  0  0  0
  6  2  1  0  0  0  0
  8  3  1  0  0  0  0
 10  7  1  6  0  0  0
 11 14  1  6  0  0  0
 11 12  1  0  0  0  0
 12 13  1  6  0  0  0
 12 17  1  0  0  0  0
 15 10  1  6  0  0  0
 15 11  1  0  0  0  0
 15 12  1  0  0  0  0
 17 16  1  0  0  0  0
 18 19  2  0  0  0  0
 20 18  1  0  0  0  0
 22 21  1  6  0  0  0
 22 20  1  0  0  0  0
 23 24  1  6  0  0  0
 23 22  1  0  0  0  0
 23 26  1  0  0  0  0
 25 26  1  0  0  0  0
 27 28  1  0  0  0  0
 28 29  1  6  0  0  0
 28 34  1  0  0  0  0
 30 29  3  0  0  0  0
 31 30  1  0  0  0  0
 32 33  3  0  0  0  0
 33 31  1  0  0  0  0
 34 36  1  0  0  0  0
 35 36  2  0  0  0  0
 36 37  1  0  0  0  0
M  END
>  <MODEL>
3

>  <REMARK>
 VINA RESULT:      -5.0      1.044      1.835
  Name = 
  14 active torsions:
  status: ('A' for Active; 'I' for Inactive)
    1  A    between atoms: C_2  and  C_19
    2  A    between atoms: C_2  and  C_35
    3  A    between atoms: C_4  and  O_13
    4  A    between atoms: C_4  and  C_20
    5  A    between atoms: C_4  and  C_22
    6  A    between atoms: C_5  and  C_23
    7  A    between atoms: O_6  and  C_31
    8  A    between atoms: O_6  and  C_35
    9  A    between atoms: O_13  and  C_16
   10  A    between atoms: C_14  and  C_31
   11  A    between atoms: C_22  and  C_28
   12  A    between atoms: C_25  and  C_32
   13  A    between atoms: C_26  and  C_36
   14  A    between atoms: C_30  and  C_32
                            x       y       z     vdW  Elec       q    Type
                         _______ _______ _______ _____ _____    ______ ____

>  <TORSDO>
F 14

$$$$
=
 OpenBabel11052415363D

 37 38  0  0  1  0  0  0  0  0999 V2000
  182.3370  177.0750  135.6320 C   0  0  0  0  0  2  0  0  0  0  0  0
  183.4120  175.6340  138.0860 C   0  0  0  0  0  2  0  0  0  0  0  0
  180.7070  176.9340  138.1340 C   0  0  2  0  0  3  0  0  0  0  0  0
  183.8310  176.8750  135.8880 C   0  0  1  0  0  3  0  0  0  0  0  0
  181.8140  178.3220  136.3310 C   0  0  0  0  0  2  0  0  0  0  0  0
  184.1750  176.7620  137.3870 C   0  0  2  0  0  3  0  0  0  0  0  0
  182.7470  176.1120  139.3770 C   0  0  0  0  0  2  0  0  0  0  0  0
  180.5160  178.0190  137.0760 C   0  0  0  0  0  2  0  0  0  0  0  0
  179.3780  176.5280  138.7520 C   0  0  0  0  0  1  0  0  0  0  0  0
  181.8090  177.2970  139.1500 C   0  0  2  0  0  3  0  0  0  0  0  0
  182.2860  178.6710  141.3160 C   0  0  2  0  0  3  0  0  0  0  0  0
  181.1530  179.3430  140.5550 C   0  0  1  0  0  0  0  0  0  0  0  0
  181.4980  180.0490  139.3950 O   0  0  0  0  0  1  0  0  0  0  0  0
  183.6430  178.8950  140.6500 C   0  0  0  0  0  1  0  0  0  0  0  0
  181.2810  177.8290  140.4940 C   0  0  1  0  0  3  0  0  0  0  0  0
  179.2060  181.2730  140.5490 S   0  0  0  0  0  1  0  0  0  0  0  0
  179.9920  179.8630  141.3820 C   0  0  0  0  0  2  0  0  0  0  0  0
  184.3240  175.7110  135.0850 C   0  0  0  0  0  0  0  0  0  0  0  0
  185.4850  175.7460  134.5940 O   0  0  0  0  0  0  0  0  0  0  0  0
  183.4920  174.6090  134.8710 O   0  0  0  0  0  0  0  0  0  0  0  0
  184.9810  173.2710  136.2300 C   0  0  0  0  0  1  0  0  0  0  0  0
  183.8880  173.2740  135.1710 C   0  0  1  0  0  3  0  0  0  0  0  0
  182.6930  172.4430  135.6440 C   0  0  1  0  0  3  0  0  0  0  0  0
  183.0040  171.5980  136.8750 C   0  0  0  0  0  1  0  0  0  0  0  0
  180.9030  173.2520  137.2580 C   0  0  0  0  0  1  0  0  0  0  0  0
  181.4320  173.2870  135.8320 C   0  0  0  0  0  2  0  0  0  0  0  0
  185.6800  176.6280  137.6050 C   0  0  0  0  0  2  0  0  0  0  0  0
  186.3460  177.9890  137.7070 C   0  0  1  0  0  3  0  0  0  0  0  0
  186.9070  178.1800  139.0510 C   0  0  0  0  0  0  0  0  0  0  0  0
  187.3550  178.3290  140.1600 C   0  0  0  0  0  0  0  0  0  0  0  0
  187.8940  178.5050  141.5090 C   0  0  0  0  0  2  0  0  0  0  0  0
  186.0180  177.9010  143.3100 C   0  0  0  0  0  3  0  0  0  0  0  0
  186.8640  178.1730  142.4970 C   0  0  0  0  0  0  0  0  0  0  0  0
  187.3800  178.0750  136.7340 O   0  0  0  0  0  0  0  0  0  0  0  0
  188.9060  179.7380  137.2400 O   0  0  0  0  0  0  0  0  0  0  0  0
  188.6690  178.5160  137.0420 C   0  0  0  0  0  0  0  0  0  0  0  0
  189.7760  177.5300  137.1360 C   0  0  0  0  0  1  0  0  0  0  0  0
  1  4  1  0  0  0  0
  1  5  1  0  0  0  0
  2  7  1  0  0  0  0
  3  9  1  1  0  0  0
  3 10  1  0  0  0  0
  4 18  1  6  0  0  0
  4  6  1  0  0  0  0
  5  8  1  0  0  0  0
  6 27  1  6  0  0  0
  6  2  1  0  0  0  0
  8  3  1  0  0  0  0
 10  7  1  1  0  0  0
 11 14  1  6  0  0  0
 12 13  1  6  0  0  0
 12 11  1  0  0  0  0
 12 17  1  0  0  0  0
 15 10  1  6  0  0  0
 15 12  1  0  0  0  0
 15 11  1  0  0  0  0
 16 17  1  0  0  0  0
 19 18  2  0  0  0  0
 20 18  1  0  0  0  0
 20 22  1  0  0  0  0
 22 23  1  0  0  0  0
 22 21  1  1  0  0  0
 23 26  1  0  0  0  0
 23 24  1  1  0  0  0
 26 25  1  0  0  0  0
 28 27  1  1  0  0  0
 28 29  1  0  0  0  0
 29 30  3  0  0  0  0
 30 31  1  0  0  0  0
 31 33  1  0  0  0  0
 33 32  3  0  0  0  0
 34 36  1  0  0  0  0
 34 28  1  0  0  0  0
 36 37  1  0  0  0  0
 36 35  2  0  0  0  0
M  END
>  <MODEL>
4

>  <REMARK>
 VINA RESULT:      -4.9      3.627      7.967
  Name = 
  14 active torsions:
  status: ('A' for Active; 'I' for Inactive)
    1  A    between atoms: C_2  and  C_19
    2  A    between atoms: C_2  and  C_35
    3  A    between atoms: C_4  and  O_13
    4  A    between atoms: C_4  and  C_20
    5  A    between atoms: C_4  and  C_22
    6  A    between atoms: C_5  and  C_23
    7  A    between atoms: O_6  and  C_31
    8  A    between atoms: O_6  and  C_35
    9  A    between atoms: O_13  and  C_16
   10  A    between atoms: C_14  and  C_31
   11  A    between atoms: C_22  and  C_28
   12  A    between atoms: C_25  and  C_32
   13  A    between atoms: C_26  and  C_36
   14  A    between atoms: C_30  and  C_32
                            x       y       z     vdW  Elec       q    Type
                         _______ _______ _______ _____ _____    ______ ____

>  <TORSDO>
F 14

$$$$
=
 OpenBabel11052415363D

 37 38  0  0  1  0  0  0  0  0999 V2000
  186.3070  176.7480  137.2960 C   0  0  0  0  0  2  0  0  0  0  0  0
  188.3670  178.8440  138.0850 C   0  0  0  0  0  2  0  0  0  0  0  0
  188.9640  176.8420  135.9300 C   0  0  2  0  0  3  0  0  0  0  0  0
  186.3260  177.4160  138.6720 C   0  0  1  0  0  3  0  0  0  0  0  0
  187.2370  175.5450  137.2480 C   0  0  0  0  0  2  0  0  0  0  0  0
  187.7340  177.8840  139.0950 C   0  0  2  0  0  3  0  0  0  0  0  0
  189.7910  178.4250  137.7170 C   0  0  0  0  0  2  0  0  0  0  0  0
  188.1040  175.5820  135.9910 C   0  0  0  0  0  2  0  0  0  0  0  0
  189.6950  176.9450  134.6000 C   0  0  0  0  0  1  0  0  0  0  0  0
  189.8600  176.9980  137.1740 C   0  0  2  0  0  3  0  0  0  0  0  0
  192.1440  176.3320  138.2470 C   0  0  2  0  0  3  0  0  0  0  0  0
  191.6390  175.1620  137.4160 C   0  0  1  0  0  0  0  0  0  0  0  0
  190.5720  174.4230  137.9420 O   0  0  0  0  0  1  0  0  0  0  0  0
  191.3640  176.4930  139.5520 C   0  0  0  0  0  1  0  0  0  0  0  0
  191.3250  176.5780  136.9570 C   0  0  1  0  0  3  0  0  0  0  0  0
  194.1330  175.4700  136.3210 S   0  0  0  0  0  1  0  0  0  0  0  0
  192.6700  174.4250  136.5820 C   0  0  0  0  0  2  0  0  0  0  0  0
  185.3090  178.5150  138.7080 C   0  0  0  0  0  0  0  0  0  0  0  0
  185.4190  179.4850  137.9100 O   0  0  0  0  0  0  0  0  0  0  0  0
  184.2640  178.4670  139.6340 O   0  0  0  0  0  0  0  0  0  0  0  0
  182.7130  176.6350  139.9290 C   0  0  0  0  0  1  0  0  0  0  0  0
  182.9610  177.9990  139.3020 C   0  0  1  0  0  3  0  0  0  0  0  0
  181.8910  178.9920  139.7600 C   0  0  1  0  0  3  0  0  0  0  0  0
  181.8150  180.2360  138.8810 C   0  0  0  0  0  1  0  0  0  0  0  0
  179.9310  178.5720  141.3240 C   0  0  0  0  0  1  0  0  0  0  0  0
  180.5220  178.3350  139.9430 C   0  0  0  0  0  2  0  0  0  0  0  0
  187.7240  178.4860  140.4970 C   0  0  0  0  0  2  0  0  0  0  0  0
  188.0090  177.4310  141.5520 C   0  0  1  0  0  3  0  0  0  0  0  0
  189.0890  177.8810  142.4400 C   0  0  0  0  0  0  0  0  0  0  0  0
  189.9780  178.2630  143.1600 C   0  0  0  0  0  0  0  0  0  0  0  0
  191.0550  178.7340  144.0300 C   0  0  0  0  0  2  0  0  0  0  0  0
  191.6370  176.8520  145.8320 C   0  0  0  0  0  3  0  0  0  0  0  0
  191.3750  177.7020  145.0190 C   0  0  0  0  0  0  0  0  0  0  0  0
  186.8270  177.1970  142.3070 O   0  0  0  0  0  0  0  0  0  0  0  0
  185.6550  179.1300  142.7980 O   0  0  0  0  0  0  0  0  0  0  0  0
  186.3100  178.1330  143.2050 C   0  0  0  0  0  0  0  0  0  0  0  0
  186.5370  177.9520  144.6620 C   0  0  0  0  0  1  0  0  0  0  0  0
  1  4  1  0  0  0  0
  2  6  1  0  0  0  0
  3  9  1  6  0  0  0
  3  8  1  0  0  0  0
  3 10  1  0  0  0  0
  4 18  1  6  0  0  0
  4  6  1  0  0  0  0
  5  1  1  0  0  0  0
  6 27  1  1  0  0  0
  7  2  1  0  0  0  0
  8  5  1  0  0  0  0
 10  7  1  6  0  0  0
 11 14  1  1  0  0  0
 12 13  1  1  0  0  0
 12 11  1  0  0  0  0
 15 10  1  1  0  0  0
 15 12  1  0  0  0  0
 15 11  1  0  0  0  0
 16 17  1  0  0  0  0
 17 12  1  0  0  0  0
 18 20  1  0  0  0  0
 19 18  2  0  0  0  0
 22 20  1  0  0  0  0
 22 23  1  0  0  0  0
 22 21  1  1  0  0  0
 23 24  1  6  0  0  0
 23 26  1  0  0  0  0
 26 25  1  0  0  0  0
 28 27  1  6  0  0  0
 28 34  1  0  0  0  0
 28 29  1  0  0  0  0
 29 30  3  0  0  0  0
 30 31  1  0  0  0  0
 31 33  1  0  0  0  0
 33 32  3  0  0  0  0
 34 36  1  0  0  0  0
 35 36  2  0  0  0  0
 36 37  1  0  0  0  0
M  END
>  <MODEL>
5

>  <REMARK>
 VINA RESULT:      -4.7      3.052      7.076
  Name = 
  14 active torsions:
  status: ('A' for Active; 'I' for Inactive)
    1  A    between atoms: C_2  and  C_19
    2  A    between atoms: C_2  and  C_35
    3  A    between atoms: C_4  and  O_13
    4  A    between atoms: C_4  and  C_20
    5  A    between atoms: C_4  and  C_22
    6  A    between atoms: C_5  and  C_23
    7  A    between atoms: O_6  and  C_31
    8  A    between atoms: O_6  and  C_35
    9  A    between atoms: O_13  and  C_16
   10  A    between atoms: C_14  and  C_31
   11  A    between atoms: C_22  and  C_28
   12  A    between atoms: C_25  and  C_32
   13  A    between atoms: C_26  and  C_36
   14  A    between atoms: C_30  and  C_32
                            x       y       z     vdW  Elec       q    Type
                         _______ _______ _______ _____ _____    ______ ____

>  <TORSDO>
F 14

$$$$
=
 OpenBabel11052415363D

 37 38  0  0  1  0  0  0  0  0999 V2000
  185.1300  179.0910  143.4230 C   0  0  0  0  0  2  0  0  0  0  0  0
  187.0730  177.1690  142.0870 C   0  0  0  0  0  2  0  0  0  0  0  0
  186.6710  177.1230  145.0620 C   0  0  2  0  0  3  0  0  0  0  0  0
  185.7890  179.3810  142.0740 C   0  0  1  0  0  3  0  0  0  0  0  0
  186.0190  179.5200  144.5820 C   0  0  0  0  0  2  0  0  0  0  0  0
  187.1560  178.6860  141.9100 C   0  0  2  0  0  3  0  0  0  0  0  0
  188.1350  176.6500  143.0570 C   0  0  0  0  0  2  0  0  0  0  0  0
  186.1010  178.4170  145.6360 C   0  0  0  0  0  2  0  0  0  0  0  0
  186.5940  175.9910  146.0750 C   0  0  0  0  0  1  0  0  0  0  0  0
  188.0600  177.3280  144.4260 C   0  0  2  0  0  3  0  0  0  0  0  0
  190.5090  177.7530  145.2210 C   0  0  2  0  0  3  0  0  0  0  0  0
  189.5830  177.8550  146.4240 C   0  0  1  0  0  0  0  0  0  0  0  0
  188.7890  179.0040  146.5200 O   0  0  0  0  0  1  0  0  0  0  0  0
  190.3970  178.9690  144.3020 C   0  0  0  0  0  1  0  0  0  0  0  0
  189.2360  176.8780  145.3120 C   0  0  1  0  0  3  0  0  0  0  0  0
  191.6600  176.3840  147.4420 S   0  0  0  0  0  1  0  0  0  0  0  0
  190.0710  177.2210  147.7140 C   0  0  0  0  0  2  0  0  0  0  0  0
  184.8310  179.0570  140.9700 C   0  0  0  0  0  0  0  0  0  0  0  0
  184.9490  179.6400  139.8580 O   0  0  0  0  0  0  0  0  0  0  0  0
  183.8070  178.1320  141.1850 O   0  0  0  0  0  0  0  0  0  0  0  0
  182.4930  176.5780  139.8770 C   0  0  0  0  0  1  0  0  0  0  0  0
  182.6750  178.0200  140.3260 C   0  0  1  0  0  3  0  0  0  0  0  0
  181.4090  178.5200  141.0240 C   0  0  1  0  0  3  0  0  0  0  0  0
  180.2620  177.5160  140.9690 C   0  0  0  0  0  1  0  0  0  0  0  0
  180.5750  178.6200  143.4240 C   0  0  0  0  0  1  0  0  0  0  0  0
  181.6790  179.0030  142.4490 C   0  0  0  0  0  2  0  0  0  0  0  0
  187.8110  179.0510  140.5800 C   0  0  0  0  0  2  0  0  0  0  0  0
  188.2290  177.8090  139.8120 C   0  0  1  0  0  3  0  0  0  0  0  0
  187.4540  177.6970  138.5690 C   0  0  0  0  0  0  0  0  0  0  0  0
  186.8310  177.6100  137.5410 C   0  0  0  0  0  0  0  0  0  0  0  0
  186.0810  177.5030  136.2890 C   0  0  0  0  0  2  0  0  0  0  0  0
  184.0750  175.7670  136.5900 C   0  0  0  0  0  3  0  0  0  0  0  0
  184.9810  176.5500  136.4540 C   0  0  0  0  0  0  0  0  0  0  0  0
  189.6170  177.8930  139.5120 O   0  0  0  0  0  0  0  0  0  0  0  0
  190.7470  175.8940  139.2340 O   0  0  0  0  0  0  0  0  0  0  0  0
  190.5360  176.9260  139.9260 C   0  0  0  0  0  0  0  0  0  0  0  0
  191.2730  177.1170  141.2010 C   0  0  0  0  0  1  0  0  0  0  0  0
  1  5  1  0  0  0  0
  2  7  1  0  0  0  0
  3  8  1  0  0  0  0
  3  9  1  1  0  0  0
  4 18  1  6  0  0  0
  4  1  1  0  0  0  0
  5  8  1  0  0  0  0
  6 27  1  6  0  0  0
  6  4  1  0  0  0  0
  6  2  1  0  0  0  0
 10  7  1  6  0  0  0
 10  3  1  0  0  0  0
 11 14  1  6  0  0  0
 11 15  1  0  0  0  0
 11 12  1  0  0  0  0
 12 13  1  1  0  0  0
 12 17  1  0  0  0  0
 15 10  1  6  0  0  0
 15 12  1  0  0  0  0
 16 17  1  0  0  0  0
 18 20  1  0  0  0  0
 19 18  2  0  0  0  0
 22 21  1  1  0  0  0
 22 23  1  0  0  0  0
 22 20  1  0  0  0  0
 23 24  1  1  0  0  0
 23 26  1  0  0  0  0
 26 25  1  0  0  0  0
 28 29  1  6  0  0  0
 28 27  1  0  0  0  0
 30 29  3  0  0  0  0
 31 33  1  0  0  0  0
 31 30  1  0  0  0  0
 33 32  3  0  0  0  0
 34 28  1  0  0  0  0
 34 36  1  0  0  0  0
 35 36  2  0  0  0  0
 36 37  1  0  0  0  0
M  END
>  <MODEL>
6

>  <REMARK>
 VINA RESULT:      -4.7      1.986      5.295
  Name = 
  14 active torsions:
  status: ('A' for Active; 'I' for Inactive)
    1  A    between atoms: C_2  and  C_19
    2  A    between atoms: C_2  and  C_35
    3  A    between atoms: C_4  and  O_13
    4  A    between atoms: C_4  and  C_20
    5  A    between atoms: C_4  and  C_22
    6  A    between atoms: C_5  and  C_23
    7  A    between atoms: O_6  and  C_31
    8  A    between atoms: O_6  and  C_35
    9  A    between atoms: O_13  and  C_16
   10  A    between atoms: C_14  and  C_31
   11  A    between atoms: C_22  and  C_28
   12  A    between atoms: C_25  and  C_32
   13  A    between atoms: C_26  and  C_36
   14  A    between atoms: C_30  and  C_32
                            x       y       z     vdW  Elec       q    Type
                         _______ _______ _______ _____ _____    ______ ____

>  <TORSDO>
F 14

$$$$
=
 OpenBabel11052415363D

 37 38  0  0  1  0  0  0  0  0999 V2000
  185.0590  179.0190  145.7630 C   0  0  0  0  0  2  0  0  0  0  0  0
  186.2320  177.0920  143.7220 C   0  0  0  0  0  2  0  0  0  0  0  0
  187.1360  177.0320  146.5840 C   0  0  2  0  0  3  0  0  0  0  0  0
  185.0830  179.3130  144.2630 C   0  0  1  0  0  3  0  0  0  0  0  0
  186.3600  179.4350  146.4340 C   0  0  0  0  0  2  0  0  0  0  0  0
  186.2440  178.6100  143.5300 C   0  0  2  0  0  3  0  0  0  0  0  0
  187.6020  176.5620  144.1460 C   0  0  0  0  0  2  0  0  0  0  0  0
  186.8750  178.3270  147.3490 C   0  0  0  0  0  2  0  0  0  0  0  0
  187.4880  175.8950  147.5310 C   0  0  0  0  0  1  0  0  0  0  0  0
  188.1230  177.2320  145.4170 C   0  0  2  0  0  3  0  0  0  0  0  0
  190.6800  177.7050  145.2010 C   0  0  2  0  0  3  0  0  0  0  0  0
  190.3150  177.6750  146.6780 C   0  0  1  0  0  0  0  0  0  0  0  0
  189.6140  178.7780  147.1820 O   0  0  0  0  0  1  0  0  0  0  0  0
  190.1950  178.9810  144.5120 C   0  0  0  0  0  1  0  0  0  0  0  0
  189.5600  176.7700  145.7170 C   0  0  1  0  0  3  0  0  0  0  0  0
  192.1640  175.6510  146.7120 S   0  0  0  0  0  1  0  0  0  0  0  0
  191.2870  176.9690  147.6040 C   0  0  0  0  0  2  0  0  0  0  0  0
  183.7430  179.0010  143.6710 C   0  0  0  0  0  0  0  0  0  0  0  0
  182.8100  178.6110  144.4240 O   0  0  0  0  0  0  0  0  0  0  0  0
  183.5430  179.1270  142.2940 O   0  0  0  0  0  0  0  0  0  0  0  0
  181.2580  179.0950  141.5020 C   0  0  0  0  0  1  0  0  0  0  0  0
  182.5830  178.3530  141.5800 C   0  0  1  0  0  3  0  0  0  0  0  0
  183.0870  178.0210  140.1740 C   0  0  1  0  0  3  0  0  0  0  0  0
  182.8410  176.5690  139.7790 C   0  0  0  0  0  1  0  0  0  0  0  0
  183.5280  180.1420  138.8430 C   0  0  0  0  0  1  0  0  0  0  0  0
  182.5640  178.9980  139.1200 C   0  0  0  0  0  2  0  0  0  0  0  0
  186.2730  178.9790  142.0490 C   0  0  0  0  0  2  0  0  0  0  0  0
  187.1680  178.0370  141.2630 C   0  0  1  0  0  3  0  0  0  0  0  0
  186.8210  178.0790  139.8370 C   0  0  0  0  0  0  0  0  0  0  0  0
  186.5450  178.1250  138.6640 C   0  0  0  0  0  0  0  0  0  0  0  0
  186.2180  178.1860  137.2400 C   0  0  0  0  0  2  0  0  0  0  0  0
  184.5820  176.1720  136.6110 C   0  0  0  0  0  3  0  0  0  0  0  0
  185.3200  177.0810  136.8940 C   0  0  0  0  0  0  0  0  0  0  0  0
  188.5240  178.4260  141.4440 O   0  0  0  0  0  0  0  0  0  0  0  0
  190.0740  177.9480  139.7940 O   0  0  0  0  0  0  0  0  0  0  0  0
  189.5940  177.6890  140.9300 C   0  0  0  0  0  0  0  0  0  0  0  0
  190.1720  176.5820  141.7350 C   0  0  0  0  0  1  0  0  0  0  0  0
  1  5  1  0  0  0  0
  2  7  1  0  0  0  0
  3  8  1  0  0  0  0
  3  9  1  1  0  0  0
  4 18  1  6  0  0  0
  4  1  1  0  0  0  0
  5  8  1  0  0  0  0
  6 27  1  6  0  0  0
  6  2  1  0  0  0  0
  6  4  1  0  0  0  0
 10  7  1  6  0  0  0
 10  3  1  0  0  0  0
 11 14  1  6  0  0  0
 11 15  1  0  0  0  0
 11 12  1  0  0  0  0
 12 13  1  1  0  0  0
 12 17  1  0  0  0  0
 15 10  1  6  0  0  0
 15 12  1  0  0  0  0
 16 17  1  0  0  0  0
 18 19  2  0  0  0  0
 20 18  1  0  0  0  0
 22 21  1  6  0  0  0
 22 20  1  0  0  0  0
 23 24  1  6  0  0  0
 23 22  1  0  0  0  0
 25 26  1  0  0  0  0
 26 23  1  0  0  0  0
 28 29  1  6  0  0  0
 28 34  1  0  0  0  0
 28 27  1  0  0  0  0
 30 29  3  0  0  0  0
 31 30  1  0  0  0  0
 32 33  3  0  0  0  0
 33 31  1  0  0  0  0
 35 36  2  0  0  0  0
 36 34  1  0  0  0  0
 36 37  1  0  0  0  0
M  END
>  <MODEL>
7

>  <REMARK>
 VINA RESULT:      -4.7      1.879      5.350
  Name = 
  14 active torsions:
  status: ('A' for Active; 'I' for Inactive)
    1  A    between atoms: C_2  and  C_19
    2  A    between atoms: C_2  and  C_35
    3  A    between atoms: C_4  and  O_13
    4  A    between atoms: C_4  and  C_20
    5  A    between atoms: C_4  and  C_22
    6  A    between atoms: C_5  and  C_23
    7  A    between atoms: O_6  and  C_31
    8  A    between atoms: O_6  and  C_35
    9  A    between atoms: O_13  and  C_16
   10  A    between atoms: C_14  and  C_31
   11  A    between atoms: C_22  and  C_28
   12  A    between atoms: C_25  and  C_32
   13  A    between atoms: C_26  and  C_36
   14  A    between atoms: C_30  and  C_32
                            x       y       z     vdW  Elec       q    Type
                         _______ _______ _______ _____ _____    ______ ____

>  <TORSDO>
F 14

$$$$
=
 OpenBabel11052415363D

 37 38  0  0  1  0  0  0  0  0999 V2000
  185.9820  176.9250  137.2750 C   0  0  0  0  0  2  0  0  0  0  0  0
  187.9910  179.0090  138.2110 C   0  0  0  0  0  2  0  0  0  0  0  0
  188.7160  177.0340  136.0710 C   0  0  2  0  0  3  0  0  0  0  0  0
  185.9190  177.5760  138.6570 C   0  0  1  0  0  3  0  0  0  0  0  0
  186.9140  175.7220  137.2680 C   0  0  0  0  0  2  0  0  0  0  0  0
  187.2990  178.0370  139.1690 C   0  0  2  0  0  3  0  0  0  0  0  0
  189.4340  178.5940  137.9230 C   0  0  0  0  0  2  0  0  0  0  0  0
  187.8530  175.7740  136.0650 C   0  0  0  0  0  2  0  0  0  0  0  0
  189.5250  177.1530  134.7880 C   0  0  0  0  0  1  0  0  0  0  0  0
  189.5360  177.1740  137.3680 C   0  0  2  0  0  3  0  0  0  0  0  0
  191.7210  176.3890  138.5590 C   0  0  2  0  0  3  0  0  0  0  0  0
  191.2780  175.3020  137.5910 C   0  0  1  0  0  0  0  0  0  0  0  0
  190.1690  174.5330  137.9630 O   0  0  0  0  0  1  0  0  0  0  0  0
  190.8390  176.4460  139.8060 C   0  0  0  0  0  1  0  0  0  0  0  0
  191.0110  176.7550  137.2340 C   0  0  1  0  0  3  0  0  0  0  0  0
  193.6480  175.8310  136.3190 S   0  0  0  0  0  1  0  0  0  0  0  0
  192.3700  174.6260  136.7820 C   0  0  0  0  0  2  0  0  0  0  0  0
  184.9010  178.6750  138.6460 C   0  0  0  0  0  0  0  0  0  0  0  0
  185.1070  179.7140  139.3300 O   0  0  0  0  0  0  0  0  0  0  0  0
  183.7300  178.5330  137.8990 O   0  0  0  0  0  0  0  0  0  0  0  0
  181.3700  179.0430  138.0450 C   0  0  0  0  0  1  0  0  0  0  0  0
  182.4950  178.1130  138.4720 C   0  0  1  0  0  3  0  0  0  0  0  0
  182.1700  176.6720  138.0720 C   0  0  1  0  0  3  0  0  0  0  0  0
  182.6550  175.6460  139.0900 C   0  0  0  0  0  1  0  0  0  0  0  0
  180.4810  175.9350  136.3200 C   0  0  0  0  0  1  0  0  0  0  0  0
  180.6930  176.4810  137.7250 C   0  0  0  0  0  2  0  0  0  0  0  0
  187.2050  178.6220  140.5760 C   0  0  0  0  0  2  0  0  0  0  0  0
  187.5360  177.5790  141.6300 C   0  0  1  0  0  3  0  0  0  0  0  0
  188.7710  177.9450  142.3350 C   0  0  0  0  0  0  0  0  0  0  0  0
  189.7910  178.2500  142.9000 C   0  0  0  0  0  0  0  0  0  0  0  0
  191.0320  178.6240  143.5790 C   0  0  0  0  0  2  0  0  0  0  0  0
  191.5550  176.8670  145.5200 C   0  0  0  0  0  3  0  0  0  0  0  0
  191.3200  177.6590  144.6440 C   0  0  0  0  0  0  0  0  0  0  0  0
  186.4580  177.4940  142.5540 O   0  0  0  0  0  0  0  0  0  0  0  0
  184.2840  177.8760  141.8600 O   0  0  0  0  0  0  0  0  0  0  0  0
  185.3150  178.2920  142.4530 C   0  0  0  0  0  0  0  0  0  0  0  0
  185.3180  179.6510  143.0530 C   0  0  0  0  0  1  0  0  0  0  0  0
  1  4  1  0  0  0  0
  2  6  1  0  0  0  0
  3  9  1  6  0  0  0
  3 10  1  0  0  0  0
  4 18  1  6  0  0  0
  4  6  1  0  0  0  0
  5  1  1  0  0  0  0
  6 27  1  1  0  0  0
  7  2  1  0  0  0  0
  8  3  1  0  0  0  0
  8  5  1  0  0  0  0
 10  7  1  6  0  0  0
 11 14  1  1  0  0  0
 12 13  1  1  0  0  0
 12 11  1  0  0  0  0
 15 10  1  1  0  0  0
 15 12  1  0  0  0  0
 15 11  1  0  0  0  0
 16 17  1  0  0  0  0
 17 12  1  0  0  0  0
 18 19  2  0  0  0  0
 20 22  1  0  0  0  0
 20 18  1  0  0  0  0
 22 21  1  6  0  0  0
 23 22  1  0  0  0  0
 23 24  1  1  0  0  0
 25 26  1  0  0  0  0
 26 23  1  0  0  0  0
 28 27  1  6  0  0  0
 28 29  1  0  0  0  0
 28 34  1  0  0  0  0
 29 30  3  0  0  0  0
 30 31  1  0  0  0  0
 31 33  1  0  0  0  0
 33 32  3  0  0  0  0
 35 36  2  0  0  0  0
 36 34  1  0  0  0  0
 36 37  1  0  0  0  0
M  END
>  <MODEL>
8

>  <REMARK>
 VINA RESULT:      -4.5      2.899      6.772
  Name = 
  14 active torsions:
  status: ('A' for Active; 'I' for Inactive)
    1  A    between atoms: C_2  and  C_19
    2  A    between atoms: C_2  and  C_35
    3  A    between atoms: C_4  and  O_13
    4  A    between atoms: C_4  and  C_20
    5  A    between atoms: C_4  and  C_22
    6  A    between atoms: C_5  and  C_23
    7  A    between atoms: O_6  and  C_31
    8  A    between atoms: O_6  and  C_35
    9  A    between atoms: O_13  and  C_16
   10  A    between atoms: C_14  and  C_31
   11  A    between atoms: C_22  and  C_28
   12  A    between atoms: C_25  and  C_32
   13  A    between atoms: C_26  and  C_36
   14  A    between atoms: C_30  and  C_32
                            x       y       z     vdW  Elec       q    Type
                         _______ _______ _______ _____ _____    ______ ____

>  <TORSDO>
F 14

$$$$
=
 OpenBabel11052415363D

 37 38  0  0  1  0  0  0  0  0999 V2000
  185.1600  179.0340  143.4640 C   0  0  0  0  0  2  0  0  0  0  0  0
  187.1270  177.1580  142.0960 C   0  0  0  0  0  2  0  0  0  0  0  0
  186.7570  177.0860  145.0740 C   0  0  2  0  0  3  0  0  0  0  0  0
  185.7990  179.3450  142.1100 C   0  0  1  0  0  3  0  0  0  0  0  0
  186.0530  179.4720  144.6160 C   0  0  0  0  0  2  0  0  0  0  0  0
  187.1780  178.6780  141.9270 C   0  0  2  0  0  3  0  0  0  0  0  0
  188.2090  176.6550  143.0510 C   0  0  0  0  0  2  0  0  0  0  0  0
  186.1670  178.3660  145.6620 C   0  0  0  0  0  2  0  0  0  0  0  0
  186.7130  175.9470  146.0800 C   0  0  0  0  0  1  0  0  0  0  0  0
  188.1350  177.3230  144.4250 C   0  0  2  0  0  3  0  0  0  0  0  0
  190.5860  177.7870  145.1910 C   0  0  2  0  0  3  0  0  0  0  0  0
  189.6730  177.8720  146.4060 C   0  0  1  0  0  0  0  0  0  0  0  0
  188.8620  179.0080  146.5130 O   0  0  0  0  0  1  0  0  0  0  0  0
  190.4430  179.0030  144.2760 C   0  0  0  0  0  1  0  0  0  0  0  0
  189.3290  176.8910  145.2960 C   0  0  1  0  0  3  0  0  0  0  0  0
  191.6850  176.2710  147.3560 S   0  0  0  0  0  1  0  0  0  0  0  0
  190.1870  177.2440  147.6880 C   0  0  0  0  0  2  0  0  0  0  0  0
  184.8360  179.0090  141.0130 C   0  0  0  0  0  0  0  0  0  0  0  0
  184.7750  179.7510  139.9960 O   0  0  0  0  0  0  0  0  0  0  0  0
  184.0040  177.8940  141.1350 O   0  0  0  0  0  0  0  0  0  0  0  0
  181.9430  179.0010  140.5180 C   0  0  0  0  0  1  0  0  0  0  0  0
  182.7970  177.7480  140.3920 C   0  0  1  0  0  3  0  0  0  0  0  0
  183.0940  177.4590  138.9190 C   0  0  1  0  0  3  0  0  0  0  0  0
  183.0280  175.9740  138.5770 C   0  0  0  0  0  1  0  0  0  0  0  0
  182.3030  177.8230  136.5310 C   0  0  0  0  0  1  0  0  0  0  0  0
  182.2410  178.3030  137.9730 C   0  0  0  0  0  2  0  0  0  0  0  0
  187.8110  179.0650  140.5930 C   0  0  0  0  0  2  0  0  0  0  0  0
  188.2370  177.8360  139.8080 C   0  0  1  0  0  3  0  0  0  0  0  0
  187.4630  177.7350  138.5640 C   0  0  0  0  0  0  0  0  0  0  0  0
  186.8270  177.6380  137.5450 C   0  0  0  0  0  0  0  0  0  0  0  0
  186.0530  177.5120  136.3100 C   0  0  0  0  0  2  0  0  0  0  0  0
  185.4270  174.9480  135.9040 C   0  0  0  0  0  3  0  0  0  0  0  0
  185.7100  176.1050  136.0860 C   0  0  0  0  0  0  0  0  0  0  0  0
  189.6240  177.9330  139.5100 O   0  0  0  0  0  0  0  0  0  0  0  0
  190.6400  175.8570  139.4030 O   0  0  0  0  0  0  0  0  0  0  0  0
  190.5570  176.9890  139.9490 C   0  0  0  0  0  0  0  0  0  0  0  0
  191.4600  177.3270  141.0790 C   0  0  0  0  0  1  0  0  0  0  0  0
  1  5  1  0  0  0  0
  2  7  1  0  0  0  0
  3  8  1  0  0  0  0
  3  9  1  1  0  0  0
  4 18  1  6  0  0  0
  4  1  1  0  0  0  0
  5  8  1  0  0  0  0
  6 27  1  6  0  0  0
  6  2  1  0  0  0  0
  6  4  1  0  0  0  0
 10  7  1  6  0  0  0
 10  3  1  0  0  0  0
 11 14  1  6  0  0  0
 11 15  1  0  0  0  0
 11 12  1  0  0  0  0
 12 13  1  1  0  0  0
 12 17  1  0  0  0  0
 15 10  1  6  0  0  0
 15 12  1  0  0  0  0
 16 17  1  0  0  0  0
 18 20  1  0  0  0  0
 19 18  2  0  0  0  0
 22 21  1  6  0  0  0
 22 20  1  0  0  0  0
 23 24  1  6  0  0  0
 23 22  1  0  0  0  0
 25 26  1  0  0  0  0
 26 23  1  0  0  0  0
 28 29  1  6  0  0  0
 28 27  1  0  0  0  0
 30 29  3  0  0  0  0
 31 30  1  0  0  0  0
 32 33  3  0  0  0  0
 33 31  1  0  0  0  0
 34 28  1  0  0  0  0
 34 36  1  0  0  0  0
 35 36  2  0  0  0  0
 36 37  1  0  0  0  0
M  END
>  <MODEL>
9

>  <REMARK>
 VINA RESULT:      -4.5      1.748      4.922
  Name = 
  14 active torsions:
  status: ('A' for Active; 'I' for Inactive)
    1  A    between atoms: C_2  and  C_19
    2  A    between atoms: C_2  and  C_35
    3  A    between atoms: C_4  and  O_13
    4  A    between atoms: C_4  and  C_20
    5  A    between atoms: C_4  and  C_22
    6  A    between atoms: C_5  and  C_23
    7  A    between atoms: O_6  and  C_31
    8  A    between atoms: O_6  and  C_35
    9  A    between atoms: O_13  and  C_16
   10  A    between atoms: C_14  and  C_31
   11  A    between atoms: C_22  and  C_28
   12  A    between atoms: C_25  and  C_32
   13  A    between atoms: C_26  and  C_36
   14  A    between atoms: C_30  and  C_32
                            x       y       z     vdW  Elec       q    Type
                         _______ _______ _______ _____ _____    ______ ____

>  <TORSDO>
F 14

$$$$
