=
 OpenBabel11052413583D

 34 38  0  0  1  0  0  0  0  0999 V2000
  185.5540  178.1380  143.7660 C   0  0  0  0  0  0  0  0  0  0  0  0
  186.6860  178.6300  141.6400 C   0  0  0  0  0  0  0  0  0  0  0  0
  187.9950  177.9770  143.7490 C   0  0  0  0  0  0  0  0  0  0  0  0
  190.5990  177.9210  143.4260 C   0  0  2  0  0  0  0  0  0  0  0  0
  184.3230  178.3110  141.5750 C   0  0  0  0  0  3  0  0  0  0  0  0
  191.9980  175.3700  146.8970 C   0  0  0  0  0  3  0  0  0  0  0  0
  191.5720  176.7110  146.6380 N   0  0  0  0  0  0  0  0  0  0  0  0
  185.4450  178.4880  140.9460 N   0  0  0  0  0  0  0  0  0  0  0  0
  189.1870  176.9420  141.7460 C   0  0  0  0  0  2  0  0  0  0  0  0
  189.3040  177.4080  147.2810 C   0  0  0  0  0  2  0  0  0  0  0  0
  186.7710  178.2260  143.0630 C   0  0  0  0  0  0  0  0  0  0  0  0
  191.9540  177.3460  145.4430 N   0  0  0  0  0  2  0  0  0  0  0  0
  191.4120  177.8390  142.1520 C   0  0  0  0  0  2  0  0  0  0  0  0
  184.2310  178.3470  143.0770 C   0  0  0  0  0  2  0  0  0  0  0  0
  187.9430  177.8960  145.1620 C   0  0  0  0  0  0  0  0  0  0  0  0
  190.7880  177.4490  147.6290 C   0  0  0  0  0  2  0  0  0  0  0  0
  185.5570  177.9580  145.1100 N   0  0  0  0  0  0  0  0  0  0  0  0
  187.6640  179.1580  141.0510 O   0  0  0  0  0  0  0  0  0  0  0  0
  190.7120  179.2040  143.9740 O   0  0  0  0  0  1  0  0  0  0  0  0
  191.1090  176.8180  144.3730 C   0  0  0  0  0  2  0  0  0  0  0  0
  189.1390  177.9060  145.9290 N   0  0  0  0  0  2  0  0  0  0  0  0
  190.6250  176.8970  141.2530 C   0  0  2  0  0  3  0  0  0  0  0  0
  191.6830  174.7850  147.9680 O   0  0  0  0  0  0  0  0  0  0  0  0
  189.2160  177.6540  143.0160 N   0  0  0  0  0  0  0  0  0  0  0  0
  186.7090  177.8610  145.8140 C   0  0  0  0  0  3  0  0  0  0  0  0
  190.7440  177.2590  139.7750 C   0  0  0  0  0  2  0  0  0  0  0  0
  189.9880  176.2930  138.8710 C   0  0  0  0  0  2  0  0  0  0  0  0
  187.8260  175.0360  137.4900 F   0  0  0  0  0  0  0  0  0  0  0  0
  189.0430  177.0400  137.9950 C   0  0  0  0  0  0  0  0  0  0  0  0
  188.0000  176.3720  137.3320 C   0  0  0  0  0  0  0  0  0  0  0  0
  187.3010  178.4630  136.3260 C   0  0  0  0  0  3  0  0  0  0  0  0
  188.3410  179.1280  136.9820 C   0  0  0  0  0  3  0  0  0  0  0  0
  189.2110  178.4170  137.8140 C   0  0  0  0  0  3  0  0  0  0  0  0
  187.1320  177.0860  136.5010 C   0  0  0  0  0  3  0  0  0  0  0  0
  1 17  1  0  0  0  0
  2 11  1  0  0  0  0
  3 15  2  0  0  0  0
  4 19  1  1  0  0  0
  4 20  1  0  0  0  0
  5 14  1  0  0  0  0
  6 23  2  0  0  0  0
  7  6  1  0  0  0  0
  7 16  1  0  0  0  0
  8  5  2  0  0  0  0
  8  2  1  0  0  0  0
  9 24  1  0  0  0  0
 10 16  1  0  0  0  0
 11  3  1  0  0  0  0
 11  1  2  0  0  0  0
 12  7  1  0  0  0  0
 13  4  1  0  0  0  0
 14  1  1  0  0  0  0
 15 25  1  0  0  0  0
 15 21  1  0  0  0  0
 17 25  2  0  0  0  0
 18  2  2  0  0  0  0
 20 12  1  0  0  0  0
 21 10  1  0  0  0  0
 22 26  1  6  0  0  0
 22  9  1  0  0  0  0
 22 13  1  0  0  0  0
 24  4  1  0  0  0  0
 24  3  1  0  0  0  0
 27 26  1  0  0  0  0
 29 27  1  0  0  0  0
 30 28  1  0  0  0  0
 30 29  2  0  0  0  0
 31 34  2  0  0  0  0
 31 32  1  0  0  0  0
 32 33  2  0  0  0  0
 33 29  1  0  0  0  0
 34 30  1  0  0  0  0
M  END
>  <MODEL>
1

>  <REMARK>
 VINA RESULT:      -9.8      0.000      0.000
  Name = 
  3 active torsions:
  status: ('A' for Active; 'I' for Inactive)
    1  A    between atoms: C_3  and  C_13
    2  A    between atoms: C_3  and  C_17
    3  A    between atoms: C_17  and  C_29
                            x       y       z     vdW  Elec       q    Type
                         _______ _______ _______ _____ _____    ______ ____

>  <TORSDO>
F 3

$$$$
=
 OpenBabel11052413583D

 34 38  0  0  1  0  0  0  0  0999 V2000
  189.3890  177.7160  139.2920 C   0  0  0  0  0  0  0  0  0  0  0  0
  189.8830  177.9700  141.6860 C   0  0  0  0  0  0  0  0  0  0  0  0
  187.4940  178.1660  140.7710 C   0  0  0  0  0  0  0  0  0  0  0  0
  185.6800  178.6850  142.5970 C   0  0  2  0  0  0  0  0  0  0  0  0
  191.6040  177.0690  140.3020 C   0  0  0  0  0  3  0  0  0  0  0  0
  181.8230  177.4310  140.5810 C   0  0  0  0  0  3  0  0  0  0  0  0
  182.7420  178.5280  140.5790 N   0  0  0  0  0  0  0  0  0  0  0  0
  191.1640  177.3690  141.4860 N   0  0  0  0  0  0  0  0  0  0  0  0
  187.3590  177.0260  143.0490 C   0  0  0  0  0  2  0  0  0  0  0  0
  184.3370  178.7700  138.7250 C   0  0  0  0  0  2  0  0  0  0  0  0
  188.8880  177.9380  140.5890 C   0  0  0  0  0  0  0  0  0  0  0  0
  183.3320  178.9440  141.7860 N   0  0  0  0  0  2  0  0  0  0  0  0
  185.7470  178.5150  144.0990 C   0  0  0  0  0  2  0  0  0  0  0  0
  190.8470  177.4260  139.0510 C   0  0  0  0  0  2  0  0  0  0  0  0
  186.7160  178.4030  139.6110 C   0  0  0  0  0  0  0  0  0  0  0  0
  183.0320  179.2570  139.3440 C   0  0  0  0  0  2  0  0  0  0  0  0
  188.5760  177.8580  138.2150 N   0  0  0  0  0  0  0  0  0  0  0  0
  189.6480  178.5730  142.7650 O   0  0  0  0  0  0  0  0  0  0  0  0
  185.7200  180.0460  142.2750 O   0  0  0  0  0  1  0  0  0  0  0  0
  184.3940  177.9920  142.1090 C   0  0  0  0  0  2  0  0  0  0  0  0
  185.3840  178.8850  139.7220 N   0  0  0  0  0  2  0  0  0  0  0  0
  186.5290  177.2260  144.3070 C   0  0  2  0  0  3  0  0  0  0  0  0
  181.2670  177.0500  139.5170 O   0  0  0  0  0  0  0  0  0  0  0  0
  186.8680  177.9960  142.0800 N   0  0  0  0  0  0  0  0  0  0  0  0
  187.2760  178.2140  138.3460 C   0  0  0  0  0  3  0  0  0  0  0  0
  187.3860  177.2560  145.5700 C   0  0  0  0  0  2  0  0  0  0  0  0
  188.6450  178.0990  145.4050 C   0  0  0  0  0  2  0  0  0  0  0  0
  189.2720  177.9560  148.1880 F   0  0  0  0  0  0  0  0  0  0  0  0
  189.8290  177.3640  145.9320 C   0  0  0  0  0  0  0  0  0  0  0  0
  190.0960  177.3310  147.3100 C   0  0  0  0  0  0  0  0  0  0  0  0
  192.0800  176.0040  146.8940 C   0  0  0  0  0  3  0  0  0  0  0  0
  191.8180  176.0400  145.5210 C   0  0  0  0  0  3  0  0  0  0  0  0
  190.6950  176.7200  145.0410 C   0  0  0  0  0  3  0  0  0  0  0  0
  191.2200  176.6500  147.7870 C   0  0  0  0  0  3  0  0  0  0  0  0
  1 11  1  0  0  0  0
  2 18  2  0  0  0  0
  3 24  1  0  0  0  0
  4 19  1  6  0  0  0
  4 13  1  0  0  0  0
  5  8  2  0  0  0  0
  7  6  1  0  0  0  0
  7 12  1  0  0  0  0
  8  2  1  0  0  0  0
  9 22  1  0  0  0  0
 10 16  1  0  0  0  0
 10 21  1  0  0  0  0
 11  3  2  0  0  0  0
 11  2  1  0  0  0  0
 12 20  1  0  0  0  0
 13 22  1  0  0  0  0
 14  1  1  0  0  0  0
 14  5  1  0  0  0  0
 15 21  1  0  0  0  0
 15  3  1  0  0  0  0
 16  7  1  0  0  0  0
 17 25  1  0  0  0  0
 17  1  2  0  0  0  0
 20  4  1  0  0  0  0
 22 26  1  1  0  0  0
 23  6  2  0  0  0  0
 24  4  1  0  0  0  0
 24  9  1  0  0  0  0
 25 15  2  0  0  0  0
 27 26  1  0  0  0  0
 27 29  1  0  0  0  0
 29 30  1  0  0  0  0
 30 34  2  0  0  0  0
 30 28  1  0  0  0  0
 31 34  1  0  0  0  0
 32 31  2  0  0  0  0
 33 32  1  0  0  0  0
 33 29  2  0  0  0  0
M  END
>  <MODEL>
2

>  <REMARK>
 VINA RESULT:      -9.6      3.006      8.041
  Name = 
  3 active torsions:
  status: ('A' for Active; 'I' for Inactive)
    1  A    between atoms: C_3  and  C_13
    2  A    between atoms: C_3  and  C_17
    3  A    between atoms: C_17  and  C_29
                            x       y       z     vdW  Elec       q    Type
                         _______ _______ _______ _____ _____    ______ ____

>  <TORSDO>
F 3

$$$$
=
 OpenBabel11052413583D

 34 38  0  0  1  0  0  0  0  0999 V2000
  185.5250  178.0940  143.8640 C   0  0  0  0  0  0  0  0  0  0  0  0
  186.6220  178.6190  141.7280 C   0  0  0  0  0  0  0  0  0  0  0  0
  187.9670  177.9740  143.8150 C   0  0  0  0  0  0  0  0  0  0  0  0
  190.5690  177.9630  143.4610 C   0  0  2  0  0  0  0  0  0  0  0  0
  184.2640  178.2610  141.6890 C   0  0  0  0  0  3  0  0  0  0  0  0
  192.0510  175.4120  146.8970 C   0  0  0  0  0  3  0  0  0  0  0  0
  191.6000  176.7480  146.6530 N   0  0  0  0  0  0  0  0  0  0  0  0
  185.3750  178.4610  141.0480 N   0  0  0  0  0  0  0  0  0  0  0  0
  189.1520  176.9710  141.7910 C   0  0  0  0  0  2  0  0  0  0  0  0
  189.3300  177.4030  147.3280 C   0  0  0  0  0  2  0  0  0  0  0  0
  186.7310  178.2060  143.1460 C   0  0  0  0  0  0  0  0  0  0  0  0
  191.9580  177.3970  145.4570 N   0  0  0  0  0  2  0  0  0  0  0  0
  191.3670  177.9030  142.1760 C   0  0  0  0  0  2  0  0  0  0  0  0
  184.1910  178.2850  143.1930 C   0  0  0  0  0  2  0  0  0  0  0  0
  187.9350  177.8820  145.2290 C   0  0  0  0  0  0  0  0  0  0  0  0
  190.8160  177.4670  147.6580 C   0  0  0  0  0  2  0  0  0  0  0  0
  185.5470  177.9050  145.2070 N   0  0  0  0  0  0  0  0  0  0  0  0
  187.5840  179.1670  141.1300 O   0  0  0  0  0  0  0  0  0  0  0  0
  190.6670  179.2430  144.0160 O   0  0  0  0  0  1  0  0  0  0  0  0
  191.1080  176.8620  144.3940 C   0  0  0  0  0  2  0  0  0  0  0  0
  189.1400  177.9070  145.9810 N   0  0  0  0  0  2  0  0  0  0  0  0
  190.5840  176.9540  141.2810 C   0  0  2  0  0  3  0  0  0  0  0  0
  191.7600  174.8150  147.9680 O   0  0  0  0  0  0  0  0  0  0  0  0
  189.1850  177.6760  143.0660 N   0  0  0  0  0  0  0  0  0  0  0  0
  186.7090  177.8220  145.8960 C   0  0  0  0  0  3  0  0  0  0  0  0
  190.6790  177.3280  139.8040 C   0  0  0  0  0  2  0  0  0  0  0  0
  190.1690  176.2240  138.8850 C   0  0  0  0  0  2  0  0  0  0  0  0
  189.9630  173.8090  137.3730 F   0  0  0  0  0  0  0  0  0  0  0  0
  191.2850  175.6910  138.0530 C   0  0  0  0  0  0  0  0  0  0  0  0
  191.1330  174.4940  137.3350 C   0  0  0  0  0  0  0  0  0  0  0  0
  193.4090  174.6930  136.5250 C   0  0  0  0  0  3  0  0  0  0  0  0
  193.5610  175.8830  137.2430 C   0  0  0  0  0  3  0  0  0  0  0  0
  192.5020  176.3800  138.0070 C   0  0  0  0  0  3  0  0  0  0  0  0
  192.1960  174.0000  136.5720 C   0  0  0  0  0  3  0  0  0  0  0  0
  1 17  1  0  0  0  0
  2 11  1  0  0  0  0
  3 15  2  0  0  0  0
  4 19  1  1  0  0  0
  4 20  1  0  0  0  0
  5 14  1  0  0  0  0
  6 23  2  0  0  0  0
  7  6  1  0  0  0  0
  7 16  1  0  0  0  0
  8  5  2  0  0  0  0
  8  2  1  0  0  0  0
  9 24  1  0  0  0  0
 10 16  1  0  0  0  0
 11  3  1  0  0  0  0
 11  1  2  0  0  0  0
 12  7  1  0  0  0  0
 13  4  1  0  0  0  0
 14  1  1  0  0  0  0
 15 25  1  0  0  0  0
 15 21  1  0  0  0  0
 17 25  2  0  0  0  0
 18  2  2  0  0  0  0
 20 12  1  0  0  0  0
 21 10  1  0  0  0  0
 22 26  1  6  0  0  0
 22  9  1  0  0  0  0
 22 13  1  0  0  0  0
 24  4  1  0  0  0  0
 24  3  1  0  0  0  0
 27 26  1  0  0  0  0
 29 27  1  0  0  0  0
 30 28  1  0  0  0  0
 30 29  2  0  0  0  0
 31 34  2  0  0  0  0
 31 32  1  0  0  0  0
 32 33  2  0  0  0  0
 33 29  1  0  0  0  0
 34 30  1  0  0  0  0
M  END
>  <MODEL>
3

>  <REMARK>
 VINA RESULT:      -9.4      1.474      2.210
  Name = 
  3 active torsions:
  status: ('A' for Active; 'I' for Inactive)
    1  A    between atoms: C_3  and  C_13
    2  A    between atoms: C_3  and  C_17
    3  A    between atoms: C_17  and  C_29
                            x       y       z     vdW  Elec       q    Type
                         _______ _______ _______ _____ _____    ______ ____

>  <TORSDO>
F 3

$$$$
=
 OpenBabel11052413583D

 34 38  0  0  1  0  0  0  0  0999 V2000
  192.5810  175.7290  136.8580 C   0  0  0  0  0  0  0  0  0  0  0  0
  192.8630  176.7580  139.0730 C   0  0  0  0  0  0  0  0  0  0  0  0
  190.6490  176.9090  137.7850 C   0  0  0  0  0  0  0  0  0  0  0  0
  188.7730  178.2650  139.0220 C   0  0  2  0  0  0  0  0  0  0  0  0
  194.5380  175.2160  138.3590 C   0  0  0  0  0  3  0  0  0  0  0  0
  184.9860  176.8620  136.9730 C   0  0  0  0  0  3  0  0  0  0  0  0
  186.0740  177.7630  136.7450 N   0  0  0  0  0  0  0  0  0  0  0  0
  194.0370  175.9710  139.2890 N   0  0  0  0  0  0  0  0  0  0  0  0
  190.0890  176.6820  140.2630 C   0  0  0  0  0  2  0  0  0  0  0  0
  187.8680  177.1280  135.1900 C   0  0  0  0  0  2  0  0  0  0  0  0
  191.9960  176.4600  137.9100 C   0  0  0  0  0  0  0  0  0  0  0  0
  186.6000  178.5060  137.8160 N   0  0  0  0  0  2  0  0  0  0  0  0
  188.6560  178.6360  140.4860 C   0  0  0  0  0  2  0  0  0  0  0  0
  193.9850  175.1940  136.9590 C   0  0  0  0  0  2  0  0  0  0  0  0
  190.0460  176.8100  136.5070 C   0  0  0  0  0  0  0  0  0  0  0  0
  186.6090  177.9610  135.3970 C   0  0  0  0  0  2  0  0  0  0  0  0
  191.9190  175.5770  135.6840 N   0  0  0  0  0  0  0  0  0  0  0  0
  192.6260  177.7300  139.8350 O   0  0  0  0  0  0  0  0  0  0  0  0
  189.0780  179.4050  138.2710 O   0  0  0  0  0  1  0  0  0  0  0  0
  187.4440  177.6080  138.6030 C   0  0  0  0  0  2  0  0  0  0  0  0
  188.8120  177.4610  136.2400 N   0  0  0  0  0  2  0  0  0  0  0  0
  189.1810  177.4200  141.2340 C   0  0  2  0  0  3  0  0  0  0  0  0
  184.4850  176.1980  136.0260 O   0  0  0  0  0  0  0  0  0  0  0  0
  189.8730  177.2960  138.9600 N   0  0  0  0  0  0  0  0  0  0  0  0
  190.6930  176.1140  135.4830 C   0  0  0  0  0  3  0  0  0  0  0  0
  189.8970  177.7920  142.5300 C   0  0  0  0  0  2  0  0  0  0  0  0
  189.8690  176.6680  143.5600 C   0  0  0  0  0  2  0  0  0  0  0  0
  190.9070  176.7360  146.2200 F   0  0  0  0  0  0  0  0  0  0  0  0
  189.0510  177.0720  144.7390 C   0  0  0  0  0  0  0  0  0  0  0  0
  189.6100  177.0800  146.0270 C   0  0  0  0  0  0  0  0  0  0  0  0
  187.4850  177.8000  146.9430 C   0  0  0  0  0  3  0  0  0  0  0  0
  186.9270  177.7880  145.6600 C   0  0  0  0  0  3  0  0  0  0  0  0
  187.7090  177.4220  144.5610 C   0  0  0  0  0  3  0  0  0  0  0  0
  188.8240  177.4460  147.1250 C   0  0  0  0  0  3  0  0  0  0  0  0
  1 14  1  0  0  0  0
  1 11  1  0  0  0  0
  2  8  1  0  0  0  0
  2 18  2  0  0  0  0
  3 11  2  0  0  0  0
  3 24  1  0  0  0  0
  4 19  1  6  0  0  0
  4 13  1  0  0  0  0
  5  8  2  0  0  0  0
  7  6  1  0  0  0  0
  7 12  1  0  0  0  0
  9 22  1  0  0  0  0
 10 16  1  0  0  0  0
 10 21  1  0  0  0  0
 11  2  1  0  0  0  0
 12 20  1  0  0  0  0
 13 22  1  0  0  0  0
 14  5  1  0  0  0  0
 15  3  1  0  0  0  0
 16  7  1  0  0  0  0
 17  1  2  0  0  0  0
 20  4  1  0  0  0  0
 21 15  1  0  0  0  0
 22 26  1  1  0  0  0
 23  6  2  0  0  0  0
 24  4  1  0  0  0  0
 24  9  1  0  0  0  0
 25 17  1  0  0  0  0
 25 15  2  0  0  0  0
 26 27  1  0  0  0  0
 27 29  1  0  0  0  0
 29 30  1  0  0  0  0
 30 28  1  0  0  0  0
 30 34  2  0  0  0  0
 31 34  1  0  0  0  0
 32 31  2  0  0  0  0
 33 29  2  0  0  0  0
 33 32  1  0  0  0  0
M  END
>  <MODEL>
4

>  <REMARK>
 VINA RESULT:      -9.4      3.929      8.884
  Name = 
  3 active torsions:
  status: ('A' for Active; 'I' for Inactive)
    1  A    between atoms: C_3  and  C_13
    2  A    between atoms: C_3  and  C_17
    3  A    between atoms: C_17  and  C_29
                            x       y       z     vdW  Elec       q    Type
                         _______ _______ _______ _____ _____    ______ ____

>  <TORSDO>
F 3

$$$$
=
 OpenBabel11052413583D

 34 38  0  0  1  0  0  0  0  0999 V2000
  185.3990  178.1360  144.3170 C   0  0  0  0  0  0  0  0  0  0  0  0
  186.3490  178.5380  142.0850 C   0  0  0  0  0  0  0  0  0  0  0  0
  187.8270  177.9400  144.0950 C   0  0  0  0  0  0  0  0  0  0  0  0
  190.3930  177.8350  143.5530 C   0  0  2  0  0  0  0  0  0  0  0  0
  183.9850  178.2500  142.2350 C   0  0  0  0  0  3  0  0  0  0  0  0
  192.0570  175.3860  146.9800 C   0  0  0  0  0  3  0  0  0  0  0  0
  191.6250  176.7230  146.7110 N   0  0  0  0  0  0  0  0  0  0  0  0
  185.0510  178.3900  141.5060 N   0  0  0  0  0  0  0  0  0  0  0  0
  188.8310  176.8180  142.0360 C   0  0  0  0  0  2  0  0  0  0  0  0
  189.4300  177.4740  147.5200 C   0  0  0  0  0  2  0  0  0  0  0  0
  186.5510  178.1810  143.5090 C   0  0  0  0  0  0  0  0  0  0  0  0
  191.9110  177.3100  145.4650 N   0  0  0  0  0  2  0  0  0  0  0  0
  191.0920  177.6970  142.2170 C   0  0  0  0  0  2  0  0  0  0  0  0
  184.0240  178.3390  143.7370 C   0  0  0  0  0  2  0  0  0  0  0  0
  187.8970  177.9080  145.5100 C   0  0  0  0  0  0  0  0  0  0  0  0
  190.9380  177.5060  147.7380 C   0  0  0  0  0  2  0  0  0  0  0  0
  185.5150  178.0020  145.6610 N   0  0  0  0  0  0  0  0  0  0  0  0
  187.2780  179.0310  141.3960 O   0  0  0  0  0  0  0  0  0  0  0  0
  190.5670  179.1340  144.0430 O   0  0  0  0  0  1  0  0  0  0  0  0
  190.9700  176.7580  144.4910 C   0  0  0  0  0  2  0  0  0  0  0  0
  189.1550  177.9270  146.1700 N   0  0  0  0  0  2  0  0  0  0  0  0
  190.2200  176.7360  141.4240 C   0  0  2  0  0  3  0  0  0  0  0  0
  191.8290  174.8420  148.0940 O   0  0  0  0  0  0  0  0  0  0  0  0
  188.9770  177.5740  143.2730 N   0  0  0  0  0  0  0  0  0  0  0  0
  186.7230  177.9130  146.2670 C   0  0  0  0  0  3  0  0  0  0  0  0
  190.2150  177.0450  139.9290 C   0  0  0  0  0  2  0  0  0  0  0  0
  191.5550  176.7530  139.2640 C   0  0  0  0  0  2  0  0  0  0  0  0
  193.6450  175.7950  137.5690 F   0  0  0  0  0  0  0  0  0  0  0  0
  191.3610  176.4850  137.8110 C   0  0  0  0  0  0  0  0  0  0  0  0
  192.4250  176.0220  137.0210 C   0  0  0  0  0  0  0  0  0  0  0  0
  190.9800  176.0240  135.0760 C   0  0  0  0  0  3  0  0  0  0  0  0
  189.9210  176.4890  135.8610 C   0  0  0  0  0  3  0  0  0  0  0  0
  190.1120  176.7210  137.2260 C   0  0  0  0  0  3  0  0  0  0  0  0
  192.2310  175.7920  135.6550 C   0  0  0  0  0  3  0  0  0  0  0  0
  1 17  1  0  0  0  0
  2 11  1  0  0  0  0
  3 15  2  0  0  0  0
  4 19  1  1  0  0  0
  4 20  1  0  0  0  0
  5 14  1  0  0  0  0
  6 23  2  0  0  0  0
  7  6  1  0  0  0  0
  7 16  1  0  0  0  0
  8  2  1  0  0  0  0
  8  5  2  0  0  0  0
  9 24  1  0  0  0  0
 10 16  1  0  0  0  0
 11  3  1  0  0  0  0
 11  1  2  0  0  0  0
 12  7  1  0  0  0  0
 13  4  1  0  0  0  0
 14  1  1  0  0  0  0
 15 21  1  0  0  0  0
 15 25  1  0  0  0  0
 17 25  2  0  0  0  0
 18  2  2  0  0  0  0
 20 12  1  0  0  0  0
 21 10  1  0  0  0  0
 22 26  1  6  0  0  0
 22  9  1  0  0  0  0
 22 13  1  0  0  0  0
 24  4  1  0  0  0  0
 24  3  1  0  0  0  0
 27 26  1  0  0  0  0
 29 27  1  0  0  0  0
 30 28  1  0  0  0  0
 30 29  2  0  0  0  0
 31 34  2  0  0  0  0
 31 32  1  0  0  0  0
 32 33  2  0  0  0  0
 33 29  1  0  0  0  0
 34 30  1  0  0  0  0
M  END
>  <MODEL>
5

>  <REMARK>
 VINA RESULT:      -9.3      1.622      1.969
  Name = 
  3 active torsions:
  status: ('A' for Active; 'I' for Inactive)
    1  A    between atoms: C_3  and  C_13
    2  A    between atoms: C_3  and  C_17
    3  A    between atoms: C_17  and  C_29
                            x       y       z     vdW  Elec       q    Type
                         _______ _______ _______ _____ _____    ______ ____

>  <TORSDO>
F 3

$$$$
=
 OpenBabel11052413583D

 34 38  0  0  1  0  0  0  0  0999 V2000
  190.1810  177.3830  140.4540 C   0  0  0  0  0  0  0  0  0  0  0  0
  189.8300  178.2460  142.7290 C   0  0  0  0  0  0  0  0  0  0  0  0
  187.9050  178.0570  141.0430 C   0  0  0  0  0  0  0  0  0  0  0  0
  185.5880  178.8870  141.9560 C   0  0  2  0  0  0  0  0  0  0  0  0
  191.9000  177.1470  142.2810 C   0  0  0  0  0  3  0  0  0  0  0  0
  182.6270  176.9310  139.1420 C   0  0  0  0  0  3  0  0  0  0  0  0
  183.5170  178.0520  139.1740 N   0  0  0  0  0  0  0  0  0  0  0  0
  191.0880  177.6980  143.1310 N   0  0  0  0  0  0  0  0  0  0  0  0
  186.9700  177.5020  143.3510 C   0  0  0  0  0  2  0  0  0  0  0  0
  185.6560  177.9360  137.9700 C   0  0  0  0  0  2  0  0  0  0  0  0
  189.2720  177.8820  141.4060 C   0  0  0  0  0  0  0  0  0  0  0  0
  183.6680  178.7880  140.3630 N   0  0  0  0  0  2  0  0  0  0  0  0
  185.1320  179.0950  143.3850 C   0  0  0  0  0  2  0  0  0  0  0  0
  191.6260  177.1370  140.8010 C   0  0  0  0  0  2  0  0  0  0  0  0
  187.5780  177.9520  139.6690 C   0  0  0  0  0  0  0  0  0  0  0  0
  184.2300  178.4730  137.9680 C   0  0  0  0  0  2  0  0  0  0  0  0
  189.7900  177.2030  139.1680 N   0  0  0  0  0  0  0  0  0  0  0  0
  189.2540  179.0780  143.4760 O   0  0  0  0  0  0  0  0  0  0  0  0
  185.7690  180.1280  141.3350 O   0  0  0  0  0  1  0  0  0  0  0  0
  184.5310  178.0140  141.2540 C   0  0  0  0  0  2  0  0  0  0  0  0
  186.3010  178.3590  139.1980 N   0  0  0  0  0  2  0  0  0  0  0  0
  185.7640  177.9500  144.1610 C   0  0  2  0  0  3  0  0  0  0  0  0
  182.4610  176.2660  138.0850 O   0  0  0  0  0  0  0  0  0  0  0  0
  186.8640  178.1720  142.0610 N   0  0  0  0  0  0  0  0  0  0  0  0
  188.5330  177.4960  138.7580 C   0  0  0  0  0  3  0  0  0  0  0  0
  186.1370  178.3430  145.5880 C   0  0  0  0  0  2  0  0  0  0  0  0
  186.5710  177.1500  146.4310 C   0  0  0  0  0  2  0  0  0  0  0  0
  189.0020  176.3780  145.1450 F   0  0  0  0  0  0  0  0  0  0  0  0
  187.9150  177.4000  147.0230 C   0  0  0  0  0  0  0  0  0  0  0  0
  189.0790  176.9930  146.3520 C   0  0  0  0  0  0  0  0  0  0  0  0
  190.4290  177.8510  148.1730 C   0  0  0  0  0  3  0  0  0  0  0  0
  189.2700  178.2530  148.8440 C   0  0  0  0  0  3  0  0  0  0  0  0
  188.0150  178.0260  148.2700 C   0  0  0  0  0  3  0  0  0  0  0  0
  190.3330  177.2210  146.9290 C   0  0  0  0  0  3  0  0  0  0  0  0
  1 14  1  0  0  0  0
  1 11  1  0  0  0  0
  2  8  1  0  0  0  0
  2 18  2  0  0  0  0
  3 11  2  0  0  0  0
  3 24  1  0  0  0  0
  4 19  1  6  0  0  0
  4 24  1  0  0  0  0
  4 13  1  0  0  0  0
  5  8  2  0  0  0  0
  6  7  1  0  0  0  0
  7 12  1  0  0  0  0
  9 22  1  0  0  0  0
 10 21  1  0  0  0  0
 11  2  1  0  0  0  0
 12 20  1  0  0  0  0
 13 22  1  0  0  0  0
 14  5  1  0  0  0  0
 15  3  1  0  0  0  0
 16 10  1  0  0  0  0
 16  7  1  0  0  0  0
 17  1  2  0  0  0  0
 20  4  1  0  0  0  0
 21 15  1  0  0  0  0
 22 26  1  1  0  0  0
 23  6  2  0  0  0  0
 24  9  1  0  0  0  0
 25 17  1  0  0  0  0
 25 15  2  0  0  0  0
 26 27  1  0  0  0  0
 27 29  1  0  0  0  0
 28 30  1  0  0  0  0
 29 33  1  0  0  0  0
 30 34  1  0  0  0  0
 30 29  2  0  0  0  0
 31 32  1  0  0  0  0
 33 32  2  0  0  0  0
 34 31  2  0  0  0  0
M  END
>  <MODEL>
6

>  <REMARK>
 VINA RESULT:      -9.0      2.526      8.209
  Name = 
  3 active torsions:
  status: ('A' for Active; 'I' for Inactive)
    1  A    between atoms: C_3  and  C_13
    2  A    between atoms: C_3  and  C_17
    3  A    between atoms: C_17  and  C_29
                            x       y       z     vdW  Elec       q    Type
                         _______ _______ _______ _____ _____    ______ ____

>  <TORSDO>
F 3

$$$$
=
 OpenBabel11052413583D

 34 38  0  0  1  0  0  0  0  0999 V2000
  189.4030  175.5110  136.8230 C   0  0  0  0  0  0  0  0  0  0  0  0
  191.1790  176.0340  138.4410 C   0  0  0  0  0  0  0  0  0  0  0  0
  188.7900  176.9250  138.7220 C   0  0  0  0  0  0  0  0  0  0  0  0
  188.4470  178.4410  140.8390 C   0  0  2  0  0  0  0  0  0  0  0  0
  191.6090  174.2960  136.8650 C   0  0  0  0  0  3  0  0  0  0  0  0
  183.9590  178.3500  141.4370 C   0  0  0  0  0  3  0  0  0  0  0  0
  184.9310  178.9980  140.6100 N   0  0  0  0  0  0  0  0  0  0  0  0
  191.9730  174.9690  137.9130 N   0  0  0  0  0  0  0  0  0  0  0  0
  189.6990  176.3990  141.0470 C   0  0  0  0  0  2  0  0  0  0  0  0
  185.2430  178.2470  138.2910 C   0  0  0  0  0  2  0  0  0  0  0  0
  189.7640  176.1590  138.0200 C   0  0  0  0  0  0  0  0  0  0  0  0
  186.1620  179.3940  141.1620 N   0  0  0  0  0  2  0  0  0  0  0  0
  189.2960  178.5620  142.0860 C   0  0  0  0  0  2  0  0  0  0  0  0
  190.3830  174.6530  136.0680 C   0  0  0  0  0  2  0  0  0  0  0  0
  187.5720  177.1990  138.0530 C   0  0  0  0  0  0  0  0  0  0  0  0
  184.6360  179.3010  139.2100 C   0  0  0  0  0  2  0  0  0  0  0  0
  188.1830  175.7290  136.2730 N   0  0  0  0  0  0  0  0  0  0  0  0
  191.7140  176.8840  139.1980 O   0  0  0  0  0  0  0  0  0  0  0  0
  188.5900  179.5930  140.0580 O   0  0  0  0  0  1  0  0  0  0  0  0
  186.9940  178.1980  141.2890 C   0  0  0  0  0  2  0  0  0  0  0  0
  186.6620  178.1580  138.5740 N   0  0  0  0  0  2  0  0  0  0  0  0
  189.7680  177.1440  142.3710 C   0  0  2  0  0  3  0  0  0  0  0  0
  182.8410  178.0010  140.9710 O   0  0  0  0  0  0  0  0  0  0  0  0
  188.9730  177.2680  140.1300 N   0  0  0  0  0  0  0  0  0  0  0  0
  187.2830  176.5650  136.8420 C   0  0  0  0  0  3  0  0  0  0  0  0
  191.1630  177.1020  142.9890 C   0  0  0  0  0  2  0  0  0  0  0  0
  191.3250  178.0870  144.1400 C   0  0  0  0  0  2  0  0  0  0  0  0
  192.4050  176.3310  146.1170 F   0  0  0  0  0  0  0  0  0  0  0  0
  190.5480  177.6260  145.3250 C   0  0  0  0  0  0  0  0  0  0  0  0
  191.1250  176.7560  146.2640 C   0  0  0  0  0  0  0  0  0  0  0  0
  189.0550  176.7460  147.5250 C   0  0  0  0  0  3  0  0  0  0  0  0
  188.4790  177.6090  146.5880 C   0  0  0  0  0  3  0  0  0  0  0  0
  189.2240  178.0470  145.4890 C   0  0  0  0  0  3  0  0  0  0  0  0
  190.3760  176.3200  147.3620 C   0  0  0  0  0  3  0  0  0  0  0  0
  1 11  1  0  0  0  0
  2 18  2  0  0  0  0
  3 24  1  0  0  0  0
  4 19  1  6  0  0  0
  4 20  1  0  0  0  0
  4 13  1  0  0  0  0
  5  8  2  0  0  0  0
  7 12  1  0  0  0  0
  7  6  1  0  0  0  0
  8  2  1  0  0  0  0
  9 22  1  0  0  0  0
 10 21  1  0  0  0  0
 10 16  1  0  0  0  0
 11  2  1  0  0  0  0
 11  3  2  0  0  0  0
 12 20  1  0  0  0  0
 13 22  1  0  0  0  0
 14  1  1  0  0  0  0
 14  5  1  0  0  0  0
 15 21  1  0  0  0  0
 15  3  1  0  0  0  0
 16  7  1  0  0  0  0
 17  1  2  0  0  0  0
 17 25  1  0  0  0  0
 22 26  1  6  0  0  0
 23  6  2  0  0  0  0
 24  4  1  0  0  0  0
 24  9  1  0  0  0  0
 25 15  2  0  0  0  0
 26 27  1  0  0  0  0
 27 29  1  0  0  0  0
 28 30  1  0  0  0  0
 29 33  2  0  0  0  0
 29 30  1  0  0  0  0
 30 34  2  0  0  0  0
 32 31  2  0  0  0  0
 33 32  1  0  0  0  0
 34 31  1  0  0  0  0
M  END
>  <MODEL>
7

>  <REMARK>
 VINA RESULT:      -8.9      3.440      7.874
  Name = 
  3 active torsions:
  status: ('A' for Active; 'I' for Inactive)
    1  A    between atoms: C_3  and  C_13
    2  A    between atoms: C_3  and  C_17
    3  A    between atoms: C_17  and  C_29
                            x       y       z     vdW  Elec       q    Type
                         _______ _______ _______ _____ _____    ______ ____

>  <TORSDO>
F 3

$$$$
=
 OpenBabel11052413583D

 34 38  0  0  1  0  0  0  0  0999 V2000
  190.9070  176.6490  144.9310 C   0  0  0  0  0  0  0  0  0  0  0  0
  188.8660  177.7120  145.7950 C   0  0  0  0  0  0  0  0  0  0  0  0
  189.3170  177.4990  143.2780 C   0  0  0  0  0  0  0  0  0  0  0  0
  187.4450  178.5330  141.7560 C   0  0  2  0  0  0  0  0  0  0  0  0
  190.1880  176.4630  147.3380 C   0  0  0  0  0  3  0  0  0  0  0  0
  188.1640  176.5310  137.7580 C   0  0  0  0  0  3  0  0  0  0  0  0
  188.6980  177.5960  138.5500 N   0  0  0  0  0  0  0  0  0  0  0  0
  189.1040  177.1260  147.0770 N   0  0  0  0  0  0  0  0  0  0  0  0
  186.8120  177.1870  143.6450 C   0  0  0  0  0  2  0  0  0  0  0  0
  190.8000  177.2600  139.7770 C   0  0  0  0  0  2  0  0  0  0  0  0
  189.6810  177.2750  144.6370 C   0  0  0  0  0  0  0  0  0  0  0  0
  187.8280  178.4160  139.2920 N   0  0  0  0  0  2  0  0  0  0  0  0
  186.0110  178.8810  142.0930 C   0  0  0  0  0  2  0  0  0  0  0  0
  191.3170  176.3490  146.3490 C   0  0  0  0  0  2  0  0  0  0  0  0
  190.3190  177.3020  142.2960 C   0  0  0  0  0  0  0  0  0  0  0  0
  190.1340  177.8770  138.5530 C   0  0  0  0  0  2  0  0  0  0  0  0
  191.7940  176.3890  143.9380 N   0  0  0  0  0  0  0  0  0  0  0  0
  188.0170  178.6340  145.6870 O   0  0  0  0  0  0  0  0  0  0  0  0
  188.1910  179.7070  141.6060 O   0  0  0  0  0  1  0  0  0  0  0  0
  187.4250  177.6680  140.4820 C   0  0  0  0  0  2  0  0  0  0  0  0
  190.1160  177.7430  140.9610 N   0  0  0  0  0  2  0  0  0  0  0  0
  185.5520  177.7680  143.0230 C   0  0  2  0  0  3  0  0  0  0  0  0
  188.9200  175.7930  137.0710 O   0  0  0  0  0  0  0  0  0  0  0  0
  187.9300  177.7560  142.9020 N   0  0  0  0  0  0  0  0  0  0  0  0
  191.5380  176.7200  142.6500 C   0  0  0  0  0  3  0  0  0  0  0  0
  184.5570  178.2530  144.0740 C   0  0  0  0  0  2  0  0  0  0  0  0
  183.7110  179.4220  143.5850 C   0  0  0  0  0  2  0  0  0  0  0  0
  182.9930  179.0080  140.8510 F   0  0  0  0  0  0  0  0  0  0  0  0
  182.3640  178.9420  143.1640 C   0  0  0  0  0  0  0  0  0  0  0  0
  182.0610  178.7630  141.8050 C   0  0  0  0  0  0  0  0  0  0  0  0
  179.8150  178.0720  142.3980 C   0  0  0  0  0  3  0  0  0  0  0  0
  180.1150  178.2550  143.7510 C   0  0  0  0  0  3  0  0  0  0  0  0
  181.3870  178.6910  144.1330 C   0  0  0  0  0  3  0  0  0  0  0  0
  180.7870  178.3270  141.4270 C   0  0  0  0  0  3  0  0  0  0  0  0
  1 14  1  0  0  0  0
  2  8  1  0  0  0  0
  3 11  2  0  0  0  0
  4 19  1  6  0  0  0
  4 13  1  0  0  0  0
  4 24  1  0  0  0  0
  6  7  1  0  0  0  0
  7 16  1  0  0  0  0
  7 12  1  0  0  0  0
  8  5  2  0  0  0  0
 10 21  1  0  0  0  0
 11  1  1  0  0  0  0
 11  2  1  0  0  0  0
 12 20  1  0  0  0  0
 13 22  1  0  0  0  0
 14  5  1  0  0  0  0
 15 25  2  0  0  0  0
 15  3  1  0  0  0  0
 16 10  1  0  0  0  0
 17  1  2  0  0  0  0
 18  2  2  0  0  0  0
 20  4  1  0  0  0  0
 21 15  1  0  0  0  0
 22  9  1  0  0  0  0
 22 26  1  1  0  0  0
 23  6  2  0  0  0  0
 24  3  1  0  0  0  0
 24  9  1  0  0  0  0
 25 17  1  0  0  0  0
 27 26  1  0  0  0  0
 28 30  1  0  0  0  0
 29 27  1  0  0  0  0
 29 33  1  0  0  0  0
 30 29  2  0  0  0  0
 31 32  1  0  0  0  0
 32 33  2  0  0  0  0
 34 30  1  0  0  0  0
 34 31  2  0  0  0  0
M  END
>  <MODEL>
8

>  <REMARK>
 VINA RESULT:      -8.8      2.540      7.096
  Name = 
  3 active torsions:
  status: ('A' for Active; 'I' for Inactive)
    1  A    between atoms: C_3  and  C_13
    2  A    between atoms: C_3  and  C_17
    3  A    between atoms: C_17  and  C_29
                            x       y       z     vdW  Elec       q    Type
                         _______ _______ _______ _____ _____    ______ ____

>  <TORSDO>
F 3

$$$$
=
 OpenBabel11052413583D

 34 38  0  0  1  0  0  0  0  0999 V2000
  188.6450  177.1690  138.3620 C   0  0  0  0  0  0  0  0  0  0  0  0
  188.7890  178.3230  140.5280 C   0  0  0  0  0  0  0  0  0  0  0  0
  186.5430  177.9400  139.3490 C   0  0  0  0  0  0  0  0  0  0  0  0
  184.4710  178.9070  140.6380 C   0  0  2  0  0  0  0  0  0  0  0  0
  190.7280  177.1520  139.7780 C   0  0  0  0  0  3  0  0  0  0  0  0
  180.9970  176.6380  138.8240 C   0  0  0  0  0  3  0  0  0  0  0  0
  181.8510  177.7430  138.5140 N   0  0  0  0  0  0  0  0  0  0  0  0
  190.1150  177.8170  140.7090 N   0  0  0  0  0  0  0  0  0  0  0  0
  186.1520  177.6970  141.8580 C   0  0  0  0  0  2  0  0  0  0  0  0
  183.6730  177.4490  136.8920 C   0  0  0  0  0  2  0  0  0  0  0  0
  187.9590  177.7980  139.4200 C   0  0  0  0  0  0  0  0  0  0  0  0
  182.2480  178.6240  139.5360 N   0  0  0  0  0  2  0  0  0  0  0  0
  184.3390  179.3020  142.0930 C   0  0  0  0  0  2  0  0  0  0  0  0
  190.1340  176.9550  138.4090 C   0  0  0  0  0  2  0  0  0  0  0  0
  185.9230  177.6620  138.1060 C   0  0  0  0  0  0  0  0  0  0  0  0
  182.2730  177.9970  137.1370 C   0  0  0  0  0  2  0  0  0  0  0  0
  187.9820  176.8300  137.2280 N   0  0  0  0  0  0  0  0  0  0  0  0
  188.3780  179.2510  141.2710 O   0  0  0  0  0  0  0  0  0  0  0  0
  184.4880  180.0550  139.8390 O   0  0  0  0  0  1  0  0  0  0  0  0
  183.3010  177.9620  140.3060 C   0  0  0  0  0  2  0  0  0  0  0  0
  184.5660  178.0200  137.8820 N   0  0  0  0  0  2  0  0  0  0  0  0
  185.1470  178.2590  142.8510 C   0  0  2  0  0  3  0  0  0  0  0  0
  180.6130  175.8440  137.9240 O   0  0  0  0  0  0  0  0  0  0  0  0
  185.7520  178.1970  140.5490 N   0  0  0  0  0  0  0  0  0  0  0  0
  186.6610  177.0810  137.0720 C   0  0  0  0  0  3  0  0  0  0  0  0
  185.8190  178.8290  144.0980 C   0  0  0  0  0  2  0  0  0  0  0  0
  185.8730  177.8270  145.2450 C   0  0  0  0  0  2  0  0  0  0  0  0
  186.7090  178.1330  147.9590 F   0  0  0  0  0  0  0  0  0  0  0  0
  187.2820  177.6260  145.6860 C   0  0  0  0  0  0  0  0  0  0  0  0
  187.6410  177.7970  147.0330 C   0  0  0  0  0  0  0  0  0  0  0  0
  189.9430  177.2760  146.4840 C   0  0  0  0  0  3  0  0  0  0  0  0
  189.5870  177.1100  145.1430 C   0  0  0  0  0  3  0  0  0  0  0  0
  188.2580  177.2860  144.7450 C   0  0  0  0  0  3  0  0  0  0  0  0
  188.9710  177.6200  147.4280 C   0  0  0  0  0  3  0  0  0  0  0  0
  1 14  1  0  0  0  0
  1 11  1  0  0  0  0
  2  8  1  0  0  0  0
  2 18  2  0  0  0  0
  3 11  2  0  0  0  0
  3 24  1  0  0  0  0
  4 19  1  6  0  0  0
  4 13  1  0  0  0  0
  5  8  2  0  0  0  0
  7  6  1  0  0  0  0
  7 12  1  0  0  0  0
  9 22  1  0  0  0  0
 10 16  1  0  0  0  0
 10 21  1  0  0  0  0
 11  2  1  0  0  0  0
 12 20  1  0  0  0  0
 13 22  1  0  0  0  0
 14  5  1  0  0  0  0
 15  3  1  0  0  0  0
 16  7  1  0  0  0  0
 17  1  2  0  0  0  0
 20  4  1  0  0  0  0
 21 15  1  0  0  0  0
 22 26  1  1  0  0  0
 23  6  2  0  0  0  0
 24  4  1  0  0  0  0
 24  9  1  0  0  0  0
 25 17  1  0  0  0  0
 25 15  2  0  0  0  0
 26 27  1  0  0  0  0
 27 29  1  0  0  0  0
 29 30  1  0  0  0  0
 30 34  2  0  0  0  0
 30 28  1  0  0  0  0
 31 34  1  0  0  0  0
 32 31  2  0  0  0  0
 33 32  1  0  0  0  0
 33 29  2  0  0  0  0
M  END
>  <MODEL>
9

>  <REMARK>
 VINA RESULT:      -8.1      3.357      8.677
  Name = 
  3 active torsions:
  status: ('A' for Active; 'I' for Inactive)
    1  A    between atoms: C_3  and  C_13
    2  A    between atoms: C_3  and  C_17
    3  A    between atoms: C_17  and  C_29
                            x       y       z     vdW  Elec       q    Type
                         _______ _______ _______ _____ _____    ______ ____

>  <TORSDO>
F 3

$$$$
