=
 OpenBabel11052413403D

 27 31  0  0  1  0  0  0  0  0999 V2000
  187.1330  177.1470  142.0810 C   0  0  0  0  0  2  0  0  0  0  0  0
  189.3550  177.6660  143.2080 C   0  0  0  0  0  0  0  0  0  0  0  0
  187.5340  176.8490  144.8500 C   0  0  0  0  0  2  0  0  0  0  0  0
  192.0680  177.2260  146.3520 N   0  0  0  0  0  2  0  0  0  0  0  0
  191.6610  175.3980  147.8210 N   0  0  0  0  0  1  0  0  0  0  0  0
  190.6780  177.9670  143.0070 N   0  0  0  0  0  0  0  0  0  0  0  0
  189.7860  176.6860  146.9180 C   0  0  1  0  0  3  0  0  0  0  0  0
  184.0830  178.4770  144.8700 C   0  0  0  0  0  2  0  0  0  0  0  0
  188.9410  177.6810  147.6970 C   0  0  0  0  0  1  0  0  0  0  0  0
  184.1130  179.9150  144.3420 C   0  0  0  0  0  2  0  0  0  0  0  0
  189.9250  177.1260  145.4980 C   0  0  0  0  0  0  0  0  0  0  0  0
  188.4340  177.8260  142.0990 N   0  0  0  0  0  0  0  0  0  0  0  0
  191.2350  176.7360  147.4490 C   0  0  2  0  0  3  0  0  0  0  0  0
  191.2260  177.4250  145.2380 C   0  0  0  0  0  0  0  0  0  0  0  0
  186.1110  177.8180  143.0020 C   0  0  2  0  0  3  0  0  0  0  0  0
  188.9430  177.2230  144.5030 C   0  0  0  0  0  0  0  0  0  0  0  0
  185.4140  178.0030  145.4630 C   0  0  0  0  0  2  0  0  0  0  0  0
  191.6230  177.8540  143.9820 C   0  0  0  0  0  3  0  0  0  0  0  0
  185.5810  179.1250  142.3880 C   0  0  0  0  0  2  0  0  0  0  0  0
  185.2880  180.2280  143.4100 C   0  0  0  0  0  2  0  0  0  0  0  0
  186.5790  177.9630  144.4620 C   0  0  1  0  0  3  0  0  0  0  0  0
  189.2210  176.9660  138.4180 O   0  0  0  0  0  0  0  0  0  0  0  0
  188.9540  178.4400  140.8640 C   0  0  0  0  0  3  0  0  0  0  0  0
  187.8950  178.4580  139.7540 C   0  0  0  0  0  2  0  0  0  0  0  0
  187.9380  177.1550  138.9560 C   0  0  0  0  0  2  0  0  0  0  0  0
  190.0580  176.6320  139.4960 C   0  0  0  0  0  2  0  0  0  0  0  0
  190.2950  177.8630  140.3750 C   0  0  0  0  0  2  0  0  0  0  0  0
  1 12  1  0  0  0  0
  2 16  1  0  0  0  0
  4 13  1  0  0  0  0
  6  2  2  0  0  0  0
  6 18  1  0  0  0  0
  7 13  1  0  0  0  0
  7  9  1  1  0  0  0
  8 17  1  0  0  0  0
 10  8  1  0  0  0  0
 11  7  1  0  0  0  0
 12  2  1  0  0  0  0
 13  5  1  6  0  0  0
 14 11  1  0  0  0  0
 14  4  1  0  0  0  0
 15  1  1  6  0  0  0
 15 21  1  0  0  0  0
 16  3  1  0  0  0  0
 16 11  2  0  0  0  0
 18 14  2  0  0  0  0
 19 15  1  0  0  0  0
 19 20  1  0  0  0  0
 20 10  1  0  0  0  0
 21  3  1  1  0  0  0
 21 17  1  0  0  0  0
 22 25  1  0  0  0  0
 22 26  1  0  0  0  0
 23 12  1  0  0  0  0
 24 23  1  0  0  0  0
 25 24  1  0  0  0  0
 26 27  1  0  0  0  0
 27 23  1  0  0  0  0
M  END
>  <MODEL>
1

>  <REMARK>
 VINA RESULT:      -8.6      0.000      0.000
  Name = 
  1 active torsions:
  status: ('A' for Active; 'I' for Inactive)
    1  A    between atoms: C_9  and  N_15
                            x       y       z     vdW  Elec       q    Type
                         _______ _______ _______ _____ _____    ______ ____

>  <TORSDO>
F 1

$$$$
=
 OpenBabel11052413403D

 27 31  0  0  1  0  0  0  0  0999 V2000
  185.7410  177.3190  144.5530 C   0  0  0  0  0  2  0  0  0  0  0  0
  187.0000  178.2150  142.5320 C   0  0  0  0  0  0  0  0  0  0  0  0
  188.3430  176.4770  143.8940 C   0  0  0  0  0  2  0  0  0  0  0  0
  189.9670  177.8830  139.6120 N   0  0  0  0  0  2  0  0  0  0  0  0
  190.9040  175.7140  139.3320 N   0  0  0  0  0  1  0  0  0  0  0  0
  186.9080  178.9610  141.3840 N   0  0  0  0  0  0  0  0  0  0  0  0
  190.3360  176.5230  141.5700 C   0  0  1  0  0  3  0  0  0  0  0  0
  188.7280  176.8650  147.6710 C   0  0  0  0  0  2  0  0  0  0  0  0
  191.3310  176.9690  142.6270 C   0  0  0  0  0  1  0  0  0  0  0  0
  188.5920  178.3220  148.1240 C   0  0  0  0  0  2  0  0  0  0  0  0
  189.0810  177.3270  141.6700 C   0  0  0  0  0  0  0  0  0  0  0  0
  185.9560  178.3480  143.5290 N   0  0  0  0  0  0  0  0  0  0  0  0
  190.8850  176.8950  140.1760 C   0  0  2  0  0  3  0  0  0  0  0  0
  188.9290  178.0780  140.5470 C   0  0  0  0  0  0  0  0  0  0  0  0
  186.7860  177.3760  145.6690 C   0  0  2  0  0  3  0  0  0  0  0  0
  188.1290  177.3540  142.6980 C   0  0  0  0  0  0  0  0  0  0  0  0
  189.1990  176.7050  146.2210 C   0  0  0  0  0  2  0  0  0  0  0  0
  187.8350  178.9130  140.3880 C   0  0  0  0  0  3  0  0  0  0  0  0
  186.5240  178.5580  146.6190 C   0  0  0  0  0  2  0  0  0  0  0  0
  187.7930  179.2160  147.1700 C   0  0  0  0  0  2  0  0  0  0  0  0
  188.2420  177.2900  145.1720 C   0  0  1  0  0  3  0  0  0  0  0  0
  182.1240  178.8060  143.3970 O   0  0  0  0  0  0  0  0  0  0  0  0
  184.9320  179.3860  143.3100 C   0  0  0  0  0  3  0  0  0  0  0  0
  184.0700  179.6000  144.5600 C   0  0  0  0  0  2  0  0  0  0  0  0
  182.8860  178.6320  144.5640 C   0  0  0  0  0  2  0  0  0  0  0  0
  182.8860  178.2730  142.3430 C   0  0  0  0  0  2  0  0  0  0  0  0
  184.0770  179.1870  142.0450 C   0  0  0  0  0  2  0  0  0  0  0  0
  2 16  1  0  0  0  0
  2 12  1  0  0  0  0
  4 13  1  0  0  0  0
  4 14  1  0  0  0  0
  6  2  2  0  0  0  0
  7 11  1  0  0  0  0
  7  9  1  1  0  0  0
  8 10  1  0  0  0  0
 11 16  2  0  0  0  0
 12  1  1  0  0  0  0
 13  5  1  6  0  0  0
 13  7  1  0  0  0  0
 14 11  1  0  0  0  0
 15  1  1  6  0  0  0
 15 19  1  0  0  0  0
 16  3  1  0  0  0  0
 17  8  1  0  0  0  0
 18 14  2  0  0  0  0
 18  6  1  0  0  0  0
 19 20  1  0  0  0  0
 20 10  1  0  0  0  0
 21  3  1  6  0  0  0
 21 15  1  0  0  0  0
 21 17  1  0  0  0  0
 22 25  1  0  0  0  0
 23 12  1  0  0  0  0
 23 24  1  0  0  0  0
 24 25  1  0  0  0  0
 26 22  1  0  0  0  0
 27 26  1  0  0  0  0
 27 23  1  0  0  0  0
M  END
>  <MODEL>
2

>  <REMARK>
 VINA RESULT:      -8.4      2.968      5.435
  Name = 
  1 active torsions:
  status: ('A' for Active; 'I' for Inactive)
    1  A    between atoms: C_9  and  N_15
                            x       y       z     vdW  Elec       q    Type
                         _______ _______ _______ _____ _____    ______ ____

>  <TORSDO>
F 1

$$$$
=
 OpenBabel11052413403D

 27 31  0  0  1  0  0  0  0  0999 V2000
  189.3540  178.3570  137.4000 C   0  0  0  0  0  2  0  0  0  0  0  0
  188.0760  178.1570  139.5920 C   0  0  0  0  0  0  0  0  0  0  0  0
  190.5360  177.3820  139.7610 C   0  0  0  0  0  2  0  0  0  0  0  0
  187.9500  177.9110  143.7590 N   0  0  0  0  0  2  0  0  0  0  0  0
  189.9530  178.5180  144.8910 N   0  0  0  0  0  1  0  0  0  0  0  0
  186.9160  178.4700  140.2540 N   0  0  0  0  0  0  0  0  0  0  0  0
  190.0650  177.2790  142.7840 C   0  0  1  0  0  3  0  0  0  0  0  0
  191.9450  174.8760  137.2510 C   0  0  0  0  0  2  0  0  0  0  0  0
  190.4260  175.8110  142.6400 C   0  0  0  0  0  1  0  0  0  0  0  0
  190.8560  173.9920  136.6350 C   0  0  0  0  0  2  0  0  0  0  0  0
  189.0610  177.6680  141.7490 C   0  0  0  0  0  0  0  0  0  0  0  0
  188.0940  178.2530  138.1440 N   0  0  0  0  0  0  0  0  0  0  0  0
  189.3020  177.4810  144.1110 C   0  0  2  0  0  3  0  0  0  0  0  0
  187.8900  178.0050  142.3520 C   0  0  0  0  0  0  0  0  0  0  0  0
  190.0870  177.0170  137.3010 C   0  0  2  0  0  3  0  0  0  0  0  0
  189.2080  177.7370  140.3570 C   0  0  0  0  0  0  0  0  0  0  0  0
  191.5910  175.4260  138.6370 C   0  0  0  0  0  2  0  0  0  0  0  0
  186.7930  178.4110  141.6090 C   0  0  0  0  0  3  0  0  0  0  0  0
  189.4120  176.0860  136.2790 C   0  0  0  0  0  2  0  0  0  0  0  0
  189.4510  174.6010  136.6580 C   0  0  0  0  0  2  0  0  0  0  0  0
  190.3640  176.3490  138.6620 C   0  0  1  0  0  3  0  0  0  0  0  0
  185.8630  176.9640  135.2680 O   0  0  0  0  0  0  0  0  0  0  0  0
  186.8180  178.5420  137.4650 C   0  0  0  0  0  3  0  0  0  0  0  0
  185.8170  177.3930  137.6310 C   0  0  0  0  0  2  0  0  0  0  0  0
  186.0080  176.3550  136.5260 C   0  0  0  0  0  2  0  0  0  0  0  0
  187.0080  177.7540  135.0770 C   0  0  0  0  0  2  0  0  0  0  0  0
  186.9590  178.9780  135.9940 C   0  0  0  0  0  2  0  0  0  0  0  0
  1 12  1  0  0  0  0
  2  6  2  0  0  0  0
  2 16  1  0  0  0  0
  3 16  1  0  0  0  0
  4 13  1  0  0  0  0
  6 18  1  0  0  0  0
  7  9  1  6  0  0  0
  7 13  1  0  0  0  0
  8 17  1  0  0  0  0
 10 20  1  0  0  0  0
 10  8  1  0  0  0  0
 11 14  1  0  0  0  0
 11  7  1  0  0  0  0
 12  2  1  0  0  0  0
 13  5  1  1  0  0  0
 14  4  1  0  0  0  0
 15 19  1  6  0  0  0
 15  1  1  0  0  0  0
 15 21  1  0  0  0  0
 16 11  2  0  0  0  0
 18 14  2  0  0  0  0
 19 20  1  0  0  0  0
 21 17  1  6  0  0  0
 21  3  1  0  0  0  0
 22 25  1  0  0  0  0
 23 24  1  0  0  0  0
 23 12  1  0  0  0  0
 25 24  1  0  0  0  0
 26 22  1  0  0  0  0
 26 27  1  0  0  0  0
 27 23  1  0  0  0  0
M  END
>  <MODEL>
3

>  <REMARK>
 VINA RESULT:      -7.5      2.642      6.225
  Name = 
  1 active torsions:
  status: ('A' for Active; 'I' for Inactive)
    1  A    between atoms: C_9  and  N_15
                            x       y       z     vdW  Elec       q    Type
                         _______ _______ _______ _____ _____    ______ ____

>  <TORSDO>
F 1

$$$$
=
 OpenBabel11052413403D

 27 31  0  0  1  0  0  0  0  0999 V2000
  187.6960  177.1200  142.6360 C   0  0  0  0  0  2  0  0  0  0  0  0
  188.0630  177.9050  140.2430 C   0  0  0  0  0  0  0  0  0  0  0  0
  189.8690  176.2530  141.0720 C   0  0  0  0  0  2  0  0  0  0  0  0
  189.6940  177.4200  136.4290 N   0  0  0  0  0  2  0  0  0  0  0  0
  190.5070  175.2410  135.9220 N   0  0  0  0  0  1  0  0  0  0  0  0
  187.5200  178.5850  139.1820 N   0  0  0  0  0  0  0  0  0  0  0  0
  190.8180  176.1740  138.1630 C   0  0  1  0  0  3  0  0  0  0  0  0
  191.6600  176.8570  144.3880 C   0  0  0  0  0  2  0  0  0  0  0  0
  192.1310  176.6830  138.7330 C   0  0  0  0  0  1  0  0  0  0  0  0
  191.6710  178.3370  144.7840 C   0  0  0  0  0  2  0  0  0  0  0  0
  189.6780  176.9780  138.6950 C   0  0  0  0  0  0  0  0  0  0  0  0
  187.4770  178.0910  141.5570 N   0  0  0  0  0  0  0  0  0  0  0  0
  190.7830  176.4680  136.6480 C   0  0  2  0  0  3  0  0  0  0  0  0
  189.0880  177.6630  137.6800 C   0  0  0  0  0  0  0  0  0  0  0  0
  189.0870  177.2450  143.2610 C   0  0  2  0  0  3  0  0  0  0  0  0
  189.1910  177.0600  140.0070 C   0  0  0  0  0  0  0  0  0  0  0  0
  191.5440  176.6160  142.8790 C   0  0  0  0  0  2  0  0  0  0  0  0
  187.9960  178.4840  137.9100 C   0  0  0  0  0  3  0  0  0  0  0  0
  189.1790  178.4780  144.1770 C   0  0  0  0  0  2  0  0  0  0  0  0
  190.5450  179.1720  144.1650 C   0  0  0  0  0  2  0  0  0  0  0  0
  190.2440  177.1370  142.2480 C   0  0  1  0  0  3  0  0  0  0  0  0
  183.7380  178.4400  142.4550 O   0  0  0  0  0  0  0  0  0  0  0  0
  186.4210  179.1110  141.6950 C   0  0  0  0  0  3  0  0  0  0  0  0
  185.9110  179.2020  143.1380 C   0  0  0  0  0  2  0  0  0  0  0  0
  184.7780  178.2020  143.3670 C   0  0  0  0  0  2  0  0  0  0  0  0
  184.2050  178.0130  141.2010 C   0  0  0  0  0  2  0  0  0  0  0  0
  185.2690  178.9830  140.6810 C   0  0  0  0  0  2  0  0  0  0  0  0
  2 12  1  0  0  0  0
  4 13  1  0  0  0  0
  4 14  1  0  0  0  0
  6  2  2  0  0  0  0
  7 11  1  0  0  0  0
  7  9  1  1  0  0  0
  8 10  1  0  0  0  0
 11 16  2  0  0  0  0
 12 23  1  0  0  0  0
 12  1  1  0  0  0  0
 13  5  1  6  0  0  0
 13  7  1  0  0  0  0
 14 18  2  0  0  0  0
 14 11  1  0  0  0  0
 15  1  1  6  0  0  0
 15 19  1  0  0  0  0
 16  2  1  0  0  0  0
 16  3  1  0  0  0  0
 17  8  1  0  0  0  0
 18  6  1  0  0  0  0
 20 19  1  0  0  0  0
 20 10  1  0  0  0  0
 21  3  1  6  0  0  0
 21 17  1  0  0  0  0
 21 15  1  0  0  0  0
 22 25  1  0  0  0  0
 23 24  1  0  0  0  0
 24 25  1  0  0  0  0
 26 22  1  0  0  0  0
 27 26  1  0  0  0  0
 27 23  1  0  0  0  0
M  END
>  <MODEL>
4

>  <REMARK>
 VINA RESULT:      -7.3      3.008      6.606
  Name = 
  1 active torsions:
  status: ('A' for Active; 'I' for Inactive)
    1  A    between atoms: C_9  and  N_15
                            x       y       z     vdW  Elec       q    Type
                         _______ _______ _______ _____ _____    ______ ____

>  <TORSDO>
F 1

$$$$
=
 OpenBabel11052413403D

 27 31  0  0  1  0  0  0  0  0999 V2000
  189.4740  178.7970  141.8790 C   0  0  0  0  0  2  0  0  0  0  0  0
  189.7090  177.0590  140.0350 C   0  0  0  0  0  0  0  0  0  0  0  0
  187.7080  178.6580  139.6930 C   0  0  0  0  0  2  0  0  0  0  0  0
  189.0130  175.7210  136.1410 N   0  0  0  0  0  2  0  0  0  0  0  0
  188.2760  177.3750  134.5960 N   0  0  0  0  0  1  0  0  0  0  0  0
  190.5090  176.0800  139.5020 N   0  0  0  0  0  0  0  0  0  0  0  0
  187.4720  177.4130  136.9070 C   0  0  1  0  0  3  0  0  0  0  0  0
  185.2020  179.2440  142.5120 C   0  0  0  0  0  2  0  0  0  0  0  0
  186.0780  177.0180  137.3640 C   0  0  0  0  0  1  0  0  0  0  0  0
  185.1440  178.0700  143.4930 C   0  0  0  0  0  2  0  0  0  0  0  0
  188.4790  177.0530  137.9500 C   0  0  0  0  0  0  0  0  0  0  0  0
  189.9730  177.5070  141.3900 N   0  0  0  0  0  0  0  0  0  0  0  0
  187.8750  176.5300  135.7060 C   0  0  2  0  0  3  0  0  0  0  0  0
  189.3130  176.0930  137.4680 C   0  0  0  0  0  0  0  0  0  0  0  0
  187.9790  178.7620  142.2030 C   0  0  2  0  0  3  0  0  0  0  0  0
  188.6430  177.5800  139.2380 C   0  0  0  0  0  0  0  0  0  0  0  0
  185.6640  178.8560  141.1030 C   0  0  0  0  0  2  0  0  0  0  0  0
  190.3440  175.5880  138.2430 C   0  0  0  0  0  3  0  0  0  0  0  0
  187.7110  178.0140  143.5200 C   0  0  0  0  0  2  0  0  0  0  0  0
  186.4090  177.2070  143.5330 C   0  0  0  0  0  2  0  0  0  0  0  0
  187.0920  178.2950  141.0320 C   0  0  1  0  0  3  0  0  0  0  0  0
  191.1460  176.9230  145.0220 O   0  0  0  0  0  0  0  0  0  0  0  0
  190.9970  176.7790  142.1610 C   0  0  0  0  0  3  0  0  0  0  0  0
  190.3670  175.7320  143.0870 C   0  0  0  0  0  2  0  0  0  0  0  0
  190.0030  176.3600  144.4320 C   0  0  0  0  0  2  0  0  0  0  0  0
  191.4500  178.0750  144.2760 C   0  0  0  0  0  2  0  0  0  0  0  0
  192.0010  177.6790  142.9040 C   0  0  0  0  0  2  0  0  0  0  0  0
  2 12  1  0  0  0  0
  4 14  1  0  0  0  0
  6  2  1  0  0  0  0
  7  9  1  1  0  0  0
  7 11  1  0  0  0  0
  8 10  1  0  0  0  0
 10 20  1  0  0  0  0
 11 16  1  0  0  0  0
 12  1  1  0  0  0  0
 12 23  1  0  0  0  0
 13  5  1  6  0  0  0
 13  4  1  0  0  0  0
 13  7  1  0  0  0  0
 14 11  2  0  0  0  0
 14 18  1  0  0  0  0
 15  1  1  6  0  0  0
 15 19  1  0  0  0  0
 16  3  1  0  0  0  0
 16  2  2  0  0  0  0
 17  8  1  0  0  0  0
 18  6  2  0  0  0  0
 19 20  1  0  0  0  0
 21  3  1  6  0  0  0
 21 17  1  0  0  0  0
 21 15  1  0  0  0  0
 23 27  1  0  0  0  0
 23 24  1  0  0  0  0
 24 25  1  0  0  0  0
 25 22  1  0  0  0  0
 26 22  1  0  0  0  0
 27 26  1  0  0  0  0
M  END
>  <MODEL>
5

>  <REMARK>
 VINA RESULT:      -7.2      2.843      6.542
  Name = 
  1 active torsions:
  status: ('A' for Active; 'I' for Inactive)
    1  A    between atoms: C_9  and  N_15
                            x       y       z     vdW  Elec       q    Type
                         _______ _______ _______ _____ _____    ______ ____

>  <TORSDO>
F 1

$$$$
=
 OpenBabel11052413403D

 27 31  0  0  1  0  0  0  0  0999 V2000
  189.5280  175.9480  144.3960 C   0  0  0  0  0  2  0  0  0  0  0  0
  187.8780  177.7090  145.2040 C   0  0  0  0  0  0  0  0  0  0  0  0
  187.3730  176.8420  142.8230 C   0  0  0  0  0  2  0  0  0  0  0  0
  184.1480  179.5820  145.0690 N   0  0  0  0  0  2  0  0  0  0  0  0
  182.4390  178.3980  143.9120 N   0  0  0  0  0  1  0  0  0  0  0  0
  187.4500  178.4440  146.2810 N   0  0  0  0  0  0  0  0  0  0  0  0
  184.7340  178.3750  143.0640 C   0  0  1  0  0  3  0  0  0  0  0  0
  190.1180  176.7690  140.1730 C   0  0  0  0  0  2  0  0  0  0  0  0
  185.2320  179.1290  141.8430 C   0  0  0  0  0  1  0  0  0  0  0  0
  191.2180  177.7990  140.4450 C   0  0  0  0  0  2  0  0  0  0  0  0
  185.8070  178.3010  144.0990 C   0  0  0  0  0  0  0  0  0  0  0  0
  189.1770  177.0670  145.2780 N   0  0  0  0  0  0  0  0  0  0  0  0
  183.6320  179.2090  143.7530 C   0  0  2  0  0  3  0  0  0  0  0  0
  185.4280  179.0040  145.2010 C   0  0  0  0  0  0  0  0  0  0  0  0
  189.8570  176.4070  142.9730 C   0  0  2  0  0  3  0  0  0  0  0  0
  187.0320  177.6220  144.0560 C   0  0  0  0  0  0  0  0  0  0  0  0
  188.7570  177.1370  140.7740 C   0  0  0  0  0  2  0  0  0  0  0  0
  186.2500  179.0880  146.3130 C   0  0  0  0  0  3  0  0  0  0  0  0
  191.2470  177.0640  142.9050 C   0  0  0  0  0  2  0  0  0  0  0  0
  191.3470  178.2250  141.9110 C   0  0  0  0  0  2  0  0  0  0  0  0
  188.7440  177.2390  142.3070 C   0  0  1  0  0  3  0  0  0  0  0  0
  191.8300  175.4370  147.5620 O   0  0  0  0  0  0  0  0  0  0  0  0
  190.0190  177.3650  146.4510 C   0  0  0  0  0  3  0  0  0  0  0  0
  191.5120  177.3160  146.1000 C   0  0  0  0  0  2  0  0  0  0  0  0
  192.0490  175.8940  146.2520 C   0  0  0  0  0  2  0  0  0  0  0  0
  190.4490  175.2010  147.6730 C   0  0  0  0  0  2  0  0  0  0  0  0
  189.6920  176.5310  147.7040 C   0  0  0  0  0  2  0  0  0  0  0  0
  1 12  1  0  0  0  0
  2 12  1  0  0  0  0
  2  6  1  0  0  0  0
  3 16  1  0  0  0  0
  4 14  1  0  0  0  0
  6 18  2  0  0  0  0
  7  9  1  6  0  0  0
  7 13  1  0  0  0  0
  7 11  1  0  0  0  0
  8 10  1  0  0  0  0
  8 17  1  0  0  0  0
 10 20  1  0  0  0  0
 11 14  2  0  0  0  0
 12 23  1  0  0  0  0
 13  5  1  1  0  0  0
 13  4  1  0  0  0  0
 14 18  1  0  0  0  0
 15 19  1  1  0  0  0
 15  1  1  0  0  0  0
 16 11  1  0  0  0  0
 16  2  2  0  0  0  0
 20 19  1  0  0  0  0
 21 17  1  6  0  0  0
 21  3  1  0  0  0  0
 21 15  1  0  0  0  0
 22 26  1  0  0  0  0
 23 27  1  0  0  0  0
 24 25  1  0  0  0  0
 24 23  1  0  0  0  0
 25 22  1  0  0  0  0
 26 27  1  0  0  0  0
M  END
>  <MODEL>
6

>  <REMARK>
 VINA RESULT:      -7.2      2.864      6.527
  Name = 
  1 active torsions:
  status: ('A' for Active; 'I' for Inactive)
    1  A    between atoms: C_9  and  N_15
                            x       y       z     vdW  Elec       q    Type
                         _______ _______ _______ _____ _____    ______ ____

>  <TORSDO>
F 1

$$$$
=
 OpenBabel11052413403D

 27 31  0  0  1  0  0  0  0  0999 V2000
  185.6490  179.1940  138.7530 C   0  0  0  0  0  2  0  0  0  0  0  0
  185.9410  178.3820  141.1470 C   0  0  0  0  0  0  0  0  0  0  0  0
  188.1380  178.3870  139.7870 C   0  0  0  0  0  2  0  0  0  0  0  0
  188.2980  177.6720  144.5210 N   0  0  0  0  0  2  0  0  0  0  0  0
  190.4230  178.7430  144.5410 N   0  0  0  0  0  1  0  0  0  0  0  0
  185.3440  178.2520  142.3750 N   0  0  0  0  0  0  0  0  0  0  0  0
  189.5320  177.8270  142.4540 C   0  0  1  0  0  3  0  0  0  0  0  0
  188.2890  176.7130  136.3600 C   0  0  0  0  0  2  0  0  0  0  0  0
  190.0190  176.5640  141.7640 C   0  0  0  0  0  1  0  0  0  0  0  0
  187.2400  175.6080  136.2040 C   0  0  0  0  0  2  0  0  0  0  0  0
  188.0630  177.9950  142.2470 C   0  0  0  0  0  0  0  0  0  0  0  0
  185.0990  178.6300  139.9920 N   0  0  0  0  0  0  0  0  0  0  0  0
  189.6560  177.6440  143.9820 C   0  0  2  0  0  3  0  0  0  0  0  0
  187.4180  177.8910  143.4390 C   0  0  0  0  0  0  0  0  0  0  0  0
  186.4310  178.1620  137.9370 C   0  0  2  0  0  3  0  0  0  0  0  0
  187.3620  178.2520  141.0610 C   0  0  0  0  0  0  0  0  0  0  0  0
  188.7030  176.9790  137.8110 C   0  0  0  0  0  2  0  0  0  0  0  0
  186.0410  178.0150  143.5210 C   0  0  0  0  0  3  0  0  0  0  0  0
  185.4850  177.1810  137.2230 C   0  0  0  0  0  2  0  0  0  0  0  0
  186.0210  175.7490  137.1210 C   0  0  0  0  0  2  0  0  0  0  0  0
  187.5660  177.4720  138.7190 C   0  0  1  0  0  3  0  0  0  0  0  0
  181.8730  177.3980  138.2650 O   0  0  0  0  0  0  0  0  0  0  0  0
  183.6390  178.5830  140.1890 C   0  0  0  0  0  3  0  0  0  0  0  0
  183.1310  177.1400  140.2950 C   0  0  0  0  0  2  0  0  0  0  0  0
  182.8190  176.5820  138.9070 C   0  0  0  0  0  2  0  0  0  0  0  0
  182.5440  178.5830  137.9180 C   0  0  0  0  0  2  0  0  0  0  0  0
  182.8280  179.4090  139.1740 C   0  0  0  0  0  2  0  0  0  0  0  0
  1 12  1  0  0  0  0
  2  6  1  0  0  0  0
  3 16  1  0  0  0  0
  6 18  2  0  0  0  0
  7  9  1  6  0  0  0
  7 13  1  0  0  0  0
  8 17  1  0  0  0  0
 10  8  1  0  0  0  0
 10 20  1  0  0  0  0
 11  7  1  0  0  0  0
 11 14  2  0  0  0  0
 12 23  1  0  0  0  0
 12  2  1  0  0  0  0
 13  4  1  0  0  0  0
 13  5  1  1  0  0  0
 14 18  1  0  0  0  0
 14  4  1  0  0  0  0
 15 19  1  1  0  0  0
 15 21  1  0  0  0  0
 15  1  1  0  0  0  0
 16  2  2  0  0  0  0
 16 11  1  0  0  0  0
 20 19  1  0  0  0  0
 21 17  1  6  0  0  0
 21  3  1  0  0  0  0
 22 25  1  0  0  0  0
 23 24  1  0  0  0  0
 25 24  1  0  0  0  0
 26 22  1  0  0  0  0
 26 27  1  0  0  0  0
 27 23  1  0  0  0  0
M  END
>  <MODEL>
7

>  <REMARK>
 VINA RESULT:      -6.9      3.029      5.987
  Name = 
  1 active torsions:
  status: ('A' for Active; 'I' for Inactive)
    1  A    between atoms: C_9  and  N_15
                            x       y       z     vdW  Elec       q    Type
                         _______ _______ _______ _____ _____    ______ ____

>  <TORSDO>
F 1

$$$$
=
 OpenBabel11052413403D

 27 31  0  0  1  0  0  0  0  0999 V2000
  182.7620  179.9320  139.2660 C   0  0  0  0  0  2  0  0  0  0  0  0
  182.4180  179.0760  141.6380 C   0  0  0  0  0  0  0  0  0  0  0  0
  184.9050  179.3490  140.9930 C   0  0  0  0  0  2  0  0  0  0  0  0
  183.7330  178.4990  145.5590 N   0  0  0  0  0  2  0  0  0  0  0  0
  185.6300  179.7790  146.2120 N   0  0  0  0  0  1  0  0  0  0  0  0
  181.5010  178.8460  142.6320 N   0  0  0  0  0  0  0  0  0  0  0  0
  185.5000  178.8460  143.9530 C   0  0  1  0  0  3  0  0  0  0  0  0
  186.2410  177.8130  137.7640 C   0  0  0  0  0  2  0  0  0  0  0  0
  186.3010  177.6620  143.4390 C   0  0  0  0  0  1  0  0  0  0  0  0
  185.4090  176.6120  137.3020 C   0  0  0  0  0  2  0  0  0  0  0  0
  184.1480  178.8710  143.3190 C   0  0  0  0  0  0  0  0  0  0  0  0
  181.9340  179.2750  140.2850 N   0  0  0  0  0  0  0  0  0  0  0  0
  185.1850  178.6260  145.4490 C   0  0  2  0  0  3  0  0  0  0  0  0
  183.1950  178.6620  144.2650 C   0  0  0  0  0  0  0  0  0  0  0  0
  183.8560  179.0130  138.7190 C   0  0  2  0  0  3  0  0  0  0  0  0
  183.8060  179.0940  141.9780 C   0  0  0  0  0  0  0  0  0  0  0  0
  186.1760  178.0720  139.2740 C   0  0  0  0  0  2  0  0  0  0  0  0
  181.8500  178.6440  143.9340 C   0  0  0  0  0  3  0  0  0  0  0  0
  183.2730  177.9650  137.7550 C   0  0  0  0  0  2  0  0  0  0  0  0
  183.9660  176.5990  137.8150 C   0  0  0  0  0  2  0  0  0  0  0  0
  184.7760  178.4160  139.8020 C   0  0  1  0  0  3  0  0  0  0  0  0
  179.5060  177.9180  137.6070 O   0  0  0  0  0  0  0  0  0  0  0  0
  180.4950  179.0740  140.0380 C   0  0  0  0  0  3  0  0  0  0  0  0
  180.1490  177.5870  139.8970 C   0  0  0  0  0  2  0  0  0  0  0  0
  180.3170  177.1360  138.4460 C   0  0  0  0  0  2  0  0  0  0  0  0
  180.1040  179.1880  137.5500 C   0  0  0  0  0  2  0  0  0  0  0  0
  179.9180  179.9140  138.8840 C   0  0  0  0  0  2  0  0  0  0  0  0
  1 12  1  0  0  0  0
  2 16  2  0  0  0  0
  2  6  1  0  0  0  0
  3 16  1  0  0  0  0
  6 18  2  0  0  0  0
  7  9  1  6  0  0  0
  7 13  1  0  0  0  0
  8 17  1  0  0  0  0
 10  8  1  0  0  0  0
 10 20  1  0  0  0  0
 11  7  1  0  0  0  0
 11 14  2  0  0  0  0
 12  2  1  0  0  0  0
 13  4  1  0  0  0  0
 13  5  1  1  0  0  0
 14  4  1  0  0  0  0
 15 19  1  1  0  0  0
 15  1  1  0  0  0  0
 15 21  1  0  0  0  0
 16 11  1  0  0  0  0
 18 14  1  0  0  0  0
 19 20  1  0  0  0  0
 21 17  1  6  0  0  0
 21  3  1  0  0  0  0
 22 25  1  0  0  0  0
 23 12  1  0  0  0  0
 24 23  1  0  0  0  0
 25 24  1  0  0  0  0
 26 22  1  0  0  0  0
 26 27  1  0  0  0  0
 27 23  1  0  0  0  0
M  END
>  <MODEL>
8

>  <REMARK>
 VINA RESULT:      -6.5      4.718      7.483
  Name = 
  1 active torsions:
  status: ('A' for Active; 'I' for Inactive)
    1  A    between atoms: C_9  and  N_15
                            x       y       z     vdW  Elec       q    Type
                         _______ _______ _______ _____ _____    ______ ____

>  <TORSDO>
F 1

$$$$
=
 OpenBabel11052413403D

 27 31  0  0  1  0  0  0  0  0999 V2000
  187.8420  178.9950  140.5740 C   0  0  0  0  0  2  0  0  0  0  0  0
  185.4470  178.2840  140.0880 C   0  0  0  0  0  0  0  0  0  0  0  0
  185.7770  179.2290  142.4710 C   0  0  0  0  0  2  0  0  0  0  0  0
  181.3420  178.4660  140.8300 N   0  0  0  0  0  2  0  0  0  0  0  0
  180.6110  180.3040  142.1530 N   0  0  0  0  0  1  0  0  0  0  0  0
  184.5650  177.8780  139.1190 N   0  0  0  0  0  0  0  0  0  0  0  0
  182.7230  179.1840  142.6730 C   0  0  1  0  0  3  0  0  0  0  0  0
  188.5630  177.8870  144.7100 C   0  0  0  0  0  2  0  0  0  0  0  0
  182.9630  178.2530  143.8500 C   0  0  0  0  0  1  0  0  0  0  0  0
  188.9710  176.4580  144.3390 C   0  0  0  0  0  2  0  0  0  0  0  0
  183.5340  178.7500  141.4970 C   0  0  0  0  0  0  0  0  0  0  0  0
  186.8680  178.2120  139.8040 N   0  0  0  0  0  0  0  0  0  0  0  0
  181.2690  179.0100  142.1850 C   0  0  2  0  0  3  0  0  0  0  0  0
  182.7070  178.3490  140.4950 C   0  0  0  0  0  0  0  0  0  0  0  0
  188.1080  178.4000  141.9580 C   0  0  2  0  0  3  0  0  0  0  0  0
  184.9260  178.7440  141.3370 C   0  0  0  0  0  0  0  0  0  0  0  0
  187.1230  178.2450  144.3210 C   0  0  0  0  0  2  0  0  0  0  0  0
  183.2140  177.9020  139.2850 C   0  0  0  0  0  3  0  0  0  0  0  0
  188.9970  177.1470  141.8650 C   0  0  0  0  0  2  0  0  0  0  0  0
  188.6620  176.0600  142.8920 C   0  0  0  0  0  2  0  0  0  0  0  0
  186.8410  178.2010  142.8120 C   0  0  1  0  0  3  0  0  0  0  0  0
  189.7140  178.2690  137.1950 O   0  0  0  0  0  0  0  0  0  0  0  0
  187.2800  177.5710  138.5420 C   0  0  0  0  0  3  0  0  0  0  0  0
  188.5860  176.7850  138.7100 C   0  0  0  0  0  2  0  0  0  0  0  0
  189.7900  177.6960  138.4750 C   0  0  0  0  0  2  0  0  0  0  0  0
  188.6810  179.2200  137.2480 C   0  0  0  0  0  2  0  0  0  0  0  0
  187.3240  178.5150  137.3270 C   0  0  0  0  0  2  0  0  0  0  0  0
  2 16  1  0  0  0  0
  4 13  1  0  0  0  0
  6 18  1  0  0  0  0
  6  2  2  0  0  0  0
  7  9  1  1  0  0  0
 10  8  1  0  0  0  0
 11  7  1  0  0  0  0
 12  2  1  0  0  0  0
 12  1  1  0  0  0  0
 13  5  1  6  0  0  0
 13  7  1  0  0  0  0
 14  4  1  0  0  0  0
 14 11  1  0  0  0  0
 15  1  1  6  0  0  0
 15 21  1  0  0  0  0
 16 11  2  0  0  0  0
 16  3  1  0  0  0  0
 17  8  1  0  0  0  0
 18 14  2  0  0  0  0
 19 15  1  0  0  0  0
 19 20  1  0  0  0  0
 20 10  1  0  0  0  0
 21  3  1  1  0  0  0
 21 17  1  0  0  0  0
 22 26  1  0  0  0  0
 22 25  1  0  0  0  0
 23 24  1  0  0  0  0
 23 12  1  0  0  0  0
 25 24  1  0  0  0  0
 26 27  1  0  0  0  0
 27 23  1  0  0  0  0
M  END
>  <MODEL>
9

>  <REMARK>
 VINA RESULT:      -6.5      3.234      6.475
  Name = 
  1 active torsions:
  status: ('A' for Active; 'I' for Inactive)
    1  A    between atoms: C_9  and  N_15
                            x       y       z     vdW  Elec       q    Type
                         _______ _______ _______ _____ _____    ______ ____

>  <TORSDO>
F 1

$$$$
