=
 OpenBabel11052416013D

 34 37  0  0  1  0  0  0  0  0999 V2000
  188.9130  176.6300  144.2010 C   0  0  1  0  0  3  0  0  0  0  0  0
  186.6600  176.8770  145.9150 C   0  0  0  0  0  2  0  0  0  0  0  0
  184.2540  179.4440  142.6100 N   0  0  0  0  0  0  0  0  0  0  0  0
  187.6980  177.5020  146.8050 C   0  0  0  0  0  3  0  0  0  0  0  0
  190.7450  176.3090  142.3580 C   0  0  2  0  0  3  0  0  0  0  0  0
  189.6900  175.6820  143.2770 C   0  0  0  0  0  2  0  0  0  0  0  0
  190.3350  178.7130  144.7050 C   0  0  0  0  0  2  0  0  0  0  0  0
  190.9070  178.6410  143.2920 C   0  0  0  0  0  2  0  0  0  0  0  0
  184.2330  178.5060  144.8330 C   0  0  0  0  0  3  0  0  0  0  0  0
  191.6570  177.3430  143.0220 C   0  0  0  0  0  2  0  0  0  0  0  0
  189.0050  177.6990  146.5500 C   0  0  0  0  0  0  0  0  0  0  0  0
  189.7240  177.4100  145.2420 C   0  0  1  0  0  3  0  0  0  0  0  0
  189.7670  178.2410  147.5770 O   0  0  0  0  0  1  0  0  0  0  0  0
  185.4980  178.2150  144.1110 C   0  0  0  0  0  0  0  0  0  0  0  0
  183.4240  179.3300  143.8100 C   0  0  0  0  0  2  0  0  0  0  0  0
  185.4640  178.7640  142.8620 C   0  0  0  0  0  0  0  0  0  0  0  0
  186.5360  178.6490  141.9780 C   0  0  0  0  0  3  0  0  0  0  0  0
  186.6140  177.4980  144.5540 C   0  0  0  0  0  0  0  0  0  0  0  0
  187.6680  177.9350  142.4000 C   0  0  0  0  0  3  0  0  0  0  0  0
  187.7030  177.3420  143.6770 C   0  0  0  0  0  0  0  0  0  0  0  0
  190.1640  176.7810  141.0320 C   0  0  0  0  0  2  0  0  0  0  0  0
  191.2740  177.1720  140.0680 C   0  0  0  0  0  2  0  0  0  0  0  0
  191.1380  176.4100  138.7500 C   0  0  0  0  0  2  0  0  0  0  0  0
  189.7250  176.4540  138.1660 C   0  0  2  0  0  3  0  0  0  0  0  0
  189.5940  175.5200  136.9730 C   0  0  0  0  0  2  0  0  0  0  0  0
  187.5360  175.1310  135.6500 C   0  0  0  0  0  1  0  0  0  0  0  0
  188.2300  174.8580  136.9690 C   0  0  0  0  0  2  0  0  0  0  0  0
  189.2950  177.8710  137.8060 C   0  0  0  0  0  2  0  0  0  0  0  0
  188.0040  178.2220  138.5250 C   0  0  0  0  0  2  0  0  0  0  0  0
  186.9050  178.2760  137.5770 N   0  0  0  0  0  0  0  0  0  0  0  0
  187.2080  178.7030  136.2180 C   0  0  0  0  0  1  0  0  0  0  0  0
  185.6330  177.7350  137.9750 C   0  0  0  0  0  3  0  0  0  0  0  0
  184.6700  178.4010  138.6220 C   0  0  0  0  0  3  0  0  0  0  0  0
  184.7960  179.7610  139.0220 N   0  0  0  0  0  1  0  0  0  0  0  0
  1  6  1  6  0  0  0
  1 12  1  0  0  0  0
  2  4  1  0  0  0  0
  3 16  2  0  0  0  0
  3 15  1  0  0  0  0
  5 21  1  6  0  0  0
  5 10  1  0  0  0  0
  5  6  1  0  0  0  0
  8  7  1  0  0  0  0
 10  8  1  0  0  0  0
 11  4  2  0  0  0  0
 11 13  1  0  0  0  0
 12  7  1  6  0  0  0
 12 11  1  0  0  0  0
 14 18  1  0  0  0  0
 14  9  2  0  0  0  0
 15  9  1  0  0  0  0
 16 14  1  0  0  0  0
 17 19  2  0  0  0  0
 17 16  1  0  0  0  0
 18  2  1  0  0  0  0
 19 20  1  0  0  0  0
 20  1  1  0  0  0  0
 20 18  2  0  0  0  0
 22 21  1  0  0  0  0
 23 22  1  0  0  0  0
 24 25  1  6  0  0  0
 24 23  1  0  0  0  0
 26 27  1  0  0  0  0
 27 25  1  0  0  0  0
 28 24  1  0  0  0  0
 28 29  1  0  0  0  0
 30 32  1  0  0  0  0
 30 29  1  0  0  0  0
 31 30  1  0  0  0  0
 32 33  2  0  0  0  0
 33 34  1  0  0  0  0
M  END
>  <MODEL>
1

>  <REMARK>
 VINA RESULT:      -8.3      0.000      0.000
  Name = 
  10 active torsions:
  status: ('A' for Active; 'I' for Inactive)
    1  A    between atoms: C_6  and  C_28
    2  A    between atoms: C_6  and  C_30
    3  A    between atoms: N_7  and  C_11
    4  A    between atoms: N_7  and  C_29
    5  A    between atoms: C_8  and  C_18
    6  A    between atoms: C_16  and  C_28
    7  A    between atoms: C_16  and  C_31
    8  A    between atoms: C_18  and  C_30
    9  A    between atoms: C_26  and  C_28
   10  A    between atoms: C_26  and  C_29
                            x       y       z     vdW  Elec       q    Type
                         _______ _______ _______ _____ _____    ______ ____

>  <TORSDO>
F 10

$$$$
=
 OpenBabel11052416013D

 34 37  0  0  1  0  0  0  0  0999 V2000
  188.8030  176.6640  144.1050 C   0  0  1  0  0  3  0  0  0  0  0  0
  186.5540  176.8990  145.8260 C   0  0  0  0  0  2  0  0  0  0  0  0
  184.1550  179.5220  142.5620 N   0  0  0  0  0  0  0  0  0  0  0  0
  187.5980  177.5060  146.7230 C   0  0  0  0  0  3  0  0  0  0  0  0
  190.6300  176.3600  142.2540 C   0  0  2  0  0  3  0  0  0  0  0  0
  189.5730  175.7260  143.1660 C   0  0  0  0  0  2  0  0  0  0  0  0
  190.2360  178.7330  144.6350 C   0  0  0  0  0  2  0  0  0  0  0  0
  190.8050  178.6780  143.2200 C   0  0  0  0  0  2  0  0  0  0  0  0
  184.1340  178.5540  144.7720 C   0  0  0  0  0  3  0  0  0  0  0  0
  191.5480  177.3800  142.9300 C   0  0  0  0  0  2  0  0  0  0  0  0
  188.9050  177.7000  146.4680 C   0  0  0  0  0  0  0  0  0  0  0  0
  189.6200  177.4260  145.1550 C   0  0  1  0  0  3  0  0  0  0  0  0
  189.6710  178.2240  147.5010 O   0  0  0  0  0  1  0  0  0  0  0  0
  185.3950  178.2660  144.0430 C   0  0  0  0  0  0  0  0  0  0  0  0
  183.3270  179.3960  143.7610 C   0  0  0  0  0  2  0  0  0  0  0  0
  185.3620  178.8330  142.8020 C   0  0  0  0  0  0  0  0  0  0  0  0
  186.4320  178.7260  141.9140 C   0  0  0  0  0  3  0  0  0  0  0  0
  186.5090  177.5380  144.4740 C   0  0  0  0  0  0  0  0  0  0  0  0
  187.5620  178.0000  142.3240 C   0  0  0  0  0  3  0  0  0  0  0  0
  187.5950  177.3900  143.5930 C   0  0  0  0  0  0  0  0  0  0  0  0
  190.0490  176.8530  140.9350 C   0  0  0  0  0  2  0  0  0  0  0  0
  191.1420  176.9970  139.8870 C   0  0  0  0  0  2  0  0  0  0  0  0
  190.8680  176.0840  138.6930 C   0  0  0  0  0  2  0  0  0  0  0  0
  191.0620  176.7760  137.3420 C   0  0  2  0  0  3  0  0  0  0  0  0
  189.7240  177.0710  136.6800 C   0  0  0  0  0  2  0  0  0  0  0  0
  187.9200  178.2190  137.9320 C   0  0  0  0  0  1  0  0  0  0  0  0
  189.1950  178.4170  137.1380 C   0  0  0  0  0  2  0  0  0  0  0  0
  191.9740  175.9830  136.4140 C   0  0  0  0  0  2  0  0  0  0  0  0
  193.4140  176.0970  136.8780 C   0  0  0  0  0  2  0  0  0  0  0  0
  194.0310  174.7830  136.9140 N   0  0  0  0  0  0  0  0  0  0  0  0
  193.1650  173.6270  136.7270 C   0  0  0  0  0  1  0  0  0  0  0  0
  195.4680  174.7030  136.9450 C   0  0  0  0  0  3  0  0  0  0  0  0
  196.1970  174.1520  137.9210 C   0  0  0  0  0  3  0  0  0  0  0  0
  195.6260  173.5730  139.0900 N   0  0  0  0  0  1  0  0  0  0  0  0
  1  6  1  6  0  0  0
  1 12  1  0  0  0  0
  2  4  1  0  0  0  0
  3 16  2  0  0  0  0
  3 15  1  0  0  0  0
  5 21  1  6  0  0  0
  5 10  1  0  0  0  0
  5  6  1  0  0  0  0
  8  7  1  0  0  0  0
 10  8  1  0  0  0  0
 11  4  2  0  0  0  0
 11 13  1  0  0  0  0
 12  7  1  6  0  0  0
 12 11  1  0  0  0  0
 14 18  1  0  0  0  0
 14  9  2  0  0  0  0
 15  9  1  0  0  0  0
 16 14  1  0  0  0  0
 17 19  2  0  0  0  0
 17 16  1  0  0  0  0
 18  2  1  0  0  0  0
 19 20  1  0  0  0  0
 20  1  1  0  0  0  0
 20 18  2  0  0  0  0
 22 21  1  0  0  0  0
 23 22  1  0  0  0  0
 24 28  1  6  0  0  0
 24 23  1  0  0  0  0
 25 27  1  0  0  0  0
 25 24  1  0  0  0  0
 27 26  1  0  0  0  0
 28 29  1  0  0  0  0
 29 30  1  0  0  0  0
 30 32  1  0  0  0  0
 31 30  1  0  0  0  0
 32 33  2  0  0  0  0
 33 34  1  0  0  0  0
M  END
>  <MODEL>
2

>  <REMARK>
 VINA RESULT:      -8.0      2.750      4.278
  Name = 
  10 active torsions:
  status: ('A' for Active; 'I' for Inactive)
    1  A    between atoms: C_6  and  C_28
    2  A    between atoms: C_6  and  C_30
    3  A    between atoms: N_7  and  C_11
    4  A    between atoms: N_7  and  C_29
    5  A    between atoms: C_8  and  C_18
    6  A    between atoms: C_16  and  C_28
    7  A    between atoms: C_16  and  C_31
    8  A    between atoms: C_18  and  C_30
    9  A    between atoms: C_26  and  C_28
   10  A    between atoms: C_26  and  C_29
                            x       y       z     vdW  Elec       q    Type
                         _______ _______ _______ _____ _____    ______ ____

>  <TORSDO>
F 10

$$$$
=
 OpenBabel11052416013D

 34 37  0  0  1  0  0  0  0  0999 V2000
  188.8780  176.6390  144.0920 C   0  0  1  0  0  3  0  0  0  0  0  0
  186.5600  176.8800  145.7170 C   0  0  0  0  0  2  0  0  0  0  0  0
  184.2920  179.4760  142.3380 N   0  0  0  0  0  0  0  0  0  0  0  0
  187.5640  177.4960  146.6520 C   0  0  0  0  0  3  0  0  0  0  0  0
  190.7800  176.3260  142.3200 C   0  0  2  0  0  3  0  0  0  0  0  0
  189.6880  175.6950  143.1920 C   0  0  0  0  0  2  0  0  0  0  0  0
  190.2840  178.7150  144.6660 C   0  0  0  0  0  2  0  0  0  0  0  0
  190.9110  178.6510  143.2760 C   0  0  0  0  0  2  0  0  0  0  0  0
  184.1810  178.5230  144.5520 C   0  0  0  0  0  3  0  0  0  0  0  0
  191.6680  177.3530  143.0270 C   0  0  0  0  0  2  0  0  0  0  0  0
  188.8800  177.6910  146.4500 C   0  0  0  0  0  0  0  0  0  0  0  0
  189.6490  177.4090  145.1700 C   0  0  1  0  0  3  0  0  0  0  0  0
  189.6020  178.2240  147.5100 O   0  0  0  0  0  1  0  0  0  0  0  0
  185.4730  178.2330  143.8780 C   0  0  0  0  0  0  0  0  0  0  0  0
  183.4150  179.3560  143.5030 C   0  0  0  0  0  2  0  0  0  0  0  0
  185.4900  178.7910  142.6330 C   0  0  0  0  0  0  0  0  0  0  0  0
  186.5950  178.6800  141.7910 C   0  0  0  0  0  3  0  0  0  0  0  0
  186.5690  177.5100  144.3590 C   0  0  0  0  0  0  0  0  0  0  0  0
  187.7090  177.9600  142.2520 C   0  0  0  0  0  3  0  0  0  0  0  0
  187.6910  177.3580  143.5260 C   0  0  0  0  0  0  0  0  0  0  0  0
  190.2540  176.8090  140.9750 C   0  0  0  0  0  2  0  0  0  0  0  0
  191.3980  177.2570  140.0800 C   0  0  0  0  0  2  0  0  0  0  0  0
  191.0490  177.0400  138.6080 C   0  0  0  0  0  2  0  0  0  0  0  0
  190.9790  175.5640  138.2110 C   0  0  2  0  0  3  0  0  0  0  0  0
  192.3430  175.0470  137.7780 C   0  0  0  0  0  2  0  0  0  0  0  0
  193.4750  176.0240  135.8030 C   0  0  0  0  0  1  0  0  0  0  0  0
  193.2070  176.1920  137.2840 C   0  0  0  0  0  2  0  0  0  0  0  0
  189.9250  175.3040  137.1410 C   0  0  0  0  0  2  0  0  0  0  0  0
  189.7560  176.5350  136.2680 C   0  0  0  0  0  2  0  0  0  0  0  0
  188.3470  176.8600  136.1340 N   0  0  0  0  0  0  0  0  0  0  0  0
  187.8440  177.1380  134.7950 C   0  0  0  0  0  1  0  0  0  0  0  0
  187.4990  176.7110  137.2860 C   0  0  0  0  0  3  0  0  0  0  0  0
  187.3470  177.6090  138.2650 C   0  0  0  0  0  3  0  0  0  0  0  0
  188.0380  178.8530  138.2970 N   0  0  0  0  0  1  0  0  0  0  0  0
  1  6  1  6  0  0  0
  1 12  1  0  0  0  0
  2  4  1  0  0  0  0
  3 16  2  0  0  0  0
  3 15  1  0  0  0  0
  5 21  1  6  0  0  0
  5 10  1  0  0  0  0
  5  6  1  0  0  0  0
  8  7  1  0  0  0  0
 10  8  1  0  0  0  0
 11  4  2  0  0  0  0
 11 13  1  0  0  0  0
 12  7  1  6  0  0  0
 12 11  1  0  0  0  0
 14 18  1  0  0  0  0
 14  9  2  0  0  0  0
 15  9  1  0  0  0  0
 16 14  1  0  0  0  0
 17 19  2  0  0  0  0
 17 16  1  0  0  0  0
 18  2  1  0  0  0  0
 19 20  1  0  0  0  0
 20  1  1  0  0  0  0
 20 18  2  0  0  0  0
 22 21  1  0  0  0  0
 23 22  1  0  0  0  0
 24 28  1  6  0  0  0
 24 23  1  0  0  0  0
 25 24  1  0  0  0  0
 26 27  1  0  0  0  0
 27 25  1  0  0  0  0
 29 28  1  0  0  0  0
 30 29  1  0  0  0  0
 30 32  1  0  0  0  0
 31 30  1  0  0  0  0
 32 33  2  0  0  0  0
 33 34  1  0  0  0  0
M  END
>  <MODEL>
3

>  <REMARK>
 VINA RESULT:      -8.0      1.176      1.947
  Name = 
  10 active torsions:
  status: ('A' for Active; 'I' for Inactive)
    1  A    between atoms: C_6  and  C_28
    2  A    between atoms: C_6  and  C_30
    3  A    between atoms: N_7  and  C_11
    4  A    between atoms: N_7  and  C_29
    5  A    between atoms: C_8  and  C_18
    6  A    between atoms: C_16  and  C_28
    7  A    between atoms: C_16  and  C_31
    8  A    between atoms: C_18  and  C_30
    9  A    between atoms: C_26  and  C_28
   10  A    between atoms: C_26  and  C_29
                            x       y       z     vdW  Elec       q    Type
                         _______ _______ _______ _____ _____    ______ ____

>  <TORSDO>
F 10

$$$$
=
 OpenBabel11052416013D

 34 37  0  0  1  0  0  0  0  0999 V2000
  188.7790  176.6590  144.1520 C   0  0  1  0  0  3  0  0  0  0  0  0
  186.5800  176.8940  145.9370 C   0  0  0  0  0  2  0  0  0  0  0  0
  184.1040  179.5500  142.7570 N   0  0  0  0  0  0  0  0  0  0  0  0
  187.6510  177.4910  146.8080 C   0  0  0  0  0  3  0  0  0  0  0  0
  190.5510  176.3570  142.2490 C   0  0  2  0  0  3  0  0  0  0  0  0
  189.5180  175.7220  143.1870 C   0  0  0  0  0  2  0  0  0  0  0  0
  190.2360  178.7180  144.6540 C   0  0  0  0  0  2  0  0  0  0  0  0
  190.7650  178.6680  143.2230 C   0  0  0  0  0  2  0  0  0  0  0  0
  184.1390  178.5680  144.9600 C   0  0  0  0  0  3  0  0  0  0  0  0
  191.4930  177.3680  142.9060 C   0  0  0  0  0  2  0  0  0  0  0  0
  188.9510  177.6800  146.5180 C   0  0  0  0  0  0  0  0  0  0  0  0
  189.6280  177.4100  145.1840 C   0  0  1  0  0  3  0  0  0  0  0  0
  189.7490  178.1940  147.5320 O   0  0  0  0  0  1  0  0  0  0  0  0
  185.3790  178.2790  144.1950 C   0  0  0  0  0  0  0  0  0  0  0  0
  183.3090  179.4210  143.9780 C   0  0  0  0  0  2  0  0  0  0  0  0
  185.3140  178.8530  142.9590 C   0  0  0  0  0  0  0  0  0  0  0  0
  186.3580  178.7460  142.0410 C   0  0  0  0  0  3  0  0  0  0  0  0
  186.5000  177.5420  144.5900 C   0  0  0  0  0  0  0  0  0  0  0  0
  187.4950  178.0120  142.4150 C   0  0  0  0  0  3  0  0  0  0  0  0
  187.5610  177.3940  143.6790 C   0  0  0  0  0  0  0  0  0  0  0  0
  189.9370  176.8610  140.9500 C   0  0  0  0  0  2  0  0  0  0  0  0
  191.0120  177.0860  139.8990 C   0  0  0  0  0  2  0  0  0  0  0  0
  190.6960  176.3030  138.6260 C   0  0  0  0  0  2  0  0  0  0  0  0
  190.2340  177.1890  137.4670 C   0  0  2  0  0  3  0  0  0  0  0  0
  189.2780  178.2700  137.9500 C   0  0  0  0  0  2  0  0  0  0  0  0
  186.8160  178.1670  137.6970 C   0  0  0  0  0  1  0  0  0  0  0  0
  188.1230  178.4240  136.9780 C   0  0  0  0  0  2  0  0  0  0  0  0
  189.6210  176.3780  136.3310 C   0  0  0  0  0  2  0  0  0  0  0  0
  189.3360  174.9620  136.7970 C   0  0  0  0  0  2  0  0  0  0  0  0
  188.2310  174.4020  136.0410 N   0  0  0  0  0  0  0  0  0  0  0  0
  187.5510  175.2750  135.0930 C   0  0  0  0  0  1  0  0  0  0  0  0
  187.9890  172.9860  136.1310 C   0  0  0  0  0  3  0  0  0  0  0  0
  187.0560  172.4000  136.8870 C   0  0  0  0  0  3  0  0  0  0  0  0
  186.1700  173.1250  137.7350 N   0  0  0  0  0  1  0  0  0  0  0  0
  1  6  1  6  0  0  0
  1 12  1  0  0  0  0
  2  4  1  0  0  0  0
  3 16  2  0  0  0  0
  3 15  1  0  0  0  0
  5 21  1  6  0  0  0
  5 10  1  0  0  0  0
  5  6  1  0  0  0  0
  8  7  1  0  0  0  0
 10  8  1  0  0  0  0
 11  4  2  0  0  0  0
 11 13  1  0  0  0  0
 12  7  1  6  0  0  0
 12 11  1  0  0  0  0
 14 18  1  0  0  0  0
 14  9  2  0  0  0  0
 15  9  1  0  0  0  0
 16 14  1  0  0  0  0
 17 19  2  0  0  0  0
 17 16  1  0  0  0  0
 18  2  1  0  0  0  0
 19 20  1  0  0  0  0
 20  1  1  0  0  0  0
 20 18  2  0  0  0  0
 22 21  1  0  0  0  0
 23 22  1  0  0  0  0
 24 28  1  6  0  0  0
 24 25  1  0  0  0  0
 24 23  1  0  0  0  0
 27 26  1  0  0  0  0
 27 25  1  0  0  0  0
 28 29  1  0  0  0  0
 30 32  1  0  0  0  0
 30 29  1  0  0  0  0
 31 30  1  0  0  0  0
 32 33  2  0  0  0  0
 33 34  1  0  0  0  0
M  END
>  <MODEL>
4

>  <REMARK>
 VINA RESULT:      -7.7      1.387      2.506
  Name = 
  10 active torsions:
  status: ('A' for Active; 'I' for Inactive)
    1  A    between atoms: C_6  and  C_28
    2  A    between atoms: C_6  and  C_30
    3  A    between atoms: N_7  and  C_11
    4  A    between atoms: N_7  and  C_29
    5  A    between atoms: C_8  and  C_18
    6  A    between atoms: C_16  and  C_28
    7  A    between atoms: C_16  and  C_31
    8  A    between atoms: C_18  and  C_30
    9  A    between atoms: C_26  and  C_28
   10  A    between atoms: C_26  and  C_29
                            x       y       z     vdW  Elec       q    Type
                         _______ _______ _______ _____ _____    ______ ____

>  <TORSDO>
F 10

$$$$
=
 OpenBabel11052416013D

 34 37  0  0  1  0  0  0  0  0999 V2000
  182.3600  178.8790  140.5060 C   0  0  1  0  0  3  0  0  0  0  0  0
  181.4260  179.3970  143.1390 C   0  0  0  0  0  2  0  0  0  0  0  0
  185.6990  178.2050  145.0390 N   0  0  0  0  0  0  0  0  0  0  0  0
  180.4170  178.3580  142.7350 C   0  0  0  0  0  3  0  0  0  0  0  0
  183.5200  178.6020  138.1750 C   0  0  2  0  0  3  0  0  0  0  0  0
  182.8310  179.5180  139.1920 C   0  0  0  0  0  2  0  0  0  0  0  0
  181.8870  176.3780  140.1370 C   0  0  0  0  0  2  0  0  0  0  0  0
  183.0430  176.3260  139.1420 C   0  0  0  0  0  2  0  0  0  0  0  0
  183.4340  178.9140  145.4720 C   0  0  0  0  0  3  0  0  0  0  0  0
  182.8390  177.2500  137.9480 C   0  0  0  0  0  2  0  0  0  0  0  0
  180.3290  177.6910  141.5690 C   0  0  0  0  0  0  0  0  0  0  0  0
  181.3030  177.7740  140.4050 C   0  0  1  0  0  3  0  0  0  0  0  0
  179.2540  176.8240  141.4250 O   0  0  0  0  0  1  0  0  0  0  0  0
  183.7050  178.7470  144.0210 C   0  0  0  0  0  0  0  0  0  0  0  0
  184.7810  178.5420  146.1270 C   0  0  0  0  0  2  0  0  0  0  0  0
  184.9930  178.3450  143.8260 C   0  0  0  0  0  0  0  0  0  0  0  0
  185.5040  178.1010  142.5510 C   0  0  0  0  0  3  0  0  0  0  0  0
  182.8380  178.9430  142.9410 C   0  0  0  0  0  0  0  0  0  0  0  0
  184.6530  178.2900  141.4510 C   0  0  0  0  0  3  0  0  0  0  0  0
  183.3280  178.7290  141.6400 C   0  0  0  0  0  0  0  0  0  0  0  0
  185.0210  178.4870  138.4080 C   0  0  0  0  0  2  0  0  0  0  0  0
  185.6840  177.7200  137.2740 C   0  0  0  0  0  2  0  0  0  0  0  0
  187.0990  177.2960  137.6640 C   0  0  0  0  0  2  0  0  0  0  0  0
  188.1430  178.3950  137.4510 C   0  0  2  0  0  3  0  0  0  0  0  0
  189.0660  178.0580  136.2900 C   0  0  0  0  0  2  0  0  0  0  0  0
  190.7510  176.2490  136.4570 C   0  0  0  0  0  1  0  0  0  0  0  0
  189.2890  176.5590  136.2130 C   0  0  0  0  0  2  0  0  0  0  0  0
  188.9350  178.6900  138.7190 C   0  0  0  0  0  2  0  0  0  0  0  0
  188.3390  177.9340  139.8930 C   0  0  0  0  0  2  0  0  0  0  0  0
  189.3950  177.4660  140.7730 N   0  0  0  0  0  0  0  0  0  0  0  0
  190.4870  176.7110  140.1720 C   0  0  0  0  0  1  0  0  0  0  0  0
  189.4030  177.9260  142.1360 C   0  0  0  0  0  3  0  0  0  0  0  0
  188.9380  177.2480  143.1900 C   0  0  0  0  0  3  0  0  0  0  0  0
  188.3450  175.9580  143.0890 N   0  0  0  0  0  1  0  0  0  0  0  0
  1  6  1  6  0  0  0
  1 20  1  0  0  0  0
  3 15  1  0  0  0  0
  4  2  1  0  0  0  0
  5 21  1  1  0  0  0
  5  6  1  0  0  0  0
  8  7  1  0  0  0  0
  9 15  1  0  0  0  0
 10  5  1  0  0  0  0
 10  8  1  0  0  0  0
 11  4  2  0  0  0  0
 12  7  1  1  0  0  0
 12  1  1  0  0  0  0
 12 11  1  0  0  0  0
 13 11  1  0  0  0  0
 14  9  2  0  0  0  0
 16 14  1  0  0  0  0
 16  3  2  0  0  0  0
 17 16  1  0  0  0  0
 18  2  1  0  0  0  0
 18 14  1  0  0  0  0
 19 20  1  0  0  0  0
 19 17  2  0  0  0  0
 20 18  2  0  0  0  0
 22 23  1  0  0  0  0
 22 21  1  0  0  0  0
 24 25  1  6  0  0  0
 24 23  1  0  0  0  0
 24 28  1  0  0  0  0
 27 25  1  0  0  0  0
 27 26  1  0  0  0  0
 28 29  1  0  0  0  0
 29 30  1  0  0  0  0
 30 32  1  0  0  0  0
 31 30  1  0  0  0  0
 32 33  2  0  0  0  0
 34 33  1  0  0  0  0
M  END
>  <MODEL>
5

>  <REMARK>
 VINA RESULT:      -7.3      3.110      6.250
  Name = 
  10 active torsions:
  status: ('A' for Active; 'I' for Inactive)
    1  A    between atoms: C_6  and  C_28
    2  A    between atoms: C_6  and  C_30
    3  A    between atoms: N_7  and  C_11
    4  A    between atoms: N_7  and  C_29
    5  A    between atoms: C_8  and  C_18
    6  A    between atoms: C_16  and  C_28
    7  A    between atoms: C_16  and  C_31
    8  A    between atoms: C_18  and  C_30
    9  A    between atoms: C_26  and  C_28
   10  A    between atoms: C_26  and  C_29
                            x       y       z     vdW  Elec       q    Type
                         _______ _______ _______ _____ _____    ______ ____

>  <TORSDO>
F 10

$$$$
=
 OpenBabel11052416013D

 34 37  0  0  1  0  0  0  0  0999 V2000
  183.0840  177.0770  138.5020 C   0  0  1  0  0  3  0  0  0  0  0  0
  183.7100  175.7930  136.0460 C   0  0  0  0  0  2  0  0  0  0  0  0
  188.0190  177.9580  135.8530 N   0  0  0  0  0  0  0  0  0  0  0  0
  182.4480  176.4940  135.6260 C   0  0  0  0  0  3  0  0  0  0  0  0
  182.8470  178.1570  140.8750 C   0  0  2  0  0  3  0  0  0  0  0  0
  182.9570  176.8900  140.0200 C   0  0  0  0  0  2  0  0  0  0  0  0
  181.9960  179.3010  137.8050 C   0  0  0  0  0  2  0  0  0  0  0  0
  182.4650  179.9200  139.1190 C   0  0  0  0  0  2  0  0  0  0  0  0
  186.4670  176.4680  134.7600 C   0  0  0  0  0  3  0  0  0  0  0  0
  181.8850  179.2230  140.3430 C   0  0  0  0  0  2  0  0  0  0  0  0
  181.6590  177.3010  136.3600 C   0  0  0  0  0  0  0  0  0  0  0  0
  181.9180  177.7660  137.7830 C   0  0  1  0  0  3  0  0  0  0  0  0
  180.5050  177.7710  135.7480 O   0  0  0  0  0  1  0  0  0  0  0  0
  185.9390  176.9850  136.0490 C   0  0  0  0  0  0  0  0  0  0  0  0
  187.8540  177.1360  134.6540 C   0  0  0  0  0  3  0  0  0  0  0  0
  186.8480  177.8220  136.6280 C   0  0  2  0  0  3  0  0  0  0  0  0
  186.5950  178.4570  137.8440 C   0  0  0  0  0  3  0  0  0  0  0  0
  184.7110  176.7190  136.6620 C   0  0  0  0  0  0  0  0  0  0  0  0
  185.3690  178.2060  138.4780 C   0  0  0  0  0  3  0  0  0  0  0  0
  184.4340  177.3240  137.9010 C   0  0  0  0  0  0  0  0  0  0  0  0
  184.2050  178.7180  141.2740 C   0  0  0  0  0  2  0  0  0  0  0  0
  184.6430  178.1610  142.6200 C   0  0  0  0  0  2  0  0  0  0  0  0
  186.1670  178.1490  142.7300 C   0  0  0  0  0  2  0  0  0  0  0  0
  186.6860  177.2860  143.8820 C   0  0  2  0  0  3  0  0  0  0  0  0
  187.0630  178.1410  145.0820 C   0  0  0  0  0  2  0  0  0  0  0  0
  184.9270  178.5530  146.2660 C   0  0  0  0  0  1  0  0  0  0  0  0
  186.2190  177.7630  146.2840 C   0  0  0  0  0  2  0  0  0  0  0  0
  187.8450  176.3920  143.4550 C   0  0  0  0  0  2  0  0  0  0  0  0
  189.1130  176.8030  144.1800 C   0  0  0  0  0  2  0  0  0  0  0  0
  190.0290  177.4490  143.2570 N   0  0  0  0  0  0  0  0  0  0  0  0
  190.5280  178.7700  143.6150 C   0  0  0  0  0  1  0  0  0  0  0  0
  190.5320  176.6840  142.1470 C   0  0  0  0  0  3  0  0  0  0  0  0
  190.1800  176.8430  140.8670 C   0  0  0  0  0  3  0  0  0  0  0  0
  189.2250  177.8060  140.4340 N   0  0  0  0  0  1  0  0  0  0  0  0
  1  6  1  1  0  0  0
  2 18  1  0  0  0  0
  3 16  1  0  0  0  0
  4  2  1  0  0  0  0
  4 11  2  0  0  0  0
  5 21  1  6  0  0  0
  6  5  1  0  0  0  0
  7  8  1  0  0  0  0
  8 10  1  0  0  0  0
  9 14  2  0  0  0  0
 10  5  1  0  0  0  0
 11 12  1  0  0  0  0
 12  7  1  6  0  0  0
 12  1  1  0  0  0  0
 13 11  1  0  0  0  0
 14 16  1  0  0  0  0
 14 18  1  0  0  0  0
 15  9  1  0  0  0  0
 15  3  2  0  0  0  0
 16 17  1  6  0  0  0
 17 19  2  0  0  0  0
 18 20  2  0  0  0  0
 20 19  1  0  0  0  0
 20  1  1  0  0  0  0
 21 22  1  0  0  0  0
 22 23  1  0  0  0  0
 24 23  1  6  0  0  0
 24 25  1  0  0  0  0
 25 27  1  0  0  0  0
 26 27  1  0  0  0  0
 28 24  1  0  0  0  0
 28 29  1  0  0  0  0
 30 31  1  0  0  0  0
 30 29  1  0  0  0  0
 32 30  1  0  0  0  0
 33 32  2  0  0  0  0
 34 33  1  0  0  0  0
M  END
>  <MODEL>
6

>  <REMARK>
 VINA RESULT:      -6.7      3.497      8.706
  Name = 
  10 active torsions:
  status: ('A' for Active; 'I' for Inactive)
    1  A    between atoms: C_6  and  C_28
    2  A    between atoms: C_6  and  C_30
    3  A    between atoms: N_7  and  C_11
    4  A    between atoms: N_7  and  C_29
    5  A    between atoms: C_8  and  C_18
    6  A    between atoms: C_16  and  C_28
    7  A    between atoms: C_16  and  C_31
    8  A    between atoms: C_18  and  C_30
    9  A    between atoms: C_26  and  C_28
   10  A    between atoms: C_26  and  C_29
                            x       y       z     vdW  Elec       q    Type
                         _______ _______ _______ _____ _____    ______ ____

>  <TORSDO>
F 10

$$$$
=
 OpenBabel11052416013D

 34 37  0  0  1  0  0  0  0  0999 V2000
  182.9220  177.0150  138.3950 C   0  0  1  0  0  3  0  0  0  0  0  0
  183.5910  175.6980  135.9670 C   0  0  0  0  0  2  0  0  0  0  0  0
  187.8720  177.9200  135.7800 N   0  0  0  0  0  0  0  0  0  0  0  0
  182.3240  176.3750  135.5230 C   0  0  0  0  0  3  0  0  0  0  0  0
  182.6460  178.1320  140.7470 C   0  0  2  0  0  3  0  0  0  0  0  0
  182.7820  176.8520  139.9150 C   0  0  0  0  0  2  0  0  0  0  0  0
  181.8100  179.2110  137.6490 C   0  0  0  0  0  2  0  0  0  0  0  0
  182.2580  179.8590  138.9570 C   0  0  0  0  0  2  0  0  0  0  0  0
  186.3520  176.3910  134.6980 C   0  0  0  0  0  3  0  0  0  0  0  0
  181.6760  179.1740  140.1860 C   0  0  0  0  0  2  0  0  0  0  0  0
  181.5170  177.1820  136.2350 C   0  0  0  0  0  0  0  0  0  0  0  0
  181.7550  177.6760  137.6530 C   0  0  1  0  0  3  0  0  0  0  0  0
  180.3620  177.6260  135.6040 O   0  0  0  0  0  1  0  0  0  0  0  0
  185.8040  176.9220  135.9720 C   0  0  0  0  0  0  0  0  0  0  0  0
  187.7300  177.0770  134.5940 C   0  0  0  0  0  3  0  0  0  0  0  0
  186.6950  177.7810  136.5460 C   0  0  2  0  0  3  0  0  0  0  0  0
  186.4210  178.4330  137.7480 C   0  0  0  0  0  3  0  0  0  0  0  0
  184.5730  176.6490  136.5770 C   0  0  0  0  0  0  0  0  0  0  0  0
  185.1920  178.1760  138.3740 C   0  0  0  0  0  3  0  0  0  0  0  0
  184.2750  177.2710  137.8030 C   0  0  0  0  0  0  0  0  0  0  0  0
  183.9930  178.7190  141.1490 C   0  0  0  0  0  2  0  0  0  0  0  0
  184.2840  178.4390  142.6150 C   0  0  0  0  0  2  0  0  0  0  0  0
  185.7430  178.0270  142.8070 C   0  0  0  0  0  2  0  0  0  0  0  0
  186.1190  177.7870  144.2710 C   0  0  2  0  0  3  0  0  0  0  0  0
  185.6700  178.9450  145.1500 C   0  0  0  0  0  2  0  0  0  0  0  0
  186.2740  178.6820  147.5380 C   0  0  0  0  0  1  0  0  0  0  0  0
  185.2010  178.4320  146.4980 C   0  0  0  0  0  2  0  0  0  0  0  0
  187.6060  177.5060  144.4450 C   0  0  0  0  0  2  0  0  0  0  0  0
  188.0980  176.5970  143.3330 C   0  0  0  0  0  2  0  0  0  0  0  0
  189.2870  177.1600  142.7190 N   0  0  0  0  0  0  0  0  0  0  0  0
  189.3290  177.2220  141.2640 C   0  0  0  0  0  1  0  0  0  0  0  0
  190.2640  177.7870  143.5690 C   0  0  0  0  0  3  0  0  0  0  0  0
  191.3460  177.1940  144.0840 C   0  0  0  0  0  3  0  0  0  0  0  0
  191.6650  175.8250  143.8610 N   0  0  0  0  0  1  0  0  0  0  0  0
  1  6  1  1  0  0  0
  2 18  1  0  0  0  0
  3 16  1  0  0  0  0
  4  2  1  0  0  0  0
  4 11  2  0  0  0  0
  5 21  1  6  0  0  0
  6  5  1  0  0  0  0
  7  8  1  0  0  0  0
  8 10  1  0  0  0  0
  9 14  2  0  0  0  0
 10  5  1  0  0  0  0
 11 12  1  0  0  0  0
 12  7  1  6  0  0  0
 12  1  1  0  0  0  0
 13 11  1  0  0  0  0
 14 16  1  0  0  0  0
 14 18  1  0  0  0  0
 15  9  1  0  0  0  0
 15  3  2  0  0  0  0
 16 17  1  6  0  0  0
 17 19  2  0  0  0  0
 18 20  2  0  0  0  0
 20 19  1  0  0  0  0
 20  1  1  0  0  0  0
 21 22  1  0  0  0  0
 22 23  1  0  0  0  0
 24 23  1  6  0  0  0
 24 28  1  0  0  0  0
 24 25  1  0  0  0  0
 25 27  1  0  0  0  0
 27 26  1  0  0  0  0
 29 28  1  0  0  0  0
 30 29  1  0  0  0  0
 30 32  1  0  0  0  0
 31 30  1  0  0  0  0
 32 33  2  0  0  0  0
 34 33  1  0  0  0  0
M  END
>  <MODEL>
7

>  <REMARK>
 VINA RESULT:      -6.5      3.793      9.036
  Name = 
  10 active torsions:
  status: ('A' for Active; 'I' for Inactive)
    1  A    between atoms: C_6  and  C_28
    2  A    between atoms: C_6  and  C_30
    3  A    between atoms: N_7  and  C_11
    4  A    between atoms: N_7  and  C_29
    5  A    between atoms: C_8  and  C_18
    6  A    between atoms: C_16  and  C_28
    7  A    between atoms: C_16  and  C_31
    8  A    between atoms: C_18  and  C_30
    9  A    between atoms: C_26  and  C_28
   10  A    between atoms: C_26  and  C_29
                            x       y       z     vdW  Elec       q    Type
                         _______ _______ _______ _____ _____    ______ ____

>  <TORSDO>
F 10

$$$$
=
 OpenBabel11052416013D

 34 37  0  0  1  0  0  0  0  0999 V2000
  182.5080  178.9320  140.5620 C   0  0  1  0  0  3  0  0  0  0  0  0
  181.6770  179.5310  143.2130 C   0  0  0  0  0  2  0  0  0  0  0  0
  185.9380  178.1450  145.0080 N   0  0  0  0  0  0  0  0  0  0  0  0
  180.6060  178.5390  142.8520 C   0  0  0  0  0  3  0  0  0  0  0  0
  183.5840  178.5670  138.2030 C   0  0  2  0  0  3  0  0  0  0  0  0
  182.9720  179.5300  139.2270 C   0  0  0  0  0  2  0  0  0  0  0  0
  181.8980  176.4550  140.2420 C   0  0  0  0  0  2  0  0  0  0  0  0
  183.0200  176.3310  139.2150 C   0  0  0  0  0  2  0  0  0  0  0  0
  183.7250  178.9750  145.4950 C   0  0  0  0  0  3  0  0  0  0  0  0
  182.8290  177.2490  138.0140 C   0  0  0  0  0  2  0  0  0  0  0  0
  180.4510  177.8630  141.6990 C   0  0  0  0  0  0  0  0  0  0  0  0
  181.3940  177.8810  140.5070 C   0  0  1  0  0  3  0  0  0  0  0  0
  179.3290  177.0510  141.5970 O   0  0  0  0  0  1  0  0  0  0  0  0
  183.9450  178.7750  144.0390 C   0  0  0  0  0  0  0  0  0  0  0  0
  185.0700  178.5430  146.1160 C   0  0  0  0  0  2  0  0  0  0  0  0
  185.2050  178.3050  143.8130 C   0  0  0  0  0  0  0  0  0  0  0  0
  185.6650  178.0200  142.5280 C   0  0  0  0  0  3  0  0  0  0  0  0
  183.0590  179.0030  142.9820 C   0  0  0  0  0  0  0  0  0  0  0  0
  184.7940  178.2380  141.4500 C   0  0  0  0  0  3  0  0  0  0  0  0
  183.4990  178.7470  141.6710 C   0  0  0  0  0  0  0  0  0  0  0  0
  185.0830  178.3790  138.3950 C   0  0  0  0  0  2  0  0  0  0  0  0
  185.7300  177.8780  137.1130 C   0  0  0  0  0  2  0  0  0  0  0  0
  186.5020  176.5840  137.3670 C   0  0  0  0  0  2  0  0  0  0  0  0
  188.0170  176.7410  137.2200 C   0  0  2  0  0  3  0  0  0  0  0  0
  188.4590  178.1540  137.5710 C   0  0  0  0  0  2  0  0  0  0  0  0
  188.5160  178.2540  140.0450 C   0  0  0  0  0  1  0  0  0  0  0  0
  189.3580  178.1370  138.7920 C   0  0  0  0  0  2  0  0  0  0  0  0
  188.5060  176.3390  135.8340 C   0  0  0  0  0  2  0  0  0  0  0  0
  187.7480  175.1150  135.3500 C   0  0  0  0  0  2  0  0  0  0  0  0
  188.3700  173.9090  135.8660 N   0  0  0  0  0  0  0  0  0  0  0  0
  187.5270  172.9820  136.6100 C   0  0  0  0  0  1  0  0  0  0  0  0
  189.7170  173.6070  135.4620 C   0  0  0  0  0  3  0  0  0  0  0  0
  190.8030  173.6960  136.2370 C   0  0  0  0  0  3  0  0  0  0  0  0
  190.7590  174.1290  137.5930 N   0  0  0  0  0  1  0  0  0  0  0  0
  1  6  1  6  0  0  0
  1 20  1  0  0  0  0
  3 15  1  0  0  0  0
  4  2  1  0  0  0  0
  5 21  1  1  0  0  0
  5  6  1  0  0  0  0
  8  7  1  0  0  0  0
  9 15  1  0  0  0  0
 10  5  1  0  0  0  0
 10  8  1  0  0  0  0
 11  4  2  0  0  0  0
 12  7  1  1  0  0  0
 12  1  1  0  0  0  0
 12 11  1  0  0  0  0
 13 11  1  0  0  0  0
 14  9  2  0  0  0  0
 16 14  1  0  0  0  0
 16  3  2  0  0  0  0
 17 16  1  0  0  0  0
 18  2  1  0  0  0  0
 18 14  1  0  0  0  0
 19 20  1  0  0  0  0
 19 17  2  0  0  0  0
 20 18  2  0  0  0  0
 22 23  1  0  0  0  0
 22 21  1  0  0  0  0
 24 28  1  6  0  0  0
 24 23  1  0  0  0  0
 24 25  1  0  0  0  0
 25 27  1  0  0  0  0
 27 26  1  0  0  0  0
 29 28  1  0  0  0  0
 29 30  1  0  0  0  0
 30 31  1  0  0  0  0
 32 30  1  0  0  0  0
 32 33  2  0  0  0  0
 33 34  1  0  0  0  0
M  END
>  <MODEL>
8

>  <REMARK>
 VINA RESULT:      -6.3      3.573      6.473
  Name = 
  10 active torsions:
  status: ('A' for Active; 'I' for Inactive)
    1  A    between atoms: C_6  and  C_28
    2  A    between atoms: C_6  and  C_30
    3  A    between atoms: N_7  and  C_11
    4  A    between atoms: N_7  and  C_29
    5  A    between atoms: C_8  and  C_18
    6  A    between atoms: C_16  and  C_28
    7  A    between atoms: C_16  and  C_31
    8  A    between atoms: C_18  and  C_30
    9  A    between atoms: C_26  and  C_28
   10  A    between atoms: C_26  and  C_29
                            x       y       z     vdW  Elec       q    Type
                         _______ _______ _______ _____ _____    ______ ____

>  <TORSDO>
F 10

$$$$
=
 OpenBabel11052416013D

 34 37  0  0  1  0  0  0  0  0999 V2000
  182.1320  178.0360  137.5520 C   0  0  1  0  0  3  0  0  0  0  0  0
  180.9350  179.1290  135.2180 C   0  0  0  0  0  2  0  0  0  0  0  0
  180.2920  183.3970  137.3790 N   0  0  0  0  0  0  0  0  0  0  0  0
  179.9960  177.9750  135.4420 C   0  0  0  0  0  3  0  0  0  0  0  0
  183.4370  177.3410  139.7120 C   0  0  2  0  0  3  0  0  0  0  0  0
  183.4550  177.6130  138.2040 C   0  0  0  0  0  2  0  0  0  0  0  0
  180.1560  177.1100  138.9140 C   0  0  0  0  0  2  0  0  0  0  0  0
  180.9660  177.3140  140.1910 C   0  0  0  0  0  2  0  0  0  0  0  0
  179.9650  182.0870  135.3800 C   0  0  0  0  0  3  0  0  0  0  0  0
  182.2560  176.5050  140.2100 C   0  0  0  0  0  2  0  0  0  0  0  0
  180.0220  177.0600  136.4280 C   0  0  0  0  0  0  0  0  0  0  0  0
  180.9720  177.0360  137.6140 C   0  0  1  0  0  3  0  0  0  0  0  0
  179.0720  176.0490  136.3660 O   0  0  0  0  0  1  0  0  0  0  0  0
  180.6460  181.3170  136.4520 C   0  0  0  0  0  0  0  0  0  0  0  0
  179.7370  183.4690  136.0270 C   0  0  0  0  0  3  0  0  0  0  0  0
  180.8080  182.0970  137.5600 C   0  0  0  0  0  0  0  0  0  0  0  0
  181.4100  181.6120  138.7210 C   0  0  0  0  0  3  0  0  0  0  0  0
  181.0930  179.9920  136.4310 C   0  0  2  0  0  3  0  0  0  0  0  0
  181.8650  180.2840  138.7250 C   0  0  0  0  0  3  0  0  0  0  0  0
  181.7260  179.4790  137.5770 C   0  0  0  0  0  0  0  0  0  0  0  0
  183.6780  178.5960  140.5410 C   0  0  0  0  0  2  0  0  0  0  0  0
  185.1430  178.9980  140.4930 C   0  0  0  0  0  2  0  0  0  0  0  0
  185.6500  179.3600  141.8890 C   0  0  0  0  0  2  0  0  0  0  0  0
  185.4380  178.2470  142.9190 C   0  0  2  0  0  3  0  0  0  0  0  0
  185.0380  178.8190  144.2700 C   0  0  0  0  0  2  0  0  0  0  0  0
  182.5810  178.6220  144.0220 C   0  0  0  0  0  1  0  0  0  0  0  0
  183.7370  179.5910  144.1510 C   0  0  0  0  0  2  0  0  0  0  0  0
  186.6560  177.3390  143.0430 C   0  0  0  0  0  2  0  0  0  0  0  0
  187.9250  178.1320  142.7890 C   0  0  0  0  0  2  0  0  0  0  0  0
  188.8920  177.8750  143.8410 N   0  0  0  0  0  0  0  0  0  0  0  0
  188.3780  177.4930  145.1500 C   0  0  0  0  0  1  0  0  0  0  0  0
  190.2870  177.8300  143.4920 C   0  0  0  0  0  3  0  0  0  0  0  0
  190.9410  176.7600  143.0300 C   0  0  0  0  0  3  0  0  0  0  0  0
  190.3240  175.4910  142.8380 N   0  0  0  0  0  1  0  0  0  0  0  0
  1 20  1  0  0  0  0
  1 12  1  0  0  0  0
  1  6  1  1  0  0  0
  2  4  1  0  0  0  0
  3 16  1  0  0  0  0
  4 11  2  0  0  0  0
  5 10  1  0  0  0  0
  5 21  1  1  0  0  0
  6  5  1  0  0  0  0
  7  8  1  0  0  0  0
  8 10  1  0  0  0  0
  9 15  1  0  0  0  0
  9 14  2  0  0  0  0
 11 12  1  0  0  0  0
 12  7  1  1  0  0  0
 13 11  1  0  0  0  0
 14 16  1  0  0  0  0
 15  3  2  0  0  0  0
 16 17  2  0  0  0  0
 17 19  1  0  0  0  0
 18  2  1  6  0  0  0
 18 14  1  0  0  0  0
 18 20  1  0  0  0  0
 20 19  2  0  0  0  0
 22 21  1  0  0  0  0
 22 23  1  0  0  0  0
 24 23  1  6  0  0  0
 24 28  1  0  0  0  0
 24 25  1  0  0  0  0
 26 27  1  0  0  0  0
 27 25  1  0  0  0  0
 29 28  1  0  0  0  0
 29 30  1  0  0  0  0
 30 31  1  0  0  0  0
 32 30  1  0  0  0  0
 33 32  2  0  0  0  0
 34 33  1  0  0  0  0
M  END
>  <MODEL>
9

>  <REMARK>
 VINA RESULT:      -6.1      4.744      9.387
  Name = 
  10 active torsions:
  status: ('A' for Active; 'I' for Inactive)
    1  A    between atoms: C_6  and  C_28
    2  A    between atoms: C_6  and  C_30
    3  A    between atoms: N_7  and  C_11
    4  A    between atoms: N_7  and  C_29
    5  A    between atoms: C_8  and  C_18
    6  A    between atoms: C_16  and  C_28
    7  A    between atoms: C_16  and  C_31
    8  A    between atoms: C_18  and  C_30
    9  A    between atoms: C_26  and  C_28
   10  A    between atoms: C_26  and  C_29
                            x       y       z     vdW  Elec       q    Type
                         _______ _______ _______ _____ _____    ______ ____

>  <TORSDO>
F 10

$$$$
