=
 OpenBabel11052412553D

 31 34  0  0  1  0  0  0  0  0999 V2000
  185.4650  178.3740  146.1120 C   0  0  0  0  0  0  0  0  0  0  0  0
  188.6240  177.4310  144.2800 C   0  0  0  0  0  0  0  0  0  0  0  0
  189.5960  177.1110  145.2870 C   0  0  0  0  0  0  0  0  0  0  0  0
  190.2800  176.8530  147.6250 C   0  0  0  0  0  3  0  0  0  0  0  0
  187.2840  177.8400  144.5650 C   0  0  0  0  0  0  0  0  0  0  0  0
  184.6200  178.6580  145.0420 C   0  0  0  0  0  3  0  0  0  0  0  0
  189.3150  177.1690  146.6660 C   0  0  0  0  0  3  0  0  0  0  0  0
  188.0850  177.6440  141.8780 C   0  0  0  0  0  0  0  0  0  0  0  0
  185.0140  178.4890  147.3830 F   0  0  0  0  0  0  0  0  0  0  0  0
  191.2530  176.6370  143.5660 C   0  0  0  0  0  3  0  0  0  0  0  0
  191.5580  176.4690  147.2240 C   0  0  0  0  0  0  0  0  0  0  0  0
  186.8310  178.0280  142.2130 N   0  0  0  0  0  0  0  0  0  0  0  0
  189.0160  177.3360  142.9070 C   0  0  0  0  0  0  0  0  0  0  0  0
  186.7810  177.9700  145.8730 C   0  0  0  0  0  3  0  0  0  0  0  0
  192.5420  176.1460  148.1980 N   0  0  0  0  0  1  0  0  0  0  0  0
  186.4080  178.1330  143.4920 C   0  0  0  0  0  0  0  0  0  0  0  0
  185.0910  178.5380  143.7360 C   0  0  0  0  0  3  0  0  0  0  0  0
  190.3210  176.9430  142.5860 C   0  0  0  0  0  3  0  0  0  0  0  0
  190.9040  176.7160  144.9050 C   0  0  0  0  0  0  0  0  0  0  0  0
  191.8680  176.4000  145.8670 C   0  0  0  0  0  3  0  0  0  0  0  0
  188.7820  178.5960  139.6680 C   0  0  0  0  0  3  0  0  0  0  0  0
  188.3690  177.5850  140.4240 C   0  0  0  0  0  3  0  0  0  0  0  0
  189.0300  178.4140  138.2080 C   0  0  0  0  0  2  0  0  0  0  0  0
  188.7640  176.6240  136.5660 N   0  0  0  0  0  1  0  0  0  0  0  0
  188.0920  177.3710  137.6180 C   0  0  2  0  0  3  0  0  0  0  0  0
  186.4870  177.7770  135.8960 O   0  0  0  0  0  0  0  0  0  0  0  0
  186.8620  178.0300  137.0720 C   0  0  0  0  0  0  0  0  0  0  0  0
  186.1230  178.9350  137.8400 O   0  0  0  0  0  0  0  0  0  0  0  0
  185.2090  178.5240  138.8470 C   0  0  2  0  0  3  0  0  0  0  0  0
  183.8970  178.1270  138.2040 C   0  0  0  0  0  1  0  0  0  0  0  0
  184.9850  179.5720  139.7410 O   0  0  0  0  0  1  0  0  0  0  0  0
  1  9  1  0  0  0  0
  2  5  1  0  0  0  0
  2  3  1  0  0  0  0
  3  7  1  0  0  0  0
  5 14  2  0  0  0  0
  6  1  2  0  0  0  0
  7  4  2  0  0  0  0
  8 12  2  0  0  0  0
  8 13  1  0  0  0  0
 10 19  1  0  0  0  0
 11  4  1  0  0  0  0
 11 15  1  0  0  0  0
 12 16  1  0  0  0  0
 13  2  2  0  0  0  0
 14  1  1  0  0  0  0
 16 17  2  0  0  0  0
 16  5  1  0  0  0  0
 17  6  1  0  0  0  0
 18 13  1  0  0  0  0
 18 10  2  0  0  0  0
 19  3  2  0  0  0  0
 19 20  1  0  0  0  0
 20 11  2  0  0  0  0
 21 22  2  0  0  0  0
 22  8  1  0  0  0  0
 23 21  1  0  0  0  0
 25 24  1  6  0  0  0
 25 23  1  0  0  0  0
 26 27  2  0  0  0  0
 27 25  1  0  0  0  0
 27 28  1  0  0  0  0
 28 29  1  0  0  0  0
 29 30  1  6  0  0  0
 29 31  1  0  0  0  0
M  END
>  <MODEL>
1

>  <REMARK>
 VINA RESULT:     -10.6      0.000      0.000
  Name = 
  6 active torsions:
  status: ('A' for Active; 'I' for Inactive)
    1  A    between atoms: C_1  and  O_24
    2  A    between atoms: C_3  and  C_9
    3  A    between atoms: C_3  and  C_22
    4  A    between atoms: C_15  and  C_23
    5  A    between atoms: C_19  and  C_22
    6  A    between atoms: C_19  and  O_24
                            x       y       z     vdW  Elec       q    Type
                         _______ _______ _______ _____ _____    ______ ____

>  <TORSDO>
F 6

$$$$
=
 OpenBabel11052412553D

 31 34  0  0  1  0  0  0  0  0999 V2000
  189.7270  177.7490  140.6890 C   0  0  0  0  0  0  0  0  0  0  0  0
  188.1920  177.7110  144.1340 C   0  0  0  0  0  0  0  0  0  0  0  0
  189.2390  177.3280  145.0390 C   0  0  0  0  0  0  0  0  0  0  0  0
  191.5500  176.6760  145.5170 C   0  0  0  0  0  3  0  0  0  0  0  0
  188.3670  177.8440  142.7210 C   0  0  0  0  0  0  0  0  0  0  0  0
  188.6280  178.1260  139.9210 C   0  0  0  0  0  3  0  0  0  0  0  0
  190.5510  177.0470  144.6140 C   0  0  0  0  0  3  0  0  0  0  0  0
  185.8290  178.3590  143.8140 C   0  0  0  0  0  0  0  0  0  0  0  0
  190.9220  177.5160  140.0970 F   0  0  0  0  0  0  0  0  0  0  0  0
  187.6970  177.4840  146.9190 C   0  0  0  0  0  3  0  0  0  0  0  0
  191.2580  176.5770  146.8750 C   0  0  0  0  0  0  0  0  0  0  0  0
  186.0590  178.4650  142.4840 N   0  0  0  0  0  0  0  0  0  0  0  0
  186.8940  177.9770  144.6740 C   0  0  0  0  0  0  0  0  0  0  0  0
  189.5940  177.6100  142.0730 C   0  0  0  0  0  3  0  0  0  0  0  0
  192.2730  176.1990  147.7960 N   0  0  0  0  0  1  0  0  0  0  0  0
  187.2640  178.2270  141.9210 C   0  0  0  0  0  0  0  0  0  0  0  0
  187.4000  178.3640  140.5360 C   0  0  0  0  0  3  0  0  0  0  0  0
  186.6800  177.8550  146.0530 C   0  0  0  0  0  3  0  0  0  0  0  0
  188.9660  177.2220  146.4280 C   0  0  0  0  0  0  0  0  0  0  0  0
  189.9690  176.8500  147.3290 C   0  0  0  0  0  3  0  0  0  0  0  0
  183.3640  178.6560  143.4760 C   0  0  0  0  0  3  0  0  0  0  0  0
  184.4450  178.6600  144.2500 C   0  0  0  0  0  3  0  0  0  0  0  0
  182.0190  178.9820  144.0310 C   0  0  0  0  0  2  0  0  0  0  0  0
  180.4510  180.4540  142.8720 N   0  0  0  0  0  1  0  0  0  0  0  0
  180.9820  179.1010  142.9240 C   0  0  2  0  0  3  0  0  0  0  0  0
  179.6500  177.6830  144.3100 O   0  0  0  0  0  0  0  0  0  0  0  0
  179.8690  178.1230  143.1490 C   0  0  0  0  0  0  0  0  0  0  0  0
  179.0720  177.6760  142.0920 O   0  0  0  0  0  0  0  0  0  0  0  0
  179.5650  176.8360  141.0560 C   0  0  2  0  0  3  0  0  0  0  0  0
  178.9310  177.2340  139.7410 C   0  0  0  0  0  1  0  0  0  0  0  0
  179.2520  175.5060  141.3350 O   0  0  0  0  0  1  0  0  0  0  0  0
  1 14  1  0  0  0  0
  2 13  2  0  0  0  0
  2  3  1  0  0  0  0
  3 19  1  0  0  0  0
  4 11  2  0  0  0  0
  5  2  1  0  0  0  0
  6 17  1  0  0  0  0
  6  1  2  0  0  0  0
  7  3  2  0  0  0  0
  7  4  1  0  0  0  0
  8 22  1  0  0  0  0
  8 13  1  0  0  0  0
  9  1  1  0  0  0  0
 11 20  1  0  0  0  0
 11 15  1  0  0  0  0
 12  8  2  0  0  0  0
 13 18  1  0  0  0  0
 14  5  2  0  0  0  0
 16 12  1  0  0  0  0
 16  5  1  0  0  0  0
 17 16  2  0  0  0  0
 18 10  2  0  0  0  0
 19 10  1  0  0  0  0
 19 20  2  0  0  0  0
 21 23  1  0  0  0  0
 21 22  2  0  0  0  0
 25 24  1  1  0  0  0
 25 27  1  0  0  0  0
 25 23  1  0  0  0  0
 27 26  2  0  0  0  0
 28 27  1  0  0  0  0
 29 30  1  6  0  0  0
 29 31  1  0  0  0  0
 29 28  1  0  0  0  0
M  END
>  <MODEL>
2

>  <REMARK>
 VINA RESULT:     -10.5      3.635      5.889
  Name = 
  6 active torsions:
  status: ('A' for Active; 'I' for Inactive)
    1  A    between atoms: C_1  and  O_24
    2  A    between atoms: C_3  and  C_9
    3  A    between atoms: C_3  and  C_22
    4  A    between atoms: C_15  and  C_23
    5  A    between atoms: C_19  and  C_22
    6  A    between atoms: C_19  and  O_24
                            x       y       z     vdW  Elec       q    Type
                         _______ _______ _______ _____ _____    ______ ____

>  <TORSDO>
F 6

$$$$
=
 OpenBabel11052412553D

 31 34  0  0  1  0  0  0  0  0999 V2000
  185.2500  178.2580  145.9090 C   0  0  0  0  0  0  0  0  0  0  0  0
  188.4960  177.7270  144.0640 C   0  0  0  0  0  0  0  0  0  0  0  0
  189.4580  177.3180  145.0480 C   0  0  0  0  0  0  0  0  0  0  0  0
  190.0980  176.7750  147.3490 C   0  0  0  0  0  3  0  0  0  0  0  0
  187.1300  178.0290  144.3600 C   0  0  0  0  0  0  0  0  0  0  0  0
  184.4170  178.6450  144.8620 C   0  0  0  0  0  3  0  0  0  0  0  0
  189.1420  177.1730  146.4120 C   0  0  0  0  0  3  0  0  0  0  0  0
  188.0050  178.2400  141.6980 C   0  0  0  0  0  0  0  0  0  0  0  0
  184.7620  178.1770  147.1690 F   0  0  0  0  0  0  0  0  0  0  0  0
  191.1780  177.1630  143.3300 C   0  0  0  0  0  3  0  0  0  0  0  0
  191.4030  176.5100  146.9390 C   0  0  0  0  0  0  0  0  0  0  0  0
  186.7250  178.5150  142.0430 N   0  0  0  0  0  0  0  0  0  0  0  0
  188.9250  177.8390  142.7040 C   0  0  0  0  0  0  0  0  0  0  0  0
  186.5900  177.9540  145.6580 C   0  0  0  0  0  3  0  0  0  0  0  0
  192.3790  176.1040  147.8900 N   0  0  0  0  0  1  0  0  0  0  0  0
  186.2660  178.4240  143.3110 C   0  0  0  0  0  0  0  0  0  0  0  0
  184.9250  178.7280  143.5660 C   0  0  0  0  0  3  0  0  0  0  0  0
  190.2560  177.5560  142.3720 C   0  0  0  0  0  3  0  0  0  0  0  0
  190.7940  177.0410  144.6560 C   0  0  0  0  0  0  0  0  0  0  0  0
  191.7490  176.6430  145.5950 C   0  0  0  0  0  3  0  0  0  0  0  0
  188.4600  177.4080  139.3780 C   0  0  0  0  0  3  0  0  0  0  0  0
  188.3260  178.3950  140.2590 C   0  0  0  0  0  3  0  0  0  0  0  0
  188.7920  177.6890  137.9520 C   0  0  0  0  0  2  0  0  0  0  0  0
  188.0930  175.3980  137.4680 N   0  0  0  0  0  1  0  0  0  0  0  0
  189.1070  176.4050  137.1980 C   0  0  2  0  0  3  0  0  0  0  0  0
  190.5860  174.6930  137.9660 O   0  0  0  0  0  0  0  0  0  0  0  0
  190.4580  175.8910  137.5930 C   0  0  0  0  0  0  0  0  0  0  0  0
  191.5840  176.7180  137.5690 O   0  0  0  0  0  0  0  0  0  0  0  0
  192.7640  176.4340  138.3080 C   0  0  2  0  0  3  0  0  0  0  0  0
  192.7380  177.2040  139.6120 C   0  0  0  0  0  1  0  0  0  0  0  0
  193.8870  176.8130  137.5720 O   0  0  0  0  0  1  0  0  0  0  0  0
  1  9  1  0  0  0  0
  2  5  1  0  0  0  0
  2  3  1  0  0  0  0
  3  7  1  0  0  0  0
  5 14  2  0  0  0  0
  6  1  2  0  0  0  0
  7  4  2  0  0  0  0
  8 12  2  0  0  0  0
  8 13  1  0  0  0  0
 10 19  1  0  0  0  0
 11  4  1  0  0  0  0
 11 15  1  0  0  0  0
 12 16  1  0  0  0  0
 13  2  2  0  0  0  0
 14  1  1  0  0  0  0
 16 17  2  0  0  0  0
 16  5  1  0  0  0  0
 17  6  1  0  0  0  0
 18 13  1  0  0  0  0
 18 10  2  0  0  0  0
 19  3  2  0  0  0  0
 19 20  1  0  0  0  0
 20 11  2  0  0  0  0
 21 22  2  0  0  0  0
 22  8  1  0  0  0  0
 23 21  1  0  0  0  0
 25 24  1  1  0  0  0
 25 27  1  0  0  0  0
 25 23  1  0  0  0  0
 27 26  2  0  0  0  0
 28 27  1  0  0  0  0
 28 29  1  0  0  0  0
 29 30  1  1  0  0  0
 31 29  1  0  0  0  0
M  END
>  <MODEL>
3

>  <REMARK>
 VINA RESULT:     -10.4      2.344      3.257
  Name = 
  6 active torsions:
  status: ('A' for Active; 'I' for Inactive)
    1  A    between atoms: C_1  and  O_24
    2  A    between atoms: C_3  and  C_9
    3  A    between atoms: C_3  and  C_22
    4  A    between atoms: C_15  and  C_23
    5  A    between atoms: C_19  and  C_22
    6  A    between atoms: C_19  and  O_24
                            x       y       z     vdW  Elec       q    Type
                         _______ _______ _______ _____ _____    ______ ____

>  <TORSDO>
F 6

$$$$
=
 OpenBabel11052412553D

 31 34  0  0  1  0  0  0  0  0999 V2000
  190.3200  177.5430  140.6550 C   0  0  0  0  0  0  0  0  0  0  0  0
  188.4710  177.6160  143.9410 C   0  0  0  0  0  0  0  0  0  0  0  0
  189.4270  177.2570  144.9510 C   0  0  0  0  0  0  0  0  0  0  0  0
  191.6800  176.6110  145.6610 C   0  0  0  0  0  3  0  0  0  0  0  0
  188.7780  177.7050  142.5470 C   0  0  0  0  0  0  0  0  0  0  0  0
  189.3010  177.9010  139.7760 C   0  0  0  0  0  3  0  0  0  0  0  0
  190.7710  176.9580  144.6590 C   0  0  0  0  0  3  0  0  0  0  0  0
  186.1530  178.2630  143.3830 C   0  0  0  0  0  0  0  0  0  0  0  0
  191.5630  177.2880  140.1840 F   0  0  0  0  0  0  0  0  0  0  0  0
  187.7180  177.4760  146.6730 C   0  0  0  0  0  3  0  0  0  0  0  0
  191.2610  176.5550  146.9890 C   0  0  0  0  0  0  0  0  0  0  0  0
  186.5060  178.3270  142.0780 N   0  0  0  0  0  0  0  0  0  0  0  0
  187.1300  177.9030  144.3490 C   0  0  0  0  0  0  0  0  0  0  0  0
  190.0590  177.4470  142.0240 C   0  0  0  0  0  3  0  0  0  0  0  0
  192.1840  176.2020  148.0110 N   0  0  0  0  0  1  0  0  0  0  0  0
  187.7570  178.0670  141.6370 C   0  0  0  0  0  0  0  0  0  0  0  0
  188.0220  178.1620  140.2670 C   0  0  0  0  0  3  0  0  0  0  0  0
  186.7890  177.8240  145.7060 C   0  0  0  0  0  3  0  0  0  0  0  0
  189.0260  177.1940  146.3110 C   0  0  0  0  0  0  0  0  0  0  0  0
  189.9370  176.8460  147.3120 C   0  0  0  0  0  3  0  0  0  0  0  0
  183.7610  178.7110  142.7840 C   0  0  0  0  0  3  0  0  0  0  0  0
  184.7360  178.5820  143.6790 C   0  0  0  0  0  3  0  0  0  0  0  0
  182.3690  179.0410  143.2050 C   0  0  0  0  0  2  0  0  0  0  0  0
  182.0460  178.2370  140.9200 N   0  0  0  0  0  1  0  0  0  0  0  0
  181.3610  178.6270  142.1420 C   0  0  2  0  0  3  0  0  0  0  0  0
  180.0110  180.4820  142.8060 O   0  0  0  0  0  0  0  0  0  0  0  0
  180.4140  179.7540  141.8600 C   0  0  0  0  0  0  0  0  0  0  0  0
  179.9570  180.0090  140.5640 O   0  0  0  0  0  0  0  0  0  0  0  0
  180.3130  181.1780  139.8380 C   0  0  2  0  0  3  0  0  0  0  0  0
  179.0570  181.8720  139.3550 C   0  0  0  0  0  1  0  0  0  0  0  0
  181.1000  180.8320  138.7390 O   0  0  0  0  0  1  0  0  0  0  0  0
  1 14  1  0  0  0  0
  2 13  2  0  0  0  0
  2  3  1  0  0  0  0
  3 19  1  0  0  0  0
  4 11  2  0  0  0  0
  5  2  1  0  0  0  0
  6 17  1  0  0  0  0
  6  1  2  0  0  0  0
  7  3  2  0  0  0  0
  7  4  1  0  0  0  0
  8 22  1  0  0  0  0
  8 13  1  0  0  0  0
  9  1  1  0  0  0  0
 11 20  1  0  0  0  0
 11 15  1  0  0  0  0
 12  8  2  0  0  0  0
 13 18  1  0  0  0  0
 14  5  2  0  0  0  0
 16 12  1  0  0  0  0
 16  5  1  0  0  0  0
 17 16  2  0  0  0  0
 18 10  2  0  0  0  0
 19 10  1  0  0  0  0
 19 20  2  0  0  0  0
 21 23  1  0  0  0  0
 21 22  2  0  0  0  0
 25 24  1  6  0  0  0
 25 23  1  0  0  0  0
 27 25  1  0  0  0  0
 27 26  2  0  0  0  0
 28 27  1  0  0  0  0
 29 30  1  6  0  0  0
 29 28  1  0  0  0  0
 31 29  1  0  0  0  0
M  END
>  <MODEL>
4

>  <REMARK>
 VINA RESULT:      -9.8      3.249      5.401
  Name = 
  6 active torsions:
  status: ('A' for Active; 'I' for Inactive)
    1  A    between atoms: C_1  and  O_24
    2  A    between atoms: C_3  and  C_9
    3  A    between atoms: C_3  and  C_22
    4  A    between atoms: C_15  and  C_23
    5  A    between atoms: C_19  and  C_22
    6  A    between atoms: C_19  and  O_24
                            x       y       z     vdW  Elec       q    Type
                         _______ _______ _______ _____ _____    ______ ____

>  <TORSDO>
F 6

$$$$
=
 OpenBabel11052412553D

 31 34  0  0  1  0  0  0  0  0999 V2000
  188.7290  177.1690  147.4860 C   0  0  0  0  0  0  0  0  0  0  0  0
  187.7760  177.8550  143.9020 C   0  0  0  0  0  0  0  0  0  0  0  0
  186.3790  178.1870  143.9120 C   0  0  0  0  0  0  0  0  0  0  0  0
  184.2520  178.5480  145.0710 C   0  0  0  0  0  3  0  0  0  0  0  0
  188.5260  177.5270  145.0730 C   0  0  0  0  0  0  0  0  0  0  0  0
  190.0800  176.8640  147.3400 C   0  0  0  0  0  3  0  0  0  0  0  0
  185.6100  178.2220  145.0900 C   0  0  0  0  0  3  0  0  0  0  0  0
  189.8450  177.5300  142.5910 C   0  0  0  0  0  0  0  0  0  0  0  0
  188.1570  177.1480  148.7120 F   0  0  0  0  0  0  0  0  0  0  0  0
  186.4130  178.4840  141.4940 C   0  0  0  0  0  3  0  0  0  0  0  0
  183.6270  178.8480  143.8620 C   0  0  0  0  0  0  0  0  0  0  0  0
  190.4990  177.2250  143.7370 N   0  0  0  0  0  0  0  0  0  0  0  0
  188.4620  177.8520  142.6460 C   0  0  0  0  0  0  0  0  0  0  0  0
  187.9640  177.4960  146.3640 C   0  0  0  0  0  3  0  0  0  0  0  0
  182.2440  179.1810  143.8390 N   0  0  0  0  0  1  0  0  0  0  0  0
  189.9010  177.2130  144.9480 C   0  0  0  0  0  0  0  0  0  0  0  0
  190.6640  176.8860  146.0740 C   0  0  0  0  0  3  0  0  0  0  0  0
  187.7610  178.1650  141.4740 C   0  0  0  0  0  3  0  0  0  0  0  0
  185.7190  178.4980  142.6940 C   0  0  0  0  0  0  0  0  0  0  0  0
  184.3600  178.8240  142.6770 C   0  0  0  0  0  3  0  0  0  0  0  0
  190.4940  176.6630  140.3310 C   0  0  0  0  0  3  0  0  0  0  0  0
  190.6650  177.4910  141.3570 C   0  0  0  0  0  3  0  0  0  0  0  0
  191.3910  176.7160  139.1420 C   0  0  0  0  0  2  0  0  0  0  0  0
  191.9860  175.5850  137.0590 N   0  0  0  0  0  1  0  0  0  0  0  0
  190.9620  175.7090  138.0840 C   0  0  2  0  0  3  0  0  0  0  0  0
  188.7700  175.2700  137.2420 O   0  0  0  0  0  0  0  0  0  0  0  0
  189.6650  176.1300  137.4640 C   0  0  0  0  0  0  0  0  0  0  0  0
  189.4280  177.4620  137.1130 O   0  0  0  0  0  0  0  0  0  0  0  0
  188.4080  178.2480  137.7160 C   0  0  2  0  0  3  0  0  0  0  0  0
  187.4460  178.7260  136.6490 C   0  0  0  0  0  1  0  0  0  0  0  0
  188.9750  179.3520  138.3530 O   0  0  0  0  0  1  0  0  0  0  0  0
  1  9  1  0  0  0  0
  2  3  1  0  0  0  0
  2  5  1  0  0  0  0
  3  7  2  0  0  0  0
  4  7  1  0  0  0  0
  5 14  1  0  0  0  0
  6  1  1  0  0  0  0
  8 13  1  0  0  0  0
  8 12  2  0  0  0  0
 10 19  1  0  0  0  0
 11  4  2  0  0  0  0
 12 16  1  0  0  0  0
 13  2  2  0  0  0  0
 14  1  2  0  0  0  0
 15 11  1  0  0  0  0
 16  5  2  0  0  0  0
 16 17  1  0  0  0  0
 17  6  2  0  0  0  0
 18 10  2  0  0  0  0
 18 13  1  0  0  0  0
 19  3  1  0  0  0  0
 20 19  2  0  0  0  0
 20 11  1  0  0  0  0
 21 22  2  0  0  0  0
 22  8  1  0  0  0  0
 23 21  1  0  0  0  0
 25 24  1  6  0  0  0
 25 23  1  0  0  0  0
 26 27  2  0  0  0  0
 27 25  1  0  0  0  0
 28 27  1  0  0  0  0
 28 29  1  0  0  0  0
 29 30  1  6  0  0  0
 29 31  1  0  0  0  0
M  END
>  <MODEL>
5

>  <REMARK>
 VINA RESULT:      -9.8      2.229      4.796
  Name = 
  6 active torsions:
  status: ('A' for Active; 'I' for Inactive)
    1  A    between atoms: C_1  and  O_24
    2  A    between atoms: C_3  and  C_9
    3  A    between atoms: C_3  and  C_22
    4  A    between atoms: C_15  and  C_23
    5  A    between atoms: C_19  and  C_22
    6  A    between atoms: C_19  and  O_24
                            x       y       z     vdW  Elec       q    Type
                         _______ _______ _______ _____ _____    ______ ____

>  <TORSDO>
F 6

$$$$
=
 OpenBabel11052412553D

 31 34  0  0  1  0  0  0  0  0999 V2000
  190.1810  176.8110  146.3850 C   0  0  0  0  0  0  0  0  0  0  0  0
  188.2970  177.7360  143.2510 C   0  0  0  0  0  0  0  0  0  0  0  0
  186.9560  178.0430  143.6620 C   0  0  0  0  0  0  0  0  0  0  0  0
  185.2230  178.2860  145.3750 C   0  0  0  0  0  3  0  0  0  0  0  0
  189.3350  177.3360  144.1500 C   0  0  0  0  0  0  0  0  0  0  0  0
  191.4410  176.5390  145.8580 C   0  0  0  0  0  3  0  0  0  0  0  0
  186.5340  177.9820  145.0040 C   0  0  0  0  0  3  0  0  0  0  0  0
  189.9330  177.5380  141.4110 C   0  0  0  0  0  0  0  0  0  0  0  0
  189.9610  176.6940  147.7150 F   0  0  0  0  0  0  0  0  0  0  0  0
  186.3350  178.5120  141.3530 C   0  0  0  0  0  3  0  0  0  0  0  0
  184.2950  178.6620  144.4050 C   0  0  0  0  0  0  0  0  0  0  0  0
  190.8710  177.1630  142.3120 N   0  0  0  0  0  0  0  0  0  0  0  0
  188.6180  177.8330  141.8610 C   0  0  0  0  0  0  0  0  0  0  0  0
  189.1420  177.2050  145.5380 C   0  0  0  0  0  3  0  0  0  0  0  0
  182.9590  178.9720  144.7810 N   0  0  0  0  0  1  0  0  0  0  0  0
  190.6230  177.0550  143.6360 C   0  0  0  0  0  0  0  0  0  0  0  0
  191.6610  176.6600  144.4870 C   0  0  0  0  0  3  0  0  0  0  0  0
  187.6280  178.2180  140.9470 C   0  0  0  0  0  3  0  0  0  0  0  0
  185.9920  178.4300  142.6930 C   0  0  0  0  0  0  0  0  0  0  0  0
  184.6800  178.7340  143.0680 C   0  0  0  0  0  3  0  0  0  0  0  0
  190.5160  176.5670  139.1750 C   0  0  0  0  0  3  0  0  0  0  0  0
  190.3890  177.6010  140.0020 C   0  0  0  0  0  3  0  0  0  0  0  0
  190.9910  176.7570  137.7750 C   0  0  0  0  0  2  0  0  0  0  0  0
  191.0690  174.3150  137.8230 N   0  0  0  0  0  1  0  0  0  0  0  0
  191.6830  175.5040  137.2560 C   0  0  2  0  0  3  0  0  0  0  0  0
  193.7240  176.6490  137.7380 O   0  0  0  0  0  0  0  0  0  0  0  0
  193.1420  175.5400  137.5980 C   0  0  0  0  0  0  0  0  0  0  0  0
  193.8790  174.3620  137.7540 O   0  0  0  0  0  0  0  0  0  0  0  0
  195.2020  174.3440  138.2720 C   0  0  2  0  0  3  0  0  0  0  0  0
  196.1900  174.3020  137.1270 C   0  0  0  0  0  1  0  0  0  0  0  0
  195.3800  173.2180  139.0770 O   0  0  0  0  0  1  0  0  0  0  0  0
  1  9  1  0  0  0  0
  2  3  1  0  0  0  0
  2  5  1  0  0  0  0
  3  7  2  0  0  0  0
  5 14  1  0  0  0  0
  6  1  1  0  0  0  0
  7  4  1  0  0  0  0
  8 13  1  0  0  0  0
  8 12  2  0  0  0  0
 10 19  1  0  0  0  0
 11 15  1  0  0  0  0
 11  4  2  0  0  0  0
 12 16  1  0  0  0  0
 13  2  2  0  0  0  0
 14  1  2  0  0  0  0
 16  5  2  0  0  0  0
 16 17  1  0  0  0  0
 17  6  2  0  0  0  0
 18 10  2  0  0  0  0
 18 13  1  0  0  0  0
 19 20  2  0  0  0  0
 19  3  1  0  0  0  0
 20 11  1  0  0  0  0
 21 22  2  0  0  0  0
 22  8  1  0  0  0  0
 23 21  1  0  0  0  0
 25 27  1  0  0  0  0
 25 23  1  0  0  0  0
 25 24  1  1  0  0  0
 27 26  2  0  0  0  0
 27 28  1  0  0  0  0
 28 29  1  0  0  0  0
 29 30  1  6  0  0  0
 29 31  1  0  0  0  0
M  END
>  <MODEL>
6

>  <REMARK>
 VINA RESULT:      -9.6      4.052      6.329
  Name = 
  6 active torsions:
  status: ('A' for Active; 'I' for Inactive)
    1  A    between atoms: C_1  and  O_24
    2  A    between atoms: C_3  and  C_9
    3  A    between atoms: C_3  and  C_22
    4  A    between atoms: C_15  and  C_23
    5  A    between atoms: C_19  and  C_22
    6  A    between atoms: C_19  and  O_24
                            x       y       z     vdW  Elec       q    Type
                         _______ _______ _______ _____ _____    ______ ____

>  <TORSDO>
F 6

$$$$
=
 OpenBabel11052412553D

 31 34  0  0  1  0  0  0  0  0999 V2000
  189.3200  177.1870  147.2890 C   0  0  0  0  0  0  0  0  0  0  0  0
  187.3840  177.9400  144.1410 C   0  0  0  0  0  0  0  0  0  0  0  0
  188.2780  177.6880  143.0460 C   0  0  0  0  0  0  0  0  0  0  0  0
  190.4510  177.0060  142.1440 C   0  0  0  0  0  3  0  0  0  0  0  0
  187.7380  177.7720  145.5160 C   0  0  0  0  0  0  0  0  0  0  0  0
  188.3590  177.4670  148.2570 C   0  0  0  0  0  3  0  0  0  0  0  0
  189.6020  177.2440  143.2270 C   0  0  0  0  0  3  0  0  0  0  0  0
  185.1410  178.6480  144.8950 C   0  0  0  0  0  0  0  0  0  0  0  0
  190.5530  176.7680  147.6580 F   0  0  0  0  0  0  0  0  0  0  0  0
  186.5440  178.3220  141.4570 C   0  0  0  0  0  3  0  0  0  0  0  0
  189.9920  177.2090  140.8440 C   0  0  0  0  0  0  0  0  0  0  0  0
  185.5380  178.4720  146.1770 N   0  0  0  0  0  0  0  0  0  0  0  0
  186.0580  178.3870  143.8420 C   0  0  0  0  0  0  0  0  0  0  0  0
  189.0100  177.3380  145.9350 C   0  0  0  0  0  3  0  0  0  0  0  0
  190.8540  176.9680  139.7390 N   0  0  0  0  0  1  0  0  0  0  0  0
  186.7770  178.0510  146.5160 C   0  0  0  0  0  0  0  0  0  0  0  0
  187.0910  177.8990  147.8700 C   0  0  0  0  0  3  0  0  0  0  0  0
  185.6730  178.5670  142.5070 C   0  0  0  0  0  3  0  0  0  0  0  0
  187.8340  177.8860  141.7120 C   0  0  0  0  0  0  0  0  0  0  0  0
  188.6860  177.6470  140.6300 C   0  0  0  0  0  3  0  0  0  0  0  0
  182.7400  178.3970  144.2240 C   0  0  0  0  0  3  0  0  0  0  0  0
  183.7450  179.1140  144.7160 C   0  0  0  0  0  3  0  0  0  0  0  0
  181.3740  178.9800  144.0870 C   0  0  0  0  0  2  0  0  0  0  0  0
  180.1410  180.5000  142.6230 N   0  0  0  0  0  1  0  0  0  0  0  0
  181.1010  179.4070  142.6510 C   0  0  2  0  0  3  0  0  0  0  0  0
  179.5590  177.6260  142.2560 O   0  0  0  0  0  0  0  0  0  0  0  0
  180.5800  178.2480  141.8570 C   0  0  0  0  0  0  0  0  0  0  0  0
  181.2130  177.8310  140.6820 O   0  0  0  0  0  0  0  0  0  0  0  0
  182.6090  177.9840  140.4640 C   0  0  2  0  0  3  0  0  0  0  0  0
  182.8440  179.1120  139.4820 C   0  0  0  0  0  1  0  0  0  0  0  0
  183.1390  176.8030  139.9440 O   0  0  0  0  0  1  0  0  0  0  0  0
  1  9  1  0  0  0  0
  1  6  1  0  0  0  0
  2  5  1  0  0  0  0
  3  7  2  0  0  0  0
  3  2  1  0  0  0  0
  4  7  1  0  0  0  0
  5 14  1  0  0  0  0
  5 16  2  0  0  0  0
  8 12  2  0  0  0  0
 10 19  1  0  0  0  0
 10 18  2  0  0  0  0
 11  4  2  0  0  0  0
 12 16  1  0  0  0  0
 13  2  2  0  0  0  0
 13  8  1  0  0  0  0
 14  1  2  0  0  0  0
 15 11  1  0  0  0  0
 16 17  1  0  0  0  0
 17  6  2  0  0  0  0
 18 13  1  0  0  0  0
 19  3  1  0  0  0  0
 20 11  1  0  0  0  0
 20 19  2  0  0  0  0
 21 22  2  0  0  0  0
 22  8  1  0  0  0  0
 23 21  1  0  0  0  0
 25 24  1  1  0  0  0
 25 23  1  0  0  0  0
 27 26  2  0  0  0  0
 27 25  1  0  0  0  0
 28 27  1  0  0  0  0
 29 30  1  6  0  0  0
 29 28  1  0  0  0  0
 31 29  1  0  0  0  0
M  END
>  <MODEL>
7

>  <REMARK>
 VINA RESULT:      -9.6      2.980      5.823
  Name = 
  6 active torsions:
  status: ('A' for Active; 'I' for Inactive)
    1  A    between atoms: C_1  and  O_24
    2  A    between atoms: C_3  and  C_9
    3  A    between atoms: C_3  and  C_22
    4  A    between atoms: C_15  and  C_23
    5  A    between atoms: C_19  and  C_22
    6  A    between atoms: C_19  and  O_24
                            x       y       z     vdW  Elec       q    Type
                         _______ _______ _______ _____ _____    ______ ____

>  <TORSDO>
F 6

$$$$
=
 OpenBabel11052412553D

 31 34  0  0  1  0  0  0  0  0999 V2000
  185.2490  178.2830  146.1040 C   0  0  0  0  0  0  0  0  0  0  0  0
  188.3600  177.5290  144.1090 C   0  0  0  0  0  0  0  0  0  0  0  0
  189.3700  177.1590  145.0600 C   0  0  0  0  0  0  0  0  0  0  0  0
  190.1370  176.7540  147.3510 C   0  0  0  0  0  3  0  0  0  0  0  0
  187.0240  177.8920  144.4650 C   0  0  0  0  0  0  0  0  0  0  0  0
  184.3640  178.6230  145.0850 C   0  0  0  0  0  3  0  0  0  0  0  0
  189.1350  177.1170  146.4480 C   0  0  0  0  0  3  0  0  0  0  0  0
  187.7380  177.8970  141.7470 C   0  0  0  0  0  0  0  0  0  0  0  0
  184.8390  178.3010  147.3940 F   0  0  0  0  0  0  0  0  0  0  0  0
  190.9770  176.8370  143.2570 C   0  0  0  0  0  3  0  0  0  0  0  0
  191.4070  176.4220  146.8830 C   0  0  0  0  0  0  0  0  0  0  0  0
  186.4890  178.2320  142.1490 N   0  0  0  0  0  0  0  0  0  0  0  0
  188.7070  177.5370  142.7220 C   0  0  0  0  0  0  0  0  0  0  0  0
  186.5630  177.9210  145.7950 C   0  0  0  0  0  3  0  0  0  0  0  0
  192.4290  176.0520  147.8000 N   0  0  0  0  0  1  0  0  0  0  0  0
  186.1080  178.2410  143.4450 C   0  0  0  0  0  0  0  0  0  0  0  0
  184.7930  178.6030  143.7580 C   0  0  0  0  0  3  0  0  0  0  0  0
  190.0080  177.1910  142.3320 C   0  0  0  0  0  3  0  0  0  0  0  0
  190.6720  176.8160  144.6090 C   0  0  0  0  0  0  0  0  0  0  0  0
  191.6730  176.4540  145.5150 C   0  0  0  0  0  3  0  0  0  0  0  0
  188.9320  178.6290  139.6690 C   0  0  0  0  0  3  0  0  0  0  0  0
  187.9730  177.9430  140.2840 C   0  0  0  0  0  3  0  0  0  0  0  0
  189.0650  178.6020  138.1840 C   0  0  0  0  0  2  0  0  0  0  0  0
  190.3150  176.7940  137.1160 N   0  0  0  0  0  1  0  0  0  0  0  0
  189.0190  177.1760  137.6550 C   0  0  2  0  0  3  0  0  0  0  0  0
  187.3680  178.0810  136.1850 O   0  0  0  0  0  0  0  0  0  0  0  0
  187.9680  177.0510  136.5940 C   0  0  0  0  0  0  0  0  0  0  0  0
  187.6270  175.8080  136.0540 O   0  0  0  0  0  0  0  0  0  0  0  0
  187.3150  174.6780  136.8580 C   0  0  2  0  0  3  0  0  0  0  0  0
  187.6250  173.4120  136.0880 C   0  0  0  0  0  1  0  0  0  0  0  0
  185.9600  174.6940  137.1930 O   0  0  0  0  0  1  0  0  0  0  0  0
  1  9  1  0  0  0  0
  2  5  1  0  0  0  0
  2  3  1  0  0  0  0
  3  7  1  0  0  0  0
  5 14  2  0  0  0  0
  6  1  2  0  0  0  0
  7  4  2  0  0  0  0
  8 12  2  0  0  0  0
  8 13  1  0  0  0  0
 10 19  1  0  0  0  0
 11  4  1  0  0  0  0
 11 15  1  0  0  0  0
 12 16  1  0  0  0  0
 13  2  2  0  0  0  0
 14  1  1  0  0  0  0
 16 17  2  0  0  0  0
 16  5  1  0  0  0  0
 17  6  1  0  0  0  0
 18 13  1  0  0  0  0
 18 10  2  0  0  0  0
 19  3  2  0  0  0  0
 19 20  1  0  0  0  0
 20 11  2  0  0  0  0
 21 22  2  0  0  0  0
 22  8  1  0  0  0  0
 23 21  1  0  0  0  0
 25 24  1  6  0  0  0
 25 23  1  0  0  0  0
 26 27  2  0  0  0  0
 27 25  1  0  0  0  0
 28 27  1  0  0  0  0
 28 29  1  0  0  0  0
 29 30  1  6  0  0  0
 29 31  1  0  0  0  0
M  END
>  <MODEL>
8

>  <REMARK>
 VINA RESULT:      -9.5      1.457      1.969
  Name = 
  6 active torsions:
  status: ('A' for Active; 'I' for Inactive)
    1  A    between atoms: C_1  and  O_24
    2  A    between atoms: C_3  and  C_9
    3  A    between atoms: C_3  and  C_22
    4  A    between atoms: C_15  and  C_23
    5  A    between atoms: C_19  and  C_22
    6  A    between atoms: C_19  and  O_24
                            x       y       z     vdW  Elec       q    Type
                         _______ _______ _______ _____ _____    ______ ____

>  <TORSDO>
F 6

$$$$
=
 OpenBabel11052412553D

 31 34  0  0  1  0  0  0  0  0999 V2000
  188.1430  177.4450  147.9460 C   0  0  0  0  0  0  0  0  0  0  0  0
  187.4850  177.9460  144.2670 C   0  0  0  0  0  0  0  0  0  0  0  0
  186.0870  178.2510  144.1440 C   0  0  0  0  0  0  0  0  0  0  0  0
  183.8640  178.6230  145.1030 C   0  0  0  0  0  3  0  0  0  0  0  0
  188.1380  177.6870  145.5110 C   0  0  0  0  0  0  0  0  0  0  0  0
  189.5060  177.1600  147.9290 C   0  0  0  0  0  3  0  0  0  0  0  0
  185.2200  178.3250  145.2510 C   0  0  0  0  0  3  0  0  0  0  0  0
  189.6620  177.6020  143.1510 C   0  0  0  0  0  0  0  0  0  0  0  0
  187.4690  177.4700  149.1200 F   0  0  0  0  0  0  0  0  0  0  0  0
  186.3200  178.4360  141.7260 C   0  0  0  0  0  3  0  0  0  0  0  0
  183.3390  178.8550  143.8330 C   0  0  0  0  0  0  0  0  0  0  0  0
  190.2210  177.3630  144.3600 N   0  0  0  0  0  0  0  0  0  0  0  0
  188.2740  177.8990  143.0750 C   0  0  0  0  0  0  0  0  0  0  0  0
  187.4700  177.7050  146.7500 C   0  0  0  0  0  3  0  0  0  0  0  0
  181.9580  179.1580  143.6790 N   0  0  0  0  0  1  0  0  0  0  0  0
  189.5230  177.3950  145.5170 C   0  0  0  0  0  0  0  0  0  0  0  0
  190.1940  177.1350  146.7170 C   0  0  0  0  0  3  0  0  0  0  0  0
  187.6700  178.1440  141.8350 C   0  0  0  0  0  3  0  0  0  0  0  0
  185.5280  178.4920  142.8610 C   0  0  0  0  0  0  0  0  0  0  0  0
  184.1690  178.7900  142.7160 C   0  0  0  0  0  3  0  0  0  0  0  0
  190.3910  176.8060  140.8890 C   0  0  0  0  0  3  0  0  0  0  0  0
  190.5830  177.5220  141.9930 C   0  0  0  0  0  3  0  0  0  0  0  0
  191.3980  176.8030  139.7900 C   0  0  0  0  0  2  0  0  0  0  0  0
  189.2870  176.5420  138.5870 N   0  0  0  0  0  1  0  0  0  0  0  0
  190.7270  176.6750  138.4300 C   0  0  2  0  0  3  0  0  0  0  0  0
  190.8490  174.3360  137.9640 O   0  0  0  0  0  0  0  0  0  0  0  0
  191.2730  175.4910  137.6920 C   0  0  0  0  0  0  0  0  0  0  0  0
  192.2570  175.6390  136.7100 O   0  0  0  0  0  0  0  0  0  0  0  0
  193.5430  176.1800  136.9840 C   0  0  2  0  0  3  0  0  0  0  0  0
  194.2920  176.3790  135.6830 C   0  0  0  0  0  1  0  0  0  0  0  0
  194.2610  175.3050  137.8000 O   0  0  0  0  0  1  0  0  0  0  0  0
  1  9  1  0  0  0  0
  2  5  1  0  0  0  0
  3  2  1  0  0  0  0
  3  7  2  0  0  0  0
  4  7  1  0  0  0  0
  5 16  2  0  0  0  0
  5 14  1  0  0  0  0
  6  1  1  0  0  0  0
  8 12  2  0  0  0  0
 10 18  2  0  0  0  0
 10 19  1  0  0  0  0
 11  4  2  0  0  0  0
 12 16  1  0  0  0  0
 13  8  1  0  0  0  0
 13  2  2  0  0  0  0
 14  1  2  0  0  0  0
 15 11  1  0  0  0  0
 16 17  1  0  0  0  0
 17  6  2  0  0  0  0
 18 13  1  0  0  0  0
 19  3  1  0  0  0  0
 20 19  2  0  0  0  0
 20 11  1  0  0  0  0
 21 22  2  0  0  0  0
 22  8  1  0  0  0  0
 23 21  1  0  0  0  0
 25 24  1  1  0  0  0
 25 23  1  0  0  0  0
 27 26  2  0  0  0  0
 27 25  1  0  0  0  0
 28 29  1  0  0  0  0
 28 27  1  0  0  0  0
 29 30  1  6  0  0  0
 29 31  1  0  0  0  0
M  END
>  <MODEL>
9

>  <REMARK>
 VINA RESULT:      -9.3      3.213      5.818
  Name = 
  6 active torsions:
  status: ('A' for Active; 'I' for Inactive)
    1  A    between atoms: C_1  and  O_24
    2  A    between atoms: C_3  and  C_9
    3  A    between atoms: C_3  and  C_22
    4  A    between atoms: C_15  and  C_23
    5  A    between atoms: C_19  and  C_22
    6  A    between atoms: C_19  and  O_24
                            x       y       z     vdW  Elec       q    Type
                         _______ _______ _______ _____ _____    ______ ____

>  <TORSDO>
F 6

$$$$
