=
 OpenBabel11052414043D

 34 37  0  0  1  0  0  0  0  0999 V2000
  184.2420  178.8530  142.5500 C   0  0  0  0  0  0  0  0  0  0  0  0
  185.3260  178.5610  140.2770 C   0  0  0  0  0  0  0  0  0  0  0  0
  184.8260  175.6590  137.2880 O   0  0  0  0  0  0  0  0  0  0  0  0
  182.8860  178.6510  140.5330 C   0  0  0  0  0  0  0  0  0  0  0  0
  183.3480  176.0410  139.4610 O   0  0  0  0  0  1  0  0  0  0  0  0
  183.1550  179.1680  144.6870 O   0  0  0  0  0  1  0  0  0  0  0  0
  186.4900  178.4350  140.7460 O   0  0  0  0  0  0  0  0  0  0  0  0
  183.9150  179.0320  138.3610 O   0  0  0  0  0  0  0  0  0  0  0  0
  185.7170  176.8160  135.4110 C   0  0  0  0  0  2  0  0  0  0  0  0
  185.7370  176.5400  136.7110 C   0  0  0  0  0  0  0  0  0  0  0  0
  184.1480  178.6830  141.1560 C   0  0  0  0  0  0  0  0  0  0  0  0
  183.5260  175.4140  136.7630 C   0  0  0  0  0  2  0  0  0  0  0  0
  182.5970  176.9210  138.6730 C   0  0  2  0  0  3  0  0  0  0  0  0
  185.4780  178.8870  143.1860 O   0  0  0  0  0  1  0  0  0  0  0  0
  186.2530  178.6020  137.9570 C   0  0  0  0  0  2  0  0  0  0  0  0
  181.7140  178.8170  141.3080 C   0  0  0  0  0  0  0  0  0  0  0  0
  183.0760  179.0010  143.3110 C   0  0  0  0  0  0  0  0  0  0  0  0
  185.1040  178.5690  138.8560 N   0  0  0  0  0  0  0  0  0  0  0  0
  182.5370  176.5210  137.1700 C   0  0  1  0  0  3  0  0  0  0  0  0
  182.8390  178.4020  139.0400 C   0  0  1  0  0  3  0  0  0  0  0  0
  181.8280  178.9880  142.6910 C   0  0  0  0  0  3  0  0  0  0  0  0
  186.7300  177.2030  137.5970 C   0  0  0  0  0  2  0  0  0  0  0  0
  182.4430  177.6800  136.1600 C   0  0  0  0  0  3  0  0  0  0  0  0
  181.0890  178.3610  136.2480 C   0  0  0  0  0  1  0  0  0  0  0  0
  182.6170  177.1910  134.7300 C   0  0  0  0  0  1  0  0  0  0  0  0
  179.3080  178.2060  141.6840 C   0  0  0  0  0  1  0  0  0  0  0  0
  180.3230  178.8260  140.7300 C   0  0  1  0  0  3  0  0  0  0  0  0
  179.7580  181.6460  138.2370 C   0  0  0  0  0  0  0  0  0  0  0  0
  179.1610  182.6250  139.0340 C   0  0  0  0  0  3  0  0  0  0  0  0
  179.9190  180.1640  140.1570 C   0  0  0  0  0  0  0  0  0  0  0  0
  178.9310  182.3750  140.3890 C   0  0  0  0  0  3  0  0  0  0  0  0
  180.1300  180.4200  138.7940 C   0  0  0  0  0  3  0  0  0  0  0  0
  179.3030  181.1500  140.9470 C   0  0  0  0  0  3  0  0  0  0  0  0
  179.9760  181.8850  136.9210 F   0  0  0  0  0  0  0  0  0  0  0  0
  1 14  1  0  0  0  0
  1 17  1  0  0  0  0
  2  7  2  0  0  0  0
  2 11  1  0  0  0  0
  4 11  1  0  0  0  0
  4 16  2  0  0  0  0
  8 18  1  0  0  0  0
  9 10  2  0  0  0  0
 10  3  1  0  0  0  0
 10 22  1  0  0  0  0
 11  1  2  0  0  0  0
 12 19  1  0  0  0  0
 12  3  1  0  0  0  0
 13 20  1  0  0  0  0
 13  5  1  1  0  0  0
 15 18  1  0  0  0  0
 16 21  1  0  0  0  0
 17  6  1  0  0  0  0
 18  2  1  0  0  0  0
 19 23  1  6  0  0  0
 19 13  1  0  0  0  0
 20  8  1  6  0  0  0
 20  4  1  0  0  0  0
 21 17  2  0  0  0  0
 22 15  1  0  0  0  0
 23 24  1  0  0  0  0
 25 23  1  0  0  0  0
 27 16  1  0  0  0  0
 27 26  1  1  0  0  0
 28 32  2  0  0  0  0
 28 29  1  0  0  0  0
 29 31  2  0  0  0  0
 30 27  1  0  0  0  0
 30 33  2  0  0  0  0
 31 33  1  0  0  0  0
 32 30  1  0  0  0  0
 34 28  1  0  0  0  0
M  END
>  <MODEL>
1

>  <REMARK>
 VINA RESULT:      -6.1      0.000      0.000
  Name = 
  3 active torsions:
  status: ('A' for Active; 'I' for Inactive)
    1  A    between atoms: C_12  and  C_28
    2  A    between atoms: C_13  and  C_29
    3  A    between atoms: C_21  and  C_28
                            x       y       z     vdW  Elec       q    Type
                         _______ _______ _______ _____ _____    ______ ____

>  <TORSDO>
F 3

$$$$
=
 OpenBabel11052414043D

 34 37  0  0  1  0  0  0  0  0999 V2000
  182.5130  176.0650  136.6000 C   0  0  0  0  0  0  0  0  0  0  0  0
  184.7760  174.9820  136.2310 C   0  0  0  0  0  0  0  0  0  0  0  0
  188.3500  176.4480  134.5940 O   0  0  0  0  0  0  0  0  0  0  0  0
  184.5470  177.0770  137.4890 C   0  0  0  0  0  0  0  0  0  0  0  0
  186.1710  177.8150  135.2560 O   0  0  0  0  0  1  0  0  0  0  0  0
  180.3790  177.1230  137.0150 O   0  0  0  0  0  1  0  0  0  0  0  0
  184.3280  174.0980  135.4500 O   0  0  0  0  0  0  0  0  0  0  0  0
  186.5600  175.7250  137.6970 O   0  0  0  0  0  0  0  0  0  0  0  0
  189.9030  174.8730  135.4700 C   0  0  0  0  0  2  0  0  0  0  0  0
  188.6980  175.1570  134.9850 C   0  0  0  0  0  0  0  0  0  0  0  0
  183.9120  176.0510  136.7640 C   0  0  0  0  0  0  0  0  0  0  0  0
  188.9380  177.6230  135.1400 C   0  0  0  0  0  2  0  0  0  0  0  0
  186.7540  177.9330  136.5230 C   0  0  2  0  0  3  0  0  0  0  0  0
  181.8660  175.0620  135.8860 O   0  0  0  0  0  1  0  0  0  0  0  0
  187.0110  173.8640  136.2300 C   0  0  0  0  0  2  0  0  0  0  0  0
  183.7740  178.1070  138.0760 C   0  0  0  0  0  0  0  0  0  0  0  0
  181.7580  177.0960  137.1710 C   0  0  0  0  0  0  0  0  0  0  0  0
  186.1620  174.9880  136.6140 N   0  0  0  0  0  0  0  0  0  0  0  0
  188.3080  177.9880  136.4970 C   0  0  1  0  0  3  0  0  0  0  0  0
  186.0590  177.0480  137.5810 C   0  0  1  0  0  3  0  0  0  0  0  0
  182.3870  178.1020  137.9050 C   0  0  0  0  0  3  0  0  0  0  0  0
  187.6690  174.0900  134.8780 C   0  0  0  0  0  2  0  0  0  0  0  0
  189.0330  177.3740  137.7090 C   0  0  0  0  0  3  0  0  0  0  0  0
  188.8960  178.2700  138.9270 C   0  0  0  0  0  1  0  0  0  0  0  0
  190.5190  177.1940  137.4400 C   0  0  0  0  0  1  0  0  0  0  0  0
  183.5830  180.5290  138.7060 C   0  0  0  0  0  1  0  0  0  0  0  0
  184.3580  179.2290  138.8930 C   0  0  1  0  0  3  0  0  0  0  0  0
  186.2220  178.4100  142.1080 C   0  0  0  0  0  0  0  0  0  0  0  0
  185.1740  178.1780  143.0020 C   0  0  0  0  0  3  0  0  0  0  0  0
  184.6240  178.8510  140.3310 C   0  0  0  0  0  0  0  0  0  0  0  0
  183.8510  178.2910  142.5690 C   0  0  0  0  0  3  0  0  0  0  0  0
  185.9490  178.7510  140.7810 C   0  0  0  0  0  3  0  0  0  0  0  0
  183.5770  178.6300  141.2420 C   0  0  0  0  0  3  0  0  0  0  0  0
  187.5060  178.3060  142.5300 F   0  0  0  0  0  0  0  0  0  0  0  0
  1 11  2  0  0  0  0
  1 17  1  0  0  0  0
  2 18  1  0  0  0  0
  2 11  1  0  0  0  0
  3 10  1  0  0  0  0
  3 12  1  0  0  0  0
  4 16  2  0  0  0  0
  6 17  1  0  0  0  0
  7  2  2  0  0  0  0
 10  9  2  0  0  0  0
 11  4  1  0  0  0  0
 12 19  1  0  0  0  0
 13  5  1  6  0  0  0
 13 20  1  0  0  0  0
 14  1  1  0  0  0  0
 15 18  1  0  0  0  0
 16 27  1  0  0  0  0
 17 21  2  0  0  0  0
 18  8  1  0  0  0  0
 19 13  1  0  0  0  0
 19 23  1  1  0  0  0
 20  4  1  6  0  0  0
 20  8  1  0  0  0  0
 21 16  1  0  0  0  0
 22 10  1  0  0  0  0
 22 15  1  0  0  0  0
 23 24  1  0  0  0  0
 25 23  1  0  0  0  0
 27 26  1  1  0  0  0
 27 30  1  0  0  0  0
 28 34  1  0  0  0  0
 28 29  1  0  0  0  0
 30 32  1  0  0  0  0
 30 33  2  0  0  0  0
 31 29  2  0  0  0  0
 32 28  2  0  0  0  0
 33 31  1  0  0  0  0
M  END
>  <MODEL>
2

>  <REMARK>
 VINA RESULT:      -6.1      3.692      6.155
  Name = 
  3 active torsions:
  status: ('A' for Active; 'I' for Inactive)
    1  A    between atoms: C_12  and  C_28
    2  A    between atoms: C_13  and  C_29
    3  A    between atoms: C_21  and  C_28
                            x       y       z     vdW  Elec       q    Type
                         _______ _______ _______ _____ _____    ______ ____

>  <TORSDO>
F 3

$$$$
=
 OpenBabel11052414043D

 34 37  0  0  1  0  0  0  0  0999 V2000
  186.1890  178.6700  141.7470 C   0  0  0  0  0  0  0  0  0  0  0  0
  183.6530  178.6450  141.7250 C   0  0  0  0  0  0  0  0  0  0  0  0
  180.8510  180.8190  139.4820 O   0  0  0  0  0  0  0  0  0  0  0  0
  184.9570  178.3000  139.6730 C   0  0  0  0  0  0  0  0  0  0  0  0
  183.4800  180.6860  139.1300 O   0  0  0  0  0  1  0  0  0  0  0  0
  188.6060  178.6450  141.7140 O   0  0  0  0  0  1  0  0  0  0  0  0
  183.5480  179.0070  142.9280 O   0  0  0  0  0  0  0  0  0  0  0  0
  182.6190  177.6340  139.7780 O   0  0  0  0  0  0  0  0  0  0  0  0
  178.9310  179.4390  139.7390 C   0  0  0  0  0  2  0  0  0  0  0  0
  180.0470  179.9640  140.2330 C   0  0  0  0  0  0  0  0  0  0  0  0
  184.9650  178.5510  141.0590 C   0  0  0  0  0  0  0  0  0  0  0  0
  180.9200  180.7900  138.0620 C   0  0  0  0  0  2  0  0  0  0  0  0
  183.2120  179.5820  138.3130 C   0  0  2  0  0  3  0  0  0  0  0  0
  186.2200  178.9180  143.1150 O   0  0  0  0  0  1  0  0  0  0  0  0
  181.1850  178.2690  141.6100 C   0  0  0  0  0  2  0  0  0  0  0  0
  186.1800  178.1430  138.9790 C   0  0  0  0  0  0  0  0  0  0  0  0
  187.3930  178.5270  141.0490 C   0  0  0  0  0  0  0  0  0  0  0  0
  182.4840  178.3320  140.9480 N   0  0  0  0  0  0  0  0  0  0  0  0
  181.8510  179.6690  137.5660 C   0  0  1  0  0  3  0  0  0  0  0  0
  183.6160  178.2440  138.9720 C   0  0  1  0  0  3  0  0  0  0  0  0
  187.3840  178.2610  139.6800 C   0  0  0  0  0  3  0  0  0  0  0  0
  180.4850  179.6180  141.6110 C   0  0  0  0  0  2  0  0  0  0  0  0
  181.1330  178.3320  137.2990 C   0  0  0  0  0  3  0  0  0  0  0  0
  181.9290  177.4800  136.3270 C   0  0  0  0  0  1  0  0  0  0  0  0
  179.7540  178.5480  136.6940 C   0  0  0  0  0  1  0  0  0  0  0  0
  187.3470  178.6840  136.8240 C   0  0  0  0  0  1  0  0  0  0  0  0
  186.2730  177.8440  137.5060 C   0  0  1  0  0  3  0  0  0  0  0  0
  185.1600  174.3010  136.6730 C   0  0  0  0  0  0  0  0  0  0  0  0
  186.3800  173.6270  136.5820 C   0  0  0  0  0  3  0  0  0  0  0  0
  186.3290  176.3680  137.1940 C   0  0  0  0  0  0  0  0  0  0  0  0
  187.5770  174.3190  136.7840 C   0  0  0  0  0  3  0  0  0  0  0  0
  185.1350  175.6660  136.9710 C   0  0  0  0  0  3  0  0  0  0  0  0
  187.5520  175.6830  137.0840 C   0  0  0  0  0  3  0  0  0  0  0  0
  184.0000  173.6310  136.4710 F   0  0  0  0  0  0  0  0  0  0  0  0
  1 14  1  0  0  0  0
  2  7  2  0  0  0  0
  3 10  1  0  0  0  0
  4 11  2  0  0  0  0
  8 18  1  0  0  0  0
  9 10  2  0  0  0  0
 10 22  1  0  0  0  0
 11  2  1  0  0  0  0
 11  1  1  0  0  0  0
 12  3  1  0  0  0  0
 13 20  1  0  0  0  0
 13  5  1  1  0  0  0
 15 22  1  0  0  0  0
 16  4  1  0  0  0  0
 16 21  2  0  0  0  0
 17  6  1  0  0  0  0
 17  1  2  0  0  0  0
 18 15  1  0  0  0  0
 18  2  1  0  0  0  0
 19 23  1  1  0  0  0
 19 12  1  0  0  0  0
 19 13  1  0  0  0  0
 20  4  1  1  0  0  0
 20  8  1  0  0  0  0
 21 17  1  0  0  0  0
 24 23  1  0  0  0  0
 25 23  1  0  0  0  0
 27 26  1  1  0  0  0
 27 16  1  0  0  0  0
 28 32  1  0  0  0  0
 29 28  2  0  0  0  0
 29 31  1  0  0  0  0
 30 27  1  0  0  0  0
 31 33  2  0  0  0  0
 32 30  2  0  0  0  0
 33 30  1  0  0  0  0
 34 28  1  0  0  0  0
M  END
>  <MODEL>
3

>  <REMARK>
 VINA RESULT:      -6.0      2.336      6.354
  Name = 
  3 active torsions:
  status: ('A' for Active; 'I' for Inactive)
    1  A    between atoms: C_12  and  C_28
    2  A    between atoms: C_13  and  C_29
    3  A    between atoms: C_21  and  C_28
                            x       y       z     vdW  Elec       q    Type
                         _______ _______ _______ _____ _____    ______ ____

>  <TORSDO>
F 3

$$$$
=
 OpenBabel11052414043D

 34 37  0  0  1  0  0  0  0  0999 V2000
  188.4020  177.5530  139.6580 C   0  0  0  0  0  0  0  0  0  0  0  0
  189.7610  176.4330  141.4820 C   0  0  0  0  0  0  0  0  0  0  0  0
  191.3310  177.8820  145.0930 O   0  0  0  0  0  0  0  0  0  0  0  0
  187.6600  177.6010  141.9810 C   0  0  0  0  0  0  0  0  0  0  0  0
  189.6100  179.0760  143.4610 O   0  0  0  0  0  1  0  0  0  0  0  0
  187.0460  178.6050  137.9540 O   0  0  0  0  0  1  0  0  0  0  0  0
  190.7300  176.1630  140.7210 O   0  0  0  0  0  0  0  0  0  0  0  0
  188.5930  176.0050  143.5640 O   0  0  0  0  0  0  0  0  0  0  0  0
  191.6870  175.8380  146.2580 C   0  0  0  0  0  2  0  0  0  0  0  0
  191.6800  176.5340  145.1250 C   0  0  0  0  0  0  0  0  0  0  0  0
  188.6030  177.2150  141.0100 C   0  0  0  0  0  0  0  0  0  0  0  0
  190.4600  178.4920  146.0380 C   0  0  0  0  0  2  0  0  0  0  0  0
  188.6140  178.4300  144.2030 C   0  0  2  0  0  3  0  0  0  0  0  0
  189.3210  177.1830  138.6820 O   0  0  0  0  0  1  0  0  0  0  0  0
  190.8150  175.1030  143.3160 C   0  0  0  0  0  2  0  0  0  0  0  0
  186.4970  178.3060  141.5910 C   0  0  0  0  0  0  0  0  0  0  0  0
  187.2550  178.2630  139.2840 C   0  0  0  0  0  0  0  0  0  0  0  0
  189.7630  176.0030  142.8540 N   0  0  0  0  0  0  0  0  0  0  0  0
  188.9830  178.2200  145.7000 C   0  0  1  0  0  3  0  0  0  0  0  0
  187.9570  177.2670  143.4280 C   0  0  1  0  0  3  0  0  0  0  0  0
  186.3130  178.6290  140.2440 C   0  0  0  0  0  3  0  0  0  0  0  0
  192.0210  175.8660  143.8410 C   0  0  0  0  0  2  0  0  0  0  0  0
  188.4080  176.9600  146.3730 C   0  0  0  0  0  3  0  0  0  0  0  0
  186.9010  177.0710  146.5230 C   0  0  0  0  0  1  0  0  0  0  0  0
  188.9910  176.7530  147.7630 C   0  0  0  0  0  1  0  0  0  0  0  0
  185.6820  180.1270  143.1140 C   0  0  0  0  0  1  0  0  0  0  0  0
  185.4180  178.7350  142.5510 C   0  0  1  0  0  3  0  0  0  0  0  0
  181.6230  178.8230  142.2810 C   0  0  0  0  0  0  0  0  0  0  0  0
  181.4020  178.1700  141.0660 C   0  0  0  0  0  3  0  0  0  0  0  0
  184.0200  178.5200  142.0210 C   0  0  0  0  0  0  0  0  0  0  0  0
  182.4850  177.6990  140.3200 C   0  0  0  0  0  3  0  0  0  0  0  0
  182.9260  179.0030  142.7530 C   0  0  0  0  0  3  0  0  0  0  0  0
  183.7880  177.8770  140.7920 C   0  0  0  0  0  3  0  0  0  0  0  0
  180.5720  179.2850  143.0010 F   0  0  0  0  0  0  0  0  0  0  0  0
  1 11  1  0  0  0  0
  2 18  1  0  0  0  0
  3 10  1  0  0  0  0
  3 12  1  0  0  0  0
  6 17  1  0  0  0  0
  7  2  2  0  0  0  0
 10  9  2  0  0  0  0
 11  2  1  0  0  0  0
 11  4  2  0  0  0  0
 13  5  1  6  0  0  0
 13 19  1  0  0  0  0
 14  1  1  0  0  0  0
 15 22  1  0  0  0  0
 16  4  1  0  0  0  0
 16 27  1  0  0  0  0
 17  1  2  0  0  0  0
 17 21  1  0  0  0  0
 18 15  1  0  0  0  0
 18  8  1  0  0  0  0
 19 12  1  0  0  0  0
 19 23  1  6  0  0  0
 20  4  1  6  0  0  0
 20  8  1  0  0  0  0
 20 13  1  0  0  0  0
 21 16  2  0  0  0  0
 22 10  1  0  0  0  0
 23 24  1  0  0  0  0
 23 25  1  0  0  0  0
 27 26  1  6  0  0  0
 28 32  1  0  0  0  0
 28 34  1  0  0  0  0
 29 28  2  0  0  0  0
 30 27  1  0  0  0  0
 30 32  2  0  0  0  0
 31 33  2  0  0  0  0
 31 29  1  0  0  0  0
 33 30  1  0  0  0  0
M  END
>  <MODEL>
4

>  <REMARK>
 VINA RESULT:      -6.0      4.785      7.918
  Name = 
  3 active torsions:
  status: ('A' for Active; 'I' for Inactive)
    1  A    between atoms: C_12  and  C_28
    2  A    between atoms: C_13  and  C_29
    3  A    between atoms: C_21  and  C_28
                            x       y       z     vdW  Elec       q    Type
                         _______ _______ _______ _____ _____    ______ ____

>  <TORSDO>
F 3

$$$$
=
 OpenBabel11052414043D

 34 37  0  0  1  0  0  0  0  0999 V2000
  184.1600  178.8180  142.5490 C   0  0  0  0  0  0  0  0  0  0  0  0
  185.2950  178.6070  140.2920 C   0  0  0  0  0  0  0  0  0  0  0  0
  184.9210  175.7690  137.2240 O   0  0  0  0  0  0  0  0  0  0  0  0
  182.8490  178.6350  140.5000 C   0  0  0  0  0  0  0  0  0  0  0  0
  183.3930  176.0640  139.3750 O   0  0  0  0  0  1  0  0  0  0  0  0
  183.0230  179.0550  144.6700 O   0  0  0  0  0  1  0  0  0  0  0  0
  186.4520  178.4950  140.7810 O   0  0  0  0  0  0  0  0  0  0  0  0
  183.9130  179.0930  138.3590 O   0  0  0  0  0  0  0  0  0  0  0  0
  185.8240  176.9930  135.3930 C   0  0  0  0  0  2  0  0  0  0  0  0
  185.8240  176.6850  136.6870 C   0  0  0  0  0  0  0  0  0  0  0  0
  184.0980  178.6800  141.1490 C   0  0  0  0  0  0  0  0  0  0  0  0
  183.6390  175.5080  136.6660 C   0  0  0  0  0  2  0  0  0  0  0  0
  182.6380  176.9460  138.5920 C   0  0  2  0  0  3  0  0  0  0  0  0
  185.3820  178.8630  143.2110 O   0  0  0  0  0  1  0  0  0  0  0  0
  186.2680  178.7260  137.9930 C   0  0  0  0  0  2  0  0  0  0  0  0
  181.6590  178.7550  141.2550 C   0  0  0  0  0  0  0  0  0  0  0  0
  182.9760  178.9210  143.2890 C   0  0  0  0  0  0  0  0  0  0  0  0
  185.1020  178.6440  138.8670 N   0  0  0  0  0  0  0  0  0  0  0  0
  182.6160  176.5830  137.0800 C   0  0  1  0  0  3  0  0  0  0  0  0
  182.8380  178.4220  139.0000 C   0  0  1  0  0  3  0  0  0  0  0  0
  181.7410  178.8950  142.6430 C   0  0  0  0  0  3  0  0  0  0  0  0
  186.7840  177.3480  137.6090 C   0  0  0  0  0  2  0  0  0  0  0  0
  182.5170  177.7640  136.0960 C   0  0  0  0  0  3  0  0  0  0  0  0
  181.1760  178.4640  136.2310 C   0  0  0  0  0  1  0  0  0  0  0  0
  182.6480  177.3030  134.6520 C   0  0  0  0  0  1  0  0  0  0  0  0
  180.0920  179.8890  139.6550 C   0  0  0  0  0  1  0  0  0  0  0  0
  180.2800  178.7480  140.6490 C   0  0  1  0  0  3  0  0  0  0  0  0
  179.5440  175.0150  140.5560 C   0  0  0  0  0  0  0  0  0  0  0  0
  179.0410  174.8490  139.2640 C   0  0  0  0  0  3  0  0  0  0  0  0
  179.8510  177.3910  140.1440 C   0  0  0  0  0  0  0  0  0  0  0  0
  178.9310  175.9510  138.4120 C   0  0  0  0  0  3  0  0  0  0  0  0
  179.9410  176.2800  140.9970 C   0  0  0  0  0  3  0  0  0  0  0  0
  179.3290  177.2160  138.8510 C   0  0  0  0  0  3  0  0  0  0  0  0
  179.6450  173.9480  141.3850 F   0  0  0  0  0  0  0  0  0  0  0  0
  1 14  1  0  0  0  0
  1 17  1  0  0  0  0
  2  7  2  0  0  0  0
  2 11  1  0  0  0  0
  4 11  1  0  0  0  0
  4 16  2  0  0  0  0
  8 18  1  0  0  0  0
  9 10  2  0  0  0  0
 10  3  1  0  0  0  0
 10 22  1  0  0  0  0
 11  1  2  0  0  0  0
 12 19  1  0  0  0  0
 12  3  1  0  0  0  0
 13 20  1  0  0  0  0
 13  5  1  1  0  0  0
 15 18  1  0  0  0  0
 16 21  1  0  0  0  0
 17  6  1  0  0  0  0
 18  2  1  0  0  0  0
 19 23  1  6  0  0  0
 19 13  1  0  0  0  0
 20  8  1  1  0  0  0
 20  4  1  0  0  0  0
 21 17  2  0  0  0  0
 22 15  1  0  0  0  0
 23 24  1  0  0  0  0
 25 23  1  0  0  0  0
 27 26  1  6  0  0  0
 27 16  1  0  0  0  0
 28 32  1  0  0  0  0
 28 34  1  0  0  0  0
 29 28  2  0  0  0  0
 30 27  1  0  0  0  0
 30 32  2  0  0  0  0
 31 33  2  0  0  0  0
 31 29  1  0  0  0  0
 33 30  1  0  0  0  0
M  END
>  <MODEL>
5

>  <REMARK>
 VINA RESULT:      -5.9      2.038      2.949
  Name = 
  3 active torsions:
  status: ('A' for Active; 'I' for Inactive)
    1  A    between atoms: C_12  and  C_28
    2  A    between atoms: C_13  and  C_29
    3  A    between atoms: C_21  and  C_28
                            x       y       z     vdW  Elec       q    Type
                         _______ _______ _______ _____ _____    ______ ____

>  <TORSDO>
F 3

$$$$
=
 OpenBabel11052414043D

 34 37  0  0  1  0  0  0  0  0999 V2000
  180.3150  177.9400  141.5430 C   0  0  0  0  0  0  0  0  0  0  0  0
  180.3140  176.4910  139.4620 C   0  0  0  0  0  0  0  0  0  0  0  0
  181.8590  177.1190  135.6120 O   0  0  0  0  0  0  0  0  0  0  0  0
  182.3980  177.3940  140.3950 C   0  0  0  0  0  0  0  0  0  0  0  0
  182.2640  178.5750  137.7950 O   0  0  0  0  0  1  0  0  0  0  0  0
  180.3810  179.2950  143.5450 O   0  0  0  0  0  1  0  0  0  0  0  0
  179.0560  176.4610  139.3720 O   0  0  0  0  0  0  0  0  0  0  0  0
  182.4490  175.5190  138.8440 O   0  0  0  0  0  0  0  0  0  0  0  0
  181.9610  174.8780  134.8180 C   0  0  0  0  0  2  0  0  0  0  0  0
  181.3560  175.8220  135.5330 C   0  0  0  0  0  0  0  0  0  0  0  0
  180.9960  177.3010  140.4880 C   0  0  0  0  0  0  0  0  0  0  0  0
  183.2360  177.4400  135.4560 C   0  0  0  0  0  2  0  0  0  0  0  0
  183.3440  177.7200  138.0420 C   0  0  2  0  0  3  0  0  0  0  0  0
  178.9310  177.8610  141.6540 O   0  0  0  0  0  1  0  0  0  0  0  0
  180.4970  174.8200  137.6130 C   0  0  0  0  0  2  0  0  0  0  0  0
  183.1220  178.1100  141.3770 C   0  0  0  0  0  0  0  0  0  0  0  0
  181.0400  178.6580  142.5010 C   0  0  0  0  0  0  0  0  0  0  0  0
  181.1330  175.7470  138.5430 N   0  0  0  0  0  0  0  0  0  0  0  0
  184.0250  177.1800  136.7520 C   0  0  1  0  0  3  0  0  0  0  0  0
  183.0730  176.7420  139.2060 C   0  0  1  0  0  3  0  0  0  0  0  0
  182.4300  178.7350  142.4180 C   0  0  0  0  0  3  0  0  0  0  0  0
  180.1270  175.4980  136.3030 C   0  0  0  0  0  2  0  0  0  0  0  0
  184.6330  175.7670  136.8420 C   0  0  0  0  0  3  0  0  0  0  0  0
  185.9530  175.7970  137.5910 C   0  0  0  0  0  1  0  0  0  0  0  0
  184.9020  175.1840  135.4630 C   0  0  0  0  0  1  0  0  0  0  0  0
  185.0930  179.3760  140.4750 C   0  0  0  0  0  1  0  0  0  0  0  0
  184.6220  178.2410  141.3780 C   0  0  1  0  0  3  0  0  0  0  0  0
  186.9730  177.4930  144.2770 C   0  0  0  0  0  0  0  0  0  0  0  0
  186.4020  178.2340  145.3140 C   0  0  0  0  0  3  0  0  0  0  0  0
  185.2250  178.2430  142.7630 C   0  0  0  0  0  0  0  0  0  0  0  0
  185.2490  178.9880  145.0800 C   0  0  0  0  0  3  0  0  0  0  0  0
  186.3920  177.5030  143.0060 C   0  0  0  0  0  3  0  0  0  0  0  0
  184.6670  178.9970  143.8100 C   0  0  0  0  0  3  0  0  0  0  0  0
  188.0940  176.7670  144.5030 F   0  0  0  0  0  0  0  0  0  0  0  0
  1 14  1  0  0  0  0
  1 17  1  0  0  0  0
  2 11  1  0  0  0  0
  4 11  1  0  0  0  0
  4 16  2  0  0  0  0
  7  2  2  0  0  0  0
  9 10  2  0  0  0  0
 10  3  1  0  0  0  0
 10 22  1  0  0  0  0
 11  1  2  0  0  0  0
 12  3  1  0  0  0  0
 12 19  1  0  0  0  0
 13  5  1  6  0  0  0
 13 20  1  0  0  0  0
 15 18  1  0  0  0  0
 16 27  1  0  0  0  0
 16 21  1  0  0  0  0
 17  6  1  0  0  0  0
 18  8  1  0  0  0  0
 18  2  1  0  0  0  0
 19 23  1  1  0  0  0
 19 13  1  0  0  0  0
 20  8  1  6  0  0  0
 20  4  1  0  0  0  0
 21 17  2  0  0  0  0
 22 15  1  0  0  0  0
 23 24  1  0  0  0  0
 25 23  1  0  0  0  0
 27 26  1  1  0  0  0
 27 30  1  0  0  0  0
 28 34  1  0  0  0  0
 28 29  1  0  0  0  0
 30 32  1  0  0  0  0
 30 33  2  0  0  0  0
 31 29  2  0  0  0  0
 32 28  2  0  0  0  0
 33 31  1  0  0  0  0
M  END
>  <MODEL>
6

>  <REMARK>
 VINA RESULT:      -5.8      3.418      5.658
  Name = 
  3 active torsions:
  status: ('A' for Active; 'I' for Inactive)
    1  A    between atoms: C_12  and  C_28
    2  A    between atoms: C_13  and  C_29
    3  A    between atoms: C_21  and  C_28
                            x       y       z     vdW  Elec       q    Type
                         _______ _______ _______ _____ _____    ______ ____

>  <TORSDO>
F 3

$$$$
=
 OpenBabel11052414043D

 34 37  0  0  1  0  0  0  0  0999 V2000
  182.0560  178.7430  143.6250 C   0  0  0  0  0  0  0  0  0  0  0  0
  180.7200  177.9250  141.6310 C   0  0  0  0  0  0  0  0  0  0  0  0
  180.6530  179.1420  137.6160 O   0  0  0  0  0  0  0  0  0  0  0  0
  183.1720  178.0340  141.5740 C   0  0  0  0  0  0  0  0  0  0  0  0
  182.3760  179.8440  139.5100 O   0  0  0  0  0  1  0  0  0  0  0  0
  183.3840  179.4770  145.5080 O   0  0  0  0  0  1  0  0  0  0  0  0
  179.6050  178.2190  142.1420 O   0  0  0  0  0  0  0  0  0  0  0  0
  181.9580  176.6680  139.9670 O   0  0  0  0  0  0  0  0  0  0  0  0
  179.6730  177.2260  136.6020 C   0  0  0  0  0  2  0  0  0  0  0  0
  179.7650  178.0680  137.6260 C   0  0  0  0  0  0  0  0  0  0  0  0
  181.9890  178.2560  142.3050 C   0  0  0  0  0  0  0  0  0  0  0  0
  181.8640  179.1560  136.8700 C   0  0  0  0  0  2  0  0  0  0  0  0
  183.1140  178.7230  139.1130 C   0  0  2  0  0  3  0  0  0  0  0  0
  180.9000  178.9690  144.3640 O   0  0  0  0  0  1  0  0  0  0  0  0
  179.5620  176.7960  139.7260 C   0  0  0  0  0  2  0  0  0  0  0  0
  184.4280  178.2770  142.1780 C   0  0  0  0  0  0  0  0  0  0  0  0
  183.3030  178.9950  144.2080 C   0  0  0  0  0  0  0  0  0  0  0  0
  180.7920  177.2720  140.3520 N   0  0  0  0  0  0  0  0  0  0  0  0
  182.9820  178.3890  137.5990 C   0  0  1  0  0  3  0  0  0  0  0  0
  183.0410  177.5700  140.1380 C   0  0  1  0  0  3  0  0  0  0  0  0
  184.4750  178.7570  143.4900 C   0  0  0  0  0  3  0  0  0  0  0  0
  178.9310  177.8580  138.8390 C   0  0  0  0  0  2  0  0  0  0  0  0
  183.0700  176.8980  137.2190 C   0  0  0  0  0  3  0  0  0  0  0  0
  184.4660  176.3600  137.4740 C   0  0  0  0  0  1  0  0  0  0  0  0
  182.7560  176.6760  135.7480 C   0  0  0  0  0  1  0  0  0  0  0  0
  186.0160  179.0880  140.4110 C   0  0  0  0  0  1  0  0  0  0  0  0
  185.7460  178.0430  141.4880 C   0  0  1  0  0  3  0  0  0  0  0  0
  189.2710  177.9510  142.9210 C   0  0  0  0  0  0  0  0  0  0  0  0
  189.0540  177.4170  144.1940 C   0  0  0  0  0  3  0  0  0  0  0  0
  186.8920  177.8080  142.4440 C   0  0  0  0  0  0  0  0  0  0  0  0
  187.7590  177.0880  144.6010 C   0  0  0  0  0  3  0  0  0  0  0  0
  188.1950  178.1510  142.0530 C   0  0  0  0  0  3  0  0  0  0  0  0
  186.6830  177.2870  143.7320 C   0  0  0  0  0  3  0  0  0  0  0  0
  190.5270  178.2760  142.5290 F   0  0  0  0  0  0  0  0  0  0  0  0
  1 17  1  0  0  0  0
  1 14  1  0  0  0  0
  2  7  2  0  0  0  0
  2 11  1  0  0  0  0
  3 10  1  0  0  0  0
  4 16  2  0  0  0  0
  4 11  1  0  0  0  0
  8 18  1  0  0  0  0
  9 10  2  0  0  0  0
 10 22  1  0  0  0  0
 11  1  2  0  0  0  0
 12 19  1  0  0  0  0
 12  3  1  0  0  0  0
 13  5  1  1  0  0  0
 13 20  1  0  0  0  0
 15 18  1  0  0  0  0
 16 21  1  0  0  0  0
 17  6  1  0  0  0  0
 18  2  1  0  0  0  0
 19 23  1  1  0  0  0
 19 13  1  0  0  0  0
 20  8  1  1  0  0  0
 20  4  1  0  0  0  0
 21 17  2  0  0  0  0
 22 15  1  0  0  0  0
 23 24  1  0  0  0  0
 25 23  1  0  0  0  0
 27 26  1  1  0  0  0
 27 16  1  0  0  0  0
 27 30  1  0  0  0  0
 28 29  1  0  0  0  0
 29 31  2  0  0  0  0
 30 33  2  0  0  0  0
 32 30  1  0  0  0  0
 32 28  2  0  0  0  0
 33 31  1  0  0  0  0
 34 28  1  0  0  0  0
M  END
>  <MODEL>
7

>  <REMARK>
 VINA RESULT:      -5.5      3.257      6.175
  Name = 
  3 active torsions:
  status: ('A' for Active; 'I' for Inactive)
    1  A    between atoms: C_12  and  C_28
    2  A    between atoms: C_13  and  C_29
    3  A    between atoms: C_21  and  C_28
                            x       y       z     vdW  Elec       q    Type
                         _______ _______ _______ _____ _____    ______ ____

>  <TORSDO>
F 3

$$$$
=
 OpenBabel11052414043D

 34 37  0  0  1  0  0  0  0  0999 V2000
  186.0060  178.1960  137.6430 C   0  0  0  0  0  0  0  0  0  0  0  0
  184.8100  178.3490  139.8740 C   0  0  0  0  0  0  0  0  0  0  0  0
  180.9340  179.5890  140.8940 O   0  0  0  0  0  0  0  0  0  0  0  0
  183.8610  177.0880  137.9940 C   0  0  0  0  0  0  0  0  0  0  0  0
  181.9210  179.1310  138.4720 O   0  0  0  0  0  1  0  0  0  0  0  0
  187.1180  177.9840  135.5070 O   0  0  0  0  0  1  0  0  0  0  0  0
  185.6220  179.1850  140.3560 O   0  0  0  0  0  0  0  0  0  0  0  0
  183.0770  176.6970  140.2640 O   0  0  0  0  0  0  0  0  0  0  0  0
  180.7110  178.5840  143.0390 C   0  0  0  0  0  2  0  0  0  0  0  0
  181.4590  179.1850  142.1190 C   0  0  0  0  0  0  0  0  0  0  0  0
  184.9120  177.8910  138.4760 C   0  0  0  0  0  0  0  0  0  0  0  0
  179.8150  178.9670  140.2730 C   0  0  0  0  0  2  0  0  0  0  0  0
  181.5010  177.8100  138.6620 C   0  0  2  0  0  3  0  0  0  0  0  0
  187.0540  178.9880  138.0990 O   0  0  0  0  0  1  0  0  0  0  0  0
  183.6890  178.1390  142.0980 C   0  0  0  0  0  2  0  0  0  0  0  0
  183.9190  176.5670  136.6790 C   0  0  0  0  0  0  0  0  0  0  0  0
  186.0470  177.6890  136.3390 C   0  0  0  0  0  0  0  0  0  0  0  0
  183.7340  177.8260  140.6730 N   0  0  0  0  0  0  0  0  0  0  0  0
  180.2250  177.6760  139.5400 C   0  0  1  0  0  3  0  0  0  0  0  0
  182.6800  176.8420  138.9090 C   0  0  1  0  0  3  0  0  0  0  0  0
  185.0140  176.8790  135.8690 C   0  0  0  0  0  3  0  0  0  0  0  0
  182.9070  179.4130  142.3720 C   0  0  0  0  0  2  0  0  0  0  0  0
  180.1220  176.4060  140.4060 C   0  0  0  0  0  3  0  0  0  0  0  0
  179.9440  175.1750  139.5340 C   0  0  0  0  0  1  0  0  0  0  0  0
  178.9350  176.4690  141.3550 C   0  0  0  0  0  1  0  0  0  0  0  0
  182.6740  175.9350  134.5940 C   0  0  0  0  0  1  0  0  0  0  0  0
  182.8600  175.6770  136.0850 C   0  0  1  0  0  3  0  0  0  0  0  0
  181.9860  172.0900  137.0130 C   0  0  0  0  0  0  0  0  0  0  0  0
  183.2480  171.5060  137.1380 C   0  0  0  0  0  3  0  0  0  0  0  0
  183.0150  174.2220  136.4620 C   0  0  0  0  0  0  0  0  0  0  0  0
  184.3960  172.2710  136.9150 C   0  0  0  0  0  3  0  0  0  0  0  0
  181.8700  173.4400  136.6700 C   0  0  0  0  0  3  0  0  0  0  0  0
  184.2800  173.6210  136.5750 C   0  0  0  0  0  3  0  0  0  0  0  0
  180.8720  171.3470  137.2220 F   0  0  0  0  0  0  0  0  0  0  0  0
  1 14  1  0  0  0  0
  1 11  1  0  0  0  0
  2  7  2  0  0  0  0
  2 18  1  0  0  0  0
  3 10  1  0  0  0  0
  4 11  2  0  0  0  0
  6 17  1  0  0  0  0
  8 18  1  0  0  0  0
 10 22  1  0  0  0  0
 10  9  2  0  0  0  0
 11  2  1  0  0  0  0
 12  3  1  0  0  0  0
 13  5  1  1  0  0  0
 13 20  1  0  0  0  0
 13 19  1  0  0  0  0
 15 22  1  0  0  0  0
 16  4  1  0  0  0  0
 17  1  2  0  0  0  0
 18 15  1  0  0  0  0
 19 12  1  0  0  0  0
 19 23  1  1  0  0  0
 20  4  1  6  0  0  0
 20  8  1  0  0  0  0
 21 17  1  0  0  0  0
 21 16  2  0  0  0  0
 23 25  1  0  0  0  0
 24 23  1  0  0  0  0
 27 26  1  6  0  0  0
 27 30  1  0  0  0  0
 27 16  1  0  0  0  0
 28 29  1  0  0  0  0
 28 34  1  0  0  0  0
 30 33  2  0  0  0  0
 30 32  1  0  0  0  0
 31 29  2  0  0  0  0
 32 28  2  0  0  0  0
 33 31  1  0  0  0  0
M  END
>  <MODEL>
8

>  <REMARK>
 VINA RESULT:      -5.5      2.734      6.831
  Name = 
  3 active torsions:
  status: ('A' for Active; 'I' for Inactive)
    1  A    between atoms: C_12  and  C_28
    2  A    between atoms: C_13  and  C_29
    3  A    between atoms: C_21  and  C_28
                            x       y       z     vdW  Elec       q    Type
                         _______ _______ _______ _____ _____    ______ ____

>  <TORSDO>
F 3

$$$$
=
 OpenBabel11052414043D

 34 37  0  0  1  0  0  0  0  0999 V2000
  183.9490  178.9830  144.5340 C   0  0  0  0  0  0  0  0  0  0  0  0
  182.1660  178.5150  142.7930 C   0  0  0  0  0  0  0  0  0  0  0  0
  181.6450  179.9170  138.8730 O   0  0  0  0  0  0  0  0  0  0  0  0
  184.5500  178.1860  142.3090 C   0  0  0  0  0  0  0  0  0  0  0  0
  183.7640  180.2070  140.4460 O   0  0  0  0  0  1  0  0  0  0  0  0
  185.6890  179.3770  146.1670 O   0  0  0  0  0  1  0  0  0  0  0  0
  181.2270  178.9790  143.4960 O   0  0  0  0  0  0  0  0  0  0  0  0
  182.8500  177.1380  140.9180 O   0  0  0  0  0  0  0  0  0  0  0  0
  180.1710  178.2570  138.0150 C   0  0  0  0  0  2  0  0  0  0  0  0
  180.5890  179.0190  139.0210 C   0  0  0  0  0  0  0  0  0  0  0  0
  183.5700  178.5800  143.2390 C   0  0  0  0  0  0  0  0  0  0  0  0
  182.6930  179.7490  137.9260 C   0  0  0  0  0  2  0  0  0  0  0  0
  184.2040  178.9920  139.9070 C   0  0  2  0  0  3  0  0  0  0  0  0
  182.9970  179.3770  145.4690 O   0  0  0  0  0  1  0  0  0  0  0  0
  180.5140  177.7040  141.1030 C   0  0  0  0  0  2  0  0  0  0  0  0
  185.9130  178.1720  142.6860 C   0  0  0  0  0  0  0  0  0  0  0  0
  185.3010  178.9800  144.8940 C   0  0  0  0  0  0  0  0  0  0  0  0
  181.8980  177.9220  141.5110 N   0  0  0  0  0  0  0  0  0  0  0  0
  183.7580  178.7600  138.4350 C   0  0  1  0  0  3  0  0  0  0  0  0
  184.0940  177.8230  140.9110 C   0  0  1  0  0  3  0  0  0  0  0  0
  186.2700  178.5720  143.9770 C   0  0  0  0  0  3  0  0  0  0  0  0
  179.9490  178.9030  140.3580 C   0  0  0  0  0  2  0  0  0  0  0  0
  183.5030  177.2980  138.0210 C   0  0  0  0  0  3  0  0  0  0  0  0
  184.8130  176.5400  137.8950 C   0  0  0  0  0  1  0  0  0  0  0  0
  182.7930  177.2120  136.6790 C   0  0  0  0  0  1  0  0  0  0  0  0
  187.1410  178.6400  140.5470 C   0  0  0  0  0  1  0  0  0  0  0  0
  187.0300  177.7390  141.7720 C   0  0  1  0  0  3  0  0  0  0  0  0
  190.4230  178.3450  143.3870 C   0  0  0  0  0  0  0  0  0  0  0  0
  190.7560  177.0700  143.8500 C   0  0  0  0  0  3  0  0  0  0  0  0
  188.3330  177.4840  142.4920 C   0  0  0  0  0  0  0  0  0  0  0  0
  189.8790  176.0020  143.6470 C   0  0  0  0  0  3  0  0  0  0  0  0
  189.2140  178.5520  142.7170 C   0  0  0  0  0  3  0  0  0  0  0  0
  188.6710  176.2090  142.9760 C   0  0  0  0  0  3  0  0  0  0  0  0
  191.2700  179.3820  143.5900 F   0  0  0  0  0  0  0  0  0  0  0  0
  1 17  1  0  0  0  0
  1 14  1  0  0  0  0
  2 11  1  0  0  0  0
  2  7  2  0  0  0  0
  3 10  1  0  0  0  0
  4 16  2  0  0  0  0
  4 11  1  0  0  0  0
  8 18  1  0  0  0  0
  9 10  2  0  0  0  0
 10 22  1  0  0  0  0
 11  1  2  0  0  0  0
 12 19  1  0  0  0  0
 12  3  1  0  0  0  0
 13  5  1  1  0  0  0
 13 20  1  0  0  0  0
 15 18  1  0  0  0  0
 16 21  1  0  0  0  0
 17  6  1  0  0  0  0
 18  2  1  0  0  0  0
 19 23  1  1  0  0  0
 19 13  1  0  0  0  0
 20  8  1  1  0  0  0
 20  4  1  0  0  0  0
 21 17  2  0  0  0  0
 22 15  1  0  0  0  0
 24 23  1  0  0  0  0
 25 23  1  0  0  0  0
 27 26  1  6  0  0  0
 27 30  1  0  0  0  0
 27 16  1  0  0  0  0
 28 34  1  0  0  0  0
 28 29  1  0  0  0  0
 30 32  1  0  0  0  0
 30 33  2  0  0  0  0
 31 29  2  0  0  0  0
 32 28  2  0  0  0  0
 33 31  1  0  0  0  0
M  END
>  <MODEL>
9

>  <REMARK>
 VINA RESULT:      -5.3      3.650      6.781
  Name = 
  3 active torsions:
  status: ('A' for Active; 'I' for Inactive)
    1  A    between atoms: C_12  and  C_28
    2  A    between atoms: C_13  and  C_29
    3  A    between atoms: C_21  and  C_28
                            x       y       z     vdW  Elec       q    Type
                         _______ _______ _______ _____ _____    ______ ____

>  <TORSDO>
F 3

$$$$
