=
 OpenBabel11052414273D

 32 36  0  0  1  0  0  0  0  0999 V2000
  187.3720  178.4100  139.2180 C   0  0  0  0  0  0  0  0  0  0  0  0
  187.2970  178.7540  141.7040 C   0  0  1  0  0  3  0  0  0  0  0  0
  186.9770  178.8410  138.1000 O   0  0  0  0  0  0  0  0  0  0  0  0
  186.5950  178.6260  140.4180 N   0  0  0  0  0  0  0  0  0  0  0  0
  186.6590  177.7960  142.7310 C   0  0  1  0  0  3  0  0  0  0  0  0
  191.3620  177.4960  144.3140 C   0  0  0  0  0  2  0  0  0  0  0  0
  188.8130  178.4900  141.5680 C   0  0  2  0  0  3  0  0  0  0  0  0
  189.2860  177.0560  145.1080 C   0  0  0  0  0  2  0  0  0  0  0  0
  188.5880  177.3020  143.7720 C   0  0  1  0  0  3  0  0  0  0  0  0
  185.1320  178.8400  140.4390 C   0  0  2  0  0  3  0  0  0  0  0  0
  187.3160  177.8620  143.9740 O   0  0  0  0  0  0  0  0  0  0  0  0
  184.4690  177.9820  141.5290 C   0  0  0  0  0  2  0  0  0  0  0  0
  189.0320  177.3410  140.6910 N   0  0  0  0  0  2  0  0  0  0  0  0
  188.7230  177.7450  139.3170 C   0  0  1  0  0  3  0  0  0  0  0  0
  189.4420  178.2720  142.9480 C   0  0  1  0  0  3  0  0  0  0  0  0
  185.1680  178.1030  142.8860 C   0  0  2  0  0  3  0  0  0  0  0  0
  190.5550  176.4900  144.8810 O   0  0  0  0  0  0  0  0  0  0  0  0
  190.8960  177.8090  142.8900 C   0  0  0  0  0  2  0  0  0  0  0  0
  190.0790  174.8260  137.2430 C   0  0  0  0  0  0  0  0  0  0  0  0
  191.6530  174.0390  136.8740 S   0  0  0  0  0  1  0  0  0  0  0  0
  187.6690  174.9620  136.9880 C   0  0  0  0  0  3  0  0  0  0  0  0
  188.8160  176.5610  138.4000 C   0  0  0  0  0  0  0  0  0  0  0  0
  188.8830  174.3420  136.6800 C   0  0  0  0  0  0  0  0  0  0  0  0
  187.6360  176.0650  137.8410 C   0  0  0  0  0  3  0  0  0  0  0  0
  190.0460  175.9380  138.1010 C   0  0  0  0  0  0  0  0  0  0  0  0
  191.2280  176.4220  138.6550 O   0  0  0  0  0  1  0  0  0  0  0  0
  188.0600  172.1550  136.3330 O   0  0  0  0  0  1  0  0  0  0  0  0
  188.8660  173.1510  135.7810 C   0  0  0  0  0  2  0  0  0  0  0  0
  184.9250  179.4730  143.5140 C   0  0  0  0  0  2  0  0  0  0  0  0
  184.3190  179.3240  144.7610 O   0  0  0  0  0  1  0  0  0  0  0  0
  184.4300  178.5760  139.1060 C   0  0  0  0  0  2  0  0  0  0  0  0
  183.6500  179.6710  138.7260 O   0  0  0  0  0  1  0  0  0  0  0  0
  1 14  1  0  0  0  0
  1  4  1  0  0  0  0
  2  4  1  6  0  0  0
  2  5  1  0  0  0  0
  3  1  2  0  0  0  0
  4 10  1  0  0  0  0
  5 16  1  0  0  0  0
  5 11  1  1  0  0  0
  6 17  1  0  0  0  0
  7 13  1  6  0  0  0
  7  2  1  0  0  0  0
  7 15  1  0  0  0  0
  9 11  1  0  0  0  0
  9  8  1  1  0  0  0
 10 31  1  6  0  0  0
 10 12  1  0  0  0  0
 12 16  1  0  0  0  0
 14 22  1  6  0  0  0
 14 13  1  0  0  0  0
 15 18  1  6  0  0  0
 15  9  1  0  0  0  0
 16 29  1  6  0  0  0
 17  8  1  0  0  0  0
 18  6  1  0  0  0  0
 19 25  1  0  0  0  0
 20 19  1  0  0  0  0
 21 24  2  0  0  0  0
 23 21  1  0  0  0  0
 23 19  2  0  0  0  0
 24 22  1  0  0  0  0
 25 22  2  0  0  0  0
 25 26  1  0  0  0  0
 28 27  1  0  0  0  0
 28 23  1  0  0  0  0
 29 30  1  0  0  0  0
 32 31  1  0  0  0  0
M  END
>  <MODEL>
1

>  <REMARK>
 VINA RESULT:      -7.7      0.000      0.000
  Name = 
  4 active torsions:
  status: ('A' for Active; 'I' for Inactive)
    1  A    between atoms: C_13  and  C_29
    2  A    between atoms: CA_14  and  C_21
    3  A    between atoms: C_16  and  CA_27
    4  A    between atoms: C_19  and  C_26
                            x       y       z     vdW  Elec       q    Type
                         _______ _______ _______ _____ _____    ______ ____

>  <TORSDO>
F 4

$$$$
=
 OpenBabel11052414273D

 32 36  0  0  1  0  0  0  0  0999 V2000
  185.5610  179.2550  142.3120 C   0  0  0  0  0  0  0  0  0  0  0  0
  187.9160  178.3840  142.2970 C   0  0  1  0  0  3  0  0  0  0  0  0
  184.7110  179.9350  142.9480 O   0  0  0  0  0  0  0  0  0  0  0  0
  186.6340  178.5710  142.9960 N   0  0  0  0  0  0  0  0  0  0  0  0
  188.3330  176.9010  142.3840 C   0  0  1  0  0  3  0  0  0  0  0  0
  190.1470  177.8830  137.8600 C   0  0  0  0  0  2  0  0  0  0  0  0
  187.8520  178.8570  140.8280 C   0  0  2  0  0  3  0  0  0  0  0  0
  190.4200  176.3260  139.4840 C   0  0  0  0  0  2  0  0  0  0  0  0
  189.2600  176.8330  140.3390 C   0  0  1  0  0  3  0  0  0  0  0  0
  186.5810  178.1310  144.4070 C   0  0  2  0  0  3  0  0  0  0  0  0
  189.5430  176.6670  141.7040 O   0  0  0  0  0  0  0  0  0  0  0  0
  187.0950  176.6890  144.5520 C   0  0  0  0  0  2  0  0  0  0  0  0
  186.5890  178.4260  140.2320 N   0  0  0  0  0  2  0  0  0  0  0  0
  185.5090  179.2360  140.8030 C   0  0  1  0  0  3  0  0  0  0  0  0
  189.0550  178.3240  140.0440 C   0  0  1  0  0  3  0  0  0  0  0  0
  188.4350  176.4640  143.8460 C   0  0  2  0  0  3  0  0  0  0  0  0
  190.1140  176.4980  138.1210 O   0  0  0  0  0  0  0  0  0  0  0  0
  188.9640  178.5770  138.5410 C   0  0  0  0  0  2  0  0  0  0  0  0
  182.1890  178.9470  138.9180 C   0  0  0  0  0  0  0  0  0  0  0  0
  181.2360  179.8630  137.6990 S   0  0  0  0  0  1  0  0  0  0  0  0
  182.4710  177.0300  140.3800 C   0  0  0  0  0  3  0  0  0  0  0  0
  184.1810  178.7430  140.3090 C   0  0  0  0  0  0  0  0  0  0  0  0
  181.7090  177.7310  139.4410 C   0  0  0  0  0  0  0  0  0  0  0  0
  183.6970  177.5340  140.8120 C   0  0  0  0  0  3  0  0  0  0  0  0
  183.4230  179.4550  139.3560 C   0  0  0  0  0  0  0  0  0  0  0  0
  183.8980  180.6610  138.8450 O   0  0  0  0  0  1  0  0  0  0  0  0
  180.6510  176.1730  138.0140 O   0  0  0  0  0  1  0  0  0  0  0  0
  180.4140  177.1410  138.9900 C   0  0  0  0  0  2  0  0  0  0  0  0
  189.5720  177.1720  144.5800 C   0  0  0  0  0  2  0  0  0  0  0  0
  189.4820  176.9250  145.9490 O   0  0  0  0  0  1  0  0  0  0  0  0
  185.1970  178.2300  145.0520 C   0  0  0  0  0  2  0  0  0  0  0  0
  185.2080  179.1280  146.1220 O   0  0  0  0  0  1  0  0  0  0  0  0
  1  3  2  0  0  0  0
  1  4  1  0  0  0  0
  2  5  1  0  0  0  0
  2  4  1  6  0  0  0
  4 10  1  0  0  0  0
  5 11  1  1  0  0  0
  5 16  1  0  0  0  0
  6 17  1  0  0  0  0
  6 18  1  0  0  0  0
  7 13  1  6  0  0  0
  7  2  1  0  0  0  0
  9  8  1  6  0  0  0
  9 11  1  0  0  0  0
 10 12  1  0  0  0  0
 10 31  1  6  0  0  0
 13 14  1  0  0  0  0
 14 22  1  1  0  0  0
 14  1  1  0  0  0  0
 15 18  1  6  0  0  0
 15  9  1  0  0  0  0
 15  7  1  0  0  0  0
 16 12  1  0  0  0  0
 16 29  1  1  0  0  0
 17  8  1  0  0  0  0
 19 25  2  0  0  0  0
 19 23  1  0  0  0  0
 20 19  1  0  0  0  0
 21 24  1  0  0  0  0
 22 24  2  0  0  0  0
 23 21  2  0  0  0  0
 25 22  1  0  0  0  0
 26 25  1  0  0  0  0
 27 28  1  0  0  0  0
 28 23  1  0  0  0  0
 29 30  1  0  0  0  0
 31 32  1  0  0  0  0
M  END
>  <MODEL>
2

>  <REMARK>
 VINA RESULT:      -7.7      3.126      6.017
  Name = 
  4 active torsions:
  status: ('A' for Active; 'I' for Inactive)
    1  A    between atoms: C_13  and  C_29
    2  A    between atoms: CA_14  and  C_21
    3  A    between atoms: C_16  and  CA_27
    4  A    between atoms: C_19  and  C_26
                            x       y       z     vdW  Elec       q    Type
                         _______ _______ _______ _____ _____    ______ ____

>  <TORSDO>
F 4

$$$$
=
 OpenBabel11052414273D

 32 36  0  0  1  0  0  0  0  0999 V2000
  184.6750  178.8160  139.8950 C   0  0  0  0  0  0  0  0  0  0  0  0
  183.0550  177.4440  138.5540 C   0  0  1  0  0  3  0  0  0  0  0  0
  185.5200  179.7510  139.8580 O   0  0  0  0  0  0  0  0  0  0  0  0
  184.4020  178.0080  138.7280 N   0  0  0  0  0  0  0  0  0  0  0  0
  183.1660  175.9320  138.2720 C   0  0  1  0  0  3  0  0  0  0  0  0
  178.9320  175.8520  140.8750 C   0  0  0  0  0  2  0  0  0  0  0  0
  182.1490  177.7130  139.7770 C   0  0  2  0  0  3  0  0  0  0  0  0
  180.0450  174.5110  139.4260 C   0  0  0  0  0  2  0  0  0  0  0  0
  181.3020  175.3780  139.3960 C   0  0  1  0  0  3  0  0  0  0  0  0
  185.3580  177.7890  137.6200 C   0  0  2  0  0  3  0  0  0  0  0  0
  181.8980  175.3400  138.1250 O   0  0  0  0  0  0  0  0  0  0  0  0
  185.4160  176.3020  137.2330 C   0  0  0  0  0  2  0  0  0  0  0  0
  182.9120  177.5010  141.0050 N   0  0  0  0  0  2  0  0  0  0  0  0
  183.8670  178.6030  141.1520 C   0  0  1  0  0  3  0  0  0  0  0  0
  180.9050  176.8210  139.7250 C   0  0  1  0  0  3  0  0  0  0  0  0
  184.0290  175.6870  137.0320 C   0  0  2  0  0  3  0  0  0  0  0  0
  179.4680  174.5590  140.7100 O   0  0  0  0  0  0  0  0  0  0  0  0
  180.0590  176.8810  140.9950 C   0  0  0  0  0  2  0  0  0  0  0  0
  185.1890  178.3370  144.7360 C   0  0  0  0  0  0  0  0  0  0  0  0
  184.6230  178.6320  146.4170 S   0  0  0  0  0  1  0  0  0  0  0  0
  186.9070  177.6300  143.1730 C   0  0  0  0  0  3  0  0  0  0  0  0
  184.7550  178.3590  142.3370 C   0  0  0  0  0  0  0  0  0  0  0  0
  186.4910  177.8610  144.4870 C   0  0  0  0  0  0  0  0  0  0  0  0
  186.0460  177.8780  142.1060 C   0  0  0  0  0  3  0  0  0  0  0  0
  184.3230  178.5900  143.6590 C   0  0  0  0  0  0  0  0  0  0  0  0
  183.0370  179.0660  143.9010 O   0  0  0  0  0  1  0  0  0  0  0  0
  188.6590  177.1280  145.0740 O   0  0  0  0  0  1  0  0  0  0  0  0
  187.4400  177.5580  145.5990 C   0  0  0  0  0  2  0  0  0  0  0  0
  183.3690  176.2140  135.7600 C   0  0  0  0  0  2  0  0  0  0  0  0
  183.4260  175.2470  134.7570 O   0  0  0  0  0  1  0  0  0  0  0  0
  186.7780  178.2840  137.8990 C   0  0  0  0  0  2  0  0  0  0  0  0
  187.2050  179.1640  136.9010 O   0  0  0  0  0  1  0  0  0  0  0  0
  1 14  1  0  0  0  0
  2  4  1  1  0  0  0
  2  7  1  0  0  0  0
  3  1  2  0  0  0  0
  4  1  1  0  0  0  0
  5 11  1  6  0  0  0
  5  2  1  0  0  0  0
  6 18  1  0  0  0  0
  7 13  1  1  0  0  0
  8 17  1  0  0  0  0
  9  8  1  6  0  0  0
  9 15  1  0  0  0  0
 10 31  1  1  0  0  0
 10  4  1  0  0  0  0
 11  9  1  0  0  0  0
 12 10  1  0  0  0  0
 13 14  1  0  0  0  0
 14 22  1  1  0  0  0
 15  7  1  0  0  0  0
 15 18  1  1  0  0  0
 16 29  1  6  0  0  0
 16 12  1  0  0  0  0
 16  5  1  0  0  0  0
 17  6  1  0  0  0  0
 19 20  1  0  0  0  0
 21 23  2  0  0  0  0
 22 25  1  0  0  0  0
 23 19  1  0  0  0  0
 23 28  1  0  0  0  0
 24 22  2  0  0  0  0
 24 21  1  0  0  0  0
 25 26  1  0  0  0  0
 25 19  2  0  0  0  0
 27 28  1  0  0  0  0
 30 29  1  0  0  0  0
 32 31  1  0  0  0  0
M  END
>  <MODEL>
3

>  <REMARK>
 VINA RESULT:      -7.0      3.968      8.115
  Name = 
  4 active torsions:
  status: ('A' for Active; 'I' for Inactive)
    1  A    between atoms: C_13  and  C_29
    2  A    between atoms: CA_14  and  C_21
    3  A    between atoms: C_16  and  CA_27
    4  A    between atoms: C_19  and  C_26
                            x       y       z     vdW  Elec       q    Type
                         _______ _______ _______ _____ _____    ______ ____

>  <TORSDO>
F 4

$$$$
=
 OpenBabel11052414273D

 32 36  0  0  1  0  0  0  0  0999 V2000
  185.7810  178.8090  139.6380 C   0  0  0  0  0  0  0  0  0  0  0  0
  188.2050  178.3290  140.0800 C   0  0  1  0  0  3  0  0  0  0  0  0
  184.8010  179.5490  139.9280 O   0  0  0  0  0  0  0  0  0  0  0  0
  186.8460  178.5750  140.5860 N   0  0  0  0  0  0  0  0  0  0  0  0
  188.7700  177.0520  140.7340 C   0  0  1  0  0  3  0  0  0  0  0  0
  190.9230  176.5740  136.2780 C   0  0  0  0  0  2  0  0  0  0  0  0
  188.2420  178.2250  138.5390 C   0  0  2  0  0  3  0  0  0  0  0  0
  191.1960  175.7640  138.3770 C   0  0  0  0  0  2  0  0  0  0  0  0
  189.9060  176.3790  138.9160 C   0  0  1  0  0  3  0  0  0  0  0  0
  186.6950  178.6720  142.0540 C   0  0  2  0  0  3  0  0  0  0  0  0
  190.0620  176.7580  140.2590 O   0  0  0  0  0  0  0  0  0  0  0  0
  187.3460  177.4670  142.7530 C   0  0  0  0  0  2  0  0  0  0  0  0
  187.1020  177.4370  138.0760 N   0  0  0  0  0  2  0  0  0  0  0  0
  185.8880  178.2400  138.2440 C   0  0  1  0  0  3  0  0  0  0  0  0
  189.5710  177.6180  138.0770 C   0  0  1  0  0  3  0  0  0  0  0  0
  188.7680  177.1910  142.2570 C   0  0  2  0  0  3  0  0  0  0  0  0
  191.0150  175.3870  137.0320 O   0  0  0  0  0  0  0  0  0  0  0  0
  189.6090  177.2960  136.5850 C   0  0  0  0  0  2  0  0  0  0  0  0
  183.2370  176.2830  136.2920 C   0  0  0  0  0  0  0  0  0  0  0  0
  182.8680  175.8220  134.5940 S   0  0  0  0  0  1  0  0  0  0  0  0
  182.7070  176.2420  138.6610 C   0  0  0  0  0  3  0  0  0  0  0  0
  184.6790  177.4220  137.8950 C   0  0  0  0  0  0  0  0  0  0  0  0
  182.3960  175.8810  137.3470 C   0  0  0  0  0  0  0  0  0  0  0  0
  183.8390  177.0090  138.9320 C   0  0  0  0  0  3  0  0  0  0  0  0
  184.3770  177.0580  136.5660 C   0  0  0  0  0  0  0  0  0  0  0  0
  185.2080  177.4620  135.5250 O   0  0  0  0  0  1  0  0  0  0  0  0
  181.4620  173.7130  137.4370 O   0  0  0  0  0  1  0  0  0  0  0  0
  181.1870  175.0400  137.1070 C   0  0  0  0  0  2  0  0  0  0  0  0
  189.7390  178.2670  142.7380 C   0  0  0  0  0  2  0  0  0  0  0  0
  189.7670  178.2960  144.1310 O   0  0  0  0  0  1  0  0  0  0  0  0
  185.2500  178.8040  142.5380 C   0  0  0  0  0  2  0  0  0  0  0  0
  185.1080  178.2950  143.8310 O   0  0  0  0  0  1  0  0  0  0  0  0
  1  3  2  0  0  0  0
  1  4  1  0  0  0  0
  2  4  1  1  0  0  0
  2  5  1  0  0  0  0
  4 10  1  0  0  0  0
  5 11  1  6  0  0  0
  5 16  1  0  0  0  0
  6 18  1  0  0  0  0
  6 17  1  0  0  0  0
  7 13  1  1  0  0  0
  7  2  1  0  0  0  0
  9  8  1  6  0  0  0
  9 11  1  0  0  0  0
 10 31  1  6  0  0  0
 10 12  1  0  0  0  0
 13 14  1  0  0  0  0
 14 22  1  1  0  0  0
 14  1  1  0  0  0  0
 15 18  1  6  0  0  0
 15  7  1  0  0  0  0
 15  9  1  0  0  0  0
 16 29  1  6  0  0  0
 16 12  1  0  0  0  0
 17  8  1  0  0  0  0
 19 25  2  0  0  0  0
 19 23  1  0  0  0  0
 20 19  1  0  0  0  0
 21 24  1  0  0  0  0
 22 24  2  0  0  0  0
 23 21  2  0  0  0  0
 25 22  1  0  0  0  0
 26 25  1  0  0  0  0
 28 23  1  0  0  0  0
 28 27  1  0  0  0  0
 29 30  1  0  0  0  0
 31 32  1  0  0  0  0
M  END
>  <MODEL>
4

>  <REMARK>
 VINA RESULT:      -6.6      2.898      5.345
  Name = 
  4 active torsions:
  status: ('A' for Active; 'I' for Inactive)
    1  A    between atoms: C_13  and  C_29
    2  A    between atoms: CA_14  and  C_21
    3  A    between atoms: C_16  and  CA_27
    4  A    between atoms: C_19  and  C_26
                            x       y       z     vdW  Elec       q    Type
                         _______ _______ _______ _____ _____    ______ ____

>  <TORSDO>
F 4

$$$$
=
 OpenBabel11052414273D

 32 36  0  0  1  0  0  0  0  0999 V2000
  184.8390  178.2530  138.3380 C   0  0  0  0  0  0  0  0  0  0  0  0
  184.7740  176.2200  136.8640 C   0  0  1  0  0  3  0  0  0  0  0  0
  185.3060  179.4160  138.4790 O   0  0  0  0  0  0  0  0  0  0  0  0
  185.5470  177.2510  137.5730 N   0  0  0  0  0  0  0  0  0  0  0  0
  185.3340  174.8270  137.2190 C   0  0  1  0  0  3  0  0  0  0  0  0
  180.5420  173.5750  136.7960 C   0  0  0  0  0  2  0  0  0  0  0  0
  183.2640  176.3070  137.1790 C   0  0  2  0  0  3  0  0  0  0  0  0
  182.5600  172.5440  136.7860 C   0  0  0  0  0  2  0  0  0  0  0  0
  183.3390  173.7940  137.1890 C   0  0  1  0  0  3  0  0  0  0  0  0
  187.0110  177.2450  137.3570 C   0  0  2  0  0  3  0  0  0  0  0  0
  184.6060  173.8030  136.5840 O   0  0  0  0  0  0  0  0  0  0  0  0
  187.5940  175.8420  137.5930 C   0  0  0  0  0  2  0  0  0  0  0  0
  183.0770  176.5520  138.6080 N   0  0  0  0  0  2  0  0  0  0  0  0
  183.4730  177.9340  138.8940 C   0  0  1  0  0  3  0  0  0  0  0  0
  182.5510  175.0270  136.7300 C   0  0  1  0  0  3  0  0  0  0  0  0
  186.8190  174.7460  136.8580 C   0  0  2  0  0  3  0  0  0  0  0  0
  181.2960  172.5540  137.4080 O   0  0  0  0  0  0  0  0  0  0  0  0
  181.0960  174.9480  137.1840 C   0  0  0  0  0  2  0  0  0  0  0  0
  182.2120  178.7900  142.4080 C   0  0  0  0  0  0  0  0  0  0  0  0
  180.6830  179.2700  143.2220 S   0  0  0  0  0  1  0  0  0  0  0  0
  184.5790  178.2530  142.4940 C   0  0  0  0  0  3  0  0  0  0  0  0
  183.4130  178.1900  140.3720 C   0  0  0  0  0  0  0  0  0  0  0  0
  183.4030  178.6360  143.1440 C   0  0  0  0  0  0  0  0  0  0  0  0
  184.5840  178.0330  141.1170 C   0  0  0  0  0  3  0  0  0  0  0  0
  182.2190  178.5700  141.0200 C   0  0  0  0  0  0  0  0  0  0  0  0
  181.0450  178.7270  140.2880 O   0  0  0  0  0  1  0  0  0  0  0  0
  184.7640  178.8740  145.0610 O   0  0  0  0  0  1  0  0  0  0  0  0
  183.4400  178.8370  144.6230 C   0  0  0  0  0  2  0  0  0  0  0  0
  187.0490  174.8220  135.3500 C   0  0  0  0  0  2  0  0  0  0  0  0
  188.3800  174.5330  135.0560 O   0  0  0  0  0  1  0  0  0  0  0  0
  187.7840  178.2530  138.2090 C   0  0  0  0  0  2  0  0  0  0  0  0
  188.4170  179.2050  137.4050 O   0  0  0  0  0  1  0  0  0  0  0  0
  1  3  2  0  0  0  0
  1 14  1  0  0  0  0
  2  7  1  0  0  0  0
  2  5  1  0  0  0  0
  2  4  1  1  0  0  0
  4  1  1  0  0  0  0
  5 11  1  6  0  0  0
  6 18  1  0  0  0  0
  6 17  1  0  0  0  0
  7 13  1  1  0  0  0
  8 17  1  0  0  0  0
  9  8  1  6  0  0  0
 10  4  1  0  0  0  0
 10 12  1  0  0  0  0
 10 31  1  1  0  0  0
 11  9  1  0  0  0  0
 13 14  1  0  0  0  0
 14 22  1  1  0  0  0
 15  7  1  0  0  0  0
 15 18  1  1  0  0  0
 15  9  1  0  0  0  0
 16 29  1  6  0  0  0
 16  5  1  0  0  0  0
 16 12  1  0  0  0  0
 19 23  1  0  0  0  0
 19 20  1  0  0  0  0
 21 23  2  0  0  0  0
 22 25  1  0  0  0  0
 22 24  2  0  0  0  0
 23 28  1  0  0  0  0
 24 21  1  0  0  0  0
 25 19  2  0  0  0  0
 26 25  1  0  0  0  0
 28 27  1  0  0  0  0
 30 29  1  0  0  0  0
 32 31  1  0  0  0  0
M  END
>  <MODEL>
5

>  <REMARK>
 VINA RESULT:      -6.5      4.018      8.678
  Name = 
  4 active torsions:
  status: ('A' for Active; 'I' for Inactive)
    1  A    between atoms: C_13  and  C_29
    2  A    between atoms: CA_14  and  C_21
    3  A    between atoms: C_16  and  CA_27
    4  A    between atoms: C_19  and  C_26
                            x       y       z     vdW  Elec       q    Type
                         _______ _______ _______ _____ _____    ______ ____

>  <TORSDO>
F 4

$$$$
=
 OpenBabel11052414273D

 32 36  0  0  1  0  0  0  0  0999 V2000
  185.2550  178.6090  139.6530 C   0  0  0  0  0  0  0  0  0  0  0  0
  182.9410  178.0040  138.8870 C   0  0  1  0  0  3  0  0  0  0  0  0
  186.3960  179.0030  139.2910 O   0  0  0  0  0  0  0  0  0  0  0  0
  184.4000  177.8680  138.7540 N   0  0  0  0  0  0  0  0  0  0  0  0
  182.3020  176.6020  138.9590 C   0  0  1  0  0  3  0  0  0  0  0  0
  179.1690  178.9630  142.0130 C   0  0  0  0  0  2  0  0  0  0  0  0
  182.5460  178.8560  140.1140 C   0  0  2  0  0  3  0  0  0  0  0  0
  179.2170  177.0510  140.7960 C   0  0  0  0  0  2  0  0  0  0  0  0
  180.6870  177.1900  140.4060 C   0  0  1  0  0  3  0  0  0  0  0  0
  184.8860  177.0530  137.6190 C   0  0  2  0  0  3  0  0  0  0  0  0
  180.9050  176.6810  139.1150 O   0  0  0  0  0  0  0  0  0  0  0  0
  184.1890  175.6830  137.5910 C   0  0  0  0  0  2  0  0  0  0  0  0
  183.3850  178.4890  141.2530 N   0  0  0  0  0  2  0  0  0  0  0  0
  184.7370  179.0030  141.0150 C   0  0  1  0  0  3  0  0  0  0  0  0
  181.0580  178.6770  140.4310 C   0  0  1  0  0  3  0  0  0  0  0  0
  182.6670  175.7900  137.7150 C   0  0  2  0  0  3  0  0  0  0  0  0
  179.0220  177.5630  142.0930 O   0  0  0  0  0  0  0  0  0  0  0  0
  180.6310  179.3270  141.7450 C   0  0  0  0  0  2  0  0  0  0  0  0
  186.2110  178.1740  144.4510 C   0  0  0  0  0  0  0  0  0  0  0  0
  185.7550  178.2860  146.1870 S   0  0  0  0  0  1  0  0  0  0  0  0
  187.7880  177.5550  142.7120 C   0  0  0  0  0  3  0  0  0  0  0  0
  185.6600  178.5420  142.1040 C   0  0  0  0  0  0  0  0  0  0  0  0
  187.4570  177.6420  144.0660 C   0  0  0  0  0  0  0  0  0  0  0  0
  186.8960  178.0030  141.7380 C   0  0  0  0  0  3  0  0  0  0  0  0
  185.3150  178.6280  143.4690 C   0  0  0  0  0  0  0  0  0  0  0  0
  184.0840  179.1600  143.8460 O   0  0  0  0  0  1  0  0  0  0  0  0
  189.3890  178.1070  145.3450 O   0  0  0  0  0  1  0  0  0  0  0  0
  188.4330  177.1280  145.0720 C   0  0  0  0  0  2  0  0  0  0  0  0
  182.0480  176.3720  136.4460 C   0  0  0  0  0  2  0  0  0  0  0  0
  182.5140  175.6820  135.3280 O   0  0  0  0  0  1  0  0  0  0  0  0
  186.4000  176.8380  137.5940 C   0  0  0  0  0  2  0  0  0  0  0  0
  186.7130  175.5290  137.2190 O   0  0  0  0  0  1  0  0  0  0  0  0
  1 14  1  0  0  0  0
  2  4  1  1  0  0  0
  2  5  1  0  0  0  0
  2  7  1  0  0  0  0
  3  1  2  0  0  0  0
  4  1  1  0  0  0  0
  5 11  1  6  0  0  0
  6 17  1  0  0  0  0
  7 15  1  0  0  0  0
  7 13  1  1  0  0  0
  8 17  1  0  0  0  0
  9 15  1  0  0  0  0
  9  8  1  6  0  0  0
 10 31  1  1  0  0  0
 10  4  1  0  0  0  0
 11  9  1  0  0  0  0
 12 10  1  0  0  0  0
 12 16  1  0  0  0  0
 14 13  1  0  0  0  0
 14 22  1  1  0  0  0
 15 18  1  1  0  0  0
 16 29  1  6  0  0  0
 16  5  1  0  0  0  0
 18  6  1  0  0  0  0
 19 20  1  0  0  0  0
 21 23  2  0  0  0  0
 22 25  1  0  0  0  0
 23 19  1  0  0  0  0
 23 28  1  0  0  0  0
 24 22  2  0  0  0  0
 24 21  1  0  0  0  0
 25 26  1  0  0  0  0
 25 19  2  0  0  0  0
 28 27  1  0  0  0  0
 30 29  1  0  0  0  0
 32 31  1  0  0  0  0
M  END
>  <MODEL>
6

>  <REMARK>
 VINA RESULT:      -6.4      3.701      7.774
  Name = 
  4 active torsions:
  status: ('A' for Active; 'I' for Inactive)
    1  A    between atoms: C_13  and  C_29
    2  A    between atoms: CA_14  and  C_21
    3  A    between atoms: C_16  and  CA_27
    4  A    between atoms: C_19  and  C_26
                            x       y       z     vdW  Elec       q    Type
                         _______ _______ _______ _____ _____    ______ ____

>  <TORSDO>
F 4

$$$$
=
 OpenBabel11052414273D

 32 36  0  0  1  0  0  0  0  0999 V2000
  191.3550  177.3790  139.2660 C   0  0  0  0  0  0  0  0  0  0  0  0
  190.0010  176.5210  137.3330 C   0  0  1  0  0  3  0  0  0  0  0  0
  192.4710  177.8430  139.6240 O   0  0  0  0  0  0  0  0  0  0  0  0
  191.2410  176.5020  138.1230 N   0  0  0  0  0  0  0  0  0  0  0  0
  189.4820  175.0790  137.1610 C   0  0  1  0  0  3  0  0  0  0  0  0
  185.0850  177.3830  137.4170 C   0  0  0  0  0  2  0  0  0  0  0  0
  188.9210  177.4260  137.9680 C   0  0  2  0  0  3  0  0  0  0  0  0
  185.9070  175.3970  136.7000 C   0  0  0  0  0  2  0  0  0  0  0  0
  187.3070  175.6320  137.2630 C   0  0  1  0  0  3  0  0  0  0  0  0
  192.3370  175.6480  137.6120 C   0  0  2  0  0  3  0  0  0  0  0  0
  188.2780  175.0480  136.4330 O   0  0  0  0  0  0  0  0  0  0  0  0
  191.8320  174.2250  137.3220 C   0  0  0  0  0  2  0  0  0  0  0  0
  188.9010  177.2190  139.4140 N   0  0  0  0  0  2  0  0  0  0  0  0
  190.1050  177.8290  139.9840 C   0  0  1  0  0  3  0  0  0  0  0  0
  187.5520  177.1430  137.3390 C   0  0  1  0  0  3  0  0  0  0  0  0
  190.5480  174.2090  136.4900 C   0  0  2  0  0  3  0  0  0  0  0  0
  184.9510  175.9860  137.5490 O   0  0  0  0  0  0  0  0  0  0  0  0
  186.3990  177.8510  138.0470 C   0  0  0  0  0  2  0  0  0  0  0  0
  189.2260  177.4720  143.6940 C   0  0  0  0  0  0  0  0  0  0  0  0
  187.8400  177.7820  144.7970 S   0  0  0  0  0  1  0  0  0  0  0  0
  191.4930  176.6920  143.3100 C   0  0  0  0  0  3  0  0  0  0  0  0
  190.1850  177.5320  141.4530 C   0  0  0  0  0  0  0  0  0  0  0  0
  190.4310  176.9340  144.1860 C   0  0  0  0  0  0  0  0  0  0  0  0
  191.3710  176.9900  141.9540 C   0  0  0  0  0  3  0  0  0  0  0  0
  189.1050  177.7750  142.3270 C   0  0  0  0  0  0  0  0  0  0  0  0
  187.9170  178.3120  141.8390 O   0  0  0  0  0  1  0  0  0  0  0  0
  191.7900  177.1200  146.1100 O   0  0  0  0  0  1  0  0  0  0  0  0
  190.6000  176.5770  145.6250 C   0  0  0  0  0  2  0  0  0  0  0  0
  190.8170  174.6390  135.0500 C   0  0  0  0  0  2  0  0  0  0  0  0
  192.0010  174.0630  134.5940 O   0  0  0  0  0  1  0  0  0  0  0  0
  193.5570  175.5640  138.5300 C   0  0  0  0  0  2  0  0  0  0  0  0
  194.7420  175.5790  137.7880 O   0  0  0  0  0  1  0  0  0  0  0  0
  1  3  2  0  0  0  0
  1 14  1  0  0  0  0
  2  7  1  0  0  0  0
  2  4  1  1  0  0  0
  4  1  1  0  0  0  0
  5 11  1  6  0  0  0
  5  2  1  0  0  0  0
  6 17  1  0  0  0  0
  6 18  1  0  0  0  0
  7 13  1  1  0  0  0
  8 17  1  0  0  0  0
  9  8  1  6  0  0  0
  9 15  1  0  0  0  0
 10  4  1  0  0  0  0
 10 31  1  1  0  0  0
 11  9  1  0  0  0  0
 12 10  1  0  0  0  0
 13 14  1  0  0  0  0
 14 22  1  1  0  0  0
 15  7  1  0  0  0  0
 15 18  1  1  0  0  0
 16 29  1  6  0  0  0
 16  5  1  0  0  0  0
 16 12  1  0  0  0  0
 19 23  1  0  0  0  0
 19 20  1  0  0  0  0
 21 23  2  0  0  0  0
 22 24  2  0  0  0  0
 22 25  1  0  0  0  0
 23 28  1  0  0  0  0
 24 21  1  0  0  0  0
 25 19  2  0  0  0  0
 26 25  1  0  0  0  0
 28 27  1  0  0  0  0
 30 29  1  0  0  0  0
 32 31  1  0  0  0  0
M  END
>  <MODEL>
7

>  <REMARK>
 VINA RESULT:      -6.3      2.921      7.949
  Name = 
  4 active torsions:
  status: ('A' for Active; 'I' for Inactive)
    1  A    between atoms: C_13  and  C_29
    2  A    between atoms: CA_14  and  C_21
    3  A    between atoms: C_16  and  CA_27
    4  A    between atoms: C_19  and  C_26
                            x       y       z     vdW  Elec       q    Type
                         _______ _______ _______ _____ _____    ______ ____

>  <TORSDO>
F 4

$$$$
=
 OpenBabel11052414273D

 32 36  0  0  1  0  0  0  0  0999 V2000
  189.3980  177.9620  139.0790 C   0  0  0  0  0  0  0  0  0  0  0  0
  188.7870  176.8140  136.9300 C   0  0  1  0  0  3  0  0  0  0  0  0
  190.2820  178.6270  139.6830 O   0  0  0  0  0  0  0  0  0  0  0  0
  189.7480  177.0410  138.0210 N   0  0  0  0  0  0  0  0  0  0  0  0
  188.5760  175.2980  136.7420 C   0  0  1  0  0  3  0  0  0  0  0  0
  183.9660  176.7930  135.6340 C   0  0  0  0  0  2  0  0  0  0  0  0
  187.4430  177.5330  137.1810 C   0  0  2  0  0  3  0  0  0  0  0  0
  185.2650  174.9620  135.3230 C   0  0  0  0  0  2  0  0  0  0  0  0
  186.3980  175.4600  136.2170 C   0  0  1  0  0  3  0  0  0  0  0  0
  191.0640  176.3790  137.8900 C   0  0  2  0  0  3  0  0  0  0  0  0
  187.6410  175.0300  135.7250 O   0  0  0  0  0  0  0  0  0  0  0  0
  190.8960  174.8800  137.5910 C   0  0  0  0  0  2  0  0  0  0  0  0
  187.0580  177.3740  138.5820 N   0  0  0  0  0  2  0  0  0  0  0  0
  187.9430  178.2060  139.4010 C   0  0  1  0  0  3  0  0  0  0  0  0
  186.3650  176.9930  136.2350 C   0  0  1  0  0  3  0  0  0  0  0  0
  189.9110  174.6100  136.4510 C   0  0  2  0  0  3  0  0  0  0  0  0
  184.0290  175.4000  135.8370 O   0  0  0  0  0  0  0  0  0  0  0  0
  184.9620  177.5070  136.5520 C   0  0  0  0  0  2  0  0  0  0  0  0
  186.3290  178.3080  142.8720 C   0  0  0  0  0  0  0  0  0  0  0  0
  184.9130  179.0560  143.6890 S   0  0  0  0  0  1  0  0  0  0  0  0
  188.3050  176.8980  142.9280 C   0  0  0  0  0  3  0  0  0  0  0  0
  187.6610  177.9760  140.8570 C   0  0  0  0  0  0  0  0  0  0  0  0
  187.2160  177.4770  143.5840 C   0  0  0  0  0  0  0  0  0  0  0  0
  188.5270  177.1470  141.5740 C   0  0  0  0  0  3  0  0  0  0  0  0
  186.5560  178.5610  141.5080 C   0  0  0  0  0  0  0  0  0  0  0  0
  185.6840  179.3860  140.8030 O   0  0  0  0  0  1  0  0  0  0  0  0
  188.0770  177.6460  145.7780 O   0  0  0  0  0  1  0  0  0  0  0  0
  187.0050  177.1620  145.0280 C   0  0  0  0  0  2  0  0  0  0  0  0
  190.4940  175.0330  135.1040 C   0  0  0  0  0  2  0  0  0  0  0  0
  191.7740  174.5020  134.9510 O   0  0  0  0  0  1  0  0  0  0  0  0
  191.9810  176.5420  139.1030 C   0  0  0  0  0  2  0  0  0  0  0  0
  193.3130  176.6920  138.7060 O   0  0  0  0  0  1  0  0  0  0  0  0
  1 14  1  0  0  0  0
  1  3  2  0  0  0  0
  2  7  1  0  0  0  0
  2  4  1  1  0  0  0
  4  1  1  0  0  0  0
  5 11  1  6  0  0  0
  5  2  1  0  0  0  0
  6 17  1  0  0  0  0
  6 18  1  0  0  0  0
  7 13  1  1  0  0  0
  8 17  1  0  0  0  0
  9  8  1  6  0  0  0
  9 15  1  0  0  0  0
 10  4  1  0  0  0  0
 10 31  1  1  0  0  0
 11  9  1  0  0  0  0
 12 10  1  0  0  0  0
 13 14  1  0  0  0  0
 14 22  1  1  0  0  0
 15 18  1  1  0  0  0
 15  7  1  0  0  0  0
 16 29  1  6  0  0  0
 16  5  1  0  0  0  0
 16 12  1  0  0  0  0
 19 23  1  0  0  0  0
 19 20  1  0  0  0  0
 21 23  2  0  0  0  0
 22 25  1  0  0  0  0
 22 24  2  0  0  0  0
 23 28  1  0  0  0  0
 24 21  1  0  0  0  0
 25 19  2  0  0  0  0
 26 25  1  0  0  0  0
 28 27  1  0  0  0  0
 30 29  1  0  0  0  0
 32 31  1  0  0  0  0
M  END
>  <MODEL>
8

>  <REMARK>
 VINA RESULT:      -6.3      2.933      7.978
  Name = 
  4 active torsions:
  status: ('A' for Active; 'I' for Inactive)
    1  A    between atoms: C_13  and  C_29
    2  A    between atoms: CA_14  and  C_21
    3  A    between atoms: C_16  and  CA_27
    4  A    between atoms: C_19  and  C_26
                            x       y       z     vdW  Elec       q    Type
                         _______ _______ _______ _____ _____    ______ ____

>  <TORSDO>
F 4

$$$$
=
 OpenBabel11052414273D

 32 36  0  0  1  0  0  0  0  0999 V2000
  188.4280  178.2380  138.9950 C   0  0  0  0  0  0  0  0  0  0  0  0
  187.6230  176.9780  136.9780 C   0  0  1  0  0  3  0  0  0  0  0  0
  189.3470  178.9620  139.4660 O   0  0  0  0  0  0  0  0  0  0  0  0
  188.6930  177.2880  137.9380 N   0  0  0  0  0  0  0  0  0  0  0  0
  187.4590  175.4480  136.8720 C   0  0  1  0  0  3  0  0  0  0  0  0
  182.6910  176.7130  136.2590 C   0  0  0  0  0  2  0  0  0  0  0  0
  186.2870  177.6540  137.3570 C   0  0  2  0  0  3  0  0  0  0  0  0
  184.0230  174.9230  135.8650 C   0  0  0  0  0  2  0  0  0  0  0  0
  185.2300  175.5020  136.6010 C   0  0  1  0  0  3  0  0  0  0  0  0
  190.0140  176.6730  137.6780 C   0  0  2  0  0  3  0  0  0  0  0  0
  186.4250  175.1010  135.9830 O   0  0  0  0  0  0  0  0  0  0  0  0
  189.8780  175.1580  137.4570 C   0  0  0  0  0  2  0  0  0  0  0  0
  186.0740  177.5380  138.7990 N   0  0  0  0  0  2  0  0  0  0  0  0
  187.0120  178.4380  139.4760 C   0  0  1  0  0  3  0  0  0  0  0  0
  185.1310  177.0320  136.5660 C   0  0  1  0  0  3  0  0  0  0  0  0
  188.7800  174.8010  136.4520 C   0  0  2  0  0  3  0  0  0  0  0  0
  182.8380  175.3330  136.5050 O   0  0  0  0  0  0  0  0  0  0  0  0
  183.7540  177.5030  137.0260 C   0  0  0  0  0  2  0  0  0  0  0  0
  185.7510  178.5240  143.0910 C   0  0  0  0  0  0  0  0  0  0  0  0
  184.3300  179.1180  144.0190 S   0  0  0  0  0  1  0  0  0  0  0  0
  187.9030  177.4050  143.0000 C   0  0  0  0  0  3  0  0  0  0  0  0
  186.9110  178.2590  140.9630 C   0  0  0  0  0  0  0  0  0  0  0  0
  186.8130  177.8670  143.7420 C   0  0  0  0  0  0  0  0  0  0  0  0
  187.9530  177.6020  141.6210 C   0  0  0  0  0  3  0  0  0  0  0  0
  185.8030  178.7240  141.7010 C   0  0  0  0  0  0  0  0  0  0  0  0
  184.7570  179.3780  141.0560 O   0  0  0  0  0  1  0  0  0  0  0  0
  188.0990  177.5660  145.7010 O   0  0  0  0  0  1  0  0  0  0  0  0
  186.7930  177.6130  145.2130 C   0  0  0  0  0  2  0  0  0  0  0  0
  189.1840  175.1890  135.0310 C   0  0  0  0  0  2  0  0  0  0  0  0
  190.4650  174.7160  134.7530 O   0  0  0  0  0  1  0  0  0  0  0  0
  191.0570  176.9230  138.7680 C   0  0  0  0  0  2  0  0  0  0  0  0
  190.9210  176.0030  139.8100 O   0  0  0  0  0  1  0  0  0  0  0  0
  1  3  2  0  0  0  0
  1 14  1  0  0  0  0
  2  7  1  0  0  0  0
  2  4  1  1  0  0  0
  4  1  1  0  0  0  0
  5 11  1  6  0  0  0
  5  2  1  0  0  0  0
  6 17  1  0  0  0  0
  6 18  1  0  0  0  0
  7 13  1  1  0  0  0
  8 17  1  0  0  0  0
  9  8  1  6  0  0  0
 10  4  1  0  0  0  0
 10 31  1  1  0  0  0
 11  9  1  0  0  0  0
 12 10  1  0  0  0  0
 13 14  1  0  0  0  0
 14 22  1  1  0  0  0
 15  9  1  0  0  0  0
 15 18  1  1  0  0  0
 15  7  1  0  0  0  0
 16 29  1  6  0  0  0
 16  5  1  0  0  0  0
 16 12  1  0  0  0  0
 19 23  1  0  0  0  0
 19 20  1  0  0  0  0
 21 23  2  0  0  0  0
 22 24  2  0  0  0  0
 22 25  1  0  0  0  0
 23 28  1  0  0  0  0
 24 21  1  0  0  0  0
 25 19  2  0  0  0  0
 26 25  1  0  0  0  0
 28 27  1  0  0  0  0
 30 29  1  0  0  0  0
 31 32  1  0  0  0  0
M  END
>  <MODEL>
9

>  <REMARK>
 VINA RESULT:      -6.3      3.009      7.905
  Name = 
  4 active torsions:
  status: ('A' for Active; 'I' for Inactive)
    1  A    between atoms: C_13  and  C_29
    2  A    between atoms: CA_14  and  C_21
    3  A    between atoms: C_16  and  CA_27
    4  A    between atoms: C_19  and  C_26
                            x       y       z     vdW  Elec       q    Type
                         _______ _______ _______ _____ _____    ______ ____

>  <TORSDO>
F 4

$$$$
