=
 OpenBabel11052412463D

 25 28  0  0  1  0  0  0  0  0999 V2000
  187.1830  177.8600  145.3740 C   0  0  0  0  0  0  0  0  0  0  0  0
  188.4670  177.4530  144.9660 C   0  0  0  0  0  0  0  0  0  0  0  0
  187.8760  177.7350  147.6970 C   0  0  0  0  0  3  0  0  0  0  0  0
  186.0620  178.1730  144.5820 C   0  0  0  0  0  0  0  0  0  0  0  0
  183.6470  178.8640  143.3560 C   0  0  0  0  0  3  0  0  0  0  0  0
  189.1150  177.3400  147.2920 N   0  0  0  0  0  0  0  0  0  0  0  0
  184.9520  178.5410  145.3400 C   0  0  0  0  0  0  0  0  0  0  0  0
  183.7370  178.8900  144.7550 C   0  0  0  0  0  3  0  0  0  0  0  0
  190.7220  176.7820  145.5850 C   0  0  0  0  0  0  0  0  0  0  0  0
  191.7740  176.4920  146.5990 C   0  0  0  0  0  1  0  0  0  0  0  0
  188.8150  177.2960  143.6210 C   0  0  0  0  0  3  0  0  0  0  0  0
  184.7580  178.4960  142.5750 C   0  0  0  0  0  3  0  0  0  0  0  0
  186.9100  177.9950  146.7320 C   0  0  0  0  0  0  0  0  0  0  0  0
  185.3180  178.4910  146.9840 S   0  0  0  0  0  0  0  0  0  0  0  0
  191.0200  176.6400  144.2660 N   0  0  0  0  0  0  0  0  0  0  0  0
  185.9730  178.1470  143.1860 C   0  0  0  0  0  3  0  0  0  0  0  0
  190.1080  176.8910  143.2870 C   0  0  0  0  0  0  0  0  0  0  0  0
  189.4350  177.1940  145.9700 C   0  0  0  0  0  0  0  0  0  0  0  0
  190.4800  176.6990  141.8600 C   0  0  0  0  0  2  0  0  0  0  0  0
  189.5480  177.5010  140.9680 C   0  0  0  0  0  2  0  0  0  0  0  0
  189.5410  176.9320  139.5580 C   0  0  2  0  0  3  0  0  0  0  0  0
  190.5360  175.9610  139.4400 O   0  0  0  0  0  1  0  0  0  0  0  0
  189.7530  178.0240  138.5150 C   0  0  0  0  0  2  0  0  0  0  0  0
  188.7640  179.0050  138.6200 O   0  0  0  0  0  0  0  0  0  0  0  0
  188.9210  179.7470  137.5450 O   0  0  0  0  0  1  0  0  0  0  0  0
  1 13  1  0  0  0  0
  2  1  2  0  0  0  0
  2 18  1  0  0  0  0
  4  7  1  0  0  0  0
  4  1  1  0  0  0  0
  5  8  1  0  0  0  0
  6  3  1  0  0  0  0
  7 14  1  0  0  0  0
  8  7  2  0  0  0  0
  9 18  1  0  0  0  0
  9 10  1  0  0  0  0
 11  2  1  0  0  0  0
 12 16  1  0  0  0  0
 12  5  2  0  0  0  0
 13 14  1  0  0  0  0
 13  3  2  0  0  0  0
 15  9  2  0  0  0  0
 16  4  2  0  0  0  0
 17 11  2  0  0  0  0
 17 15  1  0  0  0  0
 18  6  2  0  0  0  0
 19 17  1  0  0  0  0
 20 19  1  0  0  0  0
 21 22  1  1  0  0  0
 21 20  1  0  0  0  0
 23 24  1  0  0  0  0
 23 21  1  0  0  0  0
 25 24  1  0  0  0  0
M  END
>  <MODEL>
1

>  <REMARK>
 VINA RESULT:      -9.7      0.000      0.000
  Name = 
  5 active torsions:
  status: ('A' for Active; 'I' for Inactive)
    1  A    between atoms: C_2  and  O_7
    2  A    between atoms: C_2  and  C_21
    3  A    between atoms: C_6  and  C_15
    4  A    between atoms: C_6  and  C_23
    5  A    between atoms: C_15  and  C_21
                            x       y       z     vdW  Elec       q    Type
                         _______ _______ _______ _____ _____    ______ ____

>  <TORSDO>
F 5

$$$$
=
 OpenBabel11052412463D

 25 28  0  0  1  0  0  0  0  0999 V2000
  187.3420  177.8460  145.6650 C   0  0  0  0  0  0  0  0  0  0  0  0
  188.6620  177.4050  145.4590 C   0  0  0  0  0  0  0  0  0  0  0  0
  187.7340  177.9170  148.0590 C   0  0  0  0  0  3  0  0  0  0  0  0
  186.3330  178.0920  144.7140 C   0  0  0  0  0  0  0  0  0  0  0  0
  184.1010  178.6790  143.1370 C   0  0  0  0  0  3  0  0  0  0  0  0
  189.0100  177.4880  147.8490 N   0  0  0  0  0  0  0  0  0  0  0  0
  185.1410  178.5230  145.2920 C   0  0  0  0  0  0  0  0  0  0  0  0
  184.0140  178.8220  144.5300 C   0  0  0  0  0  3  0  0  0  0  0  0
  190.8130  176.7870  146.4130 C   0  0  0  0  0  0  0  0  0  0  0  0
  191.7250  176.5830  147.5730 C   0  0  0  0  0  1  0  0  0  0  0  0
  189.1760  177.1350  144.1870 C   0  0  0  0  0  3  0  0  0  0  0  0
  185.2970  178.2450  142.5380 C   0  0  0  0  0  3  0  0  0  0  0  0
  186.9010  178.0950  146.9620 C   0  0  0  0  0  0  0  0  0  0  0  0
  185.2960  178.6120  146.9670 S   0  0  0  0  0  0  0  0  0  0  0  0
  191.2740  176.5330  145.1590 N   0  0  0  0  0  0  0  0  0  0  0  0
  186.4210  177.9480  143.3250 C   0  0  0  0  0  3  0  0  0  0  0  0
  190.4950  176.7020  144.0550 C   0  0  0  0  0  0  0  0  0  0  0  0
  189.4920  177.2300  146.5960 C   0  0  0  0  0  0  0  0  0  0  0  0
  191.0430  176.3900  142.7070 C   0  0  0  0  0  2  0  0  0  0  0  0
  189.9960  176.6740  141.6440 C   0  0  0  0  0  2  0  0  0  0  0  0
  190.6620  177.0790  140.3380 C   0  0  2  0  0  3  0  0  0  0  0  0
  190.6290  176.0090  139.4430 O   0  0  0  0  0  1  0  0  0  0  0  0
  192.1030  177.5250  140.5620 C   0  0  0  0  0  2  0  0  0  0  0  0
  192.9100  177.1480  139.4860 O   0  0  0  0  0  0  0  0  0  0  0  0
  194.1120  177.0210  140.0040 O   0  0  0  0  0  1  0  0  0  0  0  0
  1 13  1  0  0  0  0
  2  1  2  0  0  0  0
  2 18  1  0  0  0  0
  4  7  1  0  0  0  0
  4  1  1  0  0  0  0
  5  8  1  0  0  0  0
  6  3  1  0  0  0  0
  7 14  1  0  0  0  0
  8  7  2  0  0  0  0
  9 18  1  0  0  0  0
  9 10  1  0  0  0  0
 11  2  1  0  0  0  0
 12  5  2  0  0  0  0
 12 16  1  0  0  0  0
 13 14  1  0  0  0  0
 13  3  2  0  0  0  0
 15  9  2  0  0  0  0
 16  4  2  0  0  0  0
 17 11  2  0  0  0  0
 17 15  1  0  0  0  0
 18  6  2  0  0  0  0
 19 17  1  0  0  0  0
 20 19  1  0  0  0  0
 21 22  1  6  0  0  0
 21 23  1  0  0  0  0
 21 20  1  0  0  0  0
 24 25  1  0  0  0  0
 24 23  1  0  0  0  0
M  END
>  <MODEL>
2

>  <REMARK>
 VINA RESULT:      -9.6      1.393      1.816
  Name = 
  5 active torsions:
  status: ('A' for Active; 'I' for Inactive)
    1  A    between atoms: C_2  and  O_7
    2  A    between atoms: C_2  and  C_21
    3  A    between atoms: C_6  and  C_15
    4  A    between atoms: C_6  and  C_23
    5  A    between atoms: C_15  and  C_21
                            x       y       z     vdW  Elec       q    Type
                         _______ _______ _______ _____ _____    ______ ____

>  <TORSDO>
F 5

$$$$
=
 OpenBabel11052412463D

 25 28  0  0  1  0  0  0  0  0999 V2000
  187.5040  177.8860  145.7490 C   0  0  0  0  0  0  0  0  0  0  0  0
  186.6770  178.1690  144.6480 C   0  0  0  0  0  0  0  0  0  0  0  0
  185.6720  178.3840  147.2610 C   0  0  0  0  0  3  0  0  0  0  0  0
  188.8540  177.4840  145.7610 C   0  0  0  0  0  0  0  0  0  0  0  0
  191.4980  176.6810  146.1830 C   0  0  0  0  0  3  0  0  0  0  0  0
  184.8790  178.6570  146.1870 N   0  0  0  0  0  0  0  0  0  0  0  0
  189.3480  177.2930  147.0500 C   0  0  0  0  0  0  0  0  0  0  0  0
  190.6610  176.8940  147.2880 C   0  0  0  0  0  3  0  0  0  0  0  0
  184.4950  178.8530  143.8160 C   0  0  0  0  0  0  0  0  0  0  0  0
  183.0820  179.2740  144.0290 C   0  0  0  0  0  1  0  0  0  0  0  0
  187.1250  178.0790  143.3260 C   0  0  0  0  0  3  0  0  0  0  0  0
  191.0150  176.8680  144.8750 C   0  0  0  0  0  3  0  0  0  0  0  0
  186.9880  177.9980  147.0370 C   0  0  0  0  0  0  0  0  0  0  0  0
  188.1530  177.6120  148.1930 S   0  0  0  0  0  0  0  0  0  0  0  0
  184.9700  178.7540  142.5460 N   0  0  0  0  0  0  0  0  0  0  0  0
  189.6880  177.2720  144.6570 C   0  0  0  0  0  3  0  0  0  0  0  0
  186.2490  178.3720  142.2800 C   0  0  0  0  0  0  0  0  0  0  0  0
  185.3370  178.5620  144.9020 C   0  0  0  0  0  0  0  0  0  0  0  0
  186.7250  178.3020  140.8720 C   0  0  0  0  0  2  0  0  0  0  0  0
  188.2250  178.5320  140.8190 C   0  0  0  0  0  2  0  0  0  0  0  0
  188.9000  177.4420  140.0020 C   0  0  2  0  0  3  0  0  0  0  0  0
  189.9470  176.8850  140.7370 O   0  0  0  0  0  1  0  0  0  0  0  0
  189.4260  177.9840  138.6770 C   0  0  0  0  0  2  0  0  0  0  0  0
  189.0700  179.3250  138.5160 O   0  0  0  0  0  0  0  0  0  0  0  0
  188.5580  179.3870  137.3060 O   0  0  0  0  0  1  0  0  0  0  0  0
  1  4  1  0  0  0  0
  1 13  2  0  0  0  0
  2 18  1  0  0  0  0
  2  1  1  0  0  0  0
  4  7  1  0  0  0  0
  5  8  1  0  0  0  0
  6  3  2  0  0  0  0
  7  8  2  0  0  0  0
  7 14  1  0  0  0  0
  9 10  1  0  0  0  0
  9 18  2  0  0  0  0
 11  2  2  0  0  0  0
 12  5  2  0  0  0  0
 13  3  1  0  0  0  0
 13 14  1  0  0  0  0
 15  9  1  0  0  0  0
 16 12  1  0  0  0  0
 16  4  2  0  0  0  0
 17 15  2  0  0  0  0
 17 11  1  0  0  0  0
 18  6  1  0  0  0  0
 19 17  1  0  0  0  0
 20 19  1  0  0  0  0
 21 22  1  1  0  0  0
 21 20  1  0  0  0  0
 23 21  1  0  0  0  0
 24 23  1  0  0  0  0
 25 24  1  0  0  0  0
M  END
>  <MODEL>
3

>  <REMARK>
 VINA RESULT:      -9.5      2.007      4.549
  Name = 
  5 active torsions:
  status: ('A' for Active; 'I' for Inactive)
    1  A    between atoms: C_2  and  O_7
    2  A    between atoms: C_2  and  C_21
    3  A    between atoms: C_6  and  C_15
    4  A    between atoms: C_6  and  C_23
    5  A    between atoms: C_15  and  C_21
                            x       y       z     vdW  Elec       q    Type
                         _______ _______ _______ _____ _____    ______ ____

>  <TORSDO>
F 5

$$$$
=
 OpenBabel11052412463D

 25 28  0  0  1  0  0  0  0  0999 V2000
  189.4630  177.5290  143.8840 C   0  0  0  0  0  0  0  0  0  0  0  0
  188.7890  177.8540  142.6940 C   0  0  0  0  0  0  0  0  0  0  0  0
  191.4800  177.0550  142.6180 C   0  0  0  0  0  3  0  0  0  0  0  0
  188.9780  177.5370  145.2060 C   0  0  0  0  0  0  0  0  0  0  0  0
  188.3820  177.4330  147.9350 C   0  0  0  0  0  3  0  0  0  0  0  0
  190.8170  177.3710  141.4710 N   0  0  0  0  0  0  0  0  0  0  0  0
  189.9420  177.1530  146.1360 C   0  0  0  0  0  0  0  0  0  0  0  0
  189.6710  177.0920  147.5010 C   0  0  0  0  0  3  0  0  0  0  0  0
  188.8510  178.0810  140.2720 C   0  0  0  0  0  0  0  0  0  0  0  0
  189.5580  177.9980  138.9630 C   0  0  0  0  0  1  0  0  0  0  0  0
  187.4500  178.2570  142.6720 C   0  0  0  0  0  3  0  0  0  0  0  0
  187.3970  177.8240  147.0090 C   0  0  0  0  0  3  0  0  0  0  0  0
  190.7980  177.1350  143.8260 C   0  0  0  0  0  0  0  0  0  0  0  0
  191.3970  176.7970  145.3650 S   0  0  0  0  0  0  0  0  0  0  0  0
  187.5470  178.4670  140.2940 N   0  0  0  0  0  0  0  0  0  0  0  0
  187.6910  177.8770  145.6370 C   0  0  0  0  0  3  0  0  0  0  0  0
  186.8430  178.5670  141.4550 C   0  0  0  0  0  0  0  0  0  0  0  0
  189.5070  177.7640  141.4730 C   0  0  0  0  0  0  0  0  0  0  0  0
  185.4120  178.9740  141.4210 C   0  0  0  0  0  2  0  0  0  0  0  0
  184.9210  179.2590  142.8300 C   0  0  0  0  0  2  0  0  0  0  0  0
  183.6400  178.4900  143.1110 C   0  0  2  0  0  3  0  0  0  0  0  0
  182.7020  178.7610  142.1140 O   0  0  0  0  0  1  0  0  0  0  0  0
  183.0640  178.8460  144.4780 C   0  0  0  0  0  2  0  0  0  0  0  0
  184.0130  179.5150  145.2540 O   0  0  0  0  0  0  0  0  0  0  0  0
  184.1440  178.7690  146.3290 O   0  0  0  0  0  1  0  0  0  0  0  0
  1  4  1  0  0  0  0
  2  1  1  0  0  0  0
  3 13  1  0  0  0  0
  4 16  2  0  0  0  0
  4  7  1  0  0  0  0
  6 18  1  0  0  0  0
  6  3  2  0  0  0  0
  7  8  2  0  0  0  0
  8  5  1  0  0  0  0
  9 15  2  0  0  0  0
  9 18  1  0  0  0  0
 10  9  1  0  0  0  0
 11  2  1  0  0  0  0
 12  5  2  0  0  0  0
 13  1  2  0  0  0  0
 13 14  1  0  0  0  0
 14  7  1  0  0  0  0
 15 17  1  0  0  0  0
 16 12  1  0  0  0  0
 17 11  2  0  0  0  0
 18  2  2  0  0  0  0
 19 17  1  0  0  0  0
 19 20  1  0  0  0  0
 20 21  1  0  0  0  0
 21 22  1  6  0  0  0
 21 23  1  0  0  0  0
 23 24  1  0  0  0  0
 24 25  1  0  0  0  0
M  END
>  <MODEL>
4

>  <REMARK>
 VINA RESULT:      -9.4      3.457      6.083
  Name = 
  5 active torsions:
  status: ('A' for Active; 'I' for Inactive)
    1  A    between atoms: C_2  and  O_7
    2  A    between atoms: C_2  and  C_21
    3  A    between atoms: C_6  and  C_15
    4  A    between atoms: C_6  and  C_23
    5  A    between atoms: C_15  and  C_21
                            x       y       z     vdW  Elec       q    Type
                         _______ _______ _______ _____ _____    ______ ____

>  <TORSDO>
F 5

$$$$
=
 OpenBabel11052412463D

 25 28  0  0  1  0  0  0  0  0999 V2000
  187.7200  177.7380  145.6340 C   0  0  0  0  0  0  0  0  0  0  0  0
  186.9750  178.0420  144.4810 C   0  0  0  0  0  0  0  0  0  0  0  0
  185.7790  178.1970  147.0170 C   0  0  0  0  0  3  0  0  0  0  0  0
  189.0670  177.3400  145.7360 C   0  0  0  0  0  0  0  0  0  0  0  0
  191.6770  176.5370  146.3350 C   0  0  0  0  0  3  0  0  0  0  0  0
  185.0660  178.4910  145.8940 N   0  0  0  0  0  0  0  0  0  0  0  0
  189.4660  177.1230  147.0540 C   0  0  0  0  0  0  0  0  0  0  0  0
  190.7600  176.7230  147.3800 C   0  0  0  0  0  3  0  0  0  0  0  0
  184.8560  178.7370  143.5070 C   0  0  0  0  0  0  0  0  0  0  0  0
  183.4290  179.1490  143.6240 C   0  0  0  0  0  1  0  0  0  0  0  0
  187.5190  177.9830  143.1940 C   0  0  0  0  0  3  0  0  0  0  0  0
  191.2900  176.7500  144.9990 C   0  0  0  0  0  3  0  0  0  0  0  0
  187.1100  177.8200  146.8830 C   0  0  0  0  0  0  0  0  0  0  0  0
  188.1880  177.4130  148.1130 S   0  0  0  0  0  0  0  0  0  0  0  0
  185.4240  178.6680  142.2730 N   0  0  0  0  0  0  0  0  0  0  0  0
  189.9810  177.1540  144.6930 C   0  0  0  0  0  3  0  0  0  0  0  0
  186.7210  178.2960  142.0940 C   0  0  0  0  0  0  0  0  0  0  0  0
  185.6180  178.4250  144.6450 C   0  0  0  0  0  0  0  0  0  0  0  0
  187.2990  178.2570  140.7230 C   0  0  0  0  0  2  0  0  0  0  0  0
  188.7320  177.7580  140.7790 C   0  0  0  0  0  2  0  0  0  0  0  0
  189.4440  178.0400  139.4650 C   0  0  2  0  0  3  0  0  0  0  0  0
  188.7010  178.9530  138.7160 O   0  0  0  0  0  1  0  0  0  0  0  0
  189.6590  176.7610  138.6620 C   0  0  0  0  0  2  0  0  0  0  0  0
  190.5470  175.9090  139.3210 O   0  0  0  0  0  0  0  0  0  0  0  0
  191.0600  175.1630  138.3660 O   0  0  0  0  0  1  0  0  0  0  0  0
  1  4  1  0  0  0  0
  1 13  2  0  0  0  0
  2 18  1  0  0  0  0
  2  1  1  0  0  0  0
  4  7  1  0  0  0  0
  5  8  1  0  0  0  0
  6  3  2  0  0  0  0
  7  8  2  0  0  0  0
  7 14  1  0  0  0  0
  9 10  1  0  0  0  0
  9 18  2  0  0  0  0
 11  2  2  0  0  0  0
 12  5  2  0  0  0  0
 13  3  1  0  0  0  0
 13 14  1  0  0  0  0
 15  9  1  0  0  0  0
 16 12  1  0  0  0  0
 16  4  2  0  0  0  0
 17 15  2  0  0  0  0
 17 11  1  0  0  0  0
 18  6  1  0  0  0  0
 19 20  1  0  0  0  0
 19 17  1  0  0  0  0
 21 22  1  6  0  0  0
 21 20  1  0  0  0  0
 23 24  1  0  0  0  0
 23 21  1  0  0  0  0
 25 24  1  0  0  0  0
M  END
>  <MODEL>
5

>  <REMARK>
 VINA RESULT:      -9.3      1.936      4.725
  Name = 
  5 active torsions:
  status: ('A' for Active; 'I' for Inactive)
    1  A    between atoms: C_2  and  O_7
    2  A    between atoms: C_2  and  C_21
    3  A    between atoms: C_6  and  C_15
    4  A    between atoms: C_6  and  C_23
    5  A    between atoms: C_15  and  C_21
                            x       y       z     vdW  Elec       q    Type
                         _______ _______ _______ _____ _____    ______ ____

>  <TORSDO>
F 5

$$$$
=
 OpenBabel11052412463D

 25 28  0  0  1  0  0  0  0  0999 V2000
  186.4020  178.3710  142.6460 C   0  0  0  0  0  0  0  0  0  0  0  0
  187.6370  178.1380  142.0150 C   0  0  0  0  0  0  0  0  0  0  0  0
  185.3860  178.8470  140.4940 C   0  0  0  0  0  3  0  0  0  0  0  0
  186.0820  178.3040  144.0160 C   0  0  0  0  0  0  0  0  0  0  0  0
  185.0770  178.2710  146.6240 C   0  0  0  0  0  3  0  0  0  0  0  0
  186.5870  178.6210  139.8920 N   0  0  0  0  0  0  0  0  0  0  0  0
  184.7450  178.6000  144.2720 C   0  0  0  0  0  0  0  0  0  0  0  0
  184.2190  178.5920  145.5620 C   0  0  0  0  0  3  0  0  0  0  0  0
  188.9270  178.0490  139.9540 C   0  0  0  0  0  0  0  0  0  0  0  0
  189.0500  178.1830  138.4750 C   0  0  0  0  0  1  0  0  0  0  0  0
  188.7900  177.7830  142.7220 C   0  0  0  0  0  3  0  0  0  0  0  0
  186.4300  177.9680  146.3820 C   0  0  0  0  0  3  0  0  0  0  0  0
  185.2970  178.7210  141.8750 C   0  0  0  0  0  0  0  0  0  0  0  0
  183.9330  178.9500  142.8380 S   0  0  0  0  0  0  0  0  0  0  0  0
  190.0250  177.7070  140.6790 N   0  0  0  0  0  0  0  0  0  0  0  0
  186.9400  177.9830  145.0740 C   0  0  0  0  0  3  0  0  0  0  0  0
  189.9820  177.5640  142.0320 C   0  0  0  0  0  0  0  0  0  0  0  0
  187.7020  178.2740  140.6040 C   0  0  0  0  0  0  0  0  0  0  0  0
  191.2180  177.2090  142.7800 C   0  0  0  0  0  2  0  0  0  0  0  0
  191.2690  177.9740  144.0920 C   0  0  0  0  0  2  0  0  0  0  0  0
  191.5320  177.0250  145.2500 C   0  0  2  0  0  3  0  0  0  0  0  0
  191.7980  175.7470  144.7570 O   0  0  0  0  0  1  0  0  0  0  0  0
  190.3490  176.9760  146.2110 C   0  0  0  0  0  2  0  0  0  0  0  0
  190.7400  176.4570  147.4480 O   0  0  0  0  0  0  0  0  0  0  0  0
  191.9360  176.9630  147.6550 O   0  0  0  0  0  1  0  0  0  0  0  0
  1  4  1  0  0  0  0
  2  1  1  0  0  0  0
  2 11  1  0  0  0  0
  3 13  1  0  0  0  0
  4  7  2  0  0  0  0
  4 16  1  0  0  0  0
  6  3  2  0  0  0  0
  6 18  1  0  0  0  0
  7  8  1  0  0  0  0
  8  5  2  0  0  0  0
  9 18  1  0  0  0  0
  9 15  2  0  0  0  0
 10  9  1  0  0  0  0
 12  5  1  0  0  0  0
 13  1  2  0  0  0  0
 13 14  1  0  0  0  0
 14  7  1  0  0  0  0
 15 17  1  0  0  0  0
 16 12  2  0  0  0  0
 17 11  2  0  0  0  0
 17 19  1  0  0  0  0
 18  2  2  0  0  0  0
 19 20  1  0  0  0  0
 20 21  1  0  0  0  0
 21 22  1  6  0  0  0
 21 23  1  0  0  0  0
 23 24  1  0  0  0  0
 24 25  1  0  0  0  0
M  END
>  <MODEL>
6

>  <REMARK>
 VINA RESULT:      -9.1      3.293      5.429
  Name = 
  5 active torsions:
  status: ('A' for Active; 'I' for Inactive)
    1  A    between atoms: C_2  and  O_7
    2  A    between atoms: C_2  and  C_21
    3  A    between atoms: C_6  and  C_15
    4  A    between atoms: C_6  and  C_23
    5  A    between atoms: C_15  and  C_21
                            x       y       z     vdW  Elec       q    Type
                         _______ _______ _______ _____ _____    ______ ____

>  <TORSDO>
F 5

$$$$
=
 OpenBabel11052412463D

 25 28  0  0  1  0  0  0  0  0999 V2000
  186.2590  178.2500  144.3210 C   0  0  0  0  0  0  0  0  0  0  0  0
  186.3820  178.3670  142.9250 C   0  0  0  0  0  0  0  0  0  0  0  0
  183.9230  178.8910  144.1740 C   0  0  0  0  0  3  0  0  0  0  0  0
  187.2370  177.8880  145.2680 C   0  0  0  0  0  0  0  0  0  0  0  0
  188.8890  177.2160  147.4200 C   0  0  0  0  0  3  0  0  0  0  0  0
  184.0530  179.0020  142.8230 N   0  0  0  0  0  0  0  0  0  0  0  0
  186.7460  177.8780  146.5720 C   0  0  0  0  0  0  0  0  0  0  0  0
  187.5480  177.5470  147.6620 C   0  0  0  0  0  3  0  0  0  0  0  0
  185.3380  178.8810  140.7880 C   0  0  0  0  0  0  0  0  0  0  0  0
  184.1660  179.2890  139.9640 C   0  0  0  0  0  1  0  0  0  0  0  0
  187.5820  178.1200  142.2510 C   0  0  0  0  0  3  0  0  0  0  0  0
  189.4000  177.2200  146.1090 C   0  0  0  0  0  3  0  0  0  0  0  0
  185.0310  178.5130  144.9220 C   0  0  0  0  0  0  0  0  0  0  0  0
  185.1180  178.3110  146.5940 S   0  0  0  0  0  0  0  0  0  0  0  0
  186.5240  178.6320  140.1710 N   0  0  0  0  0  0  0  0  0  0  0  0
  188.5750  177.5570  145.0250 C   0  0  0  0  0  3  0  0  0  0  0  0
  187.6330  178.2530  140.8630 C   0  0  0  0  0  0  0  0  0  0  0  0
  185.2360  178.7540  142.1840 C   0  0  0  0  0  0  0  0  0  0  0  0
  188.9120  178.0140  140.1410 C   0  0  0  0  0  2  0  0  0  0  0  0
  189.7860  177.0590  140.9360 C   0  0  0  0  0  2  0  0  0  0  0  0
  191.1050  177.7230  141.2980 C   0  0  2  0  0  3  0  0  0  0  0  0
  192.0520  177.4530  140.3100 O   0  0  0  0  0  1  0  0  0  0  0  0
  191.6160  177.2450  142.6540 C   0  0  0  0  0  2  0  0  0  0  0  0
  191.0710  176.0000  142.9760 O   0  0  0  0  0  0  0  0  0  0  0  0
  191.7060  175.6350  144.0680 O   0  0  0  0  0  1  0  0  0  0  0  0
  1 13  2  0  0  0  0
  1  4  1  0  0  0  0
  2  1  1  0  0  0  0
  3 13  1  0  0  0  0
  4  7  1  0  0  0  0
  5  8  1  0  0  0  0
  6  3  2  0  0  0  0
  7 14  1  0  0  0  0
  7  8  2  0  0  0  0
  9 18  1  0  0  0  0
 10  9  1  0  0  0  0
 11  2  1  0  0  0  0
 12  5  2  0  0  0  0
 13 14  1  0  0  0  0
 15  9  2  0  0  0  0
 15 17  1  0  0  0  0
 16  4  2  0  0  0  0
 16 12  1  0  0  0  0
 17 11  2  0  0  0  0
 18  6  1  0  0  0  0
 18  2  2  0  0  0  0
 19 17  1  0  0  0  0
 19 20  1  0  0  0  0
 20 21  1  0  0  0  0
 21 22  1  6  0  0  0
 21 23  1  0  0  0  0
 23 24  1  0  0  0  0
 24 25  1  0  0  0  0
M  END
>  <MODEL>
7

>  <REMARK>
 VINA RESULT:      -8.9      2.516      4.985
  Name = 
  5 active torsions:
  status: ('A' for Active; 'I' for Inactive)
    1  A    between atoms: C_2  and  O_7
    2  A    between atoms: C_2  and  C_21
    3  A    between atoms: C_6  and  C_15
    4  A    between atoms: C_6  and  C_23
    5  A    between atoms: C_15  and  C_21
                            x       y       z     vdW  Elec       q    Type
                         _______ _______ _______ _____ _____    ______ ____

>  <TORSDO>
F 5

$$$$
=
 OpenBabel11052412463D

 25 28  0  0  1  0  0  0  0  0999 V2000
  189.2530  177.5370  143.7870 C   0  0  0  0  0  0  0  0  0  0  0  0
  188.4420  177.9040  142.6980 C   0  0  0  0  0  0  0  0  0  0  0  0
  191.1230  177.1780  142.2830 C   0  0  0  0  0  3  0  0  0  0  0  0
  188.9180  177.4680  145.1540 C   0  0  0  0  0  0  0  0  0  0  0  0
  188.6340  177.2150  147.9230 C   0  0  0  0  0  3  0  0  0  0  0  0
  190.3290  177.5330  141.2350 N   0  0  0  0  0  0  0  0  0  0  0  0
  189.9880  177.0630  145.9500 C   0  0  0  0  0  0  0  0  0  0  0  0
  189.8730  176.9280  147.3320 C   0  0  0  0  0  3  0  0  0  0  0  0
  188.2280  178.2510  140.2990 C   0  0  0  0  0  0  0  0  0  0  0  0
  188.7850  178.2510  138.9170 C   0  0  0  0  0  1  0  0  0  0  0  0
  187.1020  178.2740  142.8460 C   0  0  0  0  0  3  0  0  0  0  0  0
  187.5440  177.6260  147.1340 C   0  0  0  0  0  3  0  0  0  0  0  0
  190.5790  177.1810  143.5620 C   0  0  0  0  0  0  0  0  0  0  0  0
  191.3540  176.7820  145.0050 S   0  0  0  0  0  0  0  0  0  0  0  0
  186.9280  178.6030  140.4860 N   0  0  0  0  0  0  0  0  0  0  0  0
  187.6820  177.7540  145.7420 C   0  0  0  0  0  3  0  0  0  0  0  0
  186.3570  178.6280  141.7220 C   0  0  0  0  0  0  0  0  0  0  0  0
  189.0210  177.8920  141.4020 C   0  0  0  0  0  0  0  0  0  0  0  0
  184.9230  179.0000  141.8680 C   0  0  0  0  0  2  0  0  0  0  0  0
  184.3320  178.3160  143.0890 C   0  0  0  0  0  2  0  0  0  0  0  0
  183.3320  179.2310  143.7780 C   0  0  2  0  0  3  0  0  0  0  0  0
  183.3760  179.0210  145.1560 O   0  0  0  0  0  1  0  0  0  0  0  0
  181.9160  178.9990  143.2610 C   0  0  0  0  0  2  0  0  0  0  0  0
  181.0290  178.8060  144.3220 O   0  0  0  0  0  0  0  0  0  0  0  0
  179.8480  179.0980  143.8220 O   0  0  0  0  0  1  0  0  0  0  0  0
  1  4  1  0  0  0  0
  2 11  1  0  0  0  0
  2  1  1  0  0  0  0
  3 13  1  0  0  0  0
  4 16  2  0  0  0  0
  4  7  1  0  0  0  0
  6 18  1  0  0  0  0
  6  3  2  0  0  0  0
  7  8  2  0  0  0  0
  8  5  1  0  0  0  0
  9 15  2  0  0  0  0
  9 18  1  0  0  0  0
 10  9  1  0  0  0  0
 12  5  2  0  0  0  0
 13  1  2  0  0  0  0
 13 14  1  0  0  0  0
 14  7  1  0  0  0  0
 15 17  1  0  0  0  0
 16 12  1  0  0  0  0
 17 19  1  0  0  0  0
 17 11  2  0  0  0  0
 18  2  2  0  0  0  0
 19 20  1  0  0  0  0
 20 21  1  0  0  0  0
 21 22  1  1  0  0  0
 23 21  1  0  0  0  0
 23 24  1  0  0  0  0
 25 24  1  0  0  0  0
M  END
>  <MODEL>
8

>  <REMARK>
 VINA RESULT:      -8.8      3.897      6.453
  Name = 
  5 active torsions:
  status: ('A' for Active; 'I' for Inactive)
    1  A    between atoms: C_2  and  O_7
    2  A    between atoms: C_2  and  C_21
    3  A    between atoms: C_6  and  C_15
    4  A    between atoms: C_6  and  C_23
    5  A    between atoms: C_15  and  C_21
                            x       y       z     vdW  Elec       q    Type
                         _______ _______ _______ _____ _____    ______ ____

>  <TORSDO>
F 5

$$$$
=
 OpenBabel11052412463D

 25 28  0  0  1  0  0  0  0  0999 V2000
  187.1860  177.9170  145.5120 C   0  0  0  0  0  0  0  0  0  0  0  0
  186.2960  178.2540  144.4760 C   0  0  0  0  0  0  0  0  0  0  0  0
  185.4320  178.2870  147.1480 C   0  0  0  0  0  3  0  0  0  0  0  0
  188.5400  177.5380  145.4250 C   0  0  0  0  0  0  0  0  0  0  0  0
  191.2140  176.7560  145.6530 C   0  0  0  0  0  3  0  0  0  0  0  0
  184.5780  178.6130  146.1380 N   0  0  0  0  0  0  0  0  0  0  0  0
  189.1060  177.2750  146.6710 C   0  0  0  0  0  0  0  0  0  0  0  0
  190.4360  176.8850  146.8130 C   0  0  0  0  0  3  0  0  0  0  0  0
  184.0630  178.9510  143.8090 C   0  0  0  0  0  0  0  0  0  0  0  0
  182.6570  179.3330  144.1230 C   0  0  0  0  0  1  0  0  0  0  0  0
  186.6720  178.2550  143.1300 C   0  0  0  0  0  3  0  0  0  0  0  0
  190.6570  177.0160  144.3870 C   0  0  0  0  0  3  0  0  0  0  0  0
  186.7390  177.9390  146.8300 C   0  0  0  0  0  0  0  0  0  0  0  0
  187.9710  177.5010  147.8950 S   0  0  0  0  0  0  0  0  0  0  0  0
  184.4690  178.9400  142.5110 N   0  0  0  0  0  0  0  0  0  0  0  0
  189.3150  177.4100  144.2670 C   0  0  0  0  0  3  0  0  0  0  0  0
  185.7370  178.5980  142.1530 C   0  0  0  0  0  0  0  0  0  0  0  0
  184.9670  178.6070  144.8270 C   0  0  0  0  0  0  0  0  0  0  0  0
  186.1350  178.6240  140.7200 C   0  0  0  0  0  2  0  0  0  0  0  0
  184.9460  179.0090  139.8580 C   0  0  0  0  0  2  0  0  0  0  0  0
  185.0860  178.4150  138.4650 C   0  0  2  0  0  3  0  0  0  0  0  0
  184.2740  177.2860  138.3530 O   0  0  0  0  0  1  0  0  0  0  0  0
  186.5340  178.0480  138.1580 C   0  0  0  0  0  2  0  0  0  0  0  0
  187.1180  179.0020  137.3220 O   0  0  0  0  0  0  0  0  0  0  0  0
  188.3890  179.0010  137.6590 O   0  0  0  0  0  1  0  0  0  0  0  0
  1 13  2  0  0  0  0
  2 18  1  0  0  0  0
  2  1  1  0  0  0  0
  4  1  1  0  0  0  0
  4  7  1  0  0  0  0
  5  8  1  0  0  0  0
  6  3  2  0  0  0  0
  7  8  2  0  0  0  0
  7 14  1  0  0  0  0
  9 10  1  0  0  0  0
  9 18  2  0  0  0  0
 11  2  2  0  0  0  0
 12  5  2  0  0  0  0
 13  3  1  0  0  0  0
 13 14  1  0  0  0  0
 15  9  1  0  0  0  0
 16 12  1  0  0  0  0
 16  4  2  0  0  0  0
 17 15  2  0  0  0  0
 17 11  1  0  0  0  0
 18  6  1  0  0  0  0
 19 17  1  0  0  0  0
 20 19  1  0  0  0  0
 21 22  1  1  0  0  0
 21 20  1  0  0  0  0
 23 21  1  0  0  0  0
 24 25  1  0  0  0  0
 24 23  1  0  0  0  0
M  END
>  <MODEL>
9

>  <REMARK>
 VINA RESULT:      -8.7      2.524      5.014
  Name = 
  5 active torsions:
  status: ('A' for Active; 'I' for Inactive)
    1  A    between atoms: C_2  and  O_7
    2  A    between atoms: C_2  and  C_21
    3  A    between atoms: C_6  and  C_15
    4  A    between atoms: C_6  and  C_23
    5  A    between atoms: C_15  and  C_21
                            x       y       z     vdW  Elec       q    Type
                         _______ _______ _______ _____ _____    ______ ____

>  <TORSDO>
F 5

$$$$
