=
 OpenBabel11052414253D

 34 38  0  0  1  0  0  0  0  0999 V2000
  187.6450  177.4680  146.6640 C   0  0  0  0  0  0  0  0  0  0  0  0
  190.0950  177.1140  146.1100 C   0  0  2  0  0  3  0  0  0  0  0  0
  188.3190  177.4820  144.3100 C   0  0  0  0  0  0  0  0  0  0  0  0
  189.0870  176.5430  142.0960 C   0  0  0  0  0  2  0  0  0  0  0  0
  190.1800  176.1220  147.0880 O   0  0  0  0  0  1  0  0  0  0  0  0
  190.7420  177.5560  143.7260 C   0  0  2  0  0  3  0  0  0  0  0  0
  188.6500  177.3280  145.6820 C   0  0  0  0  0  0  0  0  0  0  0  0
  191.7400  177.1820  142.6310 C   0  0  0  0  0  2  0  0  0  0  0  0
  189.8240  177.1540  140.9030 C   0  0  0  0  0  2  0  0  0  0  0  0
  186.9860  177.8140  143.9440 C   0  0  0  0  0  0  0  0  0  0  0  0
  186.3220  177.7020  146.2730 C   0  0  0  0  0  3  0  0  0  0  0  0
  191.0400  176.7390  144.9690 C   0  0  0  0  0  2  0  0  0  0  0  0
  191.2300  177.6660  141.2690 C   0  0  2  0  0  3  0  0  0  0  0  0
  189.3540  177.3050  143.3190 N   0  0  0  0  0  0  0  0  0  0  0  0
  185.9990  177.8650  144.9330 C   0  0  0  0  0  3  0  0  0  0  0  0
  182.6990  178.7580  143.0720 C   0  0  0  0  0  0  0  0  0  0  0  0
  182.2990  178.6450  141.8000 C   0  0  0  0  0  3  0  0  0  0  0  0
  185.0680  178.3070  142.3290 C   0  0  2  0  0  0  0  0  0  0  0  0
  183.2180  178.2150  140.7280 C   0  0  0  0  0  3  0  0  0  0  0  0
  184.0870  178.3650  143.5090 C   0  0  0  0  0  2  0  0  0  0  0  0
  186.0090  179.4820  142.3390 C   0  0  0  0  0  2  0  0  0  0  0  0
  184.5170  178.0370  140.9650 C   0  0  0  0  0  3  0  0  0  0  0  0
  186.5700  178.0710  142.5150 C   0  0  1  0  0  3  0  0  0  0  0  0
  181.7130  179.1720  144.1040 C   0  0  0  0  0  1  0  0  0  0  0  0
  187.9760  177.3730  148.0220 O   0  0  0  0  0  0  0  0  0  0  0  0
  188.2440  178.5080  148.8340 C   0  0  0  0  0  1  0  0  0  0  0  0
  192.1700  177.5000  140.2300 O   0  0  0  0  0  0  0  0  0  0  0  0
  191.5510  176.8240  139.1620 C   0  0  0  0  0  2  0  0  0  0  0  0
  193.8600  176.4030  138.6620 O   0  0  0  0  0  1  0  0  0  0  0  0
  192.5770  176.4230  138.1030 C   0  0  1  0  0  3  0  0  0  0  0  0
  191.9730  175.3120  135.9320 C   0  0  0  0  0  1  0  0  0  0  0  0
  192.2570  175.0890  137.4080 C   0  0  0  0  0  0  0  0  0  0  0  0
  191.1500  174.4800  138.0030 O   0  0  0  0  0  1  0  0  0  0  0  0
  193.4490  174.1570  137.5180 C   0  0  0  0  0  1  0  0  0  0  0  0
  1 25  1  0  0  0  0
  2  5  1  1  0  0  0
  3  7  1  0  0  0  0
  4 14  1  0  0  0  0
  6  8  1  6  0  0  0
  6 12  1  0  0  0  0
  7  2  1  0  0  0  0
  7  1  2  0  0  0  0
  9 13  1  0  0  0  0
  9  4  1  0  0  0  0
 10  3  2  0  0  0  0
 10 15  1  0  0  0  0
 11  1  1  0  0  0  0
 12  2  1  0  0  0  0
 13 27  1  6  0  0  0
 13  8  1  0  0  0  0
 14  6  1  0  0  0  0
 14  3  1  0  0  0  0
 15 11  2  0  0  0  0
 16 20  1  0  0  0  0
 16 24  1  0  0  0  0
 17 16  2  0  0  0  0
 18 22  1  6  0  0  0
 18 21  1  0  0  0  0
 18 23  1  0  0  0  0
 18 20  1  0  0  0  0
 19 22  2  0  0  0  0
 19 17  1  0  0  0  0
 21 23  1  0  0  0  0
 23 10  1  1  0  0  0
 25 26  1  0  0  0  0
 28 27  1  0  0  0  0
 30 29  1  1  0  0  0
 30 28  1  0  0  0  0
 31 32  1  0  0  0  0
 32 34  1  0  0  0  0
 32 33  1  0  0  0  0
 32 30  1  0  0  0  0
M  END
>  <MODEL>
1

>  <REMARK>
 VINA RESULT:      -9.8      0.000      0.000
  Name = 
  6 active torsions:
  status: ('A' for Active; 'I' for Inactive)
    1  A    between atoms: C_1  and  O_6
    2  A    between atoms: O_3  and  C_13
    3  A    between atoms: O_3  and  C_29
    4  A    between atoms: C_13  and  C_33
    5  A    between atoms: C_20  and  C_33
    6  A    between atoms: C_21  and  C_28
                            x       y       z     vdW  Elec       q    Type
                         _______ _______ _______ _____ _____    ______ ____

>  <TORSDO>
F 6

$$$$
=
 OpenBabel11052414253D

 34 38  0  0  1  0  0  0  0  0999 V2000
  186.5620  178.6040  140.2140 C   0  0  0  0  0  0  0  0  0  0  0  0
  187.3740  177.8990  137.9150 C   0  0  2  0  0  3  0  0  0  0  0  0
  188.7860  177.5960  140.0240 C   0  0  0  0  0  0  0  0  0  0  0  0
  191.2370  177.4420  139.4390 C   0  0  0  0  0  2  0  0  0  0  0  0
  186.8380  179.0630  137.3620 O   0  0  0  0  0  1  0  0  0  0  0  0
  189.4660  176.5140  137.8820 C   0  0  2  0  0  3  0  0  0  0  0  0
  187.5930  178.0650  139.4130 C   0  0  0  0  0  0  0  0  0  0  0  0
  190.6870  176.1460  137.0410 C   0  0  0  0  0  2  0  0  0  0  0  0
  192.1690  176.2640  139.1500 C   0  0  0  0  0  2  0  0  0  0  0  0
  188.9120  177.6400  141.4390 C   0  0  0  0  0  0  0  0  0  0  0  0
  186.7480  178.7220  141.5950 C   0  0  0  0  0  3  0  0  0  0  0  0
  188.6350  177.5360  137.1320 C   0  0  0  0  0  2  0  0  0  0  0  0
  191.7360  175.4510  137.9150 C   0  0  2  0  0  3  0  0  0  0  0  0
  189.8400  177.0760  139.1860 N   0  0  0  0  0  0  0  0  0  0  0  0
  187.9090  178.2530  142.1960 C   0  0  0  0  0  3  0  0  0  0  0  0
  188.7870  177.3550  145.9030 C   0  0  0  0  0  0  0  0  0  0  0  0
  189.9560  177.1940  146.5340 C   0  0  0  0  0  3  0  0  0  0  0  0
  189.9870  177.1130  143.6970 C   0  0  2  0  0  0  0  0  0  0  0  0
  191.2360  177.1270  145.8030 C   0  0  0  0  0  3  0  0  0  0  0  0
  188.7090  177.5710  144.4140 C   0  0  0  0  0  2  0  0  0  0  0  0
  189.7650  175.8230  142.9510 C   0  0  0  0  0  2  0  0  0  0  0  0
  191.2670  177.1040  144.4700 C   0  0  0  0  0  3  0  0  0  0  0  0
  190.1140  177.0900  142.1700 C   0  0  1  0  0  3  0  0  0  0  0  0
  187.5400  177.4390  146.7070 C   0  0  0  0  0  1  0  0  0  0  0  0
  185.3610  179.0170  139.6230 O   0  0  0  0  0  0  0  0  0  0  0  0
  184.1130  178.9780  140.3010 C   0  0  0  0  0  1  0  0  0  0  0  0
  192.8250  174.9380  137.1780 O   0  0  0  0  0  0  0  0  0  0  0  0
  194.0190  175.2600  137.8500 C   0  0  0  0  0  2  0  0  0  0  0  0
  196.0540  175.4070  136.5880 O   0  0  0  0  0  1  0  0  0  0  0  0
  195.2050  174.5090  137.2440 C   0  0  1  0  0  3  0  0  0  0  0  0
  197.2260  173.0670  137.6230 C   0  0  0  0  0  1  0  0  0  0  0  0
  195.9820  173.6580  138.2620 C   0  0  0  0  0  0  0  0  0  0  0  0
  195.1790  172.6250  138.7500 O   0  0  0  0  0  1  0  0  0  0  0  0
  196.4210  174.5290  139.4240 C   0  0  0  0  0  1  0  0  0  0  0  0
  1 11  1  0  0  0  0
  2  5  1  6  0  0  0
  2  7  1  0  0  0  0
  3 10  2  0  0  0  0
  6  8  1  6  0  0  0
  6 14  1  0  0  0  0
  7  3  1  0  0  0  0
  7  1  2  0  0  0  0
  8 13  1  0  0  0  0
  9  4  1  0  0  0  0
 10 15  1  0  0  0  0
 11 15  2  0  0  0  0
 12  6  1  0  0  0  0
 12  2  1  0  0  0  0
 13 27  1  6  0  0  0
 13  9  1  0  0  0  0
 14  4  1  0  0  0  0
 14  3  1  0  0  0  0
 16 17  2  0  0  0  0
 16 24  1  0  0  0  0
 18 21  1  1  0  0  0
 18 20  1  0  0  0  0
 18 22  1  0  0  0  0
 19 17  1  0  0  0  0
 20 16  1  0  0  0  0
 22 19  2  0  0  0  0
 23 10  1  6  0  0  0
 23 21  1  0  0  0  0
 23 18  1  0  0  0  0
 25  1  1  0  0  0  0
 25 26  1  0  0  0  0
 27 28  1  0  0  0  0
 30 29  1  1  0  0  0
 30 28  1  0  0  0  0
 30 32  1  0  0  0  0
 31 32  1  0  0  0  0
 32 33  1  0  0  0  0
 32 34  1  0  0  0  0
M  END
>  <MODEL>
2

>  <REMARK>
 VINA RESULT:      -9.3      2.972      6.064
  Name = 
  6 active torsions:
  status: ('A' for Active; 'I' for Inactive)
    1  A    between atoms: C_1  and  O_6
    2  A    between atoms: O_3  and  C_13
    3  A    between atoms: O_3  and  C_29
    4  A    between atoms: C_13  and  C_33
    5  A    between atoms: C_20  and  C_33
    6  A    between atoms: C_21  and  C_28
                            x       y       z     vdW  Elec       q    Type
                         _______ _______ _______ _____ _____    ______ ____

>  <TORSDO>
F 6

$$$$
=
 OpenBabel11052414253D

 34 38  0  0  1  0  0  0  0  0999 V2000
  184.6550  178.6420  142.3030 C   0  0  0  0  0  0  0  0  0  0  0  0
  184.6810  178.7820  139.7700 C   0  0  2  0  0  3  0  0  0  0  0  0
  186.7620  178.2000  141.1350 C   0  0  0  0  0  0  0  0  0  0  0  0
  188.8580  178.7140  139.8270 C   0  0  0  0  0  2  0  0  0  0  0  0
  183.8740  179.9200  139.8180 O   0  0  0  0  0  1  0  0  0  0  0  0
  186.7570  177.9150  138.6580 C   0  0  2  0  0  3  0  0  0  0  0  0
  185.3900  178.5670  141.1000 C   0  0  0  0  0  0  0  0  0  0  0  0
  187.6380  178.0510  137.4170 C   0  0  0  0  0  2  0  0  0  0  0  0
  189.7420  177.8770  138.9010 C   0  0  0  0  0  2  0  0  0  0  0  0
  187.3670  177.8730  142.3790 C   0  0  0  0  0  0  0  0  0  0  0  0
  185.2980  178.4070  143.5230 C   0  0  0  0  0  3  0  0  0  0  0  0
  185.6200  178.9140  138.5720 C   0  0  0  0  0  2  0  0  0  0  0  0
  188.9890  177.3690  137.6570 C   0  0  2  0  0  3  0  0  0  0  0  0
  187.5040  178.1580  139.8980 N   0  0  0  0  0  0  0  0  0  0  0  0
  186.6350  178.0360  143.5590 C   0  0  0  0  0  3  0  0  0  0  0  0
  189.1130  177.2140  146.4470 C   0  0  0  0  0  0  0  0  0  0  0  0
  190.4460  177.1280  146.5290 C   0  0  0  0  0  3  0  0  0  0  0  0
  189.3090  177.2820  143.9320 C   0  0  2  0  0  0  0  0  0  0  0  0
  191.3110  177.2590  145.3410 C   0  0  0  0  0  3  0  0  0  0  0  0
  188.4140  177.5410  145.1520 C   0  0  0  0  0  2  0  0  0  0  0  0
  188.8840  176.0420  143.1920 C   0  0  0  0  0  2  0  0  0  0  0  0
  190.7910  177.3480  144.1170 C   0  0  0  0  0  3  0  0  0  0  0  0
  188.7970  177.3990  142.4930 C   0  0  1  0  0  3  0  0  0  0  0  0
  188.3050  177.0980  147.6890 C   0  0  0  0  0  1  0  0  0  0  0  0
  183.2890  178.9490  142.2700 O   0  0  0  0  0  0  0  0  0  0  0  0
  182.4730  178.9740  143.4330 C   0  0  0  0  0  1  0  0  0  0  0  0
  189.7980  177.3130  136.5020 O   0  0  0  0  0  0  0  0  0  0  0  0
  189.5670  176.0890  135.8460 C   0  0  0  0  0  2  0  0  0  0  0  0
  191.9670  176.1080  135.8840 O   0  0  0  0  0  1  0  0  0  0  0  0
  190.8550  175.2690  135.7530 C   0  0  1  0  0  3  0  0  0  0  0  0
  189.5490  173.4720  136.9260 C   0  0  0  0  0  1  0  0  0  0  0  0
  190.9190  174.1050  136.7570 C   0  0  0  0  0  0  0  0  0  0  0  0
  191.3760  174.5540  137.9970 O   0  0  0  0  0  1  0  0  0  0  0  0
  191.8660  173.0390  136.2400 C   0  0  0  0  0  1  0  0  0  0  0  0
  1 11  1  0  0  0  0
  2  5  1  1  0  0  0
  2  7  1  0  0  0  0
  3 10  2  0  0  0  0
  4 14  1  0  0  0  0
  6  8  1  6  0  0  0
  6 14  1  0  0  0  0
  7  3  1  0  0  0  0
  7  1  2  0  0  0  0
  8 13  1  0  0  0  0
  9  4  1  0  0  0  0
 10 15  1  0  0  0  0
 11 15  2  0  0  0  0
 12  6  1  0  0  0  0
 12  2  1  0  0  0  0
 13 27  1  6  0  0  0
 13  9  1  0  0  0  0
 14  3  1  0  0  0  0
 16 17  2  0  0  0  0
 16 24  1  0  0  0  0
 18 21  1  1  0  0  0
 18 22  1  0  0  0  0
 18 20  1  0  0  0  0
 19 17  1  0  0  0  0
 20 16  1  0  0  0  0
 22 19  2  0  0  0  0
 23 10  1  1  0  0  0
 23 21  1  0  0  0  0
 23 18  1  0  0  0  0
 25  1  1  0  0  0  0
 25 26  1  0  0  0  0
 28 27  1  0  0  0  0
 30 28  1  0  0  0  0
 30 29  1  1  0  0  0
 30 32  1  0  0  0  0
 32 31  1  0  0  0  0
 32 33  1  0  0  0  0
 34 32  1  0  0  0  0
M  END
>  <MODEL>
3

>  <REMARK>
 VINA RESULT:      -9.3      2.786      5.657
  Name = 
  6 active torsions:
  status: ('A' for Active; 'I' for Inactive)
    1  A    between atoms: C_1  and  O_6
    2  A    between atoms: O_3  and  C_13
    3  A    between atoms: O_3  and  C_29
    4  A    between atoms: C_13  and  C_33
    5  A    between atoms: C_20  and  C_33
    6  A    between atoms: C_21  and  C_28
                            x       y       z     vdW  Elec       q    Type
                         _______ _______ _______ _____ _____    ______ ____

>  <TORSDO>
F 6

$$$$
=
 OpenBabel11052414253D

 34 38  0  0  1  0  0  0  0  0999 V2000
  188.3010  177.7200  146.3580 C   0  0  0  0  0  0  0  0  0  0  0  0
  190.6730  177.3680  145.5290 C   0  0  2  0  0  3  0  0  0  0  0  0
  188.6800  177.5830  143.9420 C   0  0  0  0  0  0  0  0  0  0  0  0
  189.1940  176.5070  141.7180 C   0  0  0  0  0  2  0  0  0  0  0  0
  190.9000  176.4470  146.5530 O   0  0  0  0  0  1  0  0  0  0  0  0
  191.0120  177.6550  143.0590 C   0  0  2  0  0  3  0  0  0  0  0  0
  189.1810  177.5290  145.2710 C   0  0  0  0  0  0  0  0  0  0  0  0
  191.8770  177.2230  141.8770 C   0  0  0  0  0  2  0  0  0  0  0  0
  189.7640  177.0460  140.4050 C   0  0  0  0  0  2  0  0  0  0  0  0
  187.3060  177.8680  143.7230 C   0  0  0  0  0  0  0  0  0  0  0  0
  186.9350  177.9060  146.1190 C   0  0  0  0  0  3  0  0  0  0  0  0
  191.4790  176.9310  144.3070 C   0  0  0  0  0  2  0  0  0  0  0  0
  191.1920  177.6050  140.5590 C   0  0  2  0  0  3  0  0  0  0  0  0
  189.5910  177.3560  142.8450 N   0  0  0  0  0  0  0  0  0  0  0  0
  186.4460  177.9710  144.8210 C   0  0  0  0  0  3  0  0  0  0  0  0
  182.9490  178.8140  143.3320 C   0  0  0  0  0  0  0  0  0  0  0  0
  182.3880  178.6090  142.1350 C   0  0  0  0  0  3  0  0  0  0  0  0
  185.1990  178.2660  142.3320 C   0  0  2  0  0  0  0  0  0  0  0  0
  183.1580  178.0810  140.9920 C   0  0  0  0  0  3  0  0  0  0  0  0
  184.3790  178.4330  143.6180 C   0  0  0  0  0  2  0  0  0  0  0  0
  186.1420  179.4230  142.1280 C   0  0  0  0  0  2  0  0  0  0  0  0
  184.4760  177.9010  141.0750 C   0  0  0  0  0  3  0  0  0  0  0  0
  186.7120  178.0200  142.3430 C   0  0  1  0  0  3  0  0  0  0  0  0
  182.1060  179.3250  144.4450 C   0  0  0  0  0  1  0  0  0  0  0  0
  188.7980  177.7240  147.6680 O   0  0  0  0  0  0  0  0  0  0  0  0
  187.9700  177.9020  148.8090 C   0  0  0  0  0  1  0  0  0  0  0  0
  192.0010  177.3830  139.4250 O   0  0  0  0  0  0  0  0  0  0  0  0
  191.2580  176.6630  138.4710 C   0  0  0  0  0  2  0  0  0  0  0  0
  190.8570  174.3630  137.9190 O   0  0  0  0  0  1  0  0  0  0  0  0
  191.8650  175.2790  138.2380 C   0  0  1  0  0  3  0  0  0  0  0  0
  193.3360  173.8380  136.8000 C   0  0  0  0  0  1  0  0  0  0  0  0
  192.9800  175.2650  137.1800 C   0  0  0  0  0  0  0  0  0  0  0  0
  194.1200  175.9110  137.6620 O   0  0  0  0  0  1  0  0  0  0  0  0
  192.5040  175.9770  135.9280 C   0  0  0  0  0  1  0  0  0  0  0  0
  1 25  1  0  0  0  0
  2  5  1  1  0  0  0
  3  7  1  0  0  0  0
  4 14  1  0  0  0  0
  6  8  1  6  0  0  0
  6 12  1  0  0  0  0
  7  2  1  0  0  0  0
  7  1  2  0  0  0  0
  9 13  1  0  0  0  0
  9  4  1  0  0  0  0
 10  3  2  0  0  0  0
 10 15  1  0  0  0  0
 11  1  1  0  0  0  0
 12  2  1  0  0  0  0
 13 27  1  6  0  0  0
 13  8  1  0  0  0  0
 14  6  1  0  0  0  0
 14  3  1  0  0  0  0
 15 11  2  0  0  0  0
 16 20  1  0  0  0  0
 16 24  1  0  0  0  0
 17 16  2  0  0  0  0
 18 22  1  6  0  0  0
 18 23  1  0  0  0  0
 18 20  1  0  0  0  0
 19 22  2  0  0  0  0
 19 17  1  0  0  0  0
 21 18  1  0  0  0  0
 21 23  1  0  0  0  0
 23 10  1  1  0  0  0
 25 26  1  0  0  0  0
 28 27  1  0  0  0  0
 30 29  1  6  0  0  0
 30 28  1  0  0  0  0
 31 32  1  0  0  0  0
 32 33  1  0  0  0  0
 32 30  1  0  0  0  0
 34 32  1  0  0  0  0
M  END
>  <MODEL>
4

>  <REMARK>
 VINA RESULT:      -9.2      0.677      1.201
  Name = 
  6 active torsions:
  status: ('A' for Active; 'I' for Inactive)
    1  A    between atoms: C_1  and  O_6
    2  A    between atoms: O_3  and  C_13
    3  A    between atoms: O_3  and  C_29
    4  A    between atoms: C_13  and  C_33
    5  A    between atoms: C_20  and  C_33
    6  A    between atoms: C_21  and  C_28
                            x       y       z     vdW  Elec       q    Type
                         _______ _______ _______ _____ _____    ______ ____

>  <TORSDO>
F 6

$$$$
=
 OpenBabel11052414253D

 34 38  0  0  1  0  0  0  0  0999 V2000
  188.1910  177.5440  146.5250 C   0  0  0  0  0  0  0  0  0  0  0  0
  190.5930  177.2220  145.7720 C   0  0  2  0  0  3  0  0  0  0  0  0
  188.6580  177.4760  144.1210 C   0  0  0  0  0  0  0  0  0  0  0  0
  189.2550  176.4640  141.8880 C   0  0  0  0  0  2  0  0  0  0  0  0
  190.7870  176.2740  146.7770 O   0  0  0  0  0  1  0  0  0  0  0  0
  191.0190  177.5790  143.3250 C   0  0  2  0  0  3  0  0  0  0  0  0
  189.1110  177.3860  145.4650 C   0  0  0  0  0  0  0  0  0  0  0  0
  191.9280  177.1830  142.1630 C   0  0  0  0  0  2  0  0  0  0  0  0
  189.8700  177.0400  140.6110 C   0  0  0  0  0  2  0  0  0  0  0  0
  187.2910  177.7620  143.8610 C   0  0  0  0  0  0  0  0  0  0  0  0
  186.8340  177.7330  146.2420 C   0  0  0  0  0  3  0  0  0  0  0  0
  191.4440  176.8220  144.5680 C   0  0  0  0  0  2  0  0  0  0  0  0
  191.2890  177.5980  140.8320 C   0  0  2  0  0  3  0  0  0  0  0  0
  189.6080  177.2810  143.0520 N   0  0  0  0  0  0  0  0  0  0  0  0
  186.3910  177.8330  144.9290 C   0  0  0  0  0  3  0  0  0  0  0  0
  182.9720  178.8180  143.3450 C   0  0  0  0  0  0  0  0  0  0  0  0
  182.4460  178.6450  142.1260 C   0  0  0  0  0  3  0  0  0  0  0  0
  185.2410  178.2330  142.4080 C   0  0  2  0  0  0  0  0  0  0  0  0
  183.2410  178.1180  141.0000 C   0  0  0  0  0  3  0  0  0  0  0  0
  184.3820  178.3980  143.6700 C   0  0  0  0  0  2  0  0  0  0  0  0
  186.2160  179.3700  142.2550 C   0  0  0  0  0  2  0  0  0  0  0  0
  184.5510  177.9050  141.1230 C   0  0  0  0  0  3  0  0  0  0  0  0
  186.7460  177.9510  142.4640 C   0  0  1  0  0  3  0  0  0  0  0  0
  182.1050  179.3290  144.4380 C   0  0  0  0  0  1  0  0  0  0  0  0
  188.6410  177.5130  147.8510 O   0  0  0  0  0  0  0  0  0  0  0  0
  187.9670  178.1770  148.9110 C   0  0  0  0  0  1  0  0  0  0  0  0
  192.1400  177.4110  139.7220 O   0  0  0  0  0  0  0  0  0  0  0  0
  191.6520  176.3370  138.9540 C   0  0  0  0  0  2  0  0  0  0  0  0
  192.9000  176.0700  136.9220 O   0  0  0  0  0  1  0  0  0  0  0  0
  191.7450  176.6490  137.4600 C   0  0  1  0  0  3  0  0  0  0  0  0
  189.8320  175.0290  137.3060 C   0  0  0  0  0  1  0  0  0  0  0  0
  190.4960  176.2350  136.6640 C   0  0  0  0  0  0  0  0  0  0  0  0
  190.8360  175.9260  135.3460 O   0  0  0  0  0  1  0  0  0  0  0  0
  189.4940  177.3730  136.6600 C   0  0  0  0  0  1  0  0  0  0  0  0
  1 25  1  0  0  0  0
  2  5  1  1  0  0  0
  3  7  1  0  0  0  0
  4 14  1  0  0  0  0
  6  8  1  6  0  0  0
  6 12  1  0  0  0  0
  7  2  1  0  0  0  0
  7  1  2  0  0  0  0
  9 13  1  0  0  0  0
  9  4  1  0  0  0  0
 10  3  2  0  0  0  0
 10 15  1  0  0  0  0
 11  1  1  0  0  0  0
 12  2  1  0  0  0  0
 13 27  1  6  0  0  0
 13  8  1  0  0  0  0
 14  6  1  0  0  0  0
 14  3  1  0  0  0  0
 15 11  2  0  0  0  0
 16 20  1  0  0  0  0
 16 24  1  0  0  0  0
 17 16  2  0  0  0  0
 18 22  1  6  0  0  0
 18 23  1  0  0  0  0
 18 20  1  0  0  0  0
 19 22  2  0  0  0  0
 19 17  1  0  0  0  0
 21 18  1  0  0  0  0
 21 23  1  0  0  0  0
 23 10  1  1  0  0  0
 25 26  1  0  0  0  0
 28 27  1  0  0  0  0
 30 29  1  6  0  0  0
 30 28  1  0  0  0  0
 32 31  1  0  0  0  0
 32 30  1  0  0  0  0
 33 32  1  0  0  0  0
 34 32  1  0  0  0  0
M  END
>  <MODEL>
5

>  <REMARK>
 VINA RESULT:      -9.2      1.090      1.310
  Name = 
  6 active torsions:
  status: ('A' for Active; 'I' for Inactive)
    1  A    between atoms: C_1  and  O_6
    2  A    between atoms: O_3  and  C_13
    3  A    between atoms: O_3  and  C_29
    4  A    between atoms: C_13  and  C_33
    5  A    between atoms: C_20  and  C_33
    6  A    between atoms: C_21  and  C_28
                            x       y       z     vdW  Elec       q    Type
                         _______ _______ _______ _____ _____    ______ ____

>  <TORSDO>
F 6

$$$$
=
 OpenBabel11052414253D

 34 38  0  0  1  0  0  0  0  0999 V2000
  190.8450  176.9150  146.7420 C   0  0  0  0  0  0  0  0  0  0  0  0
  188.8940  177.8080  148.0970 C   0  0  2  0  0  3  0  0  0  0  0  0
  188.7470  177.4080  145.5770 C   0  0  0  0  0  0  0  0  0  0  0  0
  186.9200  178.8180  144.5570 C   0  0  0  0  0  2  0  0  0  0  0  0
  189.7630  178.6280  148.8200 O   0  0  0  0  0  1  0  0  0  0  0  0
  186.6890  177.8860  146.9020 C   0  0  2  0  0  3  0  0  0  0  0  0
  189.5180  177.3980  146.7710 C   0  0  0  0  0  0  0  0  0  0  0  0
  185.3460  178.6120  146.8420 C   0  0  0  0  0  2  0  0  0  0  0  0
  185.4410  178.5570  144.2630 C   0  0  0  0  0  2  0  0  0  0  0  0
  189.3080  176.8950  144.3770 C   0  0  0  0  0  0  0  0  0  0  0  0
  191.4060  176.5020  145.5290 C   0  0  0  0  0  3  0  0  0  0  0  0
  187.5550  178.5320  147.9660 C   0  0  0  0  0  2  0  0  0  0  0  0
  184.6220  178.2660  145.5350 C   0  0  2  0  0  3  0  0  0  0  0  0
  187.4030  177.9330  145.6210 N   0  0  0  0  0  0  0  0  0  0  0  0
  190.6500  176.5000  144.3640 C   0  0  0  0  0  3  0  0  0  0  0  0
  191.4590  177.5030  140.5000 C   0  0  0  0  0  0  0  0  0  0  0  0
  190.7070  177.7470  139.4200 C   0  0  0  0  0  3  0  0  0  0  0  0
  189.3530  177.1000  141.8300 C   0  0  2  0  0  0  0  0  0  0  0  0
  189.2350  177.8290  139.4960 C   0  0  0  0  0  3  0  0  0  0  0  0
  190.8610  177.3870  141.8780 C   0  0  0  0  0  2  0  0  0  0  0  0
  189.0560  175.6700  142.1970 C   0  0  0  0  0  2  0  0  0  0  0  0
  188.5870  177.5430  140.6250 C   0  0  0  0  0  3  0  0  0  0  0  0
  188.5300  176.7970  143.0860 C   0  0  1  0  0  3  0  0  0  0  0  0
  192.9370  177.4590  140.3530 C   0  0  0  0  0  1  0  0  0  0  0  0
  191.5910  176.8510  147.9260 O   0  0  0  0  0  0  0  0  0  0  0  0
  192.5840  175.8620  148.1610 C   0  0  0  0  0  1  0  0  0  0  0  0
  183.3060  178.7710  145.4770 O   0  0  0  0  0  0  0  0  0  0  0  0
  183.0060  179.1010  144.1420 C   0  0  0  0  0  2  0  0  0  0  0  0
  180.6540  179.0030  144.6070 O   0  0  0  0  0  1  0  0  0  0  0  0
  181.6440  178.5390  143.7340 C   0  0  1  0  0  3  0  0  0  0  0  0
  182.4720  178.6280  141.3640 C   0  0  0  0  0  1  0  0  0  0  0  0
  181.2700  178.8300  142.2710 C   0  0  0  0  0  0  0  0  0  0  0  0
  180.8060  180.1390  142.1350 O   0  0  0  0  0  1  0  0  0  0  0  0
  180.1820  177.8730  141.8240 C   0  0  0  0  0  1  0  0  0  0  0  0
  1  7  1  0  0  0  0
  1 25  1  0  0  0  0
  2  5  1  6  0  0  0
  3 14  1  0  0  0  0
  3  7  2  0  0  0  0
  4 14  1  0  0  0  0
  6  8  1  6  0  0  0
  6 12  1  0  0  0  0
  7  2  1  0  0  0  0
  9  4  1  0  0  0  0
  9 13  1  0  0  0  0
 10  3  1  0  0  0  0
 11  1  2  0  0  0  0
 12  2  1  0  0  0  0
 13 27  1  6  0  0  0
 13  8  1  0  0  0  0
 14  6  1  0  0  0  0
 15 10  2  0  0  0  0
 15 11  1  0  0  0  0
 16 20  1  0  0  0  0
 17 19  1  0  0  0  0
 17 16  2  0  0  0  0
 18 22  1  6  0  0  0
 18 20  1  0  0  0  0
 18 21  1  0  0  0  0
 18 23  1  0  0  0  0
 19 22  2  0  0  0  0
 21 23  1  0  0  0  0
 23 10  1  1  0  0  0
 24 16  1  0  0  0  0
 25 26  1  0  0  0  0
 28 27  1  0  0  0  0
 30 28  1  0  0  0  0
 30 29  1  1  0  0  0
 31 32  1  0  0  0  0
 32 30  1  0  0  0  0
 33 32  1  0  0  0  0
 34 32  1  0  0  0  0
M  END
>  <MODEL>
6

>  <REMARK>
 VINA RESULT:      -9.1      3.302      7.774
  Name = 
  6 active torsions:
  status: ('A' for Active; 'I' for Inactive)
    1  A    between atoms: C_1  and  O_6
    2  A    between atoms: O_3  and  C_13
    3  A    between atoms: O_3  and  C_29
    4  A    between atoms: C_13  and  C_33
    5  A    between atoms: C_20  and  C_33
    6  A    between atoms: C_21  and  C_28
                            x       y       z     vdW  Elec       q    Type
                         _______ _______ _______ _____ _____    ______ ____

>  <TORSDO>
F 6

$$$$
=
 OpenBabel11052414253D

 34 38  0  0  1  0  0  0  0  0999 V2000
  191.3260  177.0690  139.7630 C   0  0  0  0  0  0  0  0  0  0  0  0
  189.0650  177.1560  138.6140 C   0  0  2  0  0  3  0  0  0  0  0  0
  189.3880  177.8130  141.0630 C   0  0  0  0  0  0  0  0  0  0  0  0
  187.2140  177.6180  142.3300 C   0  0  0  0  0  2  0  0  0  0  0  0
  189.3380  175.9470  137.9730 O   0  0  0  0  0  1  0  0  0  0  0  0
  187.2430  178.3130  139.8930 C   0  0  2  0  0  3  0  0  0  0  0  0
  189.9390  177.3200  139.8500 C   0  0  0  0  0  0  0  0  0  0  0  0
  185.7300  178.3720  140.1010 C   0  0  0  0  0  2  0  0  0  0  0  0
  186.0960  178.6140  142.6440 C   0  0  0  0  0  2  0  0  0  0  0  0
  190.2460  178.0840  142.1620 C   0  0  0  0  0  0  0  0  0  0  0  0
  192.1350  177.2560  140.8890 C   0  0  0  0  0  3  0  0  0  0  0  0
  187.5640  177.2210  138.8920 C   0  0  0  0  0  2  0  0  0  0  0  0
  185.4070  179.1560  141.3770 C   0  0  2  0  0  3  0  0  0  0  0  0
  187.9630  178.0340  141.1410 N   0  0  0  0  0  0  0  0  0  0  0  0
  191.6000  177.7490  142.0720 C   0  0  0  0  0  3  0  0  0  0  0  0
  191.3430  176.1000  146.0210 C   0  0  0  0  0  0  0  0  0  0  0  0
  190.6290  176.4370  147.1020 C   0  0  0  0  0  3  0  0  0  0  0  0
  190.1230  177.8750  144.7070 C   0  0  2  0  0  0  0  0  0  0  0  0
  189.5180  177.4070  147.0330 C   0  0  0  0  0  3  0  0  0  0  0  0
  191.0010  176.6170  144.6480 C   0  0  0  0  0  2  0  0  0  0  0  0
  190.9100  179.1110  144.3580 C   0  0  0  0  0  2  0  0  0  0  0  0
  189.2590  178.0780  145.9110 C   0  0  0  0  0  3  0  0  0  0  0  0
  189.7500  178.6820  143.4590 C   0  0  1  0  0  3  0  0  0  0  0  0
  192.4300  175.0970  146.1610 C   0  0  0  0  0  1  0  0  0  0  0  0
  191.8840  176.6370  138.5530 O   0  0  0  0  0  0  0  0  0  0  0  0
  193.2730  176.3890  138.3870 C   0  0  0  0  0  1  0  0  0  0  0  0
  184.0260  179.3920  141.5530 O   0  0  0  0  0  0  0  0  0  0  0  0
  183.4440  178.2540  142.1430 C   0  0  0  0  0  2  0  0  0  0  0  0
  183.0790  179.7650  143.9700 O   0  0  0  0  0  1  0  0  0  0  0  0
  182.5480  178.6470  143.3180 C   0  0  1  0  0  3  0  0  0  0  0  0
  180.7810  178.2380  141.5800 C   0  0  0  0  0  1  0  0  0  0  0  0
  181.0810  178.8820  142.9230 C   0  0  0  0  0  0  0  0  0  0  0  0
  180.8060  180.2490  142.8490 O   0  0  0  0  0  1  0  0  0  0  0  0
  180.1680  178.2520  143.9570 C   0  0  0  0  0  1  0  0  0  0  0  0
  1  7  2  0  0  0  0
  1 11  1  0  0  0  0
  2  5  1  1  0  0  0
  2 12  1  0  0  0  0
  2  7  1  0  0  0  0
  3 14  1  0  0  0  0
  3 10  2  0  0  0  0
  4  9  1  0  0  0  0
  6 12  1  6  0  0  0
  6  8  1  0  0  0  0
  6 14  1  0  0  0  0
  7  3  1  0  0  0  0
  8 13  1  0  0  0  0
 11 15  2  0  0  0  0
 13 27  1  1  0  0  0
 13  9  1  0  0  0  0
 14  4  1  0  0  0  0
 15 10  1  0  0  0  0
 16 24  1  0  0  0  0
 16 17  2  0  0  0  0
 18 21  1  1  0  0  0
 18 22  1  0  0  0  0
 19 17  1  0  0  0  0
 20 18  1  0  0  0  0
 20 16  1  0  0  0  0
 22 19  2  0  0  0  0
 23 10  1  6  0  0  0
 23 21  1  0  0  0  0
 23 18  1  0  0  0  0
 25  1  1  0  0  0  0
 26 25  1  0  0  0  0
 27 28  1  0  0  0  0
 28 30  1  0  0  0  0
 30 29  1  6  0  0  0
 31 32  1  0  0  0  0
 32 30  1  0  0  0  0
 32 34  1  0  0  0  0
 33 32  1  0  0  0  0
M  END
>  <MODEL>
7

>  <REMARK>
 VINA RESULT:      -8.9      2.828      8.656
  Name = 
  6 active torsions:
  status: ('A' for Active; 'I' for Inactive)
    1  A    between atoms: C_1  and  O_6
    2  A    between atoms: O_3  and  C_13
    3  A    between atoms: O_3  and  C_29
    4  A    between atoms: C_13  and  C_33
    5  A    between atoms: C_20  and  C_33
    6  A    between atoms: C_21  and  C_28
                            x       y       z     vdW  Elec       q    Type
                         _______ _______ _______ _____ _____    ______ ____

>  <TORSDO>
F 6

$$$$
=
 OpenBabel11052414253D

 34 38  0  0  1  0  0  0  0  0999 V2000
  186.6180  177.8670  136.3390 C   0  0  0  0  0  0  0  0  0  0  0  0
  188.4480  178.2680  138.0500 C   0  0  2  0  0  3  0  0  0  0  0  0
  186.0010  177.9340  138.7080 C   0  0  0  0  0  0  0  0  0  0  0  0
  185.5410  178.9490  140.9720 C   0  0  0  0  0  2  0  0  0  0  0  0
  189.0240  179.2300  137.2190 O   0  0  0  0  0  1  0  0  0  0  0  0
  187.7900  177.9070  140.4450 C   0  0  2  0  0  3  0  0  0  0  0  0
  186.9850  178.0490  137.6900 C   0  0  0  0  0  0  0  0  0  0  0  0
  188.0950  178.3270  141.8820 C   0  0  0  0  0  2  0  0  0  0  0  0
  185.5660  178.3850  142.3940 C   0  0  0  0  0  2  0  0  0  0  0  0
  184.6660  177.5970  138.3560 C   0  0  0  0  0  0  0  0  0  0  0  0
  185.2790  177.6280  136.0110 C   0  0  0  0  0  3  0  0  0  0  0  0
  188.6820  178.6880  139.5000 C   0  0  0  0  0  2  0  0  0  0  0  0
  186.9600  177.8790  142.8100 C   0  0  2  0  0  3  0  0  0  0  0  0
  186.3900  178.1530  140.0810 N   0  0  0  0  0  0  0  0  0  0  0  0
  184.3180  177.5030  137.0050 C   0  0  0  0  0  3  0  0  0  0  0  0
  181.3630  180.5990  138.6850 C   0  0  0  0  0  0  0  0  0  0  0  0
  180.6220  180.5670  139.7990 C   0  0  0  0  0  3  0  0  0  0  0  0
  182.5470  178.5090  139.4560 C   0  0  2  0  0  0  0  0  0  0  0  0
  180.8830  179.6000  140.8830 C   0  0  0  0  0  3  0  0  0  0  0  0
  182.5680  179.7120  138.5040 C   0  0  0  0  0  2  0  0  0  0  0  0
  182.2060  177.2370  138.7250 C   0  0  0  0  0  2  0  0  0  0  0  0
  181.7950  178.6380  140.7420 C   0  0  0  0  0  3  0  0  0  0  0  0
  183.5800  177.3790  139.3830 C   0  0  1  0  0  3  0  0  0  0  0  0
  181.0580  181.6170  137.6460 C   0  0  0  0  0  1  0  0  0  0  0  0
  187.5940  177.9240  135.3360 O   0  0  0  0  0  0  0  0  0  0  0  0
  188.1410  176.7650  134.7220 C   0  0  0  0  0  1  0  0  0  0  0  0
  187.2420  178.0880  144.1770 O   0  0  0  0  0  0  0  0  0  0  0  0
  188.2110  177.1540  144.5870 C   0  0  0  0  0  2  0  0  0  0  0  0
  189.3250  177.4210  146.6960 O   0  0  0  0  0  1  0  0  0  0  0  0
  189.3370  177.8410  145.3610 C   0  0  1  0  0  3  0  0  0  0  0  0
  190.7090  176.4840  143.7530 C   0  0  0  0  0  1  0  0  0  0  0  0
  190.7270  177.6450  144.7330 C   0  0  0  0  0  0  0  0  0  0  0  0
  191.6810  177.3980  145.7220 O   0  0  0  0  0  1  0  0  0  0  0  0
  191.1220  178.8950  143.9690 C   0  0  0  0  0  1  0  0  0  0  0  0
  1  7  1  0  0  0  0
  2  5  1  6  0  0  0
  2 12  1  0  0  0  0
  3 14  1  0  0  0  0
  4  9  1  0  0  0  0
  6 12  1  6  0  0  0
  6  8  1  0  0  0  0
  7  2  1  0  0  0  0
  7  3  2  0  0  0  0
  8 13  1  0  0  0  0
  9 13  1  0  0  0  0
 10  3  1  0  0  0  0
 11  1  2  0  0  0  0
 11 15  1  0  0  0  0
 13 27  1  1  0  0  0
 14  6  1  0  0  0  0
 14  4  1  0  0  0  0
 15 10  2  0  0  0  0
 16 17  2  0  0  0  0
 17 19  1  0  0  0  0
 18 20  1  6  0  0  0
 18 22  1  0  0  0  0
 20 16  1  0  0  0  0
 21 23  1  0  0  0  0
 21 18  1  0  0  0  0
 22 19  2  0  0  0  0
 23 10  1  6  0  0  0
 23 18  1  0  0  0  0
 24 16  1  0  0  0  0
 25  1  1  0  0  0  0
 26 25  1  0  0  0  0
 27 28  1  0  0  0  0
 28 30  1  0  0  0  0
 30 29  1  1  0  0  0
 31 32  1  0  0  0  0
 32 30  1  0  0  0  0
 32 33  1  0  0  0  0
 34 32  1  0  0  0  0
M  END
>  <MODEL>
8

>  <REMARK>
 VINA RESULT:      -8.8      3.063      7.293
  Name = 
  6 active torsions:
  status: ('A' for Active; 'I' for Inactive)
    1  A    between atoms: C_1  and  O_6
    2  A    between atoms: O_3  and  C_13
    3  A    between atoms: O_3  and  C_29
    4  A    between atoms: C_13  and  C_33
    5  A    between atoms: C_20  and  C_33
    6  A    between atoms: C_21  and  C_28
                            x       y       z     vdW  Elec       q    Type
                         _______ _______ _______ _____ _____    ______ ____

>  <TORSDO>
F 6

$$$$
=
 OpenBabel11052414253D

 34 38  0  0  1  0  0  0  0  0999 V2000
  185.1940  178.6070  138.6780 C   0  0  0  0  0  0  0  0  0  0  0  0
  185.3280  178.6040  141.2120 C   0  0  2  0  0  3  0  0  0  0  0  0
  187.3610  178.1550  139.7280 C   0  0  0  0  0  0  0  0  0  0  0  0
  189.1160  176.8550  140.9920 C   0  0  0  0  0  2  0  0  0  0  0  0
  184.1100  177.9260  141.2820 O   0  0  0  0  0  1  0  0  0  0  0  0
  187.6450  178.5460  142.1750 C   0  0  2  0  0  3  0  0  0  0  0  0
  185.9700  178.4200  139.8440 C   0  0  0  0  0  0  0  0  0  0  0  0
  188.4630  178.1080  143.3880 C   0  0  0  0  0  2  0  0  0  0  0  0
  190.3340  177.2750  141.8170 C   0  0  0  0  0  2  0  0  0  0  0  0
  187.9620  178.1210  138.4420 C   0  0  0  0  0  0  0  0  0  0  0  0
  185.7920  178.4750  137.4200 C   0  0  0  0  0  3  0  0  0  0  0  0
  186.1970  178.1430  142.3810 C   0  0  0  0  0  2  0  0  0  0  0  0
  189.9570  178.1240  143.0470 C   0  0  2  0  0  3  0  0  0  0  0  0
  188.1300  177.9380  140.9300 N   0  0  0  0  0  0  0  0  0  0  0  0
  187.1540  178.2280  137.3060 C   0  0  0  0  0  3  0  0  0  0  0  0
  189.4330  174.1830  136.9040 C   0  0  0  0  0  0  0  0  0  0  0  0
  190.7370  173.9220  137.0540 C   0  0  0  0  0  3  0  0  0  0  0  0
  189.8370  176.5140  137.7830 C   0  0  2  0  0  0  0  0  0  0  0  0
  191.6540  174.8740  137.7090 C   0  0  0  0  0  3  0  0  0  0  0  0
  188.7990  175.4260  137.4750 C   0  0  0  0  0  2  0  0  0  0  0  0
  189.7770  177.6300  136.7740 C   0  0  0  0  0  2  0  0  0  0  0  0
  191.2420  176.0890  138.0700 C   0  0  0  0  0  3  0  0  0  0  0  0
  189.4460  177.9240  138.2380 C   0  0  1  0  0  3  0  0  0  0  0  0
  188.5640  173.1660  136.2570 C   0  0  0  0  0  1  0  0  0  0  0  0
  183.8340  178.9230  138.7870 O   0  0  0  0  0  0  0  0  0  0  0  0
  182.8280  178.2830  138.0140 C   0  0  0  0  0  1  0  0  0  0  0  0
  190.7880  177.8860  144.1620 O   0  0  0  0  0  0  0  0  0  0  0  0
  190.0990  178.2680  145.3290 C   0  0  0  0  0  2  0  0  0  0  0  0
  191.1200  176.7550  146.8870 O   0  0  0  0  0  1  0  0  0  0  0  0
  189.9080  177.0740  146.2640 C   0  0  1  0  0  3  0  0  0  0  0  0
  189.2030  178.3070  148.3360 C   0  0  0  0  0  1  0  0  0  0  0  0
  188.7900  177.2750  147.3010 C   0  0  0  0  0  0  0  0  0  0  0  0
  188.4950  176.0700  147.9430 O   0  0  0  0  0  1  0  0  0  0  0  0
  187.5390  177.7820  146.6090 C   0  0  0  0  0  1  0  0  0  0  0  0
  1 25  1  0  0  0  0
  1  7  1  0  0  0  0
  2  5  1  6  0  0  0
  2 12  1  0  0  0  0
  3  7  2  0  0  0  0
  3 14  1  0  0  0  0
  4  9  1  0  0  0  0
  6 12  1  1  0  0  0
  6  8  1  0  0  0  0
  7  2  1  0  0  0  0
  9 13  1  0  0  0  0
 10  3  1  0  0  0  0
 11  1  2  0  0  0  0
 13  8  1  0  0  0  0
 13 27  1  1  0  0  0
 14  4  1  0  0  0  0
 14  6  1  0  0  0  0
 15 11  1  0  0  0  0
 15 10  2  0  0  0  0
 16 17  2  0  0  0  0
 16 20  1  0  0  0  0
 17 19  1  0  0  0  0
 18 21  1  6  0  0  0
 18 22  1  0  0  0  0
 18 23  1  0  0  0  0
 19 22  2  0  0  0  0
 20 18  1  0  0  0  0
 21 23  1  0  0  0  0
 23 10  1  6  0  0  0
 24 16  1  0  0  0  0
 26 25  1  0  0  0  0
 27 28  1  0  0  0  0
 28 30  1  0  0  0  0
 30 29  1  1  0  0  0
 30 32  1  0  0  0  0
 32 33  1  0  0  0  0
 32 31  1  0  0  0  0
 34 32  1  0  0  0  0
M  END
>  <MODEL>
9

>  <REMARK>
 VINA RESULT:      -8.7      2.991      8.023
  Name = 
  6 active torsions:
  status: ('A' for Active; 'I' for Inactive)
    1  A    between atoms: C_1  and  O_6
    2  A    between atoms: O_3  and  C_13
    3  A    between atoms: O_3  and  C_29
    4  A    between atoms: C_13  and  C_33
    5  A    between atoms: C_20  and  C_33
    6  A    between atoms: C_21  and  C_28
                            x       y       z     vdW  Elec       q    Type
                         _______ _______ _______ _____ _____    ______ ____

>  <TORSDO>
F 6

$$$$
