=
 OpenBabel11052416553D

 32 37  0  0  1  0  0  0  0  0999 V2000
  179.7810  178.4440  138.7630 N   0  0  0  0  0  0  0  0  0  0  0  0
  184.8590  178.9950  139.8060 N   0  0  0  0  0  0  0  0  0  0  0  0
  182.5540  179.2280  138.8700 C   0  0  1  0  0  3  0  0  0  0  0  0
  183.1050  177.2220  140.2210 C   0  0  0  0  0  2  0  0  0  0  0  0
  180.7860  177.5360  139.3460 C   0  0  0  0  0  2  0  0  0  0  0  0
  184.3920  177.9140  140.6960 C   0  0  2  0  0  3  0  0  0  0  0  0
  180.0810  179.8740  138.9520 C   0  0  0  0  0  2  0  0  0  0  0  0
  182.0260  178.2420  139.9020 C   0  0  2  0  0  3  0  0  0  0  0  0
  181.4940  180.2600  138.4840 C   0  0  0  0  0  2  0  0  0  0  0  0
  183.7920  179.9330  139.4210 C   0  0  0  0  0  2  0  0  0  0  0  0
  185.4340  178.4070  138.6050 C   0  0  0  0  0  1  0  0  0  0  0  0
  183.0380  179.1390  144.0420 C   0  0  0  0  0  3  0  0  0  0  0  0
  184.1630  179.0290  144.8590 C   0  0  0  0  0  3  0  0  0  0  0  0
  183.1180  178.7890  142.6920 C   0  0  0  0  0  3  0  0  0  0  0  0
  184.3280  178.3370  142.1420 C   0  0  0  0  0  0  0  0  0  0  0  0
  185.3710  178.5720  144.3250 C   0  0  0  0  0  3  0  0  0  0  0  0
  185.4650  178.2350  142.9690 C   0  0  0  0  0  0  0  0  0  0  0  0
  186.7640  177.7190  142.4310 C   0  0  0  0  0  2  0  0  0  0  0  0
  187.8720  178.0910  143.3160 N   0  0  0  0  0  2  0  0  0  0  0  0
  189.0990  176.8330  146.2650 C   0  0  0  0  0  2  0  0  0  0  0  0
  189.5170  177.3080  144.8910 C   0  0  0  0  0  0  0  0  0  0  0  0
  189.0600  176.0430  142.8790 C   0  0  2  0  0  3  0  0  0  0  0  0
  190.5350  175.7410  143.1740 C   0  0  2  0  0  3  0  0  0  0  0  0
  191.1920  176.7920  144.5090 S   0  0  0  0  0  0  0  0  0  0  0  0
  189.1920  178.3200  145.9720 C   0  0  0  0  0  2  0  0  0  0  0  0
  190.1670  176.6270  142.0080 C   0  0  0  0  0  2  0  0  0  0  0  0
  188.5110  176.9620  143.8930 N   0  0  0  0  0  0  0  0  0  0  0  0
  179.6890  178.1540  137.3370 C   0  0  0  0  0  2  0  0  0  0  0  0
  180.4310  176.8660  137.0030 C   0  0  0  0  0  2  0  0  0  0  0  0
  181.5440  177.1140  136.0360 C   0  0  0  0  0  3  0  0  0  0  0  0
  183.8630  176.9140  135.2900 C   0  0  0  0  0  1  0  0  0  0  0  0
  182.7710  176.6520  136.2690 C   0  0  0  0  0  3  0  0  0  0  0  0
  1  7  1  0  0  0  0
  1  5  1  0  0  0  0
  2  6  1  0  0  0  0
  3  9  1  1  0  0  0
  3 10  1  0  0  0  0
  3  8  1  0  0  0  0
  4  6  1  0  0  0  0
  6 15  1  1  0  0  0
  8  5  1  6  0  0  0
  8  4  1  0  0  0  0
  9  7  1  0  0  0  0
 10  2  1  0  0  0  0
 11  2  1  0  0  0  0
 12 13  1  0  0  0  0
 14 12  2  0  0  0  0
 15 14  1  0  0  0  0
 15 17  2  0  0  0  0
 16 13  2  0  0  0  0
 17 16  1  0  0  0  0
 18 17  1  0  0  0  0
 18 19  1  0  0  0  0
 19 27  1  0  0  0  0
 21 25  1  0  0  0  0
 21 20  1  0  0  0  0
 22 26  1  6  0  0  0
 22 23  1  0  0  0  0
 22 27  1  0  0  0  0
 23 26  1  6  0  0  0
 23 24  1  0  0  0  0
 24 21  1  0  0  0  0
 25 20  1  0  0  0  0
 27 21  1  0  0  0  0
 28  1  1  0  0  0  0
 29 28  1  0  0  0  0
 30 32  2  0  0  0  0
 30 29  1  0  0  0  0
 31 32  1  0  0  0  0
M  END
>  <MODEL>
1

>  <REMARK>
 VINA RESULT:      -7.0      0.000      0.000
  Name = 
  7 active torsions:
  status: ('A' for Active; 'I' for Inactive)
    1  A    between atoms: C_1  and  C_10
    2  A    between atoms: N_2  and  C_24
    3  A    between atoms: C_10  and  C_24
    4  A    between atoms: C_14  and  C_15
    5  A    between atoms: C_16  and  C_26
    6  A    between atoms: C_16  and  N_27
    7  A    between atoms: N_27  and  N_32
                            x       y       z     vdW  Elec       q    Type
                         _______ _______ _______ _____ _____    ______ ____

>  <TORSDO>
F 7

$$$$
=
 OpenBabel11052416553D

 32 37  0  0  1  0  0  0  0  0999 V2000
  179.9310  178.6320  138.7140 N   0  0  0  0  0  0  0  0  0  0  0  0
  185.0100  178.9290  139.8490 N   0  0  0  0  0  0  0  0  0  0  0  0
  182.7360  179.2770  138.8720 C   0  0  1  0  0  3  0  0  0  0  0  0
  183.1620  177.2440  140.2280 C   0  0  0  0  0  2  0  0  0  0  0  0
  180.8790  177.6750  139.3130 C   0  0  0  0  0  2  0  0  0  0  0  0
  184.4730  177.8710  140.7270 C   0  0  2  0  0  3  0  0  0  0  0  0
  180.2980  180.0460  138.9110 C   0  0  0  0  0  2  0  0  0  0  0  0
  182.1420  178.3170  139.8920 C   0  0  2  0  0  3  0  0  0  0  0  0
  181.7370  180.3620  138.4690 C   0  0  0  0  0  2  0  0  0  0  0  0
  183.9980  179.9190  139.4470 C   0  0  0  0  0  2  0  0  0  0  0  0
  185.5770  178.3140  138.6560 C   0  0  0  0  0  1  0  0  0  0  0  0
  183.0930  179.0010  144.0960 C   0  0  0  0  0  3  0  0  0  0  0  0
  184.2400  178.9850  144.8900 C   0  0  0  0  0  3  0  0  0  0  0  0
  183.1750  178.6530  142.7460 C   0  0  0  0  0  3  0  0  0  0  0  0
  184.4050  178.2950  142.1730 C   0  0  0  0  0  0  0  0  0  0  0  0
  185.4680  178.6230  144.3340 C   0  0  0  0  0  3  0  0  0  0  0  0
  185.5620  178.2870  142.9770 C   0  0  0  0  0  0  0  0  0  0  0  0
  186.8870  177.8730  142.4150 C   0  0  0  0  0  2  0  0  0  0  0  0
  187.6680  177.1450  143.4200 N   0  0  0  0  0  2  0  0  0  0  0  0
  190.8290  177.6570  142.1820 C   0  0  0  0  0  2  0  0  0  0  0  0
  190.0670  176.9740  143.2960 C   0  0  0  0  0  0  0  0  0  0  0  0
  189.0270  178.2000  145.1060 C   0  0  2  0  0  3  0  0  0  0  0  0
  190.3250  177.6650  145.7250 C   0  0  2  0  0  3  0  0  0  0  0  0
  191.1670  176.4820  144.6250 S   0  0  0  0  0  0  0  0  0  0  0  0
  190.1080  176.3470  141.9170 C   0  0  0  0  0  2  0  0  0  0  0  0
  188.9960  177.0730  146.1320 C   0  0  0  0  0  2  0  0  0  0  0  0
  188.9130  177.7680  143.7000 N   0  0  0  0  0  0  0  0  0  0  0  0
  179.8500  178.3490  137.2850 C   0  0  0  0  0  2  0  0  0  0  0  0
  180.4140  176.9680  136.9810 C   0  0  0  0  0  2  0  0  0  0  0  0
  181.3940  177.0170  135.8520 C   0  0  0  0  0  3  0  0  0  0  0  0
  183.6580  177.1430  134.9410 C   0  0  0  0  0  1  0  0  0  0  0  0
  182.7030  177.0940  136.0830 C   0  0  0  0  0  3  0  0  0  0  0  0
  1  7  1  0  0  0  0
  1  5  1  0  0  0  0
  2  6  1  0  0  0  0
  3  9  1  1  0  0  0
  3 10  1  0  0  0  0
  3  8  1  0  0  0  0
  4  6  1  0  0  0  0
  6 15  1  1  0  0  0
  8  5  1  6  0  0  0
  8  4  1  0  0  0  0
  9  7  1  0  0  0  0
 10  2  1  0  0  0  0
 11  2  1  0  0  0  0
 12 13  1  0  0  0  0
 14 12  2  0  0  0  0
 15 14  1  0  0  0  0
 15 17  2  0  0  0  0
 16 13  2  0  0  0  0
 17 16  1  0  0  0  0
 18 17  1  0  0  0  0
 18 19  1  0  0  0  0
 19 27  1  0  0  0  0
 20 21  1  0  0  0  0
 21 27  1  0  0  0  0
 21 24  1  0  0  0  0
 22 23  1  0  0  0  0
 22 26  1  1  0  0  0
 23 26  1  1  0  0  0
 24 23  1  0  0  0  0
 25 20  1  0  0  0  0
 25 21  1  0  0  0  0
 27 22  1  0  0  0  0
 28  1  1  0  0  0  0
 29 28  1  0  0  0  0
 30 32  2  0  0  0  0
 30 29  1  0  0  0  0
 31 32  1  0  0  0  0
M  END
>  <MODEL>
2

>  <REMARK>
 VINA RESULT:      -6.9      0.527      1.639
  Name = 
  7 active torsions:
  status: ('A' for Active; 'I' for Inactive)
    1  A    between atoms: C_1  and  C_10
    2  A    between atoms: N_2  and  C_24
    3  A    between atoms: C_10  and  C_24
    4  A    between atoms: C_14  and  C_15
    5  A    between atoms: C_16  and  C_26
    6  A    between atoms: C_16  and  N_27
    7  A    between atoms: N_27  and  N_32
                            x       y       z     vdW  Elec       q    Type
                         _______ _______ _______ _____ _____    ______ ____

>  <TORSDO>
F 7

$$$$
=
 OpenBabel11052416553D

 32 37  0  0  1  0  0  0  0  0999 V2000
  179.8300  175.1720  139.7780 N   0  0  0  0  0  0  0  0  0  0  0  0
  182.2590  179.7790  139.9860 N   0  0  0  0  0  0  0  0  0  0  0  0
  180.5640  177.9600  139.7450 C   0  0  1  0  0  3  0  0  0  0  0  0
  182.9710  177.3630  139.7690 C   0  0  0  0  0  2  0  0  0  0  0  0
  181.2430  175.5650  139.6240 C   0  0  0  0  0  2  0  0  0  0  0  0
  183.3000  178.7750  140.2780 C   0  0  2  0  0  3  0  0  0  0  0  0
  179.0350  176.0990  140.6030 C   0  0  0  0  0  2  0  0  0  0  0  0
  181.5840  176.9340  140.2160 C   0  0  2  0  0  3  0  0  0  0  0  0
  179.1410  177.5610  140.1380 C   0  0  0  0  0  2  0  0  0  0  0  0
  180.9020  179.3290  140.3340 C   0  0  0  0  0  2  0  0  0  0  0  0
  182.3040  180.1120  138.5690 C   0  0  0  0  0  1  0  0  0  0  0  0
  183.1660  178.7450  144.0870 C   0  0  0  0  0  3  0  0  0  0  0  0
  184.5210  178.7080  144.4170 C   0  0  0  0  0  3  0  0  0  0  0  0
  182.7750  178.7800  142.7470 C   0  0  0  0  0  3  0  0  0  0  0  0
  183.7340  178.7880  141.7220 C   0  0  0  0  0  0  0  0  0  0  0  0
  185.4850  178.7080  143.4060 C   0  0  0  0  0  3  0  0  0  0  0  0
  185.1020  178.7590  142.0590 C   0  0  0  0  0  0  0  0  0  0  0  0
  186.1560  178.7260  140.9960 C   0  0  0  0  0  2  0  0  0  0  0  0
  187.4940  178.7280  141.5980 N   0  0  0  0  0  2  0  0  0  0  0  0
  189.2490  176.1970  143.1140 C   0  0  0  0  0  2  0  0  0  0  0  0
  189.3980  177.3700  142.1700 C   0  0  0  0  0  0  0  0  0  0  0  0
  188.5220  177.3470  139.9140 C   0  0  2  0  0  3  0  0  0  0  0  0
  190.0180  177.0640  139.7280 C   0  0  2  0  0  3  0  0  0  0  0  0
  190.9510  177.2880  141.2770 S   0  0  0  0  0  0  0  0  0  0  0  0
  189.3180  177.6100  143.6640 C   0  0  0  0  0  2  0  0  0  0  0  0
  189.4490  178.4020  139.3190 C   0  0  0  0  0  2  0  0  0  0  0  0
  188.2070  177.5270  141.3430 N   0  0  0  0  0  0  0  0  0  0  0  0
  179.2420  175.0830  138.4470 C   0  0  0  0  0  2  0  0  0  0  0  0
  180.2970  174.6960  137.4190 C   0  0  0  0  0  2  0  0  0  0  0  0
  179.9390  173.4220  136.7250 C   0  0  0  0  0  3  0  0  0  0  0  0
  179.7980  170.9850  136.5870 C   0  0  0  0  0  1  0  0  0  0  0  0
  180.1630  172.2410  137.2990 C   0  0  0  0  0  3  0  0  0  0  0  0
  1  7  1  0  0  0  0
  2  6  1  0  0  0  0
  2 10  1  0  0  0  0
  3  9  1  1  0  0  0
  3  8  1  0  0  0  0
  3 10  1  0  0  0  0
  4  8  1  0  0  0  0
  4  6  1  0  0  0  0
  5  1  1  0  0  0  0
  6 15  1  1  0  0  0
  8  5  1  6  0  0  0
  9  7  1  0  0  0  0
 11  2  1  0  0  0  0
 12 13  1  0  0  0  0
 14 12  2  0  0  0  0
 15 17  2  0  0  0  0
 15 14  1  0  0  0  0
 16 13  2  0  0  0  0
 17 16  1  0  0  0  0
 18 19  1  0  0  0  0
 18 17  1  0  0  0  0
 20 25  1  0  0  0  0
 21 20  1  0  0  0  0
 21 25  1  0  0  0  0
 22 26  1  6  0  0  0
 22 27  1  0  0  0  0
 23 26  1  6  0  0  0
 23 22  1  0  0  0  0
 23 24  1  0  0  0  0
 24 21  1  0  0  0  0
 27 19  1  0  0  0  0
 27 21  1  0  0  0  0
 28  1  1  0  0  0  0
 29 28  1  0  0  0  0
 30 32  2  0  0  0  0
 30 29  1  0  0  0  0
 31 32  1  0  0  0  0
M  END
>  <MODEL>
3

>  <REMARK>
 VINA RESULT:      -6.6      2.326      3.012
  Name = 
  7 active torsions:
  status: ('A' for Active; 'I' for Inactive)
    1  A    between atoms: C_1  and  C_10
    2  A    between atoms: N_2  and  C_24
    3  A    between atoms: C_10  and  C_24
    4  A    between atoms: C_14  and  C_15
    5  A    between atoms: C_16  and  C_26
    6  A    between atoms: C_16  and  N_27
    7  A    between atoms: N_27  and  N_32
                            x       y       z     vdW  Elec       q    Type
                         _______ _______ _______ _____ _____    ______ ____

>  <TORSDO>
F 7

$$$$
=
 OpenBabel11052416553D

 32 37  0  0  1  0  0  0  0  0999 V2000
  191.5850  177.2030  144.9060 N   0  0  0  0  0  0  0  0  0  0  0  0
  188.2150  178.5190  141.1540 N   0  0  0  0  0  0  0  0  0  0  0  0
  189.7050  178.5170  143.1590 C   0  0  1  0  0  3  0  0  0  0  0  0
  189.1580  176.3580  142.0670 C   0  0  0  0  0  2  0  0  0  0  0  0
  190.7190  176.4070  144.0170 C   0  0  0  0  0  2  0  0  0  0  0  0
  188.6080  177.1270  140.8560 C   0  0  2  0  0  3  0  0  0  0  0  0
  191.9630  178.5180  144.3600 C   0  0  0  0  0  2  0  0  0  0  0  0
  190.2490  177.1520  142.7640 C   0  0  2  0  0  3  0  0  0  0  0  0
  190.7530  179.3490  143.8990 C   0  0  0  0  0  2  0  0  0  0  0  0
  189.2340  179.2620  141.9110 C   0  0  0  0  0  2  0  0  0  0  0  0
  186.9700  178.5090  141.9100 C   0  0  0  0  0  1  0  0  0  0  0  0
  191.6700  176.5300  138.6660 C   0  0  0  0  0  3  0  0  0  0  0  0
  191.1420  176.7140  137.3880 C   0  0  0  0  0  3  0  0  0  0  0  0
  190.8500  176.6770  139.7870 C   0  0  0  0  0  3  0  0  0  0  0  0
  189.4970  177.0210  139.6430 C   0  0  0  0  0  0  0  0  0  0  0  0
  189.7960  177.0480  137.2300 C   0  0  0  0  0  3  0  0  0  0  0  0
  188.9700  177.2130  138.3500 C   0  0  0  0  0  0  0  0  0  0  0  0
  187.5220  177.5410  138.1500 C   0  0  0  0  0  2  0  0  0  0  0  0
  187.0570  177.0480  136.8500 N   0  0  0  0  0  2  0  0  0  0  0  0
  186.3600  173.7210  137.3330 C   0  0  0  0  0  2  0  0  0  0  0  0
  186.2630  174.8370  136.3160 C   0  0  0  0  0  0  0  0  0  0  0  0
  184.6990  176.6710  136.5390 C   0  0  2  0  0  3  0  0  0  0  0  0
  184.0310  175.7430  135.5160 C   0  0  2  0  0  3  0  0  0  0  0  0
  185.1450  174.4040  134.9830 S   0  0  0  0  0  0  0  0  0  0  0  0
  187.5880  174.1370  136.5430 C   0  0  0  0  0  2  0  0  0  0  0  0
  184.6200  177.0590  135.0660 C   0  0  0  0  0  2  0  0  0  0  0  0
  185.9950  176.1130  136.9690 N   0  0  0  0  0  0  0  0  0  0  0  0
  190.8790  177.3890  146.1690 C   0  0  0  0  0  2  0  0  0  0  0  0
  189.5480  176.6500  146.1530 C   0  0  0  0  0  2  0  0  0  0  0  0
  188.4130  177.5660  146.4800 C   0  0  0  0  0  3  0  0  0  0  0  0
  186.1920  178.5060  146.0800 C   0  0  0  0  0  1  0  0  0  0  0  0
  187.3090  177.5840  145.7350 C   0  0  0  0  0  3  0  0  0  0  0  0
  1 28  1  0  0  0  0
  2 11  1  0  0  0  0
  2 10  1  0  0  0  0
  3 10  1  6  0  0  0
  3  9  1  0  0  0  0
  5  1  1  0  0  0  0
  6 15  1  6  0  0  0
  6  2  1  0  0  0  0
  6  4  1  0  0  0  0
  7  1  1  0  0  0  0
  8  4  1  1  0  0  0
  8  3  1  0  0  0  0
  8  5  1  0  0  0  0
  9  7  1  0  0  0  0
 12 14  1  0  0  0  0
 13 12  2  0  0  0  0
 15 14  2  0  0  0  0
 16 13  1  0  0  0  0
 16 17  2  0  0  0  0
 17 15  1  0  0  0  0
 18 17  1  0  0  0  0
 19 27  1  0  0  0  0
 19 18  1  0  0  0  0
 21 25  1  0  0  0  0
 21 27  1  0  0  0  0
 21 20  1  0  0  0  0
 22 26  1  6  0  0  0
 22 27  1  0  0  0  0
 23 26  1  6  0  0  0
 23 22  1  0  0  0  0
 24 23  1  0  0  0  0
 24 21  1  0  0  0  0
 25 20  1  0  0  0  0
 29 28  1  0  0  0  0
 29 30  1  0  0  0  0
 32 31  1  0  0  0  0
 32 30  2  0  0  0  0
M  END
>  <MODEL>
4

>  <REMARK>
 VINA RESULT:      -6.4      3.940      9.422
  Name = 
  7 active torsions:
  status: ('A' for Active; 'I' for Inactive)
    1  A    between atoms: C_1  and  C_10
    2  A    between atoms: N_2  and  C_24
    3  A    between atoms: C_10  and  C_24
    4  A    between atoms: C_14  and  C_15
    5  A    between atoms: C_16  and  C_26
    6  A    between atoms: C_16  and  N_27
    7  A    between atoms: N_27  and  N_32
                            x       y       z     vdW  Elec       q    Type
                         _______ _______ _______ _____ _____    ______ ____

>  <TORSDO>
F 7

$$$$
=
 OpenBabel11052416553D

 32 37  0  0  1  0  0  0  0  0999 V2000
  189.2930  177.3520  142.4790 N   0  0  0  0  0  0  0  0  0  0  0  0
  188.8150  178.0020  137.3300 N   0  0  0  0  0  0  0  0  0  0  0  0
  189.7000  177.7250  139.6500 C   0  0  1  0  0  3  0  0  0  0  0  0
  187.2930  178.2340  139.3350 C   0  0  0  0  0  2  0  0  0  0  0  0
  188.1960  177.8590  141.6330 C   0  0  0  0  0  2  0  0  0  0  0  0
  187.4340  177.9040  137.8410 C   0  0  2  0  0  3  0  0  0  0  0  0
  190.2030  176.4200  141.7900 C   0  0  0  0  0  2  0  0  0  0  0  0
  188.2950  177.4470  140.1620 C   0  0  2  0  0  3  0  0  0  0  0  0
  190.7560  176.9840  140.4700 C   0  0  0  0  0  2  0  0  0  0  0  0
  189.8010  177.3170  138.1810 C   0  0  0  0  0  2  0  0  0  0  0  0
  189.1790  179.4070  137.2120 C   0  0  0  0  0  1  0  0  0  0  0  0
  186.9250  174.2490  136.8850 C   0  0  0  0  0  3  0  0  0  0  0  0
  185.5340  174.1540  136.8640 C   0  0  0  0  0  3  0  0  0  0  0  0
  187.5370  175.4670  137.1890 C   0  0  0  0  0  3  0  0  0  0  0  0
  186.7640  176.6060  137.4650 C   0  0  0  0  0  0  0  0  0  0  0  0
  184.7530  175.2780  137.1440 C   0  0  0  0  0  3  0  0  0  0  0  0
  185.3590  176.5080  137.4350 C   0  0  0  0  0  0  0  0  0  0  0  0
  184.4970  177.6890  137.7620 C   0  0  0  0  0  2  0  0  0  0  0  0
  183.7150  177.4340  138.9760 N   0  0  0  0  0  2  0  0  0  0  0  0
  184.3430  179.3120  141.7800 C   0  0  0  0  0  2  0  0  0  0  0  0
  183.2770  178.4830  141.0990 C   0  0  0  0  0  0  0  0  0  0  0  0
  182.1170  179.2310  139.1110 C   0  0  2  0  0  3  0  0  0  0  0  0
  181.1180  179.5060  140.2420 C   0  0  2  0  0  3  0  0  0  0  0  0
  181.6630  178.7830  141.8230 S   0  0  0  0  0  0  0  0  0  0  0  0
  184.4020  177.7960  141.8470 C   0  0  0  0  0  2  0  0  0  0  0  0
  180.8610  178.3800  139.2680 C   0  0  0  0  0  2  0  0  0  0  0  0
  183.3510  178.6300  139.6500 N   0  0  0  0  0  0  0  0  0  0  0  0
  190.0520  178.4990  142.9640 C   0  0  0  0  0  2  0  0  0  0  0  0
  190.5380  178.2560  144.3870 C   0  0  0  0  0  2  0  0  0  0  0  0
  189.4000  177.9440  145.3050 C   0  0  0  0  0  3  0  0  0  0  0  0
  188.4650  177.1350  147.4130 C   0  0  0  0  0  1  0  0  0  0  0  0
  189.6160  177.4380  146.5180 C   0  0  0  0  0  3  0  0  0  0  0  0
  1 28  1  0  0  0  0
  2  6  1  0  0  0  0
  2 10  1  0  0  0  0
  3 10  1  6  0  0  0
  3  8  1  0  0  0  0
  3  9  1  0  0  0  0
  5  1  1  0  0  0  0
  6 15  1  1  0  0  0
  6  4  1  0  0  0  0
  7  1  1  0  0  0  0
  8  4  1  6  0  0  0
  8  5  1  0  0  0  0
  9  7  1  0  0  0  0
 11  2  1  0  0  0  0
 12 14  1  0  0  0  0
 13 12  2  0  0  0  0
 13 16  1  0  0  0  0
 14 15  2  0  0  0  0
 16 17  2  0  0  0  0
 17 15  1  0  0  0  0
 17 18  1  0  0  0  0
 18 19  1  0  0  0  0
 19 27  1  0  0  0  0
 20 25  1  0  0  0  0
 21 20  1  0  0  0  0
 21 24  1  0  0  0  0
 21 25  1  0  0  0  0
 22 26  1  6  0  0  0
 22 27  1  0  0  0  0
 22 23  1  0  0  0  0
 23 26  1  6  0  0  0
 23 24  1  0  0  0  0
 27 21  1  0  0  0  0
 28 29  1  0  0  0  0
 29 30  1  0  0  0  0
 30 32  2  0  0  0  0
 32 31  1  0  0  0  0
M  END
>  <MODEL>
5

>  <REMARK>
 VINA RESULT:      -6.3      2.953      8.617
  Name = 
  7 active torsions:
  status: ('A' for Active; 'I' for Inactive)
    1  A    between atoms: C_1  and  C_10
    2  A    between atoms: N_2  and  C_24
    3  A    between atoms: C_10  and  C_24
    4  A    between atoms: C_14  and  C_15
    5  A    between atoms: C_16  and  C_26
    6  A    between atoms: C_16  and  N_27
    7  A    between atoms: N_27  and  N_32
                            x       y       z     vdW  Elec       q    Type
                         _______ _______ _______ _____ _____    ______ ____

>  <TORSDO>
F 7

$$$$
=
 OpenBabel11052416553D

 32 37  0  0  1  0  0  0  0  0999 V2000
  180.2930  175.1790  139.5130 N   0  0  0  0  0  0  0  0  0  0  0  0
  182.6040  179.8180  140.0670 N   0  0  0  0  0  0  0  0  0  0  0  0
  180.9980  177.9740  139.5540 C   0  0  1  0  0  3  0  0  0  0  0  0
  183.3620  177.4060  140.0440 C   0  0  0  0  0  2  0  0  0  0  0  0
  181.7070  175.5850  139.6180 C   0  0  0  0  0  2  0  0  0  0  0  0
  183.5790  178.8320  140.5730 C   0  0  2  0  0  3  0  0  0  0  0  0
  179.3500  176.1130  140.1510 C   0  0  0  0  0  2  0  0  0  0  0  0
  181.9200  176.9710  140.2320 C   0  0  2  0  0  3  0  0  0  0  0  0
  179.5300  177.5660  139.6810 C   0  0  0  0  0  2  0  0  0  0  0  0
  181.2090  179.3590  140.1640 C   0  0  0  0  0  2  0  0  0  0  0  0
  182.9120  180.1210  138.6760 C   0  0  0  0  0  1  0  0  0  0  0  0
  182.7390  178.7920  144.2910 C   0  0  0  0  0  3  0  0  0  0  0  0
  184.0070  178.8670  144.8670 C   0  0  0  0  0  3  0  0  0  0  0  0
  182.6030  178.7940  142.9010 C   0  0  0  0  0  3  0  0  0  0  0  0
  183.7330  178.8820  142.0720 C   0  0  0  0  0  0  0  0  0  0  0  0
  185.1390  178.9480  144.0540 C   0  0  0  0  0  3  0  0  0  0  0  0
  185.0120  178.9660  142.6590 C   0  0  0  0  0  0  0  0  0  0  0  0
  186.2450  179.0210  141.8110 C   0  0  0  0  0  2  0  0  0  0  0  0
  187.0190  177.7830  141.9460 N   0  0  0  0  0  2  0  0  0  0  0  0
  190.2120  177.8280  140.6860 C   0  0  0  0  0  2  0  0  0  0  0  0
  189.3100  177.1000  141.6580 C   0  0  0  0  0  0  0  0  0  0  0  0
  188.5870  178.0810  143.7500 C   0  0  2  0  0  3  0  0  0  0  0  0
  189.7220  177.1350  144.1620 C   0  0  2  0  0  3  0  0  0  0  0  0
  190.2620  176.0760  142.7820 S   0  0  0  0  0  0  0  0  0  0  0  0
  189.2030  176.8160  140.1730 C   0  0  0  0  0  2  0  0  0  0  0  0
  188.2910  176.7850  144.4970 C   0  0  0  0  0  2  0  0  0  0  0  0
  188.3750  178.0230  142.2910 N   0  0  0  0  0  0  0  0  0  0  0  0
  179.9670  175.0550  138.0970 C   0  0  0  0  0  2  0  0  0  0  0  0
  181.2360  174.9330  137.2630 C   0  0  0  0  0  2  0  0  0  0  0  0
  181.2670  175.9500  136.1680 C   0  0  0  0  0  3  0  0  0  0  0  0
  182.1920  177.9200  135.0550 C   0  0  0  0  0  1  0  0  0  0  0  0
  182.1820  176.9180  136.1560 C   0  0  0  0  0  3  0  0  0  0  0  0
  1  5  1  0  0  0  0
  1  7  1  0  0  0  0
  2 10  1  0  0  0  0
  2  6  1  0  0  0  0
  3  9  1  1  0  0  0
  3 10  1  0  0  0  0
  3  8  1  0  0  0  0
  4  8  1  0  0  0  0
  4  6  1  0  0  0  0
  6 15  1  1  0  0  0
  8  5  1  6  0  0  0
  9  7  1  0  0  0  0
 11  2  1  0  0  0  0
 12 13  1  0  0  0  0
 14 12  2  0  0  0  0
 15 17  2  0  0  0  0
 15 14  1  0  0  0  0
 16 13  2  0  0  0  0
 17 16  1  0  0  0  0
 18 19  1  0  0  0  0
 18 17  1  0  0  0  0
 19 27  1  0  0  0  0
 20 21  1  0  0  0  0
 21 27  1  0  0  0  0
 21 24  1  0  0  0  0
 22 23  1  0  0  0  0
 22 26  1  1  0  0  0
 23 26  1  1  0  0  0
 24 23  1  0  0  0  0
 25 20  1  0  0  0  0
 25 21  1  0  0  0  0
 27 22  1  0  0  0  0
 28  1  1  0  0  0  0
 29 28  1  0  0  0  0
 30 29  1  0  0  0  0
 31 32  1  0  0  0  0
 32 30  2  0  0  0  0
M  END
>  <MODEL>
6

>  <REMARK>
 VINA RESULT:      -6.3      1.567      2.559
  Name = 
  7 active torsions:
  status: ('A' for Active; 'I' for Inactive)
    1  A    between atoms: C_1  and  C_10
    2  A    between atoms: N_2  and  C_24
    3  A    between atoms: C_10  and  C_24
    4  A    between atoms: C_14  and  C_15
    5  A    between atoms: C_16  and  C_26
    6  A    between atoms: C_16  and  N_27
    7  A    between atoms: N_27  and  N_32
                            x       y       z     vdW  Elec       q    Type
                         _______ _______ _______ _____ _____    ______ ____

>  <TORSDO>
F 7

$$$$
=
 OpenBabel11052416553D

 32 37  0  0  1  0  0  0  0  0999 V2000
  186.2750  178.6280  147.3340 N   0  0  0  0  0  0  0  0  0  0  0  0
  185.3120  178.4470  142.2150 N   0  0  0  0  0  0  0  0  0  0  0  0
  186.2240  178.0600  144.5080 C   0  0  1  0  0  3  0  0  0  0  0  0
  184.8280  180.0680  144.0940 C   0  0  0  0  0  2  0  0  0  0  0  0
  185.6810  179.5960  146.3940 C   0  0  0  0  0  2  0  0  0  0  0  0
  184.3880  179.4660  142.7510 C   0  0  2  0  0  3  0  0  0  0  0  0
  186.1270  177.2210  146.9220 C   0  0  0  0  0  2  0  0  0  0  0  0
  185.1600  178.9750  145.0960 C   0  0  2  0  0  3  0  0  0  0  0  0
  186.6240  176.9580  145.4900 C   0  0  0  0  0  2  0  0  0  0  0  0
  185.7080  177.4390  143.2110 C   0  0  0  0  0  2  0  0  0  0  0  0
  186.5050  179.1090  141.7040 C   0  0  0  0  0  1  0  0  0  0  0  0
  180.8800  178.6080  143.9700 C   0  0  0  0  0  3  0  0  0  0  0  0
  180.2490  178.2440  142.7800 C   0  0  0  0  0  3  0  0  0  0  0  0
  182.2230  178.9900  143.9590 C   0  0  0  0  0  3  0  0  0  0  0  0
  182.9530  179.0030  142.7600 C   0  0  0  0  0  0  0  0  0  0  0  0
  180.9620  178.2610  141.5790 C   0  0  0  0  0  3  0  0  0  0  0  0
  182.3140  178.6280  141.5610 C   0  0  0  0  0  0  0  0  0  0  0  0
  183.0450  178.6660  140.2540 C   0  0  0  0  0  2  0  0  0  0  0  0
  183.2210  177.3110  139.7230 N   0  0  0  0  0  2  0  0  0  0  0  0
  180.4190  175.9770  138.2550 C   0  0  0  0  0  2  0  0  0  0  0  0
  181.9210  175.8260  138.3420 C   0  0  0  0  0  0  0  0  0  0  0  0
  183.4510  177.4030  137.3270 C   0  0  2  0  0  3  0  0  0  0  0  0
  183.4350  176.2250  136.3440 C   0  0  2  0  0  3  0  0  0  0  0  0
  182.5460  174.7860  137.0210 S   0  0  0  0  0  0  0  0  0  0  0  0
  181.0450  175.3000  139.4610 C   0  0  0  0  0  2  0  0  0  0  0  0
  184.6540  176.4760  137.1990 C   0  0  0  0  0  2  0  0  0  0  0  0
  182.5680  177.1260  138.4760 N   0  0  0  0  0  0  0  0  0  0  0  0
  187.6910  178.9460  147.4700 C   0  0  0  0  0  2  0  0  0  0  0  0
  188.3510  178.0290  148.4910 C   0  0  0  0  0  2  0  0  0  0  0  0
  189.7510  177.6880  148.0930 C   0  0  0  0  0  3  0  0  0  0  0  0
  191.4000  176.4310  146.7990 C   0  0  0  0  0  1  0  0  0  0  0  0
  189.9960  176.7530  147.1780 C   0  0  0  0  0  3  0  0  0  0  0  0
  1 28  1  0  0  0  0
  2  6  1  0  0  0  0
  2 10  1  0  0  0  0
  3 10  1  6  0  0  0
  3  8  1  0  0  0  0
  3  9  1  0  0  0  0
  5  1  1  0  0  0  0
  6 15  1  1  0  0  0
  6  4  1  0  0  0  0
  7  1  1  0  0  0  0
  8  4  1  6  0  0  0
  8  5  1  0  0  0  0
  9  7  1  0  0  0  0
 11  2  1  0  0  0  0
 13 12  2  0  0  0  0
 14 12  1  0  0  0  0
 15 14  2  0  0  0  0
 16 13  1  0  0  0  0
 17 16  2  0  0  0  0
 17 15  1  0  0  0  0
 18 17  1  0  0  0  0
 19 18  1  0  0  0  0
 20 21  1  0  0  0  0
 20 25  1  0  0  0  0
 21 27  1  0  0  0  0
 21 25  1  0  0  0  0
 22 26  1  1  0  0  0
 22 27  1  0  0  0  0
 23 24  1  0  0  0  0
 23 26  1  1  0  0  0
 23 22  1  0  0  0  0
 24 21  1  0  0  0  0
 27 19  1  0  0  0  0
 28 29  1  0  0  0  0
 30 29  1  0  0  0  0
 31 32  1  0  0  0  0
 32 30  2  0  0  0  0
M  END
>  <MODEL>
7

>  <REMARK>
 VINA RESULT:      -6.1      3.033      8.628
  Name = 
  7 active torsions:
  status: ('A' for Active; 'I' for Inactive)
    1  A    between atoms: C_1  and  C_10
    2  A    between atoms: N_2  and  C_24
    3  A    between atoms: C_10  and  C_24
    4  A    between atoms: C_14  and  C_15
    5  A    between atoms: C_16  and  C_26
    6  A    between atoms: C_16  and  N_27
    7  A    between atoms: N_27  and  N_32
                            x       y       z     vdW  Elec       q    Type
                         _______ _______ _______ _____ _____    ______ ____

>  <TORSDO>
F 7

$$$$
=
 OpenBabel11052416553D

 32 37  0  0  1  0  0  0  0  0999 V2000
  193.1910  175.3250  137.5660 N   0  0  0  0  0  0  0  0  0  0  0  0
  188.4540  177.2690  138.5410 N   0  0  0  0  0  0  0  0  0  0  0  0
  190.3930  176.0190  137.5810 C   0  0  1  0  0  3  0  0  0  0  0  0
  190.8280  177.8780  139.1640 C   0  0  0  0  0  2  0  0  0  0  0  0
  192.7340  176.5460  138.2560 C   0  0  0  0  0  2  0  0  0  0  0  0
  189.3410  177.8740  139.5540 C   0  0  2  0  0  3  0  0  0  0  0  0
  192.2130  174.2230  137.5820 C   0  0  0  0  0  2  0  0  0  0  0  0
  191.2780  176.4970  138.7230 C   0  0  2  0  0  3  0  0  0  0  0  0
  190.8240  174.6430  137.0720 C   0  0  0  0  0  2  0  0  0  0  0  0
  188.9380  175.9710  138.0450 C   0  0  0  0  0  2  0  0  0  0  0  0
  188.3170  178.1880  137.4200 C   0  0  0  0  0  1  0  0  0  0  0  0
  189.8710  176.0270  142.8460 C   0  0  0  0  0  3  0  0  0  0  0  0
  188.7230  176.3820  143.5560 C   0  0  0  0  0  3  0  0  0  0  0  0
  190.0610  176.5010  141.5470 C   0  0  0  0  0  3  0  0  0  0  0  0
  189.1020  177.3260  140.9380 C   0  0  0  0  0  0  0  0  0  0  0  0
  187.7650  177.2080  142.9650 C   0  0  0  0  0  3  0  0  0  0  0  0
  187.9410  177.6760  141.6560 C   0  0  0  0  0  0  0  0  0  0  0  0
  186.9120  178.5860  141.0590 C   0  0  0  0  0  2  0  0  0  0  0  0
  186.0450  179.1380  142.1040 N   0  0  0  0  0  2  0  0  0  0  0  0
  183.4330  177.5030  140.5900 C   0  0  0  0  0  2  0  0  0  0  0  0
  183.7590  178.6450  141.5270 C   0  0  0  0  0  0  0  0  0  0  0  0
  184.5460  178.2920  143.7890 C   0  0  2  0  0  3  0  0  0  0  0  0
  183.0600  178.6280  143.9670 C   0  0  2  0  0  3  0  0  0  0  0  0
  182.2980  179.1940  142.4120 S   0  0  0  0  0  0  0  0  0  0  0  0
  183.9340  178.8240  140.0320 C   0  0  0  0  0  2  0  0  0  0  0  0
  184.1130  179.6320  144.3730 C   0  0  0  0  0  2  0  0  0  0  0  0
  184.9110  178.3220  142.3600 N   0  0  0  0  0  0  0  0  0  0  0  0
  193.4990  175.6780  136.1850 C   0  0  0  0  0  2  0  0  0  0  0  0
  194.0220  174.4660  135.4260 C   0  0  0  0  0  2  0  0  0  0  0  0
  195.4650  174.6280  135.0700 C   0  0  0  0  0  3  0  0  0  0  0  0
  197.6760  175.6280  135.3550 C   0  0  0  0  0  1  0  0  0  0  0  0
  196.2420  175.4840  135.7290 C   0  0  0  0  0  3  0  0  0  0  0  0
  1  7  1  0  0  0  0
  1  5  1  0  0  0  0
  2  6  1  0  0  0  0
  3  9  1  1  0  0  0
  3 10  1  0  0  0  0
  3  8  1  0  0  0  0
  4  6  1  0  0  0  0
  6 15  1  1  0  0  0
  8  5  1  6  0  0  0
  8  4  1  0  0  0  0
  9  7  1  0  0  0  0
 10  2  1  0  0  0  0
 11  2  1  0  0  0  0
 12 13  1  0  0  0  0
 14 12  2  0  0  0  0
 15 14  1  0  0  0  0
 15 17  2  0  0  0  0
 16 13  2  0  0  0  0
 17 16  1  0  0  0  0
 18 17  1  0  0  0  0
 18 19  1  0  0  0  0
 19 27  1  0  0  0  0
 20 21  1  0  0  0  0
 21 27  1  0  0  0  0
 21 24  1  0  0  0  0
 22 23  1  0  0  0  0
 22 26  1  1  0  0  0
 23 26  1  1  0  0  0
 24 23  1  0  0  0  0
 25 20  1  0  0  0  0
 25 21  1  0  0  0  0
 27 22  1  0  0  0  0
 28  1  1  0  0  0  0
 29 28  1  0  0  0  0
 30 29  1  0  0  0  0
 30 32  2  0  0  0  0
 31 32  1  0  0  0  0
M  END
>  <MODEL>
8

>  <REMARK>
 VINA RESULT:      -5.7      4.758      8.915
  Name = 
  7 active torsions:
  status: ('A' for Active; 'I' for Inactive)
    1  A    between atoms: C_1  and  C_10
    2  A    between atoms: N_2  and  C_24
    3  A    between atoms: C_10  and  C_24
    4  A    between atoms: C_14  and  C_15
    5  A    between atoms: C_16  and  C_26
    6  A    between atoms: C_16  and  N_27
    7  A    between atoms: N_27  and  N_32
                            x       y       z     vdW  Elec       q    Type
                         _______ _______ _______ _____ _____    ______ ____

>  <TORSDO>
F 7

$$$$
=
 OpenBabel11052416553D

 32 37  0  0  1  0  0  0  0  0999 V2000
  191.6800  177.2350  144.9520 N   0  0  0  0  0  0  0  0  0  0  0  0
  188.2650  178.5320  141.2350 N   0  0  0  0  0  0  0  0  0  0  0  0
  189.7750  178.5380  143.2250 C   0  0  1  0  0  3  0  0  0  0  0  0
  189.2320  176.3770  142.1360 C   0  0  0  0  0  2  0  0  0  0  0  0
  190.8110  176.4350  144.0700 C   0  0  0  0  0  2  0  0  0  0  0  0
  188.6640  177.1440  140.9320 C   0  0  2  0  0  3  0  0  0  0  0  0
  192.0440  178.5540  144.4040 C   0  0  0  0  0  2  0  0  0  0  0  0
  190.3240  177.1770  142.8240 C   0  0  2  0  0  3  0  0  0  0  0  0
  190.8240  179.3770  143.9560 C   0  0  0  0  0  2  0  0  0  0  0  0
  189.2860  179.2820  141.9830 C   0  0  0  0  0  2  0  0  0  0  0  0
  187.0270  178.5130  142.0030 C   0  0  0  0  0  1  0  0  0  0  0  0
  191.7310  176.6650  138.7190 C   0  0  0  0  0  3  0  0  0  0  0  0
  191.1740  176.7520  137.4430 C   0  0  0  0  0  3  0  0  0  0  0  0
  190.9180  176.8050  139.8460 C   0  0  0  0  0  3  0  0  0  0  0  0
  189.5420  177.0450  139.7100 C   0  0  0  0  0  0  0  0  0  0  0  0
  189.8050  176.9820  137.2940 C   0  0  0  0  0  3  0  0  0  0  0  0
  188.9850  177.1400  138.4190 C   0  0  0  0  0  0  0  0  0  0  0  0
  187.5150  177.3550  138.2280 C   0  0  0  0  0  2  0  0  0  0  0  0
  187.2480  177.9650  136.9220 N   0  0  0  0  0  2  0  0  0  0  0  0
  183.8240  177.8780  137.1560 C   0  0  0  0  0  2  0  0  0  0  0  0
  185.0620  177.0130  137.2580 C   0  0  0  0  0  0  0  0  0  0  0  0
  186.3770  176.3880  135.3240 C   0  0  2  0  0  3  0  0  0  0  0  0
  185.5350  175.1390  135.6130 C   0  0  2  0  0  3  0  0  0  0  0  0
  184.6410  175.2710  137.1950 S   0  0  0  0  0  0  0  0  0  0  0  0
  184.6750  177.9140  138.4130 C   0  0  0  0  0  2  0  0  0  0  0  0
  187.0170  175.1310  135.9040 C   0  0  0  0  0  2  0  0  0  0  0  0
  186.0780  177.4470  136.3070 N   0  0  0  0  0  0  0  0  0  0  0  0
  190.9860  177.4150  146.2220 C   0  0  0  0  0  2  0  0  0  0  0  0
  189.6840  176.6260  146.2370 C   0  0  0  0  0  2  0  0  0  0  0  0
  188.5210  177.5010  146.5790 C   0  0  0  0  0  3  0  0  0  0  0  0
  186.2830  178.3980  146.1800 C   0  0  0  0  0  1  0  0  0  0  0  0
  187.4270  177.5170  145.8190 C   0  0  0  0  0  3  0  0  0  0  0  0
  1 28  1  0  0  0  0
  2 10  1  0  0  0  0
  2 11  1  0  0  0  0
  3 10  1  6  0  0  0
  3  9  1  0  0  0  0
  5  1  1  0  0  0  0
  6 15  1  6  0  0  0
  6  2  1  0  0  0  0
  6  4  1  0  0  0  0
  7  1  1  0  0  0  0
  8  4  1  1  0  0  0
  8  3  1  0  0  0  0
  8  5  1  0  0  0  0
  9  7  1  0  0  0  0
 12 14  1  0  0  0  0
 13 12  2  0  0  0  0
 15 14  2  0  0  0  0
 16 13  1  0  0  0  0
 16 17  2  0  0  0  0
 17 15  1  0  0  0  0
 18 17  1  0  0  0  0
 19 18  1  0  0  0  0
 20 21  1  0  0  0  0
 20 25  1  0  0  0  0
 21 25  1  0  0  0  0
 22 23  1  0  0  0  0
 22 26  1  1  0  0  0
 22 27  1  0  0  0  0
 23 26  1  1  0  0  0
 23 24  1  0  0  0  0
 24 21  1  0  0  0  0
 27 19  1  0  0  0  0
 27 21  1  0  0  0  0
 28 29  1  0  0  0  0
 29 30  1  0  0  0  0
 32 31  1  0  0  0  0
 32 30  2  0  0  0  0
M  END
>  <MODEL>
9

>  <REMARK>
 VINA RESULT:      -5.7      3.362      9.306
  Name = 
  7 active torsions:
  status: ('A' for Active; 'I' for Inactive)
    1  A    between atoms: C_1  and  C_10
    2  A    between atoms: N_2  and  C_24
    3  A    between atoms: C_10  and  C_24
    4  A    between atoms: C_14  and  C_15
    5  A    between atoms: C_16  and  C_26
    6  A    between atoms: C_16  and  N_27
    7  A    between atoms: N_27  and  N_32
                            x       y       z     vdW  Elec       q    Type
                         _______ _______ _______ _____ _____    ______ ____

>  <TORSDO>
F 7

$$$$
