=
 OpenBabel11052413093D

 31 35  0  0  0  0  0  0  0  0999 V2000
  187.3810  178.1680  143.3600 C   0  0  0  0  0  0  0  0  0  0  0  0
  186.1030  178.4060  143.9120 C   0  0  0  0  0  0  0  0  0  0  0  0
  184.5290  178.3900  145.7660 C   0  0  0  0  0  0  0  0  0  0  0  0
  188.5370  177.6730  144.1230 C   0  0  0  0  0  0  0  0  0  0  0  0
  190.1180  177.0440  145.5510 C   0  0  0  0  0  0  0  0  0  0  0  0
  185.8060  178.1380  145.2570 C   0  0  0  0  0  3  0  0  0  0  0  0
  188.9570  178.1780  141.3230 C   0  0  0  0  0  0  0  0  0  0  0  0
  185.3520  179.2070  141.7740 N   0  0  0  0  0  0  0  0  0  0  0  0
  184.2540  178.1280  147.0660 F   0  0  0  0  0  0  0  0  0  0  0  0
  190.0390  177.8090  142.2550 N   0  0  0  0  0  4  0  0  0  0  0  0
  187.6140  178.4540  141.9950 C   0  0  0  0  0  0  0  0  0  0  0  0
  188.6850  177.3790  145.4060 C   0  0  0  0  0  3  0  0  0  0  0  0
  183.5350  178.9130  144.9350 C   0  0  0  0  0  3  0  0  0  0  0  0
  189.8180  177.5500  143.5050 C   0  0  0  0  0  0  0  0  0  0  0  0
  190.7960  177.1620  144.4500 N   0  0  0  0  0  0  0  0  0  0  0  0
  186.5730  178.9790  141.2250 C   0  0  0  0  0  3  0  0  0  0  0  0
  185.0900  178.9360  143.0780 C   0  0  0  0  0  0  0  0  0  0  0  0
  183.8150  179.1860  143.5930 C   0  0  0  0  0  3  0  0  0  0  0  0
  189.3410  178.4890  138.5220 O   0  0  0  0  0  0  0  0  0  0  0  0
  189.0180  177.3400  138.9300 C   0  0  0  0  0  0  0  0  0  0  0  0
  188.7950  177.1260  140.3270 N   0  0  0  0  0  2  0  0  0  0  0  0
  188.4490  174.1070  136.1910 C   0  0  0  0  0  0  0  0  0  0  0  0
  187.5870  175.9590  137.4530 C   0  0  0  0  0  3  0  0  0  0  0  0
  191.3190  175.5320  138.0760 C   0  0  0  0  0  1  0  0  0  0  0  0
  188.2440  172.9850  135.2390 C   0  0  0  0  0  1  0  0  0  0  0  0
  187.3740  174.9120  136.5580 C   0  0  0  0  0  3  0  0  0  0  0  0
  189.9230  175.3620  137.5780 C   0  0  0  0  0  0  0  0  0  0  0  0
  188.8600  176.2080  137.9810 C   0  0  0  0  0  0  0  0  0  0  0  0
  189.6850  174.3470  136.7020 N   0  0  0  0  0  0  0  0  0  0  0  0
  190.7580  176.6900  146.8480 C   0  0  0  0  0  2  0  0  0  0  0  0
  192.1430  176.6490  146.6920 O   0  0  0  0  0  1  0  0  0  0  0  0
  1  2  1  0  0  0  0
  1  4  1  0  0  0  0
  2  6  1  0  0  0  0
  3  9  1  0  0  0  0
  4 12  2  0  0  0  0
  5 30  1  0  0  0  0
  6  3  2  0  0  0  0
  7 11  1  0  0  0  0
  7 10  2  0  0  0  0
  8 17  1  0  0  0  0
 10 14  2  0  0  0  0
 11  1  2  0  0  0  0
 12  5  1  0  0  0  0
 13  3  1  0  0  0  0
 14  4  1  0  0  0  0
 14 15  1  0  0  0  0
 15  5  2  0  0  0  0
 16  8  2  0  0  0  0
 16 11  1  0  0  0  0
 17 18  1  0  0  0  0
 17  2  2  0  0  0  0
 18 13  2  0  0  0  0
 19 20  2  0  0  0  0
 20 21  1  0  0  0  0
 21  7  1  0  0  0  0
 22 26  2  0  0  0  0
 22 29  1  0  0  0  0
 23 28  2  0  0  0  0
 25 22  1  0  0  0  0
 26 23  1  0  0  0  0
 27 28  1  0  0  0  0
 27 24  1  0  0  0  0
 28 20  1  0  0  0  0
 29 27  2  0  0  0  0
 31 30  1  0  0  0  0
M  END
>  <MODEL>
1

>  <REMARK>
 VINA RESULT:      -9.9      0.000      0.000
  Name = 
  3 active torsions:
  status: ('A' for Active; 'I' for Inactive)
    1  A    between atoms: C_2  and  CA_13
    2  A    between atoms: C_9  and  C_22
    3  A    between atoms: C_15  and  N_23
                            x       y       z     vdW  Elec       q    Type
                         _______ _______ _______ _____ _____    ______ ____

>  <TORSDO>
F 3

$$$$
=
 OpenBabel11052413093D

 31 35  0  0  0  0  0  0  0  0999 V2000
  187.0000  178.1440  143.5150 C   0  0  0  0  0  0  0  0  0  0  0  0
  187.3740  177.8900  144.8520 C   0  0  0  0  0  0  0  0  0  0  0  0
  188.9420  177.0790  146.5250 C   0  0  0  0  0  0  0  0  0  0  0  0
  187.8600  177.8920  142.3490 C   0  0  0  0  0  0  0  0  0  0  0  0
  189.4200  177.5240  140.8090 C   0  0  0  0  0  0  0  0  0  0  0  0
  188.6090  177.3140  145.1890 C   0  0  0  0  0  3  0  0  0  0  0  0
  185.2510  178.9820  141.8190 C   0  0  0  0  0  0  0  0  0  0  0  0
  185.2710  178.7910  145.5890 N   0  0  0  0  0  0  0  0  0  0  0  0
  190.1370  176.5240  146.8370 F   0  0  0  0  0  0  0  0  0  0  0  0
  186.2830  178.7950  140.7800 N   0  0  0  0  0  4  0  0  0  0  0  0
  185.7380  178.7220  143.2430 C   0  0  0  0  0  0  0  0  0  0  0  0
  189.1000  177.4360  142.2500 C   0  0  0  0  0  3  0  0  0  0  0  0
  188.0440  177.4190  147.5400 C   0  0  0  0  0  3  0  0  0  0  0  0
  187.4380  178.2670  141.0370 C   0  0  0  0  0  0  0  0  0  0  0  0
  188.4630  178.0300  140.0930 N   0  0  0  0  0  0  0  0  0  0  0  0
  184.8930  179.0380  144.3090 C   0  0  0  0  0  3  0  0  0  0  0  0
  186.4710  178.2300  145.8870 C   0  0  0  0  0  0  0  0  0  0  0  0
  186.8110  177.9930  147.2220 C   0  0  0  0  0  3  0  0  0  0  0  0
  183.3220  179.4350  139.7790 O   0  0  0  0  0  0  0  0  0  0  0  0
  183.1810  178.3940  140.4780 C   0  0  0  0  0  0  0  0  0  0  0  0
  184.1120  178.1210  141.5300 N   0  0  0  0  0  2  0  0  0  0  0  0
  180.0290  175.6140  139.6960 C   0  0  0  0  0  0  0  0  0  0  0  0
  182.3170  176.3070  139.4630 C   0  0  0  0  0  3  0  0  0  0  0  0
  180.3570  178.8250  141.5410 C   0  0  0  0  0  1  0  0  0  0  0  0
  178.9380  174.6440  139.4200 C   0  0  0  0  0  1  0  0  0  0  0  0
  181.3070  175.3840  139.1930 C   0  0  0  0  0  3  0  0  0  0  0  0
  180.7440  177.6420  140.7180 C   0  0  0  0  0  0  0  0  0  0  0  0
  182.0600  177.4520  140.2280 C   0  0  0  0  0  0  0  0  0  0  0  0
  179.7790  176.7240  140.4380 N   0  0  0  0  0  0  0  0  0  0  0  0
  190.7410  177.1560  140.2310 C   0  0  0  0  0  2  0  0  0  0  0  0
  190.5970  176.0400  139.4070 O   0  0  0  0  0  1  0  0  0  0  0  0
  1  2  1  0  0  0  0
  2  6  2  0  0  0  0
  2 17  1  0  0  0  0
  3  9  1  0  0  0  0
  3 13  2  0  0  0  0
  4  1  1  0  0  0  0
  5 12  1  0  0  0  0
  6  3  1  0  0  0  0
  7 11  1  0  0  0  0
  8 17  1  0  0  0  0
 10 14  2  0  0  0  0
 10  7  2  0  0  0  0
 11  1  2  0  0  0  0
 11 16  1  0  0  0  0
 12  4  2  0  0  0  0
 14  4  1  0  0  0  0
 15  5  2  0  0  0  0
 15 14  1  0  0  0  0
 16  8  2  0  0  0  0
 17 18  2  0  0  0  0
 18 13  1  0  0  0  0
 19 20  2  0  0  0  0
 20 21  1  0  0  0  0
 21  7  1  0  0  0  0
 22 29  1  0  0  0  0
 23 28  2  0  0  0  0
 25 22  1  0  0  0  0
 26 23  1  0  0  0  0
 26 22  2  0  0  0  0
 27 24  1  0  0  0  0
 28 20  1  0  0  0  0
 28 27  1  0  0  0  0
 29 27  2  0  0  0  0
 30  5  1  0  0  0  0
 31 30  1  0  0  0  0
M  END
>  <MODEL>
2

>  <REMARK>
 VINA RESULT:      -9.9      3.622      6.101
  Name = 
  3 active torsions:
  status: ('A' for Active; 'I' for Inactive)
    1  A    between atoms: C_2  and  CA_13
    2  A    between atoms: C_9  and  C_22
    3  A    between atoms: C_15  and  N_23
                            x       y       z     vdW  Elec       q    Type
                         _______ _______ _______ _____ _____    ______ ____

>  <TORSDO>
F 3

$$$$
=
 OpenBabel11052413093D

 31 35  0  0  0  0  0  0  0  0999 V2000
  187.0380  178.1170  143.3750 C   0  0  0  0  0  0  0  0  0  0  0  0
  187.3660  177.8860  144.7290 C   0  0  0  0  0  0  0  0  0  0  0  0
  188.8840  177.1250  146.4710 C   0  0  0  0  0  0  0  0  0  0  0  0
  187.9460  177.8640  142.2460 C   0  0  0  0  0  0  0  0  0  0  0  0
  189.5680  177.5010  140.7710 C   0  0  0  0  0  0  0  0  0  0  0  0
  188.5970  177.3360  145.1190 C   0  0  0  0  0  3  0  0  0  0  0  0
  185.3420  178.9030  141.6040 C   0  0  0  0  0  0  0  0  0  0  0  0
  185.2230  178.7620  145.3750 N   0  0  0  0  0  0  0  0  0  0  0  0
  190.0750  176.5930  146.8350 F   0  0  0  0  0  0  0  0  0  0  0  0
  186.4140  178.7190  140.6070 N   0  0  0  0  0  4  0  0  0  0  0  0
  185.7790  178.6700  143.0490 C   0  0  0  0  0  0  0  0  0  0  0  0
  189.1960  177.4270  142.2000 C   0  0  0  0  0  3  0  0  0  0  0  0
  187.9430  177.4620  147.4470 C   0  0  0  0  0  3  0  0  0  0  0  0
  187.5670  178.2150  140.9150 C   0  0  0  0  0  0  0  0  0  0  0  0
  188.6300  177.9820  140.0120 N   0  0  0  0  0  0  0  0  0  0  0  0
  184.8890  178.9860  144.0790 C   0  0  0  0  0  3  0  0  0  0  0  0
  186.4200  178.2250  145.7250 C   0  0  0  0  0  0  0  0  0  0  0  0
  186.7140  178.0120  147.0750 C   0  0  0  0  0  3  0  0  0  0  0  0
  183.3410  179.4170  139.6500 O   0  0  0  0  0  0  0  0  0  0  0  0
  183.2580  178.3270  140.2780 C   0  0  0  0  0  0  0  0  0  0  0  0
  184.2280  178.0190  141.2850 N   0  0  0  0  0  2  0  0  0  0  0  0
  180.0500  175.6010  139.5290 C   0  0  0  0  0  0  0  0  0  0  0  0
  180.9440  177.5270  140.6530 C   0  0  0  0  0  3  0  0  0  0  0  0
  183.5460  176.0010  138.3290 C   0  0  0  0  0  1  0  0  0  0  0  0
  178.9320  174.6580  139.2740 C   0  0  0  0  0  1  0  0  0  0  0  0
  179.8820  176.6520  140.4270 C   0  0  0  0  0  3  0  0  0  0  0  0
  182.2910  176.2750  139.0870 C   0  0  0  0  0  0  0  0  0  0  0  0
  182.1680  177.3600  139.9920 C   0  0  0  0  0  0  0  0  0  0  0  0
  181.2360  175.4390  138.8870 N   0  0  0  0  0  0  0  0  0  0  0  0
  190.9150  177.1480  140.2480 C   0  0  0  0  0  2  0  0  0  0  0  0
  190.8090  176.0700  139.3690 O   0  0  0  0  0  1  0  0  0  0  0  0
  1  2  1  0  0  0  0
  2  6  2  0  0  0  0
  2 17  1  0  0  0  0
  3  9  1  0  0  0  0
  3 13  2  0  0  0  0
  4  1  1  0  0  0  0
  5 12  1  0  0  0  0
  6  3  1  0  0  0  0
  7 11  1  0  0  0  0
  8 17  1  0  0  0  0
 10 14  2  0  0  0  0
 10  7  2  0  0  0  0
 11  1  2  0  0  0  0
 11 16  1  0  0  0  0
 12  4  2  0  0  0  0
 14  4  1  0  0  0  0
 15  5  2  0  0  0  0
 15 14  1  0  0  0  0
 16  8  2  0  0  0  0
 17 18  2  0  0  0  0
 18 13  1  0  0  0  0
 19 20  2  0  0  0  0
 20 21  1  0  0  0  0
 21  7  1  0  0  0  0
 22 26  1  0  0  0  0
 24 27  1  0  0  0  0
 25 22  1  0  0  0  0
 26 23  2  0  0  0  0
 27 28  2  0  0  0  0
 28 20  1  0  0  0  0
 28 23  1  0  0  0  0
 29 27  1  0  0  0  0
 29 22  2  0  0  0  0
 30  5  1  0  0  0  0
 31 30  1  0  0  0  0
M  END
>  <MODEL>
3

>  <REMARK>
 VINA RESULT:      -9.7      3.610      5.759
  Name = 
  3 active torsions:
  status: ('A' for Active; 'I' for Inactive)
    1  A    between atoms: C_2  and  CA_13
    2  A    between atoms: C_9  and  C_22
    3  A    between atoms: C_15  and  N_23
                            x       y       z     vdW  Elec       q    Type
                         _______ _______ _______ _____ _____    ______ ____

>  <TORSDO>
F 3

$$$$
=
 OpenBabel11052413093D

 31 35  0  0  0  0  0  0  0  0999 V2000
  187.9830  177.9140  143.1070 C   0  0  0  0  0  0  0  0  0  0  0  0
  186.7070  178.1610  143.6600 C   0  0  0  0  0  0  0  0  0  0  0  0
  185.1490  178.2050  145.5270 C   0  0  0  0  0  0  0  0  0  0  0  0
  189.1510  177.4670  143.8800 C   0  0  0  0  0  0  0  0  0  0  0  0
  190.7520  176.9190  145.3210 C   0  0  0  0  0  0  0  0  0  0  0  0
  186.4240  177.9480  145.0180 C   0  0  0  0  0  3  0  0  0  0  0  0
  189.5410  177.8560  141.0570 C   0  0  0  0  0  0  0  0  0  0  0  0
  185.9280  178.8600  141.4960 N   0  0  0  0  0  0  0  0  0  0  0  0
  184.8880  177.9960  146.8390 F   0  0  0  0  0  0  0  0  0  0  0  0
  190.6360  177.5400  141.9960 N   0  0  0  0  0  4  0  0  0  0  0  0
  188.2010  178.1450  141.7290 C   0  0  0  0  0  0  0  0  0  0  0  0
  189.3140  177.2310  145.1740 C   0  0  0  0  0  3  0  0  0  0  0  0
  184.1420  178.6800  144.6830 C   0  0  0  0  0  3  0  0  0  0  0  0
  190.4290  177.3330  143.2570 C   0  0  0  0  0  0  0  0  0  0  0  0
  191.4190  176.9980  144.2090 N   0  0  0  0  0  0  0  0  0  0  0  0
  187.1470  178.6230  140.9470 C   0  0  0  0  0  3  0  0  0  0  0  0
  185.6800  178.6420  142.8140 C   0  0  0  0  0  0  0  0  0  0  0  0
  184.4070  178.8980  143.3290 C   0  0  0  0  0  3  0  0  0  0  0  0
  189.8750  178.0560  138.2410 O   0  0  0  0  0  0  0  0  0  0  0  0
  189.5800  176.9200  138.7010 C   0  0  0  0  0  0  0  0  0  0  0  0
  189.3840  176.7610  140.1100 N   0  0  0  0  0  2  0  0  0  0  0  0
  189.2580  173.5130  136.1380 C   0  0  0  0  0  0  0  0  0  0  0  0
  190.5360  174.9060  137.6200 C   0  0  0  0  0  3  0  0  0  0  0  0
  186.9920  176.2470  137.2390 C   0  0  0  0  0  1  0  0  0  0  0  0
  189.1530  172.3280  135.2490 C   0  0  0  0  0  1  0  0  0  0  0  0
  190.4570  173.7890  136.7900 C   0  0  0  0  0  3  0  0  0  0  0  0
  188.2310  175.4240  137.1190 C   0  0  0  0  0  0  0  0  0  0  0  0
  189.4300  175.7460  137.8030 C   0  0  0  0  0  0  0  0  0  0  0  0
  188.1850  174.3260  136.3160 N   0  0  0  0  0  0  0  0  0  0  0  0
  191.4070  176.6300  146.6250 C   0  0  0  0  0  2  0  0  0  0  0  0
  190.6270  177.1380  147.6640 O   0  0  0  0  0  1  0  0  0  0  0  0
  1  2  1  0  0  0  0
  1  4  1  0  0  0  0
  2  6  1  0  0  0  0
  3  9  1  0  0  0  0
  4 12  2  0  0  0  0
  5 30  1  0  0  0  0
  6  3  2  0  0  0  0
  7 11  1  0  0  0  0
  7 10  2  0  0  0  0
  8 17  1  0  0  0  0
 10 14  2  0  0  0  0
 11  1  2  0  0  0  0
 12  5  1  0  0  0  0
 13  3  1  0  0  0  0
 14  4  1  0  0  0  0
 14 15  1  0  0  0  0
 15  5  2  0  0  0  0
 16  8  2  0  0  0  0
 16 11  1  0  0  0  0
 17 18  1  0  0  0  0
 17  2  2  0  0  0  0
 18 13  2  0  0  0  0
 19 20  2  0  0  0  0
 20 21  1  0  0  0  0
 21  7  1  0  0  0  0
 22 29  2  0  0  0  0
 22 26  1  0  0  0  0
 23 28  1  0  0  0  0
 25 22  1  0  0  0  0
 26 23  2  0  0  0  0
 27 24  1  0  0  0  0
 27 28  2  0  0  0  0
 28 20  1  0  0  0  0
 29 27  1  0  0  0  0
 30 31  1  0  0  0  0
M  END
>  <MODEL>
4

>  <REMARK>
 VINA RESULT:      -9.5      0.894      1.429
  Name = 
  3 active torsions:
  status: ('A' for Active; 'I' for Inactive)
    1  A    between atoms: C_2  and  CA_13
    2  A    between atoms: C_9  and  C_22
    3  A    between atoms: C_15  and  N_23
                            x       y       z     vdW  Elec       q    Type
                         _______ _______ _______ _____ _____    ______ ____

>  <TORSDO>
F 3

$$$$
=
 OpenBabel11052413093D

 31 35  0  0  0  0  0  0  0  0999 V2000
  186.2080  178.3610  142.5310 C   0  0  0  0  0  0  0  0  0  0  0  0
  184.8080  178.5420  142.5130 C   0  0  0  0  0  0  0  0  0  0  0  0
  182.6260  178.5120  143.5880 C   0  0  0  0  0  0  0  0  0  0  0  0
  186.9820  177.9800  143.7220 C   0  0  0  0  0  0  0  0  0  0  0  0
  187.8850  177.5250  145.7010 C   0  0  0  0  0  0  0  0  0  0  0  0
  184.0090  178.3200  143.6460 C   0  0  0  0  0  3  0  0  0  0  0  0
  188.4640  178.3760  141.2890 C   0  0  0  0  0  0  0  0  0  0  0  0
  184.9410  179.1880  140.2020 N   0  0  0  0  0  0  0  0  0  0  0  0
  181.8660  178.2950  144.6880 F   0  0  0  0  0  0  0  0  0  0  0  0
  189.0980  178.1230  142.5980 N   0  0  0  0  0  4  0  0  0  0  0  0
  186.9550  178.5960  141.3530 C   0  0  0  0  0  0  0  0  0  0  0  0
  186.6180  177.7590  144.9760 C   0  0  0  0  0  3  0  0  0  0  0  0
  182.0270  178.9280  142.3970 C   0  0  0  0  0  3  0  0  0  0  0  0
  188.4070  177.9110  143.6730 C   0  0  0  0  0  0  0  0  0  0  0  0
  188.9410  177.6340  144.9520 N   0  0  0  0  0  0  0  0  0  0  0  0
  186.2880  179.0140  140.1990 C   0  0  0  0  0  3  0  0  0  0  0  0
  184.1910  178.9630  141.3120 C   0  0  0  0  0  0  0  0  0  0  0  0
  182.8080  179.1540  141.2610 C   0  0  0  0  0  3  0  0  0  0  0  0
  189.4570  178.6320  138.6370 O   0  0  0  0  0  0  0  0  0  0  0  0
  189.2700  177.4600  139.0660 C   0  0  0  0  0  0  0  0  0  0  0  0
  188.7570  177.2690  140.3880 N   0  0  0  0  0  2  0  0  0  0  0  0
  190.2430  174.0580  136.6660 C   0  0  0  0  0  0  0  0  0  0  0  0
  190.8650  175.7460  138.2580 C   0  0  0  0  0  3  0  0  0  0  0  0
  187.2150  176.1360  137.2450 C   0  0  0  0  0  1  0  0  0  0  0  0
  190.5880  172.8770  135.8350 C   0  0  0  0  0  1  0  0  0  0  0  0
  191.2080  174.6370  137.4860 C   0  0  0  0  0  3  0  0  0  0  0  0
  188.6220  175.6550  137.3680 C   0  0  0  0  0  0  0  0  0  0  0  0
  189.5700  176.2780  138.2180 C   0  0  0  0  0  0  0  0  0  0  0  0
  188.9870  174.5740  136.6260 N   0  0  0  0  0  0  0  0  0  0  0  0
  187.9670  177.2770  147.1650 C   0  0  0  0  0  2  0  0  0  0  0  0
  189.2260  176.7690  147.4850 O   0  0  0  0  0  1  0  0  0  0  0  0
  1  4  1  0  0  0  0
  2  1  1  0  0  0  0
  2  6  1  0  0  0  0
  3  6  2  0  0  0  0
  3  9  1  0  0  0  0
  4 12  2  0  0  0  0
  5 30  1  0  0  0  0
  7 11  1  0  0  0  0
  7 10  2  0  0  0  0
  8 17  1  0  0  0  0
 10 14  2  0  0  0  0
 11  1  2  0  0  0  0
 12  5  1  0  0  0  0
 13  3  1  0  0  0  0
 14  4  1  0  0  0  0
 14 15  1  0  0  0  0
 15  5  2  0  0  0  0
 16  8  2  0  0  0  0
 16 11  1  0  0  0  0
 17  2  2  0  0  0  0
 18 17  1  0  0  0  0
 18 13  2  0  0  0  0
 19 20  2  0  0  0  0
 20 21  1  0  0  0  0
 21  7  1  0  0  0  0
 22 26  1  0  0  0  0
 24 27  1  0  0  0  0
 25 22  1  0  0  0  0
 26 23  2  0  0  0  0
 27 28  2  0  0  0  0
 28 23  1  0  0  0  0
 28 20  1  0  0  0  0
 29 22  2  0  0  0  0
 29 27  1  0  0  0  0
 30 31  1  0  0  0  0
M  END
>  <MODEL>
5

>  <REMARK>
 VINA RESULT:      -8.6      1.516      2.199
  Name = 
  3 active torsions:
  status: ('A' for Active; 'I' for Inactive)
    1  A    between atoms: C_2  and  CA_13
    2  A    between atoms: C_9  and  C_22
    3  A    between atoms: C_15  and  N_23
                            x       y       z     vdW  Elec       q    Type
                         _______ _______ _______ _____ _____    ______ ____

>  <TORSDO>
F 3

$$$$
=
 OpenBabel11052413093D

 31 35  0  0  0  0  0  0  0  0999 V2000
  188.4610  177.8170  142.8360 C   0  0  0  0  0  0  0  0  0  0  0  0
  188.9350  177.4540  144.1160 C   0  0  0  0  0  0  0  0  0  0  0  0
  190.5830  176.4330  145.5840 C   0  0  0  0  0  0  0  0  0  0  0  0
  189.1910  177.5800  141.5810 C   0  0  0  0  0  0  0  0  0  0  0  0
  190.5730  177.2010  139.8830 C   0  0  0  0  0  0  0  0  0  0  0  0
  190.1490  176.7740  144.3000 C   0  0  0  0  0  3  0  0  0  0  0  0
  186.6340  178.8790  141.3630 C   0  0  0  0  0  0  0  0  0  0  0  0
  186.9810  178.4520  145.0980 N   0  0  0  0  0  0  0  0  0  0  0  0
  191.7560  175.7770  145.7500 F   0  0  0  0  0  0  0  0  0  0  0  0
  187.5510  178.6860  140.2230 N   0  0  0  0  0  4  0  0  0  0  0  0
  187.2270  178.4970  142.7180 C   0  0  0  0  0  0  0  0  0  0  0  0
  190.3790  177.0450  141.3400 C   0  0  0  0  0  3  0  0  0  0  0  0
  189.8090  176.7700  146.6970 C   0  0  0  0  0  3  0  0  0  0  0  0
  188.6810  178.0640  140.3390 C   0  0  0  0  0  0  0  0  0  0  0  0
  189.5950  177.8160  139.2900 N   0  0  0  0  0  0  0  0  0  0  0  0
  186.5080  178.8040  143.8760 C   0  0  0  0  0  3  0  0  0  0  0  0
  188.1580  177.7910  145.2490 C   0  0  0  0  0  0  0  0  0  0  0  0
  188.5990  177.4480  146.5300 C   0  0  0  0  0  3  0  0  0  0  0  0
  184.4090  179.7630  139.8290 O   0  0  0  0  0  0  0  0  0  0  0  0
  184.3300  178.6130  140.3400 C   0  0  0  0  0  0  0  0  0  0  0  0
  185.4120  178.1200  141.1360 N   0  0  0  0  0  2  0  0  0  0  0  0
  180.9280  176.1140  139.6580 C   0  0  0  0  0  0  0  0  0  0  0  0
  183.1870  176.7590  139.1590 C   0  0  0  0  0  3  0  0  0  0  0  0
  181.7440  178.9500  141.9190 C   0  0  0  0  0  1  0  0  0  0  0  0
  179.7500  175.2430  139.4160 C   0  0  0  0  0  1  0  0  0  0  0  0
  182.0930  175.9310  138.9170 C   0  0  0  0  0  3  0  0  0  0  0  0
  181.9210  177.9130  140.8610 C   0  0  0  0  0  0  0  0  0  0  0  0
  183.1280  177.7650  140.1320 C   0  0  0  0  0  0  0  0  0  0  0  0
  180.8690  177.0890  140.6020 N   0  0  0  0  0  0  0  0  0  0  0  0
  191.8040  176.7780  139.1620 C   0  0  0  0  0  2  0  0  0  0  0  0
  192.9270  177.2870  139.8150 O   0  0  0  0  0  1  0  0  0  0  0  0
  1  2  1  0  0  0  0
  2  6  2  0  0  0  0
  2 17  1  0  0  0  0
  3  9  1  0  0  0  0
  3 13  2  0  0  0  0
  4  1  1  0  0  0  0
  5 12  1  0  0  0  0
  6  3  1  0  0  0  0
  7 11  1  0  0  0  0
  8 17  1  0  0  0  0
 10 14  2  0  0  0  0
 10  7  2  0  0  0  0
 11  1  2  0  0  0  0
 11 16  1  0  0  0  0
 12  4  2  0  0  0  0
 14  4  1  0  0  0  0
 15  5  2  0  0  0  0
 15 14  1  0  0  0  0
 16  8  2  0  0  0  0
 17 18  2  0  0  0  0
 18 13  1  0  0  0  0
 19 20  2  0  0  0  0
 20 21  1  0  0  0  0
 21  7  1  0  0  0  0
 22 29  1  0  0  0  0
 23 28  2  0  0  0  0
 25 22  1  0  0  0  0
 26 23  1  0  0  0  0
 26 22  2  0  0  0  0
 27 24  1  0  0  0  0
 28 20  1  0  0  0  0
 28 27  1  0  0  0  0
 29 27  2  0  0  0  0
 30 31  1  0  0  0  0
 30  5  1  0  0  0  0
M  END
>  <MODEL>
6

>  <REMARK>
 VINA RESULT:      -8.1      3.356      5.985
  Name = 
  3 active torsions:
  status: ('A' for Active; 'I' for Inactive)
    1  A    between atoms: C_2  and  CA_13
    2  A    between atoms: C_9  and  C_22
    3  A    between atoms: C_15  and  N_23
                            x       y       z     vdW  Elec       q    Type
                         _______ _______ _______ _____ _____    ______ ____

>  <TORSDO>
F 3

$$$$
=
 OpenBabel11052413093D

 31 35  0  0  0  0  0  0  0  0999 V2000
  191.0530  175.5910  137.9990 C   0  0  0  0  0  0  0  0  0  0  0  0
  192.2140  174.8960  137.5930 C   0  0  0  0  0  0  0  0  0  0  0  0
  193.3310  173.1060  136.3840 C   0  0  0  0  0  0  0  0  0  0  0  0
  189.6890  175.2530  137.5670 C   0  0  0  0  0  0  0  0  0  0  0  0
  187.7780  174.5840  136.6510 C   0  0  0  0  0  0  0  0  0  0  0  0
  192.1590  173.7650  136.7640 C   0  0  0  0  0  3  0  0  0  0  0  0
  189.9620  177.4910  139.3530 C   0  0  0  0  0  0  0  0  0  0  0  0
  193.5560  176.4530  138.8400 N   0  0  0  0  0  0  0  0  0  0  0  0
  193.2660  172.0170  135.5830 F   0  0  0  0  0  0  0  0  0  0  0  0
  188.6860  177.1020  138.7220 N   0  0  0  0  0  4  0  0  0  0  0  0
  191.1770  176.7210  138.8400 C   0  0  0  0  0  0  0  0  0  0  0  0
  189.2300  174.3230  136.7430 C   0  0  0  0  0  3  0  0  0  0  0  0
  194.5710  173.5710  136.8290 C   0  0  0  0  0  3  0  0  0  0  0  0
  188.5810  176.0670  137.9510 C   0  0  0  0  0  0  0  0  0  0  0  0
  187.3900  175.6170  137.3360 N   0  0  0  0  0  0  0  0  0  0  0  0
  192.4510  177.1300  139.2430 C   0  0  0  0  0  3  0  0  0  0  0  0
  193.4740  175.3590  138.0390 C   0  0  0  0  0  0  0  0  0  0  0  0
  194.6430  174.6960  137.6540 C   0  0  0  0  0  3  0  0  0  0  0  0
  188.3000  179.0360  141.0670 O   0  0  0  0  0  0  0  0  0  0  0  0
  188.9900  178.1280  141.6070 C   0  0  0  0  0  0  0  0  0  0  0  0
  189.8580  177.3280  140.7970 N   0  0  0  0  0  2  0  0  0  0  0  0
  188.6750  177.3820  145.8050 C   0  0  0  0  0  0  0  0  0  0  0  0
  187.7240  177.3800  143.6000 C   0  0  0  0  0  3  0  0  0  0  0  0
  191.3090  178.6600  143.5130 C   0  0  0  0  0  1  0  0  0  0  0  0
  188.5590  177.1210  147.2620 C   0  0  0  0  0  1  0  0  0  0  0  0
  187.5950  177.1280  144.9640 C   0  0  0  0  0  3  0  0  0  0  0  0
  189.9920  178.1250  143.9650 C   0  0  0  0  0  0  0  0  0  0  0  0
  188.9190  177.8820  143.0700 C   0  0  0  0  0  0  0  0  0  0  0  0
  189.8350  177.8690  145.2920 N   0  0  0  0  0  0  0  0  0  0  0  0
  186.8500  173.8040  135.7890 C   0  0  0  0  0  2  0  0  0  0  0  0
  186.4700  172.6340  136.4470 O   0  0  0  0  0  1  0  0  0  0  0  0
  1 11  1  0  0  0  0
  2  1  2  0  0  0  0
  2 17  1  0  0  0  0
  3  6  2  0  0  0  0
  3 13  1  0  0  0  0
  4 14  1  0  0  0  0
  4  1  1  0  0  0  0
  5 12  1  0  0  0  0
  5 15  2  0  0  0  0
  6  2  1  0  0  0  0
  7 21  1  0  0  0  0
  8 16  1  0  0  0  0
  9  3  1  0  0  0  0
 10  7  2  0  0  0  0
 11 16  2  0  0  0  0
 11  7  1  0  0  0  0
 12  4  2  0  0  0  0
 13 18  2  0  0  0  0
 14 10  2  0  0  0  0
 15 14  1  0  0  0  0
 17  8  2  0  0  0  0
 18 17  1  0  0  0  0
 19 20  2  0  0  0  0
 20 28  1  0  0  0  0
 21 20  1  0  0  0  0
 22 25  1  0  0  0  0
 23 26  1  0  0  0  0
 24 27  1  0  0  0  0
 26 22  2  0  0  0  0
 27 29  2  0  0  0  0
 28 23  2  0  0  0  0
 28 27  1  0  0  0  0
 29 22  1  0  0  0  0
 30 31  1  0  0  0  0
 30  5  1  0  0  0  0
M  END
>  <MODEL>
7

>  <REMARK>
 VINA RESULT:      -8.1      3.774      9.169
  Name = 
  3 active torsions:
  status: ('A' for Active; 'I' for Inactive)
    1  A    between atoms: C_2  and  CA_13
    2  A    between atoms: C_9  and  C_22
    3  A    between atoms: C_15  and  N_23
                            x       y       z     vdW  Elec       q    Type
                         _______ _______ _______ _____ _____    ______ ____

>  <TORSDO>
F 3

$$$$
=
 OpenBabel11052413093D

 31 35  0  0  0  0  0  0  0  0999 V2000
  189.2970  177.4050  140.5080 C   0  0  0  0  0  0  0  0  0  0  0  0
  189.5760  177.1790  141.8740 C   0  0  0  0  0  0  0  0  0  0  0  0
  190.9530  176.2750  143.6640 C   0  0  0  0  0  0  0  0  0  0  0  0
  190.1720  176.9870  139.4020 C   0  0  0  0  0  0  0  0  0  0  0  0
  191.7420  176.3480  137.9650 C   0  0  0  0  0  0  0  0  0  0  0  0
  190.7130  176.4760  142.3020 C   0  0  0  0  0  3  0  0  0  0  0  0
  187.7460  178.3560  138.6860 C   0  0  0  0  0  0  0  0  0  0  0  0
  187.5700  178.3700  142.4570 N   0  0  0  0  0  0  0  0  0  0  0  0
  192.0540  175.5960  144.0640 F   0  0  0  0  0  0  0  0  0  0  0  0
  188.7930  177.9890  137.7130 N   0  0  0  0  0  4  0  0  0  0  0  0
  188.1320  178.1170  140.1440 C   0  0  0  0  0  0  0  0  0  0  0  0
  191.3480  176.3780  139.3900 C   0  0  0  0  0  3  0  0  0  0  0  0
  190.0590  176.7760  144.6130 C   0  0  0  0  0  3  0  0  0  0  0  0
  189.8600  177.3390  138.0540 C   0  0  0  0  0  0  0  0  0  0  0  0
  190.8890  176.9270  137.1770 N   0  0  0  0  0  0  0  0  0  0  0  0
  187.2840  178.5910  141.1490 C   0  0  0  0  0  3  0  0  0  0  0  0
  188.6760  177.6830  142.8440 C   0  0  0  0  0  0  0  0  0  0  0  0
  188.9230  177.4790  144.2040 C   0  0  0  0  0  3  0  0  0  0  0  0
  185.1350  179.4800  138.6130 O   0  0  0  0  0  0  0  0  0  0  0  0
  185.2360  178.2520  138.3440 C   0  0  0  0  0  0  0  0  0  0  0  0
  186.5230  177.6270  138.3800 N   0  0  0  0  0  2  0  0  0  0  0  0
  181.8280  175.9230  137.2280 C   0  0  0  0  0  0  0  0  0  0  0  0
  183.8910  177.0180  136.6690 C   0  0  0  0  0  3  0  0  0  0  0  0
  183.0870  177.4780  140.3620 C   0  0  0  0  0  1  0  0  0  0  0  0
  180.6470  175.1140  136.8340 C   0  0  0  0  0  1  0  0  0  0  0  0
  182.7900  176.2580  136.2790 C   0  0  0  0  0  3  0  0  0  0  0  0
  183.0340  177.0790  138.9260 C   0  0  0  0  0  0  0  0  0  0  0  0
  184.0390  177.4450  137.9950 C   0  0  0  0  0  0  0  0  0  0  0  0
  181.9700  176.3360  138.5150 N   0  0  0  0  0  0  0  0  0  0  0  0
  193.0310  175.7910  137.4750 C   0  0  0  0  0  2  0  0  0  0  0  0
  193.9300  176.8300  137.2350 O   0  0  0  0  0  1  0  0  0  0  0  0
  1  2  1  0  0  0  0
  2  6  2  0  0  0  0
  2 17  1  0  0  0  0
  3  9  1  0  0  0  0
  3 13  2  0  0  0  0
  4  1  1  0  0  0  0
  5 12  1  0  0  0  0
  6  3  1  0  0  0  0
  7 11  1  0  0  0  0
  8 17  1  0  0  0  0
 10 14  2  0  0  0  0
 10  7  2  0  0  0  0
 11  1  2  0  0  0  0
 11 16  1  0  0  0  0
 12  4  2  0  0  0  0
 14  4  1  0  0  0  0
 15  5  2  0  0  0  0
 15 14  1  0  0  0  0
 16  8  2  0  0  0  0
 17 18  2  0  0  0  0
 18 13  1  0  0  0  0
 20 21  1  0  0  0  0
 20 19  2  0  0  0  0
 21  7  1  0  0  0  0
 22 29  1  0  0  0  0
 23 28  2  0  0  0  0
 25 22  1  0  0  0  0
 26 23  1  0  0  0  0
 26 22  2  0  0  0  0
 27 24  1  0  0  0  0
 28 20  1  0  0  0  0
 28 27  1  0  0  0  0
 29 27  2  0  0  0  0
 30  5  1  0  0  0  0
 31 30  1  0  0  0  0
M  END
>  <MODEL>
8

>  <REMARK>
 VINA RESULT:      -7.9      3.637      6.062
  Name = 
  3 active torsions:
  status: ('A' for Active; 'I' for Inactive)
    1  A    between atoms: C_2  and  CA_13
    2  A    between atoms: C_9  and  C_22
    3  A    between atoms: C_15  and  N_23
                            x       y       z     vdW  Elec       q    Type
                         _______ _______ _______ _____ _____    ______ ____

>  <TORSDO>
F 3

$$$$
=
 OpenBabel11052413093D

 31 35  0  0  0  0  0  0  0  0999 V2000
  185.0650  178.5700  141.0860 C   0  0  0  0  0  0  0  0  0  0  0  0
  186.4130  178.4280  140.6920 C   0  0  0  0  0  0  0  0  0  0  0  0
  188.7900  178.2830  141.1860 C   0  0  0  0  0  0  0  0  0  0  0  0
  184.6130  178.6760  142.4810 C   0  0  0  0  0  0  0  0  0  0  0  0
  184.2300  178.6880  144.6700 C   0  0  0  0  0  0  0  0  0  0  0  0
  187.4680  178.4270  141.6170 C   0  0  0  0  0  3  0  0  0  0  0  0
  182.5750  178.7630  140.4540 C   0  0  0  0  0  0  0  0  0  0  0  0
  185.7050  178.2750  138.4000 N   0  0  0  0  0  0  0  0  0  0  0  0
  189.8000  178.2830  142.0890 F   0  0  0  0  0  0  0  0  0  0  0  0
  182.2850  178.7220  141.9000 N   0  0  0  0  0  4  0  0  0  0  0  0
  184.0480  178.5690  140.1030 C   0  0  0  0  0  0  0  0  0  0  0  0
  185.2770  178.6400  143.6270 C   0  0  0  0  0  3  0  0  0  0  0  0
  189.0710  178.1380  139.8260 C   0  0  0  0  0  3  0  0  0  0  0  0
  183.2210  178.7220  142.7950 C   0  0  0  0  0  0  0  0  0  0  0  0
  183.0220  178.7140  144.1950 N   0  0  0  0  0  0  0  0  0  0  0  0
  184.4040  178.4160  138.7600 C   0  0  0  0  0  3  0  0  0  0  0  0
  186.7080  178.2810  139.3160 C   0  0  0  0  0  0  0  0  0  0  0  0
  188.0320  178.1360  138.8920 C   0  0  0  0  0  3  0  0  0  0  0  0
  180.5060  179.0460  138.5240 O   0  0  0  0  0  0  0  0  0  0  0  0
  181.0480  180.1070  138.9410 C   0  0  0  0  0  0  0  0  0  0  0  0
  182.1060  180.0260  139.9010 N   0  0  0  0  0  2  0  0  0  0  0  0
  179.8530  183.9220  137.4260 C   0  0  0  0  0  0  0  0  0  0  0  0
  181.1780  181.9260  137.2640 C   0  0  0  0  0  3  0  0  0  0  0  0
  178.9680  181.8220  140.3630 C   0  0  0  0  0  1  0  0  0  0  0  0
  179.4420  185.2470  136.8950 C   0  0  0  0  0  1  0  0  0  0  0  0
  180.8060  183.1660  136.7490 C   0  0  0  0  0  3  0  0  0  0  0  0
  179.6400  182.2410  139.1000 C   0  0  0  0  0  0  0  0  0  0  0  0
  180.6070  181.4360  138.4460 C   0  0  0  0  0  0  0  0  0  0  0  0
  179.2970  183.4480  138.5720 N   0  0  0  0  0  0  0  0  0  0  0  0
  184.5120  178.6240  146.1300 C   0  0  0  0  0  2  0  0  0  0  0  0
  185.6460  179.3810  146.4220 O   0  0  0  0  0  1  0  0  0  0  0  0
  1  4  1  0  0  0  0
  2  1  1  0  0  0  0
  2  6  1  0  0  0  0
  3  6  2  0  0  0  0
  3  9  1  0  0  0  0
  4 14  1  0  0  0  0
  4 12  2  0  0  0  0
  5 30  1  0  0  0  0
  7 10  2  0  0  0  0
  8 16  2  0  0  0  0
  8 17  1  0  0  0  0
 10 14  2  0  0  0  0
 11  7  1  0  0  0  0
 11  1  2  0  0  0  0
 12  5  1  0  0  0  0
 13  3  1  0  0  0  0
 14 15  1  0  0  0  0
 15  5  2  0  0  0  0
 16 11  1  0  0  0  0
 17  2  2  0  0  0  0
 18 17  1  0  0  0  0
 18 13  2  0  0  0  0
 19 20  2  0  0  0  0
 20 21  1  0  0  0  0
 21  7  1  0  0  0  0
 22 29  1  0  0  0  0
 23 28  2  0  0  0  0
 25 22  1  0  0  0  0
 26 23  1  0  0  0  0
 26 22  2  0  0  0  0
 27 24  1  0  0  0  0
 28 20  1  0  0  0  0
 28 27  1  0  0  0  0
 29 27  2  0  0  0  0
 30 31  1  0  0  0  0
M  END
>  <MODEL>
9

>  <REMARK>
 VINA RESULT:      -7.8      5.086      8.232
  Name = 
  3 active torsions:
  status: ('A' for Active; 'I' for Inactive)
    1  A    between atoms: C_2  and  CA_13
    2  A    between atoms: C_9  and  C_22
    3  A    between atoms: C_15  and  N_23
                            x       y       z     vdW  Elec       q    Type
                         _______ _______ _______ _____ _____    ______ ____

>  <TORSDO>
F 3

$$$$
