=
 OpenBabel11052413173D

 31 34  0  0  1  0  0  0  0  0999 V2000
  187.8720  177.2160  143.5800 C   0  0  2  0  0  3  0  0  0  0  0  0
  188.6560  177.3180  141.3030 C   0  0  2  0  0  3  0  0  0  0  0  0
  187.4640  178.2520  141.4290 C   0  0  0  0  0  2  0  0  0  0  0  0
  189.0810  176.9220  142.7170 C   0  0  2  0  0  3  0  0  0  0  0  0
  187.1380  178.3630  142.9140 C   0  0  1  0  0  3  0  0  0  0  0  0
  188.2290  177.4880  145.0110 C   0  0  0  0  0  0  0  0  0  0  0  0
  189.9440  177.8950  146.6790 C   0  0  0  0  0  3  0  0  0  0  0  0
  189.5770  177.6490  145.3520 C   0  0  0  0  0  3  0  0  0  0  0  0
  188.9610  177.9750  147.6670 C   0  0  0  0  0  3  0  0  0  0  0  0
  186.6690  177.8760  148.3070 F   0  0  0  0  0  0  0  0  0  0  0  0
  187.2460  177.5670  146.0090 C   0  0  0  0  0  3  0  0  0  0  0  0
  187.6140  177.8080  147.3360 C   0  0  0  0  0  0  0  0  0  0  0  0
  183.4610  178.2640  142.2740 C   0  0  0  0  0  2  0  0  0  0  0  0
  185.6320  178.2890  143.1940 C   0  0  2  0  0  3  0  0  0  0  0  0
  183.7530  179.3570  144.4800 C   0  0  0  0  0  3  0  0  0  0  0  0
  182.9270  178.9760  143.4940 C   0  0  0  0  0  3  0  0  0  0  0  0
  184.8460  178.6500  142.0130 N   0  0  0  0  0  2  0  0  0  0  0  0
  185.2490  179.1860  144.3780 C   0  0  0  0  0  2  0  0  0  0  0  0
  189.0740  178.6840  139.2940 C   0  0  0  0  0  1  0  0  0  0  0  0
  189.7560  177.9570  140.4440 C   0  0  2  0  0  3  0  0  0  0  0  0
  190.6390  176.9800  139.9500 O   0  0  0  0  0  0  0  0  0  0  0  0
  190.6280  175.1850  138.5460 O   0  0  0  0  0  0  0  0  0  0  0  0
  190.6230  175.9670  136.2860 C   0  0  0  0  0  1  0  0  0  0  0  0
  191.1070  176.2050  137.7080 C   0  0  1  0  0  0  0  0  0  0  0  0
  190.0920  176.4700  138.7610 C   0  0  2  0  0  3  0  0  0  0  0  0
  192.5930  176.4770  137.9670 C   0  0  0  0  0  2  0  0  0  0  0  0
  193.4830  175.5570  137.1400 C   0  0  0  0  0  3  0  0  0  0  0  0
  194.4700  174.8490  138.0430 C   0  0  0  0  0  1  0  0  0  0  0  0
  194.2370  176.3330  136.0770 C   0  0  0  0  0  1  0  0  0  0  0  0
  190.7290  175.2020  142.9810 O   0  0  0  0  0  1  0  0  0  0  0  0
  189.3690  175.4280  142.7780 C   0  0  0  0  0  2  0  0  0  0  0  0
  1  6  1  1  0  0  0
  2 20  1  1  0  0  0
  2  3  1  0  0  0  0
  2  4  1  0  0  0  0
  4 31  1  6  0  0  0
  4  1  1  0  0  0  0
  5  3  1  6  0  0  0
  5 14  1  0  0  0  0
  5  1  1  0  0  0  0
  6  8  2  0  0  0  0
  6 11  1  0  0  0  0
  7  9  2  0  0  0  0
  8  7  1  0  0  0  0
 11 12  2  0  0  0  0
 12  9  1  0  0  0  0
 12 10  1  0  0  0  0
 13 16  1  0  0  0  0
 14 18  1  1  0  0  0
 16 15  2  0  0  0  0
 17 13  1  0  0  0  0
 17 14  1  0  0  0  0
 18 15  1  0  0  0  0
 20 19  1  6  0  0  0
 21 20  1  0  0  0  0
 22 25  1  0  0  0  0
 24 23  1  6  0  0  0
 24 26  1  0  0  0  0
 24 22  1  0  0  0  0
 24 25  1  0  0  0  0
 25 21  1  1  0  0  0
 27 26  1  0  0  0  0
 27 28  1  0  0  0  0
 29 27  1  0  0  0  0
 31 30  1  0  0  0  0
M  END
>  <MODEL>
1

>  <REMARK>
 VINA RESULT:      -8.0      0.000      0.000
  Name = 
  8 active torsions:
  status: ('A' for Active; 'I' for Inactive)
    1  A    between atoms: C_1  and  C_24
    2  A    between atoms: C_4  and  C_5
    3  A    between atoms: C_9  and  C_15
    4  A    between atoms: C_9  and  O_23
    5  A    between atoms: C_12  and  C_27
    6  A    between atoms: C_19  and  C_24
    7  A    between atoms: C_21  and  C_29
    8  A    between atoms: C_22  and  O_23
                            x       y       z     vdW  Elec       q    Type
                         _______ _______ _______ _____ _____    ______ ____

>  <TORSDO>
F 8

$$$$
=
 OpenBabel11052413173D

 31 34  0  0  1  0  0  0  0  0999 V2000
  182.9430  178.2550  140.5360 C   0  0  2  0  0  3  0  0  0  0  0  0
  184.3020  178.8760  142.4270 C   0  0  2  0  0  3  0  0  0  0  0  0
  182.8460  178.9410  142.8570 C   0  0  0  0  0  2  0  0  0  0  0  0
  184.3530  178.1540  141.0810 C   0  0  2  0  0  3  0  0  0  0  0  0
  182.0220  178.3150  141.7380 C   0  0  1  0  0  3  0  0  0  0  0  0
  182.6070  177.1480  139.5820 C   0  0  0  0  0  0  0  0  0  0  0  0
  183.0710  175.9930  137.4990 C   0  0  0  0  0  3  0  0  0  0  0  0
  183.3640  177.0090  138.4130 C   0  0  0  0  0  3  0  0  0  0  0  0
  182.0150  175.1160  137.7520 C   0  0  0  0  0  3  0  0  0  0  0  0
  180.2180  174.4000  139.1420 F   0  0  0  0  0  0  0  0  0  0  0  0
  181.5450  176.2640  139.8300 C   0  0  0  0  0  3  0  0  0  0  0  0
  181.2490  175.2510  138.9130 C   0  0  0  0  0  0  0  0  0  0  0  0
  179.6990  180.6180  139.9400 C   0  0  0  0  0  2  0  0  0  0  0  0
  180.7540  179.1170  141.4200 C   0  0  2  0  0  3  0  0  0  0  0  0
  179.1350  180.8040  142.3460 C   0  0  0  0  0  3  0  0  0  0  0  0
  178.9330  181.2270  141.0900 C   0  0  0  0  0  3  0  0  0  0  0  0
  180.9990  180.1240  140.3860 N   0  0  0  0  0  2  0  0  0  0  0  0
  180.1930  179.7830  142.6840 C   0  0  0  0  0  2  0  0  0  0  0  0
  184.6550  178.7900  144.8650 C   0  0  0  0  0  1  0  0  0  0  0  0
  185.1660  178.2580  143.5350 C   0  0  2  0  0  3  0  0  0  0  0  0
  186.5210  178.5930  143.3610 O   0  0  0  0  0  0  0  0  0  0  0  0
  187.1380  176.4820  143.9630 O   0  0  0  0  0  0  0  0  0  0  0  0
  189.3750  176.0850  143.2130 C   0  0  0  0  0  1  0  0  0  0  0  0
  188.3820  177.1010  143.7580 C   0  0  1  0  0  0  0  0  0  0  0  0
  187.1950  177.4380  142.9290 C   0  0  2  0  0  3  0  0  0  0  0  0
  188.7700  177.9690  144.9600 C   0  0  0  0  0  2  0  0  0  0  0  0
  188.6120  177.2100  146.2720 C   0  0  0  0  0  3  0  0  0  0  0  0
  187.5760  177.8930  147.1400 C   0  0  0  0  0  1  0  0  0  0  0  0
  189.9270  177.1330  147.0240 C   0  0  0  0  0  1  0  0  0  0  0  0
  184.6390  179.9530  139.5240 O   0  0  0  0  0  1  0  0  0  0  0  0
  185.2930  178.8830  140.1310 C   0  0  0  0  0  2  0  0  0  0  0  0
  1  6  1  6  0  0  0
  1  4  1  0  0  0  0
  1  5  1  0  0  0  0
  2  3  1  0  0  0  0
  2 20  1  1  0  0  0
  4 31  1  6  0  0  0
  4  2  1  0  0  0  0
  5  3  1  1  0  0  0
  6 11  1  0  0  0  0
  7  9  2  0  0  0  0
  7  8  1  0  0  0  0
  8  6  2  0  0  0  0
  9 12  1  0  0  0  0
 12 10  1  0  0  0  0
 12 11  2  0  0  0  0
 13 17  1  0  0  0  0
 13 16  1  0  0  0  0
 14  5  1  0  0  0  0
 14 18  1  1  0  0  0
 15 18  1  0  0  0  0
 16 15  2  0  0  0  0
 17 14  1  0  0  0  0
 20 19  1  1  0  0  0
 21 20  1  0  0  0  0
 24 23  1  6  0  0  0
 24 22  1  0  0  0  0
 24 26  1  0  0  0  0
 25 21  1  1  0  0  0
 25 24  1  0  0  0  0
 25 22  1  0  0  0  0
 26 27  1  0  0  0  0
 27 29  1  0  0  0  0
 27 28  1  0  0  0  0
 30 31  1  0  0  0  0
M  END
>  <MODEL>
2

>  <REMARK>
 VINA RESULT:      -7.6      4.456      7.820
  Name = 
  8 active torsions:
  status: ('A' for Active; 'I' for Inactive)
    1  A    between atoms: C_1  and  C_24
    2  A    between atoms: C_4  and  C_5
    3  A    between atoms: C_9  and  C_15
    4  A    between atoms: C_9  and  O_23
    5  A    between atoms: C_12  and  C_27
    6  A    between atoms: C_19  and  C_24
    7  A    between atoms: C_21  and  C_29
    8  A    between atoms: C_22  and  O_23
                            x       y       z     vdW  Elec       q    Type
                         _______ _______ _______ _____ _____    ______ ____

>  <TORSDO>
F 8

$$$$
=
 OpenBabel11052413173D

 31 34  0  0  1  0  0  0  0  0999 V2000
  189.7640  175.9290  138.2470 C   0  0  2  0  0  3  0  0  0  0  0  0
  187.5720  176.9320  138.2650 C   0  0  2  0  0  3  0  0  0  0  0  0
  188.3740  177.5400  139.4040 C   0  0  0  0  0  2  0  0  0  0  0  0
  188.5480  176.1640  137.3740 C   0  0  2  0  0  3  0  0  0  0  0  0
  189.8170  177.0830  139.2280 C   0  0  1  0  0  3  0  0  0  0  0  0
  191.0260  175.7610  137.4550 C   0  0  0  0  0  0  0  0  0  0  0  0
  192.2150  176.0550  135.3610 C   0  0  0  0  0  3  0  0  0  0  0  0
  191.0570  176.2050  136.1290 C   0  0  0  0  0  3  0  0  0  0  0  0
  193.3450  175.4550  135.9200 C   0  0  0  0  0  3  0  0  0  0  0  0
  194.4220  174.4100  137.7700 F   0  0  0  0  0  0  0  0  0  0  0  0
  192.1650  175.1570  138.0120 C   0  0  0  0  0  3  0  0  0  0  0  0
  193.3220  175.0030  137.2420 C   0  0  0  0  0  0  0  0  0  0  0  0
  190.1110  175.9420  142.7710 C   0  0  0  0  0  2  0  0  0  0  0  0
  190.4640  176.6520  140.5500 C   0  0  2  0  0  3  0  0  0  0  0  0
  192.1070  177.3420  142.3250 C   0  0  0  0  0  3  0  0  0  0  0  0
  191.3800  176.6360  143.2030 C   0  0  0  0  0  3  0  0  0  0  0  0
  189.4940  176.6420  141.6470 N   0  0  0  0  0  2  0  0  0  0  0  0
  191.6510  177.5590  140.9030 C   0  0  0  0  0  2  0  0  0  0  0  0
  187.6410  178.6640  136.5130 C   0  0  0  0  0  1  0  0  0  0  0  0
  186.7430  178.0080  137.5520 C   0  0  2  0  0  3  0  0  0  0  0  0
  186.2710  178.9670  138.4660 O   0  0  0  0  0  0  0  0  0  0  0  0
  184.3390  179.8320  139.3100 O   0  0  0  0  0  0  0  0  0  0  0  0
  183.2160  178.1380  140.5720 C   0  0  0  0  0  1  0  0  0  0  0  0
  184.5530  178.7280  140.1510 C   0  0  1  0  0  0  0  0  0  0  0  0
  184.9150  178.6950  138.7090 C   0  0  2  0  0  3  0  0  0  0  0  0
  185.6090  179.0440  141.2150 C   0  0  0  0  0  2  0  0  0  0  0  0
  185.2430  178.4370  142.5650 C   0  0  0  0  0  3  0  0  0  0  0  0
  184.6990  179.5120  143.4820 C   0  0  0  0  0  1  0  0  0  0  0  0
  186.4450  177.7790  143.2150 C   0  0  0  0  0  1  0  0  0  0  0  0
  187.2020  174.9260  135.8270 O   0  0  0  0  0  1  0  0  0  0  0  0
  187.9580  174.8140  136.9920 C   0  0  0  0  0  2  0  0  0  0  0  0
  1  6  1  6  0  0  0
  1  5  1  0  0  0  0
  2 20  1  6  0  0  0
  2  3  1  0  0  0  0
  4 31  1  1  0  0  0
  4  1  1  0  0  0  0
  4  2  1  0  0  0  0
  5  3  1  1  0  0  0
  5 14  1  0  0  0  0
  6 11  1  0  0  0  0
  7  9  2  0  0  0  0
  7  8  1  0  0  0  0
  8  6  2  0  0  0  0
  9 12  1  0  0  0  0
 12 10  1  0  0  0  0
 12 11  2  0  0  0  0
 13 16  1  0  0  0  0
 14 18  1  1  0  0  0
 14 17  1  0  0  0  0
 15 16  2  0  0  0  0
 17 13  1  0  0  0  0
 18 15  1  0  0  0  0
 20 19  1  6  0  0  0
 20 21  1  0  0  0  0
 22 24  1  0  0  0  0
 24 23  1  1  0  0  0
 24 26  1  0  0  0  0
 25 21  1  1  0  0  0
 25 22  1  0  0  0  0
 25 24  1  0  0  0  0
 26 27  1  0  0  0  0
 27 29  1  0  0  0  0
 27 28  1  0  0  0  0
 30 31  1  0  0  0  0
M  END
>  <MODEL>
3

>  <REMARK>
 VINA RESULT:      -7.5      3.712      8.248
  Name = 
  8 active torsions:
  status: ('A' for Active; 'I' for Inactive)
    1  A    between atoms: C_1  and  C_24
    2  A    between atoms: C_4  and  C_5
    3  A    between atoms: C_9  and  C_15
    4  A    between atoms: C_9  and  O_23
    5  A    between atoms: C_12  and  C_27
    6  A    between atoms: C_19  and  C_24
    7  A    between atoms: C_21  and  C_29
    8  A    between atoms: C_22  and  O_23
                            x       y       z     vdW  Elec       q    Type
                         _______ _______ _______ _____ _____    ______ ____

>  <TORSDO>
F 8

$$$$
=
 OpenBabel11052413173D

 31 34  0  0  1  0  0  0  0  0999 V2000
  187.4560  177.1350  143.9830 C   0  0  2  0  0  3  0  0  0  0  0  0
  188.2580  177.1790  141.7100 C   0  0  2  0  0  3  0  0  0  0  0  0
  187.0820  178.1360  141.8100 C   0  0  0  0  0  2  0  0  0  0  0  0
  188.6660  176.8020  143.1350 C   0  0  2  0  0  3  0  0  0  0  0  0
  186.7480  178.2820  143.2890 C   0  0  1  0  0  3  0  0  0  0  0  0
  187.8080  177.4280  145.4110 C   0  0  0  0  0  0  0  0  0  0  0  0
  187.1010  178.1620  147.6130 C   0  0  0  0  0  3  0  0  0  0  0  0
  186.8040  177.8730  146.2780 C   0  0  0  0  0  3  0  0  0  0  0  0
  188.4080  178.0120  148.0810 C   0  0  0  0  0  3  0  0  0  0  0  0
  190.6870  177.4440  147.6840 F   0  0  0  0  0  0  0  0  0  0  0  0
  189.1210  177.2800  145.8870 C   0  0  0  0  0  3  0  0  0  0  0  0
  189.4180  177.5750  147.2210 C   0  0  0  0  0  0  0  0  0  0  0  0
  183.0760  178.1700  142.6240 C   0  0  0  0  0  2  0  0  0  0  0  0
  185.2390  178.2400  143.5600 C   0  0  2  0  0  3  0  0  0  0  0  0
  183.3580  179.4120  144.7500 C   0  0  0  0  0  3  0  0  0  0  0  0
  182.5380  178.9700  143.7850 C   0  0  0  0  0  3  0  0  0  0  0  0
  184.4670  178.5250  142.3500 N   0  0  0  0  0  2  0  0  0  0  0  0
  184.8530  179.2220  144.6750 C   0  0  0  0  0  2  0  0  0  0  0  0
  190.3920  178.4100  141.7880 C   0  0  0  0  0  1  0  0  0  0  0  0
  189.3750  177.7810  140.8470 C   0  0  2  0  0  3  0  0  0  0  0  0
  188.8620  178.7470  139.9640 O   0  0  0  0  0  0  0  0  0  0  0  0
  188.9170  179.4620  137.8000 O   0  0  0  0  0  0  0  0  0  0  0  0
  189.2820  177.5790  136.3700 C   0  0  0  0  0  1  0  0  0  0  0  0
  188.6340  178.0950  137.6460 C   0  0  1  0  0  0  0  0  0  0  0  0
  189.5190  178.5930  138.7320 C   0  0  2  0  0  3  0  0  0  0  0  0
  187.1540  177.8050  137.9140 C   0  0  0  0  0  2  0  0  0  0  0  0
  186.5460  176.9370  136.8180 C   0  0  0  0  0  3  0  0  0  0  0  0
  185.1040  177.3350  136.5860 C   0  0  0  0  0  1  0  0  0  0  0  0
  186.6110  175.4660  137.1850 C   0  0  0  0  0  1  0  0  0  0  0  0
  190.2580  175.0230  142.9330 O   0  0  0  0  0  1  0  0  0  0  0  0
  188.9260  175.3050  143.2270 C   0  0  0  0  0  2  0  0  0  0  0  0
  1  6  1  1  0  0  0
  2 20  1  1  0  0  0
  2  3  1  0  0  0  0
  2  4  1  0  0  0  0
  4 31  1  6  0  0  0
  4  1  1  0  0  0  0
  5  3  1  6  0  0  0
  5 14  1  0  0  0  0
  5  1  1  0  0  0  0
  6 11  2  0  0  0  0
  6  8  1  0  0  0  0
  7  9  1  0  0  0  0
  8  7  2  0  0  0  0
 11 12  1  0  0  0  0
 12 10  1  0  0  0  0
 12  9  2  0  0  0  0
 13 16  1  0  0  0  0
 14 18  1  1  0  0  0
 16 15  2  0  0  0  0
 17 13  1  0  0  0  0
 17 14  1  0  0  0  0
 18 15  1  0  0  0  0
 20 19  1  1  0  0  0
 21 20  1  0  0  0  0
 22 25  1  0  0  0  0
 24 23  1  6  0  0  0
 24 22  1  0  0  0  0
 24 26  1  0  0  0  0
 24 25  1  0  0  0  0
 25 21  1  1  0  0  0
 27 29  1  0  0  0  0
 27 26  1  0  0  0  0
 28 27  1  0  0  0  0
 30 31  1  0  0  0  0
M  END
>  <MODEL>
4

>  <REMARK>
 VINA RESULT:      -7.5      2.307      3.307
  Name = 
  8 active torsions:
  status: ('A' for Active; 'I' for Inactive)
    1  A    between atoms: C_1  and  C_24
    2  A    between atoms: C_4  and  C_5
    3  A    between atoms: C_9  and  C_15
    4  A    between atoms: C_9  and  O_23
    5  A    between atoms: C_12  and  C_27
    6  A    between atoms: C_19  and  C_24
    7  A    between atoms: C_21  and  C_29
    8  A    between atoms: C_22  and  O_23
                            x       y       z     vdW  Elec       q    Type
                         _______ _______ _______ _____ _____    ______ ____

>  <TORSDO>
F 8

$$$$
=
 OpenBabel11052413173D

 31 34  0  0  1  0  0  0  0  0999 V2000
  188.3140  178.3340  140.4290 C   0  0  2  0  0  3  0  0  0  0  0  0
  190.1490  177.2820  139.2730 C   0  0  2  0  0  3  0  0  0  0  0  0
  190.1290  176.7530  140.6980 C   0  0  0  0  0  2  0  0  0  0  0  0
  188.8340  178.0250  139.0400 C   0  0  2  0  0  3  0  0  0  0  0  0
  188.8310  177.2340  141.3350 C   0  0  1  0  0  3  0  0  0  0  0  0
  186.8230  178.4900  140.4710 C   0  0  0  0  0  0  0  0  0  0  0  0
  184.8270  179.0030  141.7520 C   0  0  0  0  0  3  0  0  0  0  0  0
  186.2160  178.8570  141.6780 C   0  0  0  0  0  3  0  0  0  0  0  0
  184.0440  178.7770  140.6200 C   0  0  0  0  0  3  0  0  0  0  0  0
  183.8690  178.1760  138.3210 F   0  0  0  0  0  0  0  0  0  0  0  0
  186.0300  178.2630  139.3350 C   0  0  0  0  0  3  0  0  0  0  0  0
  184.6410  178.4040  139.4130 C   0  0  0  0  0  0  0  0  0  0  0  0
  190.5470  178.6280  144.3430 C   0  0  0  0  0  2  0  0  0  0  0  0
  189.0310  177.7480  142.7650 C   0  0  2  0  0  3  0  0  0  0  0  0
  188.7420  177.1570  145.1930 C   0  0  0  0  0  3  0  0  0  0  0  0
  189.7970  177.9410  145.4590 C   0  0  0  0  0  3  0  0  0  0  0  0
  190.4510  177.8600  143.1040 N   0  0  0  0  0  2  0  0  0  0  0  0
  188.3160  176.8450  143.7800 C   0  0  0  0  0  2  0  0  0  0  0  0
  191.8600  176.3610  137.7560 C   0  0  0  0  0  1  0  0  0  0  0  0
  190.4470  176.1510  138.2800 C   0  0  2  0  0  3  0  0  0  0  0  0
  189.5250  176.1600  137.2180 O   0  0  0  0  0  0  0  0  0  0  0  0
  188.5160  174.8300  135.6660 O   0  0  0  0  0  0  0  0  0  0  0  0
  187.4850  172.9810  136.7800 C   0  0  0  0  0  1  0  0  0  0  0  0
  187.8500  174.4570  136.8440 C   0  0  1  0  0  0  0  0  0  0  0  0
  189.2900  174.8260  136.8440 C   0  0  2  0  0  3  0  0  0  0  0  0
  186.7770  175.4850  137.2180 C   0  0  0  0  0  2  0  0  0  0  0  0
  185.8540  175.7840  136.0430 C   0  0  0  0  0  3  0  0  0  0  0  0
  185.9450  177.2500  135.6770 C   0  0  0  0  0  1  0  0  0  0  0  0
  184.4150  175.4350  136.3730 C   0  0  0  0  0  1  0  0  0  0  0  0
  188.4010  179.3780  137.1110 O   0  0  0  0  0  1  0  0  0  0  0  0
  189.0960  179.3390  138.3180 C   0  0  0  0  0  2  0  0  0  0  0  0
  1  6  1  6  0  0  0
  1  5  1  0  0  0  0
  2 20  1  6  0  0  0
  2  3  1  0  0  0  0
  4 31  1  6  0  0  0
  4  2  1  0  0  0  0
  4  1  1  0  0  0  0
  5  3  1  6  0  0  0
  5 14  1  0  0  0  0
  6  8  1  0  0  0  0
  8  7  2  0  0  0  0
  9  7  1  0  0  0  0
 10 12  1  0  0  0  0
 11 12  1  0  0  0  0
 11  6  2  0  0  0  0
 12  9  2  0  0  0  0
 13 16  1  0  0  0  0
 14 17  1  0  0  0  0
 14 18  1  1  0  0  0
 15 16  2  0  0  0  0
 17 13  1  0  0  0  0
 18 15  1  0  0  0  0
 20 19  1  6  0  0  0
 21 20  1  0  0  0  0
 22 25  1  0  0  0  0
 22 24  1  0  0  0  0
 24 23  1  1  0  0  0
 24 26  1  0  0  0  0
 25 24  1  0  0  0  0
 25 21  1  1  0  0  0
 27 29  1  0  0  0  0
 27 26  1  0  0  0  0
 28 27  1  0  0  0  0
 30 31  1  0  0  0  0
M  END
>  <MODEL>
5

>  <REMARK>
 VINA RESULT:      -7.3      3.343      5.968
  Name = 
  8 active torsions:
  status: ('A' for Active; 'I' for Inactive)
    1  A    between atoms: C_1  and  C_24
    2  A    between atoms: C_4  and  C_5
    3  A    between atoms: C_9  and  C_15
    4  A    between atoms: C_9  and  O_23
    5  A    between atoms: C_12  and  C_27
    6  A    between atoms: C_19  and  C_24
    7  A    between atoms: C_21  and  C_29
    8  A    between atoms: C_22  and  O_23
                            x       y       z     vdW  Elec       q    Type
                         _______ _______ _______ _____ _____    ______ ____

>  <TORSDO>
F 8

$$$$
=
 OpenBabel11052413173D

 31 34  0  0  1  0  0  0  0  0999 V2000
  186.5440  177.7030  142.5310 C   0  0  2  0  0  3  0  0  0  0  0  0
  188.9160  177.6820  142.0990 C   0  0  2  0  0  3  0  0  0  0  0  0
  188.2460  178.4880  140.9970 C   0  0  0  0  0  2  0  0  0  0  0  0
  187.8810  177.4650  143.2020 C   0  0  2  0  0  3  0  0  0  0  0  0
  186.7960  178.6980  141.4150 C   0  0  1  0  0  3  0  0  0  0  0  0
  185.4800  178.1410  143.4920 C   0  0  0  0  0  0  0  0  0  0  0  0
  183.1980  178.8760  143.8640 C   0  0  0  0  0  3  0  0  0  0  0  0
  184.2100  178.4560  142.9960 C   0  0  0  0  0  3  0  0  0  0  0  0
  183.4570  178.9850  145.2310 C   0  0  0  0  0  3  0  0  0  0  0  0
  184.9680  178.8000  147.0630 F   0  0  0  0  0  0  0  0  0  0  0  0
  185.7350  178.2540  144.8680 C   0  0  0  0  0  3  0  0  0  0  0  0
  184.7240  178.6780  145.7340 C   0  0  0  0  0  0  0  0  0  0  0  0
  185.5520  178.1210  137.9430 C   0  0  0  0  0  2  0  0  0  0  0  0
  185.8130  178.4860  140.2580 C   0  0  2  0  0  3  0  0  0  0  0  0
  183.8140  179.4670  139.0880 C   0  0  0  0  0  3  0  0  0  0  0  0
  184.2550  178.8940  137.9590 C   0  0  0  0  0  3  0  0  0  0  0  0
  186.4710  178.6290  138.9580 N   0  0  0  0  0  2  0  0  0  0  0  0
  184.6270  179.4550  140.3590 C   0  0  0  0  0  2  0  0  0  0  0  0
  191.3580  177.3890  142.2590 C   0  0  0  0  0  1  0  0  0  0  0  0
  190.2190  178.3560  142.5470 C   0  0  2  0  0  3  0  0  0  0  0  0
  190.1780  178.6700  143.9170 O   0  0  0  0  0  0  0  0  0  0  0  0
  190.5770  176.5740  144.7210 O   0  0  0  0  0  0  0  0  0  0  0  0
  191.6940  176.7520  146.8280 C   0  0  0  0  0  1  0  0  0  0  0  0
  190.6620  177.3530  145.8860 C   0  0  1  0  0  0  0  0  0  0  0  0
  191.1260  177.8640  144.5690 C   0  0  2  0  0  3  0  0  0  0  0  0
  189.2680  177.7050  146.4160 C   0  0  0  0  0  2  0  0  0  0  0  0
  189.1550  177.4380  147.9130 C   0  0  0  0  0  3  0  0  0  0  0  0
  187.7160  177.1340  148.2740 C   0  0  0  0  0  1  0  0  0  0  0  0
  189.6370  178.6280  148.7210 C   0  0  0  0  0  1  0  0  0  0  0  0
  188.7240  175.2510  142.8440 O   0  0  0  0  0  1  0  0  0  0  0  0
  187.9300  176.0230  143.6890 C   0  0  0  0  0  2  0  0  0  0  0  0
  1  4  1  0  0  0  0
  1  6  1  1  0  0  0
  2 20  1  1  0  0  0
  2  4  1  0  0  0  0
  3  2  1  0  0  0  0
  4 31  1  6  0  0  0
  5  3  1  6  0  0  0
  5  1  1  0  0  0  0
  6 11  1  0  0  0  0
  7  9  2  0  0  0  0
  8  6  2  0  0  0  0
  8  7  1  0  0  0  0
  9 12  1  0  0  0  0
 11 12  2  0  0  0  0
 12 10  1  0  0  0  0
 13 16  1  0  0  0  0
 13 17  1  0  0  0  0
 14 18  1  1  0  0  0
 14  5  1  0  0  0  0
 15 18  1  0  0  0  0
 16 15  2  0  0  0  0
 17 14  1  0  0  0  0
 20 19  1  1  0  0  0
 20 21  1  0  0  0  0
 22 24  1  0  0  0  0
 24 26  1  0  0  0  0
 24 23  1  1  0  0  0
 25 21  1  6  0  0  0
 25 22  1  0  0  0  0
 25 24  1  0  0  0  0
 26 27  1  0  0  0  0
 27 28  1  0  0  0  0
 27 29  1  0  0  0  0
 30 31  1  0  0  0  0
M  END
>  <MODEL>
6

>  <REMARK>
 VINA RESULT:      -7.3      3.060      6.112
  Name = 
  8 active torsions:
  status: ('A' for Active; 'I' for Inactive)
    1  A    between atoms: C_1  and  C_24
    2  A    between atoms: C_4  and  C_5
    3  A    between atoms: C_9  and  C_15
    4  A    between atoms: C_9  and  O_23
    5  A    between atoms: C_12  and  C_27
    6  A    between atoms: C_19  and  C_24
    7  A    between atoms: C_21  and  C_29
    8  A    between atoms: C_22  and  O_23
                            x       y       z     vdW  Elec       q    Type
                         _______ _______ _______ _____ _____    ______ ____

>  <TORSDO>
F 8

$$$$
=
 OpenBabel11052413173D

 31 34  0  0  1  0  0  0  0  0999 V2000
  182.7910  178.3040  140.5060 C   0  0  2  0  0  3  0  0  0  0  0  0
  183.6700  178.8910  142.6720 C   0  0  2  0  0  3  0  0  0  0  0  0
  182.1720  179.1490  142.6900 C   0  0  0  0  0  2  0  0  0  0  0  0
  183.9820  178.0810  141.4150 C   0  0  2  0  0  3  0  0  0  0  0  0
  181.6000  178.5470  141.4120 C   0  0  1  0  0  3  0  0  0  0  0  0
  182.5820  177.1810  139.5340 C   0  0  0  0  0  0  0  0  0  0  0  0
  183.1660  176.1240  137.4300 C   0  0  0  0  0  3  0  0  0  0  0  0
  183.3430  177.1520  138.3600 C   0  0  0  0  0  3  0  0  0  0  0  0
  182.2210  175.1250  137.6710 C   0  0  0  0  0  3  0  0  0  0  0  0
  180.5280  174.1810  139.0550 F   0  0  0  0  0  0  0  0  0  0  0  0
  181.6320  176.1750  139.7700 C   0  0  0  0  0  3  0  0  0  0  0  0
  181.4520  175.1500  138.8370 C   0  0  0  0  0  0  0  0  0  0  0  0
  180.1600  181.0130  139.0070 C   0  0  0  0  0  2  0  0  0  0  0  0
  180.5740  179.4640  140.7360 C   0  0  2  0  0  3  0  0  0  0  0  0
  178.9510  181.3420  141.1460 C   0  0  0  0  0  3  0  0  0  0  0  0
  179.1670  181.7380  139.8830 C   0  0  0  0  0  3  0  0  0  0  0  0
  181.2140  180.4030  139.8140 N   0  0  0  0  0  2  0  0  0  0  0  0
  179.7490  180.2290  141.7800 C   0  0  0  0  0  2  0  0  0  0  0  0
  183.4290  178.9960  145.1230 C   0  0  0  0  0  1  0  0  0  0  0  0
  184.1250  178.2540  143.9910 C   0  0  2  0  0  3  0  0  0  0  0  0
  185.5210  178.3400  144.1360 O   0  0  0  0  0  0  0  0  0  0  0  0
  186.5580  178.9920  146.0580 O   0  0  0  0  0  0  0  0  0  0  0  0
  187.7780  177.1380  146.9500 C   0  0  0  0  0  1  0  0  0  0  0  0
  187.3040  177.8590  145.6970 C   0  0  1  0  0  0  0  0  0  0  0  0
  185.8420  177.9450  145.4450 C   0  0  2  0  0  3  0  0  0  0  0  0
  188.3100  178.1920  144.5900 C   0  0  0  0  0  2  0  0  0  0  0  0
  189.3440  177.0850  144.4220 C   0  0  0  0  0  3  0  0  0  0  0  0
  190.7310  177.6320  144.6900 C   0  0  0  0  0  1  0  0  0  0  0  0
  189.2960  176.4950  143.0260 C   0  0  0  0  0  1  0  0  0  0  0  0
  184.9010  179.7530  139.9660 O   0  0  0  0  0  1  0  0  0  0  0  0
  185.2240  178.6340  140.7300 C   0  0  0  0  0  2  0  0  0  0  0  0
  1  6  1  1  0  0  0
  1  5  1  0  0  0  0
  1  4  1  0  0  0  0
  2  3  1  0  0  0  0
  2 20  1  1  0  0  0
  4 31  1  6  0  0  0
  4  2  1  0  0  0  0
  5  3  1  1  0  0  0
  6 11  1  0  0  0  0
  7  9  2  0  0  0  0
  7  8  1  0  0  0  0
  8  6  2  0  0  0  0
  9 12  1  0  0  0  0
 12 10  1  0  0  0  0
 12 11  2  0  0  0  0
 13 17  1  0  0  0  0
 13 16  1  0  0  0  0
 14  5  1  0  0  0  0
 14 18  1  1  0  0  0
 15 18  1  0  0  0  0
 16 15  2  0  0  0  0
 17 14  1  0  0  0  0
 20 21  1  0  0  0  0
 20 19  1  1  0  0  0
 24 22  1  0  0  0  0
 24 23  1  1  0  0  0
 25 21  1  6  0  0  0
 25 24  1  0  0  0  0
 25 22  1  0  0  0  0
 26 24  1  0  0  0  0
 27 26  1  0  0  0  0
 27 28  1  0  0  0  0
 29 27  1  0  0  0  0
 30 31  1  0  0  0  0
M  END
>  <MODEL>
7

>  <REMARK>
 VINA RESULT:      -7.2      4.643      8.035
  Name = 
  8 active torsions:
  status: ('A' for Active; 'I' for Inactive)
    1  A    between atoms: C_1  and  C_24
    2  A    between atoms: C_4  and  C_5
    3  A    between atoms: C_9  and  C_15
    4  A    between atoms: C_9  and  O_23
    5  A    between atoms: C_12  and  C_27
    6  A    between atoms: C_19  and  C_24
    7  A    between atoms: C_21  and  C_29
    8  A    between atoms: C_22  and  O_23
                            x       y       z     vdW  Elec       q    Type
                         _______ _______ _______ _____ _____    ______ ____

>  <TORSDO>
F 8

$$$$
=
 OpenBabel11052413173D

 31 34  0  0  1  0  0  0  0  0999 V2000
  189.1970  177.1270  141.4010 C   0  0  2  0  0  3  0  0  0  0  0  0
  190.5450  177.0310  143.3980 C   0  0  2  0  0  3  0  0  0  0  0  0
  191.4120  177.5770  142.2750 C   0  0  0  0  0  2  0  0  0  0  0  0
  189.0970  177.0480  142.9110 C   0  0  2  0  0  3  0  0  0  0  0  0
  190.4880  177.8610  141.0960 C   0  0  1  0  0  3  0  0  0  0  0  0
  187.9910  177.7530  140.7690 C   0  0  0  0  0  0  0  0  0  0  0  0
  185.9290  179.0050  141.0260 C   0  0  0  0  0  3  0  0  0  0  0  0
  187.0680  178.4180  141.5840 C   0  0  0  0  0  3  0  0  0  0  0  0
  185.7090  178.9240  139.6500 C   0  0  0  0  0  3  0  0  0  0  0  0
  186.3930  178.1730  137.4940 F   0  0  0  0  0  0  0  0  0  0  0  0
  187.7650  177.6740  139.3850 C   0  0  0  0  0  3  0  0  0  0  0  0
  186.6220  178.2570  138.8290 C   0  0  0  0  0  0  0  0  0  0  0  0
  191.0020  175.8080  138.0200 C   0  0  0  0  0  2  0  0  0  0  0  0
  191.0800  177.3990  139.7590 C   0  0  2  0  0  3  0  0  0  0  0  0
  193.2180  176.7530  138.6020 C   0  0  0  0  0  3  0  0  0  0  0  0
  192.4910  175.9480  137.8140 C   0  0  0  0  0  3  0  0  0  0  0  0
  190.6480  176.0430  139.4180 N   0  0  0  0  0  2  0  0  0  0  0  0
  192.6130  177.4740  139.7810 C   0  0  0  0  0  2  0  0  0  0  0  0
  191.5470  176.8550  145.6430 C   0  0  0  0  0  1  0  0  0  0  0  0
  190.8060  177.7940  144.7030 C   0  0  2  0  0  3  0  0  0  0  0  0
  189.5990  178.2190  145.2860 O   0  0  0  0  0  0  0  0  0  0  0  0
  188.4140  176.8580  146.6790 O   0  0  0  0  0  0  0  0  0  0  0  0
  188.3000  177.8710  148.8430 C   0  0  0  0  0  1  0  0  0  0  0  0
  188.3250  178.0940  147.3380 C   0  0  1  0  0  0  0  0  0  0  0  0
  189.5450  177.6940  146.5880 C   0  0  2  0  0  3  0  0  0  0  0  0
  187.2660  178.9910  146.6880 C   0  0  0  0  0  2  0  0  0  0  0  0
  186.0690  178.1800  146.2030 C   0  0  0  0  0  3  0  0  0  0  0  0
  185.6070  178.7010  144.8580 C   0  0  0  0  0  1  0  0  0  0  0  0
  184.9210  178.2500  147.1930 C   0  0  0  0  0  1  0  0  0  0  0  0
  187.1630  176.0010  143.8630 O   0  0  0  0  0  1  0  0  0  0  0  0
  188.4040  175.7450  143.2830 C   0  0  0  0  0  2  0  0  0  0  0  0
  1  6  1  1  0  0  0
  1  4  1  0  0  0  0
  2 20  1  1  0  0  0
  3  2  1  0  0  0  0
  4 31  1  6  0  0  0
  4  2  1  0  0  0  0
  5  1  1  0  0  0  0
  5  3  1  1  0  0  0
  6  8  1  0  0  0  0
  7  8  2  0  0  0  0
  9  7  1  0  0  0  0
 10 12  1  0  0  0  0
 11  6  2  0  0  0  0
 12 11  1  0  0  0  0
 12  9  2  0  0  0  0
 13 17  1  0  0  0  0
 14 18  1  1  0  0  0
 14  5  1  0  0  0  0
 15 18  1  0  0  0  0
 16 13  1  0  0  0  0
 16 15  2  0  0  0  0
 17 14  1  0  0  0  0
 20 21  1  0  0  0  0
 20 19  1  1  0  0  0
 22 24  1  0  0  0  0
 24 23  1  1  0  0  0
 25 21  1  6  0  0  0
 25 22  1  0  0  0  0
 25 24  1  0  0  0  0
 26 24  1  0  0  0  0
 27 26  1  0  0  0  0
 27 29  1  0  0  0  0
 28 27  1  0  0  0  0
 31 30  1  0  0  0  0
M  END
>  <MODEL>
8

>  <REMARK>
 VINA RESULT:      -7.2      3.159      8.210
  Name = 
  8 active torsions:
  status: ('A' for Active; 'I' for Inactive)
    1  A    between atoms: C_1  and  C_24
    2  A    between atoms: C_4  and  C_5
    3  A    between atoms: C_9  and  C_15
    4  A    between atoms: C_9  and  O_23
    5  A    between atoms: C_12  and  C_27
    6  A    between atoms: C_19  and  C_24
    7  A    between atoms: C_21  and  C_29
    8  A    between atoms: C_22  and  O_23
                            x       y       z     vdW  Elec       q    Type
                         _______ _______ _______ _____ _____    ______ ____

>  <TORSDO>
F 8

$$$$
=
 OpenBabel11052413173D

 31 34  0  0  1  0  0  0  0  0999 V2000
  182.6260  178.4020  140.3400 C   0  0  2  0  0  3  0  0  0  0  0  0
  184.5480  179.1660  139.1020 C   0  0  2  0  0  3  0  0  0  0  0  0
  185.0470  178.4930  140.3700 C   0  0  0  0  0  2  0  0  0  0  0  0
  183.0650  178.8280  138.9540 C   0  0  2  0  0  3  0  0  0  0  0  0
  183.8480  177.8060  141.0120 C   0  0  1  0  0  3  0  0  0  0  0  0
  181.4460  177.4770  140.3190 C   0  0  0  0  0  0  0  0  0  0  0  0
  179.1520  177.0280  140.9690 C   0  0  0  0  0  3  0  0  0  0  0  0
  180.2680  177.8710  140.9630 C   0  0  0  0  0  3  0  0  0  0  0  0
  179.2160  175.7870  140.3340 C   0  0  0  0  0  3  0  0  0  0  0  0
  180.4470  174.1690  139.0910 F   0  0  0  0  0  0  0  0  0  0  0  0
  181.5060  176.2270  139.6830 C   0  0  0  0  0  3  0  0  0  0  0  0
  180.3910  175.3830  139.6950 C   0  0  0  0  0  0  0  0  0  0  0  0
  182.6890  179.0500  144.3360 C   0  0  0  0  0  2  0  0  0  0  0  0
  183.7940  178.0100  142.5300 C   0  0  2  0  0  3  0  0  0  0  0  0
  185.1400  178.7340  144.5290 C   0  0  0  0  0  3  0  0  0  0  0  0
  183.9940  179.1520  145.0870 C   0  0  0  0  0  3  0  0  0  0  0  0
  182.9140  179.1220  142.8940 N   0  0  0  0  0  2  0  0  0  0  0  0
  185.1990  178.2410  143.1040 C   0  0  0  0  0  2  0  0  0  0  0  0
  184.8860  177.4830  137.3330 C   0  0  0  0  0  1  0  0  0  0  0  0
  185.4290  178.7850  137.9050 C   0  0  2  0  0  3  0  0  0  0  0  0
  186.7700  178.6250  138.2980 O   0  0  0  0  0  0  0  0  0  0  0  0
  187.9060  176.6760  137.9670 O   0  0  0  0  0  0  0  0  0  0  0  0
  189.7220  177.0820  136.4640 C   0  0  0  0  0  1  0  0  0  0  0  0
  188.8590  177.6350  137.5890 C   0  0  1  0  0  0  0  0  0  0  0  0
  187.4080  177.8310  137.3300 C   0  0  2  0  0  3  0  0  0  0  0  0
  189.5270  178.2620  138.8170 C   0  0  0  0  0  2  0  0  0  0  0  0
  189.6210  177.2690  139.9700 C   0  0  0  0  0  3  0  0  0  0  0  0
  188.7410  177.7260  141.1150 C   0  0  0  0  0  1  0  0  0  0  0  0
  191.0500  177.1280  140.4580 C   0  0  0  0  0  1  0  0  0  0  0  0
  183.0650  181.2120  138.7160 O   0  0  0  0  0  1  0  0  0  0  0  0
  182.2810  180.0710  138.5580 C   0  0  0  0  0  2  0  0  0  0  0  0
  1  6  1  6  0  0  0
  1  5  1  0  0  0  0
  2 20  1  6  0  0  0
  2  3  1  0  0  0  0
  4 31  1  1  0  0  0
  4  2  1  0  0  0  0
  4  1  1  0  0  0  0
  5  3  1  6  0  0  0
  5 14  1  0  0  0  0
  6  8  1  0  0  0  0
  8  7  2  0  0  0  0
  9  7  1  0  0  0  0
 10 12  1  0  0  0  0
 11 12  1  0  0  0  0
 11  6  2  0  0  0  0
 12  9  2  0  0  0  0
 13 16  1  0  0  0  0
 14 17  1  0  0  0  0
 14 18  1  6  0  0  0
 15 16  2  0  0  0  0
 17 13  1  0  0  0  0
 18 15  1  0  0  0  0
 20 19  1  1  0  0  0
 20 21  1  0  0  0  0
 24 23  1  6  0  0  0
 24 22  1  0  0  0  0
 24 26  1  0  0  0  0
 25 24  1  0  0  0  0
 25 22  1  0  0  0  0
 25 21  1  1  0  0  0
 26 27  1  0  0  0  0
 27 29  1  0  0  0  0
 27 28  1  0  0  0  0
 31 30  1  0  0  0  0
M  END
>  <MODEL>
9

>  <REMARK>
 VINA RESULT:      -7.1      3.896      6.697
  Name = 
  8 active torsions:
  status: ('A' for Active; 'I' for Inactive)
    1  A    between atoms: C_1  and  C_24
    2  A    between atoms: C_4  and  C_5
    3  A    between atoms: C_9  and  C_15
    4  A    between atoms: C_9  and  O_23
    5  A    between atoms: C_12  and  C_27
    6  A    between atoms: C_19  and  C_24
    7  A    between atoms: C_21  and  C_29
    8  A    between atoms: C_22  and  O_23
                            x       y       z     vdW  Elec       q    Type
                         _______ _______ _______ _____ _____    ______ ____

>  <TORSDO>
F 8

$$$$
