=
 OpenBabel11052412353D

 30 34  0  0  1  0  0  0  0  0999 V2000
  188.6920  178.6000  138.2690 C   0  0  2  0  0  3  0  0  0  0  0  0
  186.4910  177.8050  137.0090 C   0  0  1  0  0  3  0  0  0  0  0  0
  189.1900  174.0810  136.6390 C   0  0  0  0  0  2  0  0  0  0  0  0
  190.0560  177.9470  138.5100 C   0  0  1  0  0  3  0  0  0  0  0  0
  187.9260  178.5700  139.4620 O   0  0  0  0  0  0  0  0  0  0  0  0
  188.7080  176.0760  142.7850 C   0  0  0  0  0  1  0  0  0  0  0  0
  190.1450  178.0580  140.0100 C   0  0  1  0  0  3  0  0  0  0  0  0
  188.4830  178.3870  141.8220 C   0  0  0  0  0  2  0  0  0  0  0  0
  190.4270  174.1440  137.5640 C   0  0  1  0  0  3  0  0  0  0  0  0
  188.7100  177.8900  140.4060 C   0  0  1  0  0  3  0  0  0  0  0  0
  191.0400  177.5160  142.5400 S   0  0  0  0  0  0  0  0  0  0  0  0
  185.8250  176.6880  137.7950 C   0  0  0  0  0  2  0  0  0  0  0  0
  188.9880  178.0120  144.1100 O   0  0  0  0  0  1  0  0  0  0  0  0
  185.9620  179.0410  137.3860 O   0  0  0  0  0  1  0  0  0  0  0  0
  188.1440  175.1330  137.0380 C   0  0  2  0  0  3  0  0  0  0  0  0
  186.9160  175.0420  136.1520 C   0  0  0  0  0  2  0  0  0  0  0  0
  189.2260  177.5050  142.8330 C   0  0  2  0  0  0  0  0  0  0  0  0
  188.0230  177.7960  137.1470 C   0  0  2  0  0  3  0  0  0  0  0  0
  189.8420  176.5120  138.0400 C   0  0  2  0  0  3  0  0  0  0  0  0
  191.4030  173.2440  137.1330 O   0  0  0  0  0  1  0  0  0  0  0  0
  191.0120  175.5680  137.7340 C   0  0  2  0  0  3  0  0  0  0  0  0
  192.4540  177.1280  140.2590 C   0  0  0  0  0  1  0  0  0  0  0  0
  185.6560  175.4350  136.9290 C   0  0  0  0  0  2  0  0  0  0  0  0
  188.8140  176.5030  136.9430 C   0  0  1  0  0  3  0  0  0  0  0  0
  191.0250  177.0640  140.7650 C   0  0  2  0  0  3  0  0  0  0  0  0
  191.9130  175.9950  136.5580 C   0  0  1  0  0  3  0  0  0  0  0  0
  191.2390  176.8240  135.6580 O   0  0  0  0  0  1  0  0  0  0  0  0
  193.1910  176.6630  137.0470 C   0  0  0  0  0  2  0  0  0  0  0  0
  194.2770  175.7190  137.0840 N   0  0  0  0  0  0  0  0  0  0  0  0
  194.6190  175.2300  138.1180 O   0  0  0  0  0  0  0  0  0  0  0  0
  1  4  1  0  0  0  0
  1  5  1  1  0  0  0
  2 18  1  0  0  0  0
  2 14  1  1  0  0  0
  2 12  1  0  0  0  0
  3 15  1  0  0  0  0
  3  9  1  0  0  0  0
  4  7  1  0  0  0  0
  5 10  1  0  0  0  0
  6 17  1  0  0  0  0
  7 10  1  0  0  0  0
  7 25  1  0  0  0  0
  8 17  1  0  0  0  0
  9 21  1  0  0  0  0
 10  8  1  0  0  0  0
 11 17  1  0  0  0  0
 16 23  1  0  0  0  0
 16 15  1  0  0  0  0
 17 13  1  0  0  0  0
 18  1  1  0  0  0  0
 19  4  1  0  0  0  0
 20  9  1  0  0  0  0
 21 19  1  0  0  0  0
 22 25  1  0  0  0  0
 23 12  1  0  0  0  0
 24 15  1  0  0  0  0
 24 18  1  0  0  0  0
 24 19  1  0  0  0  0
 25 11  1  0  0  0  0
 26 28  1  0  0  0  0
 26 21  1  0  0  0  0
 27 26  1  0  0  0  0
 28 29  1  0  0  0  0
 29 30  2  0  0  0  0
M  END
>  <MODEL>
1

>  <REMARK>
 VINA RESULT:      -6.0      0.000      0.000
  Name = 
  3 active torsions:
  status: ('A' for Active; 'I' for Inactive)
    1  A    between atoms: C_7  and  C_10
    2  A    between atoms: C_7  and  N_16
    3  A    between atoms: C_10  and  C_25
                            x       y       z     vdW  Elec       q    Type
                         _______ _______ _______ _____ _____    ______ ____

>  <TORSDO>
F 3

$$$$
=
 OpenBabel11052412353D

 30 34  0  0  1  0  0  0  0  0999 V2000
  186.4940  177.8610  136.7750 C   0  0  2  0  0  3  0  0  0  0  0  0
  188.7030  178.3090  138.1840 C   0  0  1  0  0  3  0  0  0  0  0  0
  185.4450  178.5070  141.4450 C   0  0  0  0  0  2  0  0  0  0  0  0
  185.0060  177.8360  137.1380 C   0  0  1  0  0  3  0  0  0  0  0  0
  186.9700  176.5370  136.5960 O   0  0  0  0  0  0  0  0  0  0  0  0
  185.0180  173.0510  137.9770 C   0  0  0  0  0  1  0  0  0  0  0  0
  184.6280  176.4720  136.6200 C   0  0  1  0  0  3  0  0  0  0  0  0
  185.9030  174.4180  136.0620 C   0  0  0  0  0  2  0  0  0  0  0  0
  184.0810  177.9670  140.9610 C   0  0  1  0  0  3  0  0  0  0  0  0
  185.8830  175.6960  136.8810 C   0  0  1  0  0  3  0  0  0  0  0  0
  183.1300  174.1980  136.3350 S   0  0  0  0  0  0  0  0  0  0  0  0
  188.9480  177.1490  139.1350 C   0  0  0  0  0  2  0  0  0  0  0  0
  184.8630  172.3110  135.7390 O   0  0  0  0  0  1  0  0  0  0  0  0
  189.3800  178.0970  136.9810 O   0  0  0  0  0  1  0  0  0  0  0  0
  186.5750  178.1020  140.4860 C   0  0  2  0  0  3  0  0  0  0  0  0
  187.9180  178.6030  140.9840 C   0  0  0  0  0  2  0  0  0  0  0  0
  184.8010  173.4580  136.5270 C   0  0  2  0  0  0  0  0  0  0  0  0
  187.2070  178.5660  137.9360 C   0  0  2  0  0  3  0  0  0  0  0  0
  185.0190  177.9010  138.6620 C   0  0  2  0  0  3  0  0  0  0  0  0
  183.0550  178.4180  141.7940 O   0  0  0  0  0  1  0  0  0  0  0  0
  183.7740  178.2750  139.4750 C   0  0  2  0  0  3  0  0  0  0  0  0
  182.1800  176.6160  137.1090 C   0  0  0  0  0  1  0  0  0  0  0  0
  189.0390  177.6390  140.5840 C   0  0  0  0  0  2  0  0  0  0  0  0
  186.2320  178.6690  139.1090 C   0  0  1  0  0  3  0  0  0  0  0  0
  183.4270  175.7620  137.2410 C   0  0  2  0  0  3  0  0  0  0  0  0
  183.2460  179.7060  139.2520 C   0  0  1  0  0  3  0  0  0  0  0  0
  184.2600  180.5800  138.8520 O   0  0  0  0  0  1  0  0  0  0  0  0
  182.0960  179.7290  138.2550 C   0  0  0  0  0  2  0  0  0  0  0  0
  180.8350  179.5530  138.9270 N   0  0  0  0  0  0  0  0  0  0  0  0
  180.6390  180.0630  139.9890 O   0  0  0  0  0  0  0  0  0  0  0  0
  1  5  1  1  0  0  0
  1  4  1  0  0  0  0
  1 18  1  0  0  0  0
  2 14  1  6  0  0  0
  2 12  1  0  0  0  0
  4 19  1  0  0  0  0
  5 10  1  0  0  0  0
  7 10  1  0  0  0  0
  7  4  1  0  0  0  0
  7 25  1  0  0  0  0
  8 17  1  0  0  0  0
  8 10  1  0  0  0  0
  9  3  1  0  0  0  0
  9 20  1  0  0  0  0
 11 17  1  0  0  0  0
 11 25  1  0  0  0  0
 12 23  1  0  0  0  0
 13 17  1  0  0  0  0
 15 16  1  0  0  0  0
 15  3  1  0  0  0  0
 17  6  1  0  0  0  0
 18  2  1  0  0  0  0
 18 24  1  0  0  0  0
 19 24  1  0  0  0  0
 19 21  1  0  0  0  0
 21  9  1  0  0  0  0
 22 25  1  0  0  0  0
 23 16  1  0  0  0  0
 24 15  1  0  0  0  0
 26 21  1  0  0  0  0
 27 26  1  0  0  0  0
 28 29  1  0  0  0  0
 28 26  1  0  0  0  0
 29 30  2  0  0  0  0
M  END
>  <MODEL>
2

>  <REMARK>
 VINA RESULT:      -5.4      4.370      7.973
  Name = 
  3 active torsions:
  status: ('A' for Active; 'I' for Inactive)
    1  A    between atoms: C_7  and  C_10
    2  A    between atoms: C_7  and  N_16
    3  A    between atoms: C_10  and  C_25
                            x       y       z     vdW  Elec       q    Type
                         _______ _______ _______ _____ _____    ______ ____

>  <TORSDO>
F 3

$$$$
=
 OpenBabel11052412353D

 30 34  0  0  1  0  0  0  0  0999 V2000
  186.7620  178.4840  137.9400 C   0  0  2  0  0  3  0  0  0  0  0  0
  184.1740  177.8740  137.9380 C   0  0  1  0  0  3  0  0  0  0  0  0
  186.1020  173.8250  136.8540 C   0  0  0  0  0  2  0  0  0  0  0  0
  188.0270  177.6870  137.6110 C   0  0  1  0  0  3  0  0  0  0  0  0
  186.6440  178.6440  139.3440 O   0  0  0  0  0  0  0  0  0  0  0  0
  188.7030  176.3400  142.2290 C   0  0  0  0  0  1  0  0  0  0  0  0
  188.8160  177.9030  138.8770 C   0  0  1  0  0  3  0  0  0  0  0  0
  188.2260  178.5780  141.1890 C   0  0  0  0  0  2  0  0  0  0  0  0
  187.6280  173.8050  137.0940 C   0  0  1  0  0  3  0  0  0  0  0  0
  187.7260  177.9470  139.9030 C   0  0  1  0  0  3  0  0  0  0  0  0
  190.7490  177.4530  140.7630 S   0  0  0  0  0  0  0  0  0  0  0  0
  183.8740  176.9140  139.0770 C   0  0  0  0  0  2  0  0  0  0  0  0
  189.7140  178.3230  143.0190 O   0  0  0  0  0  1  0  0  0  0  0  0
  183.9780  179.1920  138.3540 O   0  0  0  0  0  1  0  0  0  0  0  0
  185.4450  175.0270  137.5490 C   0  0  2  0  0  3  0  0  0  0  0  0
  183.9420  175.0220  137.3420 C   0  0  0  0  0  2  0  0  0  0  0  0
  189.2880  177.6920  141.8520 C   0  0  2  0  0  0  0  0  0  0  0  0
  185.5880  177.6850  137.3600 C   0  0  2  0  0  3  0  0  0  0  0  0
  187.5120  176.2570  137.4780 C   0  0  2  0  0  3  0  0  0  0  0  0
  188.2190  172.7590  136.3830 O   0  0  0  0  0  1  0  0  0  0  0  0
  188.3290  175.1540  136.7940 C   0  0  2  0  0  3  0  0  0  0  0  0
  190.8960  176.7140  138.1590 C   0  0  0  0  0  1  0  0  0  0  0  0
  183.2260  175.6290  138.5530 C   0  0  0  0  0  2  0  0  0  0  0  0
  186.0930  176.2910  136.9840 C   0  0  1  0  0  3  0  0  0  0  0  0
  189.8700  176.8690  139.2660 C   0  0  2  0  0  3  0  0  0  0  0  0
  188.6030  175.3700  135.2930 C   0  0  1  0  0  3  0  0  0  0  0  0
  188.3560  176.6890  134.9030 O   0  0  0  0  0  1  0  0  0  0  0  0
  190.0200  174.9580  134.9180 C   0  0  0  0  0  2  0  0  0  0  0  0
  190.8170  176.1120  134.5940 N   0  0  0  0  0  0  0  0  0  0  0  0
  192.0030  176.0890  134.7370 O   0  0  0  0  0  0  0  0  0  0  0  0
  1  5  1  1  0  0  0
  2 14  1  1  0  0  0
  2 12  1  0  0  0  0
  3  9  1  0  0  0  0
  3 15  1  0  0  0  0
  4  1  1  0  0  0  0
  4  7  1  0  0  0  0
  5 10  1  0  0  0  0
  7 25  1  0  0  0  0
  7 10  1  0  0  0  0
  8 17  1  0  0  0  0
 10  8  1  0  0  0  0
 11 17  1  0  0  0  0
 16 15  1  0  0  0  0
 16 23  1  0  0  0  0
 17  6  1  0  0  0  0
 17 13  1  0  0  0  0
 18  2  1  0  0  0  0
 18  1  1  0  0  0  0
 19  4  1  0  0  0  0
 20  9  1  0  0  0  0
 21  9  1  0  0  0  0
 21 19  1  0  0  0  0
 22 25  1  0  0  0  0
 23 12  1  0  0  0  0
 24 18  1  0  0  0  0
 24 19  1  0  0  0  0
 24 15  1  0  0  0  0
 25 11  1  0  0  0  0
 26 21  1  0  0  0  0
 27 26  1  0  0  0  0
 28 26  1  0  0  0  0
 29 30  2  0  0  0  0
 29 28  1  0  0  0  0
M  END
>  <MODEL>
3

>  <REMARK>
 VINA RESULT:      -5.3      1.899      2.635
  Name = 
  3 active torsions:
  status: ('A' for Active; 'I' for Inactive)
    1  A    between atoms: C_7  and  C_10
    2  A    between atoms: C_7  and  N_16
    3  A    between atoms: C_10  and  C_25
                            x       y       z     vdW  Elec       q    Type
                         _______ _______ _______ _____ _____    ______ ____

>  <TORSDO>
F 3

$$$$
=
 OpenBabel11052412353D

 30 34  0  0  1  0  0  0  0  0999 V2000
  188.2820  178.7500  138.6850 C   0  0  2  0  0  3  0  0  0  0  0  0
  186.1190  177.9210  137.3810 C   0  0  1  0  0  3  0  0  0  0  0  0
  188.9880  174.3510  136.8220 C   0  0  0  0  0  2  0  0  0  0  0  0
  189.6760  178.1490  138.8940 C   0  0  1  0  0  3  0  0  0  0  0  0
  187.5190  178.6210  139.8740 O   0  0  0  0  0  0  0  0  0  0  0  0
  188.4180  175.9960  143.0630 C   0  0  0  0  0  1  0  0  0  0  0  0
  189.7600  178.1850  140.3980 C   0  0  1  0  0  3  0  0  0  0  0  0
  188.0860  178.3410  142.2220 C   0  0  0  0  0  2  0  0  0  0  0  0
  190.2210  174.4220  137.7500 C   0  0  1  0  0  3  0  0  0  0  0  0
  188.3350  177.9300  140.7820 C   0  0  1  0  0  3  0  0  0  0  0  0
  190.6820  177.5530  142.8980 S   0  0  0  0  0  0  0  0  0  0  0  0
  185.5070  176.7340  138.1070 C   0  0  0  0  0  2  0  0  0  0  0  0
  188.6100  177.8700  144.4870 O   0  0  0  0  0  1  0  0  0  0  0  0
  185.5350  179.1090  137.8220 O   0  0  0  0  0  1  0  0  0  0  0  0
  187.8950  175.3300  137.2730 C   0  0  2  0  0  3  0  0  0  0  0  0
  186.6710  175.2300  136.3820 C   0  0  0  0  0  2  0  0  0  0  0  0
  188.8700  177.4430  143.1870 C   0  0  2  0  0  0  0  0  0  0  0  0
  187.6510  177.9760  137.5220 C   0  0  2  0  0  3  0  0  0  0  0  0
  189.5280  176.7320  138.3490 C   0  0  2  0  0  3  0  0  0  0  0  0
  191.2380  173.5920  137.2740 O   0  0  0  0  0  1  0  0  0  0  0  0
  190.7400  175.8610  137.9960 C   0  0  2  0  0  3  0  0  0  0  0  0
  192.1100  177.3510  140.6020 C   0  0  0  0  0  1  0  0  0  0  0  0
  185.3950  175.5220  137.1760 C   0  0  0  0  0  2  0  0  0  0  0  0
  188.5000  176.7330  137.2520 C   0  0  1  0  0  3  0  0  0  0  0  0
  190.6860  177.1940  141.1010 C   0  0  2  0  0  3  0  0  0  0  0  0
  191.6190  176.3900  136.8460 C   0  0  1  0  0  3  0  0  0  0  0  0
  192.9360  176.6130  137.2560 O   0  0  0  0  0  1  0  0  0  0  0  0
  191.5850  175.4590  135.6420 C   0  0  0  0  0  2  0  0  0  0  0  0
  190.7540  176.0040  134.6000 N   0  0  0  0  0  0  0  0  0  0  0  0
  190.4740  177.1650  134.5940 O   0  0  0  0  0  0  0  0  0  0  0  0
  1  4  1  0  0  0  0
  1  5  1  1  0  0  0
  2 18  1  0  0  0  0
  2 14  1  1  0  0  0
  2 12  1  0  0  0  0
  3 15  1  0  0  0  0
  3  9  1  0  0  0  0
  4  7  1  0  0  0  0
  5 10  1  0  0  0  0
  6 17  1  0  0  0  0
  7 10  1  0  0  0  0
  7 25  1  0  0  0  0
  8 17  1  0  0  0  0
  9 21  1  0  0  0  0
 10  8  1  0  0  0  0
 11 17  1  0  0  0  0
 16 23  1  0  0  0  0
 16 15  1  0  0  0  0
 17 13  1  0  0  0  0
 18  1  1  0  0  0  0
 19  4  1  0  0  0  0
 20  9  1  0  0  0  0
 21 19  1  0  0  0  0
 22 25  1  0  0  0  0
 23 12  1  0  0  0  0
 24 15  1  0  0  0  0
 24 18  1  0  0  0  0
 24 19  1  0  0  0  0
 25 11  1  0  0  0  0
 26 27  1  0  0  0  0
 26 21  1  0  0  0  0
 28 26  1  0  0  0  0
 29 28  1  0  0  0  0
 30 29  2  0  0  0  0
M  END
>  <MODEL>
4

>  <REMARK>
 VINA RESULT:      -5.0      1.083      1.528
  Name = 
  3 active torsions:
  status: ('A' for Active; 'I' for Inactive)
    1  A    between atoms: C_7  and  C_10
    2  A    between atoms: C_7  and  N_16
    3  A    between atoms: C_10  and  C_25
                            x       y       z     vdW  Elec       q    Type
                         _______ _______ _______ _____ _____    ______ ____

>  <TORSDO>
F 3

$$$$
=
 OpenBabel11052412353D

 30 34  0  0  1  0  0  0  0  0999 V2000
  179.8880  178.1740  139.8180 C   0  0  2  0  0  3  0  0  0  0  0  0
  180.3410  178.2940  142.4350 C   0  0  1  0  0  3  0  0  0  0  0  0
  184.6300  178.2790  140.7330 C   0  0  0  0  0  2  0  0  0  0  0  0
  180.8090  178.0700  138.5990 C   0  0  1  0  0  3  0  0  0  0  0  0
  179.3770  179.4920  139.9250 O   0  0  0  0  0  0  0  0  0  0  0  0
  180.9920  182.8860  137.9890 C   0  0  0  0  0  1  0  0  0  0  0  0
  180.3250  179.2510  137.7970 C   0  0  1  0  0  3  0  0  0  0  0  0
  179.0630  181.3140  138.3450 C   0  0  0  0  0  2  0  0  0  0  0  0
  184.6700  178.5350  139.2090 C   0  0  1  0  0  3  0  0  0  0  0  0
  179.9680  180.2200  138.8820 C   0  0  1  0  0  3  0  0  0  0  0  0
  180.3910  181.2130  135.8880 S   0  0  0  0  0  0  0  0  0  0  0  0
  180.9680  179.6330  142.7850 C   0  0  0  0  0  2  0  0  0  0  0  0
  178.9310  183.1670  136.8700 O   0  0  0  0  0  1  0  0  0  0  0  0
  178.9530  178.3650  142.5590 O   0  0  0  0  0  1  0  0  0  0  0  0
  183.2590  178.6440  141.3220 C   0  0  2  0  0  3  0  0  0  0  0  0
  183.2360  178.4270  142.8230 C   0  0  0  0  0  2  0  0  0  0  0  0
  179.8100  182.1900  137.3320 C   0  0  2  0  0  0  0  0  0  0  0  0
  180.7440  177.7990  141.0350 C   0  0  2  0  0  3  0  0  0  0  0  0
  182.1970  178.2930  139.1910 C   0  0  2  0  0  3  0  0  0  0  0  0
  185.8910  178.1150  138.6770 O   0  0  0  0  0  1  0  0  0  0  0  0
  183.4780  177.9160  138.4370 C   0  0  2  0  0  3  0  0  0  0  0  0
  181.7650  178.8770  135.7860 C   0  0  0  0  0  1  0  0  0  0  0  0
  182.3080  179.4390  143.5030 C   0  0  0  0  0  2  0  0  0  0  0  0
  182.2120  177.7890  140.6070 C   0  0  1  0  0  3  0  0  0  0  0  0
  181.2840  179.8980  136.8000 C   0  0  2  0  0  3  0  0  0  0  0  0
  183.6590  176.4120  138.1530 C   0  0  1  0  0  3  0  0  0  0  0  0
  182.8560  175.6240  138.9830 O   0  0  0  0  0  1  0  0  0  0  0  0
  183.3990  176.0830  136.6900 C   0  0  0  0  0  2  0  0  0  0  0  0
  184.5120  176.4880  135.8710 N   0  0  0  0  0  0  0  0  0  0  0  0
  185.5810  175.9750  136.0070 O   0  0  0  0  0  0  0  0  0  0  0  0
  1  5  1  1  0  0  0
  1 18  1  0  0  0  0
  2 14  1  6  0  0  0
  2 12  1  0  0  0  0
  3 15  1  0  0  0  0
  4 19  1  0  0  0  0
  4  1  1  0  0  0  0
  7  4  1  0  0  0  0
  7 10  1  0  0  0  0
  8 10  1  0  0  0  0
  9  3  1  0  0  0  0
 10  5  1  0  0  0  0
 11 25  1  0  0  0  0
 11 17  1  0  0  0  0
 12 23  1  0  0  0  0
 13 17  1  0  0  0  0
 15 16  1  0  0  0  0
 16 23  1  0  0  0  0
 17  6  1  0  0  0  0
 17  8  1  0  0  0  0
 18  2  1  0  0  0  0
 19 24  1  0  0  0  0
 20  9  1  0  0  0  0
 21 19  1  0  0  0  0
 21  9  1  0  0  0  0
 22 25  1  0  0  0  0
 24 18  1  0  0  0  0
 24 15  1  0  0  0  0
 25  7  1  0  0  0  0
 26 21  1  0  0  0  0
 26 27  1  0  0  0  0
 28 26  1  0  0  0  0
 29 30  2  0  0  0  0
 29 28  1  0  0  0  0
M  END
>  <MODEL>
5

>  <REMARK>
 VINA RESULT:      -5.0      6.372      9.420
  Name = 
  3 active torsions:
  status: ('A' for Active; 'I' for Inactive)
    1  A    between atoms: C_7  and  C_10
    2  A    between atoms: C_7  and  N_16
    3  A    between atoms: C_10  and  C_25
                            x       y       z     vdW  Elec       q    Type
                         _______ _______ _______ _____ _____    ______ ____

>  <TORSDO>
F 3

$$$$
=
 OpenBabel11052412353D

 30 34  0  0  1  0  0  0  0  0999 V2000
  190.1040  176.0050  135.1900 C   0  0  2  0  0  3  0  0  0  0  0  0
  192.6620  175.9210  135.9070 C   0  0  1  0  0  3  0  0  0  0  0  0
  190.6020  177.0270  139.8840 C   0  0  0  0  0  2  0  0  0  0  0  0
  188.8170  176.3660  135.9380 C   0  0  1  0  0  3  0  0  0  0  0  0
  190.1860  174.5990  135.0210 O   0  0  0  0  0  0  0  0  0  0  0  0
  187.9450  171.7580  137.2070 C   0  0  0  0  0  1  0  0  0  0  0  0
  187.9990  175.1270  135.6760 C   0  0  1  0  0  3  0  0  0  0  0  0
  188.5460  172.8030  135.0010 C   0  0  0  0  0  2  0  0  0  0  0  0
  189.0690  176.8340  139.8380 C   0  0  1  0  0  3  0  0  0  0  0  0
  189.0590  174.0680  135.6660 C   0  0  1  0  0  3  0  0  0  0  0  0
  185.9930  173.2970  136.0260 S   0  0  0  0  0  0  0  0  0  0  0  0
  192.8880  174.7640  136.8660 C   0  0  0  0  0  2  0  0  0  0  0  0
  186.9940  171.0180  135.1760 O   0  0  0  0  0  1  0  0  0  0  0  0
  192.9010  175.5110  134.5940 O   0  0  0  0  0  1  0  0  0  0  0  0
  191.2860  176.3230  138.7030 C   0  0  2  0  0  3  0  0  0  0  0  0
  192.7930  176.4830  138.7720 C   0  0  0  0  0  2  0  0  0  0  0  0
  187.4290  172.1650  135.8350 C   0  0  2  0  0  0  0  0  0  0  0  0
  191.2600  176.5400  136.0440 C   0  0  2  0  0  3  0  0  0  0  0  0
  189.2760  176.4690  137.3890 C   0  0  2  0  0  3  0  0  0  0  0  0
  188.4570  177.5530  140.8660 O   0  0  0  0  0  1  0  0  0  0  0  0
  188.4350  177.1670  138.4650 C   0  0  2  0  0  3  0  0  0  0  0  0
  185.8940  175.8980  136.7850 C   0  0  0  0  0  1  0  0  0  0  0  0
  193.4970  175.2570  138.1830 C   0  0  0  0  0  2  0  0  0  0  0  0
  190.7100  176.9190  137.4190 C   0  0  1  0  0  3  0  0  0  0  0  0
  186.8920  174.7610  136.6610 C   0  0  2  0  0  3  0  0  0  0  0  0
  188.2160  178.6780  138.2530 C   0  0  1  0  0  3  0  0  0  0  0  0
  189.0530  179.1930  137.2590 O   0  0  0  0  0  1  0  0  0  0  0  0
  186.7590  178.9930  137.9400 C   0  0  0  0  0  2  0  0  0  0  0  0
  185.9060  178.5880  139.0270 N   0  0  0  0  0  0  0  0  0  0  0  0
  185.2830  179.4000  139.6420 O   0  0  0  0  0  0  0  0  0  0  0  0
  1  5  1  1  0  0  0
  1  4  1  0  0  0  0
  1 18  1  0  0  0  0
  2 14  1  6  0  0  0
  2 18  1  0  0  0  0
  2 12  1  0  0  0  0
  4 19  1  0  0  0  0
  5 10  1  0  0  0  0
  7  4  1  0  0  0  0
  7 25  1  0  0  0  0
  8 10  1  0  0  0  0
  8 17  1  0  0  0  0
  9  3  1  0  0  0  0
  9 20  1  0  0  0  0
 10  7  1  0  0  0  0
 11 25  1  0  0  0  0
 12 23  1  0  0  0  0
 13 17  1  0  0  0  0
 15 16  1  0  0  0  0
 15  3  1  0  0  0  0
 17 11  1  0  0  0  0
 17  6  1  0  0  0  0
 18 24  1  0  0  0  0
 19 24  1  0  0  0  0
 19 21  1  0  0  0  0
 21  9  1  0  0  0  0
 23 16  1  0  0  0  0
 24 15  1  0  0  0  0
 25 22  1  0  0  0  0
 26 21  1  0  0  0  0
 27 26  1  0  0  0  0
 28 26  1  0  0  0  0
 28 29  1  0  0  0  0
 29 30  2  0  0  0  0
M  END
>  <MODEL>
6

>  <REMARK>
 VINA RESULT:      -4.7      3.018      6.647
  Name = 
  3 active torsions:
  status: ('A' for Active; 'I' for Inactive)
    1  A    between atoms: C_7  and  C_10
    2  A    between atoms: C_7  and  N_16
    3  A    between atoms: C_10  and  C_25
                            x       y       z     vdW  Elec       q    Type
                         _______ _______ _______ _____ _____    ______ ____

>  <TORSDO>
F 3

$$$$
=
 OpenBabel11052412353D

 30 34  0  0  1  0  0  0  0  0999 V2000
  181.1220  178.2460  140.7820 C   0  0  2  0  0  3  0  0  0  0  0  0
  182.5070  178.4750  143.0400 C   0  0  1  0  0  3  0  0  0  0  0  0
  185.8680  178.2420  139.8880 C   0  0  0  0  0  2  0  0  0  0  0  0
  181.5290  178.0540  139.3180 C   0  0  1  0  0  3  0  0  0  0  0  0
  180.7020  179.5830  140.9950 O   0  0  0  0  0  0  0  0  0  0  0  0
  181.5340  182.8280  138.4160 C   0  0  0  0  0  1  0  0  0  0  0  0
  180.7980  179.2110  138.6850 C   0  0  1  0  0  3  0  0  0  0  0  0
  179.8520  181.3380  139.5420 C   0  0  0  0  0  2  0  0  0  0  0  0
  185.3490  178.4240  138.4440 C   0  0  1  0  0  3  0  0  0  0  0  0
  180.8780  180.2420  139.7690 C   0  0  1  0  0  3  0  0  0  0  0  0
  180.1820  181.0780  136.7790 S   0  0  0  0  0  0  0  0  0  0  0  0
  183.2360  179.8080  143.0600 C   0  0  0  0  0  2  0  0  0  0  0  0
  179.2100  183.1230  138.1170 O   0  0  0  0  0  1  0  0  0  0  0  0
  181.2620  178.5960  143.6600 O   0  0  0  0  0  1  0  0  0  0  0  0
  184.8150  178.6780  140.9170 C   0  0  2  0  0  3  0  0  0  0  0  0
  185.3430  178.5330  142.3310 C   0  0  0  0  0  2  0  0  0  0  0  0
  180.1850  182.1400  138.2780 C   0  0  2  0  0  0  0  0  0  0  0  0
  182.3610  177.9010  141.6190 C   0  0  2  0  0  3  0  0  0  0  0  0
  183.0400  178.2610  139.3470 C   0  0  2  0  0  3  0  0  0  0  0  0
  186.2830  177.9400  137.5260 O   0  0  0  0  0  1  0  0  0  0  0  0
  183.9490  177.8080  138.1980 C   0  0  2  0  0  3  0  0  0  0  0  0
  181.3930  178.6970  136.3100 C   0  0  0  0  0  1  0  0  0  0  0  0
  184.7430  179.6050  143.2470 C   0  0  0  0  0  2  0  0  0  0  0  0
  183.5680  177.8240  140.6850 C   0  0  1  0  0  3  0  0  0  0  0  0
  181.3310  179.7800  137.3710 C   0  0  2  0  0  3  0  0  0  0  0  0
  183.9940  176.2870  137.9520 C   0  0  1  0  0  3  0  0  0  0  0  0
  182.9920  175.6150  138.6570 O   0  0  0  0  0  1  0  0  0  0  0  0
  183.9160  175.9570  136.4680 C   0  0  0  0  0  2  0  0  0  0  0  0
  184.8650  174.9300  136.1240 N   0  0  0  0  0  0  0  0  0  0  0  0
  185.7730  174.6750  136.8570 O   0  0  0  0  0  0  0  0  0  0  0  0
  1  5  1  6  0  0  0
  1 18  1  0  0  0  0
  2 12  1  0  0  0  0
  2 14  1  6  0  0  0
  3 15  1  0  0  0  0
  4 19  1  0  0  0  0
  4  1  1  0  0  0  0
  7  4  1  0  0  0  0
  7 10  1  0  0  0  0
  8 10  1  0  0  0  0
  9  3  1  0  0  0  0
 10  5  1  0  0  0  0
 11 25  1  0  0  0  0
 11 17  1  0  0  0  0
 12 23  1  0  0  0  0
 13 17  1  0  0  0  0
 15 16  1  0  0  0  0
 16 23  1  0  0  0  0
 17  6  1  0  0  0  0
 17  8  1  0  0  0  0
 18  2  1  0  0  0  0
 19 24  1  0  0  0  0
 20  9  1  0  0  0  0
 21  9  1  0  0  0  0
 21 19  1  0  0  0  0
 22 25  1  0  0  0  0
 24 15  1  0  0  0  0
 24 18  1  0  0  0  0
 25  7  1  0  0  0  0
 26 21  1  0  0  0  0
 26 27  1  0  0  0  0
 28 26  1  0  0  0  0
 29 28  1  0  0  0  0
 29 30  2  0  0  0  0
M  END
>  <MODEL>
7

>  <REMARK>
 VINA RESULT:      -4.4      5.793      8.748
  Name = 
  3 active torsions:
  status: ('A' for Active; 'I' for Inactive)
    1  A    between atoms: C_7  and  C_10
    2  A    between atoms: C_7  and  N_16
    3  A    between atoms: C_10  and  C_25
                            x       y       z     vdW  Elec       q    Type
                         _______ _______ _______ _____ _____    ______ ____

>  <TORSDO>
F 3

$$$$
=
 OpenBabel11052412353D

 30 34  0  0  1  0  0  0  0  0999 V2000
  183.4260  178.7910  139.7590 C   0  0  2  0  0  3  0  0  0  0  0  0
  185.5000  177.7940  138.4290 C   0  0  1  0  0  3  0  0  0  0  0  0
  182.0060  175.2930  136.7460 C   0  0  0  0  0  2  0  0  0  0  0  0
  181.9360  178.4360  139.7980 C   0  0  1  0  0  3  0  0  0  0  0  0
  183.6190  179.9810  139.0130 O   0  0  0  0  0  0  0  0  0  0  0  0
  180.8070  181.6480  136.3320 C   0  0  0  0  0  1  0  0  0  0  0  0
  181.3330  179.7820  139.4840 C   0  0  1  0  0  3  0  0  0  0  0  0
  182.1860  181.8550  138.4230 C   0  0  0  0  0  2  0  0  0  0  0  0
  180.6230  175.8760  137.1120 C   0  0  1  0  0  3  0  0  0  0  0  0
  182.3500  180.3510  138.5430 C   0  0  1  0  0  3  0  0  0  0  0  0
  179.4190  181.5780  138.7070 S   0  0  0  0  0  0  0  0  0  0  0  0
  185.3740  178.1340  136.9530 C   0  0  0  0  0  2  0  0  0  0  0  0
  180.7560  183.5920  137.6710 O   0  0  0  0  0  1  0  0  0  0  0  0
  186.2490  178.7710  139.0870 O   0  0  0  0  0  1  0  0  0  0  0  0
  183.1240  176.3160  136.9980 C   0  0  2  0  0  3  0  0  0  0  0  0
  184.4770  175.7530  136.6020 C   0  0  0  0  0  2  0  0  0  0  0  0
  180.8550  182.2050  137.7460 C   0  0  2  0  0  0  0  0  0  0  0  0
  184.1350  177.5950  139.1100 C   0  0  2  0  0  3  0  0  0  0  0  0
  181.7860  177.4440  138.6490 C   0  0  2  0  0  3  0  0  0  0  0  0
  179.6310  174.9060  136.9610 O   0  0  0  0  0  1  0  0  0  0  0  0
  180.5660  176.5240  138.5170 C   0  0  2  0  0  3  0  0  0  0  0  0
  178.9350  179.1190  139.7410 C   0  0  0  0  0  1  0  0  0  0  0  0
  185.4000  176.8650  136.0950 C   0  0  0  0  0  2  0  0  0  0  0  0
  183.0760  176.6910  138.4790 C   0  0  1  0  0  3  0  0  0  0  0  0
  179.9420  179.8290  138.8560 C   0  0  2  0  0  3  0  0  0  0  0  0
  180.3910  175.4940  139.6500 C   0  0  1  0  0  3  0  0  0  0  0  0
  181.4210  175.5740  140.5910 O   0  0  0  0  0  1  0  0  0  0  0  0
  179.0350  175.6310  140.3280 C   0  0  0  0  0  2  0  0  0  0  0  0
  178.9970  174.8710  141.5500 N   0  0  0  0  0  0  0  0  0  0  0  0
  179.0780  173.6800  141.5240 O   0  0  0  0  0  0  0  0  0  0  0  0
  1  5  1  6  0  0  0
  1  4  1  0  0  0  0
  2 14  1  1  0  0  0
  2 18  1  0  0  0  0
  3 15  1  0  0  0  0
  3  9  1  0  0  0  0
  6 17  1  0  0  0  0
  7  4  1  0  0  0  0
  8 10  1  0  0  0  0
  9 21  1  0  0  0  0
 10  5  1  0  0  0  0
 10  7  1  0  0  0  0
 11 25  1  0  0  0  0
 12  2  1  0  0  0  0
 13 17  1  0  0  0  0
 15 24  1  0  0  0  0
 16 15  1  0  0  0  0
 17  8  1  0  0  0  0
 17 11  1  0  0  0  0
 18  1  1  0  0  0  0
 19  4  1  0  0  0  0
 20  9  1  0  0  0  0
 21 19  1  0  0  0  0
 21 26  1  0  0  0  0
 23 16  1  0  0  0  0
 23 12  1  0  0  0  0
 24 19  1  0  0  0  0
 24 18  1  0  0  0  0
 25  7  1  0  0  0  0
 25 22  1  0  0  0  0
 26 28  1  0  0  0  0
 26 27  1  0  0  0  0
 28 29  1  0  0  0  0
 30 29  2  0  0  0  0
M  END
>  <MODEL>
8

>  <REMARK>
 VINA RESULT:      -4.3      6.347      9.575
  Name = 
  3 active torsions:
  status: ('A' for Active; 'I' for Inactive)
    1  A    between atoms: C_7  and  C_10
    2  A    between atoms: C_7  and  N_16
    3  A    between atoms: C_10  and  C_25
                            x       y       z     vdW  Elec       q    Type
                         _______ _______ _______ _____ _____    ______ ____

>  <TORSDO>
F 3

$$$$
=
 OpenBabel11052412353D

 30 34  0  0  1  0  0  0  0  0999 V2000
  186.4500  177.6790  136.5890 C   0  0  2  0  0  3  0  0  0  0  0  0
  188.0970  178.5760  138.4730 C   0  0  1  0  0  3  0  0  0  0  0  0
  184.0830  178.3840  140.7400 C   0  0  0  0  0  2  0  0  0  0  0  0
  184.9410  177.4170  136.5540 C   0  0  1  0  0  3  0  0  0  0  0  0
  187.1510  176.4490  136.6700 O   0  0  0  0  0  0  0  0  0  0  0  0
  185.4490  172.7570  137.8310 C   0  0  0  0  0  1  0  0  0  0  0  0
  184.9300  175.9820  136.0910 C   0  0  1  0  0  3  0  0  0  0  0  0
  186.6040  174.1520  136.0880 C   0  0  0  0  0  2  0  0  0  0  0  0
  183.0000  177.5910  139.9740 C   0  0  1  0  0  3  0  0  0  0  0  0
  186.1690  175.4500  136.7440 C   0  0  1  0  0  3  0  0  0  0  0  0
  183.9290  173.4720  135.6510 S   0  0  0  0  0  0  0  0  0  0  0  0
  188.2460  177.5280  139.5630 C   0  0  0  0  0  2  0  0  0  0  0  0
  186.0230  171.8830  135.7130 O   0  0  0  0  0  1  0  0  0  0  0  0
  189.0990  178.4190  137.5140 O   0  0  0  0  0  1  0  0  0  0  0  0
  185.4790  178.1290  140.1520 C   0  0  2  0  0  3  0  0  0  0  0  0
  186.5430  178.8790  140.9300 C   0  0  0  0  0  2  0  0  0  0  0  0
  185.5770  173.0430  136.3420 C   0  0  2  0  0  0  0  0  0  0  0  0
  186.7030  178.5580  137.8200 C   0  0  2  0  0  3  0  0  0  0  0  0
  184.5280  177.5650  138.0140 C   0  0  2  0  0  3  0  0  0  0  0  0
  181.7310  177.9040  140.4630 O   0  0  0  0  0  1  0  0  0  0  0  0
  183.0670  177.7620  138.4360 C   0  0  2  0  0  3  0  0  0  0  0  0
  182.4480  175.7290  135.9110 C   0  0  0  0  0  1  0  0  0  0  0  0
  187.8630  178.1030  140.9310 C   0  0  0  0  0  2  0  0  0  0  0  0
  185.4420  178.5540  138.6840 C   0  0  1  0  0  3  0  0  0  0  0  0
  183.7270  175.1110  136.4450 C   0  0  2  0  0  3  0  0  0  0  0  0
  182.4090  179.0660  137.9440 C   0  0  1  0  0  3  0  0  0  0  0  0
  181.1110  178.8500  137.4720 O   0  0  0  0  0  1  0  0  0  0  0  0
  182.4120  180.1370  139.0260 C   0  0  0  0  0  2  0  0  0  0  0  0
  181.4690  181.1790  138.7150 N   0  0  0  0  0  0  0  0  0  0  0  0
  181.8490  182.2610  138.3830 O   0  0  0  0  0  0  0  0  0  0  0  0
  1  5  1  1  0  0  0
  1 18  1  0  0  0  0
  2 14  1  6  0  0  0
  2 12  1  0  0  0  0
  4  1  1  0  0  0  0
  4 19  1  0  0  0  0
  5 10  1  0  0  0  0
  7 25  1  0  0  0  0
  7  4  1  0  0  0  0
  7 10  1  0  0  0  0
  8 17  1  0  0  0  0
  8 10  1  0  0  0  0
  9 20  1  0  0  0  0
  9  3  1  0  0  0  0
 11 17  1  0  0  0  0
 11 25  1  0  0  0  0
 12 23  1  0  0  0  0
 13 17  1  0  0  0  0
 15  3  1  0  0  0  0
 15 16  1  0  0  0  0
 16 23  1  0  0  0  0
 17  6  1  0  0  0  0
 18  2  1  0  0  0  0
 18 24  1  0  0  0  0
 19 21  1  0  0  0  0
 19 24  1  0  0  0  0
 21  9  1  0  0  0  0
 22 25  1  0  0  0  0
 24 15  1  0  0  0  0
 26 21  1  0  0  0  0
 26 28  1  0  0  0  0
 27 26  1  0  0  0  0
 29 28  1  0  0  0  0
 30 29  2  0  0  0  0
M  END
>  <MODEL>
9

>  <REMARK>
 VINA RESULT:      -4.2      4.545      8.119
  Name = 
  3 active torsions:
  status: ('A' for Active; 'I' for Inactive)
    1  A    between atoms: C_7  and  C_10
    2  A    between atoms: C_7  and  N_16
    3  A    between atoms: C_10  and  C_25
                            x       y       z     vdW  Elec       q    Type
                         _______ _______ _______ _____ _____    ______ ____

>  <TORSDO>
F 3

$$$$
