=
 OpenBabel11052416023D

 34 37  0  0  1  0  0  0  0  0999 V2000
  188.9150  177.0540  142.9320 O   0  0  0  0  0  0  0  0  0  0  0  0
  190.1780  178.8980  143.9580 C   0  0  1  0  0  3  0  0  0  0  0  0
  191.7940  176.6650  145.1560 C   0  0  0  0  0  2  0  0  0  0  0  0
  191.3130  176.9980  142.7320 C   0  0  0  0  0  0  0  0  0  0  0  0
  190.0870  177.8610  142.8250 C   0  0  1  0  0  3  0  0  0  0  0  0
  189.8880  178.3840  145.3750 C   0  0  0  0  0  2  0  0  0  0  0  0
  192.0540  177.1290  141.7710 O   0  0  0  0  0  0  0  0  0  0  0  0
  192.8020  175.3100  143.4950 F   0  0  0  0  0  0  0  0  0  0  0  0
  190.4180  176.9880  145.7260 C   0  0  2  0  0  3  0  0  0  0  0  0
  191.6370  175.9920  143.8020 C   0  0  1  0  0  3  0  0  0  0  0  0
  191.3970  179.5800  143.9230 O   0  0  0  0  0  1  0  0  0  0  0  0
  190.3670  176.7530  147.2080 C   0  0  0  0  0  0  0  0  0  0  0  0
  191.2340  175.8860  147.7220 C   0  0  0  0  0  2  0  0  0  0  0  0
  189.4270  177.4250  148.0730 N   0  0  0  0  0  0  0  0  0  0  0  0
  189.8370  178.5040  148.7840 O   0  0  0  0  0  1  0  0  0  0  0  0
  187.1840  178.2520  147.6710 C   0  0  0  0  0  2  0  0  0  0  0  0
  187.3360  177.8920  149.0190 O   0  0  0  0  0  0  0  0  0  0  0  0
  188.0050  177.0860  148.0780 C   0  0  2  0  0  3  0  0  0  0  0  0
  185.8290  178.8460  141.9080 C   0  0  0  0  0  0  0  0  0  0  0  0
  185.3720  179.5780  140.8150 O   0  0  0  0  0  1  0  0  0  0  0  0
  184.9950  178.6220  143.0260 C   0  0  0  0  0  0  0  0  0  0  0  0
  185.4900  177.8770  144.1030 C   0  0  0  0  0  3  0  0  0  0  0  0
  187.1390  178.3300  141.8900 C   0  0  0  0  0  0  0  0  0  0  0  0
  186.7840  177.3580  144.0790 C   0  0  0  0  0  3  0  0  0  0  0  0
  187.6150  177.5750  142.9730 C   0  0  0  0  0  0  0  0  0  0  0  0
  183.6130  179.1530  143.1070 C   0  0  0  0  0  0  0  0  0  0  0  0
  183.3000  180.0200  143.9650 O   0  0  0  0  0  0  0  0  0  0  0  0
  182.6110  178.6830  142.2090 N   0  0  0  0  0  1  0  0  0  0  0  0
  188.0260  178.5790  140.7120 C   0  0  0  0  0  2  0  0  0  0  0  0
  187.9320  177.5140  139.8130 O   0  0  0  0  0  0  0  0  0  0  0  0
  189.2660  176.2920  138.3390 N   0  0  0  0  0  0  0  0  0  0  0  0
  189.5230  177.7210  138.1160 C   0  0  0  0  0  2  0  0  0  0  0  0
  189.2540  177.2350  139.4650 C   0  0  1  0  0  3  0  0  0  0  0  0
  190.4730  175.6790  138.3620 O   0  0  0  0  0  1  0  0  0  0  0  0
  1 25  1  0  0  0  0
  2 11  1  1  0  0  0
  2  6  1  0  0  0  0
  3  9  1  0  0  0  0
  4  5  1  0  0  0  0
  4 10  1  0  0  0  0
  5  1  1  1  0  0  0
  5  2  1  0  0  0  0
  6  9  1  0  0  0  0
  7  4  2  0  0  0  0
  9 12  1  1  0  0  0
 10  8  1  6  0  0  0
 10  3  1  0  0  0  0
 12 13  2  0  0  0  0
 12 14  1  0  0  0  0
 14 15  1  0  0  0  0
 16 18  1  0  0  0  0
 16 17  1  0  0  0  0
 18 14  1  1  0  0  0
 18 17  1  0  0  0  0
 19 21  1  0  0  0  0
 20 19  1  0  0  0  0
 21 26  1  0  0  0  0
 21 22  2  0  0  0  0
 23 19  2  0  0  0  0
 23 25  1  0  0  0  0
 24 22  1  0  0  0  0
 25 24  2  0  0  0  0
 26 27  2  0  0  0  0
 28 26  1  0  0  0  0
 29 23  1  0  0  0  0
 30 29  1  0  0  0  0
 31 34  1  0  0  0  0
 31 33  1  0  0  0  0
 32 31  1  0  0  0  0
 32 33  1  0  0  0  0
 33 30  1  6  0  0  0
M  END
>  <MODEL>
1

>  <REMARK>
 VINA RESULT:      -7.9      0.000      0.000
  Name = 
  9 active torsions:
  status: ('A' for Active; 'I' for Inactive)
    1  A    between atoms: O_1  and  C_9
    2  A    between atoms: O_1  and  C_34
    3  A    between atoms: C_3  and  C_25
    4  A    between atoms: C_5  and  O_22
    5  A    between atoms: C_5  and  C_32
    6  A    between atoms: N_11  and  C_21
    7  A    between atoms: N_11  and  C_26
    8  A    between atoms: C_19  and  O_22
    9  A    between atoms: C_26  and  C_28
                            x       y       z     vdW  Elec       q    Type
                         _______ _______ _______ _____ _____    ______ ____

>  <TORSDO>
F 9

$$$$
=
 OpenBabel11052416023D

 34 37  0  0  1  0  0  0  0  0999 V2000
  189.4460  177.7480  142.1610 O   0  0  0  0  0  0  0  0  0  0  0  0
  190.7280  179.1390  143.7310 C   0  0  1  0  0  3  0  0  0  0  0  0
  191.0600  176.5480  145.2160 C   0  0  0  0  0  2  0  0  0  0  0  0
  191.6200  176.9540  142.8210 C   0  0  0  0  0  0  0  0  0  0  0  0
  190.7570  178.1540  142.5500 C   0  0  1  0  0  3  0  0  0  0  0  0
  189.8030  178.7740  144.8990 C   0  0  0  0  0  2  0  0  0  0  0  0
  192.6640  176.8270  142.2010 O   0  0  0  0  0  0  0  0  0  0  0  0
  192.1590  174.9090  143.9060 F   0  0  0  0  0  0  0  0  0  0  0  0
  189.7320  177.2920  145.2880 C   0  0  2  0  0  3  0  0  0  0  0  0
  191.2190  175.9230  143.8400 C   0  0  1  0  0  3  0  0  0  0  0  0
  192.0180  179.4140  144.1930 O   0  0  0  0  0  1  0  0  0  0  0  0
  189.0750  177.1200  146.6260 C   0  0  0  0  0  0  0  0  0  0  0  0
  189.7830  176.5300  147.5850 C   0  0  0  0  0  2  0  0  0  0  0  0
  187.7300  177.5660  146.9000 N   0  0  0  0  0  0  0  0  0  0  0  0
  187.4950  178.3200  148.0020 O   0  0  0  0  0  1  0  0  0  0  0  0
  186.1470  178.6840  145.4440 C   0  0  0  0  0  2  0  0  0  0  0  0
  185.4690  177.9660  146.4430 O   0  0  0  0  0  0  0  0  0  0  0  0
  186.6450  177.3780  145.9390 C   0  0  2  0  0  3  0  0  0  0  0  0
  187.4490  178.0660  139.0470 C   0  0  0  0  0  0  0  0  0  0  0  0
  186.2740  178.6860  138.6300 O   0  0  0  0  0  1  0  0  0  0  0  0
  188.2250  177.3090  138.1410 C   0  0  0  0  0  0  0  0  0  0  0  0
  189.4030  176.7040  138.5980 C   0  0  0  0  0  3  0  0  0  0  0  0
  187.8560  178.1960  140.3880 C   0  0  0  0  0  0  0  0  0  0  0  0
  189.8100  176.8440  139.9240 C   0  0  0  0  0  3  0  0  0  0  0  0
  189.0460  177.5940  140.8260 C   0  0  0  0  0  0  0  0  0  0  0  0
  187.8380  177.1240  136.7220 C   0  0  0  0  0  0  0  0  0  0  0  0
  186.9460  176.2980  136.3950 O   0  0  0  0  0  0  0  0  0  0  0  0
  188.4780  177.8840  135.7000 N   0  0  0  0  0  1  0  0  0  0  0  0
  187.0270  178.9860  141.3500 C   0  0  0  0  0  2  0  0  0  0  0  0
  186.0150  178.1810  141.8780 O   0  0  0  0  0  0  0  0  0  0  0  0
  183.7530  178.0410  141.3200 N   0  0  0  0  0  0  0  0  0  0  0  0
  183.8570  178.5290  142.7010 C   0  0  0  0  0  2  0  0  0  0  0  0
  184.8510  178.9340  141.7140 C   0  0  1  0  0  3  0  0  0  0  0  0
  182.8290  178.8150  140.7030 O   0  0  0  0  0  1  0  0  0  0  0  0
  2 11  1  1  0  0  0
  2  6  1  0  0  0  0
  3  9  1  0  0  0  0
  4 10  1  0  0  0  0
  5  1  1  1  0  0  0
  5  4  1  0  0  0  0
  5  2  1  0  0  0  0
  6  9  1  0  0  0  0
  7  4  2  0  0  0  0
  9 12  1  1  0  0  0
 10  8  1  1  0  0  0
 10  3  1  0  0  0  0
 12 14  1  0  0  0  0
 12 13  2  0  0  0  0
 14 15  1  0  0  0  0
 16 18  1  0  0  0  0
 16 17  1  0  0  0  0
 18 17  1  0  0  0  0
 18 14  1  1  0  0  0
 19 23  1  0  0  0  0
 20 19  1  0  0  0  0
 21 22  1  0  0  0  0
 21 19  2  0  0  0  0
 22 24  2  0  0  0  0
 23 25  2  0  0  0  0
 23 29  1  0  0  0  0
 24 25  1  0  0  0  0
 25  1  1  0  0  0  0
 26 21  1  0  0  0  0
 27 26  2  0  0  0  0
 28 26  1  0  0  0  0
 29 30  1  0  0  0  0
 31 33  1  0  0  0  0
 31 32  1  0  0  0  0
 33 30  1  1  0  0  0
 33 32  1  0  0  0  0
 34 31  1  0  0  0  0
M  END
>  <MODEL>
2

>  <REMARK>
 VINA RESULT:      -7.8      1.682      4.246
  Name = 
  9 active torsions:
  status: ('A' for Active; 'I' for Inactive)
    1  A    between atoms: O_1  and  C_9
    2  A    between atoms: O_1  and  C_34
    3  A    between atoms: C_3  and  C_25
    4  A    between atoms: C_5  and  O_22
    5  A    between atoms: C_5  and  C_32
    6  A    between atoms: N_11  and  C_21
    7  A    between atoms: N_11  and  C_26
    8  A    between atoms: C_19  and  O_22
    9  A    between atoms: C_26  and  C_28
                            x       y       z     vdW  Elec       q    Type
                         _______ _______ _______ _____ _____    ______ ____

>  <TORSDO>
F 9

$$$$
=
 OpenBabel11052416023D

 34 37  0  0  1  0  0  0  0  0999 V2000
  184.9020  178.1560  141.1730 O   0  0  0  0  0  0  0  0  0  0  0  0
  184.0820  179.4880  139.2760 C   0  0  1  0  0  3  0  0  0  0  0  0
  183.0420  176.8380  138.3120 C   0  0  0  0  0  2  0  0  0  0  0  0
  182.5990  177.8730  140.5370 C   0  0  0  0  0  0  0  0  0  0  0  0
  183.7640  178.8170  140.6240 C   0  0  1  0  0  3  0  0  0  0  0  0
  184.8760  178.6460  138.2680 C   0  0  0  0  0  2  0  0  0  0  0  0
  181.5550  178.1710  141.0970 O   0  0  0  0  0  0  0  0  0  0  0  0
  181.5110  175.8770  139.8420 F   0  0  0  0  0  0  0  0  0  0  0  0
  184.5270  177.1560  138.1850 C   0  0  2  0  0  3  0  0  0  0  0  0
  182.6990  176.5830  139.7710 C   0  0  1  0  0  3  0  0  0  0  0  0
  182.9270  180.0050  138.6820 O   0  0  0  0  0  1  0  0  0  0  0  0
  185.1200  176.5340  136.9540 C   0  0  0  0  0  0  0  0  0  0  0  0
  184.7300  177.0130  135.7770 C   0  0  0  0  0  2  0  0  0  0  0  0
  186.0800  175.4580  137.0070 N   0  0  0  0  0  0  0  0  0  0  0  0
  187.2990  175.6870  137.5550 O   0  0  0  0  0  1  0  0  0  0  0  0
  184.8400  173.4860  137.6760 C   0  0  0  0  0  2  0  0  0  0  0  0
  186.2140  173.2040  137.6280 O   0  0  0  0  0  0  0  0  0  0  0  0
  185.7230  174.0870  136.6480 C   0  0  2  0  0  3  0  0  0  0  0  0
  186.9580  178.0050  144.2610 C   0  0  0  0  0  0  0  0  0  0  0  0
  188.2750  177.7230  144.6150 O   0  0  0  0  0  1  0  0  0  0  0  0
  186.0080  178.3630  145.2440 C   0  0  0  0  0  0  0  0  0  0  0  0
  184.6950  178.6440  144.8470 C   0  0  0  0  0  3  0  0  0  0  0  0
  186.5770  177.9260  142.9080 C   0  0  0  0  0  0  0  0  0  0  0  0
  184.3230  178.5760  143.5050 C   0  0  0  0  0  3  0  0  0  0  0  0
  185.2600  178.2230  142.5260 C   0  0  0  0  0  0  0  0  0  0  0  0
  186.3470  178.4480  146.6850 C   0  0  0  0  0  0  0  0  0  0  0  0
  187.0810  177.5830  147.2310 O   0  0  0  0  0  0  0  0  0  0  0  0
  185.8380  179.5170  147.4780 N   0  0  0  0  0  1  0  0  0  0  0  0
  187.5800  177.5340  141.8700 C   0  0  0  0  0  2  0  0  0  0  0  0
  187.9920  178.6620  141.1570 O   0  0  0  0  0  0  0  0  0  0  0  0
  188.9440  179.1280  139.0780 N   0  0  0  0  0  0  0  0  0  0  0  0
  189.4210  177.8110  139.5170 C   0  0  0  0  0  2  0  0  0  0  0  0
  188.0600  178.2290  139.8320 C   0  0  1  0  0  3  0  0  0  0  0  0
  188.6010  179.0020  137.7740 O   0  0  0  0  0  1  0  0  0  0  0  0
  1 25  1  0  0  0  0
  2 11  1  6  0  0  0
  2  5  1  0  0  0  0
  3 10  1  0  0  0  0
  4  5  1  0  0  0  0
  4  7  2  0  0  0  0
  5  1  1  6  0  0  0
  6  2  1  0  0  0  0
  9 12  1  6  0  0  0
  9  6  1  0  0  0  0
  9  3  1  0  0  0  0
 10  8  1  6  0  0  0
 10  4  1  0  0  0  0
 12 14  1  0  0  0  0
 13 12  2  0  0  0  0
 14 15  1  0  0  0  0
 17 16  1  0  0  0  0
 18 14  1  1  0  0  0
 18 17  1  0  0  0  0
 18 16  1  0  0  0  0
 19 20  1  0  0  0  0
 19 21  1  0  0  0  0
 21 26  1  0  0  0  0
 22 21  2  0  0  0  0
 23 19  2  0  0  0  0
 24 22  1  0  0  0  0
 25 23  1  0  0  0  0
 25 24  2  0  0  0  0
 26 27  2  0  0  0  0
 26 28  1  0  0  0  0
 29 23  1  0  0  0  0
 30 29  1  0  0  0  0
 31 32  1  0  0  0  0
 31 33  1  0  0  0  0
 32 33  1  0  0  0  0
 33 30  1  1  0  0  0
 34 31  1  0  0  0  0
M  END
>  <MODEL>
3

>  <REMARK>
 VINA RESULT:      -7.6      3.788      7.954
  Name = 
  9 active torsions:
  status: ('A' for Active; 'I' for Inactive)
    1  A    between atoms: O_1  and  C_9
    2  A    between atoms: O_1  and  C_34
    3  A    between atoms: C_3  and  C_25
    4  A    between atoms: C_5  and  O_22
    5  A    between atoms: C_5  and  C_32
    6  A    between atoms: N_11  and  C_21
    7  A    between atoms: N_11  and  C_26
    8  A    between atoms: C_19  and  O_22
    9  A    between atoms: C_26  and  C_28
                            x       y       z     vdW  Elec       q    Type
                         _______ _______ _______ _____ _____    ______ ____

>  <TORSDO>
F 9

$$$$
=
 OpenBabel11052416023D

 34 37  0  0  1  0  0  0  0  0999 V2000
  187.8650  177.8140  140.3270 O   0  0  0  0  0  0  0  0  0  0  0  0
  189.0660  178.9860  138.5300 C   0  0  1  0  0  3  0  0  0  0  0  0
  188.7360  176.3750  137.0790 C   0  0  0  0  0  2  0  0  0  0  0  0
  186.9140  177.7220  138.1190 C   0  0  0  0  0  0  0  0  0  0  0  0
  187.7130  178.5290  139.1020 C   0  0  1  0  0  3  0  0  0  0  0  0
  190.1890  177.9400  138.5200 C   0  0  0  0  0  2  0  0  0  0  0  0
  185.8960  178.2060  137.6480 O   0  0  0  0  0  0  0  0  0  0  0  0
  186.4570  175.7940  136.8060 F   0  0  0  0  0  0  0  0  0  0  0  0
  189.7900  176.5010  138.1730 C   0  0  2  0  0  3  0  0  0  0  0  0
  187.3520  176.3440  137.7070 C   0  0  1  0  0  3  0  0  0  0  0  0
  188.9140  179.5550  137.2630 O   0  0  0  0  0  1  0  0  0  0  0  0
  191.0010  175.6670  137.8710 C   0  0  0  0  0  0  0  0  0  0  0  0
  190.8160  174.3650  137.6750 C   0  0  0  0  0  2  0  0  0  0  0  0
  192.3300  176.2230  137.7860 N   0  0  0  0  0  0  0  0  0  0  0  0
  192.9750  176.5700  138.9270 O   0  0  0  0  0  1  0  0  0  0  0  0
  194.2680  175.3930  136.5910 C   0  0  0  0  0  2  0  0  0  0  0  0
  194.3580  176.7840  136.7580 O   0  0  0  0  0  0  0  0  0  0  0  0
  193.0700  176.2630  136.5270 C   0  0  2  0  0  3  0  0  0  0  0  0
  186.7000  177.7120  143.8510 C   0  0  0  0  0  0  0  0  0  0  0  0
  187.0770  177.1090  145.0490 O   0  0  0  0  0  1  0  0  0  0  0  0
  185.5780  178.5690  143.7970 C   0  0  0  0  0  0  0  0  0  0  0  0
  185.2340  179.1590  142.5750 C   0  0  0  0  0  3  0  0  0  0  0  0
  187.4490  177.4560  142.6870 C   0  0  0  0  0  0  0  0  0  0  0  0
  185.9840  178.9130  141.4250 C   0  0  0  0  0  3  0  0  0  0  0  0
  187.0980  178.0660  141.4730 C   0  0  0  0  0  0  0  0  0  0  0  0
  184.7430  178.8630  144.9860 C   0  0  0  0  0  0  0  0  0  0  0  0
  183.4920  178.7190  144.9530 O   0  0  0  0  0  0  0  0  0  0  0  0
  185.3490  179.3190  146.1920 N   0  0  0  0  0  1  0  0  0  0  0  0
  188.6290  176.5390  142.7430 C   0  0  0  0  0  2  0  0  0  0  0  0
  189.8100  177.2770  142.6320 O   0  0  0  0  0  0  0  0  0  0  0  0
  191.6160  176.8280  144.0420 N   0  0  0  0  0  0  0  0  0  0  0  0
  191.4270  178.2830  143.9850 C   0  0  0  0  0  2  0  0  0  0  0  0
  190.2660  177.4010  143.9450 C   0  0  1  0  0  3  0  0  0  0  0  0
  191.8080  176.5120  145.3440 O   0  0  0  0  0  1  0  0  0  0  0  0
  1 25  1  0  0  0  0
  2 11  1  6  0  0  0
  2  5  1  0  0  0  0
  3 10  1  0  0  0  0
  3  9  1  0  0  0  0
  4  5  1  0  0  0  0
  5  1  1  1  0  0  0
  6  2  1  0  0  0  0
  7  4  2  0  0  0  0
  9 12  1  6  0  0  0
  9  6  1  0  0  0  0
 10  8  1  6  0  0  0
 10  4  1  0  0  0  0
 13 12  2  0  0  0  0
 14 12  1  0  0  0  0
 14 15  1  0  0  0  0
 16 17  1  0  0  0  0
 18 16  1  0  0  0  0
 18 17  1  0  0  0  0
 18 14  1  1  0  0  0
 19 20  1  0  0  0  0
 21 19  1  0  0  0  0
 21 26  1  0  0  0  0
 22 21  2  0  0  0  0
 23 29  1  0  0  0  0
 23 19  2  0  0  0  0
 24 25  2  0  0  0  0
 24 22  1  0  0  0  0
 25 23  1  0  0  0  0
 26 28  1  0  0  0  0
 27 26  2  0  0  0  0
 30 29  1  0  0  0  0
 31 34  1  0  0  0  0
 32 31  1  0  0  0  0
 33 30  1  6  0  0  0
 33 32  1  0  0  0  0
 33 31  1  0  0  0  0
M  END
>  <MODEL>
4

>  <REMARK>
 VINA RESULT:      -7.2      3.028      7.155
  Name = 
  9 active torsions:
  status: ('A' for Active; 'I' for Inactive)
    1  A    between atoms: O_1  and  C_9
    2  A    between atoms: O_1  and  C_34
    3  A    between atoms: C_3  and  C_25
    4  A    between atoms: C_5  and  O_22
    5  A    between atoms: C_5  and  C_32
    6  A    between atoms: N_11  and  C_21
    7  A    between atoms: N_11  and  C_26
    8  A    between atoms: C_19  and  O_22
    9  A    between atoms: C_26  and  C_28
                            x       y       z     vdW  Elec       q    Type
                         _______ _______ _______ _____ _____    ______ ____

>  <TORSDO>
F 9

$$$$
=
 OpenBabel11052416023D

 34 37  0  0  1  0  0  0  0  0999 V2000
  188.0470  178.1080  142.9270 O   0  0  0  0  0  0  0  0  0  0  0  0
  190.2220  179.0070  143.6410 C   0  0  1  0  0  3  0  0  0  0  0  0
  190.6710  176.2000  144.6180 C   0  0  0  0  0  2  0  0  0  0  0  0
  190.0140  176.8680  142.3070 C   0  0  0  0  0  0  0  0  0  0  0  0
  189.4270  178.2230  142.5830 C   0  0  1  0  0  3  0  0  0  0  0  0
  189.9620  178.6280  145.1060 C   0  0  0  0  0  2  0  0  0  0  0  0
  190.5410  176.6630  141.2250 O   0  0  0  0  0  0  0  0  0  0  0  0
  190.5560  174.6200  142.8580 F   0  0  0  0  0  0  0  0  0  0  0  0
  189.7680  177.1380  145.4110 C   0  0  2  0  0  3  0  0  0  0  0  0
  189.9660  175.7750  143.3400 C   0  0  1  0  0  3  0  0  0  0  0  0
  191.5910  178.9860  143.3650 O   0  0  0  0  0  1  0  0  0  0  0  0
  189.8610  176.8770  146.8860 C   0  0  0  0  0  0  0  0  0  0  0  0
  188.7220  176.7500  147.5600 C   0  0  0  0  0  2  0  0  0  0  0  0
  191.1210  176.7600  147.5800 N   0  0  0  0  0  0  0  0  0  0  0  0
  191.6770  177.8680  148.1310 O   0  0  0  0  0  1  0  0  0  0  0  0
  193.1190  175.6260  148.3530 C   0  0  0  0  0  2  0  0  0  0  0  0
  192.8480  175.2810  147.0190 O   0  0  0  0  0  0  0  0  0  0  0  0
  191.7310  175.4620  147.8580 C   0  0  2  0  0  3  0  0  0  0  0  0
  184.6090  178.4610  141.5710 C   0  0  0  0  0  0  0  0  0  0  0  0
  183.3000  178.3790  142.0360 O   0  0  0  0  0  1  0  0  0  0  0  0
  184.8750  178.7690  140.2180 C   0  0  0  0  0  0  0  0  0  0  0  0
  186.2070  178.8470  139.7900 C   0  0  0  0  0  3  0  0  0  0  0  0
  185.6720  178.2300  142.4640 C   0  0  0  0  0  0  0  0  0  0  0  0
  187.2580  178.6280  140.6790 C   0  0  0  0  0  3  0  0  0  0  0  0
  187.0000  178.3250  142.0210 C   0  0  0  0  0  0  0  0  0  0  0  0
  183.7980  179.0080  139.2280 C   0  0  0  0  0  0  0  0  0  0  0  0
  183.2580  178.0510  138.6130 O   0  0  0  0  0  0  0  0  0  0  0  0
  183.3560  180.3350  138.9560 N   0  0  0  0  0  1  0  0  0  0  0  0
  185.3890  177.8910  143.8930 C   0  0  0  0  0  2  0  0  0  0  0  0
  185.4560  179.0450  144.6780 O   0  0  0  0  0  0  0  0  0  0  0  0
  185.6740  179.5580  146.9430 N   0  0  0  0  0  0  0  0  0  0  0  0
  184.9910  178.2640  146.8290 C   0  0  0  0  0  2  0  0  0  0  0  0
  186.0350  178.6180  145.8740 C   0  0  1  0  0  3  0  0  0  0  0  0
  186.6110  179.4190  147.9110 O   0  0  0  0  0  1  0  0  0  0  0  0
  2 11  1  6  0  0  0
  2  6  1  0  0  0  0
  3  9  1  0  0  0  0
  4  5  1  0  0  0  0
  4 10  1  0  0  0  0
  5  1  1  1  0  0  0
  5  2  1  0  0  0  0
  6  9  1  0  0  0  0
  7  4  2  0  0  0  0
  9 12  1  1  0  0  0
 10  8  1  6  0  0  0
 10  3  1  0  0  0  0
 12 13  2  0  0  0  0
 12 14  1  0  0  0  0
 14 15  1  0  0  0  0
 17 18  1  0  0  0  0
 17 16  1  0  0  0  0
 18 14  1  6  0  0  0
 18 16  1  0  0  0  0
 19 20  1  0  0  0  0
 19 23  1  0  0  0  0
 21 19  2  0  0  0  0
 22 21  1  0  0  0  0
 22 24  2  0  0  0  0
 23 29  1  0  0  0  0
 24 25  1  0  0  0  0
 25 23  2  0  0  0  0
 25  1  1  0  0  0  0
 26 21  1  0  0  0  0
 27 26  2  0  0  0  0
 28 26  1  0  0  0  0
 29 30  1  0  0  0  0
 31 34  1  0  0  0  0
 32 31  1  0  0  0  0
 33 30  1  6  0  0  0
 33 32  1  0  0  0  0
 33 31  1  0  0  0  0
M  END
>  <MODEL>
5

>  <REMARK>
 VINA RESULT:      -7.1      2.196      4.435
  Name = 
  9 active torsions:
  status: ('A' for Active; 'I' for Inactive)
    1  A    between atoms: O_1  and  C_9
    2  A    between atoms: O_1  and  C_34
    3  A    between atoms: C_3  and  C_25
    4  A    between atoms: C_5  and  O_22
    5  A    between atoms: C_5  and  C_32
    6  A    between atoms: N_11  and  C_21
    7  A    between atoms: N_11  and  C_26
    8  A    between atoms: C_19  and  O_22
    9  A    between atoms: C_26  and  C_28
                            x       y       z     vdW  Elec       q    Type
                         _______ _______ _______ _____ _____    ______ ____

>  <TORSDO>
F 9

$$$$
=
 OpenBabel11052416023D

 34 37  0  0  1  0  0  0  0  0999 V2000
  188.7310  177.0970  140.0760 O   0  0  0  0  0  0  0  0  0  0  0  0
  190.2590  176.5290  138.2350 C   0  0  1  0  0  3  0  0  0  0  0  0
  187.7910  176.8500  136.5490 C   0  0  0  0  0  2  0  0  0  0  0  0
  188.7140  178.5300  138.1430 C   0  0  0  0  0  0  0  0  0  0  0  0
  189.5340  177.6320  139.0250 C   0  0  1  0  0  3  0  0  0  0  0  0
  189.4130  175.3130  137.8320 C   0  0  0  0  0  2  0  0  0  0  0  0
  189.0740  179.6860  137.9820 O   0  0  0  0  0  0  0  0  0  0  0  0
  186.8830  179.0310  136.7130 F   0  0  0  0  0  0  0  0  0  0  0  0
  187.9710  175.5900  137.3890 C   0  0  2  0  0  3  0  0  0  0  0  0
  187.4740  178.0260  137.4590 C   0  0  1  0  0  3  0  0  0  0  0  0
  190.9230  177.0550  137.1230 O   0  0  0  0  0  1  0  0  0  0  0  0
  187.3790  174.3880  136.7130 C   0  0  0  0  0  0  0  0  0  0  0  0
  188.1060  173.7910  135.7740 C   0  0  0  0  0  2  0  0  0  0  0  0
  186.0720  173.8710  137.0440 N   0  0  0  0  0  0  0  0  0  0  0  0
  185.9620  172.9200  138.0040 O   0  0  0  0  0  1  0  0  0  0  0  0
  184.2910  175.4670  137.4330 C   0  0  0  0  0  2  0  0  0  0  0  0
  183.7710  174.1650  137.3560 O   0  0  0  0  0  0  0  0  0  0  0  0
  184.8500  174.4600  136.5010 C   0  0  2  0  0  3  0  0  0  0  0  0
  188.7120  177.6680  143.7440 C   0  0  0  0  0  0  0  0  0  0  0  0
  187.9010  178.2880  144.6910 O   0  0  0  0  0  1  0  0  0  0  0  0
  189.9030  177.0130  144.1330 C   0  0  0  0  0  0  0  0  0  0  0  0
  190.6890  176.3970  143.1510 C   0  0  0  0  0  3  0  0  0  0  0  0
  188.3360  177.7020  142.3890 C   0  0  0  0  0  0  0  0  0  0  0  0
  190.3090  176.4230  141.8100 C   0  0  0  0  0  3  0  0  0  0  0  0
  189.1290  177.0690  141.4190 C   0  0  0  0  0  0  0  0  0  0  0  0
  190.3580  176.9580  145.5430 C   0  0  0  0  0  0  0  0  0  0  0  0
  189.5510  176.7040  146.4760 O   0  0  0  0  0  0  0  0  0  0  0  0
  191.7260  177.1950  145.8640 N   0  0  0  0  0  1  0  0  0  0  0  0
  187.0830  178.4070  141.9770 C   0  0  0  0  0  2  0  0  0  0  0  0
  185.9830  177.8380  142.6230 O   0  0  0  0  0  0  0  0  0  0  0  0
  183.8360  178.4110  143.3350 N   0  0  0  0  0  0  0  0  0  0  0  0
  184.7550  179.4870  143.7300 C   0  0  0  0  0  2  0  0  0  0  0  0
  184.9650  178.7800  142.4710 C   0  0  1  0  0  3  0  0  0  0  0  0
  182.7400  179.0090  142.8130 O   0  0  0  0  0  1  0  0  0  0  0  0
  1 25  1  0  0  0  0
  2 11  1  6  0  0  0
  2  5  1  0  0  0  0
  3  9  1  0  0  0  0
  3 10  1  0  0  0  0
  4  5  1  0  0  0  0
  5  1  1  1  0  0  0
  6  2  1  0  0  0  0
  7  4  2  0  0  0  0
  9 12  1  6  0  0  0
  9  6  1  0  0  0  0
 10  8  1  6  0  0  0
 10  4  1  0  0  0  0
 12 14  1  0  0  0  0
 13 12  2  0  0  0  0
 14 15  1  0  0  0  0
 17 16  1  0  0  0  0
 18 14  1  1  0  0  0
 18 17  1  0  0  0  0
 18 16  1  0  0  0  0
 19 21  1  0  0  0  0
 19 20  1  0  0  0  0
 21 26  1  0  0  0  0
 22 21  2  0  0  0  0
 23 19  2  0  0  0  0
 24 22  1  0  0  0  0
 25 24  2  0  0  0  0
 25 23  1  0  0  0  0
 26 28  1  0  0  0  0
 26 27  2  0  0  0  0
 29 23  1  0  0  0  0
 29 30  1  0  0  0  0
 31 32  1  0  0  0  0
 33 30  1  1  0  0  0
 33 31  1  0  0  0  0
 33 32  1  0  0  0  0
 34 31  1  0  0  0  0
M  END
>  <MODEL>
6

>  <REMARK>
 VINA RESULT:      -7.1      3.321      7.991
  Name = 
  9 active torsions:
  status: ('A' for Active; 'I' for Inactive)
    1  A    between atoms: O_1  and  C_9
    2  A    between atoms: O_1  and  C_34
    3  A    between atoms: C_3  and  C_25
    4  A    between atoms: C_5  and  O_22
    5  A    between atoms: C_5  and  C_32
    6  A    between atoms: N_11  and  C_21
    7  A    between atoms: N_11  and  C_26
    8  A    between atoms: C_19  and  O_22
    9  A    between atoms: C_26  and  C_28
                            x       y       z     vdW  Elec       q    Type
                         _______ _______ _______ _____ _____    ______ ____

>  <TORSDO>
F 9

$$$$
=
 OpenBabel11052416023D

 34 37  0  0  1  0  0  0  0  0999 V2000
  188.2930  177.1410  140.1010 O   0  0  0  0  0  0  0  0  0  0  0  0
  189.1560  178.6430  138.3570 C   0  0  1  0  0  3  0  0  0  0  0  0
  187.6410  176.8130  136.5160 C   0  0  0  0  0  2  0  0  0  0  0  0
  186.7140  178.0020  138.5020 C   0  0  0  0  0  0  0  0  0  0  0  0
  187.9800  178.2570  139.2700 C   0  0  1  0  0  3  0  0  0  0  0  0
  189.8620  177.4890  137.6320 C   0  0  0  0  0  2  0  0  0  0  0  0
  185.7880  178.7900  138.6140 O   0  0  0  0  0  0  0  0  0  0  0  0
  185.3260  176.7730  137.0150 F   0  0  0  0  0  0  0  0  0  0  0  0
  188.9730  176.3580  137.1020 C   0  0  2  0  0  3  0  0  0  0  0  0
  186.5780  176.8040  137.6030 C   0  0  1  0  0  3  0  0  0  0  0  0
  188.7870  179.6400  137.4490 O   0  0  0  0  0  1  0  0  0  0  0  0
  189.7280  175.4880  136.1410 C   0  0  0  0  0  0  0  0  0  0  0  0
  189.5170  175.6790  134.8430 C   0  0  0  0  0  2  0  0  0  0  0  0
  190.6580  174.4720  136.5730 N   0  0  0  0  0  0  0  0  0  0  0  0
  190.1920  173.3960  137.2540 O   0  0  0  0  0  1  0  0  0  0  0  0
  192.9520  174.7590  137.3020 C   0  0  0  0  0  2  0  0  0  0  0  0
  192.6060  175.7560  136.3760 O   0  0  0  0  0  0  0  0  0  0  0  0
  192.0580  174.4790  136.1530 C   0  0  2  0  0  3  0  0  0  0  0  0
  189.1720  177.4460  143.6950 C   0  0  0  0  0  0  0  0  0  0  0  0
  188.5120  177.5600  144.9160 O   0  0  0  0  0  1  0  0  0  0  0  0
  190.5840  177.4130  143.6390 C   0  0  0  0  0  0  0  0  0  0  0  0
  191.2100  177.2930  142.3920 C   0  0  0  0  0  3  0  0  0  0  0  0
  188.4170  177.3680  142.5100 C   0  0  0  0  0  0  0  0  0  0  0  0
  190.4590  177.2050  141.2200 C   0  0  0  0  0  3  0  0  0  0  0  0
  189.0600  177.2350  141.2700 C   0  0  0  0  0  0  0  0  0  0  0  0
  191.4320  177.5070  144.8510 C   0  0  0  0  0  0  0  0  0  0  0  0
  192.0560  178.5650  145.1270 O   0  0  0  0  0  0  0  0  0  0  0  0
  191.5550  176.3900  145.7280 N   0  0  0  0  0  1  0  0  0  0  0  0
  186.9230  177.4160  142.5700 C   0  0  0  0  0  2  0  0  0  0  0  0
  186.5040  178.6930  142.9510 O   0  0  0  0  0  0  0  0  0  0  0  0
  185.3620  179.2490  144.9090 N   0  0  0  0  0  0  0  0  0  0  0  0
  184.5690  179.7160  143.7650 C   0  0  0  0  0  2  0  0  0  0  0  0
  185.3240  178.4730  143.6630 C   0  0  1  0  0  3  0  0  0  0  0  0
  184.4980  178.6510  145.7620 O   0  0  0  0  0  1  0  0  0  0  0  0
  1 25  1  0  0  0  0
  2 11  1  6  0  0  0
  2  5  1  0  0  0  0
  3  9  1  0  0  0  0
  3 10  1  0  0  0  0
  4  7  2  0  0  0  0
  4  5  1  0  0  0  0
  5  1  1  6  0  0  0
  6  2  1  0  0  0  0
  9 12  1  6  0  0  0
  9  6  1  0  0  0  0
 10  8  1  6  0  0  0
 10  4  1  0  0  0  0
 12 14  1  0  0  0  0
 13 12  2  0  0  0  0
 14 15  1  0  0  0  0
 17 16  1  0  0  0  0
 18 17  1  0  0  0  0
 18 14  1  1  0  0  0
 18 16  1  0  0  0  0
 19 20  1  0  0  0  0
 21 19  1  0  0  0  0
 21 26  1  0  0  0  0
 22 21  2  0  0  0  0
 23 29  1  0  0  0  0
 23 19  2  0  0  0  0
 24 25  2  0  0  0  0
 24 22  1  0  0  0  0
 25 23  1  0  0  0  0
 26 27  2  0  0  0  0
 26 28  1  0  0  0  0
 29 30  1  0  0  0  0
 31 34  1  0  0  0  0
 32 31  1  0  0  0  0
 33 30  1  6  0  0  0
 33 32  1  0  0  0  0
 33 31  1  0  0  0  0
M  END
>  <MODEL>
7

>  <REMARK>
 VINA RESULT:      -7.0      2.960      8.349
  Name = 
  9 active torsions:
  status: ('A' for Active; 'I' for Inactive)
    1  A    between atoms: O_1  and  C_9
    2  A    between atoms: O_1  and  C_34
    3  A    between atoms: C_3  and  C_25
    4  A    between atoms: C_5  and  O_22
    5  A    between atoms: C_5  and  C_32
    6  A    between atoms: N_11  and  C_21
    7  A    between atoms: N_11  and  C_26
    8  A    between atoms: C_19  and  O_22
    9  A    between atoms: C_26  and  C_28
                            x       y       z     vdW  Elec       q    Type
                         _______ _______ _______ _____ _____    ______ ____

>  <TORSDO>
F 9

$$$$
=
 OpenBabel11052416023D

 34 37  0  0  1  0  0  0  0  0999 V2000
  188.8970  177.4930  142.6310 O   0  0  0  0  0  0  0  0  0  0  0  0
  190.3190  179.1460  143.7660 C   0  0  1  0  0  3  0  0  0  0  0  0
  191.6060  176.7070  144.9610 C   0  0  0  0  0  2  0  0  0  0  0  0
  191.2780  177.1580  142.5300 C   0  0  0  0  0  0  0  0  0  0  0  0
  190.1580  178.1580  142.5980 C   0  0  1  0  0  3  0  0  0  0  0  0
  189.9070  178.6340  145.1530 C   0  0  0  0  0  2  0  0  0  0  0  0
  192.0720  177.2250  141.6050 O   0  0  0  0  0  0  0  0  0  0  0  0
  192.5230  175.2870  143.3020 F   0  0  0  0  0  0  0  0  0  0  0  0
  190.2530  177.1770  145.4830 C   0  0  2  0  0  3  0  0  0  0  0  0
  191.4330  176.0930  143.5810 C   0  0  1  0  0  3  0  0  0  0  0  0
  191.6100  179.6810  143.8040 O   0  0  0  0  0  1  0  0  0  0  0  0
  190.1070  176.9110  146.9520 C   0  0  0  0  0  0  0  0  0  0  0  0
  188.8740  176.7790  147.4320 C   0  0  0  0  0  2  0  0  0  0  0  0
  191.2380  176.7960  147.8410 N   0  0  0  0  0  0  0  0  0  0  0  0
  191.5750  177.8520  148.6220 O   0  0  0  0  0  1  0  0  0  0  0  0
  193.1390  175.7130  148.8850 C   0  0  0  0  0  2  0  0  0  0  0  0
  193.2130  175.5890  147.4880 O   0  0  0  0  0  0  0  0  0  0  0  0
  191.9260  175.5240  148.0540 C   0  0  2  0  0  3  0  0  0  0  0  0
  186.7320  178.4970  139.7870 C   0  0  0  0  0  0  0  0  0  0  0  0
  186.8330  178.6260  138.4050 O   0  0  0  0  0  1  0  0  0  0  0  0
  185.5170  178.7820  140.4510 C   0  0  0  0  0  0  0  0  0  0  0  0
  185.4540  178.6350  141.8420 C   0  0  0  0  0  3  0  0  0  0  0  0
  187.8560  178.0800  140.5230 C   0  0  0  0  0  0  0  0  0  0  0  0
  186.5670  178.2120  142.5680 C   0  0  0  0  0  3  0  0  0  0  0  0
  187.7720  177.9260  141.9150 C   0  0  0  0  0  0  0  0  0  0  0  0
  184.3040  179.2400  139.7310 C   0  0  0  0  0  0  0  0  0  0  0  0
  184.2580  180.3780  139.1950 O   0  0  0  0  0  0  0  0  0  0  0  0
  183.1640  178.3900  139.6380 N   0  0  0  0  0  1  0  0  0  0  0  0
  189.1450  177.7900  139.8210 C   0  0  0  0  0  2  0  0  0  0  0  0
  189.0470  176.5830  139.1250 O   0  0  0  0  0  0  0  0  0  0  0  0
  190.3660  175.0550  137.9540 N   0  0  0  0  0  0  0  0  0  0  0  0
  190.4530  176.3550  137.2750 C   0  0  0  0  0  2  0  0  0  0  0  0
  190.3550  176.3030  138.7290 C   0  0  1  0  0  3  0  0  0  0  0  0
  191.6270  174.5690  138.0250 O   0  0  0  0  0  1  0  0  0  0  0  0
  2 11  1  1  0  0  0
  2  6  1  0  0  0  0
  3  9  1  0  0  0  0
  4  5  1  0  0  0  0
  4 10  1  0  0  0  0
  5  1  1  1  0  0  0
  5  2  1  0  0  0  0
  6  9  1  0  0  0  0
  7  4  2  0  0  0  0
  9 12  1  1  0  0  0
 10  8  1  6  0  0  0
 10  3  1  0  0  0  0
 12 13  2  0  0  0  0
 12 14  1  0  0  0  0
 14 15  1  0  0  0  0
 17 18  1  0  0  0  0
 17 16  1  0  0  0  0
 18 14  1  6  0  0  0
 18 16  1  0  0  0  0
 19 21  2  0  0  0  0
 19 23  1  0  0  0  0
 20 19  1  0  0  0  0
 21 22  1  0  0  0  0
 22 24  2  0  0  0  0
 23 25  2  0  0  0  0
 25 24  1  0  0  0  0
 25  1  1  0  0  0  0
 26 21  1  0  0  0  0
 27 26  2  0  0  0  0
 28 26  1  0  0  0  0
 29 23  1  0  0  0  0
 30 29  1  0  0  0  0
 31 34  1  0  0  0  0
 31 33  1  0  0  0  0
 32 31  1  0  0  0  0
 32 33  1  0  0  0  0
 33 30  1  6  0  0  0
M  END
>  <MODEL>
8

>  <REMARK>
 VINA RESULT:      -6.9      1.686      2.495
  Name = 
  9 active torsions:
  status: ('A' for Active; 'I' for Inactive)
    1  A    between atoms: O_1  and  C_9
    2  A    between atoms: O_1  and  C_34
    3  A    between atoms: C_3  and  C_25
    4  A    between atoms: C_5  and  O_22
    5  A    between atoms: C_5  and  C_32
    6  A    between atoms: N_11  and  C_21
    7  A    between atoms: N_11  and  C_26
    8  A    between atoms: C_19  and  O_22
    9  A    between atoms: C_26  and  C_28
                            x       y       z     vdW  Elec       q    Type
                         _______ _______ _______ _____ _____    ______ ____

>  <TORSDO>
F 9

$$$$
=
 OpenBabel11052416023D

 34 37  0  0  1  0  0  0  0  0999 V2000
  188.4950  177.1190  140.7700 O   0  0  0  0  0  0  0  0  0  0  0  0
  189.3900  178.6280  139.0470 C   0  0  1  0  0  3  0  0  0  0  0  0
  187.6680  176.9900  137.2080 C   0  0  0  0  0  2  0  0  0  0  0  0
  186.9160  178.1570  139.2800 C   0  0  0  0  0  0  0  0  0  0  0  0
  188.2290  178.2890  139.9980 C   0  0  1  0  0  3  0  0  0  0  0  0
  189.9790  177.4580  138.2470 C   0  0  0  0  0  2  0  0  0  0  0  0
  186.0560  179.0040  139.4640 O   0  0  0  0  0  0  0  0  0  0  0  0
  185.3800  177.0940  137.8100 F   0  0  0  0  0  0  0  0  0  0  0  0
  188.9870  176.4170  137.7140 C   0  0  2  0  0  3  0  0  0  0  0  0
  186.6550  177.0110  138.3420 C   0  0  1  0  0  3  0  0  0  0  0  0
  189.0570  179.6860  138.1970 O   0  0  0  0  0  1  0  0  0  0  0  0
  189.6350  175.5360  136.6870 C   0  0  0  0  0  0  0  0  0  0  0  0
  190.1700  176.1260  135.6220 C   0  0  0  0  0  2  0  0  0  0  0  0
  189.6960  174.1000  136.8160 N   0  0  0  0  0  0  0  0  0  0  0  0
  190.8890  173.5100  137.0780 O   0  0  0  0  0  1  0  0  0  0  0  0
  188.3860  172.4510  135.6160 C   0  0  0  0  0  2  0  0  0  0  0  0
  187.6520  173.6380  135.7710 O   0  0  0  0  0  0  0  0  0  0  0  0
  188.4900  173.2760  136.8430 C   0  0  2  0  0  3  0  0  0  0  0  0
  188.6730  177.2020  144.4770 C   0  0  0  0  0  0  0  0  0  0  0  0
  187.7930  177.2240  145.5560 O   0  0  0  0  0  1  0  0  0  0  0  0
  190.0710  177.1960  144.6880 C   0  0  0  0  0  0  0  0  0  0  0  0
  190.9230  177.1690  143.5770 C   0  0  0  0  0  3  0  0  0  0  0  0
  188.1570  177.1890  143.1680 C   0  0  0  0  0  0  0  0  0  0  0  0
  190.4100  177.1460  142.2810 C   0  0  0  0  0  3  0  0  0  0  0  0
  189.0250  177.1490  142.0660 C   0  0  0  0  0  0  0  0  0  0  0  0
  190.6720  177.2240  146.0420 C   0  0  0  0  0  0  0  0  0  0  0  0
  191.8990  176.9960  146.2130 O   0  0  0  0  0  0  0  0  0  0  0  0
  189.8630  177.5110  147.1800 N   0  0  0  0  0  1  0  0  0  0  0  0
  186.6780  177.2080  142.9460 C   0  0  0  0  0  2  0  0  0  0  0  0
  186.1860  178.5020  143.1340 O   0  0  0  0  0  0  0  0  0  0  0  0
  184.4260  179.6210  144.1790 N   0  0  0  0  0  0  0  0  0  0  0  0
  183.9020  178.9630  142.9760 C   0  0  0  0  0  2  0  0  0  0  0  0
  184.9510  178.3160  143.7560 C   0  0  1  0  0  3  0  0  0  0  0  0
  183.5390  179.3760  145.1730 O   0  0  0  0  0  1  0  0  0  0  0  0
  1 25  1  0  0  0  0
  2 11  1  6  0  0  0
  2  5  1  0  0  0  0
  3  9  1  0  0  0  0
  3 10  1  0  0  0  0
  4  7  2  0  0  0  0
  4  5  1  0  0  0  0
  5  1  1  6  0  0  0
  6  2  1  0  0  0  0
  9 12  1  6  0  0  0
  9  6  1  0  0  0  0
 10  8  1  6  0  0  0
 10  4  1  0  0  0  0
 12 14  1  0  0  0  0
 13 12  2  0  0  0  0
 14 15  1  0  0  0  0
 16 17  1  0  0  0  0
 16 18  1  0  0  0  0
 17 18  1  0  0  0  0
 18 14  1  6  0  0  0
 19 21  1  0  0  0  0
 19 20  1  0  0  0  0
 21 26  1  0  0  0  0
 22 21  2  0  0  0  0
 23 19  2  0  0  0  0
 24 22  1  0  0  0  0
 25 24  2  0  0  0  0
 25 23  1  0  0  0  0
 26 27  2  0  0  0  0
 26 28  1  0  0  0  0
 29 30  1  0  0  0  0
 29 23  1  0  0  0  0
 31 34  1  0  0  0  0
 32 33  1  0  0  0  0
 32 31  1  0  0  0  0
 33 30  1  6  0  0  0
 33 31  1  0  0  0  0
M  END
>  <MODEL>
9

>  <REMARK>
 VINA RESULT:      -6.8      2.872      8.113
  Name = 
  9 active torsions:
  status: ('A' for Active; 'I' for Inactive)
    1  A    between atoms: O_1  and  C_9
    2  A    between atoms: O_1  and  C_34
    3  A    between atoms: C_3  and  C_25
    4  A    between atoms: C_5  and  O_22
    5  A    between atoms: C_5  and  C_32
    6  A    between atoms: N_11  and  C_21
    7  A    between atoms: N_11  and  C_26
    8  A    between atoms: C_19  and  O_22
    9  A    between atoms: C_26  and  C_28
                            x       y       z     vdW  Elec       q    Type
                         _______ _______ _______ _____ _____    ______ ____

>  <TORSDO>
F 9

$$$$
