=
 OpenBabel11052414363D

 32 37  0  0  1  0  0  0  0  0999 V2000
  188.8670  177.2130  142.4680 C   0  0  1  0  0  3  0  0  0  0  0  0
  189.1460  177.7700  139.1610 C   0  0  0  0  0  0  0  0  0  0  0  0
  186.3490  177.6630  145.3980 C   0  0  0  0  0  0  0  0  0  0  0  0
  189.8930  178.3360  142.7160 C   0  0  0  0  0  2  0  0  0  0  0  0
  190.0890  178.0760  140.0600 N   0  0  0  0  0  0  0  0  0  0  0  0
  189.4240  176.8300  138.1660 C   0  0  0  0  0  0  0  0  0  0  0  0
  186.7640  177.1130  146.5650 F   0  0  0  0  0  0  0  0  0  0  0  0
  184.4440  177.6110  137.7850 C   0  0  0  0  0  3  0  0  0  0  0  0
  187.8010  178.1660  139.4330 N   0  0  0  0  0  0  0  0  0  0  0  0
  186.1250  176.4010  136.3830 C   0  0  0  0  0  2  0  0  0  0  0  0
  187.1540  176.8420  137.3870 C   0  0  0  0  0  0  0  0  0  0  0  0
  191.2430  177.3970  140.1570 C   0  0  0  0  0  0  0  0  0  0  0  0
  186.6360  178.0120  143.0260 C   0  0  0  0  0  0  0  0  0  0  0  0
  188.3860  176.4370  137.2520 N   0  0  0  0  0  0  0  0  0  0  0  0
  191.5590  176.4790  139.2030 N   0  0  0  0  0  0  0  0  0  0  0  0
  185.2000  178.4630  145.3680 C   0  0  0  0  0  3  0  0  0  0  0  0
  185.4800  178.7980  142.9800 C   0  0  0  0  0  3  0  0  0  0  0  0
  191.9300  177.4290  141.4580 C   0  0  0  0  0  3  0  0  0  0  0  0
  187.0460  177.4290  144.2090 C   0  0  0  0  0  0  0  0  0  0  0  0
  188.5070  176.4140  144.0760 S   0  0  0  0  0  0  0  0  0  0  0  0
  187.5020  178.7480  140.7530 C   0  0  0  0  0  2  0  0  0  0  0  0
  184.7550  179.0290  144.1560 C   0  0  0  0  0  0  0  0  0  0  0  0
  187.5010  177.6740  141.8670 C   0  0  1  0  0  3  0  0  0  0  0  0
  186.7740  177.7220  138.5280 C   0  0  0  0  0  0  0  0  0  0  0  0
  190.6940  176.2200  138.1760 C   0  0  0  0  0  0  0  0  0  0  0  0
  191.3300  177.8470  142.5950 C   0  0  0  0  0  3  0  0  0  0  0  0
  184.7260  176.8420  136.7290 C   0  0  0  0  0  3  0  0  0  0  0  0
  185.4970  178.0730  138.7040 C   0  0  0  0  0  3  0  0  0  0  0  0
  182.3660  179.3430  143.5970 C   0  0  0  0  0  1  0  0  0  0  0  0
  183.6070  179.8230  144.0980 O   0  0  0  0  0  0  0  0  0  0  0  0
  191.0700  175.2230  137.1340 C   0  0  0  0  0  2  0  0  0  0  0  0
  190.8920  173.9340  137.6330 O   0  0  0  0  0  1  0  0  0  0  0  0
  1  4  1  1  0  0  0
  1 20  1  0  0  0  0
  2  9  1  0  0  0  0
  2  5  1  0  0  0  0
  3  7  1  0  0  0  0
  5 12  2  0  0  0  0
  6 25  1  0  0  0  0
  6  2  2  0  0  0  0
  8 28  1  0  0  0  0
  9 21  1  0  0  0  0
 10 27  1  0  0  0  0
 10 11  1  0  0  0  0
 11 24  1  0  0  0  0
 12 18  1  0  0  0  0
 13 19  1  0  0  0  0
 14 11  2  0  0  0  0
 14  6  1  0  0  0  0
 15 12  1  0  0  0  0
 16  3  1  0  0  0  0
 17 13  2  0  0  0  0
 17 22  1  0  0  0  0
 18 26  2  0  0  0  0
 19  3  2  0  0  0  0
 20 19  1  0  0  0  0
 22 16  2  0  0  0  0
 23 21  1  6  0  0  0
 23  1  1  0  0  0  0
 23 13  1  0  0  0  0
 24 28  2  0  0  0  0
 24  9  1  0  0  0  0
 25 15  2  0  0  0  0
 26  4  1  0  0  0  0
 27  8  2  0  0  0  0
 29 30  1  0  0  0  0
 30 22  1  0  0  0  0
 31 32  1  0  0  0  0
 31 25  1  0  0  0  0
M  END
>  <MODEL>
1

>  <REMARK>
 VINA RESULT:      -9.0      0.000      0.000
  Name = 
  2 active torsions:
  status: ('A' for Active; 'I' for Inactive)
    1  A    between atoms: C_13  and  CA_29
    2  A    between atoms: O_15  and  C_26
                            x       y       z     vdW  Elec       q    Type
                         _______ _______ _______ _____ _____    ______ ____

>  <TORSDO>
F 2

$$$$
=
 OpenBabel11052414363D

 32 37  0  0  1  0  0  0  0  0999 V2000
  188.7760  176.0030  137.5330 C   0  0  1  0  0  3  0  0  0  0  0  0
  188.3690  178.3910  139.8690 C   0  0  0  0  0  0  0  0  0  0  0  0
  191.4440  173.5010  136.2150 C   0  0  0  0  0  0  0  0  0  0  0  0
  188.7620  177.1000  136.4490 C   0  0  0  0  0  2  0  0  0  0  0  0
  188.0050  178.5190  138.5870 N   0  0  0  0  0  0  0  0  0  0  0  0
  187.3940  178.4390  140.8680 C   0  0  0  0  0  0  0  0  0  0  0  0
  190.9770  172.6490  135.2700 F   0  0  0  0  0  0  0  0  0  0  0  0
  191.5720  176.9230  143.2760 C   0  0  0  0  0  3  0  0  0  0  0  0
  189.6780  177.8960  140.1520 N   0  0  0  0  0  0  0  0  0  0  0  0
  189.3030  177.6560  144.0280 C   0  0  0  0  0  3  0  0  0  0  0  0
  188.9780  177.8570  142.5740 C   0  0  0  0  0  0  0  0  0  0  0  0
  186.7210  178.5240  138.1970 C   0  0  0  0  0  0  0  0  0  0  0  0
  191.0550  175.2180  137.8660 C   0  0  0  0  0  0  0  0  0  0  0  0
  187.7710  178.2160  142.2370 N   0  0  0  0  0  0  0  0  0  0  0  0
  185.7380  178.5810  139.1380 N   0  0  0  0  0  0  0  0  0  0  0  0
  192.8140  173.5420  136.5060 C   0  0  0  0  0  3  0  0  0  0  0  0
  192.4180  175.2570  138.1790 C   0  0  0  0  0  3  0  0  0  0  0  0
  186.4410  178.1200  136.8100 C   0  0  0  0  0  3  0  0  0  0  0  0
  190.5730  174.3330  136.9230 C   0  0  0  0  0  0  0  0  0  0  0  0
  188.8050  174.3780  136.6890 S   0  0  0  0  0  0  0  0  0  0  0  0
  190.4950  177.4090  139.0270 C   0  0  0  0  0  2  0  0  0  0  0  0
  193.3070  174.4170  137.4950 C   0  0  0  0  0  0  0  0  0  0  0  0
  189.9960  176.0390  138.5070 C   0  0  1  0  0  3  0  0  0  0  0  0
  190.0150  177.6380  141.5260 C   0  0  1  0  0  3  0  0  0  0  0  0
  186.0520  178.5930  140.4690 C   0  0  0  0  0  0  0  0  0  0  0  0
  187.3490  177.4870  136.0330 C   0  0  0  0  0  3  0  0  0  0  0  0
  190.6940  177.1250  144.2620 C   0  0  0  0  0  3  0  0  0  0  0  0
  191.2290  177.1970  141.8710 C   0  0  0  0  0  3  0  0  0  0  0  0
  195.3020  173.5040  138.6370 C   0  0  0  0  0  1  0  0  0  0  0  0
  194.6670  174.4700  137.8110 O   0  0  0  0  0  0  0  0  0  0  0  0
  184.9590  178.6740  141.4790 C   0  0  0  0  0  2  0  0  0  0  0  0
  183.8670  177.9210  141.0490 O   0  0  0  0  0  1  0  0  0  0  0  0
  1  4  1  6  0  0  0
  1 23  1  0  0  0  0
  2  9  1  0  0  0  0
  2  6  2  0  0  0  0
  3 16  2  0  0  0  0
  3 19  1  0  0  0  0
  5  2  1  0  0  0  0
  6 14  1  0  0  0  0
  7  3  1  0  0  0  0
  8 27  1  0  0  0  0
  9 24  1  0  0  0  0
 10 27  2  0  0  0  0
 11 10  1  0  0  0  0
 12  5  2  0  0  0  0
 12 15  1  0  0  0  0
 13 17  1  0  0  0  0
 13 23  1  0  0  0  0
 14 11  2  0  0  0  0
 15 25  2  0  0  0  0
 16 22  1  0  0  0  0
 18 12  1  0  0  0  0
 19 13  2  0  0  0  0
 20 19  1  0  0  0  0
 20  1  1  0  0  0  0
 21  9  1  0  0  0  0
 22 30  1  0  0  0  0
 22 17  2  0  0  0  0
 23 21  1  6  0  0  0
 24 28  1  6  0  0  0
 24 11  1  0  0  0  0
 25  6  1  0  0  0  0
 25 31  1  0  0  0  0
 26  4  1  0  0  0  0
 26 18  2  0  0  0  0
 28  8  2  0  0  0  0
 30 29  1  0  0  0  0
 32 31  1  0  0  0  0
M  END
>  <MODEL>
2

>  <REMARK>
 VINA RESULT:      -8.4      3.314      8.155
  Name = 
  2 active torsions:
  status: ('A' for Active; 'I' for Inactive)
    1  A    between atoms: C_13  and  CA_29
    2  A    between atoms: O_15  and  C_26
                            x       y       z     vdW  Elec       q    Type
                         _______ _______ _______ _____ _____    ______ ____

>  <TORSDO>
F 2

$$$$
=
 OpenBabel11052414363D

 32 37  0  0  1  0  0  0  0  0999 V2000
  187.2840  177.4900  141.9810 C   0  0  1  0  0  3  0  0  0  0  0  0
  184.9660  178.6650  139.8430 C   0  0  0  0  0  0  0  0  0  0  0  0
  188.0270  177.2580  145.7910 C   0  0  0  0  0  0  0  0  0  0  0  0
  188.2440  178.5980  141.5060 C   0  0  0  0  0  2  0  0  0  0  0  0
  186.2840  178.8470  139.7010 N   0  0  0  0  0  0  0  0  0  0  0  0
  184.2640  177.9430  138.8760 C   0  0  0  0  0  0  0  0  0  0  0  0
  189.1260  176.5220  146.0900 F   0  0  0  0  0  0  0  0  0  0  0  0
  180.9490  178.5250  142.6480 C   0  0  0  0  0  3  0  0  0  0  0  0
  184.3820  178.9350  141.1180 N   0  0  0  0  0  0  0  0  0  0  0  0
  180.7770  177.6860  140.2990 C   0  0  0  0  0  2  0  0  0  0  0  0
  182.2460  177.9840  140.1740 C   0  0  0  0  0  0  0  0  0  0  0  0
  187.0030  178.2210  138.7550 C   0  0  0  0  0  0  0  0  0  0  0  0
  186.4140  178.0560  144.1820 C   0  0  0  0  0  0  0  0  0  0  0  0
  182.8640  177.6740  139.0700 N   0  0  0  0  0  0  0  0  0  0  0  0
  186.3580  177.5140  137.7870 N   0  0  0  0  0  0  0  0  0  0  0  0
  187.3780  177.9900  146.7930 C   0  0  0  0  0  3  0  0  0  0  0  0
  185.7460  178.7770  145.1780 C   0  0  0  0  0  3  0  0  0  0  0  0
  188.4400  178.0460  139.0130 C   0  0  0  0  0  3  0  0  0  0  0  0
  187.5170  177.2840  144.4900 C   0  0  0  0  0  0  0  0  0  0  0  0
  188.2110  176.3880  143.1130 S   0  0  0  0  0  0  0  0  0  0  0  0
  185.2810  179.2460  142.2430 C   0  0  0  0  0  2  0  0  0  0  0  0
  186.2290  178.7480  146.4920 C   0  0  0  0  0  0  0  0  0  0  0  0
  186.0190  177.9840  142.7520 C   0  0  1  0  0  3  0  0  0  0  0  0
  182.9910  178.6150  141.3000 C   0  0  0  0  0  0  0  0  0  0  0  0
  184.9940  177.4070  137.7980 C   0  0  0  0  0  0  0  0  0  0  0  0
  188.9930  178.2130  140.2360 C   0  0  0  0  0  3  0  0  0  0  0  0
  180.2220  177.9830  141.6680 C   0  0  0  0  0  3  0  0  0  0  0  0
  182.3690  178.8620  142.4570 C   0  0  0  0  0  3  0  0  0  0  0  0
  186.1730  180.5300  148.2080 C   0  0  0  0  0  1  0  0  0  0  0  0
  185.5570  179.4790  147.4760 O   0  0  0  0  0  0  0  0  0  0  0  0
  184.3100  176.6420  136.7170 C   0  0  0  0  0  2  0  0  0  0  0  0
  184.3990  175.2760  136.9820 O   0  0  0  0  0  1  0  0  0  0  0  0
  1  4  1  1  0  0  0
  1 23  1  0  0  0  0
  1 20  1  0  0  0  0
  2  9  1  0  0  0  0
  3  7  1  0  0  0  0
  3 16  1  0  0  0  0
  5  2  1  0  0  0  0
  6 14  1  0  0  0  0
  6  2  2  0  0  0  0
  9 24  1  0  0  0  0
  9 21  1  0  0  0  0
 10 27  1  0  0  0  0
 11 10  1  0  0  0  0
 11 24  1  0  0  0  0
 12 18  1  0  0  0  0
 12  5  2  0  0  0  0
 13 19  1  0  0  0  0
 13 17  2  0  0  0  0
 14 11  2  0  0  0  0
 15 25  2  0  0  0  0
 15 12  1  0  0  0  0
 17 22  1  0  0  0  0
 18 26  2  0  0  0  0
 19  3  2  0  0  0  0
 20 19  1  0  0  0  0
 22 16  2  0  0  0  0
 22 30  1  0  0  0  0
 23 21  1  6  0  0  0
 23 13  1  0  0  0  0
 24 28  2  0  0  0  0
 25  6  1  0  0  0  0
 26  4  1  0  0  0  0
 27  8  2  0  0  0  0
 28  8  1  0  0  0  0
 30 29  1  0  0  0  0
 31 32  1  0  0  0  0
 31 25  1  0  0  0  0
M  END
>  <MODEL>
3

>  <REMARK>
 VINA RESULT:      -8.3      2.530      4.437
  Name = 
  2 active torsions:
  status: ('A' for Active; 'I' for Inactive)
    1  A    between atoms: C_13  and  CA_29
    2  A    between atoms: O_15  and  C_26
                            x       y       z     vdW  Elec       q    Type
                         _______ _______ _______ _____ _____    ______ ____

>  <TORSDO>
F 2

$$$$
=
 OpenBabel11052414363D

 32 37  0  0  1  0  0  0  0  0999 V2000
  190.3370  177.6800  144.0510 C   0  0  1  0  0  3  0  0  0  0  0  0
  187.3570  177.2690  145.5580 C   0  0  0  0  0  0  0  0  0  0  0  0
  191.9680  177.5890  140.5220 C   0  0  0  0  0  0  0  0  0  0  0  0
  190.8110  176.3590  144.6870 C   0  0  0  0  0  2  0  0  0  0  0  0
  188.5020  176.7250  145.9880 N   0  0  0  0  0  0  0  0  0  0  0  0
  186.6850  178.1860  146.3680 C   0  0  0  0  0  0  0  0  0  0  0  0
  193.2680  177.9750  140.5090 F   0  0  0  0  0  0  0  0  0  0  0  0
  184.2970  178.4660  141.9220 C   0  0  0  0  0  3  0  0  0  0  0  0
  187.0280  177.1410  144.1740 N   0  0  0  0  0  0  0  0  0  0  0  0
  183.8350  179.3830  144.2010 C   0  0  0  0  0  3  0  0  0  0  0  0
  185.0910  178.6840  144.6450 C   0  0  0  0  0  0  0  0  0  0  0  0
  189.1310  177.1460  147.0970 C   0  0  0  0  0  0  0  0  0  0  0  0
  189.8710  177.3250  141.6890 C   0  0  0  0  0  0  0  0  0  0  0  0
  185.5010  178.8350  145.8720 N   0  0  0  0  0  0  0  0  0  0  0  0
  188.5070  178.0330  147.9210 N   0  0  0  0  0  0  0  0  0  0  0  0
  191.3860  177.0440  139.3700 C   0  0  0  0  0  3  0  0  0  0  0  0
  189.2740  176.7960  140.5400 C   0  0  0  0  0  3  0  0  0  0  0  0
  190.5780  176.9000  147.1790 C   0  0  0  0  0  3  0  0  0  0  0  0
  191.1870  177.7430  141.6700 C   0  0  0  0  0  0  0  0  0  0  0  0
  191.7710  178.4430  143.2040 S   0  0  0  0  0  0  0  0  0  0  0  0
  188.0360  176.5580  143.2710 C   0  0  0  0  0  2  0  0  0  0  0  0
  190.0330  176.6510  139.3710 C   0  0  0  0  0  0  0  0  0  0  0  0
  189.1960  177.5440  142.9940 C   0  0  1  0  0  3  0  0  0  0  0  0
  185.8650  177.8370  143.6930 C   0  0  1  0  0  3  0  0  0  0  0  0
  187.2700  178.5220  147.6040 C   0  0  0  0  0  0  0  0  0  0  0  0
  191.3260  176.5490  146.1080 C   0  0  0  0  0  3  0  0  0  0  0  0
  183.5470  179.2190  142.7310 C   0  0  0  0  0  3  0  0  0  0  0  0
  185.4810  177.7460  142.4170 C   0  0  0  0  0  3  0  0  0  0  0  0
  188.2010  176.6090  137.7100 C   0  0  0  0  0  1  0  0  0  0  0  0
  189.4260  176.1150  138.2330 O   0  0  0  0  0  0  0  0  0  0  0  0
  186.6010  179.4780  148.5310 C   0  0  0  0  0  2  0  0  0  0  0  0
  186.1470  180.5850  147.8150 O   0  0  0  0  0  1  0  0  0  0  0  0
  1  4  1  6  0  0  0
  2  5  1  0  0  0  0
  2  6  2  0  0  0  0
  3 19  1  0  0  0  0
  4 26  1  0  0  0  0
  5 12  2  0  0  0  0
  6 25  1  0  0  0  0
  7  3  1  0  0  0  0
  8 28  2  0  0  0  0
  8 27  1  0  0  0  0
  9  2  1  0  0  0  0
 10 11  1  0  0  0  0
 11 14  2  0  0  0  0
 12 18  1  0  0  0  0
 12 15  1  0  0  0  0
 13 23  1  0  0  0  0
 14  6  1  0  0  0  0
 16 22  1  0  0  0  0
 16  3  2  0  0  0  0
 17 13  1  0  0  0  0
 19 13  2  0  0  0  0
 19 20  1  0  0  0  0
 20  1  1  0  0  0  0
 21  9  1  0  0  0  0
 22 17  2  0  0  0  0
 23 21  1  1  0  0  0
 23  1  1  0  0  0  0
 24 28  1  6  0  0  0
 24  9  1  0  0  0  0
 24 11  1  0  0  0  0
 25 15  2  0  0  0  0
 25 31  1  0  0  0  0
 26 18  2  0  0  0  0
 27 10  2  0  0  0  0
 29 30  1  0  0  0  0
 30 22  1  0  0  0  0
 32 31  1  0  0  0  0
M  END
>  <MODEL>
4

>  <REMARK>
 VINA RESULT:      -8.0      3.522      7.237
  Name = 
  2 active torsions:
  status: ('A' for Active; 'I' for Inactive)
    1  A    between atoms: C_13  and  CA_29
    2  A    between atoms: O_15  and  C_26
                            x       y       z     vdW  Elec       q    Type
                         _______ _______ _______ _____ _____    ______ ____

>  <TORSDO>
F 2

$$$$
=
 OpenBabel11052414363D

 32 37  0  0  1  0  0  0  0  0999 V2000
  187.4720  176.8780  138.3980 C   0  0  1  0  0  3  0  0  0  0  0  0
  186.5490  178.7080  141.0660 C   0  0  0  0  0  0  0  0  0  0  0  0
  190.6270  175.2660  136.7950 C   0  0  0  0  0  0  0  0  0  0  0  0
  187.2150  178.1060  137.5010 C   0  0  0  0  0  2  0  0  0  0  0  0
  186.1650  178.9600  139.8090 N   0  0  0  0  0  0  0  0  0  0  0  0
  185.5880  178.3800  142.0250 C   0  0  0  0  0  0  0  0  0  0  0  0
  190.3580  174.4980  135.7110 F   0  0  0  0  0  0  0  0  0  0  0  0
  190.0000  177.4440  144.3080 C   0  0  0  0  0  3  0  0  0  0  0  0
  187.9350  178.4720  141.3130 N   0  0  0  0  0  0  0  0  0  0  0  0
  187.6260  177.5320  145.0870 C   0  0  0  0  0  3  0  0  0  0  0  0
  187.2630  177.8900  143.6720 C   0  0  0  0  0  0  0  0  0  0  0  0
  184.9110  178.7470  139.3790 C   0  0  0  0  0  0  0  0  0  0  0  0
  189.8690  176.5660  138.6820 C   0  0  0  0  0  0  0  0  0  0  0  0
  186.0070  178.0270  143.3540 N   0  0  0  0  0  0  0  0  0  0  0  0
  183.9400  178.4350  140.2820 N   0  0  0  0  0  0  0  0  0  0  0  0
  191.9540  175.5590  137.1370 C   0  0  0  0  0  3  0  0  0  0  0  0
  191.1900  176.8510  139.0450 C   0  0  0  0  0  3  0  0  0  0  0  0
  184.7260  178.5230  137.9370 C   0  0  0  0  0  3  0  0  0  0  0  0
  189.5940  175.7620  137.5940 C   0  0  0  0  0  0  0  0  0  0  0  0
  187.8590  175.4570  137.3090 S   0  0  0  0  0  0  0  0  0  0  0  0
  188.8380  178.3640  140.1540 C   0  0  0  0  0  2  0  0  0  0  0  0
  192.2420  176.3470  138.2680 C   0  0  0  0  0  0  0  0  0  0  0  0
  188.6540  177.0210  139.4070 C   0  0  1  0  0  3  0  0  0  0  0  0
  188.3220  178.0750  142.6400 C   0  0  1  0  0  3  0  0  0  0  0  0
  184.2450  178.3000  141.6090 C   0  0  0  0  0  0  0  0  0  0  0  0
  185.7510  178.2370  137.1020 C   0  0  0  0  0  3  0  0  0  0  0  0
  189.1000  177.2860  145.2820 C   0  0  0  0  0  3  0  0  0  0  0  0
  189.6040  177.8600  142.9530 C   0  0  0  0  0  3  0  0  0  0  0  0
  193.9120  177.0560  139.9490 C   0  0  0  0  0  1  0  0  0  0  0  0
  193.5560  176.6450  138.6370 O   0  0  0  0  0  0  0  0  0  0  0  0
  183.1620  177.9750  142.5800 C   0  0  0  0  0  2  0  0  0  0  0  0
  182.8270  179.1160  143.3080 O   0  0  0  0  0  1  0  0  0  0  0  0
  1  4  1  6  0  0  0
  1 23  1  0  0  0  0
  2  9  1  0  0  0  0
  2  6  2  0  0  0  0
  3 16  2  0  0  0  0
  3 19  1  0  0  0  0
  5  2  1  0  0  0  0
  6 14  1  0  0  0  0
  7  3  1  0  0  0  0
  8 27  1  0  0  0  0
  9 24  1  0  0  0  0
 10 27  2  0  0  0  0
 11 10  1  0  0  0  0
 12  5  2  0  0  0  0
 12 15  1  0  0  0  0
 13 17  1  0  0  0  0
 13 23  1  0  0  0  0
 14 11  2  0  0  0  0
 15 25  2  0  0  0  0
 16 22  1  0  0  0  0
 18 12  1  0  0  0  0
 19 13  2  0  0  0  0
 20 19  1  0  0  0  0
 20  1  1  0  0  0  0
 21  9  1  0  0  0  0
 22 30  1  0  0  0  0
 22 17  2  0  0  0  0
 23 21  1  6  0  0  0
 24 28  1  6  0  0  0
 24 11  1  0  0  0  0
 25  6  1  0  0  0  0
 25 31  1  0  0  0  0
 26  4  1  0  0  0  0
 26 18  2  0  0  0  0
 28  8  2  0  0  0  0
 30 29  1  0  0  0  0
 31 32  1  0  0  0  0
M  END
>  <MODEL>
5

>  <REMARK>
 VINA RESULT:      -7.8      3.065      7.817
  Name = 
  2 active torsions:
  status: ('A' for Active; 'I' for Inactive)
    1  A    between atoms: C_13  and  CA_29
    2  A    between atoms: O_15  and  C_26
                            x       y       z     vdW  Elec       q    Type
                         _______ _______ _______ _____ _____    ______ ____

>  <TORSDO>
F 2

$$$$
=
 OpenBabel11052414363D

 32 37  0  0  1  0  0  0  0  0999 V2000
  190.1120  176.8650  142.2520 C   0  0  1  0  0  3  0  0  0  0  0  0
  187.9350  178.6270  140.3880 C   0  0  0  0  0  0  0  0  0  0  0  0
  190.9980  176.1360  145.9680 C   0  0  0  0  0  0  0  0  0  0  0  0
  191.2300  177.8300  141.8110 C   0  0  0  0  0  2  0  0  0  0  0  0
  189.2550  178.5900  140.1730 N   0  0  0  0  0  0  0  0  0  0  0  0
  187.0650  178.1360  139.4130 C   0  0  0  0  0  0  0  0  0  0  0  0
  191.9610  175.1950  146.1270 F   0  0  0  0  0  0  0  0  0  0  0  0
  184.1080  178.9130  143.4380 C   0  0  0  0  0  3  0  0  0  0  0  0
  187.4750  178.8680  141.7180 N   0  0  0  0  0  0  0  0  0  0  0  0
  183.6680  178.3490  141.0420 C   0  0  0  0  0  2  0  0  0  0  0  0
  185.1570  178.3990  140.8440 C   0  0  0  0  0  0  0  0  0  0  0  0
  189.8000  177.9450  139.1290 C   0  0  0  0  0  0  0  0  0  0  0  0
  189.4730  177.3550  144.5490 C   0  0  0  0  0  0  0  0  0  0  0  0
  185.6530  178.0960  139.6770 N   0  0  0  0  0  0  0  0  0  0  0  0
  188.9900  177.4590  138.1490 N   0  0  0  0  0  0  0  0  0  0  0  0
  190.5430  176.8680  147.0720 C   0  0  0  0  0  3  0  0  0  0  0  0
  188.9970  178.0800  145.6470 C   0  0  0  0  0  3  0  0  0  0  0  0
  191.1940  177.4990  139.2720 C   0  0  0  0  0  3  0  0  0  0  0  0
  190.4340  176.3780  144.7130 C   0  0  0  0  0  0  0  0  0  0  0  0
  190.8850  175.5140  143.2180 S   0  0  0  0  0  0  0  0  0  0  0  0
  188.4720  178.9070  142.8020 C   0  0  0  0  0  2  0  0  0  0  0  0
  189.5350  177.8400  146.9180 C   0  0  0  0  0  0  0  0  0  0  0  0
  188.9980  177.4930  143.1480 C   0  0  1  0  0  3  0  0  0  0  0  0
  186.0610  178.7780  141.9670 C   0  0  0  0  0  0  0  0  0  0  0  0
  187.6310  177.5890  138.2440 C   0  0  0  0  0  0  0  0  0  0  0  0
  191.8300  177.4480  140.4650 C   0  0  0  0  0  3  0  0  0  0  0  0
  183.2460  178.6030  142.4670 C   0  0  0  0  0  3  0  0  0  0  0  0
  185.5540  179.0150  143.1800 C   0  0  0  0  0  3  0  0  0  0  0  0
  188.0060  178.1140  148.8430 C   0  0  0  0  0  1  0  0  0  0  0  0
  189.0560  178.5760  148.0050 O   0  0  0  0  0  0  0  0  0  0  0  0
  186.7670  177.0640  137.1500 C   0  0  0  0  0  2  0  0  0  0  0  0
  186.7190  175.6720  137.2180 O   0  0  0  0  0  1  0  0  0  0  0  0
  1  4  1  1  0  0  0
  1 23  1  0  0  0  0
  1 20  1  0  0  0  0
  2  9  1  0  0  0  0
  3  7  1  0  0  0  0
  3 16  1  0  0  0  0
  5  2  1  0  0  0  0
  6 14  1  0  0  0  0
  6  2  2  0  0  0  0
  9 24  1  0  0  0  0
  9 21  1  0  0  0  0
 10 27  1  0  0  0  0
 11 10  1  0  0  0  0
 11 24  1  0  0  0  0
 12 18  1  0  0  0  0
 12  5  2  0  0  0  0
 13 19  1  0  0  0  0
 13 17  2  0  0  0  0
 14 11  2  0  0  0  0
 15 25  2  0  0  0  0
 15 12  1  0  0  0  0
 17 22  1  0  0  0  0
 18 26  2  0  0  0  0
 19  3  2  0  0  0  0
 20 19  1  0  0  0  0
 22 16  2  0  0  0  0
 22 30  1  0  0  0  0
 23 21  1  6  0  0  0
 23 13  1  0  0  0  0
 24 28  2  0  0  0  0
 25  6  1  0  0  0  0
 26  4  1  0  0  0  0
 27  8  2  0  0  0  0
 28  8  1  0  0  0  0
 30 29  1  0  0  0  0
 31 32  1  0  0  0  0
 31 25  1  0  0  0  0
M  END
>  <MODEL>
6

>  <REMARK>
 VINA RESULT:      -7.8      2.658      4.186
  Name = 
  2 active torsions:
  status: ('A' for Active; 'I' for Inactive)
    1  A    between atoms: C_13  and  CA_29
    2  A    between atoms: O_15  and  C_26
                            x       y       z     vdW  Elec       q    Type
                         _______ _______ _______ _____ _____    ______ ____

>  <TORSDO>
F 2

$$$$
=
 OpenBabel11052414363D

 32 37  0  0  1  0  0  0  0  0999 V2000
  182.7840  177.4230  140.3970 C   0  0  1  0  0  3  0  0  0  0  0  0
  185.1380  179.0210  142.1920 C   0  0  0  0  0  0  0  0  0  0  0  0
  182.1330  176.0650  136.8110 C   0  0  0  0  0  0  0  0  0  0  0  0
  181.9180  178.6970  140.4480 C   0  0  0  0  0  2  0  0  0  0  0  0
  183.8390  179.3430  142.1950 N   0  0  0  0  0  0  0  0  0  0  0  0
  185.7410  178.5860  143.3740 C   0  0  0  0  0  0  0  0  0  0  0  0
  180.9800  175.3620  136.6930 F   0  0  0  0  0  0  0  0  0  0  0  0
  189.2040  177.6860  139.8040 C   0  0  0  0  0  3  0  0  0  0  0  0
  185.7820  178.8290  140.9320 N   0  0  0  0  0  0  0  0  0  0  0  0
  189.2280  177.6160  142.3030 C   0  0  0  0  0  3  0  0  0  0  0  0
  187.7910  178.0550  142.2450 C   0  0  0  0  0  0  0  0  0  0  0  0
  183.0380  179.1060  143.2460 C   0  0  0  0  0  0  0  0  0  0  0  0
  183.7670  177.1960  138.1820 C   0  0  0  0  0  0  0  0  0  0  0  0
  187.1140  178.1590  143.3530 N   0  0  0  0  0  0  0  0  0  0  0  0
  183.5850  178.6900  144.4210 N   0  0  0  0  0  0  0  0  0  0  0  0
  182.8770  176.3900  135.6700 C   0  0  0  0  0  3  0  0  0  0  0  0
  184.5280  177.5120  137.0510 C   0  0  0  0  0  3  0  0  0  0  0  0
  181.5980  178.9740  142.9730 C   0  0  0  0  0  3  0  0  0  0  0  0
  182.6060  176.4580  138.0660 C   0  0  0  0  0  0  0  0  0  0  0  0
  181.7910  176.0990  139.6120 S   0  0  0  0  0  0  0  0  0  0  0  0
  184.9490  178.8410  139.7170 C   0  0  0  0  0  2  0  0  0  0  0  0
  184.0830  177.1100  135.7850 C   0  0  0  0  0  0  0  0  0  0  0  0
  184.1110  177.5470  139.5840 C   0  0  1  0  0  3  0  0  0  0  0  0
  187.1420  178.3580  140.9380 C   0  0  1  0  0  3  0  0  0  0  0  0
  184.9320  178.4770  144.5220 C   0  0  0  0  0  0  0  0  0  0  0  0
  181.1000  178.7920  141.7290 C   0  0  0  0  0  3  0  0  0  0  0  0
  189.8490  177.4220  140.9430 C   0  0  0  0  0  3  0  0  0  0  0  0
  187.8170  178.1780  139.7990 C   0  0  0  0  0  3  0  0  0  0  0  0
  186.2690  177.4940  134.6920 C   0  0  0  0  0  1  0  0  0  0  0  0
  184.8490  177.4380  134.6640 O   0  0  0  0  0  0  0  0  0  0  0  0
  185.5100  178.0380  145.8240 C   0  0  0  0  0  2  0  0  0  0  0  0
  184.7710  178.5860  146.8720 O   0  0  0  0  0  1  0  0  0  0  0  0
  1  4  1  6  0  0  0
  2  5  1  0  0  0  0
  2  6  2  0  0  0  0
  3 19  1  0  0  0  0
  4 26  1  0  0  0  0
  5 12  2  0  0  0  0
  6 25  1  0  0  0  0
  7  3  1  0  0  0  0
  8 27  1  0  0  0  0
  9 24  1  0  0  0  0
  9  2  1  0  0  0  0
 11 10  1  0  0  0  0
 11 14  2  0  0  0  0
 12 15  1  0  0  0  0
 13 23  1  0  0  0  0
 14  6  1  0  0  0  0
 15 25  2  0  0  0  0
 16 22  1  0  0  0  0
 16  3  2  0  0  0  0
 17 13  1  0  0  0  0
 18 12  1  0  0  0  0
 19 13  2  0  0  0  0
 19 20  1  0  0  0  0
 20  1  1  0  0  0  0
 21  9  1  0  0  0  0
 22 17  2  0  0  0  0
 23 21  1  6  0  0  0
 23  1  1  0  0  0  0
 24 28  1  6  0  0  0
 24 11  1  0  0  0  0
 25 31  1  0  0  0  0
 26 18  2  0  0  0  0
 27 10  2  0  0  0  0
 28  8  2  0  0  0  0
 30 29  1  0  0  0  0
 30 22  1  0  0  0  0
 31 32  1  0  0  0  0
M  END
>  <MODEL>
7

>  <REMARK>
 VINA RESULT:      -7.6      3.650      7.864
  Name = 
  2 active torsions:
  status: ('A' for Active; 'I' for Inactive)
    1  A    between atoms: C_13  and  CA_29
    2  A    between atoms: O_15  and  C_26
                            x       y       z     vdW  Elec       q    Type
                         _______ _______ _______ _____ _____    ______ ____

>  <TORSDO>
F 2

$$$$
=
 OpenBabel11052414363D

 32 37  0  0  1  0  0  0  0  0999 V2000
  186.8240  176.7590  138.2800 C   0  0  1  0  0  3  0  0  0  0  0  0
  187.0100  178.6150  141.0800 C   0  0  0  0  0  0  0  0  0  0  0  0
  189.0830  174.7110  135.8660 C   0  0  0  0  0  0  0  0  0  0  0  0
  186.5370  178.0450  137.4800 C   0  0  0  0  0  2  0  0  0  0  0  0
  186.3370  178.9740  139.9810 N   0  0  0  0  0  0  0  0  0  0  0  0
  186.3170  178.4130  142.2760 C   0  0  0  0  0  0  0  0  0  0  0  0
  188.3960  174.0390  134.9110 F   0  0  0  0  0  0  0  0  0  0  0  0
  190.9680  176.6770  143.2260 C   0  0  0  0  0  3  0  0  0  0  0  0
  188.3500  178.1440  140.9280 N   0  0  0  0  0  0  0  0  0  0  0  0
  188.9580  177.1260  144.6440 C   0  0  0  0  0  3  0  0  0  0  0  0
  188.2790  177.5910  143.3860 C   0  0  0  0  0  0  0  0  0  0  0  0
  184.9960  178.9870  139.9260 C   0  0  0  0  0  0  0  0  0  0  0  0
  189.1160  176.0460  137.8770 C   0  0  0  0  0  0  0  0  0  0  0  0
  187.0260  177.9450  143.4360 N   0  0  0  0  0  0  0  0  0  0  0  0
  184.2800  178.8050  141.0700 N   0  0  0  0  0  0  0  0  0  0  0  0
  190.4820  174.7680  135.8150 C   0  0  0  0  0  3  0  0  0  0  0  0
  190.5140  176.0950  137.8480 C   0  0  0  0  0  3  0  0  0  0  0  0
  184.3790  178.8500  138.5980 C   0  0  0  0  0  3  0  0  0  0  0  0
  188.4150  175.3400  136.9200 C   0  0  0  0  0  0  0  0  0  0  0  0
  186.6450  175.3360  137.1410 S   0  0  0  0  0  0  0  0  0  0  0  0
  188.8600  177.9320  139.5620 C   0  0  0  0  0  2  0  0  0  0  0  0
  191.2050  175.4550  136.8110 C   0  0  0  0  0  0  0  0  0  0  0  0
  188.2490  176.6670  138.9110 C   0  0  1  0  0  3  0  0  0  0  0  0
  189.0210  177.6390  142.0950 C   0  0  1  0  0  3  0  0  0  0  0  0
  184.9170  178.5720  142.2570 C   0  0  0  0  0  0  0  0  0  0  0  0
  185.0640  178.4310  137.5100 C   0  0  0  0  0  3  0  0  0  0  0  0
  190.3650  176.6330  144.4170 C   0  0  0  0  0  3  0  0  0  0  0  0
  190.2840  177.2040  142.0340 C   0  0  0  0  0  3  0  0  0  0  0  0
  193.4100  175.0130  137.8420 C   0  0  0  0  0  1  0  0  0  0  0  0
  192.6010  175.5180  136.7890 O   0  0  0  0  0  0  0  0  0  0  0  0
  184.1120  178.3930  143.4990 C   0  0  0  0  0  2  0  0  0  0  0  0
  182.8180  178.8680  143.2900 O   0  0  0  0  0  1  0  0  0  0  0  0
  1  4  1  6  0  0  0
  1 23  1  0  0  0  0
  2  6  2  0  0  0  0
  3 19  1  0  0  0  0
  4 26  1  0  0  0  0
  5  2  1  0  0  0  0
  6 14  1  0  0  0  0
  7  3  1  0  0  0  0
  8 27  1  0  0  0  0
  9  2  1  0  0  0  0
  9 24  1  0  0  0  0
 11 14  2  0  0  0  0
 11 10  1  0  0  0  0
 12  5  2  0  0  0  0
 12 15  1  0  0  0  0
 13 23  1  0  0  0  0
 15 25  2  0  0  0  0
 16  3  2  0  0  0  0
 16 22  1  0  0  0  0
 17 13  1  0  0  0  0
 18 12  1  0  0  0  0
 19 20  1  0  0  0  0
 19 13  2  0  0  0  0
 20  1  1  0  0  0  0
 21  9  1  0  0  0  0
 22 17  2  0  0  0  0
 23 21  1  6  0  0  0
 24 28  1  6  0  0  0
 24 11  1  0  0  0  0
 25  6  1  0  0  0  0
 25 31  1  0  0  0  0
 26 18  2  0  0  0  0
 27 10  2  0  0  0  0
 28  8  2  0  0  0  0
 30 22  1  0  0  0  0
 30 29  1  0  0  0  0
 32 31  1  0  0  0  0
M  END
>  <MODEL>
8

>  <REMARK>
 VINA RESULT:      -7.2      3.043      7.997
  Name = 
  2 active torsions:
  status: ('A' for Active; 'I' for Inactive)
    1  A    between atoms: C_13  and  CA_29
    2  A    between atoms: O_15  and  C_26
                            x       y       z     vdW  Elec       q    Type
                         _______ _______ _______ _____ _____    ______ ____

>  <TORSDO>
F 2

$$$$
=
 OpenBabel11052414363D

 32 37  0  0  1  0  0  0  0  0999 V2000
  182.6480  177.5210  138.3500 C   0  0  1  0  0  3  0  0  0  0  0  0
  182.9580  179.3330  141.1680 C   0  0  0  0  0  0  0  0  0  0  0  0
  184.8130  175.9040  135.5530 C   0  0  0  0  0  0  0  0  0  0  0  0
  182.0470  178.7570  137.6530 C   0  0  0  0  0  2  0  0  0  0  0  0
  182.0800  179.5980  140.1930 N   0  0  0  0  0  0  0  0  0  0  0  0
  182.4910  179.0030  142.4410 C   0  0  0  0  0  0  0  0  0  0  0  0
  184.1050  175.1470  134.6810 F   0  0  0  0  0  0  0  0  0  0  0  0
  187.4450  178.0200  142.6370 C   0  0  0  0  0  3  0  0  0  0  0  0
  184.3160  179.0870  140.8030 N   0  0  0  0  0  0  0  0  0  0  0  0
  185.6250  178.1160  144.3480 C   0  0  0  0  0  3  0  0  0  0  0  0
  184.7010  178.4880  143.2220 C   0  0  0  0  0  0  0  0  0  0  0  0
  180.7600  179.3970  140.3330 C   0  0  0  0  0  0  0  0  0  0  0  0
  184.9370  177.1920  137.5910 C   0  0  0  0  0  0  0  0  0  0  0  0
  183.4290  178.6350  143.4670 N   0  0  0  0  0  0  0  0  0  0  0  0
  180.2600  179.0830  141.5600 N   0  0  0  0  0  0  0  0  0  0  0  0
  186.1630  176.1860  135.3030 C   0  0  0  0  0  3  0  0  0  0  0  0
  186.2900  177.4660  137.3620 C   0  0  0  0  0  3  0  0  0  0  0  0
  179.9810  179.1860  139.1030 C   0  0  0  0  0  3  0  0  0  0  0  0
  184.2200  176.3990  136.7180 C   0  0  0  0  0  0  0  0  0  0  0  0
  182.5250  176.1070  137.1910 S   0  0  0  0  0  0  0  0  0  0  0  0
  184.6430  178.9830  139.3700 C   0  0  0  0  0  2  0  0  0  0  0  0
  186.9100  176.9630  136.2100 C   0  0  0  0  0  0  0  0  0  0  0  0
  184.1480  177.6480  138.7640 C   0  0  1  0  0  3  0  0  0  0  0  0
  185.2250  178.6760  141.8400 C   0  0  1  0  0  3  0  0  0  0  0  0
  181.0970  178.9340  142.6320 C   0  0  0  0  0  0  0  0  0  0  0  0
  180.5530  178.9010  137.9110 C   0  0  0  0  0  3  0  0  0  0  0  0
  187.0410  177.8600  143.9000 C   0  0  0  0  0  3  0  0  0  0  0  0
  186.5170  178.4510  141.5800 C   0  0  0  0  0  3  0  0  0  0  0  0
  188.9630  178.2450  136.7190 C   0  0  0  0  0  1  0  0  0  0  0  0
  188.2590  177.2490  135.9890 O   0  0  0  0  0  0  0  0  0  0  0  0
  180.5240  178.6070  143.9690 C   0  0  0  0  0  2  0  0  0  0  0  0
  179.6810  177.5020  143.8590 O   0  0  0  0  0  1  0  0  0  0  0  0
  1  4  1  6  0  0  0
  1 23  1  0  0  0  0
  2  6  2  0  0  0  0
  3 19  1  0  0  0  0
  4 26  1  0  0  0  0
  5 12  2  0  0  0  0
  5  2  1  0  0  0  0
  6 25  1  0  0  0  0
  6 14  1  0  0  0  0
  7  3  1  0  0  0  0
  8 27  1  0  0  0  0
  9  2  1  0  0  0  0
  9 24  1  0  0  0  0
 11 14  2  0  0  0  0
 11 10  1  0  0  0  0
 12 15  1  0  0  0  0
 13 23  1  0  0  0  0
 15 25  2  0  0  0  0
 16  3  2  0  0  0  0
 16 22  1  0  0  0  0
 17 13  1  0  0  0  0
 18 12  1  0  0  0  0
 19 20  1  0  0  0  0
 19 13  2  0  0  0  0
 20  1  1  0  0  0  0
 21  9  1  0  0  0  0
 22 17  2  0  0  0  0
 23 21  1  6  0  0  0
 24 28  1  6  0  0  0
 24 11  1  0  0  0  0
 25 31  1  0  0  0  0
 26 18  2  0  0  0  0
 27 10  2  0  0  0  0
 28  8  2  0  0  0  0
 30 22  1  0  0  0  0
 30 29  1  0  0  0  0
 32 31  1  0  0  0  0
M  END
>  <MODEL>
9

>  <REMARK>
 VINA RESULT:      -7.0      4.102      8.855
  Name = 
  2 active torsions:
  status: ('A' for Active; 'I' for Inactive)
    1  A    between atoms: C_13  and  CA_29
    2  A    between atoms: O_15  and  C_26
                            x       y       z     vdW  Elec       q    Type
                         _______ _______ _______ _____ _____    ______ ____

>  <TORSDO>
F 2

$$$$
