=
 OpenBabel11052414593D

 55 61  0  0  1  0  0  0  0  0999 V2000
  190.7270  176.5500  138.8470 C   0  0  1  0  0  3  0  0  0  0  0  0
  192.2370  176.4530  138.7600 C   0  0  0  0  0  2  0  0  0  0  0  0
  192.6310  175.3050  137.8350 C   0  0  0  0  0  2  0  0  0  0  0  0
  192.6610  175.6720  135.1230 S   0  0  0  0  0  1  0  0  0  0  0  0
  193.5810  175.7320  136.7060 C   0  0  1  0  0  0  0  0  0  0  0  0
  193.9140  177.0540  136.9370 F   0  0  0  0  0  0  0  0  0  0  0  0
  195.0270  173.0430  138.5780 C   0  0  0  0  0  2  0  0  0  0  0  0
  196.8870  172.9420  136.8690 O   0  0  0  0  0  0  0  0  0  0  0  0
  194.8930  174.8730  136.6570 C   0  0  1  0  0  0  0  0  0  0  0  0
  193.4950  172.9740  136.0760 F   0  0  0  0  0  0  0  0  0  0  0  0
  194.6980  173.6100  135.7860 C   0  0  2  0  0  3  0  0  0  0  0  0
  195.4560  175.4040  139.0680 O   0  0  0  0  0  1  0  0  0  0  0  0
  196.4510  173.4020  138.1510 C   0  0  1  0  0  3  0  0  0  0  0  0
  195.8870  172.6300  135.9130 C   0  0  2  0  0  3  0  0  0  0  0  0
  195.9220  175.6310  136.0900 O   0  0  0  0  0  1  0  0  0  0  0  0
  195.3430  174.4380  138.0720 C   0  0  1  0  0  0  0  0  0  0  0  0
  195.6260  171.1330  135.7880 C   0  0  1  0  0  3  0  0  0  0  0  0
  194.9890  170.8290  134.5940 O   0  0  0  0  0  1  0  0  0  0  0  0
  196.9160  170.3600  135.9040 C   0  0  0  0  0  2  0  0  0  0  0  0
  197.6870  170.5790  134.7700 O   0  0  0  0  0  1  0  0  0  0  0  0
  190.3290  177.1240  140.2050 C   0  0  0  0  0  2  0  0  0  0  0  0
  191.5510  177.5620  140.9960 C   0  0  0  0  0  2  0  0  0  0  0  0
  191.1800  177.8740  142.3320 O   0  0  0  0  0  0  0  0  0  0  0  0
  190.2010  175.9240  143.0330 O   0  0  0  0  0  0  0  0  0  0  0  0
  189.0640  177.8910  143.5690 N   0  0  0  0  0  2  0  0  0  0  0  0
  190.1620  177.1820  142.9860 C   0  0  0  0  0  0  0  0  0  0  0  0
  185.1710  177.6210  141.8160 C   0  0  0  0  0  3  0  0  0  0  0  0
  189.1780  176.8560  146.4400 C   0  0  0  0  0  3  0  0  0  0  0  0
  183.5380  179.6200  144.5860 C   0  0  0  0  0  2  0  0  0  0  0  0
  189.3380  177.0870  147.8100 C   0  0  0  0  0  3  0  0  0  0  0  0
  187.1820  178.2320  146.4440 C   0  0  0  0  0  0  0  0  0  0  0  0
  187.3520  178.4680  147.8110 C   0  0  0  0  0  3  0  0  0  0  0  0
  188.4280  177.8960  148.4940 C   0  0  0  0  0  3  0  0  0  0  0  0
  188.1020  177.4250  145.7480 C   0  0  0  0  0  0  0  0  0  0  0  0
  186.3480  177.2710  142.4050 N   0  0  0  0  0  0  0  0  0  0  0  0
  181.8890  179.3850  142.7480 C   0  0  2  0  0  3  0  0  0  0  0  0
  185.7570  178.4270  144.4120 C   0  0  0  0  0  0  0  0  0  0  0  0
  184.2410  178.3930  142.5090 C   0  0  0  0  0  0  0  0  0  0  0  0
  186.0440  178.7700  145.7710 N   0  0  0  0  0  0  0  0  0  0  0  0
  182.9040  178.6550  141.8690 C   0  0  0  0  0  2  0  0  0  0  0  0
  187.9810  177.2070  144.2600 C   0  0  0  0  0  0  0  0  0  0  0  0
  182.1330  179.1610  144.2380 C   0  0  0  0  0  2  0  0  0  0  0  0
  186.6580  177.6390  143.6770 C   0  0  0  0  0  0  0  0  0  0  0  0
  184.5390  178.8060  143.8220 C   0  0  0  0  0  0  0  0  0  0  0  0
  180.6060  178.9400  142.4160 O   0  0  0  0  0  0  0  0  0  0  0  0
  180.7800  178.0110  141.3930 C   0  0  0  0  0  2  0  0  0  0  0  0
  179.4920  177.2260  141.2180 C   0  0  0  0  0  1  0  0  0  0  0  0
  190.2220  177.4420  137.7250 C   0  0  0  0  0  2  0  0  0  0  0  0
  189.3210  176.6330  136.8030 C   0  0  0  0  0  2  0  0  0  0  0  0
  185.1690  177.3340  137.6690 C   0  0  0  0  0  3  0  0  0  0  0  0
  187.8830  176.8720  137.1210 C   0  0  0  0  0  0  0  0  0  0  0  0
  186.9170  175.9540  136.6920 C   0  0  0  0  0  3  0  0  0  0  0  0
  186.1350  178.2490  138.1020 C   0  0  0  0  0  3  0  0  0  0  0  0
  185.5600  176.1860  136.9650 C   0  0  0  0  0  3  0  0  0  0  0  0
  187.4920  178.0180  137.8290 C   0  0  0  0  0  3  0  0  0  0  0  0
  1 48  1  6  0  0  0
  1 21  1  0  0  0  0
  2  1  1  0  0  0  0
  3  2  1  0  0  0  0
  5  4  1  6  0  0  0
  5  6  1  0  0  0  0
  5  3  1  0  0  0  0
  8 13  1  0  0  0  0
  9 15  1  6  0  0  0
  9  5  1  0  0  0  0
  9 16  1  0  0  0  0
 11 14  1  0  0  0  0
 11 10  1  1  0  0  0
 11  9  1  0  0  0  0
 13  7  1  1  0  0  0
 14 17  1  1  0  0  0
 14  8  1  0  0  0  0
 16 13  1  0  0  0  0
 16  7  1  0  0  0  0
 16 12  1  1  0  0  0
 17 18  1  6  0  0  0
 17 19  1  0  0  0  0
 20 19  1  0  0  0  0
 21 22  1  0  0  0  0
 22 23  1  0  0  0  0
 23 26  1  0  0  0  0
 25 41  1  0  0  0  0
 26 24  2  0  0  0  0
 26 25  1  0  0  0  0
 27 35  2  0  0  0  0
 27 38  1  0  0  0  0
 28 30  1  0  0  0  0
 30 33  2  0  0  0  0
 31 32  2  0  0  0  0
 32 33  1  0  0  0  0
 34 28  2  0  0  0  0
 34 31  1  0  0  0  0
 35 43  1  0  0  0  0
 36 45  1  6  0  0  0
 36 42  1  0  0  0  0
 37 39  2  0  0  0  0
 38 44  2  0  0  0  0
 39 31  1  0  0  0  0
 40 38  1  0  0  0  0
 40 36  1  0  0  0  0
 41 34  1  0  0  0  0
 42 29  1  0  0  0  0
 43 41  2  0  0  0  0
 43 37  1  0  0  0  0
 44 37  1  0  0  0  0
 44 29  1  0  0  0  0
 46 45  1  0  0  0  0
 47 46  1  0  0  0  0
 49 51  1  0  0  0  0
 49 48  1  0  0  0  0
 50 53  1  0  0  0  0
 51 55  1  0  0  0  0
 52 54  1  0  0  0  0
 52 51  2  0  0  0  0
 54 50  2  0  0  0  0
 55 53  2  0  0  0  0
M  END
>  <MODEL>
1

>  <REMARK>
 VINA RESULT:      -7.9      0.000      0.000
  Name = 
  16 active torsions:
  status: ('A' for Active; 'I' for Inactive)
    1  A    between atoms: O_4  and  C_37
    2  A    between atoms: O_4  and  C_40
    3  A    between atoms: C_6  and  C_20
    4  A    between atoms: C_8  and  C_22
    5  A    between atoms: C_8  and  C_43
    6  A    between atoms: O_10  and  C_18
    7  A    between atoms: O_10  and  C_32
    8  A    between atoms: C_11  and  C_29
    9  A    between atoms: N_19  and  C_45
   10  A    between atoms: C_20  and  C_22
   11  A    between atoms: C_27  and  C_54
   12  A    between atoms: C_29  and  C_38
   13  A    between atoms: C_35  and  C_37
   14  A    between atoms: C_35  and  C_43
   15  A    between atoms: C_43  and  C_51
   16  A    between atoms: C_51  and  C_54
                            x       y       z     vdW  Elec       q    Type
                         _______ _______ _______ _____ _____    ______ ____

>  <TORSDO>
F 16

$$$$
=
 OpenBabel11052414593D

 55 61  0  0  1  0  0  0  0  0999 V2000
  189.4750  175.4830  137.4990 C   0  0  1  0  0  3  0  0  0  0  0  0
  190.0950  176.6680  138.2120 C   0  0  0  0  0  2  0  0  0  0  0  0
  190.4430  176.2870  139.6480 C   0  0  0  0  0  2  0  0  0  0  0  0
  189.0680  178.6420  139.8780 S   0  0  0  0  0  1  0  0  0  0  0  0
  189.7130  177.1380  140.6980 C   0  0  1  0  0  0  0  0  0  0  0  0
  188.6210  176.4030  141.1240 F   0  0  0  0  0  0  0  0  0  0  0  0
  189.2420  177.7560  144.1940 C   0  0  0  0  0  2  0  0  0  0  0  0
  191.7560  177.8520  144.4480 O   0  0  0  0  0  0  0  0  0  0  0  0
  190.6140  177.4820  141.9360 C   0  0  1  0  0  0  0  0  0  0  0  0
  190.0450  175.2920  142.8170 F   0  0  0  0  0  0  0  0  0  0  0  0
  191.0900  176.1960  142.6510 C   0  0  2  0  0  3  0  0  0  0  0  0
  189.2340  179.5290  142.5040 O   0  0  0  0  0  1  0  0  0  0  0  0
  190.5290  178.5740  144.3070 C   0  0  1  0  0  3  0  0  0  0  0  0
  191.7740  176.5050  144.0020 C   0  0  2  0  0  3  0  0  0  0  0  0
  191.7470  178.1780  141.5040 O   0  0  0  0  0  1  0  0  0  0  0  0
  189.8650  178.3730  142.9550 C   0  0  1  0  0  0  0  0  0  0  0  0
  191.6500  175.4990  145.1400 C   0  0  1  0  0  3  0  0  0  0  0  0
  192.4170  174.3670  144.9000 O   0  0  0  0  0  1  0  0  0  0  0  0
  192.0460  176.1300  146.4510 C   0  0  0  0  0  2  0  0  0  0  0  0
  191.6840  175.2880  147.4950 O   0  0  0  0  0  1  0  0  0  0  0  0
  187.9540  175.5770  137.5800 C   0  0  0  0  0  2  0  0  0  0  0  0
  187.4050  176.5310  136.5320 C   0  0  0  0  0  2  0  0  0  0  0  0
  186.0420  176.8220  136.8040 O   0  0  0  0  0  0  0  0  0  0  0  0
  186.4380  178.9480  137.5610 O   0  0  0  0  0  0  0  0  0  0  0  0
  184.4380  177.9690  138.2620 N   0  0  0  0  0  2  0  0  0  0  0  0
  185.6680  177.9520  137.5300 C   0  0  0  0  0  0  0  0  0  0  0  0
  186.1240  178.7830  142.1080 C   0  0  0  0  0  3  0  0  0  0  0  0
  182.1050  179.8050  137.5450 C   0  0  0  0  0  3  0  0  0  0  0  0
  182.8110  178.3750  143.8970 C   0  0  0  0  0  2  0  0  0  0  0  0
  180.7420  179.9980  137.2990 C   0  0  0  0  0  3  0  0  0  0  0  0
  181.5980  179.1570  139.8250 C   0  0  0  0  0  0  0  0  0  0  0  0
  180.2360  179.3430  139.5710 C   0  0  0  0  0  3  0  0  0  0  0  0
  179.8080  179.7640  138.3100 C   0  0  0  0  0  3  0  0  0  0  0  0
  182.5430  179.3830  138.8070 C   0  0  0  0  0  0  0  0  0  0  0  0
  185.7090  178.9430  140.8220 N   0  0  0  0  0  0  0  0  0  0  0  0
  184.5950  178.4690  145.6180 C   0  0  2  0  0  3  0  0  0  0  0  0
  183.4180  178.7360  141.4720 C   0  0  0  0  0  0  0  0  0  0  0  0
  185.1940  178.5900  143.1280 C   0  0  0  0  0  0  0  0  0  0  0  0
  182.0280  178.7890  141.1360 N   0  0  0  0  0  0  0  0  0  0  0  0
  185.6860  178.5380  144.5500 C   0  0  0  0  0  2  0  0  0  0  0  0
  184.0120  179.1280  139.0320 C   0  0  0  0  0  0  0  0  0  0  0  0
  183.2780  179.0860  145.1540 C   0  0  0  0  0  2  0  0  0  0  0  0
  184.3920  178.9390  140.4810 C   0  0  0  0  0  0  0  0  0  0  0  0
  183.8240  178.5610  142.8060 C   0  0  0  0  0  0  0  0  0  0  0  0
  185.0430  179.1370  146.7600 O   0  0  0  0  0  0  0  0  0  0  0  0
  186.4330  179.1390  146.6780 C   0  0  0  0  0  2  0  0  0  0  0  0
  186.9920  178.2550  147.7790 C   0  0  0  0  0  1  0  0  0  0  0  0
  189.9310  175.4810  136.0500 C   0  0  0  0  0  2  0  0  0  0  0  0
  190.8210  174.2720  135.8010 C   0  0  0  0  0  2  0  0  0  0  0  0
  194.9140  175.2180  136.7080 C   0  0  0  0  0  3  0  0  0  0  0  0
  192.2470  174.5890  136.1020 C   0  0  0  0  0  0  0  0  0  0  0  0
  192.8550  174.0390  137.2370 C   0  0  0  0  0  3  0  0  0  0  0  0
  194.3090  175.7640  135.5710 C   0  0  0  0  0  3  0  0  0  0  0  0
  194.1880  174.3540  137.5400 C   0  0  0  0  0  3  0  0  0  0  0  0
  192.9750  175.4500  135.2670 C   0  0  0  0  0  3  0  0  0  0  0  0
  1 48  1  6  0  0  0
  1 21  1  0  0  0  0
  1  2  1  0  0  0  0
  2  3  1  0  0  0  0
  3  5  1  0  0  0  0
  5  4  1  6  0  0  0
  5  6  1  0  0  0  0
  5  9  1  0  0  0  0
  9 15  1  6  0  0  0
  9 11  1  0  0  0  0
  9 16  1  0  0  0  0
 11 10  1  1  0  0  0
 11 14  1  0  0  0  0
 13  7  1  1  0  0  0
 13  8  1  0  0  0  0
 14  8  1  0  0  0  0
 14 17  1  1  0  0  0
 16 12  1  6  0  0  0
 16  7  1  0  0  0  0
 16 13  1  0  0  0  0
 17 18  1  6  0  0  0
 17 19  1  0  0  0  0
 19 20  1  0  0  0  0
 22 23  1  0  0  0  0
 22 21  1  0  0  0  0
 23 26  1  0  0  0  0
 25 41  1  0  0  0  0
 26 24  2  0  0  0  0
 26 25  1  0  0  0  0
 27 38  1  0  0  0  0
 28 34  1  0  0  0  0
 29 42  1  0  0  0  0
 30 28  2  0  0  0  0
 30 33  1  0  0  0  0
 31 39  1  0  0  0  0
 32 31  1  0  0  0  0
 33 32  2  0  0  0  0
 34 41  1  0  0  0  0
 34 31  2  0  0  0  0
 35 27  2  0  0  0  0
 36 45  1  1  0  0  0
 37 44  1  0  0  0  0
 38 40  1  0  0  0  0
 39 37  2  0  0  0  0
 40 36  1  0  0  0  0
 41 43  2  0  0  0  0
 42 36  1  0  0  0  0
 43 35  1  0  0  0  0
 43 37  1  0  0  0  0
 44 38  2  0  0  0  0
 44 29  1  0  0  0  0
 46 45  1  0  0  0  0
 46 47  1  0  0  0  0
 49 48  1  0  0  0  0
 49 51  1  0  0  0  0
 50 54  1  0  0  0  0
 51 52  1  0  0  0  0
 52 54  2  0  0  0  0
 53 50  2  0  0  0  0
 55 53  1  0  0  0  0
 55 51  2  0  0  0  0
M  END
>  <MODEL>
2

>  <REMARK>
 VINA RESULT:      -7.8      3.795      7.794
  Name = 
  16 active torsions:
  status: ('A' for Active; 'I' for Inactive)
    1  A    between atoms: O_4  and  C_37
    2  A    between atoms: O_4  and  C_40
    3  A    between atoms: C_6  and  C_20
    4  A    between atoms: C_8  and  C_22
    5  A    between atoms: C_8  and  C_43
    6  A    between atoms: O_10  and  C_18
    7  A    between atoms: O_10  and  C_32
    8  A    between atoms: C_11  and  C_29
    9  A    between atoms: N_19  and  C_45
   10  A    between atoms: C_20  and  C_22
   11  A    between atoms: C_27  and  C_54
   12  A    between atoms: C_29  and  C_38
   13  A    between atoms: C_35  and  C_37
   14  A    between atoms: C_35  and  C_43
   15  A    between atoms: C_43  and  C_51
   16  A    between atoms: C_51  and  C_54
                            x       y       z     vdW  Elec       q    Type
                         _______ _______ _______ _____ _____    ______ ____

>  <TORSDO>
F 16

$$$$
=
 OpenBabel11052414593D

 55 61  0  0  1  0  0  0  0  0999 V2000
  185.4260  176.4110  136.6280 C   0  0  1  0  0  3  0  0  0  0  0  0
  184.2330  175.7300  137.2690 C   0  0  0  0  0  2  0  0  0  0  0  0
  182.9910  176.6050  137.1140 C   0  0  0  0  0  2  0  0  0  0  0  0
  181.3040  174.6530  138.0280 S   0  0  0  0  0  1  0  0  0  0  0  0
  181.9360  176.3630  138.2030 C   0  0  1  0  0  0  0  0  0  0  0  0
  182.5890  176.4350  139.4200 F   0  0  0  0  0  0  0  0  0  0  0  0
  180.7450  178.9970  140.3170 C   0  0  0  0  0  2  0  0  0  0  0  0
  179.0910  179.6120  138.5060 O   0  0  0  0  0  0  0  0  0  0  0  0
  180.7800  177.4230  138.1770 C   0  0  1  0  0  0  0  0  0  0  0  0
  182.4980  179.1260  137.9680 F   0  0  0  0  0  0  0  0  0  0  0  0
  181.2450  178.7360  137.5050 C   0  0  2  0  0  3  0  0  0  0  0  0
  179.9170  176.6950  140.4450 O   0  0  0  0  0  1  0  0  0  0  0  0
  179.3290  178.9310  139.7410 C   0  0  1  0  0  3  0  0  0  0  0  0
  180.2120  179.8730  137.6780 C   0  0  2  0  0  3  0  0  0  0  0  0
  179.7060  176.9190  137.4370 O   0  0  0  0  0  1  0  0  0  0  0  0
  180.2700  177.7460  139.6010 C   0  0  1  0  0  0  0  0  0  0  0  0
  180.7080  181.3110  137.7800 C   0  0  1  0  0  3  0  0  0  0  0  0
  181.1850  181.7690  136.5610 O   0  0  0  0  0  1  0  0  0  0  0  0
  179.6100  182.2140  138.2840 C   0  0  0  0  0  2  0  0  0  0  0  0
  179.9230  183.5330  137.9790 O   0  0  0  0  0  1  0  0  0  0  0  0
  186.4790  176.7050  137.6940 C   0  0  0  0  0  2  0  0  0  0  0  0
  187.8830  176.6070  137.1210 C   0  0  0  0  0  2  0  0  0  0  0  0
  188.8440  176.7410  138.1590 O   0  0  0  0  0  0  0  0  0  0  0  0
  188.9480  178.9170  138.8710 O   0  0  0  0  0  0  0  0  0  0  0  0
  188.3530  177.3390  140.4850 N   0  0  0  0  0  2  0  0  0  0  0  0
  188.7140  177.7110  139.1510 C   0  0  0  0  0  0  0  0  0  0  0  0
  191.3170  177.7040  143.5480 C   0  0  0  0  0  3  0  0  0  0  0  0
  185.8660  179.0370  140.9930 C   0  0  0  0  0  3  0  0  0  0  0  0
  188.9150  176.7180  146.3040 C   0  0  0  0  0  2  0  0  0  0  0  0
  184.5030  179.1380  141.2920 C   0  0  0  0  0  3  0  0  0  0  0  0
  186.2590  178.0010  143.1490 C   0  0  0  0  0  0  0  0  0  0  0  0
  184.8940  178.0960  143.4390 C   0  0  0  0  0  3  0  0  0  0  0  0
  184.0170  178.6640  142.5120 C   0  0  0  0  0  3  0  0  0  0  0  0
  186.7520  178.4690  141.9170 C   0  0  0  0  0  0  0  0  0  0  0  0
  190.4500  178.0210  142.5470 N   0  0  0  0  0  0  0  0  0  0  0  0
  191.2050  176.7120  147.2570 C   0  0  2  0  0  3  0  0  0  0  0  0
  188.5700  177.5030  143.9290 C   0  0  0  0  0  0  0  0  0  0  0  0
  190.8370  177.2700  144.7820 C   0  0  0  0  0  0  0  0  0  0  0  0
  187.1540  177.4770  144.1300 N   0  0  0  0  0  0  0  0  0  0  0  0
  191.8220  177.0460  145.8980 C   0  0  0  0  0  2  0  0  0  0  0  0
  188.2070  178.3200  141.5500 C   0  0  0  0  0  0  0  0  0  0  0  0
  189.7930  177.2670  147.4150 C   0  0  0  0  0  2  0  0  0  0  0  0
  189.1020  177.9460  142.7070 C   0  0  0  0  0  0  0  0  0  0  0  0
  189.4460  177.1630  144.9740 C   0  0  0  0  0  0  0  0  0  0  0  0
  192.0250  177.2350  148.2610 O   0  0  0  0  0  0  0  0  0  0  0  0
  192.9170  176.2180  148.5920 C   0  0  0  0  0  2  0  0  0  0  0  0
  193.7730  176.6760  149.7600 C   0  0  0  0  0  1  0  0  0  0  0  0
  185.9980  175.5020  135.5530 C   0  0  0  0  0  2  0  0  0  0  0  0
  185.4230  174.1030  135.7150 C   0  0  0  0  0  2  0  0  0  0  0  0
  188.4970  171.1150  135.3990 C   0  0  0  0  0  3  0  0  0  0  0  0
  186.4920  173.0700  135.5880 C   0  0  0  0  0  0  0  0  0  0  0  0
  186.1460  171.7130  135.5610 C   0  0  0  0  0  3  0  0  0  0  0  0
  188.8430  172.4710  135.4200 C   0  0  0  0  0  3  0  0  0  0  0  0
  187.1490  170.7370  135.4680 C   0  0  0  0  0  3  0  0  0  0  0  0
  187.8410  173.4490  135.5140 C   0  0  0  0  0  3  0  0  0  0  0  0
  1 48  1  6  0  0  0
  1  2  1  0  0  0  0
  1 21  1  0  0  0  0
  3  2  1  0  0  0  0
  3  5  1  0  0  0  0
  5  4  1  6  0  0  0
  5  6  1  0  0  0  0
  8 13  1  0  0  0  0
  9 15  1  6  0  0  0
  9  5  1  0  0  0  0
  9 16  1  0  0  0  0
 11 14  1  0  0  0  0
 11 10  1  1  0  0  0
 11  9  1  0  0  0  0
 13  7  1  1  0  0  0
 14 17  1  1  0  0  0
 14  8  1  0  0  0  0
 16 13  1  0  0  0  0
 16  7  1  0  0  0  0
 16 12  1  1  0  0  0
 17 18  1  6  0  0  0
 17 19  1  0  0  0  0
 20 19  1  0  0  0  0
 22 21  1  0  0  0  0
 22 23  1  0  0  0  0
 23 26  1  0  0  0  0
 24 26  2  0  0  0  0
 25 41  1  0  0  0  0
 26 25  1  0  0  0  0
 27 38  1  0  0  0  0
 28 30  2  0  0  0  0
 28 34  1  0  0  0  0
 29 42  1  0  0  0  0
 30 33  1  0  0  0  0
 31 32  1  0  0  0  0
 31 39  1  0  0  0  0
 33 32  2  0  0  0  0
 34 31  2  0  0  0  0
 35 43  1  0  0  0  0
 35 27  2  0  0  0  0
 36 42  1  0  0  0  0
 36 45  1  1  0  0  0
 37 39  2  0  0  0  0
 37 44  1  0  0  0  0
 38 44  2  0  0  0  0
 38 40  1  0  0  0  0
 40 36  1  0  0  0  0
 41 34  1  0  0  0  0
 41 43  2  0  0  0  0
 43 37  1  0  0  0  0
 44 29  1  0  0  0  0
 45 46  1  0  0  0  0
 46 47  1  0  0  0  0
 48 49  1  0  0  0  0
 50 53  2  0  0  0  0
 50 54  1  0  0  0  0
 51 49  1  0  0  0  0
 52 51  1  0  0  0  0
 53 55  1  0  0  0  0
 54 52  2  0  0  0  0
 55 51  2  0  0  0  0
M  END
>  <MODEL>
3

>  <REMARK>
 VINA RESULT:      -7.7      5.127     10.873
  Name = 
  16 active torsions:
  status: ('A' for Active; 'I' for Inactive)
    1  A    between atoms: O_4  and  C_37
    2  A    between atoms: O_4  and  C_40
    3  A    between atoms: C_6  and  C_20
    4  A    between atoms: C_8  and  C_22
    5  A    between atoms: C_8  and  C_43
    6  A    between atoms: O_10  and  C_18
    7  A    between atoms: O_10  and  C_32
    8  A    between atoms: C_11  and  C_29
    9  A    between atoms: N_19  and  C_45
   10  A    between atoms: C_20  and  C_22
   11  A    between atoms: C_27  and  C_54
   12  A    between atoms: C_29  and  C_38
   13  A    between atoms: C_35  and  C_37
   14  A    between atoms: C_35  and  C_43
   15  A    between atoms: C_43  and  C_51
   16  A    between atoms: C_51  and  C_54
                            x       y       z     vdW  Elec       q    Type
                         _______ _______ _______ _____ _____    ______ ____

>  <TORSDO>
F 16

$$$$
=
 OpenBabel11052414593D

 55 61  0  0  1  0  0  0  0  0999 V2000
  186.4520  178.9110  141.7330 C   0  0  1  0  0  3  0  0  0  0  0  0
  185.9200  178.5540  140.3600 C   0  0  0  0  0  2  0  0  0  0  0  0
  187.0710  178.1270  139.4520 C   0  0  0  0  0  2  0  0  0  0  0  0
  184.8360  177.8310  137.9000 S   0  0  0  0  0  1  0  0  0  0  0  0
  186.6600  177.9710  137.9800 C   0  0  1  0  0  0  0  0  0  0  0  0
  187.0100  179.1440  137.3370 F   0  0  0  0  0  0  0  0  0  0  0  0
  188.9350  177.5020  135.2540 C   0  0  0  0  0  2  0  0  0  0  0  0
  189.0430  175.0480  135.8540 O   0  0  0  0  0  0  0  0  0  0  0  0
  187.3740  176.7660  137.2740 C   0  0  1  0  0  0  0  0  0  0  0  0
  189.4660  177.6450  138.1360 F   0  0  0  0  0  0  0  0  0  0  0  0
  188.7460  176.4740  137.9250 C   0  0  2  0  0  3  0  0  0  0  0  0
  186.4990  177.4450  134.9960 O   0  0  0  0  0  1  0  0  0  0  0  0
  188.4810  176.0620  135.0150 C   0  0  1  0  0  3  0  0  0  0  0  0
  189.5710  175.4570  137.1050 C   0  0  2  0  0  3  0  0  0  0  0  0
  186.5840  175.6190  137.4030 O   0  0  0  0  0  1  0  0  0  0  0  0
  187.5850  177.0330  135.7650 C   0  0  1  0  0  0  0  0  0  0  0  0
  191.0910  175.5720  137.1010 C   0  0  1  0  0  3  0  0  0  0  0  0
  191.6490  174.9430  138.2050 O   0  0  0  0  0  1  0  0  0  0  0  0
  191.6630  174.9970  135.8290 C   0  0  0  0  0  2  0  0  0  0  0  0
  192.9150  175.5520  135.5950 O   0  0  0  0  0  1  0  0  0  0  0  0
  185.2960  179.3440  142.6320 C   0  0  0  0  0  2  0  0  0  0  0  0
  184.1550  178.3410  142.5820 C   0  0  0  0  0  2  0  0  0  0  0  0
  182.9470  178.9560  143.0040 O   0  0  0  0  0  0  0  0  0  0  0  0
  180.6620  178.8970  142.8350 O   0  0  0  0  0  0  0  0  0  0  0  0
  181.8420  178.6850  140.8320 N   0  0  0  0  0  2  0  0  0  0  0  0
  181.7780  178.8600  142.2510 C   0  0  0  0  0  0  0  0  0  0  0  0
  180.1960  174.8650  139.8360 C   0  0  0  0  0  3  0  0  0  0  0  0
  180.4890  181.0070  139.3810 C   0  0  0  0  0  3  0  0  0  0  0  0
  180.7710  175.3340  136.1230 C   0  0  0  0  0  2  0  0  0  0  0  0
  180.5290  182.0430  138.4410 C   0  0  0  0  0  3  0  0  0  0  0  0
  180.8270  179.3890  137.6080 C   0  0  0  0  0  0  0  0  0  0  0  0
  180.8770  180.4290  136.6740 C   0  0  0  0  0  3  0  0  0  0  0  0
  180.7270  181.7540  137.0900 C   0  0  0  0  0  3  0  0  0  0  0  0
  180.6380  179.6760  138.9730 C   0  0  0  0  0  0  0  0  0  0  0  0
  180.3040  176.1470  140.2810 N   0  0  0  0  0  0  0  0  0  0  0  0
  180.1540  172.9610  136.5000 C   0  0  2  0  0  3  0  0  0  0  0  0
  180.7220  176.9440  138.0670 C   0  0  0  0  0  0  0  0  0  0  0  0
  180.3510  174.5760  138.4820 C   0  0  0  0  0  0  0  0  0  0  0  0
  180.9170  178.0360  137.1630 N   0  0  0  0  0  0  0  0  0  0  0  0
  180.1050  173.1660  138.0150 C   0  0  0  0  0  2  0  0  0  0  0  0
  180.6460  178.5810  140.0100 C   0  0  0  0  0  0  0  0  0  0  0  0
  179.8090  174.2290  135.7240 C   0  0  0  0  0  2  0  0  0  0  0  0
  180.5460  177.1870  139.4390 C   0  0  0  0  0  0  0  0  0  0  0  0
  180.6220  175.6280  137.5860 C   0  0  0  0  0  0  0  0  0  0  0  0
  179.2560  171.9470  136.1570 O   0  0  0  0  0  0  0  0  0  0  0  0
  180.0100  170.9770  135.5020 C   0  0  0  0  0  2  0  0  0  0  0  0
  179.3340  169.6280  135.6770 C   0  0  0  0  0  1  0  0  0  0  0  0
  187.1580  177.7010  142.3220 C   0  0  0  0  0  2  0  0  0  0  0  0
  188.5180  178.1220  142.8590 C   0  0  0  0  0  2  0  0  0  0  0  0
  188.8730  177.1400  147.0290 C   0  0  0  0  0  3  0  0  0  0  0  0
  188.6400  177.7990  144.3110 C   0  0  0  0  0  0  0  0  0  0  0  0
  189.8880  177.4530  144.8420 C   0  0  0  0  0  3  0  0  0  0  0  0
  187.6260  177.4910  146.5000 C   0  0  0  0  0  3  0  0  0  0  0  0
  190.0040  177.1220  146.2010 C   0  0  0  0  0  3  0  0  0  0  0  0
  187.5090  177.8200  145.1410 C   0  0  0  0  0  3  0  0  0  0  0  0
  1  2  1  6  0  0  0
  1 48  1  0  0  0  0
  1 21  1  0  0  0  0
  3  2  1  0  0  0  0
  4  5  1  0  0  0  0
  5  6  1  6  0  0  0
  5  3  1  0  0  0  0
  7 16  1  0  0  0  0
  8 14  1  0  0  0  0
  9 15  1  1  0  0  0
  9 11  1  0  0  0  0
  9  5  1  0  0  0  0
 11 10  1  6  0  0  0
 13  7  1  1  0  0  0
 13 16  1  0  0  0  0
 13  8  1  0  0  0  0
 14 17  1  6  0  0  0
 14 11  1  0  0  0  0
 16 12  1  6  0  0  0
 16  9  1  0  0  0  0
 17 18  1  1  0  0  0
 19 17  1  0  0  0  0
 20 19  1  0  0  0  0
 22 21  1  0  0  0  0
 22 23  1  0  0  0  0
 25 26  1  0  0  0  0
 26 24  2  0  0  0  0
 26 23  1  0  0  0  0
 27 35  1  0  0  0  0
 29 44  1  0  0  0  0
 30 28  2  0  0  0  0
 31 34  1  0  0  0  0
 32 33  2  0  0  0  0
 32 31  1  0  0  0  0
 33 30  1  0  0  0  0
 34 28  1  0  0  0  0
 34 41  2  0  0  0  0
 36 45  1  1  0  0  0
 36 40  1  0  0  0  0
 37 43  1  0  0  0  0
 38 27  2  0  0  0  0
 39 31  2  0  0  0  0
 39 37  1  0  0  0  0
 40 38  1  0  0  0  0
 41 25  1  0  0  0  0
 42 29  1  0  0  0  0
 42 36  1  0  0  0  0
 43 41  1  0  0  0  0
 43 35  2  0  0  0  0
 44 37  2  0  0  0  0
 44 38  1  0  0  0  0
 46 47  1  0  0  0  0
 46 45  1  0  0  0  0
 48 49  1  0  0  0  0
 49 51  1  0  0  0  0
 51 52  2  0  0  0  0
 51 55  1  0  0  0  0
 52 54  1  0  0  0  0
 53 50  1  0  0  0  0
 54 50  2  0  0  0  0
 55 53  2  0  0  0  0
M  END
>  <MODEL>
4

>  <REMARK>
 VINA RESULT:      -7.5      4.394      8.645
  Name = 
  16 active torsions:
  status: ('A' for Active; 'I' for Inactive)
    1  A    between atoms: O_4  and  C_37
    2  A    between atoms: O_4  and  C_40
    3  A    between atoms: C_6  and  C_20
    4  A    between atoms: C_8  and  C_22
    5  A    between atoms: C_8  and  C_43
    6  A    between atoms: O_10  and  C_18
    7  A    between atoms: O_10  and  C_32
    8  A    between atoms: C_11  and  C_29
    9  A    between atoms: N_19  and  C_45
   10  A    between atoms: C_20  and  C_22
   11  A    between atoms: C_27  and  C_54
   12  A    between atoms: C_29  and  C_38
   13  A    between atoms: C_35  and  C_37
   14  A    between atoms: C_35  and  C_43
   15  A    between atoms: C_43  and  C_51
   16  A    between atoms: C_51  and  C_54
                            x       y       z     vdW  Elec       q    Type
                         _______ _______ _______ _____ _____    ______ ____

>  <TORSDO>
F 16

$$$$
=
 OpenBabel11052414593D

 55 61  0  0  1  0  0  0  0  0999 V2000
  185.4940  175.9120  136.4230 C   0  0  1  0  0  3  0  0  0  0  0  0
  184.2390  175.4140  137.1110 C   0  0  0  0  0  2  0  0  0  0  0  0
  183.1960  176.5280  137.1600 C   0  0  0  0  0  2  0  0  0  0  0  0
  181.6210  176.8520  134.9460 S   0  0  0  0  0  1  0  0  0  0  0  0
  181.8280  176.1060  136.6050 C   0  0  1  0  0  0  0  0  0  0  0  0
  181.8670  174.7340  136.4360 F   0  0  0  0  0  0  0  0  0  0  0  0
  180.7900  175.2620  139.9280 C   0  0  0  0  0  2  0  0  0  0  0  0
  178.9310  176.9620  139.7070 O   0  0  0  0  0  0  0  0  0  0  0  0
  180.6430  176.4710  137.5660 C   0  0  1  0  0  0  0  0  0  0  0  0
  182.2730  177.6040  138.9640 F   0  0  0  0  0  0  0  0  0  0  0  0
  180.9910  177.7030  138.4340 C   0  0  2  0  0  3  0  0  0  0  0  0
  180.0540  174.0360  137.9380 O   0  0  0  0  0  1  0  0  0  0  0  0
  179.3240  175.5880  139.6400 C   0  0  1  0  0  3  0  0  0  0  0  0
  179.9470  177.9380  139.5500 C   0  0  2  0  0  3  0  0  0  0  0  0
  179.5110  176.7860  136.8080 O   0  0  0  0  0  1  0  0  0  0  0  0
  180.2800  175.2910  138.4980 C   0  0  1  0  0  0  0  0  0  0  0  0
  180.4050  178.5400  140.8740 C   0  0  1  0  0  3  0  0  0  0  0  0
  180.8770  179.8340  140.7050 O   0  0  0  0  0  1  0  0  0  0  0  0
  179.2820  178.5200  141.8810 C   0  0  0  0  0  2  0  0  0  0  0  0
  179.6930  177.8310  143.0150 O   0  0  0  0  0  1  0  0  0  0  0  0
  186.7100  175.6040  137.2930 C   0  0  0  0  0  2  0  0  0  0  0  0
  187.8330  176.5960  137.0390 C   0  0  0  0  0  2  0  0  0  0  0  0
  188.7110  176.6350  138.1550 O   0  0  0  0  0  0  0  0  0  0  0  0
  188.8280  178.8230  138.8280 O   0  0  0  0  0  0  0  0  0  0  0  0
  188.2680  177.2730  140.4810 N   0  0  0  0  0  2  0  0  0  0  0  0
  188.6010  177.6220  139.1340 C   0  0  0  0  0  0  0  0  0  0  0  0
  191.2380  177.6150  143.5400 C   0  0  0  0  0  3  0  0  0  0  0  0
  185.8200  179.0340  140.9620 C   0  0  0  0  0  3  0  0  0  0  0  0
  188.8130  176.7230  146.3090 C   0  0  0  0  0  2  0  0  0  0  0  0
  184.4600  179.1710  141.2590 C   0  0  0  0  0  3  0  0  0  0  0  0
  186.1880  178.0210  143.1340 C   0  0  0  0  0  0  0  0  0  0  0  0
  184.8260  178.1510  143.4200 C   0  0  0  0  0  3  0  0  0  0  0  0
  183.9620  178.7260  142.4850 C   0  0  0  0  0  3  0  0  0  0  0  0
  186.6920  178.4600  141.8950 C   0  0  0  0  0  0  0  0  0  0  0  0
  190.3790  177.9370  142.5340 N   0  0  0  0  0  0  0  0  0  0  0  0
  191.1020  176.6790  147.2630 C   0  0  2  0  0  3  0  0  0  0  0  0
  188.4870  177.4820  143.9220 C   0  0  0  0  0  0  0  0  0  0  0  0
  190.7470  177.2100  144.7800 C   0  0  0  0  0  0  0  0  0  0  0  0
  187.0710  177.4910  144.1220 N   0  0  0  0  0  0  0  0  0  0  0  0
  191.7270  176.9800  145.9000 C   0  0  0  0  0  2  0  0  0  0  0  0
  188.1440  178.2720  141.5310 C   0  0  0  0  0  0  0  0  0  0  0  0
  189.7020  177.2690  147.4120 C   0  0  0  0  0  2  0  0  0  0  0  0
  189.0290  177.8950  142.6940 C   0  0  0  0  0  0  0  0  0  0  0  0
  189.3550  177.1370  144.9730 C   0  0  0  0  0  0  0  0  0  0  0  0
  191.9330  177.1980  148.2600 O   0  0  0  0  0  0  0  0  0  0  0  0
  192.8620  176.1980  148.5390 C   0  0  0  0  0  2  0  0  0  0  0  0
  193.6170  176.5680  149.8040 C   0  0  0  0  0  1  0  0  0  0  0  0
  185.6220  175.2310  135.0710 C   0  0  0  0  0  2  0  0  0  0  0  0
  184.7310  173.9980  135.0380 C   0  0  0  0  0  2  0  0  0  0  0  0
  187.0830  170.4010  135.1300 C   0  0  0  0  0  3  0  0  0  0  0  0
  185.5490  172.7510  135.0520 C   0  0  0  0  0  0  0  0  0  0  0  0
  184.9260  171.5150  135.2680 C   0  0  0  0  0  3  0  0  0  0  0  0
  187.7050  171.6340  134.9090 C   0  0  0  0  0  3  0  0  0  0  0  0
  185.6930  170.3410  135.3080 C   0  0  0  0  0  3  0  0  0  0  0  0
  186.9390  172.8100  134.8700 C   0  0  0  0  0  3  0  0  0  0  0  0
  1 48  1  6  0  0  0
  1  2  1  0  0  0  0
  1 21  1  0  0  0  0
  2  3  1  0  0  0  0
  5  4  1  6  0  0  0
  5  3  1  0  0  0  0
  5  9  1  0  0  0  0
  6  5  1  0  0  0  0
  9 15  1  6  0  0  0
  9 11  1  0  0  0  0
  9 16  1  0  0  0  0
 11 10  1  1  0  0  0
 11 14  1  0  0  0  0
 13  8  1  0  0  0  0
 13  7  1  1  0  0  0
 14  8  1  0  0  0  0
 14 17  1  1  0  0  0
 16 12  1  6  0  0  0
 16 13  1  0  0  0  0
 16  7  1  0  0  0  0
 17 18  1  6  0  0  0
 17 19  1  0  0  0  0
 19 20  1  0  0  0  0
 22 21  1  0  0  0  0
 22 23  1  0  0  0  0
 23 26  1  0  0  0  0
 24 26  2  0  0  0  0
 25 41  1  0  0  0  0
 26 25  1  0  0  0  0
 27 38  1  0  0  0  0
 28 30  2  0  0  0  0
 28 34  1  0  0  0  0
 29 42  1  0  0  0  0
 30 33  1  0  0  0  0
 31 32  1  0  0  0  0
 31 39  1  0  0  0  0
 33 32  2  0  0  0  0
 34 31  2  0  0  0  0
 35 43  1  0  0  0  0
 35 27  2  0  0  0  0
 36 42  1  0  0  0  0
 36 45  1  1  0  0  0
 37 39  2  0  0  0  0
 37 44  1  0  0  0  0
 38 44  2  0  0  0  0
 38 40  1  0  0  0  0
 40 36  1  0  0  0  0
 41 34  1  0  0  0  0
 41 43  2  0  0  0  0
 43 37  1  0  0  0  0
 44 29  1  0  0  0  0
 45 46  1  0  0  0  0
 46 47  1  0  0  0  0
 49 51  1  0  0  0  0
 49 48  1  0  0  0  0
 50 54  1  0  0  0  0
 51 52  1  0  0  0  0
 52 54  2  0  0  0  0
 53 50  2  0  0  0  0
 55 53  1  0  0  0  0
 55 51  2  0  0  0  0
M  END
>  <MODEL>
5

>  <REMARK>
 VINA RESULT:      -7.5      5.285     10.743
  Name = 
  16 active torsions:
  status: ('A' for Active; 'I' for Inactive)
    1  A    between atoms: O_4  and  C_37
    2  A    between atoms: O_4  and  C_40
    3  A    between atoms: C_6  and  C_20
    4  A    between atoms: C_8  and  C_22
    5  A    between atoms: C_8  and  C_43
    6  A    between atoms: O_10  and  C_18
    7  A    between atoms: O_10  and  C_32
    8  A    between atoms: C_11  and  C_29
    9  A    between atoms: N_19  and  C_45
   10  A    between atoms: C_20  and  C_22
   11  A    between atoms: C_27  and  C_54
   12  A    between atoms: C_29  and  C_38
   13  A    between atoms: C_35  and  C_37
   14  A    between atoms: C_35  and  C_43
   15  A    between atoms: C_43  and  C_51
   16  A    between atoms: C_51  and  C_54
                            x       y       z     vdW  Elec       q    Type
                         _______ _______ _______ _____ _____    ______ ____

>  <TORSDO>
F 16

$$$$
=
 OpenBabel11052414593D

 55 61  0  0  1  0  0  0  0  0999 V2000
  189.8020  176.0970  137.7300 C   0  0  1  0  0  3  0  0  0  0  0  0
  189.7690  177.1140  138.8540 C   0  0  0  0  0  2  0  0  0  0  0  0
  190.0230  176.4210  140.1900 C   0  0  0  0  0  2  0  0  0  0  0  0
  189.1660  178.8810  141.0280 S   0  0  0  0  0  1  0  0  0  0  0  0
  189.3000  177.0870  141.3690 C   0  0  1  0  0  0  0  0  0  0  0  0
  188.0150  176.5780  141.3940 F   0  0  0  0  0  0  0  0  0  0  0  0
  190.8720  178.9940  143.9620 C   0  0  0  0  0  2  0  0  0  0  0  0
  191.0720  176.8660  145.3130 O   0  0  0  0  0  0  0  0  0  0  0  0
  189.9930  176.8000  142.7480 C   0  0  1  0  0  0  0  0  0  0  0  0
  188.1320  177.9560  143.7960 F   0  0  0  0  0  0  0  0  0  0  0  0
  188.9680  176.8490  143.9050 C   0  0  2  0  0  3  0  0  0  0  0  0
  192.0960  178.0370  142.0680 O   0  0  0  0  0  1  0  0  0  0  0  0
  191.7070  177.8060  144.4420 C   0  0  1  0  0  3  0  0  0  0  0  0
  189.6550  176.8080  145.2890 C   0  0  2  0  0  3  0  0  0  0  0  0
  190.5560  175.5200  142.7260 O   0  0  0  0  0  1  0  0  0  0  0  0
  191.1230  177.8150  143.0400 C   0  0  1  0  0  0  0  0  0  0  0  0
  189.0080  177.5460  146.4560 C   0  0  1  0  0  3  0  0  0  0  0  0
  187.7400  177.0510  146.7250 O   0  0  0  0  0  1  0  0  0  0  0  0
  189.8760  177.4540  147.6860 C   0  0  0  0  0  2  0  0  0  0  0  0
  189.3470  178.2630  148.6840 O   0  0  0  0  0  1  0  0  0  0  0  0
  188.3920  175.5740  137.4720 C   0  0  0  0  0  2  0  0  0  0  0  0
  187.9080  175.9610  136.0840 C   0  0  0  0  0  2  0  0  0  0  0  0
  186.4910  176.0640  136.0720 O   0  0  0  0  0  0  0  0  0  0  0  0
  186.4160  178.3130  136.5040 O   0  0  0  0  0  0  0  0  0  0  0  0
  184.5410  177.0830  137.1520 N   0  0  0  0  0  2  0  0  0  0  0  0
  185.8390  177.1950  136.5600 C   0  0  0  0  0  0  0  0  0  0  0  0
  185.6700  178.8600  140.8750 C   0  0  0  0  0  3  0  0  0  0  0  0
  181.9690  178.2450  135.9820 C   0  0  0  0  0  3  0  0  0  0  0  0
  182.3510  178.0710  142.5180 C   0  0  0  0  0  2  0  0  0  0  0  0
  180.6230  178.1050  135.6290 C   0  0  0  0  0  3  0  0  0  0  0  0
  181.3900  177.8940  138.3100 C   0  0  0  0  0  0  0  0  0  0  0  0
  180.0480  177.7450  137.9500 C   0  0  0  0  0  3  0  0  0  0  0  0
  179.6640  177.8510  136.6110 C   0  0  0  0  0  3  0  0  0  0  0  0
  182.3620  178.1400  137.3220 C   0  0  0  0  0  0  0  0  0  0  0  0
  185.3530  178.7130  139.5590 N   0  0  0  0  0  0  0  0  0  0  0  0
  183.9140  178.8210  144.2910 C   0  0  2  0  0  3  0  0  0  0  0  0
  183.0970  178.1420  140.1060 C   0  0  0  0  0  0  0  0  0  0  0  0
  184.7060  178.6490  141.8590 C   0  0  0  0  0  0  0  0  0  0  0  0
  181.7610  177.8470  139.6880 N   0  0  0  0  0  0  0  0  0  0  0  0
  185.0650  178.9390  143.2920 C   0  0  0  0  0  2  0  0  0  0  0  0
  183.8260  178.2390  137.6730 C   0  0  0  0  0  0  0  0  0  0  0  0
  182.5510  179.0630  143.6490 C   0  0  0  0  0  2  0  0  0  0  0  0
  184.1000  178.3770  139.1510 C   0  0  0  0  0  0  0  0  0  0  0  0
  183.4040  178.2810  141.4710 C   0  0  0  0  0  0  0  0  0  0  0  0
  184.1160  179.7490  145.3170 O   0  0  0  0  0  0  0  0  0  0  0  0
  185.2780  179.3470  145.9700 C   0  0  0  0  0  2  0  0  0  0  0  0
  184.9300  178.2510  146.9620 C   0  0  0  0  0  1  0  0  0  0  0  0
  190.3620  176.7560  136.4810 C   0  0  0  0  0  2  0  0  0  0  0  0
  191.2870  175.7820  135.7660 C   0  0  0  0  0  2  0  0  0  0  0  0
  194.5690  174.6240  138.2900 C   0  0  0  0  0  3  0  0  0  0  0  0
  192.4150  175.3710  136.6530 C   0  0  0  0  0  0  0  0  0  0  0  0
  193.0190  176.3180  137.4900 C   0  0  0  0  0  3  0  0  0  0  0  0
  193.9620  173.6760  137.4580 C   0  0  0  0  0  3  0  0  0  0  0  0
  194.0970  175.9440  138.3070 C   0  0  0  0  0  3  0  0  0  0  0  0
  192.8850  174.0490  136.6390 C   0  0  0  0  0  3  0  0  0  0  0  0
  1 48  1  6  0  0  0
  1  2  1  0  0  0  0
  2  3  1  0  0  0  0
  3  5  1  0  0  0  0
  5  4  1  6  0  0  0
  5  6  1  0  0  0  0
  5  9  1  0  0  0  0
  9 15  1  6  0  0  0
  9 16  1  0  0  0  0
  9 11  1  0  0  0  0
 11 10  1  1  0  0  0
 11 14  1  0  0  0  0
 13  7  1  1  0  0  0
 13  8  1  0  0  0  0
 14  8  1  0  0  0  0
 14 17  1  1  0  0  0
 16 12  1  6  0  0  0
 16  7  1  0  0  0  0
 16 13  1  0  0  0  0
 17 18  1  1  0  0  0
 17 19  1  0  0  0  0
 19 20  1  0  0  0  0
 21  1  1  0  0  0  0
 22 21  1  0  0  0  0
 23 22  1  0  0  0  0
 23 26  1  0  0  0  0
 24 26  2  0  0  0  0
 25 41  1  0  0  0  0
 26 25  1  0  0  0  0
 27 38  1  0  0  0  0
 28 34  1  0  0  0  0
 29 42  1  0  0  0  0
 30 28  2  0  0  0  0
 30 33  1  0  0  0  0
 31 39  1  0  0  0  0
 32 31  1  0  0  0  0
 33 32  2  0  0  0  0
 34 41  1  0  0  0  0
 34 31  2  0  0  0  0
 35 27  2  0  0  0  0
 36 45  1  1  0  0  0
 37 44  1  0  0  0  0
 38 40  1  0  0  0  0
 39 37  2  0  0  0  0
 40 36  1  0  0  0  0
 41 43  2  0  0  0  0
 42 36  1  0  0  0  0
 43 35  1  0  0  0  0
 43 37  1  0  0  0  0
 44 38  2  0  0  0  0
 44 29  1  0  0  0  0
 45 46  1  0  0  0  0
 46 47  1  0  0  0  0
 49 48  1  0  0  0  0
 49 51  1  0  0  0  0
 50 54  1  0  0  0  0
 51 52  1  0  0  0  0
 52 54  2  0  0  0  0
 53 50  2  0  0  0  0
 55 51  2  0  0  0  0
 55 53  1  0  0  0  0
M  END
>  <MODEL>
6

>  <REMARK>
 VINA RESULT:      -7.2      3.846      8.549
  Name = 
  16 active torsions:
  status: ('A' for Active; 'I' for Inactive)
    1  A    between atoms: O_4  and  C_37
    2  A    between atoms: O_4  and  C_40
    3  A    between atoms: C_6  and  C_20
    4  A    between atoms: C_8  and  C_22
    5  A    between atoms: C_8  and  C_43
    6  A    between atoms: O_10  and  C_18
    7  A    between atoms: O_10  and  C_32
    8  A    between atoms: C_11  and  C_29
    9  A    between atoms: N_19  and  C_45
   10  A    between atoms: C_20  and  C_22
   11  A    between atoms: C_27  and  C_54
   12  A    between atoms: C_29  and  C_38
   13  A    between atoms: C_35  and  C_37
   14  A    between atoms: C_35  and  C_43
   15  A    between atoms: C_43  and  C_51
   16  A    between atoms: C_51  and  C_54
                            x       y       z     vdW  Elec       q    Type
                         _______ _______ _______ _____ _____    ______ ____

>  <TORSDO>
F 16

$$$$
=
 OpenBabel11052414593D

 55 61  0  0  1  0  0  0  0  0999 V2000
  184.2140  178.1350  139.2350 C   0  0  1  0  0  3  0  0  0  0  0  0
  183.0350  178.5240  138.3650 C   0  0  0  0  0  2  0  0  0  0  0  0
  183.0540  177.7150  137.0710 C   0  0  0  0  0  2  0  0  0  0  0  0
  180.8560  176.7090  138.3540 S   0  0  0  0  0  1  0  0  0  0  0  0
  182.1970  176.4420  137.1360 C   0  0  1  0  0  0  0  0  0  0  0  0
  181.6030  176.2930  135.8970 F   0  0  0  0  0  0  0  0  0  0  0  0
  182.9980  173.3530  135.5100 C   0  0  0  0  0  2  0  0  0  0  0  0
  184.5550  172.8230  137.4300 O   0  0  0  0  0  0  0  0  0  0  0  0
  183.0390  175.1580  137.4590 C   0  0  1  0  0  0  0  0  0  0  0  0
  184.5500  175.8380  135.6840 F   0  0  0  0  0  0  0  0  0  0  0  0
  184.4980  175.3130  136.9710 C   0  0  2  0  0  3  0  0  0  0  0  0
  181.0740  173.6270  137.0020 O   0  0  0  0  0  1  0  0  0  0  0  0
  183.2700  172.6330  136.8310 C   0  0  1  0  0  3  0  0  0  0  0  0
  185.2820  173.9830  137.0590 C   0  0  2  0  0  3  0  0  0  0  0  0
  183.0670  174.9590  138.8430 O   0  0  0  0  0  1  0  0  0  0  0  0
  182.4260  173.8960  136.8070 C   0  0  1  0  0  0  0  0  0  0  0  0
  186.3730  173.7010  136.0330 C   0  0  1  0  0  3  0  0  0  0  0  0
  187.2790  174.7490  135.9560 O   0  0  0  0  0  1  0  0  0  0  0  0
  187.0890  172.4150  136.3620 C   0  0  0  0  0  2  0  0  0  0  0  0
  188.1480  172.6850  137.2190 O   0  0  0  0  0  1  0  0  0  0  0  0
  185.3910  179.0630  138.9450 C   0  0  0  0  0  2  0  0  0  0  0  0
  186.2000  178.5700  137.7550 C   0  0  0  0  0  2  0  0  0  0  0  0
  187.5500  178.9910  137.8760 O   0  0  0  0  0  0  0  0  0  0  0  0
  189.2070  178.9250  139.4570 O   0  0  0  0  0  0  0  0  0  0  0  0
  188.5860  176.8700  138.5390 N   0  0  0  0  0  2  0  0  0  0  0  0
  188.4650  178.2910  138.6610 C   0  0  0  0  0  0  0  0  0  0  0  0
  188.1650  176.6330  142.7900 C   0  0  0  0  0  3  0  0  0  0  0  0
  191.1670  175.6090  137.5020 C   0  0  0  0  0  3  0  0  0  0  0  0
  191.4750  178.3540  143.4390 C   0  0  0  0  0  2  0  0  0  0  0  0
  192.4270  175.7330  136.9070 C   0  0  0  0  0  3  0  0  0  0  0  0
  191.9320  176.9240  139.3890 C   0  0  0  0  0  0  0  0  0  0  0  0
  193.1860  177.0530  138.7860 C   0  0  0  0  0  3  0  0  0  0  0  0
  193.4340  176.4580  137.5470 C   0  0  0  0  0  3  0  0  0  0  0  0
  190.9100  176.2020  138.7440 C   0  0  0  0  0  0  0  0  0  0  0  0
  188.3110  176.2710  141.4850 N   0  0  0  0  0  0  0  0  0  0  0  0
  190.2540  178.2230  145.5950 C   0  0  2  0  0  3  0  0  0  0  0  0
  190.4930  177.2430  141.3960 C   0  0  0  0  0  0  0  0  0  0  0  0
  189.1850  177.3200  143.4460 C   0  0  0  0  0  0  0  0  0  0  0  0
  191.7110  177.4820  140.6850 N   0  0  0  0  0  0  0  0  0  0  0  0
  189.0340  177.5950  144.9180 C   0  0  0  0  0  2  0  0  0  0  0  0
  189.5280  176.1020  139.3400 C   0  0  0  0  0  0  0  0  0  0  0  0
  191.5600  177.8850  144.8810 C   0  0  0  0  0  2  0  0  0  0  0  0
  189.4420  176.5420  140.7810 C   0  0  0  0  0  0  0  0  0  0  0  0
  190.3620  177.6340  142.7400 C   0  0  0  0  0  0  0  0  0  0  0  0
  190.3160  177.7700  146.9150 O   0  0  0  0  0  0  0  0  0  0  0  0
  189.0280  177.3470  147.2320 C   0  0  0  0  0  2  0  0  0  0  0  0
  188.5580  178.0880  148.4720 C   0  0  0  0  0  1  0  0  0  0  0  0
  183.8070  178.2340  140.6960 C   0  0  0  0  0  2  0  0  0  0  0  0
  184.9730  178.7770  141.5090 C   0  0  0  0  0  2  0  0  0  0  0  0
  184.0060  178.8380  145.6970 C   0  0  0  0  0  3  0  0  0  0  0  0
  184.6350  178.8160  142.9620 C   0  0  0  0  0  0  0  0  0  0  0  0
  185.6490  178.6550  143.9150 C   0  0  0  0  0  3  0  0  0  0  0  0
  182.9930  179.0040  144.7460 C   0  0  0  0  0  3  0  0  0  0  0  0
  185.3330  178.6650  145.2820 C   0  0  0  0  0  3  0  0  0  0  0  0
  183.3070  178.9930  143.3780 C   0  0  0  0  0  3  0  0  0  0  0  0
  1  2  1  6  0  0  0
  1 48  1  0  0  0  0
  3  5  1  0  0  0  0
  3  2  1  0  0  0  0
  5  6  1  6  0  0  0
  5  9  1  0  0  0  0
  5  4  1  0  0  0  0
  7 16  1  0  0  0  0
  9 15  1  1  0  0  0
 11 10  1  6  0  0  0
 11 14  1  0  0  0  0
 11  9  1  0  0  0  0
 13  7  1  6  0  0  0
 13  8  1  0  0  0  0
 14 17  1  6  0  0  0
 14  8  1  0  0  0  0
 16 13  1  0  0  0  0
 16 12  1  1  0  0  0
 16  9  1  0  0  0  0
 17 18  1  1  0  0  0
 17 19  1  0  0  0  0
 19 20  1  0  0  0  0
 21  1  1  0  0  0  0
 22 23  1  0  0  0  0
 22 21  1  0  0  0  0
 23 26  1  0  0  0  0
 25 26  1  0  0  0  0
 25 41  1  0  0  0  0
 26 24  2  0  0  0  0
 27 38  1  0  0  0  0
 28 34  1  0  0  0  0
 29 42  1  0  0  0  0
 30 28  2  0  0  0  0
 30 33  1  0  0  0  0
 31 39  1  0  0  0  0
 32 31  1  0  0  0  0
 33 32  2  0  0  0  0
 34 41  1  0  0  0  0
 34 31  2  0  0  0  0
 35 27  2  0  0  0  0
 36 45  1  1  0  0  0
 37 44  1  0  0  0  0
 38 40  1  0  0  0  0
 39 37  2  0  0  0  0
 40 36  1  0  0  0  0
 41 43  2  0  0  0  0
 42 36  1  0  0  0  0
 43 37  1  0  0  0  0
 43 35  1  0  0  0  0
 44 29  1  0  0  0  0
 44 38  2  0  0  0  0
 45 46  1  0  0  0  0
 46 47  1  0  0  0  0
 48 49  1  0  0  0  0
 49 51  1  0  0  0  0
 51 55  2  0  0  0  0
 51 52  1  0  0  0  0
 52 54  2  0  0  0  0
 53 50  2  0  0  0  0
 54 50  1  0  0  0  0
 55 53  1  0  0  0  0
M  END
>  <MODEL>
7

>  <REMARK>
 VINA RESULT:      -7.1      4.351      9.173
  Name = 
  16 active torsions:
  status: ('A' for Active; 'I' for Inactive)
    1  A    between atoms: O_4  and  C_37
    2  A    between atoms: O_4  and  C_40
    3  A    between atoms: C_6  and  C_20
    4  A    between atoms: C_8  and  C_22
    5  A    between atoms: C_8  and  C_43
    6  A    between atoms: O_10  and  C_18
    7  A    between atoms: O_10  and  C_32
    8  A    between atoms: C_11  and  C_29
    9  A    between atoms: N_19  and  C_45
   10  A    between atoms: C_20  and  C_22
   11  A    between atoms: C_27  and  C_54
   12  A    between atoms: C_29  and  C_38
   13  A    between atoms: C_35  and  C_37
   14  A    between atoms: C_35  and  C_43
   15  A    between atoms: C_43  and  C_51
   16  A    between atoms: C_51  and  C_54
                            x       y       z     vdW  Elec       q    Type
                         _______ _______ _______ _____ _____    ______ ____

>  <TORSDO>
F 16

$$$$
=
 OpenBabel11052414593D

 55 61  0  0  1  0  0  0  0  0999 V2000
  184.5790  177.2060  136.0290 C   0  0  1  0  0  3  0  0  0  0  0  0
  183.1000  177.4370  135.7950 C   0  0  0  0  0  2  0  0  0  0  0  0
  182.5010  178.2070  136.9690 C   0  0  0  0  0  2  0  0  0  0  0  0
  180.5650  180.0200  136.2980 S   0  0  0  0  0  1  0  0  0  0  0  0
  180.9730  178.3390  136.8950 C   0  0  1  0  0  0  0  0  0  0  0  0
  180.5370  177.4450  135.9350 F   0  0  0  0  0  0  0  0  0  0  0  0
  181.9380  177.1110  140.1190 C   0  0  0  0  0  2  0  0  0  0  0  0
  179.5700  177.5170  140.9080 O   0  0  0  0  0  0  0  0  0  0  0  0
  180.2680  178.0110  138.2580 C   0  0  1  0  0  0  0  0  0  0  0  0
  181.5040  179.8690  139.2160 F   0  0  0  0  0  0  0  0  0  0  0  0
  180.2610  179.2450  139.1910 C   0  0  2  0  0  3  0  0  0  0  0  0
  181.1970  175.6540  138.2930 O   0  0  0  0  0  1  0  0  0  0  0  0
  180.5370  176.5790  140.4260 C   0  0  1  0  0  3  0  0  0  0  0  0
  179.7920  178.8870  140.6200 C   0  0  2  0  0  3  0  0  0  0  0  0
  178.9400  177.6470  138.0170 O   0  0  0  0  0  1  0  0  0  0  0  0
  180.9600  176.8370  138.9900 C   0  0  1  0  0  0  0  0  0  0  0  0
  180.3690  179.6600  141.8010 C   0  0  1  0  0  3  0  0  0  0  0  0
  179.7570  180.8970  141.9430 O   0  0  0  0  0  1  0  0  0  0  0  0
  180.2340  178.8600  143.0730 C   0  0  0  0  0  2  0  0  0  0  0  0
  181.4550  178.8410  143.7360 O   0  0  0  0  0  1  0  0  0  0  0  0
  184.8770  177.2810  137.5250 C   0  0  0  0  0  2  0  0  0  0  0  0
  185.7590  178.4750  137.8510 C   0  0  0  0  0  2  0  0  0  0  0  0
  187.1030  178.2050  137.4770 O   0  0  0  0  0  0  0  0  0  0  0  0
  187.7950  176.0360  137.7310 O   0  0  0  0  0  0  0  0  0  0  0  0
  188.6700  177.5730  139.2540 N   0  0  0  0  0  2  0  0  0  0  0  0
  187.8580  177.2300  138.1270 C   0  0  0  0  0  0  0  0  0  0  0  0
  187.9110  176.6650  143.3640 C   0  0  0  0  0  3  0  0  0  0  0  0
  191.1900  176.2390  138.1600 C   0  0  0  0  0  3  0  0  0  0  0  0
  191.3110  177.8890  144.4960 C   0  0  0  0  0  2  0  0  0  0  0  0
  192.4970  176.3270  137.6700 C   0  0  0  0  0  3  0  0  0  0  0  0
  191.9330  177.1260  140.2910 C   0  0  0  0  0  0  0  0  0  0  0  0
  193.2350  177.2210  139.7920 C   0  0  0  0  0  3  0  0  0  0  0  0
  193.5180  176.8220  138.4840 C   0  0  0  0  0  3  0  0  0  0  0  0
  190.8980  176.6370  139.4710 C   0  0  0  0  0  0  0  0  0  0  0  0
  188.1190  176.5160  142.0270 N   0  0  0  0  0  0  0  0  0  0  0  0
  189.9250  177.5250  146.5210 C   0  0  2  0  0  3  0  0  0  0  0  0
  190.3840  177.2510  142.2360 C   0  0  0  0  0  0  0  0  0  0  0  0
  188.9390  177.1180  144.1890 C   0  0  0  0  0  0  0  0  0  0  0  0
  191.6690  177.4770  141.6490 N   0  0  0  0  0  0  0  0  0  0  0  0
  188.7050  177.1540  145.6760 C   0  0  0  0  0  2  0  0  0  0  0  0
  189.4720  176.5850  139.9590 C   0  0  0  0  0  0  0  0  0  0  0  0
  191.2430  177.1770  145.8350 C   0  0  0  0  0  2  0  0  0  0  0  0
  189.3200  176.7810  141.4480 C   0  0  0  0  0  0  0  0  0  0  0  0
  190.1900  177.4200  143.6180 C   0  0  0  0  0  0  0  0  0  0  0  0
  189.8440  176.8510  147.7420 O   0  0  0  0  0  0  0  0  0  0  0  0
  188.4940  176.8400  148.0820 C   0  0  0  0  0  2  0  0  0  0  0  0
  188.0650  178.2530  148.4350 C   0  0  0  0  0  1  0  0  0  0  0  0
  184.9620  175.8420  135.4790 C   0  0  0  0  0  2  0  0  0  0  0  0
  185.0750  174.8480  136.6250 C   0  0  0  0  0  2  0  0  0  0  0  0
  182.3950  171.5350  136.0640 C   0  0  0  0  0  3  0  0  0  0  0  0
  184.1560  173.6910  136.4180 C   0  0  0  0  0  0  0  0  0  0  0  0
  182.9610  173.8730  135.7110 C   0  0  0  0  0  3  0  0  0  0  0  0
  183.5910  171.3510  136.7650 C   0  0  0  0  0  3  0  0  0  0  0  0
  182.0800  172.7950  135.5360 C   0  0  0  0  0  3  0  0  0  0  0  0
  184.4730  172.4290  136.9430 C   0  0  0  0  0  3  0  0  0  0  0  0
  1 48  1  1  0  0  0
  1 21  1  0  0  0  0
  2  1  1  0  0  0  0
  2  3  1  0  0  0  0
  4  5  1  0  0  0  0
  5  6  1  6  0  0  0
  5  3  1  0  0  0  0
  5  9  1  0  0  0  0
  9 15  1  6  0  0  0
  9 16  1  0  0  0  0
  9 11  1  0  0  0  0
 11 10  1  1  0  0  0
 11 14  1  0  0  0  0
 13  7  1  1  0  0  0
 13  8  1  0  0  0  0
 14  8  1  0  0  0  0
 14 17  1  1  0  0  0
 16 12  1  6  0  0  0
 16  7  1  0  0  0  0
 16 13  1  0  0  0  0
 17 18  1  1  0  0  0
 17 19  1  0  0  0  0
 19 20  1  0  0  0  0
 21 22  1  0  0  0  0
 23 22  1  0  0  0  0
 23 26  1  0  0  0  0
 24 26  2  0  0  0  0
 25 41  1  0  0  0  0
 26 25  1  0  0  0  0
 27 38  1  0  0  0  0
 28 34  1  0  0  0  0
 29 42  1  0  0  0  0
 30 28  2  0  0  0  0
 30 33  1  0  0  0  0
 31 39  1  0  0  0  0
 32 31  1  0  0  0  0
 33 32  2  0  0  0  0
 34 41  1  0  0  0  0
 34 31  2  0  0  0  0
 35 27  2  0  0  0  0
 36 45  1  1  0  0  0
 37 44  1  0  0  0  0
 38 40  1  0  0  0  0
 39 37  2  0  0  0  0
 40 36  1  0  0  0  0
 41 43  2  0  0  0  0
 42 36  1  0  0  0  0
 43 35  1  0  0  0  0
 43 37  1  0  0  0  0
 44 38  2  0  0  0  0
 44 29  1  0  0  0  0
 45 46  1  0  0  0  0
 46 47  1  0  0  0  0
 48 49  1  0  0  0  0
 50 53  1  0  0  0  0
 51 49  1  0  0  0  0
 51 55  1  0  0  0  0
 52 51  2  0  0  0  0
 53 55  2  0  0  0  0
 54 52  1  0  0  0  0
 54 50  2  0  0  0  0
M  END
>  <MODEL>
8

>  <REMARK>
 VINA RESULT:      -7.1      4.996     10.983
  Name = 
  16 active torsions:
  status: ('A' for Active; 'I' for Inactive)
    1  A    between atoms: O_4  and  C_37
    2  A    between atoms: O_4  and  C_40
    3  A    between atoms: C_6  and  C_20
    4  A    between atoms: C_8  and  C_22
    5  A    between atoms: C_8  and  C_43
    6  A    between atoms: O_10  and  C_18
    7  A    between atoms: O_10  and  C_32
    8  A    between atoms: C_11  and  C_29
    9  A    between atoms: N_19  and  C_45
   10  A    between atoms: C_20  and  C_22
   11  A    between atoms: C_27  and  C_54
   12  A    between atoms: C_29  and  C_38
   13  A    between atoms: C_35  and  C_37
   14  A    between atoms: C_35  and  C_43
   15  A    between atoms: C_43  and  C_51
   16  A    between atoms: C_51  and  C_54
                            x       y       z     vdW  Elec       q    Type
                         _______ _______ _______ _____ _____    ______ ____

>  <TORSDO>
F 16

$$$$
=
 OpenBabel11052414593D

 55 61  0  0  1  0  0  0  0  0999 V2000
  191.9100  175.8650  138.1540 C   0  0  1  0  0  3  0  0  0  0  0  0
  193.1660  175.0180  138.1590 C   0  0  0  0  0  2  0  0  0  0  0  0
  193.4740  174.5350  136.7440 C   0  0  0  0  0  2  0  0  0  0  0  0
  194.1890  176.0690  134.5940 S   0  0  0  0  0  1  0  0  0  0  0  0
  194.7070  175.2100  136.1250 C   0  0  1  0  0  0  0  0  0  0  0  0
  195.1260  176.1790  137.0170 F   0  0  0  0  0  0  0  0  0  0  0  0
  197.0800  173.3890  138.0950 C   0  0  0  0  0  2  0  0  0  0  0  0
  197.8610  172.2480  135.9790 O   0  0  0  0  0  0  0  0  0  0  0  0
  195.8840  174.2060  135.8680 C   0  0  1  0  0  0  0  0  0  0  0  0
  194.5260  172.5090  136.9500 F   0  0  0  0  0  0  0  0  0  0  0  0
  195.3800  172.7440  135.8770 C   0  0  2  0  0  3  0  0  0  0  0  0
  197.5200  175.6210  137.1850 O   0  0  0  0  0  1  0  0  0  0  0  0
  198.0790  173.2820  136.9420 C   0  0  1  0  0  3  0  0  0  0  0  0
  196.5460  171.7290  135.8650 C   0  0  2  0  0  3  0  0  0  0  0  0
  196.4430  174.4590  134.6110 O   0  0  0  0  0  1  0  0  0  0  0  0
  197.0020  174.3540  136.9260 C   0  0  1  0  0  0  0  0  0  0  0  0
  196.3690  170.3930  136.5780 C   0  0  1  0  0  3  0  0  0  0  0  0
  195.3780  169.6280  135.9780 O   0  0  0  0  0  1  0  0  0  0  0  0
  197.6710  169.6320  136.6070 C   0  0  0  0  0  2  0  0  0  0  0  0
  198.3140  169.8660  137.8160 O   0  0  0  0  0  1  0  0  0  0  0  0
  192.2510  177.2880  138.5910 C   0  0  0  0  0  2  0  0  0  0  0  0
  192.8070  177.3090  140.0060 C   0  0  0  0  0  2  0  0  0  0  0  0
  191.8450  177.8510  140.8990 O   0  0  0  0  0  0  0  0  0  0  0  0
  190.6960  175.9030  141.2680 O   0  0  0  0  0  0  0  0  0  0  0  0
  190.6180  177.4780  142.9890 N   0  0  0  0  0  2  0  0  0  0  0  0
  191.0520  177.0310  141.7010 C   0  0  0  0  0  0  0  0  0  0  0  0
  186.3540  177.5420  142.6540 C   0  0  0  0  0  3  0  0  0  0  0  0
  191.6250  175.8640  145.3790 C   0  0  0  0  0  3  0  0  0  0  0  0
  185.8730  178.8980  146.1560 C   0  0  0  0  0  2  0  0  0  0  0  0
  192.2490  175.8050  146.6290 C   0  0  0  0  0  3  0  0  0  0  0  0
  189.8360  177.1880  146.3400 C   0  0  0  0  0  0  0  0  0  0  0  0
  190.4690  177.1340  147.5840 C   0  0  0  0  0  3  0  0  0  0  0  0
  191.6740  176.4420  147.7300 C   0  0  0  0  0  3  0  0  0  0  0  0
  190.4160  176.5550  145.2250 C   0  0  0  0  0  0  0  0  0  0  0  0
  187.6360  177.0890  142.7220 N   0  0  0  0  0  0  0  0  0  0  0  0
  183.6910  179.0370  144.9840 C   0  0  2  0  0  3  0  0  0  0  0  0
  187.8260  177.7910  144.9990 C   0  0  0  0  0  0  0  0  0  0  0  0
  185.7600  178.1410  143.7630 C   0  0  0  0  0  0  0  0  0  0  0  0
  188.5730  177.8440  146.2180 N   0  0  0  0  0  0  0  0  0  0  0  0
  184.3050  178.5180  143.6830 C   0  0  0  0  0  2  0  0  0  0  0  0
  189.7900  176.6530  143.8560 C   0  0  0  0  0  0  0  0  0  0  0  0
  184.4070  178.5070  146.2240 C   0  0  0  0  0  2  0  0  0  0  0  0
  188.3770  177.1840  143.8590 C   0  0  0  0  0  0  0  0  0  0  0  0
  186.5060  178.2730  144.9490 C   0  0  0  0  0  0  0  0  0  0  0  0
  182.3470  178.6580  145.0270 O   0  0  0  0  0  0  0  0  0  0  0  0
  181.8430  178.8990  143.7520 C   0  0  0  0  0  2  0  0  0  0  0  0
  180.3390  179.0900  143.8450 C   0  0  0  0  0  1  0  0  0  0  0  0
  191.3190  175.8680  136.7540 C   0  0  0  0  0  2  0  0  0  0  0  0
  190.0630  176.7270  136.7360 C   0  0  0  0  0  2  0  0  0  0  0  0
  186.5500  174.3370  136.0870 C   0  0  0  0  0  3  0  0  0  0  0  0
  188.8510  175.8920  136.4950 C   0  0  0  0  0  0  0  0  0  0  0  0
  187.6380  176.5100  136.1630 C   0  0  0  0  0  3  0  0  0  0  0  0
  187.7620  173.7190  136.4130 C   0  0  0  0  0  3  0  0  0  0  0  0
  186.4880  175.7320  135.9610 C   0  0  0  0  0  3  0  0  0  0  0  0
  188.9130  174.4960  136.6170 C   0  0  0  0  0  3  0  0  0  0  0  0
  1 48  1  6  0  0  0
  1  2  1  0  0  0  0
  1 21  1  0  0  0  0
  3  2  1  0  0  0  0
  5  4  1  6  0  0  0
  5  3  1  0  0  0  0
  5  6  1  0  0  0  0
  8 13  1  0  0  0  0
  9 15  1  6  0  0  0
  9 11  1  0  0  0  0
  9  5  1  0  0  0  0
  9 16  1  0  0  0  0
 11 10  1  1  0  0  0
 13  7  1  1  0  0  0
 14 11  1  0  0  0  0
 14  8  1  0  0  0  0
 14 17  1  1  0  0  0
 16 13  1  0  0  0  0
 16 12  1  1  0  0  0
 16  7  1  0  0  0  0
 17 18  1  6  0  0  0
 17 19  1  0  0  0  0
 19 20  1  0  0  0  0
 21 22  1  0  0  0  0
 22 23  1  0  0  0  0
 23 26  1  0  0  0  0
 24 26  2  0  0  0  0
 25 41  1  0  0  0  0
 26 25  1  0  0  0  0
 27 35  2  0  0  0  0
 27 38  1  0  0  0  0
 28 30  1  0  0  0  0
 29 42  1  0  0  0  0
 30 33  2  0  0  0  0
 31 32  2  0  0  0  0
 32 33  1  0  0  0  0
 34 28  2  0  0  0  0
 34 31  1  0  0  0  0
 35 43  1  0  0  0  0
 36 45  1  1  0  0  0
 36 42  1  0  0  0  0
 37 39  2  0  0  0  0
 38 44  2  0  0  0  0
 39 31  1  0  0  0  0
 40 38  1  0  0  0  0
 40 36  1  0  0  0  0
 41 43  2  0  0  0  0
 41 34  1  0  0  0  0
 43 37  1  0  0  0  0
 44 37  1  0  0  0  0
 44 29  1  0  0  0  0
 46 47  1  0  0  0  0
 46 45  1  0  0  0  0
 49 48  1  0  0  0  0
 50 53  1  0  0  0  0
 51 55  1  0  0  0  0
 51 49  1  0  0  0  0
 52 51  2  0  0  0  0
 53 55  2  0  0  0  0
 54 50  2  0  0  0  0
 54 52  1  0  0  0  0
M  END
>  <MODEL>
9

>  <REMARK>
 VINA RESULT:      -7.0      1.670      2.348
  Name = 
  16 active torsions:
  status: ('A' for Active; 'I' for Inactive)
    1  A    between atoms: O_4  and  C_37
    2  A    between atoms: O_4  and  C_40
    3  A    between atoms: C_6  and  C_20
    4  A    between atoms: C_8  and  C_22
    5  A    between atoms: C_8  and  C_43
    6  A    between atoms: O_10  and  C_18
    7  A    between atoms: O_10  and  C_32
    8  A    between atoms: C_11  and  C_29
    9  A    between atoms: N_19  and  C_45
   10  A    between atoms: C_20  and  C_22
   11  A    between atoms: C_27  and  C_54
   12  A    between atoms: C_29  and  C_38
   13  A    between atoms: C_35  and  C_37
   14  A    between atoms: C_35  and  C_43
   15  A    between atoms: C_43  and  C_51
   16  A    between atoms: C_51  and  C_54
                            x       y       z     vdW  Elec       q    Type
                         _______ _______ _______ _____ _____    ______ ____

>  <TORSDO>
F 16

$$$$
