=
 OpenBabel11052412523D

 25 29  0  0  1  0  0  0  0  0999 V2000
  185.1280  178.3080  144.2680 C   0  0  0  0  0  0  0  0  0  0  0  0
  186.3910  177.9110  144.3860 C   0  0  0  0  0  3  0  0  0  0  0  0
  184.3900  178.8990  146.5080 N   0  0  0  0  0  0  0  0  0  0  0  0
  184.4400  178.3450  143.0750 C   0  0  0  0  0  0  0  0  0  0  0  0
  182.5920  178.6410  141.0340 C   0  0  0  0  0  3  0  0  0  0  0  0
  185.5420  178.6270  147.2700 N   0  0  0  0  0  2  0  0  0  0  0  0
  183.1810  178.8100  143.3520 C   0  0  0  0  0  0  0  0  0  0  0  0
  182.2250  178.9720  142.3510 C   0  0  0  0  0  3  0  0  0  0  0  0
  187.8980  177.9260  147.6940 N   0  0  0  0  0  0  0  0  0  0  0  0
  187.6880  177.5850  149.0910 C   0  0  0  0  0  1  0  0  0  0  0  0
  187.1810  177.8690  145.6110 C   0  0  0  0  0  0  0  0  0  0  0  0
  183.8890  178.1630  140.7500 C   0  0  0  0  0  3  0  0  0  0  0  0
  184.2150  178.7650  145.2270 C   0  0  0  0  0  0  0  0  0  0  0  0
  183.0230  179.0720  144.6600 N   0  0  0  0  0  2  0  0  0  0  0  0
  189.0110  177.5100  147.0330 O   0  0  0  0  0  0  0  0  0  0  0  0
  184.8340  178.0090  141.7790 C   0  0  0  0  0  3  0  0  0  0  0  0
  188.5880  177.3710  145.6840 C   0  0  2  0  0  3  0  0  0  0  0  0
  186.8200  178.1710  146.8210 C   0  0  0  0  0  0  0  0  0  0  0  0
  189.4480  178.1700  144.8230 N   0  0  0  0  0  2  0  0  0  0  0  0
  191.4540  176.7930  144.4560 C   0  0  1  0  0  0  0  0  0  0  0  0
  191.7870  177.2490  145.7370 O   0  0  0  0  0  1  0  0  0  0  0  0
  191.8800  175.3920  144.0710 C   0  0  0  0  0  1  0  0  0  0  0  0
  190.1130  177.2490  143.9060 C   0  0  2  0  0  3  0  0  0  0  0  0
  191.7750  179.2290  143.8210 C   0  0  0  0  0  1  0  0  0  0  0  0
  191.4330  177.8200  143.3360 C   0  0  1  0  0  3  0  0  0  0  0  0
  1  2  2  0  0  0  0
  1 13  1  0  0  0  0
  2 11  1  0  0  0  0
  3  6  1  0  0  0  0
  4  7  1  0  0  0  0
  4  1  1  0  0  0  0
  5  8  1  0  0  0  0
  7 14  1  0  0  0  0
  8  7  2  0  0  0  0
  9 10  1  0  0  0  0
 11 17  1  0  0  0  0
 11 18  2  0  0  0  0
 12  5  2  0  0  0  0
 12 16  1  0  0  0  0
 13  3  2  0  0  0  0
 14 13  1  0  0  0  0
 15  9  1  0  0  0  0
 16  4  2  0  0  0  0
 17 19  1  6  0  0  0
 17 15  1  0  0  0  0
 18  6  1  0  0  0  0
 18  9  1  0  0  0  0
 20 22  1  6  0  0  0
 20 21  1  0  0  0  0
 23 20  1  0  0  0  0
 23 19  1  1  0  0  0
 25 24  1  1  0  0  0
 25 23  1  0  0  0  0
 25 20  1  0  0  0  0
M  END
>  <MODEL>
1

>  <REMARK>
 VINA RESULT:     -10.1      0.000      0.000
  Name = 
  2 active torsions:
  status: ('A' for Active; 'I' for Inactive)
    1  A    between atoms: N_6  and  C_15
    2  A    between atoms: N_6  and  C_23
                            x       y       z     vdW  Elec       q    Type
                         _______ _______ _______ _____ _____    ______ ____

>  <TORSDO>
F 2

$$$$
=
 OpenBabel11052412523D

 25 29  0  0  1  0  0  0  0  0999 V2000
  187.1570  177.7630  145.0450 C   0  0  0  0  0  0  0  0  0  0  0  0
  188.1090  177.2210  144.2910 C   0  0  0  0  0  3  0  0  0  0  0  0
  188.1230  178.0410  147.2600 N   0  0  0  0  0  0  0  0  0  0  0  0
  185.8960  178.0740  144.5890 C   0  0  0  0  0  0  0  0  0  0  0  0
  183.2750  178.9050  144.2570 C   0  0  0  0  0  3  0  0  0  0  0  0
  189.4190  177.5240  147.0750 N   0  0  0  0  0  2  0  0  0  0  0  0
  185.2090  178.6160  145.6430 C   0  0  0  0  0  0  0  0  0  0  0  0
  183.8900  179.0450  145.5150 C   0  0  0  0  0  3  0  0  0  0  0  0
  191.3280  176.5170  145.8260 N   0  0  0  0  0  0  0  0  0  0  0  0
  191.9840  175.9680  147.0000 C   0  0  0  0  0  1  0  0  0  0  0  0
  189.4670  176.8890  144.7060 C   0  0  0  0  0  0  0  0  0  0  0  0
  183.9830  178.3480  143.1710 C   0  0  0  0  0  3  0  0  0  0  0  0
  187.1590  178.1450  146.3930 C   0  0  0  0  0  0  0  0  0  0  0  0
  185.9620  178.6680  146.7550 N   0  0  0  0  0  2  0  0  0  0  0  0
  191.6730  176.1030  144.5760 O   0  0  0  0  0  0  0  0  0  0  0  0
  185.3140  177.9230  143.3290 C   0  0  0  0  0  3  0  0  0  0  0  0
  190.4790  176.2400  143.8190 C   0  0  2  0  0  3  0  0  0  0  0  0
  190.0130  177.0180  145.8770 C   0  0  0  0  0  0  0  0  0  0  0  0
  190.7380  177.0780  142.6570 N   0  0  0  0  0  2  0  0  0  0  0  0
  190.6560  177.0170  140.1990 C   0  0  1  0  0  0  0  0  0  0  0  0
  191.5800  178.0630  140.3170 O   0  0  0  0  0  1  0  0  0  0  0  0
  190.8070  176.0700  139.0280 C   0  0  0  0  0  1  0  0  0  0  0  0
  190.1790  176.3900  141.4970 C   0  0  2  0  0  3  0  0  0  0  0  0
  189.0550  178.7020  141.2180 C   0  0  0  0  0  1  0  0  0  0  0  0
  189.2350  177.2880  140.6640 C   0  0  1  0  0  3  0  0  0  0  0  0
  1 13  1  0  0  0  0
  2 11  1  0  0  0  0
  2  1  2  0  0  0  0
  4  1  1  0  0  0  0
  4  7  1  0  0  0  0
  5  8  1  0  0  0  0
  6  3  1  0  0  0  0
  7 14  1  0  0  0  0
  8  7  2  0  0  0  0
  9 18  1  0  0  0  0
  9 10  1  0  0  0  0
 11 18  2  0  0  0  0
 12 16  1  0  0  0  0
 12  5  2  0  0  0  0
 13 14  1  0  0  0  0
 13  3  2  0  0  0  0
 15  9  1  0  0  0  0
 16  4  2  0  0  0  0
 17 19  1  6  0  0  0
 17 15  1  0  0  0  0
 17 11  1  0  0  0  0
 18  6  1  0  0  0  0
 20 22  1  6  0  0  0
 20 21  1  0  0  0  0
 20 25  1  0  0  0  0
 20 23  1  0  0  0  0
 23 19  1  1  0  0  0
 25 24  1  1  0  0  0
 25 23  1  0  0  0  0
M  END
>  <MODEL>
2

>  <REMARK>
 VINA RESULT:      -9.9      2.291      3.533
  Name = 
  2 active torsions:
  status: ('A' for Active; 'I' for Inactive)
    1  A    between atoms: N_6  and  C_15
    2  A    between atoms: N_6  and  C_23
                            x       y       z     vdW  Elec       q    Type
                         _______ _______ _______ _____ _____    ______ ____

>  <TORSDO>
F 2

$$$$
=
 OpenBabel11052412523D

 25 29  0  0  1  0  0  0  0  0999 V2000
  185.5400  178.6470  141.4910 C   0  0  2  0  0  3  0  0  0  0  0  0
  186.8580  178.5010  141.5840 C   0  0  0  0  0  3  0  0  0  0  0  0
  185.0300  178.7110  139.1150 N   0  0  0  0  0  0  0  0  0  0  0  0
  184.6970  178.7410  142.5760 C   0  0  0  0  0  0  0  0  0  0  0  0
  182.5560  178.9670  144.3180 C   0  0  0  0  0  3  0  0  0  0  0  0
  186.3100  178.5810  138.5430 N   0  0  0  0  0  0  0  0  0  0  0  0
  183.4250  178.8750  142.0860 C   0  0  0  0  0  0  0  0  0  0  0  0
  182.3230  178.9920  142.9310 C   0  0  0  0  0  3  0  0  0  0  0  0
  188.7880  178.3000  138.5100 N   0  0  0  0  0  0  0  0  0  0  0  0
  188.9720  178.8760  137.1880 C   0  0  0  0  0  1  0  0  0  0  0  0
  187.8010  178.3730  140.4790 C   0  0  0  0  0  0  0  0  0  0  0  0
  183.8670  178.8270  144.8230 C   0  0  0  0  0  3  0  0  0  0  0  0
  184.7020  178.7360  140.3730 C   0  0  0  0  0  0  0  0  0  0  0  0
  183.4050  178.8750  140.7430 N   0  0  0  0  0  2  0  0  0  0  0  0
  189.8430  178.1310  139.3510 O   0  0  0  0  0  0  0  0  0  0  0  0
  184.9600  178.7120  143.9460 C   0  0  0  0  0  3  0  0  0  0  0  0
  189.2810  178.2540  140.6500 C   0  0  2  0  0  3  0  0  0  0  0  0
  187.5660  178.4080  139.2020 C   0  0  0  0  0  0  0  0  0  0  0  0
  189.6010  177.0670  141.4290 N   0  0  0  0  0  2  0  0  0  0  0  0
  190.5310  176.3560  143.5930 C   0  0  1  0  0  0  0  0  0  0  0  0
  190.4820  175.0880  142.9990 O   0  0  0  0  0  1  0  0  0  0  0  0
  191.6660  176.6440  144.5510 C   0  0  0  0  0  1  0  0  0  0  0  0
  190.0830  177.5220  142.7290 C   0  0  2  0  0  3  0  0  0  0  0  0
  188.0010  176.1860  143.4790 C   0  0  0  0  0  1  0  0  0  0  0  0
  189.2030  177.0290  143.9010 C   0  0  1  0  0  3  0  0  0  0  0  0
  1  2  1  1  0  0  0
  1  4  1  0  0  0  0
  3 13  2  0  0  0  0
  4 16  1  0  0  0  0
  5 12  1  0  0  0  0
  6  3  1  0  0  0  0
  6 18  2  0  0  0  0
  7  4  2  0  0  0  0
  7  8  1  0  0  0  0
  8  5  2  0  0  0  0
  9 18  1  0  0  0  0
  9 15  1  0  0  0  0
 10  9  1  0  0  0  0
 11 17  1  0  0  0  0
 11  2  2  0  0  0  0
 13 14  1  0  0  0  0
 13  1  1  0  0  0  0
 14  7  1  0  0  0  0
 15 17  1  0  0  0  0
 16 12  2  0  0  0  0
 17 19  1  1  0  0  0
 18 11  1  0  0  0  0
 20 25  1  0  0  0  0
 20 22  1  1  0  0  0
 21 20  1  0  0  0  0
 23 19  1  6  0  0  0
 23 20  1  0  0  0  0
 23 25  1  0  0  0  0
 25 24  1  6  0  0  0
M  END
>  <MODEL>
3

>  <REMARK>
 VINA RESULT:      -9.5      3.505      5.242
  Name = 
  2 active torsions:
  status: ('A' for Active; 'I' for Inactive)
    1  A    between atoms: N_6  and  C_15
    2  A    between atoms: N_6  and  C_23
                            x       y       z     vdW  Elec       q    Type
                         _______ _______ _______ _____ _____    ______ ____

>  <TORSDO>
F 2

$$$$
=
 OpenBabel11052412523D

 25 29  0  0  1  0  0  0  0  0999 V2000
  186.5320  177.9040  143.7400 C   0  0  0  0  0  0  0  0  0  0  0  0
  187.2060  177.5390  142.6540 C   0  0  0  0  0  3  0  0  0  0  0  0
  188.1060  177.7800  145.5890 N   0  0  0  0  0  0  0  0  0  0  0  0
  185.2020  178.2630  143.7380 C   0  0  0  0  0  0  0  0  0  0  0  0
  182.6250  179.0750  144.3460 C   0  0  0  0  0  3  0  0  0  0  0  0
  189.2760  177.3420  144.9410 N   0  0  0  0  0  2  0  0  0  0  0  0
  184.8690  178.5770  145.0290 C   0  0  0  0  0  0  0  0  0  0  0  0
  183.5820  178.9890  145.3740 C   0  0  0  0  0  3  0  0  0  0  0  0
  190.7090  176.6390  143.0230 N   0  0  0  0  0  0  0  0  0  0  0  0
  191.6600  175.8950  143.8300 C   0  0  0  0  0  1  0  0  0  0  0  0
  188.6150  177.1700  142.5850 C   0  0  0  0  0  0  0  0  0  0  0  0
  182.9700  178.7520  143.0160 C   0  0  0  0  0  3  0  0  0  0  0  0
  186.9360  178.0230  145.0760 C   0  0  0  0  0  0  0  0  0  0  0  0
  185.9130  178.4360  145.8620 N   0  0  0  0  0  2  0  0  0  0  0  0
  190.6620  176.4800  141.6730 O   0  0  0  0  0  0  0  0  0  0  0  0
  184.2750  178.3390  142.6970 C   0  0  0  0  0  3  0  0  0  0  0  0
  189.3040  176.7270  141.3360 C   0  0  2  0  0  3  0  0  0  0  0  0
  189.4810  177.0880  143.5490 C   0  0  0  0  0  0  0  0  0  0  0  0
  189.2410  177.7770  140.3290 N   0  0  0  0  0  2  0  0  0  0  0  0
  188.9700  178.1380  137.9110 C   0  0  1  0  0  0  0  0  0  0  0  0
  189.1030  179.4840  138.2740 O   0  0  0  0  0  1  0  0  0  0  0  0
  189.5360  177.7080  136.5740 C   0  0  0  0  0  1  0  0  0  0  0  0
  189.0860  177.1220  139.0340 C   0  0  2  0  0  3  0  0  0  0  0  0
  186.7930  178.3050  139.2040 C   0  0  0  0  0  1  0  0  0  0  0  0
  187.7180  177.4130  138.3750 C   0  0  1  0  0  3  0  0  0  0  0  0
  1 13  1  0  0  0  0
  2  1  2  0  0  0  0
  4  1  1  0  0  0  0
  4  7  1  0  0  0  0
  5  8  1  0  0  0  0
  6  3  1  0  0  0  0
  7  8  2  0  0  0  0
  7 14  1  0  0  0  0
  9 18  1  0  0  0  0
  9 10  1  0  0  0  0
 11  2  1  0  0  0  0
 11 18  2  0  0  0  0
 12  5  2  0  0  0  0
 13  3  2  0  0  0  0
 13 14  1  0  0  0  0
 15  9  1  0  0  0  0
 16 12  1  0  0  0  0
 16  4  2  0  0  0  0
 17 19  1  6  0  0  0
 17 15  1  0  0  0  0
 17 11  1  0  0  0  0
 18  6  1  0  0  0  0
 20 22  1  6  0  0  0
 20 21  1  0  0  0  0
 20 25  1  0  0  0  0
 20 23  1  0  0  0  0
 23 19  1  1  0  0  0
 25 23  1  0  0  0  0
 25 24  1  1  0  0  0
M  END
>  <MODEL>
4

>  <REMARK>
 VINA RESULT:      -9.3      3.322      4.796
  Name = 
  2 active torsions:
  status: ('A' for Active; 'I' for Inactive)
    1  A    between atoms: N_6  and  C_15
    2  A    between atoms: N_6  and  C_23
                            x       y       z     vdW  Elec       q    Type
                         _______ _______ _______ _____ _____    ______ ____

>  <TORSDO>
F 2

$$$$
=
 OpenBabel11052412523D

 25 29  0  0  1  0  0  0  0  0999 V2000
  188.5530  177.6540  144.0810 C   0  0  0  0  0  0  0  0  0  0  0  0
  188.7870  177.9400  142.8040 C   0  0  0  0  0  3  0  0  0  0  0  0
  186.1400  177.7360  144.3640 N   0  0  0  0  0  0  0  0  0  0  0  0
  189.5390  177.3800  145.0020 C   0  0  0  0  0  0  0  0  0  0  0  0
  191.0380  176.7520  147.2450 C   0  0  0  0  0  3  0  0  0  0  0  0
  185.7100  178.0790  143.0680 N   0  0  0  0  0  2  0  0  0  0  0  0
  188.9160  177.1280  146.1950 C   0  0  0  0  0  0  0  0  0  0  0  0
  189.6360  176.8100  147.3450 C   0  0  0  0  0  3  0  0  0  0  0  0
  185.9430  178.6280  140.6460 N   0  0  0  0  0  0  0  0  0  0  0  0
  184.6780  179.3360  140.5460 C   0  0  0  0  0  1  0  0  0  0  0  0
  187.7900  178.2180  141.7760 C   0  0  0  0  0  0  0  0  0  0  0  0
  191.6800  177.0100  146.0150 C   0  0  0  0  0  3  0  0  0  0  0  0
  187.3520  177.5520  144.7950 C   0  0  0  0  0  0  0  0  0  0  0  0
  187.5800  177.2290  146.0910 N   0  0  0  0  0  2  0  0  0  0  0  0
  186.8890  178.7480  139.6760 O   0  0  0  0  0  0  0  0  0  0  0  0
  190.9280  177.3290  144.8700 C   0  0  0  0  0  3  0  0  0  0  0  0
  188.1210  178.5760  140.3630 C   0  0  2  0  0  3  0  0  0  0  0  0
  186.4980  178.2750  141.8910 C   0  0  0  0  0  0  0  0  0  0  0  0
  188.8770  177.5010  139.7370 N   0  0  0  0  0  2  0  0  0  0  0  0
  189.1260  177.1190  137.3200 C   0  0  1  0  0  0  0  0  0  0  0  0
  188.3300  176.0000  137.5920 O   0  0  0  0  0  1  0  0  0  0  0  0
  188.9470  177.8060  135.9830 C   0  0  0  0  0  1  0  0  0  0  0  0
  189.4310  178.0310  138.4950 C   0  0  2  0  0  3  0  0  0  0  0  0
  190.8410  175.8760  138.7180 C   0  0  0  0  0  1  0  0  0  0  0  0
  190.5330  177.1270  137.8960 C   0  0  1  0  0  3  0  0  0  0  0  0
  1 13  1  0  0  0  0
  1  4  1  0  0  0  0
  2  1  2  0  0  0  0
  3 13  2  0  0  0  0
  4  7  1  0  0  0  0
  5  8  1  0  0  0  0
  6  3  1  0  0  0  0
  7  8  2  0  0  0  0
  9 18  1  0  0  0  0
 10  9  1  0  0  0  0
 11 18  2  0  0  0  0
 11  2  1  0  0  0  0
 12  5  2  0  0  0  0
 13 14  1  0  0  0  0
 14  7  1  0  0  0  0
 15 17  1  0  0  0  0
 15  9  1  0  0  0  0
 16  4  2  0  0  0  0
 16 12  1  0  0  0  0
 17 19  1  6  0  0  0
 17 11  1  0  0  0  0
 18  6  1  0  0  0  0
 20 22  1  6  0  0  0
 20 21  1  0  0  0  0
 20 25  1  0  0  0  0
 20 23  1  0  0  0  0
 23 19  1  1  0  0  0
 25 23  1  0  0  0  0
 25 24  1  1  0  0  0
M  END
>  <MODEL>
5

>  <REMARK>
 VINA RESULT:      -9.2      4.179      6.650
  Name = 
  2 active torsions:
  status: ('A' for Active; 'I' for Inactive)
    1  A    between atoms: N_6  and  C_15
    2  A    between atoms: N_6  and  C_23
                            x       y       z     vdW  Elec       q    Type
                         _______ _______ _______ _____ _____    ______ ____

>  <TORSDO>
F 2

$$$$
=
 OpenBabel11052412523D

 25 29  0  0  1  0  0  0  0  0999 V2000
  189.2690  177.3850  142.9060 C   0  0  0  0  0  0  0  0  0  0  0  0
  188.8530  177.1380  141.6680 C   0  0  0  0  0  3  0  0  0  0  0  0
  191.6780  177.6790  142.7670 N   0  0  0  0  0  0  0  0  0  0  0  0
  188.4360  177.4430  144.0020 C   0  0  0  0  0  0  0  0  0  0  0  0
  187.2920  177.6900  146.5120 C   0  0  0  0  0  3  0  0  0  0  0  0
  191.9120  177.4850  141.3930 N   0  0  0  0  0  2  0  0  0  0  0  0
  189.2210  177.7230  145.0890 C   0  0  0  0  0  0  0  0  0  0  0  0
  188.6810  177.8540  146.3670 C   0  0  0  0  0  3  0  0  0  0  0  0
  191.3290  177.0450  139.0080 N   0  0  0  0  0  0  0  0  0  0  0  0
  192.6460  176.5570  138.6340 C   0  0  0  0  0  1  0  0  0  0  0  0
  189.6770  177.0860  140.4650 C   0  0  0  0  0  0  0  0  0  0  0  0
  186.4830  177.4030  145.3910 C   0  0  0  0  0  3  0  0  0  0  0  0
  190.5500  177.6390  143.4120 C   0  0  0  0  0  0  0  0  0  0  0  0
  190.5150  177.8460  144.7510 N   0  0  0  0  0  2  0  0  0  0  0  0
  190.2510  176.8290  138.2060 O   0  0  0  0  0  0  0  0  0  0  0  0
  187.0550  177.2760  144.1120 C   0  0  0  0  0  3  0  0  0  0  0  0
  189.1530  176.7600  139.1050 C   0  0  2  0  0  3  0  0  0  0  0  0
  190.9630  177.2310  140.3550 C   0  0  0  0  0  0  0  0  0  0  0  0
  188.1440  177.7320  138.7100 N   0  0  0  0  0  2  0  0  0  0  0  0
  187.0260  178.2850  136.5890 C   0  0  1  0  0  0  0  0  0  0  0  0
  187.4190  179.5870  136.9240 O   0  0  0  0  0  1  0  0  0  0  0  0
  187.0050  177.9080  135.1230 C   0  0  0  0  0  1  0  0  0  0  0  0
  187.4510  177.1860  137.5470 C   0  0  2  0  0  3  0  0  0  0  0  0
  185.5190  178.5310  138.6160 C   0  0  0  0  0  1  0  0  0  0  0  0
  185.9730  177.6300  137.4670 C   0  0  1  0  0  3  0  0  0  0  0  0
  1 13  1  0  0  0  0
  1  4  1  0  0  0  0
  2  1  2  0  0  0  0
  3 13  2  0  0  0  0
  4 16  2  0  0  0  0
  4  7  1  0  0  0  0
  6  3  1  0  0  0  0
  7  8  2  0  0  0  0
  8  5  1  0  0  0  0
  9 18  1  0  0  0  0
 10  9  1  0  0  0  0
 11  2  1  0  0  0  0
 12  5  2  0  0  0  0
 13 14  1  0  0  0  0
 14  7  1  0  0  0  0
 15  9  1  0  0  0  0
 15 17  1  0  0  0  0
 16 12  1  0  0  0  0
 17 19  1  6  0  0  0
 17 11  1  0  0  0  0
 18 11  2  0  0  0  0
 18  6  1  0  0  0  0
 20 22  1  6  0  0  0
 20 21  1  0  0  0  0
 20 25  1  0  0  0  0
 20 23  1  0  0  0  0
 23 19  1  1  0  0  0
 25 23  1  0  0  0  0
 25 24  1  1  0  0  0
M  END
>  <MODEL>
6

>  <REMARK>
 VINA RESULT:      -9.1      4.336      7.604
  Name = 
  2 active torsions:
  status: ('A' for Active; 'I' for Inactive)
    1  A    between atoms: N_6  and  C_15
    2  A    between atoms: N_6  and  C_23
                            x       y       z     vdW  Elec       q    Type
                         _______ _______ _______ _____ _____    ______ ____

>  <TORSDO>
F 2

$$$$
=
 OpenBabel11052412523D

 25 29  0  0  1  0  0  0  0  0999 V2000
  184.8490  178.2760  144.1870 C   0  0  0  0  0  0  0  0  0  0  0  0
  186.0390  177.6830  144.1780 C   0  0  0  0  0  3  0  0  0  0  0  0
  184.5330  179.1310  146.4410 N   0  0  0  0  0  0  0  0  0  0  0  0
  184.0160  178.3460  143.0930 C   0  0  0  0  0  0  0  0  0  0  0  0
  181.9700  178.8080  141.2840 C   0  0  0  0  0  3  0  0  0  0  0  0
  185.7230  178.7230  147.0720 N   0  0  0  0  0  2  0  0  0  0  0  0
  182.8960  179.0320  143.4830 C   0  0  0  0  0  0  0  0  0  0  0  0
  181.8460  179.2830  142.6020 C   0  0  0  0  0  3  0  0  0  0  0  0
  187.9760  177.6700  147.2550 N   0  0  0  0  0  0  0  0  0  0  0  0
  187.9130  177.4640  148.6920 C   0  0  0  0  0  1  0  0  0  0  0  0
  186.9760  177.5930  145.2930 C   0  0  0  0  0  0  0  0  0  0  0  0
  183.1240  178.1030  140.8810 C   0  0  0  0  0  3  0  0  0  0  0  0
  184.1610  178.9420  145.2090 C   0  0  0  0  0  0  0  0  0  0  0  0
  182.9640  179.4040  144.7720 N   0  0  0  0  0  2  0  0  0  0  0  0
  188.9080  177.0310  146.4970 O   0  0  0  0  0  0  0  0  0  0  0  0
  184.1690  177.8630  141.7920 C   0  0  0  0  0  3  0  0  0  0  0  0
  188.2840  176.8740  145.2300 C   0  0  2  0  0  3  0  0  0  0  0  0
  186.8390  178.0320  146.5070 C   0  0  0  0  0  0  0  0  0  0  0  0
  189.1300  177.4590  144.2000 N   0  0  0  0  0  2  0  0  0  0  0  0
  191.3180  178.5360  143.8750 C   0  0  1  0  0  0  0  0  0  0  0  0
  190.9780  178.4170  142.5210 O   0  0  0  0  0  1  0  0  0  0  0  0
  192.1210  179.7470  144.2980 C   0  0  0  0  0  1  0  0  0  0  0  0
  190.2830  178.0480  144.8740 C   0  0  2  0  0  3  0  0  0  0  0  0
  191.4180  176.0030  143.7720 C   0  0  0  0  0  1  0  0  0  0  0  0
  191.5870  177.2500  144.6390 C   0  0  1  0  0  3  0  0  0  0  0  0
  1 13  1  0  0  0  0
  2  1  2  0  0  0  0
  2 11  1  0  0  0  0
  3  6  1  0  0  0  0
  4  7  1  0  0  0  0
  4  1  1  0  0  0  0
  5  8  1  0  0  0  0
  7 14  1  0  0  0  0
  8  7  2  0  0  0  0
  9 10  1  0  0  0  0
 11 18  2  0  0  0  0
 12  5  2  0  0  0  0
 12 16  1  0  0  0  0
 13  3  2  0  0  0  0
 14 13  1  0  0  0  0
 15  9  1  0  0  0  0
 16  4  2  0  0  0  0
 17 19  1  6  0  0  0
 17 11  1  0  0  0  0
 17 15  1  0  0  0  0
 18  6  1  0  0  0  0
 18  9  1  0  0  0  0
 20 22  1  1  0  0  0
 20 25  1  0  0  0  0
 20 23  1  0  0  0  0
 21 20  1  0  0  0  0
 23 19  1  6  0  0  0
 25 24  1  6  0  0  0
 25 23  1  0  0  0  0
M  END
>  <MODEL>
7

>  <REMARK>
 VINA RESULT:      -8.8      0.936      1.479
  Name = 
  2 active torsions:
  status: ('A' for Active; 'I' for Inactive)
    1  A    between atoms: N_6  and  C_15
    2  A    between atoms: N_6  and  C_23
                            x       y       z     vdW  Elec       q    Type
                         _______ _______ _______ _____ _____    ______ ____

>  <TORSDO>
F 2

$$$$
=
 OpenBabel11052412523D

 25 29  0  0  1  0  0  0  0  0999 V2000
  187.9280  177.8090  142.0220 C   0  0  2  0  0  3  0  0  0  0  0  0
  188.2680  177.3770  143.2320 C   0  0  0  0  0  3  0  0  0  0  0  0
  185.8390  179.0220  142.2970 N   0  0  0  0  0  0  0  0  0  0  0  0
  188.6650  177.5720  140.8830 C   0  0  0  0  0  0  0  0  0  0  0  0
  189.7000  177.4340  138.3180 C   0  0  0  0  0  3  0  0  0  0  0  0
  185.6100  178.8890  143.6790 N   0  0  0  0  0  0  0  0  0  0  0  0
  188.0070  178.1760  139.8450 C   0  0  0  0  0  0  0  0  0  0  0  0
  188.4960  178.1270  138.5400 C   0  0  0  0  0  3  0  0  0  0  0  0
  186.0790  178.1740  146.0230 N   0  0  0  0  0  0  0  0  0  0  0  0
  184.6950  178.2320  146.4620 C   0  0  0  0  0  1  0  0  0  0  0  0
  187.5450  177.6120  144.4770 C   0  0  0  0  0  0  0  0  0  0  0  0
  190.3790  176.8140  139.3880 C   0  0  0  0  0  3  0  0  0  0  0  0
  186.8290  178.5640  141.5910 C   0  0  0  0  0  0  0  0  0  0  0  0
  186.8820  178.7860  140.2550 N   0  0  0  0  0  2  0  0  0  0  0  0
  187.0190  177.5250  146.7610 O   0  0  0  0  0  0  0  0  0  0  0  0
  189.8620  176.8790  140.6950 C   0  0  0  0  0  3  0  0  0  0  0  0
  187.9600  177.0600  145.8020 C   0  0  2  0  0  3  0  0  0  0  0  0
  186.4280  178.2470  144.6600 C   0  0  0  0  0  0  0  0  0  0  0  0
  189.2870  177.5430  146.1540 N   0  0  0  0  0  2  0  0  0  0  0  0
  191.5230  176.6660  146.6840 C   0  0  1  0  0  0  0  0  0  0  0  0
  191.5930  177.8150  147.4810 O   0  0  0  0  0  1  0  0  0  0  0  0
  192.2240  175.4180  147.1780 C   0  0  0  0  0  1  0  0  0  0  0  0
  190.2170  176.4390  145.9420 C   0  0  2  0  0  3  0  0  0  0  0  0
  191.5240  178.3410  144.7780 C   0  0  0  0  0  1  0  0  0  0  0  0
  191.4910  176.8660  145.1770 C   0  0  1  0  0  3  0  0  0  0  0  0
  1  2  1  1  0  0  0
  2 11  2  0  0  0  0
  3  6  1  0  0  0  0
  4  1  1  0  0  0  0
  5  8  2  0  0  0  0
  5 12  1  0  0  0  0
  6 18  2  0  0  0  0
  7 14  1  0  0  0  0
  7  4  2  0  0  0  0
  8  7  1  0  0  0  0
  9 10  1  0  0  0  0
  9 15  1  0  0  0  0
 11 18  1  0  0  0  0
 11 17  1  0  0  0  0
 12 16  2  0  0  0  0
 13  1  1  0  0  0  0
 13  3  2  0  0  0  0
 14 13  1  0  0  0  0
 16  4  1  0  0  0  0
 17 19  1  1  0  0  0
 17 15  1  0  0  0  0
 18  9  1  0  0  0  0
 20 22  1  1  0  0  0
 20 21  1  0  0  0  0
 23 19  1  1  0  0  0
 23 20  1  0  0  0  0
 25 24  1  1  0  0  0
 25 23  1  0  0  0  0
 25 20  1  0  0  0  0
M  END
>  <MODEL>
8

>  <REMARK>
 VINA RESULT:      -8.8      2.879      4.083
  Name = 
  2 active torsions:
  status: ('A' for Active; 'I' for Inactive)
    1  A    between atoms: N_6  and  C_15
    2  A    between atoms: N_6  and  C_23
                            x       y       z     vdW  Elec       q    Type
                         _______ _______ _______ _____ _____    ______ ____

>  <TORSDO>
F 2

$$$$
=
 OpenBabel11052412523D

 25 29  0  0  1  0  0  0  0  0999 V2000
  188.8290  177.5620  142.7360 C   0  0  0  0  0  0  0  0  0  0  0  0
  188.0080  177.5410  141.6900 C   0  0  0  0  0  3  0  0  0  0  0  0
  191.0830  177.6340  141.8280 N   0  0  0  0  0  0  0  0  0  0  0  0
  188.4070  177.5410  144.0470 C   0  0  0  0  0  0  0  0  0  0  0  0
  188.1730  177.5310  146.8060 C   0  0  0  0  0  3  0  0  0  0  0  0
  190.8350  177.6200  140.4430 N   0  0  0  0  0  2  0  0  0  0  0  0
  189.5300  177.5810  144.8310 C   0  0  0  0  0  0  0  0  0  0  0  0
  189.4520  177.5770  146.2220 C   0  0  0  0  0  3  0  0  0  0  0  0
  189.4640  177.5930  138.3590 N   0  0  0  0  0  0  0  0  0  0  0  0
  190.5100  177.0380  137.5160 C   0  0  0  0  0  1  0  0  0  0  0  0
  188.3890  177.5830  140.2820 C   0  0  0  0  0  0  0  0  0  0  0  0
  187.0160  177.4910  145.9980 C   0  0  0  0  0  3  0  0  0  0  0  0
  190.2270  177.6120  142.8060 C   0  0  0  0  0  0  0  0  0  0  0  0
  190.6520  177.6230  144.0930 N   0  0  0  0  0  2  0  0  0  0  0  0
  188.1680  177.6050  137.9480 O   0  0  0  0  0  0  0  0  0  0  0  0
  187.1250  177.4970  144.5960 C   0  0  0  0  0  3  0  0  0  0  0  0
  187.4160  177.5140  139.1500 C   0  0  2  0  0  3  0  0  0  0  0  0
  189.5780  177.6160  139.7630 C   0  0  0  0  0  0  0  0  0  0  0  0
  186.4830  178.6280  139.2210 N   0  0  0  0  0  2  0  0  0  0  0  0
  184.0830  179.1610  139.1190 C   0  0  1  0  0  0  0  0  0  0  0  0
  184.5550  180.4790  139.0940 O   0  0  0  0  0  1  0  0  0  0  0  0
  182.8270  178.8440  138.3350 C   0  0  0  0  0  1  0  0  0  0  0  0
  185.1370  178.0670  139.1470 C   0  0  2  0  0  3  0  0  0  0  0  0
  185.0190  179.1790  141.4780 C   0  0  0  0  0  1  0  0  0  0  0  0
  184.2890  178.3740  140.4030 C   0  0  1  0  0  3  0  0  0  0  0  0
  1 13  1  0  0  0  0
  1  4  1  0  0  0  0
  2  1  2  0  0  0  0
  3 13  2  0  0  0  0
  4 16  2  0  0  0  0
  4  7  1  0  0  0  0
  6  3  1  0  0  0  0
  7  8  2  0  0  0  0
  8  5  1  0  0  0  0
  9 18  1  0  0  0  0
 10  9  1  0  0  0  0
 11  2  1  0  0  0  0
 12  5  2  0  0  0  0
 13 14  1  0  0  0  0
 14  7  1  0  0  0  0
 15  9  1  0  0  0  0
 15 17  1  0  0  0  0
 16 12  1  0  0  0  0
 17 19  1  1  0  0  0
 17 11  1  0  0  0  0
 18 11  2  0  0  0  0
 18  6  1  0  0  0  0
 20 22  1  6  0  0  0
 20 23  1  0  0  0  0
 20 25  1  0  0  0  0
 21 20  1  0  0  0  0
 23 19  1  1  0  0  0
 23 25  1  0  0  0  0
 25 24  1  1  0  0  0
M  END
>  <MODEL>
9

>  <REMARK>
 VINA RESULT:      -8.7      4.014      7.721
  Name = 
  2 active torsions:
  status: ('A' for Active; 'I' for Inactive)
    1  A    between atoms: N_6  and  C_15
    2  A    between atoms: N_6  and  C_23
                            x       y       z     vdW  Elec       q    Type
                         _______ _______ _______ _____ _____    ______ ____

>  <TORSDO>
F 2

$$$$
