=
 OpenBabel11052412493D

 25 28  0  0  0  0  0  0  0  0999 V2000
  187.5360  177.7700  145.7130 C   0  0  0  0  0  0  0  0  0  0  0  0
  188.8560  177.3130  145.5510 C   0  0  0  0  0  0  0  0  0  0  0  0
  187.8370  177.9020  148.1320 C   0  0  0  0  0  3  0  0  0  0  0  0
  186.5680  177.9960  144.7200 C   0  0  0  0  0  0  0  0  0  0  0  0
  184.4010  178.5560  143.0470 C   0  0  0  0  0  3  0  0  0  0  0  0
  189.1540  177.4460  147.9790 C   0  0  0  0  0  3  0  0  0  0  0  0
  185.3580  178.4520  145.2430 C   0  0  0  0  0  0  0  0  0  0  0  0
  184.2630  178.7380  144.4310 C   0  0  0  0  0  3  0  0  0  0  0  0
  190.9820  176.6880  146.5180 C   0  0  0  0  0  0  0  0  0  0  0  0
  191.9060  176.4820  147.6730 C   0  0  0  0  0  1  0  0  0  0  0  0
  189.3600  177.0250  144.3230 N   0  0  0  0  0  0  0  0  0  0  0  0
  185.6160  178.0980  142.5050 C   0  0  0  0  0  3  0  0  0  0  0  0
  187.0550  178.0540  146.9920 C   0  0  0  0  0  0  0  0  0  0  0  0
  185.4540  178.5820  146.9200 S   0  0  0  0  0  0  0  0  0  0  0  0
  191.4310  176.4160  145.2650 N   0  0  0  0  0  0  0  0  0  0  0  0
  186.7080  177.8150  143.3400 C   0  0  0  0  0  3  0  0  0  0  0  0
  190.6370  176.5870  144.1750 C   0  0  0  0  0  0  0  0  0  0  0  0
  189.6690  177.1500  146.7000 C   0  0  0  0  0  0  0  0  0  0  0  0
  191.1560  176.2540  142.8210 C   0  0  0  0  0  2  0  0  0  0  0  0
  191.2980  177.5210  142.0010 C   0  0  0  0  0  2  0  0  0  0  0  0
  190.7280  177.2920  140.6140 C   0  0  0  0  0  2  0  0  0  0  0  0
  189.2150  177.1910  140.6740 C   0  0  0  0  0  2  0  0  0  0  0  0
  188.5780  178.3980  140.0060 C   0  0  0  0  0  2  0  0  0  0  0  0
  189.0250  178.8160  137.4500 C   0  0  0  0  0  1  0  0  0  0  0  0
  187.8100  177.8990  138.4380 S   0  0  0  0  0  0  0  0  0  0  0  0
  1 13  1  0  0  0  0
  2  1  2  0  0  0  0
  2 18  1  0  0  0  0
  4  7  1  0  0  0  0
  4  1  1  0  0  0  0
  5  8  1  0  0  0  0
  6  3  1  0  0  0  0
  7 14  1  0  0  0  0
  8  7  2  0  0  0  0
  9 18  1  0  0  0  0
  9 10  1  0  0  0  0
 11  2  1  0  0  0  0
 12  5  2  0  0  0  0
 12 16  1  0  0  0  0
 13  3  2  0  0  0  0
 14 13  1  0  0  0  0
 15  9  2  0  0  0  0
 16  4  2  0  0  0  0
 17 11  2  0  0  0  0
 17 15  1  0  0  0  0
 18  6  2  0  0  0  0
 19 17  1  0  0  0  0
 20 19  1  0  0  0  0
 21 22  1  0  0  0  0
 21 20  1  0  0  0  0
 23 22  1  0  0  0  0
 24 25  1  0  0  0  0
 25 23  1  0  0  0  0
M  END
>  <MODEL>
1

>  <REMARK>
 VINA RESULT:      -9.2      0.000      0.000
  Name = 
  6 active torsions:
  status: ('A' for Active; 'I' for Inactive)
    1  A    between atoms: C_2  and  S_12
    2  A    between atoms: C_2  and  C_25
    3  A    between atoms: C_6  and  C_15
    4  A    between atoms: C_6  and  C_23
    5  A    between atoms: C_15  and  C_21
    6  A    between atoms: C_21  and  C_25
                            x       y       z     vdW  Elec       q    Type
                         _______ _______ _______ _____ _____    ______ ____

>  <TORSDO>
F 6

$$$$
=
 OpenBabel11052412493D

 25 28  0  0  0  0  0  0  0  0999 V2000
  187.7610  177.7420  145.6490 C   0  0  0  0  0  0  0  0  0  0  0  0
  187.0350  178.0410  144.4830 C   0  0  0  0  0  0  0  0  0  0  0  0
  185.8050  178.2080  147.0330 C   0  0  0  0  0  3  0  0  0  0  0  0
  189.1050  177.3450  145.7570 C   0  0  0  0  0  0  0  0  0  0  0  0
  191.7110  176.5450  146.3680 C   0  0  0  0  0  3  0  0  0  0  0  0
  185.0750  178.5080  145.8760 C   0  0  0  0  0  3  0  0  0  0  0  0
  189.4980  177.1320  147.0780 C   0  0  0  0  0  0  0  0  0  0  0  0
  190.7900  176.7330  147.4090 C   0  0  0  0  0  3  0  0  0  0  0  0
  184.9700  178.7270  143.4280 C   0  0  0  0  0  0  0  0  0  0  0  0
  183.5380  179.1480  143.4620 C   0  0  0  0  0  1  0  0  0  0  0  0
  187.6070  177.9660  143.2530 N   0  0  0  0  0  0  0  0  0  0  0  0
  191.3290  176.7560  145.0300 C   0  0  0  0  0  3  0  0  0  0  0  0
  187.1370  177.8300  146.8940 C   0  0  0  0  0  0  0  0  0  0  0  0
  188.2140  177.4250  148.1280 S   0  0  0  0  0  0  0  0  0  0  0  0
  185.5970  178.6350  142.2260 N   0  0  0  0  0  0  0  0  0  0  0  0
  190.0210  177.1580  144.7170 C   0  0  0  0  0  3  0  0  0  0  0  0
  186.8980  178.2540  142.1310 C   0  0  0  0  0  0  0  0  0  0  0  0
  185.6770  178.4280  144.6030 C   0  0  0  0  0  0  0  0  0  0  0  0
  187.5570  178.1900  140.7990 C   0  0  0  0  0  2  0  0  0  0  0  0
  188.9380  177.5820  140.9390 C   0  0  0  0  0  2  0  0  0  0  0  0
  189.6100  177.5370  139.5800 C   0  0  0  0  0  2  0  0  0  0  0  0
  189.1080  178.6700  138.7040 C   0  0  0  0  0  2  0  0  0  0  0  0
  189.0340  178.2250  137.2540 C   0  0  0  0  0  2  0  0  0  0  0  0
  186.4280  177.8770  137.2560 C   0  0  0  0  0  1  0  0  0  0  0  0
  187.8950  176.8190  137.0980 S   0  0  0  0  0  0  0  0  0  0  0  0
  1  4  1  0  0  0  0
  1 13  2  0  0  0  0
  2 18  2  0  0  0  0
  2  1  1  0  0  0  0
  4  7  1  0  0  0  0
  5  8  1  0  0  0  0
  6  3  2  0  0  0  0
  7  8  2  0  0  0  0
  7 14  1  0  0  0  0
  9 10  1  0  0  0  0
  9 18  1  0  0  0  0
 11  2  1  0  0  0  0
 12  5  2  0  0  0  0
 13  3  1  0  0  0  0
 13 14  1  0  0  0  0
 15  9  2  0  0  0  0
 16 12  1  0  0  0  0
 16  4  2  0  0  0  0
 17 15  1  0  0  0  0
 17 11  2  0  0  0  0
 18  6  1  0  0  0  0
 19 20  1  0  0  0  0
 19 17  1  0  0  0  0
 21 20  1  0  0  0  0
 22 21  1  0  0  0  0
 23 22  1  0  0  0  0
 25 23  1  0  0  0  0
 25 24  1  0  0  0  0
M  END
>  <MODEL>
2

>  <REMARK>
 VINA RESULT:      -8.7      1.655      4.676
  Name = 
  6 active torsions:
  status: ('A' for Active; 'I' for Inactive)
    1  A    between atoms: C_2  and  S_12
    2  A    between atoms: C_2  and  C_25
    3  A    between atoms: C_6  and  C_15
    4  A    between atoms: C_6  and  C_23
    5  A    between atoms: C_15  and  C_21
    6  A    between atoms: C_21  and  C_25
                            x       y       z     vdW  Elec       q    Type
                         _______ _______ _______ _____ _____    ______ ____

>  <TORSDO>
F 6

$$$$
=
 OpenBabel11052412493D

 25 28  0  0  0  0  0  0  0  0999 V2000
  189.4540  177.5080  143.7940 C   0  0  0  0  0  0  0  0  0  0  0  0
  188.7780  177.8500  142.6110 C   0  0  0  0  0  0  0  0  0  0  0  0
  191.4950  177.0400  142.5410 C   0  0  0  0  0  3  0  0  0  0  0  0
  188.9550  177.5020  145.1080 C   0  0  0  0  0  0  0  0  0  0  0  0
  188.3290  177.3670  147.8280 C   0  0  0  0  0  3  0  0  0  0  0  0
  190.8280  177.3790  141.3560 C   0  0  0  0  0  3  0  0  0  0  0  0
  189.9090  177.1050  146.0440 C   0  0  0  0  0  0  0  0  0  0  0  0
  189.6230  177.0290  147.4050 C   0  0  0  0  0  3  0  0  0  0  0  0
  188.7850  178.1240  140.2080 C   0  0  0  0  0  0  0  0  0  0  0  0
  189.4420  178.0750  138.8680 C   0  0  0  0  0  1  0  0  0  0  0  0
  187.4770  178.2410  142.6240 N   0  0  0  0  0  0  0  0  0  0  0  0
  187.3560  177.7700  146.8950 C   0  0  0  0  0  3  0  0  0  0  0  0
  190.7910  177.1120  143.7380 C   0  0  0  0  0  0  0  0  0  0  0  0
  191.3700  176.7550  145.2820 S   0  0  0  0  0  0  0  0  0  0  0  0
  187.4830  178.5060  140.2840 N   0  0  0  0  0  0  0  0  0  0  0  0
  187.6640  177.8400  145.5270 C   0  0  0  0  0  3  0  0  0  0  0  0
  186.8320  178.5720  141.4760 C   0  0  0  0  0  0  0  0  0  0  0  0
  189.4780  177.7830  141.3800 C   0  0  0  0  0  0  0  0  0  0  0  0
  185.4000  178.9710  141.5170 C   0  0  0  0  0  2  0  0  0  0  0  0
  184.6760  178.1730  142.5830 C   0  0  0  0  0  2  0  0  0  0  0  0
  184.3230  179.0830  143.7440 C   0  0  0  0  0  2  0  0  0  0  0  0
  182.9040  178.8160  144.2120 C   0  0  0  0  0  2  0  0  0  0  0  0
  181.9240  179.0020  143.0650 C   0  0  0  0  0  2  0  0  0  0  0  0
  179.6110  178.1670  142.1350 C   0  0  0  0  0  1  0  0  0  0  0  0
  180.2220  178.8890  143.6860 S   0  0  0  0  0  0  0  0  0  0  0  0
  1  4  1  0  0  0  0
  2 11  1  0  0  0  0
  2  1  1  0  0  0  0
  3 13  1  0  0  0  0
  4 16  2  0  0  0  0
  4  7  1  0  0  0  0
  6 18  1  0  0  0  0
  6  3  2  0  0  0  0
  7  8  2  0  0  0  0
  8  5  1  0  0  0  0
  9 15  2  0  0  0  0
  9 18  1  0  0  0  0
 10  9  1  0  0  0  0
 12  5  2  0  0  0  0
 13  1  2  0  0  0  0
 13 14  1  0  0  0  0
 14  7  1  0  0  0  0
 15 17  1  0  0  0  0
 16 12  1  0  0  0  0
 17 19  1  0  0  0  0
 17 11  2  0  0  0  0
 18  2  2  0  0  0  0
 19 20  1  0  0  0  0
 20 21  1  0  0  0  0
 21 22  1  0  0  0  0
 23 25  1  0  0  0  0
 23 22  1  0  0  0  0
 24 25  1  0  0  0  0
M  END
>  <MODEL>
3

>  <REMARK>
 VINA RESULT:      -8.6      2.532      6.322
  Name = 
  6 active torsions:
  status: ('A' for Active; 'I' for Inactive)
    1  A    between atoms: C_2  and  S_12
    2  A    between atoms: C_2  and  C_25
    3  A    between atoms: C_6  and  C_15
    4  A    between atoms: C_6  and  C_23
    5  A    between atoms: C_15  and  C_21
    6  A    between atoms: C_21  and  C_25
                            x       y       z     vdW  Elec       q    Type
                         _______ _______ _______ _____ _____    ______ ____

>  <TORSDO>
F 6

$$$$
=
 OpenBabel11052412493D

 25 28  0  0  0  0  0  0  0  0999 V2000
  187.1470  177.8640  145.3300 C   0  0  0  0  0  0  0  0  0  0  0  0
  188.4230  177.4330  144.9310 C   0  0  0  0  0  0  0  0  0  0  0  0
  187.8200  177.8160  147.6750 C   0  0  0  0  0  3  0  0  0  0  0  0
  186.0360  178.1560  144.5190 C   0  0  0  0  0  0  0  0  0  0  0  0
  183.6380  178.8210  143.2500 C   0  0  0  0  0  3  0  0  0  0  0  0
  189.0950  177.3840  147.2860 C   0  0  0  0  0  3  0  0  0  0  0  0
  184.9230  178.5600  145.2560 C   0  0  0  0  0  0  0  0  0  0  0  0
  183.7170  178.8960  144.6480 C   0  0  0  0  0  3  0  0  0  0  0  0
  190.6720  176.7550  145.5060 C   0  0  0  0  0  0  0  0  0  0  0  0
  191.7630  176.4710  146.4850 C   0  0  0  0  0  1  0  0  0  0  0  0
  188.7300  177.2430  143.6210 N   0  0  0  0  0  0  0  0  0  0  0  0
  184.7520  178.4160  142.4930 C   0  0  0  0  0  3  0  0  0  0  0  0
  186.8700  178.0470  146.6860 C   0  0  0  0  0  0  0  0  0  0  0  0
  185.2790  178.5650  146.9030 S   0  0  0  0  0  0  0  0  0  0  0  0
  190.9200  176.5830  144.1810 N   0  0  0  0  0  0  0  0  0  0  0  0
  185.9600  178.0810  143.1250 C   0  0  0  0  0  3  0  0  0  0  0  0
  189.9680  176.8290  143.2440 C   0  0  0  0  0  0  0  0  0  0  0  0
  189.4050  177.1910  145.9240 C   0  0  0  0  0  0  0  0  0  0  0  0
  190.2690  176.6040  141.8050 C   0  0  0  0  0  2  0  0  0  0  0  0
  189.2500  177.3290  140.9480 C   0  0  0  0  0  2  0  0  0  0  0  0
  189.8480  177.6160  139.5840 C   0  0  0  0  0  2  0  0  0  0  0  0
  190.9050  176.5810  139.2430 C   0  0  0  0  0  2  0  0  0  0  0  0
  190.4970  175.7960  138.0080 C   0  0  0  0  0  2  0  0  0  0  0  0
  190.5910  176.2120  135.4130 C   0  0  0  0  0  1  0  0  0  0  0  0
  189.6740  176.8980  136.8220 S   0  0  0  0  0  0  0  0  0  0  0  0
  1 13  1  0  0  0  0
  2  1  2  0  0  0  0
  2 18  1  0  0  0  0
  4  7  1  0  0  0  0
  4  1  1  0  0  0  0
  5  8  1  0  0  0  0
  6  3  1  0  0  0  0
  7 14  1  0  0  0  0
  8  7  2  0  0  0  0
  9 18  1  0  0  0  0
  9 10  1  0  0  0  0
 11  2  1  0  0  0  0
 12 16  1  0  0  0  0
 12  5  2  0  0  0  0
 13 14  1  0  0  0  0
 13  3  2  0  0  0  0
 15  9  2  0  0  0  0
 16  4  2  0  0  0  0
 17 11  2  0  0  0  0
 17 15  1  0  0  0  0
 18  6  2  0  0  0  0
 19 17  1  0  0  0  0
 20 19  1  0  0  0  0
 21 20  1  0  0  0  0
 22 21  1  0  0  0  0
 23 22  1  0  0  0  0
 24 25  1  0  0  0  0
 25 23  1  0  0  0  0
M  END
>  <MODEL>
4

>  <REMARK>
 VINA RESULT:      -8.6      1.358      1.566
  Name = 
  6 active torsions:
  status: ('A' for Active; 'I' for Inactive)
    1  A    between atoms: C_2  and  S_12
    2  A    between atoms: C_2  and  C_25
    3  A    between atoms: C_6  and  C_15
    4  A    between atoms: C_6  and  C_23
    5  A    between atoms: C_15  and  C_21
    6  A    between atoms: C_21  and  C_25
                            x       y       z     vdW  Elec       q    Type
                         _______ _______ _______ _____ _____    ______ ____

>  <TORSDO>
F 6

$$$$
=
 OpenBabel11052412493D

 25 28  0  0  0  0  0  0  0  0999 V2000
  187.6400  177.7840  145.6530 C   0  0  0  0  0  0  0  0  0  0  0  0
  186.8400  178.0890  144.5390 C   0  0  0  0  0  0  0  0  0  0  0  0
  185.7810  178.2440  147.1660 C   0  0  0  0  0  3  0  0  0  0  0  0
  188.9880  177.3840  145.6700 C   0  0  0  0  0  0  0  0  0  0  0  0
  191.6280  176.5790  146.1030 C   0  0  0  0  0  3  0  0  0  0  0  0
  184.9760  178.5510  146.0600 C   0  0  0  0  0  3  0  0  0  0  0  0
  189.4670  177.1640  146.9610 C   0  0  0  0  0  0  0  0  0  0  0  0
  190.7780  176.7620  147.2040 C   0  0  0  0  0  3  0  0  0  0  0  0
  184.7110  178.7830  143.6260 C   0  0  0  0  0  0  0  0  0  0  0  0
  183.2850  179.2060  143.7570 C   0  0  0  0  0  1  0  0  0  0  0  0
  187.3300  178.0210  143.2730 N   0  0  0  0  0  0  0  0  0  0  0  0
  191.1580  176.7970  144.7950 C   0  0  0  0  0  3  0  0  0  0  0  0
  187.1000  177.8660  146.9370 C   0  0  0  0  0  0  0  0  0  0  0  0
  188.2560  177.4530  148.0950 S   0  0  0  0  0  0  0  0  0  0  0  0
  185.2560  178.6980  142.3840 N   0  0  0  0  0  0  0  0  0  0  0  0
  189.8330  177.2020  144.5710 C   0  0  0  0  0  3  0  0  0  0  0  0
  186.5480  178.3150  142.2020 C   0  0  0  0  0  0  0  0  0  0  0  0
  185.4930  178.4770  144.7500 C   0  0  0  0  0  0  0  0  0  0  0  0
  187.1170  178.2580  140.8290 C   0  0  0  0  0  2  0  0  0  0  0  0
  188.6250  178.4040  140.8930 C   0  0  0  0  0  2  0  0  0  0  0  0
  189.2780  177.1750  140.2890 C   0  0  0  0  0  2  0  0  0  0  0  0
  190.7780  177.3740  140.1800 C   0  0  0  0  0  2  0  0  0  0  0  0
  191.3220  176.6430  138.9650 C   0  0  0  0  0  2  0  0  0  0  0  0
  190.9040  174.6570  137.2930 C   0  0  0  0  0  1  0  0  0  0  0  0
  189.9480  176.0630  137.9290 S   0  0  0  0  0  0  0  0  0  0  0  0
  1  4  1  0  0  0  0
  1 13  2  0  0  0  0
  2 18  2  0  0  0  0
  2  1  1  0  0  0  0
  4  7  1  0  0  0  0
  5  8  1  0  0  0  0
  6  3  2  0  0  0  0
  7  8  2  0  0  0  0
  7 14  1  0  0  0  0
  9 10  1  0  0  0  0
  9 18  1  0  0  0  0
 11  2  1  0  0  0  0
 12  5  2  0  0  0  0
 13  3  1  0  0  0  0
 13 14  1  0  0  0  0
 15  9  2  0  0  0  0
 16 12  1  0  0  0  0
 16  4  2  0  0  0  0
 17 15  1  0  0  0  0
 17 11  2  0  0  0  0
 18  6  1  0  0  0  0
 19 20  1  0  0  0  0
 19 17  1  0  0  0  0
 21 20  1  0  0  0  0
 22 21  1  0  0  0  0
 23 22  1  0  0  0  0
 24 25  1  0  0  0  0
 25 23  1  0  0  0  0
M  END
>  <MODEL>
5

>  <REMARK>
 VINA RESULT:      -8.5      1.822      4.792
  Name = 
  6 active torsions:
  status: ('A' for Active; 'I' for Inactive)
    1  A    between atoms: C_2  and  S_12
    2  A    between atoms: C_2  and  C_25
    3  A    between atoms: C_6  and  C_15
    4  A    between atoms: C_6  and  C_23
    5  A    between atoms: C_15  and  C_21
    6  A    between atoms: C_21  and  C_25
                            x       y       z     vdW  Elec       q    Type
                         _______ _______ _______ _____ _____    ______ ____

>  <TORSDO>
F 6

$$$$
=
 OpenBabel11052412493D

 25 28  0  0  0  0  0  0  0  0999 V2000
  189.3560  177.4670  144.1170 C   0  0  0  0  0  0  0  0  0  0  0  0
  188.3710  177.7540  145.0770 C   0  0  0  0  0  0  0  0  0  0  0  0
  190.9380  176.8430  145.8680 C   0  0  0  0  0  3  0  0  0  0  0  0
  189.2620  177.5710  142.7180 C   0  0  0  0  0  0  0  0  0  0  0  0
  189.4540  177.6480  139.9320 C   0  0  0  0  0  3  0  0  0  0  0  0
  189.9610  177.1280  146.8320 C   0  0  0  0  0  3  0  0  0  0  0  0
  190.4410  177.2030  142.0700 C   0  0  0  0  0  0  0  0  0  0  0  0
  190.5630  177.2330  140.6840 C   0  0  0  0  0  3  0  0  0  0  0  0
  187.6870  177.8780  147.3930 C   0  0  0  0  0  0  0  0  0  0  0  0
  187.9300  177.7300  148.8580 C   0  0  0  0  0  1  0  0  0  0  0  0
  187.1360  178.1910  144.7170 N   0  0  0  0  0  0  0  0  0  0  0  0
  188.2580  178.0220  140.5710 C   0  0  0  0  0  3  0  0  0  0  0  0
  190.6130  177.0200  144.5270 C   0  0  0  0  0  0  0  0  0  0  0  0
  191.6110  176.7480  143.1940 S   0  0  0  0  0  0  0  0  0  0  0  0
  186.4700  178.3130  146.9730 N   0  0  0  0  0  0  0  0  0  0  0  0
  188.1550  177.9850  141.9710 C   0  0  0  0  0  3  0  0  0  0  0  0
  186.1890  178.4630  145.6510 C   0  0  0  0  0  0  0  0  0  0  0  0
  188.6820  177.5810  146.4490 C   0  0  0  0  0  0  0  0  0  0  0  0
  184.8540  178.9660  145.2310 C   0  0  0  0  0  2  0  0  0  0  0  0
  184.8820  179.3280  143.7590 C   0  0  0  0  0  2  0  0  0  0  0  0
  183.7470  178.6230  143.0430 C   0  0  0  0  0  2  0  0  0  0  0  0
  184.1820  178.1970  141.6530 C   0  0  0  0  0  2  0  0  0  0  0  0
  183.0010  178.2160  140.6990 C   0  0  0  0  0  2  0  0  0  0  0  0
  184.9250  178.6270  138.9550 C   0  0  0  0  0  1  0  0  0  0  0  0
  183.3220  179.3840  139.3450 S   0  0  0  0  0  0  0  0  0  0  0  0
  1 13  1  0  0  0  0
  1  2  2  0  0  0  0
  2 18  1  0  0  0  0
  3  6  1  0  0  0  0
  4  1  1  0  0  0  0
  5 12  2  0  0  0  0
  5  8  1  0  0  0  0
  7  4  1  0  0  0  0
  7 14  1  0  0  0  0
  8  7  2  0  0  0  0
  9 10  1  0  0  0  0
 11  2  1  0  0  0  0
 11 17  2  0  0  0  0
 12 16  1  0  0  0  0
 13  3  2  0  0  0  0
 14 13  1  0  0  0  0
 15  9  2  0  0  0  0
 16  4  2  0  0  0  0
 17 15  1  0  0  0  0
 18  6  2  0  0  0  0
 18  9  1  0  0  0  0
 19 17  1  0  0  0  0
 20 19  1  0  0  0  0
 21 20  1  0  0  0  0
 22 21  1  0  0  0  0
 23 22  1  0  0  0  0
 24 25  1  0  0  0  0
 25 23  1  0  0  0  0
M  END
>  <MODEL>
6

>  <REMARK>
 VINA RESULT:      -8.5      2.356      4.937
  Name = 
  6 active torsions:
  status: ('A' for Active; 'I' for Inactive)
    1  A    between atoms: C_2  and  S_12
    2  A    between atoms: C_2  and  C_25
    3  A    between atoms: C_6  and  C_15
    4  A    between atoms: C_6  and  C_23
    5  A    between atoms: C_15  and  C_21
    6  A    between atoms: C_21  and  C_25
                            x       y       z     vdW  Elec       q    Type
                         _______ _______ _______ _____ _____    ______ ____

>  <TORSDO>
F 6

$$$$
=
 OpenBabel11052412493D

 25 28  0  0  0  0  0  0  0  0999 V2000
  189.3870  177.4300  144.1000 C   0  0  0  0  0  0  0  0  0  0  0  0
  188.3840  177.6630  145.0570 C   0  0  0  0  0  0  0  0  0  0  0  0
  191.0020  176.9230  145.8590 C   0  0  0  0  0  3  0  0  0  0  0  0
  189.2890  177.5140  142.7000 C   0  0  0  0  0  0  0  0  0  0  0  0
  189.4790  177.5760  139.9140 C   0  0  0  0  0  3  0  0  0  0  0  0
  190.0080  177.1550  146.8190 C   0  0  0  0  0  3  0  0  0  0  0  0
  190.4890  177.2140  142.0580 C   0  0  0  0  0  0  0  0  0  0  0  0
  190.6110  177.2380  140.6710 C   0  0  0  0  0  3  0  0  0  0  0  0
  187.6910  177.7660  147.3710 C   0  0  0  0  0  0  0  0  0  0  0  0
  187.9410  177.6480  148.8380 C   0  0  0  0  0  1  0  0  0  0  0  0
  187.1250  178.0190  144.6910 N   0  0  0  0  0  0  0  0  0  0  0  0
  188.2610  177.8810  140.5490 C   0  0  0  0  0  3  0  0  0  0  0  0
  190.6690  177.0660  144.5160 C   0  0  0  0  0  0  0  0  0  0  0  0
  191.6840  176.8440  143.1860 S   0  0  0  0  0  0  0  0  0  0  0  0
  186.4500  178.1200  146.9450 N   0  0  0  0  0  0  0  0  0  0  0  0
  188.1590  177.8510  141.9480 C   0  0  0  0  0  3  0  0  0  0  0  0
  186.1610  178.2400  145.6230 C   0  0  0  0  0  0  0  0  0  0  0  0
  188.7030  177.5240  146.4300 C   0  0  0  0  0  0  0  0  0  0  0  0
  184.7980  178.6540  145.1960 C   0  0  0  0  0  2  0  0  0  0  0  0
  184.5670  178.2510  143.7530 C   0  0  0  0  0  2  0  0  0  0  0  0
  183.6330  179.2460  143.0930 C   0  0  0  0  0  2  0  0  0  0  0  0
  182.2100  179.0380  143.5780 C   0  0  0  0  0  2  0  0  0  0  0  0
  181.2200  179.3810  142.4790 C   0  0  0  0  0  2  0  0  0  0  0  0
  179.6810  178.3480  144.3440 C   0  0  0  0  0  1  0  0  0  0  0  0
  179.8130  178.2340  142.5370 S   0  0  0  0  0  0  0  0  0  0  0  0
  1 13  1  0  0  0  0
  1  2  2  0  0  0  0
  2 18  1  0  0  0  0
  3  6  1  0  0  0  0
  4  1  1  0  0  0  0
  5 12  2  0  0  0  0
  5  8  1  0  0  0  0
  7  4  1  0  0  0  0
  7 14  1  0  0  0  0
  8  7  2  0  0  0  0
  9 10  1  0  0  0  0
 11  2  1  0  0  0  0
 11 17  2  0  0  0  0
 12 16  1  0  0  0  0
 13  3  2  0  0  0  0
 14 13  1  0  0  0  0
 15  9  2  0  0  0  0
 16  4  2  0  0  0  0
 17 15  1  0  0  0  0
 18  6  2  0  0  0  0
 18  9  1  0  0  0  0
 19 17  1  0  0  0  0
 20 19  1  0  0  0  0
 21 22  1  0  0  0  0
 21 20  1  0  0  0  0
 23 25  1  0  0  0  0
 23 22  1  0  0  0  0
 25 24  1  0  0  0  0
M  END
>  <MODEL>
7

>  <REMARK>
 VINA RESULT:      -8.1      2.594      5.837
  Name = 
  6 active torsions:
  status: ('A' for Active; 'I' for Inactive)
    1  A    between atoms: C_2  and  S_12
    2  A    between atoms: C_2  and  C_25
    3  A    between atoms: C_6  and  C_15
    4  A    between atoms: C_6  and  C_23
    5  A    between atoms: C_15  and  C_21
    6  A    between atoms: C_21  and  C_25
                            x       y       z     vdW  Elec       q    Type
                         _______ _______ _______ _____ _____    ______ ____

>  <TORSDO>
F 6

$$$$
=
 OpenBabel11052412493D

 25 28  0  0  0  0  0  0  0  0999 V2000
  186.3680  178.2370  144.2820 C   0  0  0  0  0  0  0  0  0  0  0  0
  186.4000  178.3650  142.8830 C   0  0  0  0  0  0  0  0  0  0  0  0
  184.0110  178.8720  144.3250 C   0  0  0  0  0  3  0  0  0  0  0  0
  187.4150  177.8710  145.1460 C   0  0  0  0  0  0  0  0  0  0  0  0
  189.2290  177.1870  147.1570 C   0  0  0  0  0  3  0  0  0  0  0  0
  184.0360  179.0020  142.9290 C   0  0  0  0  0  3  0  0  0  0  0  0
  187.0250  177.8460  146.4840 C   0  0  0  0  0  0  0  0  0  0  0  0
  187.9090  177.5100  147.5050 C   0  0  0  0  0  3  0  0  0  0  0  0
  185.2720  178.8790  140.8070 C   0  0  0  0  0  0  0  0  0  0  0  0
  184.0770  179.2880  140.0120 C   0  0  0  0  0  1  0  0  0  0  0  0
  187.5360  178.1260  142.1760 N   0  0  0  0  0  0  0  0  0  0  0  0
  189.6370  177.2080  145.8110 C   0  0  0  0  0  3  0  0  0  0  0  0
  185.1820  178.4910  144.9730 C   0  0  0  0  0  0  0  0  0  0  0  0
  185.4010  178.2710  146.6310 S   0  0  0  0  0  0  0  0  0  0  0  0
  186.4370  178.6280  140.1540 N   0  0  0  0  0  0  0  0  0  0  0  0
  188.7300  177.5500  144.7950 C   0  0  0  0  0  3  0  0  0  0  0  0
  187.5580  178.2490  140.8230 C   0  0  0  0  0  0  0  0  0  0  0  0
  185.2190  178.7520  142.2030 C   0  0  0  0  0  0  0  0  0  0  0  0
  188.8210  178.0070  140.0770 C   0  0  0  0  0  2  0  0  0  0  0  0
  189.8320  177.3340  140.9830 C   0  0  0  0  0  2  0  0  0  0  0  0
  191.1310  177.1280  140.2270 C   0  0  0  0  0  2  0  0  0  0  0  0
  190.8680  177.0580  138.7340 C   0  0  0  0  0  2  0  0  0  0  0  0
  191.0010  175.6280  138.2390 C   0  0  0  0  0  2  0  0  0  0  0  0
  189.5120  177.0020  136.5640 C   0  0  0  0  0  1  0  0  0  0  0  0
  189.6760  175.2620  137.0520 S   0  0  0  0  0  0  0  0  0  0  0  0
  1 13  2  0  0  0  0
  1  4  1  0  0  0  0
  2  1  1  0  0  0  0
  3 13  1  0  0  0  0
  4  7  1  0  0  0  0
  5  8  1  0  0  0  0
  6  3  2  0  0  0  0
  7 14  1  0  0  0  0
  7  8  2  0  0  0  0
  9 18  1  0  0  0  0
 10  9  1  0  0  0  0
 11  2  1  0  0  0  0
 12  5  2  0  0  0  0
 13 14  1  0  0  0  0
 15  9  2  0  0  0  0
 15 17  1  0  0  0  0
 16  4  2  0  0  0  0
 16 12  1  0  0  0  0
 17 11  2  0  0  0  0
 18  2  2  0  0  0  0
 18  6  1  0  0  0  0
 19 17  1  0  0  0  0
 19 20  1  0  0  0  0
 21 20  1  0  0  0  0
 22 21  1  0  0  0  0
 23 22  1  0  0  0  0
 24 25  1  0  0  0  0
 25 23  1  0  0  0  0
M  END
>  <MODEL>
8

>  <REMARK>
 VINA RESULT:      -8.1      1.875      4.918
  Name = 
  6 active torsions:
  status: ('A' for Active; 'I' for Inactive)
    1  A    between atoms: C_2  and  S_12
    2  A    between atoms: C_2  and  C_25
    3  A    between atoms: C_6  and  C_15
    4  A    between atoms: C_6  and  C_23
    5  A    between atoms: C_15  and  C_21
    6  A    between atoms: C_21  and  C_25
                            x       y       z     vdW  Elec       q    Type
                         _______ _______ _______ _____ _____    ______ ____

>  <TORSDO>
F 6

$$$$
=
 OpenBabel11052412493D

 25 28  0  0  0  0  0  0  0  0999 V2000
  186.3620  178.2260  144.2770 C   0  0  0  0  0  0  0  0  0  0  0  0
  186.4790  178.3480  142.8810 C   0  0  0  0  0  0  0  0  0  0  0  0
  183.9990  178.8290  144.1710 C   0  0  0  0  0  3  0  0  0  0  0  0
  187.3590  177.8780  145.2040 C   0  0  0  0  0  0  0  0  0  0  0  0
  189.0550  177.2280  147.3270 C   0  0  0  0  0  3  0  0  0  0  0  0
  184.1070  178.9540  142.7800 C   0  0  0  0  0  3  0  0  0  0  0  0
  186.8880  177.8540  146.5160 C   0  0  0  0  0  0  0  0  0  0  0  0
  187.7120  177.5340  147.5920 C   0  0  0  0  0  3  0  0  0  0  0  0
  185.4730  178.8380  140.7370 C   0  0  0  0  0  0  0  0  0  0  0  0
  184.3230  179.2280  139.8690 C   0  0  0  0  0  1  0  0  0  0  0  0
  187.6580  178.1220  142.2460 N   0  0  0  0  0  0  0  0  0  0  0  0
  189.5450  177.2480  146.0080 C   0  0  0  0  0  3  0  0  0  0  0  0
  185.1320  178.4670  144.8920 C   0  0  0  0  0  0  0  0  0  0  0  0
  185.2520  178.2570  146.5610 S   0  0  0  0  0  0  0  0  0  0  0  0
  186.6790  178.6000  140.1580 N   0  0  0  0  0  0  0  0  0  0  0  0
  188.6970  177.5740  144.9370 C   0  0  0  0  0  3  0  0  0  0  0  0
  187.7610  178.2390  140.8970 C   0  0  0  0  0  0  0  0  0  0  0  0
  185.3360  178.7170  142.1290 C   0  0  0  0  0  0  0  0  0  0  0  0
  189.0720  178.0110  140.2300 C   0  0  0  0  0  2  0  0  0  0  0  0
  189.0030  178.4800  138.7910 C   0  0  0  0  0  2  0  0  0  0  0  0
  189.7780  177.5200  137.9090 C   0  0  0  0  0  2  0  0  0  0  0  0
  189.0800  177.3490  136.5720 C   0  0  0  0  0  2  0  0  0  0  0  0
  187.9370  178.3410  136.4410 C   0  0  0  0  0  2  0  0  0  0  0  0
  185.8230  176.9400  137.1330 C   0  0  0  0  0  1  0  0  0  0  0  0
  186.5390  177.5610  135.5840 S   0  0  0  0  0  0  0  0  0  0  0  0
  1 13  2  0  0  0  0
  1  4  1  0  0  0  0
  2  1  1  0  0  0  0
  3 13  1  0  0  0  0
  4  7  1  0  0  0  0
  5  8  1  0  0  0  0
  6  3  2  0  0  0  0
  7 14  1  0  0  0  0
  7  8  2  0  0  0  0
  9 18  1  0  0  0  0
 10  9  1  0  0  0  0
 11  2  1  0  0  0  0
 12  5  2  0  0  0  0
 13 14  1  0  0  0  0
 15  9  2  0  0  0  0
 15 17  1  0  0  0  0
 16  4  2  0  0  0  0
 16 12  1  0  0  0  0
 17 11  2  0  0  0  0
 18  6  1  0  0  0  0
 18  2  2  0  0  0  0
 19 17  1  0  0  0  0
 20 19  1  0  0  0  0
 21 20  1  0  0  0  0
 22 21  1  0  0  0  0
 23 22  1  0  0  0  0
 25 23  1  0  0  0  0
 25 24  1  0  0  0  0
M  END
>  <MODEL>
9

>  <REMARK>
 VINA RESULT:      -8.1      1.929      5.020
  Name = 
  6 active torsions:
  status: ('A' for Active; 'I' for Inactive)
    1  A    between atoms: C_2  and  S_12
    2  A    between atoms: C_2  and  C_25
    3  A    between atoms: C_6  and  C_15
    4  A    between atoms: C_6  and  C_23
    5  A    between atoms: C_15  and  C_21
    6  A    between atoms: C_21  and  C_25
                            x       y       z     vdW  Elec       q    Type
                         _______ _______ _______ _____ _____    ______ ____

>  <TORSDO>
F 6

$$$$
