=
 OpenBabel11052413393D

 27 31  0  0  1  0  0  0  0  0999 V2000
  187.3570  177.8680  142.6490 N   0  0  0  0  0  2  0  0  0  0  0  0
  189.0020  177.6560  140.8600 C   0  0  0  0  0  0  0  0  0  0  0  0
  187.0110  178.6770  139.8510 N   0  0  0  0  0  2  0  0  0  0  0  0
  189.2960  175.3690  137.7670 N   0  0  0  0  0  0  0  0  0  0  0  0
  187.4520  174.9970  136.1220 N   0  0  0  0  0  1  0  0  0  0  0  0
  190.1840  176.8260  140.7350 N   0  0  0  0  0  0  0  0  0  0  0  0
  187.7430  177.0100  137.4570 C   0  0  0  0  0  0  0  0  0  0  0  0
  183.7690  179.2320  141.2510 C   0  0  0  0  0  3  0  0  0  0  0  0
  186.5910  177.7630  136.8820 C   0  0  0  0  0  1  0  0  0  0  0  0
  183.8470  178.5100  142.4400 C   0  0  0  0  0  0  0  0  0  0  0  0
  188.7560  177.5550  138.4090 C   0  0  2  0  0  3  0  0  0  0  0  0
  188.6690  178.2800  142.1750 C   0  0  2  0  0  3  0  0  0  0  0  0
  188.1400  175.8070  137.0710 C   0  0  0  0  0  0  0  0  0  0  0  0
  189.6430  176.3630  138.5180 C   0  0  0  0  0  0  0  0  0  0  0  0
  186.2250  178.1520  142.0780 C   0  0  0  0  0  0  0  0  0  0  0  0
  188.2330  177.9180  139.7800 C   0  0  0  0  0  0  0  0  0  0  0  0
  184.8940  179.3480  140.4340 C   0  0  0  0  0  3  0  0  0  0  0  0
  190.4730  176.1990  139.6610 N   0  0  0  0  0  0  0  0  0  0  0  0
  182.6420  178.3490  143.2940 C   0  0  0  0  0  1  0  0  0  0  0  0
  185.0710  177.9880  142.8550 C   0  0  0  0  0  3  0  0  0  0  0  0
  186.1160  178.7680  140.7970 C   0  0  0  0  0  0  0  0  0  0  0  0
  191.6000  177.6160  145.2520 C   0  0  0  0  0  3  0  0  0  0  0  0
  189.7070  178.0510  143.2340 C   0  0  0  0  0  0  0  0  0  0  0  0
  190.8390  178.8750  143.3280 C   0  0  0  0  0  3  0  0  0  0  0  0
  191.7850  178.6550  144.3350 C   0  0  0  0  0  3  0  0  0  0  0  0
  190.4700  176.7980  145.1640 C   0  0  0  0  0  3  0  0  0  0  0  0
  189.5240  177.0170  144.1580 C   0  0  0  0  0  3  0  0  0  0  0  0
  2 12  1  0  0  0  0
  3 21  1  0  0  0  0
  4 14  2  0  0  0  0
  5 13  1  0  0  0  0
  6  2  1  0  0  0  0
  8 10  1  0  0  0  0
  9  7  1  0  0  0  0
 10 20  2  0  0  0  0
 10 19  1  0  0  0  0
 11  7  1  6  0  0  0
 11 14  1  0  0  0  0
 11 16  1  0  0  0  0
 12  1  1  0  0  0  0
 12 23  1  1  0  0  0
 13  7  2  0  0  0  0
 13  4  1  0  0  0  0
 14 18  1  0  0  0  0
 15  1  1  0  0  0  0
 15 20  1  0  0  0  0
 16  3  1  0  0  0  0
 16  2  2  0  0  0  0
 17 21  1  0  0  0  0
 17  8  2  0  0  0  0
 18  6  2  0  0  0  0
 21 15  2  0  0  0  0
 23 24  2  0  0  0  0
 23 27  1  0  0  0  0
 24 25  1  0  0  0  0
 25 22  2  0  0  0  0
 26 22  1  0  0  0  0
 27 26  2  0  0  0  0
M  END
>  <MODEL>
1

>  <REMARK>
 VINA RESULT:      -8.6      0.000      0.000
  Name = 
  1 active torsions:
  status: ('A' for Active; 'I' for Inactive)
    1  A    between atoms: C_9  and  C_15
                            x       y       z     vdW  Elec       q    Type
                         _______ _______ _______ _____ _____    ______ ____

>  <TORSDO>
F 1

$$$$
=
 OpenBabel11052413393D

 27 31  0  0  1  0  0  0  0  0999 V2000
  184.8050  177.9340  142.3150 N   0  0  0  0  0  2  0  0  0  0  0  0
  187.2180  178.1740  142.0500 C   0  0  0  0  0  0  0  0  0  0  0  0
  186.2080  179.0150  139.9770 N   0  0  0  0  0  2  0  0  0  0  0  0
  189.8610  176.3400  139.9210 N   0  0  0  0  0  0  0  0  0  0  0  0
  189.6300  175.9100  137.4700 N   0  0  0  0  0  1  0  0  0  0  0  0
  188.3270  177.5410  142.7360 N   0  0  0  0  0  0  0  0  0  0  0  0
  188.6080  177.7690  138.6610 C   0  0  0  0  0  0  0  0  0  0  0  0
  182.8020  178.9330  138.8980 C   0  0  0  0  0  3  0  0  0  0  0  0
  187.9880  178.4150  137.4680 C   0  0  0  0  0  1  0  0  0  0  0  0
  182.2250  178.0920  139.8460 C   0  0  0  0  0  0  0  0  0  0  0  0
  188.6390  178.3340  140.0430 C   0  0  2  0  0  3  0  0  0  0  0  0
  186.0050  178.5810  142.8200 C   0  0  2  0  0  3  0  0  0  0  0  0
  189.3750  176.6890  138.6350 C   0  0  0  0  0  0  0  0  0  0  0  0
  189.4470  177.2750  140.7120 C   0  0  0  0  0  0  0  0  0  0  0  0
  184.2840  178.1210  141.1390 C   0  0  0  0  0  0  0  0  0  0  0  0
  187.2980  178.4520  140.7300 C   0  0  0  0  0  0  0  0  0  0  0  0
  184.1400  179.3050  139.0220 C   0  0  0  0  0  3  0  0  0  0  0  0
  189.3520  177.0950  142.1190 N   0  0  0  0  0  0  0  0  0  0  0  0
  180.8100  177.6600  139.6960 C   0  0  0  0  0  1  0  0  0  0  0  0
  182.9580  177.7030  140.9660 C   0  0  0  0  0  3  0  0  0  0  0  0
  184.9170  178.8650  140.1000 C   0  0  0  0  0  0  0  0  0  0  0  0
  186.3450  178.0530  147.0750 C   0  0  0  0  0  3  0  0  0  0  0  0
  186.1300  178.3770  144.3000 C   0  0  0  0  0  0  0  0  0  0  0  0
  187.2410  177.7200  144.8500 C   0  0  0  0  0  3  0  0  0  0  0  0
  187.3470  177.5570  146.2350 C   0  0  0  0  0  3  0  0  0  0  0  0
  185.2390  178.7140  146.5300 C   0  0  0  0  0  3  0  0  0  0  0  0
  185.1340  178.8770  145.1460 C   0  0  0  0  0  3  0  0  0  0  0  0
  1 12  1  0  0  0  0
  2  6  1  0  0  0  0
  2 12  1  0  0  0  0
  3 21  1  0  0  0  0
  3 16  1  0  0  0  0
  4 14  2  0  0  0  0
  5 13  1  0  0  0  0
  8 17  2  0  0  0  0
  8 10  1  0  0  0  0
  9  7  1  0  0  0  0
 10 20  2  0  0  0  0
 11  7  1  6  0  0  0
 11 14  1  0  0  0  0
 11 16  1  0  0  0  0
 12 23  1  1  0  0  0
 13  7  2  0  0  0  0
 13  4  1  0  0  0  0
 14 18  1  0  0  0  0
 15  1  1  0  0  0  0
 16  2  2  0  0  0  0
 17 21  1  0  0  0  0
 18  6  2  0  0  0  0
 19 10  1  0  0  0  0
 20 15  1  0  0  0  0
 21 15  2  0  0  0  0
 23 24  2  0  0  0  0
 23 27  1  0  0  0  0
 24 25  1  0  0  0  0
 25 22  2  0  0  0  0
 26 22  1  0  0  0  0
 27 26  2  0  0  0  0
M  END
>  <MODEL>
2

>  <REMARK>
 VINA RESULT:      -8.3      2.043      3.124
  Name = 
  1 active torsions:
  status: ('A' for Active; 'I' for Inactive)
    1  A    between atoms: C_9  and  C_15
                            x       y       z     vdW  Elec       q    Type
                         _______ _______ _______ _____ _____    ______ ____

>  <TORSDO>
F 1

$$$$
=
 OpenBabel11052413393D

 27 31  0  0  1  0  0  0  0  0999 V2000
  187.1040  177.8660  141.8350 N   0  0  0  0  0  2  0  0  0  0  0  0
  185.7310  178.3930  139.8880 C   0  0  0  0  0  0  0  0  0  0  0  0
  184.5910  179.3780  141.8250 N   0  0  0  0  0  2  0  0  0  0  0  0
  182.3120  177.1350  138.6190 N   0  0  0  0  0  0  0  0  0  0  0  0
  180.2580  176.9970  140.0360 N   0  0  0  0  0  1  0  0  0  0  0  0
  185.6700  177.8000  138.5670 N   0  0  0  0  0  0  0  0  0  0  0  0
  182.0820  178.5700  140.3750 C   0  0  0  0  0  0  0  0  0  0  0  0
  185.3270  179.0710  145.3100 C   0  0  0  0  0  3  0  0  0  0  0  0
  181.4710  179.2930  141.5280 C   0  0  0  0  0  1  0  0  0  0  0  0
  186.2840  178.0600  145.3090 C   0  0  0  0  0  0  0  0  0  0  0  0
  183.3410  178.9560  139.6710 C   0  0  2  0  0  3  0  0  0  0  0  0
  187.0520  178.5680  140.5620 C   0  0  2  0  0  3  0  0  0  0  0  0
  181.5070  177.5910  139.6950 C   0  0  0  0  0  0  0  0  0  0  0  0
  183.3440  177.9130  138.6070 C   0  0  0  0  0  0  0  0  0  0  0  0
  186.3840  178.1440  142.8800 C   0  0  0  0  0  0  0  0  0  0  0  0
  184.6070  178.8430  140.4890 C   0  0  1  0  0  3  0  0  0  0  0  0
  184.8360  179.5650  144.1010 C   0  0  0  0  0  3  0  0  0  0  0  0
  184.5650  177.5470  137.9770 N   0  0  0  0  0  2  0  0  0  0  0  0
  186.7810  177.5030  146.5940 C   0  0  0  0  0  1  0  0  0  0  0  0
  186.8190  177.6130  144.1010 C   0  0  0  0  0  3  0  0  0  0  0  0
  185.3050  179.0770  142.8750 C   0  0  0  0  0  0  0  0  0  0  0  0
  190.4510  177.5030  138.1510 C   0  0  0  0  0  3  0  0  0  0  0  0
  188.2240  178.1930  139.7050 C   0  0  0  0  0  0  0  0  0  0  0  0
  188.3190  178.6300  138.3750 C   0  0  0  0  0  3  0  0  0  0  0  0
  189.4310  178.2830  137.6000 C   0  0  0  0  0  3  0  0  0  0  0  0
  190.3610  177.0700  139.4780 C   0  0  0  0  0  3  0  0  0  0  0  0
  189.2510  177.4170  140.2540 C   0  0  0  0  0  3  0  0  0  0  0  0
  1 15  1  0  0  0  0
  2 12  1  0  0  0  0
  3 21  1  0  0  0  0
  4 13  1  0  0  0  0
  6  2  2  0  0  0  0
  7  9  1  0  0  0  0
 10  8  1  0  0  0  0
 10 19  1  0  0  0  0
 11 14  1  6  0  0  0
 11  7  1  0  0  0  0
 11 16  1  0  0  0  0
 12 23  1  6  0  0  0
 12  1  1  0  0  0  0
 13  5  1  0  0  0  0
 13  7  2  0  0  0  0
 14  4  2  0  0  0  0
 15 20  1  0  0  0  0
 16  2  1  6  0  0  0
 16  3  1  0  0  0  0
 17  8  2  0  0  0  0
 18  6  1  0  0  0  0
 18 14  1  0  0  0  0
 20 10  2  0  0  0  0
 21 15  2  0  0  0  0
 21 17  1  0  0  0  0
 22 26  1  0  0  0  0
 23 27  1  0  0  0  0
 24 23  2  0  0  0  0
 25 22  2  0  0  0  0
 25 24  1  0  0  0  0
 26 27  2  0  0  0  0
M  END
>  <MODEL>
3

>  <REMARK>
 VINA RESULT:      -7.3      2.765      5.224
  Name = 
  1 active torsions:
  status: ('A' for Active; 'I' for Inactive)
    1  A    between atoms: C_9  and  C_15
                            x       y       z     vdW  Elec       q    Type
                         _______ _______ _______ _____ _____    ______ ____

>  <TORSDO>
F 1

$$$$
=
 OpenBabel11052413393D

 27 31  0  0  1  0  0  0  0  0999 V2000
  189.2420  176.9650  140.6310 N   0  0  0  0  0  2  0  0  0  0  0  0
  187.3010  178.3860  140.2250 C   0  0  0  0  0  0  0  0  0  0  0  0
  188.0590  178.8840  142.5060 N   0  0  0  0  0  2  0  0  0  0  0  0
  183.6680  178.3700  141.5240 N   0  0  0  0  0  0  0  0  0  0  0  0
  183.0460  178.2000  143.9380 N   0  0  0  0  0  1  0  0  0  0  0  0
  186.2300  178.2940  139.2530 N   0  0  0  0  0  0  0  0  0  0  0  0
  185.1210  179.1520  143.0970 C   0  0  0  0  0  0  0  0  0  0  0  0
  190.5750  177.2850  144.4790 C   0  0  0  0  0  3  0  0  0  0  0  0
  185.6710  179.5580  144.4230 C   0  0  0  0  0  1  0  0  0  0  0  0
  190.8570  176.1550  143.7150 C   0  0  0  0  0  0  0  0  0  0  0  0
  185.7170  179.4770  141.7670 C   0  0  2  0  0  3  0  0  0  0  0  0
  188.6980  178.0450  139.8240 C   0  0  2  0  0  3  0  0  0  0  0  0
  183.9350  178.5980  142.8980 C   0  0  0  0  0  0  0  0  0  0  0  0
  184.6760  178.8730  140.8890 C   0  0  0  0  0  0  0  0  0  0  0  0
  189.4820  177.0220  141.9070 C   0  0  0  0  0  0  0  0  0  0  0  0
  187.0540  178.8340  141.4760 C   0  0  1  0  0  3  0  0  0  0  0  0
  189.6840  178.2450  143.9960 C   0  0  0  0  0  3  0  0  0  0  0  0
  185.0050  178.4900  139.5600 N   0  0  0  0  0  2  0  0  0  0  0  0
  191.7730  175.1110  144.2410 C   0  0  0  0  0  1  0  0  0  0  0  0
  190.3260  176.0350  142.4310 C   0  0  0  0  0  3  0  0  0  0  0  0
  189.0810  178.1070  142.7410 C   0  0  0  0  0  0  0  0  0  0  0  0
  189.1770  177.1270  135.6490 C   0  0  0  0  0  3  0  0  0  0  0  0
  188.8510  177.7400  138.3630 C   0  0  0  0  0  0  0  0  0  0  0  0
  188.9550  178.7690  137.4150 C   0  0  0  0  0  3  0  0  0  0  0  0
  189.1160  178.4610  136.0600 C   0  0  0  0  0  3  0  0  0  0  0  0
  189.0800  176.0990  136.5930 C   0  0  0  0  0  3  0  0  0  0  0  0
  188.9200  176.4060  137.9470 C   0  0  0  0  0  3  0  0  0  0  0  0
  1 15  1  0  0  0  0
  3 21  1  0  0  0  0
  4 13  1  0  0  0  0
  6 18  1  0  0  0  0
  6  2  2  0  0  0  0
  7  9  1  0  0  0  0
 10 19  1  0  0  0  0
 10  8  2  0  0  0  0
 11 14  1  6  0  0  0
 11  7  1  0  0  0  0
 12 23  1  6  0  0  0
 12  2  1  0  0  0  0
 12  1  1  0  0  0  0
 13  7  2  0  0  0  0
 13  5  1  0  0  0  0
 14  4  2  0  0  0  0
 15 20  2  0  0  0  0
 15 21  1  0  0  0  0
 16  2  1  6  0  0  0
 16 11  1  0  0  0  0
 16  3  1  0  0  0  0
 17  8  1  0  0  0  0
 18 14  1  0  0  0  0
 20 10  1  0  0  0  0
 21 17  2  0  0  0  0
 22 25  2  0  0  0  0
 22 26  1  0  0  0  0
 24 23  2  0  0  0  0
 25 24  1  0  0  0  0
 26 27  2  0  0  0  0
 27 23  1  0  0  0  0
M  END
>  <MODEL>
4

>  <REMARK>
 VINA RESULT:      -7.3      1.781      6.422
  Name = 
  1 active torsions:
  status: ('A' for Active; 'I' for Inactive)
    1  A    between atoms: C_9  and  C_15
                            x       y       z     vdW  Elec       q    Type
                         _______ _______ _______ _____ _____    ______ ____

>  <TORSDO>
F 1

$$$$
=
 OpenBabel11052413393D

 27 31  0  0  1  0  0  0  0  0999 V2000
  183.1880  177.6260  139.0050 N   0  0  0  0  0  2  0  0  0  0  0  0
  184.0230  178.6050  141.0780 C   0  0  0  0  0  0  0  0  0  0  0  0
  185.8430  178.7930  139.4420 N   0  0  0  0  0  2  0  0  0  0  0  0
  186.6120  177.4750  143.7050 N   0  0  0  0  0  0  0  0  0  0  0  0
  188.9140  176.6780  143.1480 N   0  0  0  0  0  1  0  0  0  0  0  0
  183.5840  178.4640  142.4520 N   0  0  0  0  0  0  0  0  0  0  0  0
  187.6170  178.2390  141.8070 C   0  0  0  0  0  0  0  0  0  0  0  0
  186.0880  177.4620  136.1330 C   0  0  0  0  0  3  0  0  0  0  0  0
  188.6640  178.4860  140.7730 C   0  0  0  0  0  1  0  0  0  0  0  0
  184.9880  176.6090  136.0890 C   0  0  0  0  0  0  0  0  0  0  0  0
  186.3130  178.9580  141.9180 C   0  0  2  0  0  3  0  0  0  0  0  0
  183.0130  178.6890  139.9810 C   0  0  2  0  0  3  0  0  0  0  0  0
  187.7650  177.4760  142.8790 C   0  0  0  0  0  0  0  0  0  0  0  0
  185.7970  178.3180  143.1610 C   0  0  0  0  0  0  0  0  0  0  0  0
  184.2170  177.4770  138.2260 C   0  0  0  0  0  0  0  0  0  0  0  0
  185.3380  178.7190  140.7880 C   0  0  0  0  0  0  0  0  0  0  0  0
  186.3010  178.2640  137.2550 C   0  0  0  0  0  3  0  0  0  0  0  0
  184.3990  178.3010  143.4210 N   0  0  0  0  0  0  0  0  0  0  0  0
  184.7790  175.7230  134.9140 C   0  0  0  0  0  1  0  0  0  0  0  0
  184.0520  176.6300  137.1220 C   0  0  0  0  0  3  0  0  0  0  0  0
  185.4130  178.2460  138.3370 C   0  0  0  0  0  0  0  0  0  0  0  0
  178.9310  178.7650  141.3330 C   0  0  0  0  0  3  0  0  0  0  0  0
  181.5950  178.7320  140.4660 C   0  0  0  0  0  0  0  0  0  0  0  0
  180.9330  179.9530  140.6650 C   0  0  0  0  0  3  0  0  0  0  0  0
  179.6030  179.9680  141.1000 C   0  0  0  0  0  3  0  0  0  0  0  0
  179.5860  177.5470  141.1300 C   0  0  0  0  0  3  0  0  0  0  0  0
  180.9140  177.5310  140.6950 C   0  0  0  0  0  3  0  0  0  0  0  0
  1 12  1  0  0  0  0
  2  6  1  0  0  0  0
  3 16  1  0  0  0  0
  6 18  2  0  0  0  0
  7 11  1  0  0  0  0
  7 13  2  0  0  0  0
  8 17  1  0  0  0  0
  9  7  1  0  0  0  0
 10  8  2  0  0  0  0
 10 20  1  0  0  0  0
 11 16  1  6  0  0  0
 11 14  1  0  0  0  0
 12 23  1  1  0  0  0
 12  2  1  0  0  0  0
 13  5  1  0  0  0  0
 13  4  1  0  0  0  0
 14 18  1  0  0  0  0
 14  4  2  0  0  0  0
 15 21  1  0  0  0  0
 15  1  1  0  0  0  0
 16  2  2  0  0  0  0
 17 21  2  0  0  0  0
 19 10  1  0  0  0  0
 20 15  2  0  0  0  0
 21  3  1  0  0  0  0
 23 24  2  0  0  0  0
 23 27  1  0  0  0  0
 24 25  1  0  0  0  0
 25 22  2  0  0  0  0
 26 22  1  0  0  0  0
 27 26  2  0  0  0  0
M  END
>  <MODEL>
5

>  <REMARK>
 VINA RESULT:      -7.2      2.710      7.265
  Name = 
  1 active torsions:
  status: ('A' for Active; 'I' for Inactive)
    1  A    between atoms: C_9  and  C_15
                            x       y       z     vdW  Elec       q    Type
                         _______ _______ _______ _____ _____    ______ ____

>  <TORSDO>
F 1

$$$$
=
 OpenBabel11052413393D

 27 31  0  0  1  0  0  0  0  0999 V2000
  187.4480  177.8420  142.3070 N   0  0  0  0  0  2  0  0  0  0  0  0
  186.9790  178.2110  139.9420 C   0  0  0  0  0  0  0  0  0  0  0  0
  185.2160  179.3800  141.1880 N   0  0  0  0  0  2  0  0  0  0  0  0
  184.2790  176.8910  137.5230 N   0  0  0  0  0  0  0  0  0  0  0  0
  181.8300  176.9060  138.0170 N   0  0  0  0  0  1  0  0  0  0  0  0
  187.4140  177.5040  138.7550 N   0  0  0  0  0  0  0  0  0  0  0  0
  183.4450  178.4800  138.9290 C   0  0  0  0  0  0  0  0  0  0  0  0
  184.5070  179.3750  144.6920 C   0  0  0  0  0  3  0  0  0  0  0  0
  182.4650  179.3100  139.6880 C   0  0  0  0  0  1  0  0  0  0  0  0
  185.3390  178.3540  145.1470 C   0  0  0  0  0  0  0  0  0  0  0  0
  184.8970  178.7850  138.7540 C   0  0  2  0  0  3  0  0  0  0  0  0
  187.9350  178.4280  141.0690 C   0  0  2  0  0  3  0  0  0  0  0  0
  183.1390  177.4510  138.1540 C   0  0  0  0  0  0  0  0  0  0  0  0
  185.2690  177.6510  137.8610 C   0  0  0  0  0  0  0  0  0  0  0  0
  186.3890  178.2210  142.9580 C   0  0  0  0  0  0  0  0  0  0  0  0
  185.7320  178.7280  140.0130 C   0  0  1  0  0  3  0  0  0  0  0  0
  184.5550  179.7650  143.3530 C   0  0  0  0  0  3  0  0  0  0  0  0
  186.6200  177.2140  137.7970 N   0  0  0  0  0  2  0  0  0  0  0  0
  185.2630  177.9070  146.5620 C   0  0  0  0  0  1  0  0  0  0  0  0
  186.2840  177.7940  144.2880 C   0  0  0  0  0  3  0  0  0  0  0  0
  185.4450  179.1640  142.4550 C   0  0  0  0  0  0  0  0  0  0  0  0
  191.9570  177.1270  140.2790 C   0  0  0  0  0  3  0  0  0  0  0  0
  189.3300  177.9620  140.7770 C   0  0  0  0  0  0  0  0  0  0  0  0
  189.8070  177.8810  139.4600 C   0  0  0  0  0  3  0  0  0  0  0  0
  191.1180  177.4610  139.2130 C   0  0  0  0  0  3  0  0  0  0  0  0
  191.4870  177.2130  141.5930 C   0  0  0  0  0  3  0  0  0  0  0  0
  190.1770  177.6320  141.8410 C   0  0  0  0  0  3  0  0  0  0  0  0
  1 15  1  0  0  0  0
  2 12  1  0  0  0  0
  3 21  1  0  0  0  0
  4 14  2  0  0  0  0
  4 13  1  0  0  0  0
  5 13  1  0  0  0  0
  6  2  2  0  0  0  0
  7  9  1  0  0  0  0
  8 10  1  0  0  0  0
 10 19  1  0  0  0  0
 11 14  1  6  0  0  0
 11  7  1  0  0  0  0
 11 16  1  0  0  0  0
 12 23  1  6  0  0  0
 12  1  1  0  0  0  0
 13  7  2  0  0  0  0
 15 20  1  0  0  0  0
 16  2  1  6  0  0  0
 16  3  1  0  0  0  0
 17  8  2  0  0  0  0
 18 14  1  0  0  0  0
 18  6  1  0  0  0  0
 20 10  2  0  0  0  0
 21 15  2  0  0  0  0
 21 17  1  0  0  0  0
 22 26  1  0  0  0  0
 23 27  1  0  0  0  0
 24 23  2  0  0  0  0
 25 24  1  0  0  0  0
 25 22  2  0  0  0  0
 26 27  2  0  0  0  0
M  END
>  <MODEL>
6

>  <REMARK>
 VINA RESULT:      -7.1      2.379      3.786
  Name = 
  1 active torsions:
  status: ('A' for Active; 'I' for Inactive)
    1  A    between atoms: C_9  and  C_15
                            x       y       z     vdW  Elec       q    Type
                         _______ _______ _______ _____ _____    ______ ____

>  <TORSDO>
F 1

$$$$
=
 OpenBabel11052413393D

 27 31  0  0  1  0  0  0  0  0999 V2000
  191.5310  176.6520  139.4990 N   0  0  0  0  0  2  0  0  0  0  0  0
  189.1210  177.0220  139.4450 C   0  0  0  0  0  0  0  0  0  0  0  0
  189.6270  175.4930  137.5930 N   0  0  0  0  0  2  0  0  0  0  0  0
  186.7760  178.9740  137.0840 N   0  0  0  0  0  0  0  0  0  0  0  0
  186.8030  178.7610  134.5950 N   0  0  0  0  0  1  0  0  0  0  0  0
  188.2970  178.0700  140.0150 N   0  0  0  0  0  0  0  0  0  0  0  0
  187.4690  177.0130  136.1500 C   0  0  0  0  0  0  0  0  0  0  0  0
  192.7870  174.4030  136.3280 C   0  0  0  0  0  3  0  0  0  0  0  0
  187.7570  175.9710  135.1220 C   0  0  0  0  0  1  0  0  0  0  0  0
  193.6670  175.2480  137.0000 C   0  0  0  0  0  0  0  0  0  0  0  0
  187.4680  176.8050  137.6290 C   0  0  2  0  0  3  0  0  0  0  0  0
  190.2800  176.4860  140.2200 C   0  0  2  0  0  3  0  0  0  0  0  0
  186.9980  178.2250  135.9000 C   0  0  0  0  0  0  0  0  0  0  0  0
  187.0380  178.1650  138.0580 C   0  0  0  0  0  0  0  0  0  0  0  0
  191.8410  176.0700  138.3780 C   0  0  0  0  0  0  0  0  0  0  0  0
  188.8120  176.4860  138.2440 C   0  0  0  0  0  0  0  0  0  0  0  0
  191.4240  174.4460  136.6200 C   0  0  0  0  0  3  0  0  0  0  0  0
  187.3470  178.6260  139.3670 N   0  0  0  0  0  0  0  0  0  0  0  0
  195.1150  175.2340  136.6650 C   0  0  0  0  0  1  0  0  0  0  0  0
  193.1970  176.0630  138.0290 C   0  0  0  0  0  3  0  0  0  0  0  0
  190.9190  175.3110  137.5980 C   0  0  0  0  0  0  0  0  0  0  0  0
  190.6600  178.0710  144.2000 C   0  0  0  0  0  3  0  0  0  0  0  0
  190.3920  177.0450  141.6060 C   0  0  0  0  0  0  0  0  0  0  0  0
  189.3770  176.8420  142.5550 C   0  0  0  0  0  3  0  0  0  0  0  0
  189.5120  177.3560  143.8480 C   0  0  0  0  0  3  0  0  0  0  0  0
  191.6760  178.2700  143.2590 C   0  0  0  0  0  3  0  0  0  0  0  0
  191.5420  177.7550  141.9660 C   0  0  0  0  0  3  0  0  0  0  0  0
  1 12  1  0  0  0  0
  2  6  1  0  0  0  0
  2 12  1  0  0  0  0
  3 21  1  0  0  0  0
  3 16  1  0  0  0  0
  4 14  2  0  0  0  0
  5 13  1  0  0  0  0
  8 17  2  0  0  0  0
  8 10  1  0  0  0  0
  9  7  1  0  0  0  0
 10 20  2  0  0  0  0
 11  7  1  6  0  0  0
 11 14  1  0  0  0  0
 11 16  1  0  0  0  0
 12 23  1  1  0  0  0
 13  7  2  0  0  0  0
 13  4  1  0  0  0  0
 14 18  1  0  0  0  0
 15  1  1  0  0  0  0
 16  2  2  0  0  0  0
 17 21  1  0  0  0  0
 18  6  2  0  0  0  0
 19 10  1  0  0  0  0
 20 15  1  0  0  0  0
 21 15  2  0  0  0  0
 23 27  2  0  0  0  0
 23 24  1  0  0  0  0
 24 25  2  0  0  0  0
 25 22  1  0  0  0  0
 26 22  2  0  0  0  0
 27 26  1  0  0  0  0
M  END
>  <MODEL>
7

>  <REMARK>
 VINA RESULT:      -7.1      2.660      5.893
  Name = 
  1 active torsions:
  status: ('A' for Active; 'I' for Inactive)
    1  A    between atoms: C_9  and  C_15
                            x       y       z     vdW  Elec       q    Type
                         _______ _______ _______ _____ _____    ______ ____

>  <TORSDO>
F 1

$$$$
=
 OpenBabel11052413393D

 27 31  0  0  1  0  0  0  0  0999 V2000
  185.6440  178.0620  141.7330 N   0  0  0  0  0  2  0  0  0  0  0  0
  183.8420  178.1790  140.0930 C   0  0  0  0  0  0  0  0  0  0  0  0
  182.9070  179.0040  142.2080 N   0  0  0  0  0  2  0  0  0  0  0  0
  180.6020  176.1590  139.5450 N   0  0  0  0  0  0  0  0  0  0  0  0
  178.9390  175.6650  141.3430 N   0  0  0  0  0  1  0  0  0  0  0  0
  183.6590  177.5160  138.8180 N   0  0  0  0  0  0  0  0  0  0  0  0
  180.4050  177.6060  141.2950 C   0  0  0  0  0  0  0  0  0  0  0  0
  184.3470  179.0490  145.4790 C   0  0  0  0  0  3  0  0  0  0  0  0
  179.8840  178.2430  142.5390 C   0  0  0  0  0  1  0  0  0  0  0  0
  185.4840  178.2650  145.2980 C   0  0  0  0  0  0  0  0  0  0  0  0
  181.3900  178.2110  140.3500 C   0  0  2  0  0  3  0  0  0  0  0  0
  185.1970  178.6670  140.4890 C   0  0  2  0  0  3  0  0  0  0  0  0
  179.9390  176.4910  140.7540 C   0  0  0  0  0  0  0  0  0  0  0  0
  181.4170  177.1360  139.3180 C   0  0  0  0  0  0  0  0  0  0  0  0
  185.0950  178.2370  142.8980 C   0  0  0  0  0  0  0  0  0  0  0  0
  182.7830  178.4130  140.9010 C   0  0  1  0  0  3  0  0  0  0  0  0
  183.5380  179.3610  144.3870 C   0  0  0  0  0  3  0  0  0  0  0  0
  182.5450  177.0030  138.4630 N   0  0  0  0  0  2  0  0  0  0  0  0
  186.3280  177.8970  146.4650 C   0  0  0  0  0  1  0  0  0  0  0  0
  185.8620  177.8770  144.0140 C   0  0  0  0  0  3  0  0  0  0  0  0
  183.8580  178.9180  143.0980 C   0  0  0  0  0  0  0  0  0  0  0  0
  188.2150  178.2290  137.4560 C   0  0  0  0  0  3  0  0  0  0  0  0
  186.2350  178.5030  139.4200 C   0  0  0  0  0  0  0  0  0  0  0  0
  185.9040  178.6240  138.0620 C   0  0  0  0  0  3  0  0  0  0  0  0
  186.8930  178.4850  137.0830 C   0  0  0  0  0  3  0  0  0  0  0  0
  188.5500  178.1140  138.8090 C   0  0  0  0  0  3  0  0  0  0  0  0
  187.5620  178.2530  139.7890 C   0  0  0  0  0  3  0  0  0  0  0  0
  1 15  1  0  0  0  0
  2 12  1  0  0  0  0
  3 21  1  0  0  0  0
  4 13  1  0  0  0  0
  6  2  2  0  0  0  0
  7  9  1  0  0  0  0
 10  8  1  0  0  0  0
 10 19  1  0  0  0  0
 11 14  1  6  0  0  0
 11 16  1  0  0  0  0
 11  7  1  0  0  0  0
 12 23  1  6  0  0  0
 12  1  1  0  0  0  0
 13  7  2  0  0  0  0
 13  5  1  0  0  0  0
 14  4  2  0  0  0  0
 15 21  2  0  0  0  0
 15 20  1  0  0  0  0
 16  2  1  6  0  0  0
 16  3  1  0  0  0  0
 17  8  2  0  0  0  0
 18  6  1  0  0  0  0
 18 14  1  0  0  0  0
 20 10  2  0  0  0  0
 21 17  1  0  0  0  0
 22 26  1  0  0  0  0
 23 27  1  0  0  0  0
 24 23  2  0  0  0  0
 25 22  2  0  0  0  0
 25 24  1  0  0  0  0
 26 27  2  0  0  0  0
M  END
>  <MODEL>
8

>  <REMARK>
 VINA RESULT:      -7.1      3.321      6.467
  Name = 
  1 active torsions:
  status: ('A' for Active; 'I' for Inactive)
    1  A    between atoms: C_9  and  C_15
                            x       y       z     vdW  Elec       q    Type
                         _______ _______ _______ _____ _____    ______ ____

>  <TORSDO>
F 1

$$$$
=
 OpenBabel11052413393D

 27 31  0  0  1  0  0  0  0  0999 V2000
  186.1280  178.0560  140.1940 N   0  0  0  0  0  2  0  0  0  0  0  0
  187.1260  178.3100  142.4050 C   0  0  0  0  0  0  0  0  0  0  0  0
  188.9170  178.7450  140.7840 N   0  0  0  0  0  2  0  0  0  0  0  0
  189.6140  176.2010  144.4650 N   0  0  0  0  0  0  0  0  0  0  0  0
  191.7860  175.3380  143.5790 N   0  0  0  0  0  1  0  0  0  0  0  0
  186.7050  177.8390  143.7090 N   0  0  0  0  0  0  0  0  0  0  0  0
  190.6630  177.3500  142.7980 C   0  0  0  0  0  0  0  0  0  0  0  0
  188.9190  178.3810  137.2280 C   0  0  0  0  0  3  0  0  0  0  0  0
  191.7090  177.7580  141.8150 C   0  0  0  0  0  1  0  0  0  0  0  0
  187.7200  177.7050  137.0130 C   0  0  0  0  0  0  0  0  0  0  0  0
  189.4620  178.1510  143.1780 C   0  0  2  0  0  3  0  0  0  0  0  0
  186.1100  178.8150  141.4340 C   0  0  2  0  0  3  0  0  0  0  0  0
  190.7390  176.3040  143.6060 C   0  0  0  0  0  0  0  0  0  0  0  0
  188.8980  177.2500  144.2230 C   0  0  0  0  0  0  0  0  0  0  0  0
  187.1130  178.0180  139.3460 C   0  0  0  0  0  0  0  0  0  0  0  0
  188.4380  178.3530  142.0840 C   0  0  0  0  0  0  0  0  0  0  0  0
  189.2560  178.8050  138.5140 C   0  0  0  0  0  3  0  0  0  0  0  0
  187.5160  177.3180  144.5470 N   0  0  0  0  0  0  0  0  0  0  0  0
  187.3750  177.2160  135.6530 C   0  0  0  0  0  1  0  0  0  0  0  0
  186.8180  177.5400  138.0630 C   0  0  0  0  0  3  0  0  0  0  0  0
  188.3980  178.5840  139.5980 C   0  0  0  0  0  0  0  0  0  0  0  0
  182.1020  179.0220  142.9810 C   0  0  0  0  0  3  0  0  0  0  0  0
  184.7200  178.8790  141.9920 C   0  0  0  0  0  0  0  0  0  0  0  0
  184.4820  179.3410  143.2960 C   0  0  0  0  0  3  0  0  0  0  0  0
  183.1750  179.4110  143.7890 C   0  0  0  0  0  3  0  0  0  0  0  0
  182.3350  178.5660  141.6800 C   0  0  0  0  0  3  0  0  0  0  0  0
  183.6410  178.4980  141.1860 C   0  0  0  0  0  3  0  0  0  0  0  0
  1 12  1  0  0  0  0
  2  6  1  0  0  0  0
  3 16  1  0  0  0  0
  5 13  1  0  0  0  0
  6 18  2  0  0  0  0
  7 11  1  0  0  0  0
  7 13  2  0  0  0  0
  8 17  1  0  0  0  0
  9  7  1  0  0  0  0
 10  8  2  0  0  0  0
 10 20  1  0  0  0  0
 11 16  1  6  0  0  0
 11 14  1  0  0  0  0
 12 23  1  1  0  0  0
 12  2  1  0  0  0  0
 13  4  1  0  0  0  0
 14  4  2  0  0  0  0
 14 18  1  0  0  0  0
 15 21  1  0  0  0  0
 15  1  1  0  0  0  0
 16  2  2  0  0  0  0
 17 21  2  0  0  0  0
 19 10  1  0  0  0  0
 20 15  2  0  0  0  0
 21  3  1  0  0  0  0
 22 25  1  0  0  0  0
 23 24  1  0  0  0  0
 24 25  2  0  0  0  0
 26 22  2  0  0  0  0
 27 26  1  0  0  0  0
 27 23  2  0  0  0  0
M  END
>  <MODEL>
9

>  <REMARK>
 VINA RESULT:      -7.1      1.995      6.098
  Name = 
  1 active torsions:
  status: ('A' for Active; 'I' for Inactive)
    1  A    between atoms: C_9  and  C_15
                            x       y       z     vdW  Elec       q    Type
                         _______ _______ _______ _____ _____    ______ ____

>  <TORSDO>
F 1

$$$$
