=
 OpenBabel11052412513D

 25 27  0  0  1  0  0  0  0  0999 V2000
  183.9690  178.4430  142.1100 C   0  0  0  0  0  0  0  0  0  0  0  0
  184.9450  178.2610  143.1000 C   0  0  0  0  0  0  0  0  0  0  0  0
  182.3530  179.0100  143.7980 C   0  0  0  0  0  3  0  0  0  0  0  0
  184.1590  178.1930  140.6500 C   0  0  1  0  0  3  0  0  0  0  0  0
  183.3020  178.8330  144.7610 N   0  0  0  0  0  0  0  0  0  0  0  0
  182.7630  178.1210  140.0180 C   0  0  2  0  0  3  0  0  0  0  0  0
  185.5380  178.2800  145.4690 C   0  0  0  0  0  0  0  0  0  0  0  0
  185.1940  178.4810  146.9050 C   0  0  0  0  0  1  0  0  0  0  0  0
  186.2520  177.8720  142.7830 C   0  0  0  0  0  3  0  0  0  0  0  0
  182.6900  178.8170  142.4600 C   0  0  0  0  0  0  0  0  0  0  0  0
  181.5400  178.9450  141.1110 S   0  0  0  0  0  0  0  0  0  0  0  0
  186.8410  177.8950  145.1330 C   0  0  0  0  0  3  0  0  0  0  0  0
  187.1990  177.6950  143.7950 C   0  0  0  0  0  0  0  0  0  0  0  0
  184.5820  178.4670  144.4540 C   0  0  0  0  0  0  0  0  0  0  0  0
  182.0730  175.5620  139.6660 C   0  0  0  0  0  3  0  0  0  0  0  0
  182.3810  176.7180  139.8250 C   0  0  0  0  0  0  0  0  0  0  0  0
  184.4700  180.0640  139.2170 O   0  0  0  0  0  0  0  0  0  0  0  0
  184.9710  179.2820  140.0130 C   0  0  0  0  0  3  0  0  0  0  0  0
  188.5850  177.2740  143.4540 C   0  0  0  0  0  2  0  0  0  0  0  0
  189.5930  178.0860  144.2490 C   0  0  0  0  0  2  0  0  0  0  0  0
  190.8250  177.2520  144.5520 C   0  0  2  0  0  3  0  0  0  0  0  0
  190.7900  176.0770  143.8040 O   0  0  0  0  0  1  0  0  0  0  0  0
  190.9020  176.9190  146.0050 C   0  0  0  0  0  0  0  0  0  0  0  0
  192.0250  176.7870  146.5570 O   0  0  0  0  0  0  0  0  0  0  0  0
  189.7420  176.7470  146.7500 O   0  0  0  0  0  1  0  0  0  0  0  0
  1 10  2  0  0  0  0
  1  2  1  0  0  0  0
  2 14  1  0  0  0  0
  3  5  2  0  0  0  0
  4 18  1  6  0  0  0
  4  1  1  0  0  0  0
  6 16  1  1  0  0  0
  6  4  1  0  0  0  0
  6 11  1  0  0  0  0
  7  8  1  0  0  0  0
  9  2  2  0  0  0  0
  9 13  1  0  0  0  0
 10  3  1  0  0  0  0
 11 10  1  0  0  0  0
 12  7  1  0  0  0  0
 13 12  2  0  0  0  0
 14  5  1  0  0  0  0
 14  7  2  0  0  0  0
 15 16  3  0  0  0  0
 17 18  2  0  0  0  0
 19 13  1  0  0  0  0
 19 20  1  0  0  0  0
 20 21  1  0  0  0  0
 21 22  1  6  0  0  0
 21 23  1  0  0  0  0
 23 24  2  0  0  0  0
 23 25  1  0  0  0  0
M  END
>  <MODEL>
1

>  <REMARK>
 VINA RESULT:      -8.3      0.000      0.000
  Name = 
  6 active torsions:
  status: ('A' for Active; 'I' for Inactive)
    1  A    between atoms: C_2  and  C_21
    2  A    between atoms: C_5  and  C_22
    3  A    between atoms: C_6  and  C_15
    4  A    between atoms: C_6  and  C_23
    5  A    between atoms: C_10  and  C_11
    6  A    between atoms: C_15  and  C_21
                            x       y       z     vdW  Elec       q    Type
                         _______ _______ _______ _____ _____    ______ ____

>  <TORSDO>
F 6

$$$$
=
 OpenBabel11052412513D

 25 27  0  0  1  0  0  0  0  0999 V2000
  183.8980  178.4700  142.0910 C   0  0  0  0  0  0  0  0  0  0  0  0
  184.8840  178.2710  143.0690 C   0  0  0  0  0  0  0  0  0  0  0  0
  182.3090  179.0520  143.7990 C   0  0  0  0  0  3  0  0  0  0  0  0
  184.0690  178.2230  140.6280 C   0  0  1  0  0  3  0  0  0  0  0  0
  183.2680  178.8590  144.7500 N   0  0  0  0  0  0  0  0  0  0  0  0
  182.6650  178.1720  140.0110 C   0  0  2  0  0  3  0  0  0  0  0  0
  185.5040  178.2740  145.4300 C   0  0  0  0  0  0  0  0  0  0  0  0
  185.1790  178.4740  146.8710 C   0  0  0  0  0  1  0  0  0  0  0  0
  186.1810  177.8670  142.7350 C   0  0  0  0  0  3  0  0  0  0  0  0
  182.6290  178.8590  142.4570 C   0  0  0  0  0  0  0  0  0  0  0  0
  181.4650  179.0070  141.1220 S   0  0  0  0  0  0  0  0  0  0  0  0
  186.7980  177.8730  145.0780 C   0  0  0  0  0  3  0  0  0  0  0  0
  187.1380  177.6740  143.7360 C   0  0  0  0  0  0  0  0  0  0  0  0
  184.5390  178.4770  144.4270 C   0  0  0  0  0  0  0  0  0  0  0  0
  181.9370  175.6240  139.6560 C   0  0  0  0  0  3  0  0  0  0  0  0
  182.2620  176.7750  139.8180 C   0  0  0  0  0  0  0  0  0  0  0  0
  184.4100  180.0410  139.1340 O   0  0  0  0  0  0  0  0  0  0  0  0
  184.8880  179.3040  139.9850 C   0  0  0  0  0  3  0  0  0  0  0  0
  188.5140  177.2360  143.3770 C   0  0  0  0  0  2  0  0  0  0  0  0
  189.0420  178.0620  142.2160 C   0  0  0  0  0  2  0  0  0  0  0  0
  189.5680  177.1560  141.1170 C   0  0  2  0  0  3  0  0  0  0  0  0
  190.9600  177.2100  141.0910 O   0  0  0  0  0  1  0  0  0  0  0  0
  189.0260  177.5590  139.7860 C   0  0  0  0  0  0  0  0  0  0  0  0
  189.1660  176.7940  138.7960 O   0  0  0  0  0  0  0  0  0  0  0  0
  188.3730  178.7750  139.6310 O   0  0  0  0  0  1  0  0  0  0  0  0
  1 10  2  0  0  0  0
  1  2  1  0  0  0  0
  2 14  1  0  0  0  0
  3  5  2  0  0  0  0
  4 18  1  6  0  0  0
  4  1  1  0  0  0  0
  6 16  1  1  0  0  0
  6  4  1  0  0  0  0
  6 11  1  0  0  0  0
  7  8  1  0  0  0  0
  9  2  2  0  0  0  0
  9 13  1  0  0  0  0
 10  3  1  0  0  0  0
 11 10  1  0  0  0  0
 12  7  1  0  0  0  0
 13 12  2  0  0  0  0
 14  5  1  0  0  0  0
 14  7  2  0  0  0  0
 15 16  3  0  0  0  0
 17 18  2  0  0  0  0
 19 13  1  0  0  0  0
 20 19  1  0  0  0  0
 21 22  1  6  0  0  0
 21 20  1  0  0  0  0
 23 21  1  0  0  0  0
 24 23  2  0  0  0  0
 25 23  1  0  0  0  0
M  END
>  <MODEL>
2

>  <REMARK>
 VINA RESULT:      -8.0      1.958      2.788
  Name = 
  6 active torsions:
  status: ('A' for Active; 'I' for Inactive)
    1  A    between atoms: C_2  and  C_21
    2  A    between atoms: C_5  and  C_22
    3  A    between atoms: C_6  and  C_15
    4  A    between atoms: C_6  and  C_23
    5  A    between atoms: C_10  and  C_11
    6  A    between atoms: C_15  and  C_21
                            x       y       z     vdW  Elec       q    Type
                         _______ _______ _______ _____ _____    ______ ____

>  <TORSDO>
F 6

$$$$
=
 OpenBabel11052412513D

 25 27  0  0  1  0  0  0  0  0999 V2000
  188.7070  177.3030  144.9220 C   0  0  0  0  0  0  0  0  0  0  0  0
  187.3530  177.6500  144.8170 C   0  0  0  0  0  0  0  0  0  0  0  0
  188.5290  177.3050  147.3200 C   0  0  0  0  0  3  0  0  0  0  0  0
  189.6560  177.1620  143.7770 C   0  0  1  0  0  3  0  0  0  0  0  0
  187.2120  177.6430  147.2180 N   0  0  0  0  0  0  0  0  0  0  0  0
  191.0750  177.1820  144.3610 C   0  0  2  0  0  3  0  0  0  0  0  0
  185.2460  178.1800  145.9320 C   0  0  0  0  0  0  0  0  0  0  0  0
  184.4260  178.3730  147.1610 C   0  0  0  0  0  1  0  0  0  0  0  0
  186.7370  177.8440  143.5750 C   0  0  0  0  0  3  0  0  0  0  0  0
  189.2830  177.1290  146.1610 C   0  0  0  0  0  0  0  0  0  0  0  0
  191.0210  176.7570  146.1470 S   0  0  0  0  0  0  0  0  0  0  0  0
  184.6450  178.3650  144.6810 C   0  0  0  0  0  3  0  0  0  0  0  0
  185.3850  178.1940  143.5070 C   0  0  0  0  0  0  0  0  0  0  0  0
  186.6040  177.8200  146.0070 C   0  0  0  0  0  0  0  0  0  0  0  0
  192.1380  179.6150  144.0480 C   0  0  0  0  0  3  0  0  0  0  0  0
  191.6580  178.5170  144.1930 C   0  0  0  0  0  0  0  0  0  0  0  0
  190.3230  175.0990  142.8010 O   0  0  0  0  0  0  0  0  0  0  0  0
  189.4140  175.8880  143.0230 C   0  0  0  0  0  3  0  0  0  0  0  0
  184.7360  178.4060  142.1840 C   0  0  0  0  0  2  0  0  0  0  0  0
  185.6890  179.1200  141.2400 C   0  0  0  0  0  2  0  0  0  0  0  0
  185.6910  178.4460  139.8800 C   0  0  2  0  0  3  0  0  0  0  0  0
  186.9450  178.5890  139.2890 O   0  0  0  0  0  1  0  0  0  0  0  0
  184.6480  179.0340  138.9890 C   0  0  0  0  0  0  0  0  0  0  0  0
  184.3530  180.2530  139.0920 O   0  0  0  0  0  1  0  0  0  0  0  0
  183.9960  178.2430  138.0510 O   0  0  0  0  0  0  0  0  0  0  0  0
  1 10  1  0  0  0  0
  2  1  2  0  0  0  0
  2 14  1  0  0  0  0
  4 18  1  1  0  0  0
  4  6  1  0  0  0  0
  4  1  1  0  0  0  0
  5  3  1  0  0  0  0
  6 16  1  1  0  0  0
  6 11  1  0  0  0  0
  7 14  1  0  0  0  0
  7  8  1  0  0  0  0
  9  2  1  0  0  0  0
 10  3  2  0  0  0  0
 11 10  1  0  0  0  0
 12  7  2  0  0  0  0
 13  9  2  0  0  0  0
 13 12  1  0  0  0  0
 14  5  2  0  0  0  0
 15 16  3  0  0  0  0
 17 18  2  0  0  0  0
 19 13  1  0  0  0  0
 20 19  1  0  0  0  0
 21 22  1  6  0  0  0
 21 20  1  0  0  0  0
 23 24  1  0  0  0  0
 23 21  1  0  0  0  0
 25 23  2  0  0  0  0
M  END
>  <MODEL>
3

>  <REMARK>
 VINA RESULT:      -8.0      3.117      7.117
  Name = 
  6 active torsions:
  status: ('A' for Active; 'I' for Inactive)
    1  A    between atoms: C_2  and  C_21
    2  A    between atoms: C_5  and  C_22
    3  A    between atoms: C_6  and  C_15
    4  A    between atoms: C_6  and  C_23
    5  A    between atoms: C_10  and  C_11
    6  A    between atoms: C_15  and  C_21
                            x       y       z     vdW  Elec       q    Type
                         _______ _______ _______ _____ _____    ______ ____

>  <TORSDO>
F 6

$$$$
=
 OpenBabel11052412513D

 25 27  0  0  1  0  0  0  0  0999 V2000
  188.0660  177.5730  144.3590 C   0  0  0  0  0  0  0  0  0  0  0  0
  186.8260  177.9570  143.8290 C   0  0  0  0  0  0  0  0  0  0  0  0
  187.1940  177.8070  146.5880 C   0  0  0  0  0  3  0  0  0  0  0  0
  189.2980  177.2920  143.5630 C   0  0  1  0  0  3  0  0  0  0  0  0
  185.9880  178.1800  146.0720 N   0  0  0  0  0  0  0  0  0  0  0  0
  190.4820  177.3170  144.5380 C   0  0  2  0  0  3  0  0  0  0  0  0
  184.5210  178.6630  144.2220 C   0  0  0  0  0  0  0  0  0  0  0  0
  183.3910  179.0000  145.1320 C   0  0  0  0  0  1  0  0  0  0  0  0
  186.6140  178.0540  142.4480 C   0  0  0  0  0  3  0  0  0  0  0  0
  188.2420  177.4970  145.7230 C   0  0  0  0  0  0  0  0  0  0  0  0
  189.8810  177.0640  146.2550 S   0  0  0  0  0  0  0  0  0  0  0  0
  184.3260  178.7510  142.8380 C   0  0  0  0  0  3  0  0  0  0  0  0
  185.3650  178.4440  141.9540 C   0  0  0  0  0  0  0  0  0  0  0  0
  185.7730  178.2630  144.7250 C   0  0  0  0  0  0  0  0  0  0  0  0
  191.7390  179.6700  144.3640 C   0  0  0  0  0  3  0  0  0  0  0  0
  191.1700  178.6080  144.4460 C   0  0  0  0  0  0  0  0  0  0  0  0
  190.1760  175.2150  142.8110 O   0  0  0  0  0  0  0  0  0  0  0  0
  189.2100  175.9630  142.8740 C   0  0  0  0  0  3  0  0  0  0  0  0
  185.1470  178.5540  140.4860 C   0  0  0  0  0  2  0  0  0  0  0  0
  183.6600  178.5460  140.1740 C   0  0  0  0  0  2  0  0  0  0  0  0
  183.3580  179.4710  139.0090 C   0  0  2  0  0  3  0  0  0  0  0  0
  184.2880  180.5080  138.9810 O   0  0  0  0  0  1  0  0  0  0  0  0
  181.9810  180.0370  139.1180 C   0  0  0  0  0  0  0  0  0  0  0  0
  181.6050  180.9270  138.3110 O   0  0  0  0  0  0  0  0  0  0  0  0
  181.1130  179.5900  140.1060 O   0  0  0  0  0  1  0  0  0  0  0  0
  1 10  1  0  0  0  0
  2  1  2  0  0  0  0
  2 14  1  0  0  0  0
  4 18  1  1  0  0  0
  4  1  1  0  0  0  0
  4  6  1  0  0  0  0
  5  3  1  0  0  0  0
  6 16  1  1  0  0  0
  6 11  1  0  0  0  0
  7 14  1  0  0  0  0
  7  8  1  0  0  0  0
  9  2  1  0  0  0  0
 10 11  1  0  0  0  0
 10  3  2  0  0  0  0
 12  7  2  0  0  0  0
 13  9  2  0  0  0  0
 13 12  1  0  0  0  0
 14  5  2  0  0  0  0
 15 16  3  0  0  0  0
 17 18  2  0  0  0  0
 19 13  1  0  0  0  0
 20 19  1  0  0  0  0
 21 22  1  1  0  0  0
 21 23  1  0  0  0  0
 21 20  1  0  0  0  0
 23 25  1  0  0  0  0
 24 23  2  0  0  0  0
M  END
>  <MODEL>
4

>  <REMARK>
 VINA RESULT:      -7.9      2.736      7.503
  Name = 
  6 active torsions:
  status: ('A' for Active; 'I' for Inactive)
    1  A    between atoms: C_2  and  C_21
    2  A    between atoms: C_5  and  C_22
    3  A    between atoms: C_6  and  C_15
    4  A    between atoms: C_6  and  C_23
    5  A    between atoms: C_10  and  C_11
    6  A    between atoms: C_15  and  C_21
                            x       y       z     vdW  Elec       q    Type
                         _______ _______ _______ _____ _____    ______ ____

>  <TORSDO>
F 6

$$$$
=
 OpenBabel11052412513D

 25 27  0  0  1  0  0  0  0  0999 V2000
  188.0180  177.5980  144.3060 C   0  0  0  0  0  0  0  0  0  0  0  0
  186.7710  177.9820  143.7920 C   0  0  0  0  0  0  0  0  0  0  0  0
  187.1660  177.8050  146.5450 C   0  0  0  0  0  3  0  0  0  0  0  0
  189.2440  177.3320  143.4960 C   0  0  1  0  0  3  0  0  0  0  0  0
  185.9530  178.1770  146.0450 N   0  0  0  0  0  0  0  0  0  0  0  0
  190.4370  177.3520  144.4610 C   0  0  2  0  0  3  0  0  0  0  0  0
  184.4670  178.6720  144.2140 C   0  0  0  0  0  0  0  0  0  0  0  0
  183.3440  178.9940  145.1380 C   0  0  0  0  0  1  0  0  0  0  0  0
  186.5460  178.0930  142.4150 C   0  0  0  0  0  3  0  0  0  0  0  0
  188.2070  177.5090  145.6680 C   0  0  0  0  0  0  0  0  0  0  0  0
  189.8540  177.0780  146.1800 S   0  0  0  0  0  0  0  0  0  0  0  0
  184.2580  178.7740  142.8330 C   0  0  0  0  0  3  0  0  0  0  0  0
  185.2910  178.4820  141.9360 C   0  0  0  0  0  0  0  0  0  0  0  0
  185.7250  178.2740  144.7010 C   0  0  0  0  0  0  0  0  0  0  0  0
  191.6740  179.7170  144.3010 C   0  0  0  0  0  3  0  0  0  0  0  0
  191.1180  178.6480  144.3750 C   0  0  0  0  0  0  0  0  0  0  0  0
  190.1170  175.2550  142.7380 O   0  0  0  0  0  0  0  0  0  0  0  0
  189.1560  176.0090  142.7940 C   0  0  0  0  0  3  0  0  0  0  0  0
  185.0580  178.6060  140.4720 C   0  0  0  0  0  2  0  0  0  0  0  0
  186.3500  178.3590  139.7110 C   0  0  0  0  0  2  0  0  0  0  0  0
  186.0860  178.3250  138.2160 C   0  0  2  0  0  3  0  0  0  0  0  0
  185.2500  177.2530  137.9130 O   0  0  0  0  0  1  0  0  0  0  0  0
  187.3610  178.1990  137.4510 C   0  0  0  0  0  0  0  0  0  0  0  0
  188.2440  179.0910  137.5550 O   0  0  0  0  0  1  0  0  0  0  0  0
  187.5790  177.1070  136.6200 O   0  0  0  0  0  0  0  0  0  0  0  0
  1 10  1  0  0  0  0
  2  1  2  0  0  0  0
  2 14  1  0  0  0  0
  4 18  1  1  0  0  0
  4  1  1  0  0  0  0
  4  6  1  0  0  0  0
  5  3  1  0  0  0  0
  6 16  1  1  0  0  0
  6 11  1  0  0  0  0
  7 14  1  0  0  0  0
  7  8  1  0  0  0  0
  9  2  1  0  0  0  0
 10 11  1  0  0  0  0
 10  3  2  0  0  0  0
 12  7  2  0  0  0  0
 13  9  2  0  0  0  0
 13 12  1  0  0  0  0
 14  5  2  0  0  0  0
 15 16  3  0  0  0  0
 17 18  2  0  0  0  0
 19 13  1  0  0  0  0
 20 19  1  0  0  0  0
 21 22  1  1  0  0  0
 21 20  1  0  0  0  0
 23 24  1  0  0  0  0
 23 21  1  0  0  0  0
 25 23  2  0  0  0  0
M  END
>  <MODEL>
5

>  <REMARK>
 VINA RESULT:      -7.6      2.934      6.838
  Name = 
  6 active torsions:
  status: ('A' for Active; 'I' for Inactive)
    1  A    between atoms: C_2  and  C_21
    2  A    between atoms: C_5  and  C_22
    3  A    between atoms: C_6  and  C_15
    4  A    between atoms: C_6  and  C_23
    5  A    between atoms: C_10  and  C_11
    6  A    between atoms: C_15  and  C_21
                            x       y       z     vdW  Elec       q    Type
                         _______ _______ _______ _____ _____    ______ ____

>  <TORSDO>
F 6

$$$$
=
 OpenBabel11052412513D

 25 27  0  0  1  0  0  0  0  0999 V2000
  188.6290  177.4640  144.6770 C   0  0  0  0  0  0  0  0  0  0  0  0
  187.2970  177.8540  144.4810 C   0  0  0  0  0  0  0  0  0  0  0  0
  188.2290  177.2540  147.0380 C   0  0  0  0  0  3  0  0  0  0  0  0
  189.6790  177.4040  143.6150 C   0  0  1  0  0  3  0  0  0  0  0  0
  186.9330  177.6330  146.8480 N   0  0  0  0  0  0  0  0  0  0  0  0
  191.0370  177.3360  144.3250 C   0  0  2  0  0  3  0  0  0  0  0  0
  185.1040  178.3320  145.4430 C   0  0  0  0  0  0  0  0  0  0  0  0
  184.1760  178.4340  146.6050 C   0  0  0  0  0  1  0  0  0  0  0  0
  186.8020  178.1740  143.2110 C   0  0  0  0  0  3  0  0  0  0  0  0
  189.0840  177.1650  145.9420 C   0  0  0  0  0  0  0  0  0  0  0  0
  190.8100  176.7530  146.0520 S   0  0  0  0  0  0  0  0  0  0  0  0
  184.6260  178.6450  144.1650 C   0  0  0  0  0  3  0  0  0  0  0  0
  185.4690  178.5620  143.0520 C   0  0  0  0  0  0  0  0  0  0  0  0
  186.4430  177.9330  145.6080 C   0  0  0  0  0  0  0  0  0  0  0  0
  192.1670  179.7590  144.3370 C   0  0  0  0  0  3  0  0  0  0  0  0
  191.6560  178.6650  144.3350 C   0  0  0  0  0  0  0  0  0  0  0  0
  190.1870  175.2140  142.8440 O   0  0  0  0  0  0  0  0  0  0  0  0
  189.4870  176.2100  142.7270 C   0  0  0  0  0  3  0  0  0  0  0  0
  184.9500  178.9090  141.7020 C   0  0  0  0  0  2  0  0  0  0  0  0
  183.9080  177.8950  141.2620 C   0  0  0  0  0  2  0  0  0  0  0  0
  182.6160  178.5940  140.8770 C   0  0  2  0  0  3  0  0  0  0  0  0
  181.9390  178.9920  142.0280 O   0  0  0  0  0  1  0  0  0  0  0  0
  181.7420  177.6970  140.0660 C   0  0  0  0  0  0  0  0  0  0  0  0
  180.6740  178.1430  139.5720 O   0  0  0  0  0  0  0  0  0  0  0  0
  182.0980  176.3700  139.8560 O   0  0  0  0  0  1  0  0  0  0  0  0
  1 10  1  0  0  0  0
  2  1  2  0  0  0  0
  2 14  1  0  0  0  0
  4 18  1  1  0  0  0
  4  6  1  0  0  0  0
  4  1  1  0  0  0  0
  5  3  1  0  0  0  0
  6 16  1  1  0  0  0
  6 11  1  0  0  0  0
  7 14  1  0  0  0  0
  7  8  1  0  0  0  0
  9  2  1  0  0  0  0
 10 11  1  0  0  0  0
 10  3  2  0  0  0  0
 12  7  2  0  0  0  0
 13  9  2  0  0  0  0
 13 12  1  0  0  0  0
 14  5  2  0  0  0  0
 16 15  3  0  0  0  0
 18 17  2  0  0  0  0
 19 13  1  0  0  0  0
 20 19  1  0  0  0  0
 21 20  1  0  0  0  0
 21 22  1  1  0  0  0
 23 21  1  0  0  0  0
 24 23  2  0  0  0  0
 25 23  1  0  0  0  0
M  END
>  <MODEL>
6

>  <REMARK>
 VINA RESULT:      -7.1      2.980      7.527
  Name = 
  6 active torsions:
  status: ('A' for Active; 'I' for Inactive)
    1  A    between atoms: C_2  and  C_21
    2  A    between atoms: C_5  and  C_22
    3  A    between atoms: C_6  and  C_15
    4  A    between atoms: C_6  and  C_23
    5  A    between atoms: C_10  and  C_11
    6  A    between atoms: C_15  and  C_21
                            x       y       z     vdW  Elec       q    Type
                         _______ _______ _______ _____ _____    ______ ____

>  <TORSDO>
F 6

$$$$
=
 OpenBabel11052412513D

 25 27  0  0  1  0  0  0  0  0999 V2000
  189.4500  177.2430  139.2710 C   0  0  0  0  0  0  0  0  0  0  0  0
  188.7900  177.4570  140.4890 C   0  0  0  0  0  0  0  0  0  0  0  0
  187.7020  178.4180  138.1100 C   0  0  0  0  0  3  0  0  0  0  0  0
  190.7020  176.4490  139.0920 C   0  0  1  0  0  3  0  0  0  0  0  0
  187.0610  178.6260  139.2950 N   0  0  0  0  0  0  0  0  0  0  0  0
  190.8310  176.1390  137.5950 C   0  0  2  0  0  3  0  0  0  0  0  0
  186.8760  178.3890  141.6860 C   0  0  0  0  0  0  0  0  0  0  0  0
  185.5820  179.1280  141.7160 C   0  0  0  0  0  1  0  0  0  0  0  0
  189.3030  176.9760  141.6990 C   0  0  0  0  0  3  0  0  0  0  0  0
  188.9100  177.7230  138.0980 C   0  0  0  0  0  0  0  0  0  0  0  0
  189.8170  177.3210  136.6230 S   0  0  0  0  0  0  0  0  0  0  0  0
  187.4060  177.9040  142.8870 C   0  0  0  0  0  3  0  0  0  0  0  0
  188.6170  177.2040  142.8960 C   0  0  0  0  0  0  0  0  0  0  0  0
  187.5650  178.1700  140.4790 C   0  0  0  0  0  0  0  0  0  0  0  0
  189.9950  173.6440  137.1260 C   0  0  0  0  0  3  0  0  0  0  0  0
  190.3730  174.7710  137.3340 C   0  0  0  0  0  0  0  0  0  0  0  0
  193.0260  176.9450  139.1750 O   0  0  0  0  0  0  0  0  0  0  0  0
  191.9020  177.2080  139.5790 C   0  0  0  0  0  3  0  0  0  0  0  0
  189.1630  176.6830  144.1790 C   0  0  0  0  0  2  0  0  0  0  0  0
  189.9820  177.7560  144.8750 C   0  0  0  0  0  2  0  0  0  0  0  0
  191.3260  177.1980  145.3090 C   0  0  2  0  0  3  0  0  0  0  0  0
  191.6770  176.1300  144.4860 O   0  0  0  0  0  1  0  0  0  0  0  0
  191.2830  176.7430  146.7300 C   0  0  0  0  0  0  0  0  0  0  0  0
  190.2010  176.7960  147.3710 O   0  0  0  0  0  1  0  0  0  0  0  0
  192.4310  176.2680  147.3520 O   0  0  0  0  0  0  0  0  0  0  0  0
  1  2  1  0  0  0  0
  2  9  1  0  0  0  0
  3  5  2  0  0  0  0
  4  1  1  0  0  0  0
  4 18  1  6  0  0  0
  5 14  1  0  0  0  0
  6 16  1  1  0  0  0
  6  4  1  0  0  0  0
  7  8  1  0  0  0  0
  7 12  2  0  0  0  0
  9 13  2  0  0  0  0
 10  3  1  0  0  0  0
 10  1  2  0  0  0  0
 11  6  1  0  0  0  0
 11 10  1  0  0  0  0
 12 13  1  0  0  0  0
 13 19  1  0  0  0  0
 14  2  2  0  0  0  0
 14  7  1  0  0  0  0
 15 16  3  0  0  0  0
 17 18  2  0  0  0  0
 19 20  1  0  0  0  0
 20 21  1  0  0  0  0
 21 22  1  6  0  0  0
 21 23  1  0  0  0  0
 23 25  2  0  0  0  0
 23 24  1  0  0  0  0
M  END
>  <MODEL>
7

>  <REMARK>
 VINA RESULT:      -7.0      4.191      5.753
  Name = 
  6 active torsions:
  status: ('A' for Active; 'I' for Inactive)
    1  A    between atoms: C_2  and  C_21
    2  A    between atoms: C_5  and  C_22
    3  A    between atoms: C_6  and  C_15
    4  A    between atoms: C_6  and  C_23
    5  A    between atoms: C_10  and  C_11
    6  A    between atoms: C_15  and  C_21
                            x       y       z     vdW  Elec       q    Type
                         _______ _______ _______ _____ _____    ______ ____

>  <TORSDO>
F 6

$$$$
=
 OpenBabel11052412513D

 25 27  0  0  1  0  0  0  0  0999 V2000
  189.4090  177.3260  139.3820 C   0  0  0  0  0  0  0  0  0  0  0  0
  188.7260  177.5110  140.5920 C   0  0  0  0  0  0  0  0  0  0  0  0
  187.6220  178.4150  138.1970 C   0  0  0  0  0  3  0  0  0  0  0  0
  190.7000  176.5910  139.2210 C   0  0  1  0  0  3  0  0  0  0  0  0
  186.9580  178.5950  139.3740 N   0  0  0  0  0  0  0  0  0  0  0  0
  190.8610  176.2840  137.7260 C   0  0  2  0  0  3  0  0  0  0  0  0
  186.7560  178.3540  141.7640 C   0  0  0  0  0  0  0  0  0  0  0  0
  185.4290  179.0320  141.7770 C   0  0  0  0  0  1  0  0  0  0  0  0
  189.2470  177.0570  141.8100 C   0  0  0  0  0  3  0  0  0  0  0  0
  188.8620  177.7780  138.2020 C   0  0  0  0  0  0  0  0  0  0  0  0
  189.8040  177.4150  136.7390 S   0  0  0  0  0  0  0  0  0  0  0  0
  187.2940  177.8970  142.9720 C   0  0  0  0  0  3  0  0  0  0  0  0
  188.5360  177.2550  142.9970 C   0  0  0  0  0  0  0  0  0  0  0  0
  187.4690  178.1650  140.5660 C   0  0  0  0  0  0  0  0  0  0  0  0
  190.1440  173.7530  137.2500 C   0  0  0  0  0  3  0  0  0  0  0  0
  190.4710  174.8950  137.4630 C   0  0  0  0  0  0  0  0  0  0  0  0
  193.0020  176.9800  139.6690 O   0  0  0  0  0  0  0  0  0  0  0  0
  191.8560  177.4060  139.7200 C   0  0  0  0  0  3  0  0  0  0  0  0
  189.0910  176.7630  144.2880 C   0  0  0  0  0  2  0  0  0  0  0  0
  189.0490  177.8650  145.3320 C   0  0  0  0  0  2  0  0  0  0  0  0
  188.2130  177.4350  146.5240 C   0  0  2  0  0  3  0  0  0  0  0  0
  187.0300  178.1710  146.5550 O   0  0  0  0  0  1  0  0  0  0  0  0
  188.9600  177.6320  147.8010 C   0  0  0  0  0  0  0  0  0  0  0  0
  190.1910  177.3780  147.8500 O   0  0  0  0  0  0  0  0  0  0  0  0
  188.3030  178.0890  148.9370 O   0  0  0  0  0  1  0  0  0  0  0  0
  1  2  1  0  0  0  0
  2  9  1  0  0  0  0
  3 10  1  0  0  0  0
  3  5  2  0  0  0  0
  4  1  1  0  0  0  0
  4 18  1  6  0  0  0
  5 14  1  0  0  0  0
  6 16  1  1  0  0  0
  6  4  1  0  0  0  0
  7  8  1  0  0  0  0
  7 12  2  0  0  0  0
  9 13  2  0  0  0  0
 10  1  2  0  0  0  0
 11  6  1  0  0  0  0
 11 10  1  0  0  0  0
 12 13  1  0  0  0  0
 13 19  1  0  0  0  0
 14  2  2  0  0  0  0
 14  7  1  0  0  0  0
 15 16  3  0  0  0  0
 17 18  2  0  0  0  0
 19 20  1  0  0  0  0
 20 21  1  0  0  0  0
 21 22  1  1  0  0  0
 21 23  1  0  0  0  0
 23 24  2  0  0  0  0
 23 25  1  0  0  0  0
M  END
>  <MODEL>
8

>  <REMARK>
 VINA RESULT:      -6.9      4.223      5.854
  Name = 
  6 active torsions:
  status: ('A' for Active; 'I' for Inactive)
    1  A    between atoms: C_2  and  C_21
    2  A    between atoms: C_5  and  C_22
    3  A    between atoms: C_6  and  C_15
    4  A    between atoms: C_6  and  C_23
    5  A    between atoms: C_10  and  C_11
    6  A    between atoms: C_15  and  C_21
                            x       y       z     vdW  Elec       q    Type
                         _______ _______ _______ _____ _____    ______ ____

>  <TORSDO>
F 6

$$$$
=
 OpenBabel11052412513D

 25 27  0  0  1  0  0  0  0  0999 V2000
  182.7390  178.2310  139.9580 C   0  0  0  0  0  0  0  0  0  0  0  0
  182.6000  178.4780  141.3310 C   0  0  0  0  0  0  0  0  0  0  0  0
  180.3740  178.5440  139.6550 C   0  0  0  0  0  3  0  0  0  0  0  0
  184.0070  177.8420  139.2710 C   0  0  1  0  0  3  0  0  0  0  0  0
  180.2400  178.7850  140.9900 N   0  0  0  0  0  0  0  0  0  0  0  0
  183.6240  177.2850  137.8940 C   0  0  2  0  0  3  0  0  0  0  0  0
  181.1390  179.0010  143.2160 C   0  0  0  0  0  0  0  0  0  0  0  0
  179.7960  179.2960  143.7910 C   0  0  0  0  0  1  0  0  0  0  0  0
  183.6970  178.4390  142.2000 C   0  0  0  0  0  3  0  0  0  0  0  0
  181.6360  178.2690  139.1330 C   0  0  0  0  0  0  0  0  0  0  0  0
  181.9470  177.8700  137.4290 S   0  0  0  0  0  0  0  0  0  0  0  0
  182.2470  178.9620  144.0700 C   0  0  0  0  0  3  0  0  0  0  0  0
  183.5220  178.6860  143.5650 C   0  0  0  0  0  0  0  0  0  0  0  0
  181.3090  178.7610  141.8400 C   0  0  0  0  0  0  0  0  0  0  0  0
  183.6550  174.6130  137.9710 C   0  0  0  0  0  3  0  0  0  0  0  0
  183.6380  175.8190  137.9350 C   0  0  0  0  0  0  0  0  0  0  0  0
  184.5000  180.1610  139.0900 O   0  0  0  0  0  0  0  0  0  0  0  0
  184.9300  179.0160  139.1270 C   0  0  0  0  0  3  0  0  0  0  0  0
  184.6890  178.6350  144.4870 C   0  0  0  0  0  2  0  0  0  0  0  0
  185.9430  178.2380  143.7260 C   0  0  0  0  0  2  0  0  0  0  0  0
  186.8370  177.3700  144.5940 C   0  0  2  0  0  3  0  0  0  0  0  0
  187.0330  177.9880  145.8270 O   0  0  0  0  0  1  0  0  0  0  0  0
  188.1550  177.1330  143.9360 C   0  0  0  0  0  0  0  0  0  0  0  0
  189.2180  177.2760  144.5950 O   0  0  0  0  0  1  0  0  0  0  0  0
  188.2180  176.7620  142.5990 O   0  0  0  0  0  0  0  0  0  0  0  0
  1  2  1  0  0  0  0
  2 14  2  0  0  0  0
  2  9  1  0  0  0  0
  3  5  2  0  0  0  0
  4 18  1  6  0  0  0
  4  1  1  0  0  0  0
  5 14  1  0  0  0  0
  6 16  1  1  0  0  0
  6  4  1  0  0  0  0
  7  8  1  0  0  0  0
  7 12  2  0  0  0  0
  9 13  2  0  0  0  0
 10  3  1  0  0  0  0
 10  1  2  0  0  0  0
 11  6  1  0  0  0  0
 11 10  1  0  0  0  0
 13 12  1  0  0  0  0
 13 19  1  0  0  0  0
 14  7  1  0  0  0  0
 16 15  3  0  0  0  0
 17 18  2  0  0  0  0
 20 19  1  0  0  0  0
 20 21  1  0  0  0  0
 21 22  1  1  0  0  0
 23 21  1  0  0  0  0
 23 24  1  0  0  0  0
 25 23  2  0  0  0  0
M  END
>  <MODEL>
9

>  <REMARK>
 VINA RESULT:      -6.5      2.072      3.733
  Name = 
  6 active torsions:
  status: ('A' for Active; 'I' for Inactive)
    1  A    between atoms: C_2  and  C_21
    2  A    between atoms: C_5  and  C_22
    3  A    between atoms: C_6  and  C_15
    4  A    between atoms: C_6  and  C_23
    5  A    between atoms: C_10  and  C_11
    6  A    between atoms: C_15  and  C_21
                            x       y       z     vdW  Elec       q    Type
                         _______ _______ _______ _____ _____    ______ ____

>  <TORSDO>
F 6

$$$$
