=
 OpenBabel11052415013D

 55 59  0  0  1  0  0  0  0  0999 V2000
  188.8810  176.7400  137.6810 N   0  0  0  0  0  0  0  0  0  0  0  0
  192.3480  174.7920  136.1650 C   0  0  0  0  0  3  0  0  0  0  0  0
  190.0590  176.0780  137.1670 C   0  0  0  0  0  0  0  0  0  0  0  0
  190.5120  174.8750  137.7370 C   0  0  0  0  0  3  0  0  0  0  0  0
  191.9080  175.9860  135.5900 C   0  0  0  0  0  3  0  0  0  0  0  0
  191.6520  174.2350  137.2390 C   0  0  0  0  0  3  0  0  0  0  0  0
  190.7700  176.6270  136.0890 C   0  0  0  0  0  3  0  0  0  0  0  0
  187.7670  177.0740  136.7930 C   0  0  0  0  0  2  0  0  0  0  0  0
  186.5440  176.2220  137.0960 C   0  0  0  0  0  2  0  0  0  0  0  0
  187.2000  174.9700  135.0150 C   0  0  0  0  0  1  0  0  0  0  0  0
  184.4090  174.6650  134.5940 O   0  0  0  0  0  0  0  0  0  0  0  0
  184.8000  175.0360  135.7360 C   0  0  0  0  0  0  0  0  0  0  0  0
  186.1670  175.4240  135.9370 N   0  0  0  0  0  0  0  0  0  0  0  0
  183.8390  175.0560  136.8960 C   0  0  1  0  0  3  0  0  0  0  0  0
  181.4690  179.2630  140.3220 O   0  0  0  0  0  1  0  0  0  0  0  0
  181.0950  182.1640  137.6680 C   0  0  0  0  0  0  0  0  0  0  0  0
  180.8900  178.4270  137.5290 C   0  0  0  0  0  2  0  0  0  0  0  0
  181.8750  183.1840  138.2110 O   0  0  0  0  0  1  0  0  0  0  0  0
  182.9550  177.0790  135.7750 C   0  0  0  0  0  1  0  0  0  0  0  0
  181.0240  179.7890  136.8530 C   0  0  0  0  0  2  0  0  0  0  0  0
  182.7630  176.9080  138.2770 C   0  0  0  0  0  0  0  0  0  0  0  0
  182.4600  179.1480  139.3430 C   0  0  2  0  0  3  0  0  0  0  0  0
  183.1280  176.3510  139.3500 O   0  0  0  0  0  0  0  0  0  0  0  0
  182.6590  180.4900  138.6460 C   0  0  0  0  0  2  0  0  0  0  0  0
  180.0380  182.4610  137.0430 O   0  0  0  0  0  0  0  0  0  0  0  0
  181.5050  180.7980  137.8020 N   0  0  0  0  0  0  0  0  0  0  0  0
  183.1000  176.3150  137.0040 N   0  0  0  0  0  0  0  0  0  0  0  0
  182.0670  178.1580  138.3480 N   0  0  0  0  0  0  0  0  0  0  0  0
  181.5930  173.9540  137.3880 C   0  0  0  0  0  3  0  0  0  0  0  0
  180.8130  172.8050  137.5620 C   0  0  0  0  0  3  0  0  0  0  0  0
  183.5220  172.5680  136.9010 C   0  0  0  0  0  3  0  0  0  0  0  0
  182.7400  171.4190  137.0730 C   0  0  0  0  0  3  0  0  0  0  0  0
  181.3850  171.5370  137.4070 C   0  0  0  0  0  3  0  0  0  0  0  0
  182.9550  173.8430  137.0530 C   0  0  0  0  0  0  0  0  0  0  0  0
  188.7810  177.1030  139.0950 C   0  0  0  0  0  2  0  0  0  0  0  0
  190.1480  177.5030  139.6440 C   0  0  0  0  0  2  0  0  0  0  0  0
  190.6330  176.5070  140.6920 C   0  0  0  0  0  2  0  0  0  0  0  0
  190.9870  177.2020  142.0070 C   0  0  0  0  0  2  0  0  0  0  0  0
  187.4470  177.0800  145.3180 C   0  0  1  0  0  3  0  0  0  0  0  0
  189.7900  177.7350  142.8140 C   0  0  2  0  0  0  0  0  0  0  0  0
  189.6550  178.3590  145.2080 C   0  0  0  0  0  2  0  0  0  0  0  0
  187.4870  178.8680  142.5660 C   0  0  0  0  0  2  0  0  0  0  0  0
  188.6990  178.2600  141.8620 C   0  0  0  0  0  2  0  0  0  0  0  0
  190.1610  178.8210  143.8510 C   0  0  1  0  0  3  0  0  0  0  0  0
  188.9550  177.0220  145.0090 C   0  0  2  0  0  3  0  0  0  0  0  0
  187.2630  177.2690  146.8180 C   0  0  0  0  0  1  0  0  0  0  0  0
  191.6430  179.1630  143.9660 C   0  0  0  0  0  1  0  0  0  0  0  0
  189.2460  176.5510  143.5990 C   0  0  0  0  0  2  0  0  0  0  0  0
  186.7220  177.8600  143.1570 O   0  0  0  0  0  0  0  0  0  0  0  0
  186.7020  178.1640  144.5200 C   0  0  1  0  0  3  0  0  0  0  0  0
  185.2490  178.3040  144.9660 C   0  0  0  0  0  2  0  0  0  0  0  0
  184.4310  178.4120  143.8460 O   0  0  0  0  0  0  0  0  0  0  0  0
  183.5540  179.4570  144.1470 C   0  0  0  0  0  2  0  0  0  0  0  0
  181.4930  178.7980  143.6810 C   0  0  0  0  0  1  0  0  0  0  0  0
  182.3990  178.9390  144.7360 O   0  0  0  0  0  0  0  0  0  0  0  0
  1 35  1  0  0  0  0
  2  6  1  0  0  0  0
  3  1  1  0  0  0  0
  3  4  1  0  0  0  0
  5  7  1  0  0  0  0
  5  2  2  0  0  0  0
  6  4  2  0  0  0  0
  7  3  2  0  0  0  0
  8  9  1  0  0  0  0
  8  1  1  0  0  0  0
 10 13  1  0  0  0  0
 11 12  2  0  0  0  0
 12 13  1  0  0  0  0
 13  9  1  0  0  0  0
 14 12  1  6  0  0  0
 14 27  1  0  0  0  0
 14 34  1  0  0  0  0
 16 26  1  0  0  0  0
 16 18  1  0  0  0  0
 17 28  1  0  0  0  0
 19 27  1  0  0  0  0
 20 17  1  0  0  0  0
 20 26  1  0  0  0  0
 21 28  1  0  0  0  0
 21 23  2  0  0  0  0
 22 15  1  1  0  0  0
 24 22  1  0  0  0  0
 25 16  2  0  0  0  0
 26 24  1  0  0  0  0
 27 21  1  0  0  0  0
 28 22  1  0  0  0  0
 29 30  1  0  0  0  0
 31 34  1  0  0  0  0
 31 32  2  0  0  0  0
 32 33  1  0  0  0  0
 33 30  2  0  0  0  0
 34 29  2  0  0  0  0
 35 36  1  0  0  0  0
 36 37  1  0  0  0  0
 37 38  1  0  0  0  0
 39 46  1  1  0  0  0
 40 38  1  6  0  0  0
 40 48  1  0  0  0  0
 40 44  1  0  0  0  0
 42 49  1  0  0  0  0
 43 42  1  0  0  0  0
 43 40  1  0  0  0  0
 44 47  1  1  0  0  0
 44 41  1  0  0  0  0
 45 48  1  6  0  0  0
 45 41  1  0  0  0  0
 45 39  1  0  0  0  0
 49 50  1  0  0  0  0
 50 51  1  1  0  0  0
 50 39  1  0  0  0  0
 52 53  1  0  0  0  0
 52 51  1  0  0  0  0
 53 55  1  0  0  0  0
 54 55  1  0  0  0  0
M  END
>  <MODEL>
1

>  <REMARK>
 VINA RESULT:      -7.1      0.000      0.000
  Name = 
  16 active torsions:
  status: ('A' for Active; 'I' for Inactive)
    1  A    between atoms: C_3  and  O_25
    2  A    between atoms: C_3  and  O_38
    3  A    between atoms: C_6  and  C_22
    4  A    between atoms: C_8  and  C_43
    5  A    between atoms: C_8  and  C_54
    6  A    between atoms: C_19  and  C_45
    7  A    between atoms: C_22  and  C_43
    8  A    between atoms: C_26  and  C_45
    9  A    between atoms: C_27  and  N_51
   10  A    between atoms: C_29  and  O_38
   11  A    between atoms: C_29  and  C_53
   12  A    between atoms: C_35  and  C_40
   13  A    between atoms: C_35  and  N_51
   14  A    between atoms: N_37  and  C_40
   15  A    between atoms: C_45  and  N_49
   16  A    between atoms: N_51  and  C_54
                            x       y       z     vdW  Elec       q    Type
                         _______ _______ _______ _____ _____    ______ ____

>  <TORSDO>
F 16

$$$$
=
 OpenBabel11052415013D

 55 59  0  0  1  0  0  0  0  0999 V2000
  189.8040  178.0340  140.0280 N   0  0  0  0  0  0  0  0  0  0  0  0
  187.3260  178.3890  136.5870 C   0  0  0  0  0  3  0  0  0  0  0  0
  188.9620  178.1530  138.8600 C   0  0  0  0  0  0  0  0  0  0  0  0
  187.6460  177.6560  138.8690 C   0  0  0  0  0  3  0  0  0  0  0  0
  188.6300  178.8860  136.5640 C   0  0  0  0  0  3  0  0  0  0  0  0
  186.8320  177.7730  137.7380 C   0  0  0  0  0  3  0  0  0  0  0  0
  189.4450  178.7680  137.6940 C   0  0  0  0  0  3  0  0  0  0  0  0
  189.3200  178.4570  141.3420 C   0  0  0  0  0  2  0  0  0  0  0  0
  190.1130  177.7990  142.4620 C   0  0  0  0  0  2  0  0  0  0  0  0
  190.2110  175.2900  142.6150 C   0  0  0  0  0  1  0  0  0  0  0  0
  187.5480  175.4740  143.5810 O   0  0  0  0  0  0  0  0  0  0  0  0
  188.2420  176.5280  143.5470 C   0  0  0  0  0  0  0  0  0  0  0  0
  189.5020  176.5390  142.8620 N   0  0  0  0  0  0  0  0  0  0  0  0
  187.7580  177.7750  144.2410 C   0  0  1  0  0  3  0  0  0  0  0  0
  183.8980  179.7270  140.1980 O   0  0  0  0  0  1  0  0  0  0  0  0
  180.5220  178.4960  141.8390 C   0  0  0  0  0  0  0  0  0  0  0  0
  183.8090  179.7030  143.1690 C   0  0  0  0  0  2  0  0  0  0  0  0
  179.9970  177.6460  140.8660 O   0  0  0  0  0  0  0  0  0  0  0  0
  185.3540  177.6950  144.8250 C   0  0  0  0  0  1  0  0  0  0  0  0
  182.4640  179.0030  143.3490 C   0  0  0  0  0  2  0  0  0  0  0  0
  186.0180  178.6280  142.5860 C   0  0  0  0  0  0  0  0  0  0  0  0
  184.1250  178.5730  140.9560 C   0  0  2  0  0  3  0  0  0  0  0  0
  186.8990  178.7560  141.6910 O   0  0  0  0  0  0  0  0  0  0  0  0
  182.8170  177.8140  141.1490 C   0  0  0  0  0  2  0  0  0  0  0  0
  179.7380  179.2030  142.5300 O   0  0  0  0  0  1  0  0  0  0  0  0
  181.9370  178.5450  142.0600 N   0  0  0  0  0  0  0  0  0  0  0  0
  186.3810  178.1270  143.8910 N   0  0  0  0  0  0  0  0  0  0  0  0
  184.6560  178.9320  142.2640 N   0  0  0  0  0  0  0  0  0  0  0  0
  187.0440  178.2990  146.6320 C   0  0  0  0  0  3  0  0  0  0  0  0
  187.3390  178.4020  147.9960 C   0  0  0  0  0  3  0  0  0  0  0  0
  189.3040  177.5360  146.2020 C   0  0  0  0  0  3  0  0  0  0  0  0
  189.5980  177.6360  147.5670 C   0  0  0  0  0  3  0  0  0  0  0  0
  188.6160  178.0740  148.4650 C   0  0  0  0  0  3  0  0  0  0  0  0
  188.0250  177.8620  145.7250 C   0  0  0  0  0  0  0  0  0  0  0  0
  191.1630  177.5010  139.9220 C   0  0  0  0  0  2  0  0  0  0  0  0
  191.1580  176.1640  139.1860 C   0  0  0  0  0  2  0  0  0  0  0  0
  191.6930  176.3150  137.7660 C   0  0  0  0  0  2  0  0  0  0  0  0
  191.9800  174.9570  137.1250 C   0  0  0  0  0  2  0  0  0  0  0  0
  187.4030  174.0660  135.7950 C   0  0  1  0  0  3  0  0  0  0  0  0
  190.8500  174.3900  136.2480 C   0  0  2  0  0  0  0  0  0  0  0  0
  189.2130  175.5810  134.8200 C   0  0  0  0  0  2  0  0  0  0  0  0
  190.0340  172.2350  135.0880 C   0  0  0  0  0  2  0  0  0  0  0  0
  191.0730  172.8850  136.0000 C   0  0  0  0  0  2  0  0  0  0  0  0
  190.6620  175.1290  134.9030 C   0  0  1  0  0  3  0  0  0  0  0  0
  188.5070  175.1010  136.0800 C   0  0  2  0  0  3  0  0  0  0  0  0
  186.2530  174.7630  135.0800 C   0  0  0  0  0  1  0  0  0  0  0  0
  191.5690  176.3320  134.6650 C   0  0  0  0  0  1  0  0  0  0  0  0
  189.5620  174.5840  137.0360 C   0  0  0  0  0  2  0  0  0  0  0  0
  188.8160  172.1150  135.7610 O   0  0  0  0  0  0  0  0  0  0  0  0
  187.9010  172.8460  135.0000 C   0  0  1  0  0  3  0  0  0  0  0  0
  186.7560  171.9230  134.5940 C   0  0  0  0  0  2  0  0  0  0  0  0
  185.9350  171.6960  135.6950 O   0  0  0  0  0  0  0  0  0  0  0  0
  184.6590  171.5190  135.1540 C   0  0  0  0  0  2  0  0  0  0  0  0
  184.1790  172.2320  137.1940 C   0  0  0  0  0  1  0  0  0  0  0  0
  183.7330  171.3700  136.1880 O   0  0  0  0  0  0  0  0  0  0  0  0
  1  8  1  0  0  0  0
  2  6  1  0  0  0  0
  3  4  1  0  0  0  0
  3  1  1  0  0  0  0
  5  2  2  0  0  0  0
  5  7  1  0  0  0  0
  6  4  2  0  0  0  0
  7  3  2  0  0  0  0
  8  9  1  0  0  0  0
  9 13  1  0  0  0  0
 10 13  1  0  0  0  0
 12 11  2  0  0  0  0
 13 12  1  0  0  0  0
 14 12  1  1  0  0  0
 14 34  1  0  0  0  0
 16 26  1  0  0  0  0
 16 25  1  0  0  0  0
 17 20  1  0  0  0  0
 18 16  2  0  0  0  0
 21 27  1  0  0  0  0
 22 15  1  6  0  0  0
 22 24  1  0  0  0  0
 22 28  1  0  0  0  0
 23 21  2  0  0  0  0
 24 26  1  0  0  0  0
 26 20  1  0  0  0  0
 27 14  1  0  0  0  0
 27 19  1  0  0  0  0
 28 21  1  0  0  0  0
 28 17  1  0  0  0  0
 29 30  1  0  0  0  0
 30 33  2  0  0  0  0
 31 32  2  0  0  0  0
 32 33  1  0  0  0  0
 34 31  1  0  0  0  0
 34 29  2  0  0  0  0
 35  1  1  0  0  0  0
 36 35  1  0  0  0  0
 37 36  1  0  0  0  0
 38 37  1  0  0  0  0
 39 46  1  6  0  0  0
 39 45  1  0  0  0  0
 40 48  1  0  0  0  0
 40 38  1  1  0  0  0
 41 44  1  0  0  0  0
 42 49  1  0  0  0  0
 42 43  1  0  0  0  0
 43 40  1  0  0  0  0
 44 47  1  1  0  0  0
 44 40  1  0  0  0  0
 45 41  1  6  0  0  0
 45 48  1  0  0  0  0
 50 51  1  1  0  0  0
 50 49  1  0  0  0  0
 50 39  1  0  0  0  0
 51 52  1  0  0  0  0
 53 52  1  0  0  0  0
 53 55  1  0  0  0  0
 55 54  1  0  0  0  0
M  END
>  <MODEL>
2

>  <REMARK>
 VINA RESULT:      -6.8      2.799      8.369
  Name = 
  16 active torsions:
  status: ('A' for Active; 'I' for Inactive)
    1  A    between atoms: C_3  and  O_25
    2  A    between atoms: C_3  and  O_38
    3  A    between atoms: C_6  and  C_22
    4  A    between atoms: C_8  and  C_43
    5  A    between atoms: C_8  and  C_54
    6  A    between atoms: C_19  and  C_45
    7  A    between atoms: C_22  and  C_43
    8  A    between atoms: C_26  and  C_45
    9  A    between atoms: C_27  and  N_51
   10  A    between atoms: C_29  and  O_38
   11  A    between atoms: C_29  and  C_53
   12  A    between atoms: C_35  and  C_40
   13  A    between atoms: C_35  and  N_51
   14  A    between atoms: N_37  and  C_40
   15  A    between atoms: C_45  and  N_49
   16  A    between atoms: N_51  and  C_54
                            x       y       z     vdW  Elec       q    Type
                         _______ _______ _______ _____ _____    ______ ____

>  <TORSDO>
F 16

$$$$
=
 OpenBabel11052415013D

 55 59  0  0  1  0  0  0  0  0999 V2000
  188.3850  177.4730  140.1990 N   0  0  0  0  0  0  0  0  0  0  0  0
  191.4490  176.5910  143.0170 C   0  0  0  0  0  3  0  0  0  0  0  0
  189.4260  177.1730  141.1550 C   0  0  0  0  0  0  0  0  0  0  0  0
  190.7350  177.6500  140.9630 C   0  0  0  0  0  3  0  0  0  0  0  0
  190.1540  176.1110  143.2190 C   0  0  0  0  0  3  0  0  0  0  0  0
  191.7420  177.3600  141.8900 C   0  0  0  0  0  3  0  0  0  0  0  0
  189.1470  176.3990  142.2920 C   0  0  0  0  0  3  0  0  0  0  0  0
  188.1220  176.5730  139.0760 C   0  0  0  0  0  2  0  0  0  0  0  0
  189.2460  176.6240  138.0510 C   0  0  0  0  0  2  0  0  0  0  0  0
  189.0340  178.8610  136.9210 C   0  0  0  0  0  1  0  0  0  0  0  0
  187.7030  177.4360  134.8570 O   0  0  0  0  0  0  0  0  0  0  0  0
  188.3600  176.7740  135.7080 C   0  0  0  0  0  0  0  0  0  0  0  0
  188.8560  177.4150  136.8920 N   0  0  0  0  0  0  0  0  0  0  0  0
  188.6400  175.3110  135.4780 C   0  0  1  0  0  3  0  0  0  0  0  0
  194.5080  176.0980  135.4480 O   0  0  0  0  0  1  0  0  0  0  0  0
  195.4680  174.1440  138.7430 C   0  0  0  0  0  0  0  0  0  0  0  0
  192.8320  173.7350  136.1140 C   0  0  0  0  0  2  0  0  0  0  0  0
  196.0730  175.1300  139.5230 O   0  0  0  0  0  1  0  0  0  0  0  0
  189.9780  173.9900  137.0880 C   0  0  0  0  0  1  0  0  0  0  0  0
  193.4080  173.4330  137.4960 C   0  0  0  0  0  2  0  0  0  0  0  0
  191.1770  175.5470  135.5190 C   0  0  0  0  0  0  0  0  0  0  0  0
  193.4510  176.1510  136.3620 C   0  0  2  0  0  3  0  0  0  0  0  0
  191.1220  176.5200  134.7150 O   0  0  0  0  0  0  0  0  0  0  0  0
  193.9690  175.8800  137.7700 C   0  0  0  0  0  2  0  0  0  0  0  0
  195.9020  172.9600  138.7980 O   0  0  0  0  0  0  0  0  0  0  0  0
  194.3520  174.4750  137.9080 N   0  0  0  0  0  0  0  0  0  0  0  0
  189.9620  174.9000  135.9540 N   0  0  0  0  0  0  0  0  0  0  0  0
  192.4530  175.1420  136.0290 N   0  0  0  0  0  0  0  0  0  0  0  0
  186.5720  174.6910  136.8340 C   0  0  0  0  0  3  0  0  0  0  0  0
  185.5960  173.7600  137.2100 C   0  0  0  0  0  3  0  0  0  0  0  0
  187.5350  173.0650  135.3150 C   0  0  0  0  0  3  0  0  0  0  0  0
  186.5570  172.1360  135.6890 C   0  0  0  0  0  3  0  0  0  0  0  0
  185.5890  172.4810  136.6410 C   0  0  0  0  0  3  0  0  0  0  0  0
  187.5480  174.3500  135.8800 C   0  0  0  0  0  0  0  0  0  0  0  0
  187.5780  178.6870  140.3240 C   0  0  0  0  0  2  0  0  0  0  0  0
  186.6590  178.5960  141.5400 C   0  0  0  0  0  2  0  0  0  0  0  0
  185.2220  178.9510  141.1700 C   0  0  0  0  0  2  0  0  0  0  0  0
  185.0030  178.9040  139.6570 C   0  0  0  0  0  2  0  0  0  0  0  0
  180.8970  176.3770  140.1680 C   0  0  1  0  0  3  0  0  0  0  0  0
  183.7390  178.1560  139.1960 C   0  0  2  0  0  0  0  0  0  0  0  0
  181.3560  178.7840  139.4470 C   0  0  0  0  0  2  0  0  0  0  0  0
  182.9100  176.3290  137.5750 C   0  0  0  0  0  2  0  0  0  0  0  0
  184.1060  177.0920  138.1440 C   0  0  0  0  0  2  0  0  0  0  0  0
  182.6210  179.0770  138.6570 C   0  0  1  0  0  3  0  0  0  0  0  0
  181.6780  177.6750  140.4390 C   0  0  2  0  0  3  0  0  0  0  0  0
  179.4260  176.6160  140.4860 C   0  0  0  0  0  1  0  0  0  0  0  0
  182.9000  180.5760  138.7100 C   0  0  0  0  0  1  0  0  0  0  0  0
  183.1790  177.4680  140.4330 C   0  0  0  0  0  2  0  0  0  0  0  0
  182.4050  175.4490  138.5350 O   0  0  0  0  0  0  0  0  0  0  0  0
  181.0810  175.8430  138.7360 C   0  0  1  0  0  3  0  0  0  0  0  0
  180.1690  174.6520  138.4500 C   0  0  0  0  0  2  0  0  0  0  0  0
  180.8760  173.6940  137.7290 O   0  0  0  0  0  0  0  0  0  0  0  0
  180.1260  172.5230  137.8690 C   0  0  0  0  0  2  0  0  0  0  0  0
  181.9930  171.7740  136.9460 C   0  0  0  0  0  1  0  0  0  0  0  0
  180.6140  171.5520  136.9910 O   0  0  0  0  0  0  0  0  0  0  0  0
  1 35  1  0  0  0  0
  1  3  1  0  0  0  0
  2  5  1  0  0  0  0
  3  7  1  0  0  0  0
  4  3  2  0  0  0  0
  4  6  1  0  0  0  0
  6  2  2  0  0  0  0
  7  5  2  0  0  0  0
  8  1  1  0  0  0  0
  9  8  1  0  0  0  0
 11 12  2  0  0  0  0
 12 13  1  0  0  0  0
 13 10  1  0  0  0  0
 13  9  1  0  0  0  0
 14 12  1  1  0  0  0
 14 34  1  0  0  0  0
 14 27  1  0  0  0  0
 16 25  2  0  0  0  0
 16 18  1  0  0  0  0
 17 20  1  0  0  0  0
 20 26  1  0  0  0  0
 21 27  1  0  0  0  0
 21 28  1  0  0  0  0
 22 15  1  6  0  0  0
 22 24  1  0  0  0  0
 23 21  2  0  0  0  0
 24 26  1  0  0  0  0
 26 16  1  0  0  0  0
 27 19  1  0  0  0  0
 28 17  1  0  0  0  0
 28 22  1  0  0  0  0
 29 30  1  0  0  0  0
 31 32  2  0  0  0  0
 31 34  1  0  0  0  0
 32 33  1  0  0  0  0
 33 30  2  0  0  0  0
 34 29  2  0  0  0  0
 35 36  1  0  0  0  0
 37 36  1  0  0  0  0
 38 37  1  0  0  0  0
 39 45  1  0  0  0  0
 39 46  1  6  0  0  0
 40 38  1  1  0  0  0
 40 48  1  0  0  0  0
 42 43  1  0  0  0  0
 42 49  1  0  0  0  0
 43 40  1  0  0  0  0
 44 47  1  1  0  0  0
 44 40  1  0  0  0  0
 44 41  1  0  0  0  0
 45 41  1  6  0  0  0
 48 45  1  0  0  0  0
 49 50  1  0  0  0  0
 50 51  1  1  0  0  0
 50 39  1  0  0  0  0
 52 53  1  0  0  0  0
 52 51  1  0  0  0  0
 54 55  1  0  0  0  0
 55 53  1  0  0  0  0
M  END
>  <MODEL>
3

>  <REMARK>
 VINA RESULT:      -6.7      3.482      8.753
  Name = 
  16 active torsions:
  status: ('A' for Active; 'I' for Inactive)
    1  A    between atoms: C_3  and  O_25
    2  A    between atoms: C_3  and  O_38
    3  A    between atoms: C_6  and  C_22
    4  A    between atoms: C_8  and  C_43
    5  A    between atoms: C_8  and  C_54
    6  A    between atoms: C_19  and  C_45
    7  A    between atoms: C_22  and  C_43
    8  A    between atoms: C_26  and  C_45
    9  A    between atoms: C_27  and  N_51
   10  A    between atoms: C_29  and  O_38
   11  A    between atoms: C_29  and  C_53
   12  A    between atoms: C_35  and  C_40
   13  A    between atoms: C_35  and  N_51
   14  A    between atoms: N_37  and  C_40
   15  A    between atoms: C_45  and  N_49
   16  A    between atoms: N_51  and  C_54
                            x       y       z     vdW  Elec       q    Type
                         _______ _______ _______ _____ _____    ______ ____

>  <TORSDO>
F 16

$$$$
=
 OpenBabel11052415013D

 55 59  0  0  1  0  0  0  0  0999 V2000
  186.3670  174.7460  135.8470 N   0  0  0  0  0  0  0  0  0  0  0  0
  187.5190  170.6910  135.2610 C   0  0  0  0  0  3  0  0  0  0  0  0
  186.7600  173.3690  135.6470 C   0  0  0  0  0  0  0  0  0  0  0  0
  188.1180  173.0050  135.6300 C   0  0  0  0  0  3  0  0  0  0  0  0
  186.1670  171.0390  135.2760 C   0  0  0  0  0  3  0  0  0  0  0  0
  188.4960  171.6720  135.4370 C   0  0  0  0  0  3  0  0  0  0  0  0
  185.7890  172.3720  135.4660 C   0  0  0  0  0  3  0  0  0  0  0  0
  187.3620  175.8180  135.8090 C   0  0  0  0  0  2  0  0  0  0  0  0
  187.7320  176.2790  137.2100 C   0  0  0  0  0  2  0  0  0  0  0  0
  186.4480  178.4380  137.0760 C   0  0  0  0  0  1  0  0  0  0  0  0
  188.9710  179.6940  137.4230 O   0  0  0  0  0  0  0  0  0  0  0  0
  188.8810  178.4600  137.6770 C   0  0  0  0  0  0  0  0  0  0  0  0
  187.7030  177.7330  137.3040 N   0  0  0  0  0  0  0  0  0  0  0  0
  190.0040  177.7500  138.3880 C   0  0  1  0  0  3  0  0  0  0  0  0
  191.9740  176.6620  143.8640 O   0  0  0  0  0  1  0  0  0  0  0  0
  188.7240  177.5260  145.9350 C   0  0  0  0  0  0  0  0  0  0  0  0
  189.3760  176.0770  142.5430 C   0  0  0  0  0  2  0  0  0  0  0  0
  189.1540  178.5560  146.7710 O   0  0  0  0  0  1  0  0  0  0  0  0
  188.3340  177.7060  140.2150 C   0  0  0  0  0  1  0  0  0  0  0  0
  188.4500  176.7240  143.5710 C   0  0  0  0  0  2  0  0  0  0  0  0
  190.7440  177.2520  140.7750 C   0  0  0  0  0  0  0  0  0  0  0  0
  191.2260  177.6360  143.1960 C   0  0  2  0  0  3  0  0  0  0  0  0
  191.9580  177.3110  140.4350 O   0  0  0  0  0  0  0  0  0  0  0  0
  190.2950  178.3380  144.1800 C   0  0  0  0  0  2  0  0  0  0  0  0
  187.8820  176.6910  146.3670 O   0  0  0  0  0  0  0  0  0  0  0  0
  189.2220  177.4350  144.5940 N   0  0  0  0  0  0  0  0  0  0  0  0
  189.7070  177.4760  139.7950 N   0  0  0  0  0  0  0  0  0  0  0  0
  190.4210  177.0180  142.1510 N   0  0  0  0  0  0  0  0  0  0  0  0
  190.4290  175.2480  138.1430 C   0  0  0  0  0  3  0  0  0  0  0  0
  191.0310  174.1740  137.4760 C   0  0  0  0  0  3  0  0  0  0  0  0
  191.3880  176.7840  136.5310 C   0  0  0  0  0  3  0  0  0  0  0  0
  191.9860  175.7100  135.8630 C   0  0  0  0  0  3  0  0  0  0  0  0
  191.8110  174.4030  136.3370 C   0  0  0  0  0  3  0  0  0  0  0  0
  190.6020  176.5620  137.6730 C   0  0  0  0  0  0  0  0  0  0  0  0
  184.9700  175.0970  136.1030 C   0  0  0  0  0  2  0  0  0  0  0  0
  184.5680  174.6960  137.5210 C   0  0  0  0  0  2  0  0  0  0  0  0
  183.0880  174.9680  137.7700 C   0  0  0  0  0  2  0  0  0  0  0  0
  182.4760  175.8140  136.6530 C   0  0  0  0  0  2  0  0  0  0  0  0
  180.6400  180.2890  136.3150 C   0  0  1  0  0  3  0  0  0  0  0  0
  181.7070  177.0640  137.1190 C   0  0  2  0  0  0  0  0  0  0  0  0
  179.5510  177.9790  136.3130 C   0  0  0  0  0  2  0  0  0  0  0  0
  181.4860  178.7290  139.0760 C   0  0  0  0  0  2  0  0  0  0  0  0
  182.2260  177.5250  138.4940 C   0  0  0  0  0  2  0  0  0  0  0  0
  180.1720  176.8820  137.1620 C   0  0  1  0  0  3  0  0  0  0  0  0
  180.6820  178.8460  135.7790 C   0  0  2  0  0  3  0  0  0  0  0  0
  179.4350  181.0000  135.7110 C   0  0  0  0  0  1  0  0  0  0  0  0
  179.6420  175.5320  136.6900 C   0  0  0  0  0  1  0  0  0  0  0  0
  181.9890  178.1450  136.0860 C   0  0  0  0  0  2  0  0  0  0  0  0
  181.8280  179.8860  138.3710 O   0  0  0  0  0  0  0  0  0  0  0  0
  180.6250  180.3690  137.8520 C   0  0  1  0  0  3  0  0  0  0  0  0
  180.4200  181.7980  138.3470 C   0  0  0  0  0  2  0  0  0  0  0  0
  181.4470  182.6050  137.8670 O   0  0  0  0  0  0  0  0  0  0  0  0
  180.8210  183.8030  137.5160 C   0  0  0  0  0  2  0  0  0  0  0  0
  180.8920  184.7280  135.5070 C   0  0  0  0  0  1  0  0  0  0  0  0
  181.6530  184.5290  136.6620 O   0  0  0  0  0  0  0  0  0  0  0  0
  1 35  1  0  0  0  0
  2  5  2  0  0  0  0
  2  6  1  0  0  0  0
  3  1  1  0  0  0  0
  4  3  1  0  0  0  0
  5  7  1  0  0  0  0
  6  4  2  0  0  0  0
  7  3  2  0  0  0  0
  8  1  1  0  0  0  0
  8  9  1  0  0  0  0
  9 13  1  0  0  0  0
 10 13  1  0  0  0  0
 11 12  2  0  0  0  0
 13 12  1  0  0  0  0
 14 12  1  6  0  0  0
 14 27  1  0  0  0  0
 16 25  2  0  0  0  0
 16 18  1  0  0  0  0
 17 20  1  0  0  0  0
 20 26  1  0  0  0  0
 21 28  1  0  0  0  0
 22 15  1  1  0  0  0
 22 24  1  0  0  0  0
 23 21  2  0  0  0  0
 24 26  1  0  0  0  0
 26 16  1  0  0  0  0
 27 19  1  0  0  0  0
 27 21  1  0  0  0  0
 28 17  1  0  0  0  0
 28 22  1  0  0  0  0
 30 29  2  0  0  0  0
 31 34  2  0  0  0  0
 32 33  2  0  0  0  0
 32 31  1  0  0  0  0
 33 30  1  0  0  0  0
 34 29  1  0  0  0  0
 34 14  1  0  0  0  0
 35 36  1  0  0  0  0
 36 37  1  0  0  0  0
 38 37  1  0  0  0  0
 39 46  1  6  0  0  0
 39 50  1  0  0  0  0
 40 38  1  6  0  0  0
 40 44  1  0  0  0  0
 40 43  1  0  0  0  0
 41 44  1  0  0  0  0
 43 42  1  0  0  0  0
 44 47  1  6  0  0  0
 45 48  1  1  0  0  0
 45 41  1  0  0  0  0
 45 39  1  0  0  0  0
 48 40  1  0  0  0  0
 49 42  1  0  0  0  0
 50 51  1  6  0  0  0
 50 49  1  0  0  0  0
 52 51  1  0  0  0  0
 53 52  1  0  0  0  0
 54 55  1  0  0  0  0
 55 53  1  0  0  0  0
M  END
>  <MODEL>
4

>  <REMARK>
 VINA RESULT:      -6.6      2.734      9.072
  Name = 
  16 active torsions:
  status: ('A' for Active; 'I' for Inactive)
    1  A    between atoms: C_3  and  O_25
    2  A    between atoms: C_3  and  O_38
    3  A    between atoms: C_6  and  C_22
    4  A    between atoms: C_8  and  C_43
    5  A    between atoms: C_8  and  C_54
    6  A    between atoms: C_19  and  C_45
    7  A    between atoms: C_22  and  C_43
    8  A    between atoms: C_26  and  C_45
    9  A    between atoms: C_27  and  N_51
   10  A    between atoms: C_29  and  O_38
   11  A    between atoms: C_29  and  C_53
   12  A    between atoms: C_35  and  C_40
   13  A    between atoms: C_35  and  N_51
   14  A    between atoms: N_37  and  C_40
   15  A    between atoms: C_45  and  N_49
   16  A    between atoms: N_51  and  C_54
                            x       y       z     vdW  Elec       q    Type
                         _______ _______ _______ _____ _____    ______ ____

>  <TORSDO>
F 16

$$$$
=
 OpenBabel11052415013D

 55 59  0  0  1  0  0  0  0  0999 V2000
  187.0730  174.8270  135.1950 N   0  0  0  0  0  0  0  0  0  0  0  0
  188.4810  170.8110  135.1590 C   0  0  0  0  0  3  0  0  0  0  0  0
  187.5520  173.4640  135.1820 C   0  0  0  0  0  0  0  0  0  0  0  0
  188.8890  173.1750  134.8530 C   0  0  0  0  0  3  0  0  0  0  0  0
  187.1520  171.0830  135.4870 C   0  0  0  0  0  3  0  0  0  0  0  0
  189.3510  171.8550  134.8410 C   0  0  0  0  0  3  0  0  0  0  0  0
  186.6880  172.4030  135.4970 C   0  0  0  0  0  3  0  0  0  0  0  0
  187.9920  175.9380  135.4410 C   0  0  0  0  0  2  0  0  0  0  0  0
  188.0760  176.2690  136.9240 C   0  0  0  0  0  2  0  0  0  0  0  0
  186.6640  178.3500  136.8680 C   0  0  0  0  0  1  0  0  0  0  0  0
  189.0580  179.7150  137.5550 O   0  0  0  0  0  0  0  0  0  0  0  0
  189.0310  178.4600  137.6880 C   0  0  0  0  0  0  0  0  0  0  0  0
  187.9400  177.7020  137.1450 N   0  0  0  0  0  0  0  0  0  0  0  0
  190.1350  177.7530  138.4300 C   0  0  1  0  0  3  0  0  0  0  0  0
  191.9700  176.8060  143.9790 O   0  0  0  0  0  1  0  0  0  0  0  0
  188.6350  177.6010  145.9390 C   0  0  0  0  0  0  0  0  0  0  0  0
  189.4320  176.1230  142.5910 C   0  0  0  0  0  2  0  0  0  0  0  0
  189.0090  178.6560  146.7710 O   0  0  0  0  0  1  0  0  0  0  0  0
  188.4120  177.6850  140.2080 C   0  0  0  0  0  1  0  0  0  0  0  0
  188.4560  176.7560  143.5800 C   0  0  0  0  0  2  0  0  0  0  0  0
  190.8170  177.3120  140.8460 C   0  0  0  0  0  0  0  0  0  0  0  0
  191.2130  177.7470  143.2740 C   0  0  2  0  0  3  0  0  0  0  0  0
  192.0380  177.4030  140.5410 O   0  0  0  0  0  0  0  0  0  0  0  0
  190.2330  178.4350  144.2190 C   0  0  0  0  0  2  0  0  0  0  0  0
  187.8050  176.7480  146.3590 O   0  0  0  0  0  0  0  0  0  0  0  0
  189.1750  177.5060  144.6150 N   0  0  0  0  0  0  0  0  0  0  0  0
  189.8040  177.4910  139.8320 N   0  0  0  0  0  0  0  0  0  0  0  0
  190.4590  177.0890  142.2150 N   0  0  0  0  0  0  0  0  0  0  0  0
  190.5380  175.2460  138.2010 C   0  0  0  0  0  3  0  0  0  0  0  0
  191.1530  174.1650  137.5580 C   0  0  0  0  0  3  0  0  0  0  0  0
  191.5820  176.7710  136.6320 C   0  0  0  0  0  3  0  0  0  0  0  0
  192.1930  175.6900  135.9870 C   0  0  0  0  0  3  0  0  0  0  0  0
  191.9830  174.3850  136.4520 C   0  0  0  0  0  3  0  0  0  0  0  0
  190.7470  176.5580  137.7400 C   0  0  0  0  0  0  0  0  0  0  0  0
  185.6570  175.1260  134.9750 C   0  0  0  0  0  2  0  0  0  0  0  0
  184.9170  175.2230  136.3070 C   0  0  0  0  0  2  0  0  0  0  0  0
  183.4620  174.7870  136.1600 C   0  0  0  0  0  2  0  0  0  0  0  0
  182.5410  175.9810  135.9070 C   0  0  0  0  0  2  0  0  0  0  0  0
  181.5690  179.2680  139.3360 C   0  0  1  0  0  3  0  0  0  0  0  0
  181.8480  176.5560  137.1550 C   0  0  2  0  0  0  0  0  0  0  0  0
  180.2230  178.4170  137.3400 C   0  0  0  0  0  2  0  0  0  0  0  0
  181.2440  176.0130  139.6030 C   0  0  0  0  0  2  0  0  0  0  0  0
  181.9530  175.5610  138.3270 C   0  0  0  0  0  2  0  0  0  0  0  0
  180.3730  176.9610  136.9290 C   0  0  1  0  0  3  0  0  0  0  0  0
  181.5770  178.8970  137.8420 C   0  0  2  0  0  3  0  0  0  0  0  0
  180.7400  180.5330  139.5210 C   0  0  0  0  0  1  0  0  0  0  0  0
  179.8390  176.7890  135.5110 C   0  0  0  0  0  1  0  0  0  0  0  0
  182.6010  177.8310  137.5090 C   0  0  0  0  0  2  0  0  0  0  0  0
  181.9560  177.0540  140.2020 O   0  0  0  0  0  0  0  0  0  0  0  0
  181.0680  178.1310  140.2440 C   0  0  1  0  0  3  0  0  0  0  0  0
  180.9180  178.5830  141.6940 C   0  0  0  0  0  2  0  0  0  0  0  0
  182.1040  179.1760  142.1180 O   0  0  0  0  0  0  0  0  0  0  0  0
  182.0940  179.0330  143.5080 C   0  0  0  0  0  2  0  0  0  0  0  0
  184.2360  178.5020  143.3520 C   0  0  0  0  0  1  0  0  0  0  0  0
  183.3530  179.3570  144.0170 O   0  0  0  0  0  0  0  0  0  0  0  0
  1  8  1  0  0  0  0
  2  5  1  0  0  0  0
  3  1  1  0  0  0  0
  3  7  1  0  0  0  0
  4  3  2  0  0  0  0
  5  7  2  0  0  0  0
  6  4  1  0  0  0  0
  6  2  2  0  0  0  0
  8  9  1  0  0  0  0
  9 13  1  0  0  0  0
 10 13  1  0  0  0  0
 11 12  2  0  0  0  0
 13 12  1  0  0  0  0
 14 12  1  6  0  0  0
 14 27  1  0  0  0  0
 16 25  2  0  0  0  0
 16 18  1  0  0  0  0
 17 20  1  0  0  0  0
 20 26  1  0  0  0  0
 21 28  1  0  0  0  0
 22 15  1  1  0  0  0
 22 24  1  0  0  0  0
 23 21  2  0  0  0  0
 24 26  1  0  0  0  0
 26 16  1  0  0  0  0
 27 19  1  0  0  0  0
 27 21  1  0  0  0  0
 28 17  1  0  0  0  0
 28 22  1  0  0  0  0
 30 29  2  0  0  0  0
 31 34  2  0  0  0  0
 32 33  2  0  0  0  0
 32 31  1  0  0  0  0
 33 30  1  0  0  0  0
 34 29  1  0  0  0  0
 34 14  1  0  0  0  0
 35  1  1  0  0  0  0
 35 36  1  0  0  0  0
 37 36  1  0  0  0  0
 38 37  1  0  0  0  0
 39 46  1  6  0  0  0
 39 50  1  0  0  0  0
 40 38  1  6  0  0  0
 40 48  1  0  0  0  0
 40 43  1  0  0  0  0
 42 49  1  0  0  0  0
 43 42  1  0  0  0  0
 44 47  1  6  0  0  0
 44 40  1  0  0  0  0
 44 41  1  0  0  0  0
 45 41  1  1  0  0  0
 45 39  1  0  0  0  0
 48 45  1  0  0  0  0
 49 50  1  0  0  0  0
 50 51  1  1  0  0  0
 51 52  1  0  0  0  0
 52 53  1  0  0  0  0
 53 55  1  0  0  0  0
 54 55  1  0  0  0  0
M  END
>  <MODEL>
5

>  <REMARK>
 VINA RESULT:      -6.6      2.578      8.393
  Name = 
  16 active torsions:
  status: ('A' for Active; 'I' for Inactive)
    1  A    between atoms: C_3  and  O_25
    2  A    between atoms: C_3  and  O_38
    3  A    between atoms: C_6  and  C_22
    4  A    between atoms: C_8  and  C_43
    5  A    between atoms: C_8  and  C_54
    6  A    between atoms: C_19  and  C_45
    7  A    between atoms: C_22  and  C_43
    8  A    between atoms: C_26  and  C_45
    9  A    between atoms: C_27  and  N_51
   10  A    between atoms: C_29  and  O_38
   11  A    between atoms: C_29  and  C_53
   12  A    between atoms: C_35  and  C_40
   13  A    between atoms: C_35  and  N_51
   14  A    between atoms: N_37  and  C_40
   15  A    between atoms: C_45  and  N_49
   16  A    between atoms: N_51  and  C_54
                            x       y       z     vdW  Elec       q    Type
                         _______ _______ _______ _____ _____    ______ ____

>  <TORSDO>
F 16

$$$$
=
 OpenBabel11052415013D

 55 59  0  0  1  0  0  0  0  0999 V2000
  189.7120  175.9240  138.0400 N   0  0  0  0  0  0  0  0  0  0  0  0
  193.1110  175.6260  135.4970 C   0  0  0  0  0  3  0  0  0  0  0  0
  190.8670  175.8240  137.1770 C   0  0  0  0  0  0  0  0  0  0  0  0
  192.1330  176.2460  137.6200 C   0  0  0  0  0  3  0  0  0  0  0  0
  191.8590  175.2040  135.0450 C   0  0  0  0  0  3  0  0  0  0  0  0
  193.2500  176.1480  136.7840 C   0  0  0  0  0  3  0  0  0  0  0  0
  190.7420  175.3030  135.8790 C   0  0  0  0  0  3  0  0  0  0  0  0
  188.3760  175.5990  137.5390 C   0  0  0  0  0  2  0  0  0  0  0  0
  187.4930  176.8370  137.4780 C   0  0  0  0  0  2  0  0  0  0  0  0
  187.6350  177.1260  134.9830 C   0  0  0  0  0  1  0  0  0  0  0  0
  184.7980  177.2220  135.0630 O   0  0  0  0  0  0  0  0  0  0  0  0
  185.4070  176.7950  136.0830 C   0  0  0  0  0  0  0  0  0  0  0  0
  186.8310  176.9390  136.1840 N   0  0  0  0  0  0  0  0  0  0  0  0
  184.6440  176.1180  137.1920 C   0  0  1  0  0  3  0  0  0  0  0  0
  180.0390  176.6780  140.8700 O   0  0  0  0  0  1  0  0  0  0  0  0
  179.7940  180.6150  141.0510 C   0  0  0  0  0  0  0  0  0  0  0  0
  180.7950  178.1590  138.4060 C   0  0  0  0  0  2  0  0  0  0  0  0
  179.9760  180.8750  142.4090 O   0  0  0  0  0  1  0  0  0  0  0  0
  183.6600  178.3740  137.4540 C   0  0  0  0  0  1  0  0  0  0  0  0
  180.7460  179.5770  138.9720 C   0  0  0  0  0  2  0  0  0  0  0  0
  182.6340  176.4580  138.7210 C   0  0  0  0  0  0  0  0  0  0  0  0
  181.3030  177.2460  140.6830 C   0  0  2  0  0  3  0  0  0  0  0  0
  182.7350  175.2760  139.1540 O   0  0  0  0  0  0  0  0  0  0  0  0
  181.3240  178.6600  141.2530 C   0  0  0  0  0  2  0  0  0  0  0  0
  178.9990  181.3360  140.3850 O   0  0  0  0  0  0  0  0  0  0  0  0
  180.5210  179.5540  140.4200 N   0  0  0  0  0  0  0  0  0  0  0  0
  183.5720  176.9510  137.7400 N   0  0  0  0  0  0  0  0  0  0  0  0
  181.6170  177.3090  139.2620 N   0  0  0  0  0  0  0  0  0  0  0  0
  183.0390  174.4010  136.2040 C   0  0  0  0  0  3  0  0  0  0  0  0
  182.6430  173.0720  136.0140 C   0  0  0  0  0  3  0  0  0  0  0  0
  184.9650  173.6450  137.4660 C   0  0  0  0  0  3  0  0  0  0  0  0
  184.5710  172.3160  137.2730 C   0  0  0  0  0  3  0  0  0  0  0  0
  183.4060  172.0280  136.5490 C   0  0  0  0  0  3  0  0  0  0  0  0
  184.2060  174.6970  136.9310 C   0  0  0  0  0  0  0  0  0  0  0  0
  189.8500  176.3620  139.4290 C   0  0  0  0  0  2  0  0  0  0  0  0
  189.3560  177.7980  139.5900 C   0  0  0  0  0  2  0  0  0  0  0  0
  188.4930  177.9470  140.8380 C   0  0  0  0  0  2  0  0  0  0  0  0
  189.2680  178.5980  141.9840 C   0  0  0  0  0  2  0  0  0  0  0  0
  190.3720  177.4540  146.5650 C   0  0  1  0  0  3  0  0  0  0  0  0
  189.5990  177.6710  143.1670 C   0  0  2  0  0  0  0  0  0  0  0  0
  188.2530  177.1350  145.1760 C   0  0  0  0  0  2  0  0  0  0  0  0
  191.1280  175.7200  143.8820 C   0  0  0  0  0  2  0  0  0  0  0  0
  190.7580  176.7260  142.7930 C   0  0  0  0  0  2  0  0  0  0  0  0
  188.3930  176.8560  143.6880 C   0  0  1  0  0  3  0  0  0  0  0  0
  189.3730  178.0840  145.5760 C   0  0  2  0  0  3  0  0  0  0  0  0
  189.6760  177.2640  147.9070 C   0  0  0  0  0  1  0  0  0  0  0  0
  187.0560  177.1230  143.0060 C   0  0  0  0  0  1  0  0  0  0  0  0
  190.0380  178.5780  144.3070 C   0  0  0  0  0  2  0  0  0  0  0  0
  191.7760  176.3720  144.9340 O   0  0  0  0  0  0  0  0  0  0  0  0
  190.9830  176.1360  146.0590 C   0  0  1  0  0  3  0  0  0  0  0  0
  191.8380  175.4570  147.1250 C   0  0  0  0  0  2  0  0  0  0  0  0
  192.8070  176.3490  147.5760 O   0  0  0  0  0  0  0  0  0  0  0  0
  193.0340  175.9820  148.9050 C   0  0  0  0  0  2  0  0  0  0  0  0
  193.1830  177.8790  150.0350 C   0  0  0  0  0  1  0  0  0  0  0  0
  193.9580  176.8580  149.4770 O   0  0  0  0  0  0  0  0  0  0  0  0
  1 35  1  0  0  0  0
  2  6  1  0  0  0  0
  3  4  1  0  0  0  0
  3  1  1  0  0  0  0
  5  2  2  0  0  0  0
  5  7  1  0  0  0  0
  6  4  2  0  0  0  0
  7  3  2  0  0  0  0
  8  1  1  0  0  0  0
  9  8  1  0  0  0  0
 10 13  1  0  0  0  0
 11 12  2  0  0  0  0
 12 13  1  0  0  0  0
 13  9  1  0  0  0  0
 14 12  1  6  0  0  0
 14 27  1  0  0  0  0
 16 18  1  0  0  0  0
 17 20  1  0  0  0  0
 17 28  1  0  0  0  0
 19 27  1  0  0  0  0
 20 26  1  0  0  0  0
 21 23  2  0  0  0  0
 21 28  1  0  0  0  0
 22 15  1  6  0  0  0
 22 24  1  0  0  0  0
 25 16  2  0  0  0  0
 26 16  1  0  0  0  0
 26 24  1  0  0  0  0
 27 21  1  0  0  0  0
 28 22  1  0  0  0  0
 29 34  1  0  0  0  0
 30 29  2  0  0  0  0
 30 33  1  0  0  0  0
 32 31  1  0  0  0  0
 33 32  2  0  0  0  0
 34 14  1  0  0  0  0
 34 31  2  0  0  0  0
 35 36  1  0  0  0  0
 36 37  1  0  0  0  0
 37 38  1  0  0  0  0
 39 46  1  1  0  0  0
 40 38  1  6  0  0  0
 40 44  1  0  0  0  0
 40 48  1  0  0  0  0
 41 45  1  0  0  0  0
 42 49  1  0  0  0  0
 43 40  1  0  0  0  0
 43 42  1  0  0  0  0
 44 47  1  6  0  0  0
 44 41  1  0  0  0  0
 45 48  1  6  0  0  0
 45 39  1  0  0  0  0
 49 50  1  0  0  0  0
 50 39  1  0  0  0  0
 50 51  1  1  0  0  0
 51 52  1  0  0  0  0
 52 53  1  0  0  0  0
 53 55  1  0  0  0  0
 55 54  1  0  0  0  0
M  END
>  <MODEL>
6

>  <REMARK>
 VINA RESULT:      -6.6      2.740      4.145
  Name = 
  16 active torsions:
  status: ('A' for Active; 'I' for Inactive)
    1  A    between atoms: C_3  and  O_25
    2  A    between atoms: C_3  and  O_38
    3  A    between atoms: C_6  and  C_22
    4  A    between atoms: C_8  and  C_43
    5  A    between atoms: C_8  and  C_54
    6  A    between atoms: C_19  and  C_45
    7  A    between atoms: C_22  and  C_43
    8  A    between atoms: C_26  and  C_45
    9  A    between atoms: C_27  and  N_51
   10  A    between atoms: C_29  and  O_38
   11  A    between atoms: C_29  and  C_53
   12  A    between atoms: C_35  and  C_40
   13  A    between atoms: C_35  and  N_51
   14  A    between atoms: N_37  and  C_40
   15  A    between atoms: C_45  and  N_49
   16  A    between atoms: N_51  and  C_54
                            x       y       z     vdW  Elec       q    Type
                         _______ _______ _______ _____ _____    ______ ____

>  <TORSDO>
F 16

$$$$
=
 OpenBabel11052415013D

 55 59  0  0  1  0  0  0  0  0999 V2000
  188.4870  177.5050  140.6270 N   0  0  0  0  0  0  0  0  0  0  0  0
  191.5860  176.3750  143.3150 C   0  0  0  0  0  3  0  0  0  0  0  0
  189.5380  177.1210  141.5410 C   0  0  0  0  0  0  0  0  0  0  0  0
  189.3870  176.0030  142.3810 C   0  0  0  0  0  3  0  0  0  0  0  0
  191.7490  177.4870  142.4870 C   0  0  0  0  0  3  0  0  0  0  0  0
  190.4060  175.6320  143.2640 C   0  0  0  0  0  3  0  0  0  0  0  0
  190.7300  177.8600  141.6050 C   0  0  0  0  0  3  0  0  0  0  0  0
  188.1600  176.6680  139.4720 C   0  0  0  0  0  2  0  0  0  0  0  0
  189.2430  176.7490  138.4060 C   0  0  0  0  0  2  0  0  0  0  0  0
  189.0680  179.0570  137.4220 C   0  0  0  0  0  1  0  0  0  0  0  0
  187.5970  177.8080  135.3390 O   0  0  0  0  0  0  0  0  0  0  0  0
  188.2640  177.0720  136.1190 C   0  0  0  0  0  0  0  0  0  0  0  0
  188.8340  177.6220  137.3150 N   0  0  0  0  0  0  0  0  0  0  0  0
  188.4790  175.6180  135.7890 C   0  0  1  0  0  3  0  0  0  0  0  0
  194.3730  176.0600  135.4460 O   0  0  0  0  0  1  0  0  0  0  0  0
  195.3920  174.0420  138.6840 C   0  0  0  0  0  0  0  0  0  0  0  0
  192.5990  173.7970  136.2000 C   0  0  0  0  0  2  0  0  0  0  0  0
  196.0940  174.9880  139.4300 O   0  0  0  0  0  1  0  0  0  0  0  0
  189.8210  174.2150  137.3260 C   0  0  0  0  0  1  0  0  0  0  0  0
  193.2290  173.4570  137.5490 C   0  0  0  0  0  2  0  0  0  0  0  0
  191.0240  175.7050  135.6940 C   0  0  0  0  0  0  0  0  0  0  0  0
  193.3710  176.1710  136.4140 C   0  0  2  0  0  3  0  0  0  0  0  0
  190.9830  176.6820  134.8950 O   0  0  0  0  0  0  0  0  0  0  0  0
  193.9470  175.8660  137.7930 C   0  0  0  0  0  2  0  0  0  0  0  0
  195.7580  172.8350  138.7160 O   0  0  0  0  0  0  0  0  0  0  0  0
  194.2540  174.4410  137.9100 N   0  0  0  0  0  0  0  0  0  0  0  0
  189.7980  175.1280  136.1940 N   0  0  0  0  0  0  0  0  0  0  0  0
  192.2990  175.2240  136.1350 N   0  0  0  0  0  0  0  0  0  0  0  0
  187.4100  173.3040  135.8570 C   0  0  0  0  0  3  0  0  0  0  0  0
  186.3390  172.4660  136.1910 C   0  0  0  0  0  3  0  0  0  0  0  0
  186.2290  175.1920  136.8150 C   0  0  0  0  0  3  0  0  0  0  0  0
  185.1600  174.3540  137.1520 C   0  0  0  0  0  3  0  0  0  0  0  0
  185.2120  172.9900  136.8360 C   0  0  0  0  0  3  0  0  0  0  0  0
  187.3620  174.6740  136.1690 C   0  0  0  0  0  0  0  0  0  0  0  0
  187.7340  178.7440  140.8280 C   0  0  0  0  0  2  0  0  0  0  0  0
  186.3870  178.4520  141.4840 C   0  0  0  0  0  2  0  0  0  0  0  0
  185.2360  178.7080  140.5160 C   0  0  0  0  0  2  0  0  0  0  0  0
  183.9530  178.0140  140.9730 C   0  0  0  0  0  2  0  0  0  0  0  0
  181.2510  180.4210  137.7450 C   0  0  1  0  0  3  0  0  0  0  0  0
  182.6570  178.5270  140.3190 C   0  0  2  0  0  0  0  0  0  0  0  0
  181.6480  177.9290  138.1370 C   0  0  0  0  0  2  0  0  0  0  0  0
  180.4200  179.7000  140.8380 C   0  0  0  0  0  2  0  0  0  0  0  0
  181.7630  179.2060  141.3740 C   0  0  0  0  0  2  0  0  0  0  0  0
  181.8590  177.4410  139.5610 C   0  0  1  0  0  3  0  0  0  0  0  0
  182.2790  179.3090  138.0230 C   0  0  2  0  0  3  0  0  0  0  0  0
  180.7110  180.2450  136.3320 C   0  0  0  0  0  1  0  0  0  0  0  0
  182.4860  176.0510  139.5210 C   0  0  0  0  0  1  0  0  0  0  0  0
  183.0830  179.5570  139.2830 C   0  0  0  0  0  2  0  0  0  0  0  0
  180.6120  180.8250  140.0320 O   0  0  0  0  0  0  0  0  0  0  0  0
  180.1110  180.4700  138.7780 C   0  0  1  0  0  3  0  0  0  0  0  0
  179.0270  181.4700  138.3850 C   0  0  0  0  0  2  0  0  0  0  0  0
  179.3370  182.7190  138.9170 O   0  0  0  0  0  0  0  0  0  0  0  0
  179.1480  183.6110  137.8580 C   0  0  0  0  0  2  0  0  0  0  0  0
  180.6950  183.9610  136.3160 C   0  0  0  0  0  1  0  0  0  0  0  0
  180.3330  184.3080  137.6200 O   0  0  0  0  0  0  0  0  0  0  0  0
  1 35  1  0  0  0  0
  1  3  1  0  0  0  0
  3  7  2  0  0  0  0
  3  4  1  0  0  0  0
  4  6  2  0  0  0  0
  5  2  2  0  0  0  0
  6  2  1  0  0  0  0
  7  5  1  0  0  0  0
  8  1  1  0  0  0  0
  9  8  1  0  0  0  0
 11 12  2  0  0  0  0
 12 13  1  0  0  0  0
 13 10  1  0  0  0  0
 13  9  1  0  0  0  0
 14 12  1  1  0  0  0
 14 34  1  0  0  0  0
 14 27  1  0  0  0  0
 16 25  2  0  0  0  0
 16 18  1  0  0  0  0
 17 20  1  0  0  0  0
 20 26  1  0  0  0  0
 21 28  1  0  0  0  0
 21 27  1  0  0  0  0
 22 15  1  6  0  0  0
 22 24  1  0  0  0  0
 23 21  2  0  0  0  0
 24 26  1  0  0  0  0
 26 16  1  0  0  0  0
 27 19  1  0  0  0  0
 28 17  1  0  0  0  0
 28 22  1  0  0  0  0
 29 34  2  0  0  0  0
 29 30  1  0  0  0  0
 30 33  2  0  0  0  0
 31 32  2  0  0  0  0
 33 32  1  0  0  0  0
 34 31  1  0  0  0  0
 35 36  1  0  0  0  0
 37 38  1  0  0  0  0
 37 36  1  0  0  0  0
 39 46  1  6  0  0  0
 39 45  1  0  0  0  0
 39 50  1  0  0  0  0
 40 38  1  1  0  0  0
 40 43  1  0  0  0  0
 41 44  1  0  0  0  0
 42 43  1  0  0  0  0
 44 47  1  6  0  0  0
 44 40  1  0  0  0  0
 45 41  1  1  0  0  0
 45 48  1  0  0  0  0
 48 40  1  0  0  0  0
 49 42  1  0  0  0  0
 50 51  1  6  0  0  0
 50 49  1  0  0  0  0
 51 52  1  0  0  0  0
 53 52  1  0  0  0  0
 54 55  1  0  0  0  0
 55 53  1  0  0  0  0
M  END
>  <MODEL>
7

>  <REMARK>
 VINA RESULT:      -6.5      3.363      8.891
  Name = 
  16 active torsions:
  status: ('A' for Active; 'I' for Inactive)
    1  A    between atoms: C_3  and  O_25
    2  A    between atoms: C_3  and  O_38
    3  A    between atoms: C_6  and  C_22
    4  A    between atoms: C_8  and  C_43
    5  A    between atoms: C_8  and  C_54
    6  A    between atoms: C_19  and  C_45
    7  A    between atoms: C_22  and  C_43
    8  A    between atoms: C_26  and  C_45
    9  A    between atoms: C_27  and  N_51
   10  A    between atoms: C_29  and  O_38
   11  A    between atoms: C_29  and  C_53
   12  A    between atoms: C_35  and  C_40
   13  A    between atoms: C_35  and  N_51
   14  A    between atoms: N_37  and  C_40
   15  A    between atoms: C_45  and  N_49
   16  A    between atoms: N_51  and  C_54
                            x       y       z     vdW  Elec       q    Type
                         _______ _______ _______ _____ _____    ______ ____

>  <TORSDO>
F 16

$$$$
=
 OpenBabel11052415013D

 55 59  0  0  1  0  0  0  0  0999 V2000
  185.0040  178.4050  142.7020 N   0  0  0  0  0  0  0  0  0  0  0  0
  185.8140  178.1230  146.8700 C   0  0  0  0  0  3  0  0  0  0  0  0
  185.2780  178.3100  144.1180 C   0  0  0  0  0  0  0  0  0  0  0  0
  184.3240  178.7250  145.0640 C   0  0  0  0  0  3  0  0  0  0  0  0
  186.7710  177.7070  145.9420 C   0  0  0  0  0  3  0  0  0  0  0  0
  184.5910  178.6320  146.4340 C   0  0  0  0  0  3  0  0  0  0  0  0
  186.5060  177.8020  144.5720 C   0  0  0  0  0  3  0  0  0  0  0  0
  183.7550  178.9950  142.2230 C   0  0  0  0  0  2  0  0  0  0  0  0
  183.1960  178.2220  141.0380 C   0  0  0  0  0  2  0  0  0  0  0  0
  184.3920  179.3560  139.1380 C   0  0  0  0  0  1  0  0  0  0  0  0
  181.8690  180.5120  138.5410 O   0  0  0  0  0  0  0  0  0  0  0  0
  181.9000  179.5290  139.3330 C   0  0  0  0  0  0  0  0  0  0  0  0
  183.1540  179.0570  139.8450 N   0  0  0  0  0  0  0  0  0  0  0  0
  180.6220  178.8370  139.7310 C   0  0  1  0  0  3  0  0  0  0  0  0
  178.9310  175.3300  135.2710 O   0  0  0  0  0  1  0  0  0  0  0  0
  181.0160  172.0880  136.1330 C   0  0  0  0  0  0  0  0  0  0  0  0
  179.3810  174.7820  138.1580 C   0  0  0  0  0  2  0  0  0  0  0  0
  181.8100  171.9200  134.9990 O   0  0  0  0  0  0  0  0  0  0  0  0
  181.2540  176.4460  139.8550 C   0  0  0  0  0  1  0  0  0  0  0  0
  180.3500  173.6100  138.0160 C   0  0  0  0  0  2  0  0  0  0  0  0
  179.9080  177.2360  137.8810 C   0  0  0  0  0  0  0  0  0  0  0  0
  180.1100  175.6810  135.9360 C   0  0  2  0  0  3  0  0  0  0  0  0
  179.4870  178.1970  137.1800 O   0  0  0  0  0  0  0  0  0  0  0  0
  181.1310  174.5560  135.8080 C   0  0  0  0  0  2  0  0  0  0  0  0
  180.5790  171.0700  136.7370 O   0  0  0  0  0  1  0  0  0  0  0  0
  180.7210  173.4060  136.6130 N   0  0  0  0  0  0  0  0  0  0  0  0
  180.5040  177.4890  139.1720 N   0  0  0  0  0  0  0  0  0  0  0  0
  179.8370  175.9080  137.3490 N   0  0  0  0  0  0  0  0  0  0  0  0
  180.0440  177.7360  141.9570 C   0  0  0  0  0  3  0  0  0  0  0  0
  179.6690  177.8320  143.3020 C   0  0  0  0  0  3  0  0  0  0  0  0
  180.0820  180.1540  141.7970 C   0  0  0  0  0  3  0  0  0  0  0  0
  179.7100  180.2500  143.1430 C   0  0  0  0  0  3  0  0  0  0  0  0
  179.4990  179.0880  143.8960 C   0  0  0  0  0  3  0  0  0  0  0  0
  180.2560  178.8990  141.1950 C   0  0  0  0  0  0  0  0  0  0  0  0
  185.9620  177.9010  141.7180 C   0  0  0  0  0  2  0  0  0  0  0  0
  187.1230  178.8790  141.5500 C   0  0  0  0  0  2  0  0  0  0  0  0
  188.2830  178.2320  140.8010 C   0  0  0  0  0  2  0  0  0  0  0  0
  187.9320  177.9740  139.3350 C   0  0  0  0  0  2  0  0  0  0  0  0
  189.7800  174.6580  136.3190 C   0  0  1  0  0  3  0  0  0  0  0  0
  189.0230  177.2690  138.5090 C   0  0  2  0  0  0  0  0  0  0  0  0
  189.3130  177.1550  136.0520 C   0  0  0  0  0  2  0  0  0  0  0  0
  191.4020  176.2850  138.6640 C   0  0  0  0  0  2  0  0  0  0  0  0
  190.2330  176.9360  139.4030 C   0  0  0  0  0  2  0  0  0  0  0  0
  189.4810  178.0590  137.2620 C   0  0  1  0  0  3  0  0  0  0  0  0
  188.7890  175.8140  136.5460 C   0  0  2  0  0  3  0  0  0  0  0  0
  189.8770  174.3850  134.8230 C   0  0  0  0  0  1  0  0  0  0  0  0
  188.7590  179.3770  136.9980 C   0  0  0  0  0  1  0  0  0  0  0  0
  188.4020  175.9750  138.0020 C   0  0  0  0  0  2  0  0  0  0  0  0
  191.0780  174.9690  138.3240 O   0  0  0  0  0  0  0  0  0  0  0  0
  191.1680  174.9150  136.9320 C   0  0  1  0  0  3  0  0  0  0  0  0
  192.1710  173.8290  136.5510 C   0  0  0  0  0  2  0  0  0  0  0  0
  193.3450  174.0100  137.2760 O   0  0  0  0  0  0  0  0  0  0  0  0
  194.2620  174.5070  136.3470 C   0  0  0  0  0  2  0  0  0  0  0  0
  195.6980  173.3510  135.1230 C   0  0  0  0  0  1  0  0  0  0  0  0
  194.3370  173.6380  135.2580 O   0  0  0  0  0  0  0  0  0  0  0  0
  1  3  1  0  0  0  0
  3  7  2  0  0  0  0
  3  4  1  0  0  0  0
  4  6  2  0  0  0  0
  5  2  2  0  0  0  0
  6  2  1  0  0  0  0
  7  5  1  0  0  0  0
  8  1  1  0  0  0  0
  9  8  1  0  0  0  0
 10 13  1  0  0  0  0
 11 12  2  0  0  0  0
 12 13  1  0  0  0  0
 13  9  1  0  0  0  0
 14 12  1  1  0  0  0
 14 34  1  0  0  0  0
 16 26  1  0  0  0  0
 16 25  1  0  0  0  0
 18 16  2  0  0  0  0
 20 17  1  0  0  0  0
 21 27  1  0  0  0  0
 22 15  1  6  0  0  0
 22 28  1  0  0  0  0
 23 21  2  0  0  0  0
 24 22  1  0  0  0  0
 24 26  1  0  0  0  0
 26 20  1  0  0  0  0
 27 14  1  0  0  0  0
 27 19  1  0  0  0  0
 28 21  1  0  0  0  0
 28 17  1  0  0  0  0
 29 30  1  0  0  0  0
 30 33  2  0  0  0  0
 31 32  2  0  0  0  0
 32 33  1  0  0  0  0
 34 31  1  0  0  0  0
 34 29  2  0  0  0  0
 35  1  1  0  0  0  0
 36 35  1  0  0  0  0
 37 36  1  0  0  0  0
 38 37  1  0  0  0  0
 39 46  1  6  0  0  0
 39 45  1  0  0  0  0
 39 50  1  0  0  0  0
 40 38  1  1  0  0  0
 40 43  1  0  0  0  0
 41 44  1  0  0  0  0
 42 43  1  0  0  0  0
 44 47  1  6  0  0  0
 44 40  1  0  0  0  0
 45 41  1  1  0  0  0
 45 48  1  0  0  0  0
 48 40  1  0  0  0  0
 49 42  1  0  0  0  0
 50 51  1  1  0  0  0
 50 49  1  0  0  0  0
 51 52  1  0  0  0  0
 53 52  1  0  0  0  0
 54 55  1  0  0  0  0
 55 53  1  0  0  0  0
M  END
>  <MODEL>
8

>  <REMARK>
 VINA RESULT:      -6.5      3.143      8.598
  Name = 
  16 active torsions:
  status: ('A' for Active; 'I' for Inactive)
    1  A    between atoms: C_3  and  O_25
    2  A    between atoms: C_3  and  O_38
    3  A    between atoms: C_6  and  C_22
    4  A    between atoms: C_8  and  C_43
    5  A    between atoms: C_8  and  C_54
    6  A    between atoms: C_19  and  C_45
    7  A    between atoms: C_22  and  C_43
    8  A    between atoms: C_26  and  C_45
    9  A    between atoms: C_27  and  N_51
   10  A    between atoms: C_29  and  O_38
   11  A    between atoms: C_29  and  C_53
   12  A    between atoms: C_35  and  C_40
   13  A    between atoms: C_35  and  N_51
   14  A    between atoms: N_37  and  C_40
   15  A    between atoms: C_45  and  N_49
   16  A    between atoms: N_51  and  C_54
                            x       y       z     vdW  Elec       q    Type
                         _______ _______ _______ _____ _____    ______ ____

>  <TORSDO>
F 16

$$$$
=
 OpenBabel11052415013D

 55 59  0  0  1  0  0  0  0  0999 V2000
  184.9580  178.9210  140.4880 N   0  0  0  0  0  0  0  0  0  0  0  0
  184.0190  179.3280  144.6180 C   0  0  0  0  0  3  0  0  0  0  0  0
  184.6380  179.0590  141.8900 C   0  0  0  0  0  0  0  0  0  0  0  0
  183.4740  178.4750  142.4220 C   0  0  0  0  0  3  0  0  0  0  0  0
  185.1770  179.9140  144.1030 C   0  0  0  0  0  3  0  0  0  0  0  0
  183.1660  178.6090  143.7800 C   0  0  0  0  0  3  0  0  0  0  0  0
  185.4850  179.7820  142.7450 C   0  0  0  0  0  3  0  0  0  0  0  0
  184.2640  179.7250  139.4810 C   0  0  0  0  0  2  0  0  0  0  0  0
  183.6240  178.8460  138.4160 C   0  0  0  0  0  2  0  0  0  0  0  0
  181.6760  178.8290  140.0070 C   0  0  0  0  0  1  0  0  0  0  0  0
  181.1520  176.2360  138.9760 O   0  0  0  0  0  0  0  0  0  0  0  0
  181.9510  176.9780  138.3400 C   0  0  0  0  0  0  0  0  0  0  0  0
  182.4260  178.1960  138.9300 N   0  0  0  0  0  0  0  0  0  0  0  0
  182.3980  176.5960  136.9530 C   0  0  1  0  0  3  0  0  0  0  0  0
  187.8470  176.9560  134.6670 O   0  0  0  0  0  1  0  0  0  0  0  0
  189.8730  175.0060  137.4400 C   0  0  0  0  0  0  0  0  0  0  0  0
  186.4150  174.7350  136.0270 C   0  0  0  0  0  2  0  0  0  0  0  0
  190.7860  175.9610  137.8860 O   0  0  0  0  0  1  0  0  0  0  0  0
  184.1680  175.2150  137.9970 C   0  0  0  0  0  1  0  0  0  0  0  0
  187.4550  174.4200  137.1000 C   0  0  0  0  0  2  0  0  0  0  0  0
  184.7680  176.6490  136.0190 C   0  0  0  0  0  0  0  0  0  0  0  0
  187.2230  177.1030  135.9090 C   0  0  2  0  0  3  0  0  0  0  0  0
  184.4690  177.6060  135.2520 O   0  0  0  0  0  0  0  0  0  0  0  0
  188.2220  176.8250  137.0270 C   0  0  0  0  0  2  0  0  0  0  0  0
  190.2250  173.7950  137.3820 O   0  0  0  0  0  0  0  0  0  0  0  0
  188.5450  175.4000  137.0750 N   0  0  0  0  0  0  0  0  0  0  0  0
  183.7750  176.1000  136.9120 N   0  0  0  0  0  0  0  0  0  0  0  0
  186.1160  176.1630  136.0260 N   0  0  0  0  0  0  0  0  0  0  0  0
  180.4150  176.3000  135.3770 C   0  0  0  0  0  3  0  0  0  0  0  0
  179.5250  175.4730  134.6810 C   0  0  0  0  0  3  0  0  0  0  0  0
  181.5630  174.3430  136.2300 C   0  0  0  0  0  3  0  0  0  0  0  0
  180.6750  173.5170  135.5310 C   0  0  0  0  0  3  0  0  0  0  0  0
  179.6520  174.0820  134.7580 C   0  0  0  0  0  3  0  0  0  0  0  0
  181.4430  175.7390  136.1550 C   0  0  0  0  0  0  0  0  0  0  0  0
  185.9730  177.9670  140.0410 C   0  0  0  0  0  2  0  0  0  0  0  0
  187.3450  178.6330  139.9780 C   0  0  0  0  0  2  0  0  0  0  0  0
  188.3790  177.8400  140.7720 C   0  0  0  0  0  2  0  0  0  0  0  0
  188.8090  178.5850  142.0360 C   0  0  0  0  0  2  0  0  0  0  0  0
  190.5910  177.5870  146.4330 C   0  0  1  0  0  3  0  0  0  0  0  0
  189.3270  177.6960  143.1810 C   0  0  2  0  0  0  0  0  0  0  0  0
  188.2980  177.1960  145.3780 C   0  0  0  0  0  2  0  0  0  0  0  0
  190.9810  175.7900  143.7140 C   0  0  0  0  0  2  0  0  0  0  0  0
  190.4370  176.7590  142.6650 C   0  0  0  0  0  2  0  0  0  0  0  0
  188.2260  176.8780  143.8940 C   0  0  1  0  0  3  0  0  0  0  0  0
  189.4470  178.1730  145.5860 C   0  0  2  0  0  3  0  0  0  0  0  0
  190.1020  177.4240  147.8670 C   0  0  0  0  0  1  0  0  0  0  0  0
  186.7990  177.1060  143.4080 C   0  0  0  0  0  1  0  0  0  0  0  0
  189.9110  178.6410  144.2210 C   0  0  0  0  0  2  0  0  0  0  0  0
  191.7630  176.4810  144.6430 O   0  0  0  0  0  0  0  0  0  0  0  0
  191.1470  176.2640  145.8770 C   0  0  1  0  0  3  0  0  0  0  0  0
  192.1620  175.6280  146.8230 C   0  0  0  0  0  2  0  0  0  0  0  0
  192.7180  176.6140  147.6330 O   0  0  0  0  0  0  0  0  0  0  0  0
  192.9220  175.9870  148.8650 C   0  0  0  0  0  2  0  0  0  0  0  0
  193.2180  177.8460  150.0280 C   0  0  0  0  0  1  0  0  0  0  0  0
  193.8800  176.6940  149.5930 O   0  0  0  0  0  0  0  0  0  0  0  0
  1  3  1  0  0  0  0
  3  4  2  0  0  0  0
  3  7  1  0  0  0  0
  4  6  1  0  0  0  0
  5  2  1  0  0  0  0
  6  2  2  0  0  0  0
  7  5  2  0  0  0  0
  8  1  1  0  0  0  0
  9 13  1  0  0  0  0
  9  8  1  0  0  0  0
 12 13  1  0  0  0  0
 12 11  2  0  0  0  0
 13 10  1  0  0  0  0
 14 12  1  1  0  0  0
 16 18  1  0  0  0  0
 17 20  1  0  0  0  0
 21 28  1  0  0  0  0
 21 27  1  0  0  0  0
 22 15  1  6  0  0  0
 22 28  1  0  0  0  0
 22 24  1  0  0  0  0
 23 21  2  0  0  0  0
 24 26  1  0  0  0  0
 25 16  2  0  0  0  0
 26 20  1  0  0  0  0
 26 16  1  0  0  0  0
 27 14  1  0  0  0  0
 27 19  1  0  0  0  0
 28 17  1  0  0  0  0
 29 34  1  0  0  0  0
 30 33  1  0  0  0  0
 30 29  2  0  0  0  0
 32 31  1  0  0  0  0
 33 32  2  0  0  0  0
 34 31  2  0  0  0  0
 34 14  1  0  0  0  0
 35  1  1  0  0  0  0
 36 35  1  0  0  0  0
 36 37  1  0  0  0  0
 37 38  1  0  0  0  0
 39 46  1  1  0  0  0
 40 38  1  6  0  0  0
 40 44  1  0  0  0  0
 40 48  1  0  0  0  0
 41 45  1  0  0  0  0
 42 49  1  0  0  0  0
 43 40  1  0  0  0  0
 43 42  1  0  0  0  0
 44 47  1  6  0  0  0
 44 41  1  0  0  0  0
 45 48  1  6  0  0  0
 45 39  1  0  0  0  0
 49 50  1  0  0  0  0
 50 39  1  0  0  0  0
 50 51  1  1  0  0  0
 51 52  1  0  0  0  0
 52 53  1  0  0  0  0
 53 55  1  0  0  0  0
 55 54  1  0  0  0  0
M  END
>  <MODEL>
9

>  <REMARK>
 VINA RESULT:      -6.4      3.093      6.883
  Name = 
  16 active torsions:
  status: ('A' for Active; 'I' for Inactive)
    1  A    between atoms: C_3  and  O_25
    2  A    between atoms: C_3  and  O_38
    3  A    between atoms: C_6  and  C_22
    4  A    between atoms: C_8  and  C_43
    5  A    between atoms: C_8  and  C_54
    6  A    between atoms: C_19  and  C_45
    7  A    between atoms: C_22  and  C_43
    8  A    between atoms: C_26  and  C_45
    9  A    between atoms: C_27  and  N_51
   10  A    between atoms: C_29  and  O_38
   11  A    between atoms: C_29  and  C_53
   12  A    between atoms: C_35  and  C_40
   13  A    between atoms: C_35  and  N_51
   14  A    between atoms: N_37  and  C_40
   15  A    between atoms: C_45  and  N_49
   16  A    between atoms: N_51  and  C_54
                            x       y       z     vdW  Elec       q    Type
                         _______ _______ _______ _____ _____    ______ ____

>  <TORSDO>
F 16

$$$$
