=
 OpenBabel11052412523D

 25 28  0  0  1  0  0  0  0  0999 V2000
  185.7070  178.5350  144.5420 C   0  0  0  0  0  0  0  0  0  0  0  0
  187.0160  178.0490  144.5510 C   0  0  0  0  0  0  0  0  0  0  0  0
  185.4920  178.3160  146.9340 C   0  0  0  0  0  3  0  0  0  0  0  0
  184.8820  179.0350  143.4130 C   0  0  2  0  0  3  0  0  0  0  0  0
  188.7870  177.0370  143.1110 C   0  0  2  0  0  3  0  0  0  0  0  0
  182.2610  178.7610  142.2500 C   0  0  0  0  0  3  0  0  0  0  0  0
  186.8090  177.8340  146.9840 C   0  0  0  0  0  3  0  0  0  0  0  0
  183.6040  179.3320  144.1540 C   0  0  0  0  0  0  0  0  0  0  0  0
  182.3390  179.4090  143.4200 C   0  0  0  0  0  3  0  0  0  0  0  0
  189.0300  177.2420  145.8970 C   0  0  2  0  0  3  0  0  0  0  0  0
  189.5780  177.2060  147.3170 C   0  0  0  0  0  1  0  0  0  0  0  0
  187.6990  177.9310  143.3310 O   0  0  0  0  0  0  0  0  0  0  0  0
  183.4050  177.9530  141.7490 C   0  0  0  0  0  3  0  0  0  0  0  0
  184.9790  178.6800  145.6950 C   0  0  0  0  0  0  0  0  0  0  0  0
  183.6610  179.1400  145.4360 N   0  0  0  0  0  0  0  0  0  0  0  0
  189.8720  178.1130  145.0850 N   0  0  0  0  0  2  0  0  0  0  0  0
  184.6160  178.0250  142.3260 C   0  0  0  0  0  3  0  0  0  0  0  0
  190.0880  177.5020  143.7750 C   0  0  0  0  0  2  0  0  0  0  0  0
  187.5940  177.7100  145.8100 C   0  0  0  0  0  0  0  0  0  0  0  0
  188.9940  176.7480  141.6200 C   0  0  0  0  0  2  0  0  0  0  0  0
  190.8170  177.4850  140.1240 N   0  0  0  0  0  1  0  0  0  0  0  0
  189.5860  177.8920  140.7820 C   0  0  1  0  0  3  0  0  0  0  0  0
  188.6200  178.4820  139.8050 C   0  0  0  0  0  0  0  0  0  0  0  0
  187.2590  178.5130  140.0880 O   0  0  0  0  0  1  0  0  0  0  0  0
  189.0460  178.9850  138.7330 O   0  0  0  0  0  0  0  0  0  0  0  0
  1  2  2  0  0  0  0
  1 14  1  0  0  0  0
  2 19  1  0  0  0  0
  3  7  1  0  0  0  0
  4 17  1  6  0  0  0
  4  8  1  0  0  0  0
  4  1  1  0  0  0  0
  5 20  1  6  0  0  0
  5 12  1  0  0  0  0
  5 18  1  0  0  0  0
  6  9  2  0  0  0  0
  8 15  2  0  0  0  0
  9  8  1  0  0  0  0
 10 11  1  1  0  0  0
 12  2  1  0  0  0  0
 13  6  1  0  0  0  0
 13 17  2  0  0  0  0
 14  3  2  0  0  0  0
 15 14  1  0  0  0  0
 16 10  1  0  0  0  0
 18 16  1  0  0  0  0
 19 10  1  0  0  0  0
 19  7  2  0  0  0  0
 22 21  1  6  0  0  0
 22 20  1  0  0  0  0
 23 24  1  0  0  0  0
 23 22  1  0  0  0  0
 25 23  2  0  0  0  0
M  END
>  <MODEL>
1

>  <REMARK>
 VINA RESULT:      -9.6      0.000      0.000
  Name = 
  3 active torsions:
  status: ('A' for Active; 'I' for Inactive)
    1  A    between atoms: C_2  and  CA_25
    2  A    between atoms: C_6  and  C_15
    3  A    between atoms: C_15  and  CA_25
                            x       y       z     vdW  Elec       q    Type
                         _______ _______ _______ _____ _____    ______ ____

>  <TORSDO>
F 3

$$$$
=
 OpenBabel11052412523D

 25 28  0  0  1  0  0  0  0  0999 V2000
  187.4350  178.1430  145.5770 C   0  0  0  0  0  0  0  0  0  0  0  0
  188.6920  177.5710  145.3720 C   0  0  0  0  0  0  0  0  0  0  0  0
  187.5580  177.8250  147.9650 C   0  0  0  0  0  3  0  0  0  0  0  0
  186.4920  178.7520  144.6040 C   0  0  2  0  0  3  0  0  0  0  0  0
  190.1520  176.5110  143.6450 C   0  0  2  0  0  3  0  0  0  0  0  0
  183.7160  178.7130  143.8380 C   0  0  0  0  0  3  0  0  0  0  0  0
  188.8290  177.2530  147.7980 C   0  0  0  0  0  3  0  0  0  0  0  0
  185.3630  179.1000  145.5390 C   0  0  0  0  0  0  0  0  0  0  0  0
  184.0130  179.2980  145.0070 C   0  0  0  0  0  3  0  0  0  0  0  0
  190.8160  176.5650  146.3680 C   0  0  2  0  0  3  0  0  0  0  0  0
  191.5620  176.4240  147.6890 C   0  0  0  0  0  1  0  0  0  0  0  0
  189.1770  177.4650  144.0590 O   0  0  0  0  0  0  0  0  0  0  0  0
  184.7110  177.8540  143.1410 C   0  0  0  0  0  3  0  0  0  0  0  0
  186.8970  178.2820  146.8310 C   0  0  0  0  0  0  0  0  0  0  0  0
  185.5930  178.8420  146.7900 N   0  0  0  0  0  0  0  0  0  0  0  0
  191.5910  177.4150  145.4730 N   0  0  0  0  0  2  0  0  0  0  0  0
  185.9960  177.8170  143.5330 C   0  0  0  0  0  3  0  0  0  0  0  0
  191.5670  176.8550  144.1230 C   0  0  0  0  0  2  0  0  0  0  0  0
  189.4210  177.1330  146.5160 C   0  0  0  0  0  0  0  0  0  0  0  0
  190.1150  176.2810  142.1300 C   0  0  0  0  0  2  0  0  0  0  0  0
  191.3710  177.4450  140.3490 N   0  0  0  0  0  1  0  0  0  0  0  0
  190.2330  177.5350  141.2490 C   0  0  1  0  0  3  0  0  0  0  0  0
  188.9780  177.8650  140.5050 C   0  0  0  0  0  0  0  0  0  0  0  0
  188.6730  177.2180  139.3120 O   0  0  0  0  0  0  0  0  0  0  0  0
  188.1760  178.7100  140.9790 O   0  0  0  0  0  1  0  0  0  0  0  0
  1 14  1  0  0  0  0
  2  1  2  0  0  0  0
  2 19  1  0  0  0  0
  4 17  1  6  0  0  0
  4  8  1  0  0  0  0
  4  1  1  0  0  0  0
  5 20  1  6  0  0  0
  5 12  1  0  0  0  0
  5 18  1  0  0  0  0
  6  9  2  0  0  0  0
  7  3  1  0  0  0  0
  8 15  2  0  0  0  0
  9  8  1  0  0  0  0
 10 19  1  0  0  0  0
 10 11  1  1  0  0  0
 12  2  1  0  0  0  0
 13 17  2  0  0  0  0
 13  6  1  0  0  0  0
 14  3  2  0  0  0  0
 15 14  1  0  0  0  0
 16 10  1  0  0  0  0
 18 16  1  0  0  0  0
 19  7  2  0  0  0  0
 22 21  1  6  0  0  0
 22 20  1  0  0  0  0
 23 25  1  0  0  0  0
 23 22  1  0  0  0  0
 24 23  2  0  0  0  0
M  END
>  <MODEL>
2

>  <REMARK>
 VINA RESULT:      -9.6      1.318      1.939
  Name = 
  3 active torsions:
  status: ('A' for Active; 'I' for Inactive)
    1  A    between atoms: C_2  and  CA_25
    2  A    between atoms: C_6  and  C_15
    3  A    between atoms: C_15  and  CA_25
                            x       y       z     vdW  Elec       q    Type
                         _______ _______ _______ _____ _____    ______ ____

>  <TORSDO>
F 3

$$$$
=
 OpenBabel11052412523D

 25 28  0  0  1  0  0  0  0  0999 V2000
  187.7760  177.5760  145.3250 C   0  0  0  0  0  0  0  0  0  0  0  0
  186.9970  178.0410  144.2640 C   0  0  0  0  0  0  0  0  0  0  0  0
  186.1590  178.2830  146.9690 C   0  0  0  0  0  3  0  0  0  0  0  0
  189.0790  176.8620  145.3120 C   0  0  2  0  0  3  0  0  0  0  0  0
  187.0820  178.7210  141.8630 C   0  0  2  0  0  3  0  0  0  0  0  0
  191.6840  176.9130  146.5390 C   0  0  0  0  0  3  0  0  0  0  0  0
  185.3440  178.7530  145.9280 C   0  0  0  0  0  3  0  0  0  0  0  0
  189.3050  176.7340  146.7960 C   0  0  0  0  0  0  0  0  0  0  0  0
  190.6600  176.5190  147.3090 C   0  0  0  0  0  3  0  0  0  0  0  0
  184.8110  179.0900  143.4650 C   0  0  2  0  0  3  0  0  0  0  0  0
  183.4000  179.4120  143.9390 C   0  0  0  0  0  1  0  0  0  0  0  0
  187.4870  177.9000  142.9570 O   0  0  0  0  0  0  0  0  0  0  0  0
  191.4420  177.5910  145.2380 C   0  0  0  0  0  3  0  0  0  0  0  0
  187.3630  177.6760  146.6290 C   0  0  0  0  0  0  0  0  0  0  0  0
  188.3390  177.1850  147.5350 N   0  0  0  0  0  0  0  0  0  0  0  0
  184.7430  178.0630  142.4310 N   0  0  0  0  0  2  0  0  0  0  0  0
  190.2160  177.6280  144.6880 C   0  0  0  0  0  3  0  0  0  0  0  0
  185.6750  178.3900  141.3540 C   0  0  0  0  0  2  0  0  0  0  0  0
  185.7330  178.6260  144.5710 C   0  0  0  0  0  0  0  0  0  0  0  0
  188.1080  178.6950  140.7240 C   0  0  0  0  0  2  0  0  0  0  0  0
  188.4530  177.1200  138.8510 N   0  0  0  0  0  1  0  0  0  0  0  0
  188.6030  177.3070  140.2850 C   0  0  1  0  0  3  0  0  0  0  0  0
  189.9970  177.0000  140.7290 C   0  0  0  0  0  0  0  0  0  0  0  0
  190.2320  176.0470  141.7140 O   0  0  0  0  0  1  0  0  0  0  0  0
  190.9680  177.5840  140.1830 O   0  0  0  0  0  0  0  0  0  0  0  0
  1 14  1  0  0  0  0
  2 19  1  0  0  0  0
  2  1  2  0  0  0  0
  4 17  1  1  0  0  0
  4  1  1  0  0  0  0
  4  8  1  0  0  0  0
  5 20  1  6  0  0  0
  5 12  1  0  0  0  0
  6  9  2  0  0  0  0
  7  3  1  0  0  0  0
  8  9  1  0  0  0  0
  8 15  2  0  0  0  0
 10 11  1  1  0  0  0
 10 19  1  0  0  0  0
 12  2  1  0  0  0  0
 13  6  1  0  0  0  0
 14  3  2  0  0  0  0
 14 15  1  0  0  0  0
 16 10  1  0  0  0  0
 17 13  2  0  0  0  0
 18  5  1  0  0  0  0
 18 16  1  0  0  0  0
 19  7  2  0  0  0  0
 22 21  1  6  0  0  0
 22 20  1  0  0  0  0
 22 23  1  0  0  0  0
 23 24  1  0  0  0  0
 25 23  2  0  0  0  0
M  END
>  <MODEL>
3

>  <REMARK>
 VINA RESULT:      -9.4      1.735      5.046
  Name = 
  3 active torsions:
  status: ('A' for Active; 'I' for Inactive)
    1  A    between atoms: C_2  and  CA_25
    2  A    between atoms: C_6  and  C_15
    3  A    between atoms: C_15  and  CA_25
                            x       y       z     vdW  Elec       q    Type
                         _______ _______ _______ _____ _____    ______ ____

>  <TORSDO>
F 3

$$$$
=
 OpenBabel11052412523D

 25 28  0  0  1  0  0  0  0  0999 V2000
  186.7160  178.3080  144.7330 C   0  0  0  0  0  0  0  0  0  0  0  0
  187.9410  177.9000  144.2030 C   0  0  0  0  0  0  0  0  0  0  0  0
  187.3230  177.6170  146.9620 C   0  0  0  0  0  3  0  0  0  0  0  0
  185.5650  178.9750  144.0720 C   0  0  2  0  0  3  0  0  0  0  0  0
  189.0990  177.2810  142.0790 C   0  0  2  0  0  3  0  0  0  0  0  0
  182.7000  178.7980  143.8290 C   0  0  0  0  0  3  0  0  0  0  0  0
  188.5700  177.2040  146.4670 C   0  0  0  0  0  3  0  0  0  0  0  0
  184.6210  179.0560  145.2440 C   0  0  0  0  0  0  0  0  0  0  0  0
  183.1830  179.2080  145.0100 C   0  0  0  0  0  3  0  0  0  0  0  0
  190.2780  176.9520  144.6000 C   0  0  2  0  0  3  0  0  0  0  0  0
  191.2750  176.6680  145.7160 C   0  0  0  0  0  1  0  0  0  0  0  0
  188.1660  178.0580  142.8270 O   0  0  0  0  0  0  0  0  0  0  0  0
  183.5910  178.1640  142.8210 C   0  0  0  0  0  3  0  0  0  0  0  0
  186.4250  178.1880  146.0680 C   0  0  0  0  0  0  0  0  0  0  0  0
  185.1070  178.6200  146.3650 N   0  0  0  0  0  0  0  0  0  0  0  0
  190.8090  178.0070  143.7460 N   0  0  0  0  0  2  0  0  0  0  0  0
  184.9280  178.1850  142.9590 C   0  0  0  0  0  3  0  0  0  0  0  0
  190.5560  177.6750  142.3450 C   0  0  0  0  0  2  0  0  0  0  0  0
  188.9070  177.3520  145.0990 C   0  0  0  0  0  0  0  0  0  0  0  0
  188.7810  177.3000  140.5790 C   0  0  0  0  0  2  0  0  0  0  0  0
  190.5850  176.1260  139.3660 N   0  0  0  0  0  1  0  0  0  0  0  0
  189.9840  177.4230  139.6310 C   0  0  1  0  0  3  0  0  0  0  0  0
  189.6740  178.1460  138.3590 C   0  0  0  0  0  0  0  0  0  0  0  0
  190.0310  177.6010  137.1300 O   0  0  0  0  0  0  0  0  0  0  0  0
  189.0550  179.2410  138.3990 O   0  0  0  0  0  1  0  0  0  0  0  0
  1 14  1  0  0  0  0
  2  1  2  0  0  0  0
  2 19  1  0  0  0  0
  4 17  1  6  0  0  0
  4  1  1  0  0  0  0
  4  8  1  0  0  0  0
  5 20  1  6  0  0  0
  5 18  1  0  0  0  0
  5 12  1  0  0  0  0
  6  9  2  0  0  0  0
  7  3  1  0  0  0  0
  8 15  2  0  0  0  0
  9  8  1  0  0  0  0
 10 19  1  0  0  0  0
 10 11  1  1  0  0  0
 12  2  1  0  0  0  0
 13 17  2  0  0  0  0
 13  6  1  0  0  0  0
 14 15  1  0  0  0  0
 14  3  2  0  0  0  0
 16 10  1  0  0  0  0
 18 16  1  0  0  0  0
 19  7  2  0  0  0  0
 22 21  1  6  0  0  0
 22 20  1  0  0  0  0
 23 25  1  0  0  0  0
 23 22  1  0  0  0  0
 24 23  2  0  0  0  0
M  END
>  <MODEL>
4

>  <REMARK>
 VINA RESULT:      -9.2      1.230      1.683
  Name = 
  3 active torsions:
  status: ('A' for Active; 'I' for Inactive)
    1  A    between atoms: C_2  and  CA_25
    2  A    between atoms: C_6  and  C_15
    3  A    between atoms: C_15  and  CA_25
                            x       y       z     vdW  Elec       q    Type
                         _______ _______ _______ _____ _____    ______ ____

>  <TORSDO>
F 3

$$$$
=
 OpenBabel11052412523D

 25 28  0  0  1  0  0  0  0  0999 V2000
  188.7890  177.2220  143.6870 C   0  0  0  0  0  0  0  0  0  0  0  0
  187.9070  177.6740  144.6710 C   0  0  0  0  0  0  0  0  0  0  0  0
  190.5670  176.8820  145.2800 C   0  0  0  0  0  3  0  0  0  0  0  0
  188.5700  177.0090  142.2330 C   0  0  2  0  0  3  0  0  0  0  0  0
  185.8030  178.9700  145.0330 C   0  0  2  0  0  3  0  0  0  0  0  0
  189.7600  177.5810  139.6730 C   0  0  0  0  0  3  0  0  0  0  0  0
  189.7060  177.3210  146.2970 C   0  0  0  0  0  3  0  0  0  0  0  0
  189.9550  176.5650  141.8380 C   0  0  0  0  0  0  0  0  0  0  0  0
  190.3840  176.6770  140.4420 C   0  0  0  0  0  3  0  0  0  0  0  0
  187.4440  178.1200  147.1410 C   0  0  2  0  0  3  0  0  0  0  0  0
  187.9910  177.8170  148.5300 C   0  0  0  0  0  1  0  0  0  0  0  0
  186.6150  178.0630  144.2880 O   0  0  0  0  0  0  0  0  0  0  0  0
  188.7090  178.4680  140.2400 C   0  0  0  0  0  3  0  0  0  0  0  0
  190.0670  176.8220  143.9850 C   0  0  0  0  0  0  0  0  0  0  0  0
  190.7920  176.4540  142.8220 N   0  0  0  0  0  0  0  0  0  0  0  0
  186.1590  177.4500  146.9800 N   0  0  0  0  0  2  0  0  0  0  0  0
  188.1930  178.2470  141.4610 C   0  0  0  0  0  3  0  0  0  0  0  0
  185.2210  178.3450  146.3060 C   0  0  0  0  0  2  0  0  0  0  0  0
  188.3700  177.7040  146.0190 C   0  0  0  0  0  0  0  0  0  0  0  0
  184.7050  179.5940  144.1650 C   0  0  0  0  0  2  0  0  0  0  0  0
  182.4390  178.8420  143.5280 N   0  0  0  0  0  1  0  0  0  0  0  0
  183.8620  178.6180  143.3290 C   0  0  1  0  0  3  0  0  0  0  0  0
  184.2120  178.6170  141.8740 C   0  0  0  0  0  0  0  0  0  0  0  0
  183.6110  177.7160  141.0030 O   0  0  0  0  0  0  0  0  0  0  0  0
  185.0330  179.4610  141.4310 O   0  0  0  0  0  1  0  0  0  0  0  0
  1 14  2  0  0  0  0
  1  2  1  0  0  0  0
  2 19  2  0  0  0  0
  3  7  2  0  0  0  0
  4 17  1  6  0  0  0
  4  1  1  0  0  0  0
  5 20  1  6  0  0  0
  5 18  1  0  0  0  0
  6 13  1  0  0  0  0
  6  9  2  0  0  0  0
  8  4  1  0  0  0  0
  8 15  2  0  0  0  0
  9  8  1  0  0  0  0
 10 11  1  1  0  0  0
 12  2  1  0  0  0  0
 12  5  1  0  0  0  0
 13 17  2  0  0  0  0
 14  3  1  0  0  0  0
 15 14  1  0  0  0  0
 16 10  1  0  0  0  0
 18 16  1  0  0  0  0
 19  7  1  0  0  0  0
 19 10  1  0  0  0  0
 22 21  1  6  0  0  0
 22 20  1  0  0  0  0
 23 22  1  0  0  0  0
 24 23  2  0  0  0  0
 25 23  1  0  0  0  0
M  END
>  <MODEL>
5

>  <REMARK>
 VINA RESULT:      -9.1      1.728      5.319
  Name = 
  3 active torsions:
  status: ('A' for Active; 'I' for Inactive)
    1  A    between atoms: C_2  and  CA_25
    2  A    between atoms: C_6  and  C_15
    3  A    between atoms: C_15  and  CA_25
                            x       y       z     vdW  Elec       q    Type
                         _______ _______ _______ _____ _____    ______ ____

>  <TORSDO>
F 3

$$$$
=
 OpenBabel11052412523D

 25 28  0  0  1  0  0  0  0  0999 V2000
  187.2520  178.3400  142.3110 C   0  0  0  0  0  0  0  0  0  0  0  0
  186.6210  178.2830  143.5560 C   0  0  0  0  0  0  0  0  0  0  0  0
  185.1710  178.7120  141.1500 C   0  0  0  0  0  3  0  0  0  0  0  0
  188.6940  178.2550  141.9670 C   0  0  2  0  0  3  0  0  0  0  0  0
  186.8990  177.4940  145.9080 C   0  0  2  0  0  3  0  0  0  0  0  0
  190.5000  176.9210  140.1630 C   0  0  0  0  0  3  0  0  0  0  0  0
  184.5040  178.6720  142.3840 C   0  0  0  0  0  3  0  0  0  0  0  0
  188.5950  178.3480  140.4660 C   0  0  0  0  0  0  0  0  0  0  0  0
  189.6930  177.8500  139.6330 C   0  0  0  0  0  3  0  0  0  0  0  0
  184.4740  178.4940  144.9200 C   0  0  2  0  0  3  0  0  0  0  0  0
  183.0420  179.0010  144.8180 C   0  0  0  0  0  1  0  0  0  0  0  0
  187.4040  178.0520  144.6970 O   0  0  0  0  0  0  0  0  0  0  0  0
  190.2520  176.3840  141.5270 C   0  0  0  0  0  3  0  0  0  0  0  0
  186.5530  178.5650  141.1530 C   0  0  0  0  0  0  0  0  0  0  0  0
  187.3940  178.5290  140.0100 N   0  0  0  0  0  0  0  0  0  0  0  0
  185.2060  179.3260  145.8690 N   0  0  0  0  0  2  0  0  0  0  0  0
  189.3630  176.9610  142.3530 C   0  0  0  0  0  3  0  0  0  0  0  0
  186.0470  178.4810  146.7130 C   0  0  0  0  0  2  0  0  0  0  0  0
  185.2090  178.4780  143.5980 C   0  0  0  0  0  0  0  0  0  0  0  0
  188.0180  176.8930  146.7670 C   0  0  0  0  0  2  0  0  0  0  0  0
  189.2510  178.2790  148.3990 N   0  0  0  0  0  1  0  0  0  0  0  0
  189.2340  177.7960  147.0280 C   0  0  1  0  0  3  0  0  0  0  0  0
  190.5400  177.1650  146.6600 C   0  0  0  0  0  0  0  0  0  0  0  0
  191.5280  176.9740  147.6190 O   0  0  0  0  0  1  0  0  0  0  0  0
  190.7320  176.7740  145.4800 O   0  0  0  0  0  0  0  0  0  0  0  0
  1  2  1  0  0  0  0
  2 19  2  0  0  0  0
  2 12  1  0  0  0  0
  3 14  1  0  0  0  0
  3  7  2  0  0  0  0
  4  1  1  0  0  0  0
  4 17  1  6  0  0  0
  5 18  1  0  0  0  0
  5 20  1  1  0  0  0
  6 13  1  0  0  0  0
  7 19  1  0  0  0  0
  8  4  1  0  0  0  0
  9  6  2  0  0  0  0
  9  8  1  0  0  0  0
 10 11  1  6  0  0  0
 10 16  1  0  0  0  0
 12  5  1  0  0  0  0
 13 17  2  0  0  0  0
 14  1  2  0  0  0  0
 15  8  2  0  0  0  0
 15 14  1  0  0  0  0
 16 18  1  0  0  0  0
 19 10  1  0  0  0  0
 20 22  1  0  0  0  0
 22 21  1  1  0  0  0
 23 22  1  0  0  0  0
 23 24  1  0  0  0  0
 25 23  2  0  0  0  0
M  END
>  <MODEL>
6

>  <REMARK>
 VINA RESULT:      -8.9      2.141      5.946
  Name = 
  3 active torsions:
  status: ('A' for Active; 'I' for Inactive)
    1  A    between atoms: C_2  and  CA_25
    2  A    between atoms: C_6  and  C_15
    3  A    between atoms: C_15  and  CA_25
                            x       y       z     vdW  Elec       q    Type
                         _______ _______ _______ _____ _____    ______ ____

>  <TORSDO>
F 3

$$$$
=
 OpenBabel11052412523D

 25 28  0  0  1  0  0  0  0  0999 V2000
  186.7620  178.2400  143.8250 C   0  0  0  0  0  0  0  0  0  0  0  0
  187.9990  177.8060  143.3440 C   0  0  0  0  0  0  0  0  0  0  0  0
  187.2860  177.5830  146.0850 C   0  0  0  0  0  3  0  0  0  0  0  0
  185.6430  178.9090  143.1140 C   0  0  2  0  0  3  0  0  0  0  0  0
  189.2190  177.1330  141.2720 C   0  0  2  0  0  3  0  0  0  0  0  0
  182.7860  178.7620  142.7780 C   0  0  0  0  0  3  0  0  0  0  0  0
  188.5430  177.1450  145.6410 C   0  0  0  0  0  3  0  0  0  0  0  0
  184.6610  179.0230  144.2510 C   0  0  0  0  0  0  0  0  0  0  0  0
  183.2340  179.1890  143.9670 C   0  0  0  0  0  3  0  0  0  0  0  0
  190.3090  176.8360  143.8370 C   0  0  2  0  0  3  0  0  0  0  0  0
  191.2640  176.5610  144.9910 C   0  0  0  0  0  1  0  0  0  0  0  0
  188.2720  177.9350  141.9740 O   0  0  0  0  0  0  0  0  0  0  0  0
  183.7010  178.0980  141.8120 C   0  0  0  0  0  3  0  0  0  0  0  0
  186.4260  178.1490  145.1510 C   0  0  0  0  0  0  0  0  0  0  0  0
  185.1040  178.6020  145.3960 N   0  0  0  0  0  0  0  0  0  0  0  0
  190.8810  177.8680  142.9820 N   0  0  0  0  0  2  0  0  0  0  0  0
  185.0330  178.1050  141.9940 C   0  0  0  0  0  3  0  0  0  0  0  0
  190.6710  177.5130  141.5800 C   0  0  0  0  0  2  0  0  0  0  0  0
  188.9270  177.2630  144.2820 C   0  0  0  0  0  0  0  0  0  0  0  0
  188.9520  177.1270  139.7620 C   0  0  0  0  0  2  0  0  0  0  0  0
  189.0540  179.2010  138.4230 N   0  0  0  0  0  1  0  0  0  0  0  0
  188.1840  178.3360  139.2030 C   0  0  1  0  0  3  0  0  0  0  0  0
  186.9570  177.9630  138.4330 C   0  0  0  0  0  0  0  0  0  0  0  0
  185.7990  178.7250  138.5370 O   0  0  0  0  0  1  0  0  0  0  0  0
  186.9850  176.9720  137.6590 O   0  0  0  0  0  0  0  0  0  0  0  0
  1 14  1  0  0  0  0
  2  1  2  0  0  0  0
  2 19  1  0  0  0  0
  4 17  1  6  0  0  0
  4  1  1  0  0  0  0
  4  8  1  0  0  0  0
  5 20  1  6  0  0  0
  5 18  1  0  0  0  0
  5 12  1  0  0  0  0
  6  9  2  0  0  0  0
  7  3  1  0  0  0  0
  8 15  2  0  0  0  0
  9  8  1  0  0  0  0
 10 19  1  0  0  0  0
 10 11  1  1  0  0  0
 12  2  1  0  0  0  0
 13 17  2  0  0  0  0
 13  6  1  0  0  0  0
 14 15  1  0  0  0  0
 14  3  2  0  0  0  0
 16 10  1  0  0  0  0
 18 16  1  0  0  0  0
 19  7  2  0  0  0  0
 22 21  1  6  0  0  0
 22 20  1  0  0  0  0
 23 24  1  0  0  0  0
 23 22  1  0  0  0  0
 25 23  2  0  0  0  0
M  END
>  <MODEL>
7

>  <REMARK>
 VINA RESULT:      -8.9      1.456      1.945
  Name = 
  3 active torsions:
  status: ('A' for Active; 'I' for Inactive)
    1  A    between atoms: C_2  and  CA_25
    2  A    between atoms: C_6  and  C_15
    3  A    between atoms: C_15  and  CA_25
                            x       y       z     vdW  Elec       q    Type
                         _______ _______ _______ _____ _____    ______ ____

>  <TORSDO>
F 3

$$$$
=
 OpenBabel11052412523D

 25 28  0  0  1  0  0  0  0  0999 V2000
  187.2650  177.7580  144.9390 C   0  0  0  0  0  0  0  0  0  0  0  0
  186.2010  178.1300  144.1150 C   0  0  0  0  0  0  0  0  0  0  0  0
  186.1080  178.4600  146.9350 C   0  0  0  0  0  3  0  0  0  0  0  0
  188.5580  177.1120  144.5970 C   0  0  2  0  0  3  0  0  0  0  0  0
  185.5950  178.6940  141.7590 C   0  0  2  0  0  3  0  0  0  0  0  0
  191.3890  177.3590  145.0690 C   0  0  0  0  0  3  0  0  0  0  0  0
  185.0150  178.8360  146.1400 C   0  0  0  0  0  3  0  0  0  0  0  0
  189.1830  177.0690  145.9680 C   0  0  0  0  0  0  0  0  0  0  0  0
  190.6370  176.9500  146.1010 C   0  0  0  0  0  3  0  0  0  0  0  0
  183.8200  179.0240  143.9030 C   0  0  2  0  0  3  0  0  0  0  0  0
  182.5700  179.2950  144.7310 C   0  0  0  0  0  1  0  0  0  0  0  0
  186.3290  177.9500  142.7290 O   0  0  0  0  0  0  0  0  0  0  0  0
  190.7630  177.9590  143.8610 C   0  0  0  0  0  3  0  0  0  0  0  0
  187.2120  177.9010  146.3020 C   0  0  0  0  0  0  0  0  0  0  0  0
  188.4240  177.5060  146.9250 N   0  0  0  0  0  0  0  0  0  0  0  0
  183.5410  177.9460  142.9620 N   0  0  0  0  0  2  0  0  0  0  0  0
  189.4350  177.9050  143.6630 C   0  0  0  0  0  3  0  0  0  0  0  0
  184.1260  178.2670  141.6630 C   0  0  0  0  0  2  0  0  0  0  0  0
  185.0320  178.6630  144.7330 C   0  0  0  0  0  0  0  0  0  0  0  0
  186.2760  178.6660  140.3860 C   0  0  0  0  0  2  0  0  0  0  0  0
  184.6660  179.9190  138.9920 N   0  0  0  0  0  1  0  0  0  0  0  0
  185.3430  178.6440  139.1650 C   0  0  1  0  0  3  0  0  0  0  0  0
  186.0180  178.2130  137.9020 C   0  0  0  0  0  0  0  0  0  0  0  0
  187.1180  178.9090  137.4150 O   0  0  0  0  0  1  0  0  0  0  0  0
  185.6080  177.1910  137.2940 O   0  0  0  0  0  0  0  0  0  0  0  0
  1 14  1  0  0  0  0
  2 19  1  0  0  0  0
  2  1  2  0  0  0  0
  4 17  1  6  0  0  0
  4  1  1  0  0  0  0
  4  8  1  0  0  0  0
  5 20  1  6  0  0  0
  5 12  1  0  0  0  0
  6  9  2  0  0  0  0
  7  3  1  0  0  0  0
  8  9  1  0  0  0  0
  8 15  2  0  0  0  0
 10 11  1  1  0  0  0
 10 19  1  0  0  0  0
 12  2  1  0  0  0  0
 13  6  1  0  0  0  0
 14 15  1  0  0  0  0
 14  3  2  0  0  0  0
 16 10  1  0  0  0  0
 17 13  2  0  0  0  0
 18  5  1  0  0  0  0
 18 16  1  0  0  0  0
 19  7  2  0  0  0  0
 22 21  1  6  0  0  0
 22 20  1  0  0  0  0
 23 22  1  0  0  0  0
 24 23  1  0  0  0  0
 25 23  2  0  0  0  0
M  END
>  <MODEL>
8

>  <REMARK>
 VINA RESULT:      -8.8      2.186      5.212
  Name = 
  3 active torsions:
  status: ('A' for Active; 'I' for Inactive)
    1  A    between atoms: C_2  and  CA_25
    2  A    between atoms: C_6  and  C_15
    3  A    between atoms: C_15  and  CA_25
                            x       y       z     vdW  Elec       q    Type
                         _______ _______ _______ _____ _____    ______ ____

>  <TORSDO>
F 3

$$$$
=
 OpenBabel11052412523D

 25 28  0  0  1  0  0  0  0  0999 V2000
  187.0330  177.8590  143.2670 C   0  0  0  0  0  0  0  0  0  0  0  0
  188.0310  177.7530  142.2960 C   0  0  0  0  0  0  0  0  0  0  0  0
  185.5300  178.9900  141.7580 C   0  0  0  0  0  3  0  0  0  0  0  0
  187.0040  177.3580  144.6650 C   0  0  2  0  0  3  0  0  0  0  0  0
  190.4790  177.3870  141.9720 C   0  0  2  0  0  3  0  0  0  0  0  0
  186.3880  178.2100  147.3470 C   0  0  0  0  0  3  0  0  0  0  0  0
  186.5050  178.8920  140.7540 C   0  0  0  0  0  3  0  0  0  0  0  0
  185.6540  177.8800  145.0870 C   0  0  0  0  0  0  0  0  0  0  0  0
  185.3530  178.0530  146.5100 C   0  0  0  0  0  3  0  0  0  0  0  0
  188.7640  178.1200  139.8790 C   0  0  2  0  0  3  0  0  0  0  0  0
  188.2050  178.4450  138.5000 C   0  0  0  0  0  1  0  0  0  0  0  0
  189.2450  177.1430  142.6440 O   0  0  0  0  0  0  0  0  0  0  0  0
  187.7830  178.2580  146.8340 C   0  0  0  0  0  3  0  0  0  0  0  0
  185.8190  178.4400  143.0010 C   0  0  0  0  0  0  0  0  0  0  0  0
  184.9880  178.4820  144.1500 N   0  0  0  0  0  0  0  0  0  0  0  0
  189.2860  176.7590  139.8720 N   0  0  0  0  0  2  0  0  0  0  0  0
  188.0720  177.9240  145.5650 C   0  0  0  0  0  3  0  0  0  0  0  0
  190.5550  176.7170  140.5950 C   0  0  0  0  0  2  0  0  0  0  0  0
  187.7520  178.2630  140.9940 C   0  0  0  0  0  0  0  0  0  0  0  0
  191.6840  177.0120  142.8420 C   0  0  0  0  0  2  0  0  0  0  0  0
  192.0550  174.8750  144.0240 N   0  0  0  0  0  1  0  0  0  0  0  0
  191.3860  176.1640  144.0880 C   0  0  1  0  0  3  0  0  0  0  0  0
  191.6810  176.8650  145.3760 C   0  0  0  0  0  0  0  0  0  0  0  0
  192.0270  176.1410  146.5120 O   0  0  0  0  0  1  0  0  0  0  0  0
  191.6500  178.1210  145.4230 O   0  0  0  0  0  0  0  0  0  0  0  0
  1  4  1  0  0  0  0
  2 12  1  0  0  0  0
  2  1  2  0  0  0  0
  3 14  2  0  0  0  0
  4  8  1  0  0  0  0
  4 17  1  1  0  0  0
  5 12  1  0  0  0  0
  5 20  1  1  0  0  0
  7 19  2  0  0  0  0
  7  3  1  0  0  0  0
  8  9  1  0  0  0  0
  9  6  2  0  0  0  0
 10 11  1  6  0  0  0
 10 19  1  0  0  0  0
 13  6  1  0  0  0  0
 14  1  1  0  0  0  0
 14 15  1  0  0  0  0
 15  8  2  0  0  0  0
 16 10  1  0  0  0  0
 16 18  1  0  0  0  0
 17 13  2  0  0  0  0
 18  5  1  0  0  0  0
 19  2  1  0  0  0  0
 20 22  1  0  0  0  0
 22 21  1  6  0  0  0
 22 23  1  0  0  0  0
 23 25  2  0  0  0  0
 23 24  1  0  0  0  0
M  END
>  <MODEL>
9

>  <REMARK>
 VINA RESULT:      -8.6      2.161      5.063
  Name = 
  3 active torsions:
  status: ('A' for Active; 'I' for Inactive)
    1  A    between atoms: C_2  and  CA_25
    2  A    between atoms: C_6  and  C_15
    3  A    between atoms: C_15  and  CA_25
                            x       y       z     vdW  Elec       q    Type
                         _______ _______ _______ _____ _____    ______ ____

>  <TORSDO>
F 3

$$$$
