=
 OpenBabel11052414503D

 55 59  0  0  1  0  0  0  0  0999 V2000
  188.7610  178.2860  140.5260 C   0  0  1  0  0  3  0  0  0  0  0  0
  189.7090  178.1630  139.3360 C   0  0  0  0  0  2  0  0  0  0  0  0
  190.9090  177.3040  139.6900 C   0  0  0  0  0  2  0  0  0  0  0  0
  192.5610  176.0090  135.9110 C   0  0  0  0  0  2  0  0  0  0  0  0
  191.4450  176.6440  138.4640 C   0  0  0  0  0  0  0  0  0  0  0  0
  192.9410  176.4780  138.3370 C   0  0  0  0  0  2  0  0  0  0  0  0
  191.0830  175.7360  136.1660 C   0  0  0  0  0  2  0  0  0  0  0  0
  193.3550  175.6090  137.1490 C   0  0  2  0  0  3  0  0  0  0  0  0
  190.6140  176.3880  137.4410 C   0  0  0  0  0  3  0  0  0  0  0  0
  194.7830  176.6610  135.9380 O   0  0  0  0  0  1  0  0  0  0  0  0
  194.7190  175.7710  136.9060 O   0  0  0  0  0  0  0  0  0  0  0  0
  187.4500  178.4910  140.0830 O   0  0  0  0  0  0  0  0  0  0  0  0
  187.4310  178.0730  138.7490 C   0  0  0  0  0  2  0  0  0  0  0  0
  186.0110  178.1160  138.1920 C   0  0  0  0  0  2  0  0  0  0  0  0
  185.8130  177.0920  137.0890 C   0  0  0  0  0  2  0  0  0  0  0  0
  184.6480  177.3880  136.3800 O   0  0  0  0  0  0  0  0  0  0  0  0
  183.7280  177.7780  137.3490 C   0  0  0  0  0  2  0  0  0  0  0  0
  180.3750  174.8550  138.6210 C   0  0  0  0  0  2  0  0  0  0  0  0
  179.7040  174.8230  139.9980 C   0  0  0  0  0  2  0  0  0  0  0  0
  182.0340  176.4340  139.5720 O   0  0  0  0  0  0  0  0  0  0  0  0
  179.7620  177.3820  139.7590 C   0  0  0  0  0  2  0  0  0  0  0  0
  179.6100  176.1880  140.7040 C   0  0  0  0  0  2  0  0  0  0  0  0
  181.8240  175.3640  138.6590 C   0  0  2  0  0  3  0  0  0  0  0  0
  181.2250  177.9340  137.7690 C   0  0  2  0  0  3  0  0  0  0  0  0
  181.2060  177.5520  139.2620 C   0  0  2  0  0  3  0  0  0  0  0  0
  182.3040  175.7200  137.2440 C   0  0  0  0  0  2  0  0  0  0  0  0
  182.3490  177.2330  136.9920 C   0  0  2  0  0  3  0  0  0  0  0  0
  181.5020  180.2880  138.5690 C   0  0  0  0  0  3  0  0  0  0  0  0
  180.9890  182.1950  137.1580 C   0  0  0  0  0  0  0  0  0  0  0  0
  180.7090  179.9370  136.3090 C   0  0  0  0  0  3  0  0  0  0  0  0
  180.6280  181.3210  136.1210 C   0  0  0  0  0  3  0  0  0  0  0  0
  181.4240  181.6720  138.3810 C   0  0  0  0  0  3  0  0  0  0  0  0
  181.1500  179.4150  137.5350 C   0  0  0  0  0  0  0  0  0  0  0  0
  180.8990  183.6780  136.9890 C   0  0  1  0  0  3  0  0  0  0  0  0
  179.7030  184.2410  137.7330 C   0  0  0  0  0  1  0  0  0  0  0  0
  182.1180  184.3160  137.4590 N   0  0  0  0  0  1  0  0  0  0  0  0
  188.8180  177.0530  141.4440 C   0  0  0  0  0  2  0  0  0  0  0  0
  188.6550  177.3000  142.9590 C   0  0  1  0  0  3  0  0  0  0  0  0
  186.8020  176.8150  144.5790 C   0  0  0  0  0  3  0  0  0  0  0  0
  187.6030  176.4250  143.5800 C   0  0  0  0  0  3  0  0  0  0  0  0
  186.8350  178.1900  145.1710 C   0  0  2  0  0  3  0  0  0  0  0  0
  187.4200  178.1510  146.5500 C   0  0  0  0  0  0  0  0  0  0  0  0
  188.7680  177.8630  146.7100 O   0  0  0  0  0  0  0  0  0  0  0  0
  186.7060  178.3870  147.5630 O   0  0  0  0  0  1  0  0  0  0  0  0
  185.4250  178.7760  145.1820 C   0  0  0  0  0  2  0  0  0  0  0  0
  184.7330  178.4630  143.9440 N   0  0  0  0  0  0  0  0  0  0  0  0
  183.6570  179.4110  143.8030 C   0  0  1  0  0  3  0  0  0  0  0  0
  184.8320  179.5900  143.1480 O   0  0  0  0  0  0  0  0  0  0  0  0
  182.6880  178.9140  142.8890 O   0  0  0  0  0  0  0  0  0  0  0  0
  181.3120  179.0620  143.0860 C   0  0  0  0  0  0  0  0  0  0  0  0
  180.7410  178.4670  144.1200 C   0  0  0  0  0  2  0  0  0  0  0  0
  180.4700  179.8830  142.1680 C   0  0  0  0  0  1  0  0  0  0  0  0
  189.9830  177.1610  143.6960 C   0  0  0  0  0  2  0  0  0  0  0  0
  190.9140  178.2590  143.3120 C   0  0  0  0  0  3  0  0  0  0  0  0
  190.9890  179.3560  144.0570 C   0  0  0  0  0  2  0  0  0  0  0  0
  1  2  1  6  0  0  0
  1 37  1  0  0  0  0
  2  3  1  0  0  0  0
  4  7  1  0  0  0  0
  4  8  1  0  0  0  0
  5  3  1  0  0  0  0
  6  5  1  0  0  0  0
  7  9  1  0  0  0  0
  8 11  1  6  0  0  0
  8  6  1  0  0  0  0
  9  5  2  0  0  0  0
 10 11  1  0  0  0  0
 12  1  1  0  0  0  0
 13 12  1  0  0  0  0
 14 13  1  0  0  0  0
 15 14  1  0  0  0  0
 16 15  1  0  0  0  0
 16 17  1  0  0  0  0
 18 23  1  0  0  0  0
 18 19  1  0  0  0  0
 19 22  1  0  0  0  0
 21 22  1  0  0  0  0
 23 26  1  6  0  0  0
 23 20  1  0  0  0  0
 24 33  1  1  0  0  0
 24 25  1  0  0  0  0
 25 20  1  0  0  0  0
 25 21  1  6  0  0  0
 27 26  1  0  0  0  0
 27 17  1  1  0  0  0
 27 24  1  0  0  0  0
 29 32  2  0  0  0  0
 30 33  1  0  0  0  0
 31 30  2  0  0  0  0
 31 29  1  0  0  0  0
 32 28  1  0  0  0  0
 33 28  2  0  0  0  0
 34 29  1  0  0  0  0
 34 36  1  0  0  0  0
 34 35  1  1  0  0  0
 38 37  1  6  0  0  0
 38 40  1  0  0  0  0
 38 53  1  0  0  0  0
 40 39  2  0  0  0  0
 41 39  1  1  0  0  0
 41 45  1  0  0  0  0
 41 42  1  0  0  0  0
 42 43  2  0  0  0  0
 42 44  1  0  0  0  0
 46 45  1  0  0  0  0
 47 49  1  6  0  0  0
 47 46  1  0  0  0  0
 48 47  1  0  0  0  0
 48 46  1  0  0  0  0
 49 50  1  0  0  0  0
 50 51  2  0  0  0  0
 52 50  1  0  0  0  0
 54 53  1  0  0  0  0
 54 55  2  0  0  0  0
M  END
>  <MODEL>
1

>  <REMARK>
 VINA RESULT:      -7.4      0.000      0.000
  Name = 
  24 active torsions:
  status: ('A' for Active; 'I' for Inactive)
    1  A    between atoms: C_1  and  C_53
    2  A    between atoms: N_3  and  C_38
    3  A    between atoms: C_4  and  O_35
    4  A    between atoms: C_4  and  C_37
    5  A    between atoms: C_5  and  C_37
    6  A    between atoms: C_5  and  O_40
    7  A    between atoms: C_6  and  C_53
    8  A    between atoms: C_7  and  C_20
    9  A    between atoms: C_8  and  C_22
   10  A    between atoms: C_8  and  C_43
   11  A    between atoms: C_10  and  C_32
   12  A    between atoms: C_11  and  O_50
   13  A    between atoms: C_12  and  O_50
   14  A    between atoms: C_19  and  O_40
   15  A    between atoms: C_19  and  C_49
   16  A    between atoms: C_20  and  C_22
   17  A    between atoms: C_22  and  C_46
   18  A    between atoms: C_27  and  C_54
   19  A    between atoms: O_28  and  C_44
   20  A    between atoms: C_33  and  C_52
   21  A    between atoms: O_35  and  C_43
   22  A    between atoms: C_38  and  C_53
   23  A    between atoms: C_43  and  C_51
   24  A    between atoms: C_51  and  C_54
                            x       y       z     vdW  Elec       q    Type
                         _______ _______ _______ _____ _____    ______ ____

>  <TORSDO>
F 24

$$$$
=
 OpenBabel11052414503D

 55 59  0  0  1  0  0  0  0  0999 V2000
  183.0360  177.1310  139.4470 C   0  0  1  0  0  3  0  0  0  0  0  0
  184.0680  177.2960  138.3340 C   0  0  0  0  0  2  0  0  0  0  0  0
  183.6410  176.5440  137.0870 C   0  0  0  0  0  2  0  0  0  0  0  0
  185.7610  172.7970  137.4750 C   0  0  0  0  0  2  0  0  0  0  0  0
  184.3810  175.2530  136.9910 C   0  0  0  0  0  0  0  0  0  0  0  0
  183.5900  173.9680  137.0680 C   0  0  0  0  0  2  0  0  0  0  0  0
  186.5400  173.9970  136.9480 C   0  0  0  0  0  2  0  0  0  0  0  0
  184.4220  172.7250  136.7510 C   0  0  2  0  0  3  0  0  0  0  0  0
  185.7230  175.2610  137.0270 C   0  0  0  0  0  3  0  0  0  0  0  0
  182.4690  171.9610  137.2120 O   0  0  0  0  0  1  0  0  0  0  0  0
  183.7290  171.5840  137.1560 O   0  0  0  0  0  0  0  0  0  0  0  0
  183.4920  177.7320  140.6250 O   0  0  0  0  0  0  0  0  0  0  0  0
  184.2020  178.8670  140.2220 C   0  0  0  0  0  2  0  0  0  0  0  0
  185.1060  179.3630  141.3460 C   0  0  0  0  0  2  0  0  0  0  0  0
  186.4170  178.5980  141.3850 C   0  0  0  0  0  2  0  0  0  0  0  0
  187.1190  178.8120  140.1980 O   0  0  0  0  0  0  0  0  0  0  0  0
  188.4440  178.5110  140.5050 C   0  0  0  0  0  2  0  0  0  0  0  0
  190.2990  175.8660  137.1930 C   0  0  0  0  0  2  0  0  0  0  0  0
  191.7110  176.0250  136.6220 C   0  0  0  0  0  2  0  0  0  0  0  0
  190.6320  178.0280  138.3620 O   0  0  0  0  0  0  0  0  0  0  0  0
  192.3470  176.4050  139.0830 C   0  0  0  0  0  2  0  0  0  0  0  0
  192.7560  176.5610  137.6170 C   0  0  0  0  0  2  0  0  0  0  0  0
  189.6960  177.1830  137.7060 C   0  0  2  0  0  3  0  0  0  0  0  0
  190.2010  176.6770  140.3960 C   0  0  2  0  0  3  0  0  0  0  0  0
  191.2250  177.3760  139.4820 C   0  0  2  0  0  3  0  0  0  0  0  0
  188.4670  176.9030  138.5840 C   0  0  0  0  0  2  0  0  0  0  0  0
  188.7530  177.0790  140.0820 C   0  0  2  0  0  3  0  0  0  0  0  0
  189.9400  175.8800  142.7530 C   0  0  0  0  0  3  0  0  0  0  0  0
  191.1530  176.8920  144.5960 C   0  0  0  0  0  0  0  0  0  0  0  0
  191.4680  177.7090  142.3310 C   0  0  0  0  0  3  0  0  0  0  0  0
  191.7660  177.7770  143.6960 C   0  0  0  0  0  3  0  0  0  0  0  0
  190.2390  175.9460  144.1190 C   0  0  0  0  0  3  0  0  0  0  0  0
  190.5550  176.7560  141.8530 C   0  0  0  0  0  0  0  0  0  0  0  0
  191.4430  176.9520  146.0610 C   0  0  1  0  0  3  0  0  0  0  0  0
  190.1610  177.0250  146.8690 C   0  0  0  0  0  1  0  0  0  0  0  0
  192.2190  175.7930  146.4720 N   0  0  0  0  0  1  0  0  0  0  0  0
  181.6650  177.7120  139.0590 C   0  0  0  0  0  2  0  0  0  0  0  0
  180.6070  177.8140  140.1770 C   0  0  1  0  0  3  0  0  0  0  0  0
  180.5010  179.6710  141.8620 C   0  0  0  0  0  3  0  0  0  0  0  0
  180.3510  179.2320  140.6060 C   0  0  0  0  0  3  0  0  0  0  0  0
  180.9830  178.8030  142.9840 C   0  0  2  0  0  3  0  0  0  0  0  0
  179.8650  178.5190  143.9410 C   0  0  0  0  0  0  0  0  0  0  0  0
  179.0640  179.5630  144.3820 O   0  0  0  0  0  1  0  0  0  0  0  0
  179.6380  177.3440  144.3400 O   0  0  0  0  0  0  0  0  0  0  0  0
  182.1560  179.4810  143.6870 C   0  0  0  0  0  2  0  0  0  0  0  0
  182.9430  178.5060  144.4210 N   0  0  0  0  0  0  0  0  0  0  0  0
  184.2550  179.0720  144.6130 C   0  0  1  0  0  3  0  0  0  0  0  0
  183.3240  179.1230  145.5990 O   0  0  0  0  0  0  0  0  0  0  0  0
  185.1890  178.0420  144.9110 O   0  0  0  0  0  0  0  0  0  0  0  0
  186.3270  178.2530  145.6950 C   0  0  0  0  0  0  0  0  0  0  0  0
  187.5160  177.9510  145.2000 C   0  0  0  0  0  2  0  0  0  0  0  0
  186.2400  178.8190  147.0720 C   0  0  0  0  0  1  0  0  0  0  0  0
  179.3060  177.1230  139.7830 C   0  0  0  0  0  2  0  0  0  0  0  0
  179.5610  175.7050  139.4020 C   0  0  0  0  0  3  0  0  0  0  0  0
  180.0020  174.8420  140.3120 C   0  0  0  0  0  2  0  0  0  0  0  0
  1  2  1  6  0  0  0
  1 12  1  0  0  0  0
  3  2  1  0  0  0  0
  5  9  2  0  0  0  0
  5  6  1  0  0  0  0
  5  3  1  0  0  0  0
  7  9  1  0  0  0  0
  7  4  1  0  0  0  0
  8  6  1  0  0  0  0
  8 11  1  1  0  0  0
  8  4  1  0  0  0  0
 11 10  1  0  0  0  0
 13 12  1  0  0  0  0
 13 14  1  0  0  0  0
 14 15  1  0  0  0  0
 16 17  1  0  0  0  0
 16 15  1  0  0  0  0
 19 18  1  0  0  0  0
 19 22  1  0  0  0  0
 20 25  1  0  0  0  0
 22 21  1  0  0  0  0
 23 18  1  1  0  0  0
 23 20  1  0  0  0  0
 23 26  1  0  0  0  0
 24 33  1  1  0  0  0
 25 21  1  6  0  0  0
 25 24  1  0  0  0  0
 26 27  1  0  0  0  0
 27 24  1  0  0  0  0
 27 17  1  6  0  0  0
 28 32  1  0  0  0  0
 29 34  1  0  0  0  0
 30 31  2  0  0  0  0
 31 29  1  0  0  0  0
 32 29  2  0  0  0  0
 33 30  1  0  0  0  0
 33 28  2  0  0  0  0
 34 36  1  0  0  0  0
 34 35  1  1  0  0  0
 37  1  1  0  0  0  0
 38 37  1  6  0  0  0
 38 40  1  0  0  0  0
 40 39  2  0  0  0  0
 41 39  1  6  0  0  0
 41 45  1  0  0  0  0
 41 42  1  0  0  0  0
 42 44  2  0  0  0  0
 42 43  1  0  0  0  0
 45 46  1  0  0  0  0
 46 47  1  0  0  0  0
 46 48  1  0  0  0  0
 47 49  1  1  0  0  0
 47 48  1  0  0  0  0
 49 50  1  0  0  0  0
 50 52  1  0  0  0  0
 51 50  2  0  0  0  0
 53 38  1  0  0  0  0
 54 53  1  0  0  0  0
 54 55  2  0  0  0  0
M  END
>  <MODEL>
2

>  <REMARK>
 VINA RESULT:      -7.2      2.723      9.254
  Name = 
  24 active torsions:
  status: ('A' for Active; 'I' for Inactive)
    1  A    between atoms: C_1  and  C_53
    2  A    between atoms: N_3  and  C_38
    3  A    between atoms: C_4  and  O_35
    4  A    between atoms: C_4  and  C_37
    5  A    between atoms: C_5  and  C_37
    6  A    between atoms: C_5  and  O_40
    7  A    between atoms: C_6  and  C_53
    8  A    between atoms: C_7  and  C_20
    9  A    between atoms: C_8  and  C_22
   10  A    between atoms: C_8  and  C_43
   11  A    between atoms: C_10  and  C_32
   12  A    between atoms: C_11  and  O_50
   13  A    between atoms: C_12  and  O_50
   14  A    between atoms: C_19  and  O_40
   15  A    between atoms: C_19  and  C_49
   16  A    between atoms: C_20  and  C_22
   17  A    between atoms: C_22  and  C_46
   18  A    between atoms: C_27  and  C_54
   19  A    between atoms: O_28  and  C_44
   20  A    between atoms: C_33  and  C_52
   21  A    between atoms: O_35  and  C_43
   22  A    between atoms: C_38  and  C_53
   23  A    between atoms: C_43  and  C_51
   24  A    between atoms: C_51  and  C_54
                            x       y       z     vdW  Elec       q    Type
                         _______ _______ _______ _____ _____    ______ ____

>  <TORSDO>
F 24

$$$$
=
 OpenBabel11052414503D

 55 59  0  0  1  0  0  0  0  0999 V2000
  185.5110  178.1010  143.9400 C   0  0  1  0  0  3  0  0  0  0  0  0
  184.3200  179.0090  143.6370 C   0  0  0  0  0  2  0  0  0  0  0  0
  183.1360  178.6540  144.5170 C   0  0  0  0  0  2  0  0  0  0  0  0
  179.5030  179.4860  142.3250 C   0  0  0  0  0  2  0  0  0  0  0  0
  181.8740  178.7150  143.7230 C   0  0  0  0  0  0  0  0  0  0  0  0
  181.9680  179.0690  142.2580 C   0  0  0  0  0  2  0  0  0  0  0  0
  179.3780  178.7040  143.6280 C   0  0  0  0  0  2  0  0  0  0  0  0
  180.6470  178.8970  141.5070 C   0  0  2  0  0  3  0  0  0  0  0  0
  180.6940  178.6380  144.3590 C   0  0  0  0  0  3  0  0  0  0  0  0
  180.9480  178.5780  139.4050 O   0  0  0  0  0  1  0  0  0  0  0  0
  180.7240  179.5420  140.2730 O   0  0  0  0  0  0  0  0  0  0  0  0
  186.4180  178.1190  142.8750 O   0  0  0  0  0  0  0  0  0  0  0  0
  185.9470  179.0950  141.9920 C   0  0  0  0  0  2  0  0  0  0  0  0
  186.0960  178.6280  140.5470 C   0  0  0  0  0  2  0  0  0  0  0  0
  184.8470  178.9230  139.7350 C   0  0  0  0  0  2  0  0  0  0  0  0
  185.1810  179.0230  138.3830 O   0  0  0  0  0  0  0  0  0  0  0  0
  185.9390  177.8850  138.1160 C   0  0  0  0  0  2  0  0  0  0  0  0
  188.1820  175.8510  134.6180 C   0  0  0  0  0  2  0  0  0  0  0  0
  188.6440  174.3910  134.5940 C   0  0  0  0  0  2  0  0  0  0  0  0
  187.6490  175.5430  137.0200 O   0  0  0  0  0  0  0  0  0  0  0  0
  186.3450  173.9520  135.6550 C   0  0  0  0  0  2  0  0  0  0  0  0
  187.7520  173.4160  135.3820 C   0  0  0  0  0  2  0  0  0  0  0  0
  188.1210  176.4490  136.0310 C   0  0  2  0  0  3  0  0  0  0  0  0
  185.3630  176.1900  136.3110 C   0  0  2  0  0  3  0  0  0  0  0  0
  186.3410  175.0690  136.7100 C   0  0  2  0  0  3  0  0  0  0  0  0
  187.3140  177.7560  136.0260 C   0  0  0  0  0  2  0  0  0  0  0  0
  185.9080  177.5920  136.6200 C   0  0  2  0  0  3  0  0  0  0  0  0
  182.8960  176.5630  136.1270 C   0  0  0  0  0  3  0  0  0  0  0  0
  181.3260  175.5860  137.7000 C   0  0  0  0  0  0  0  0  0  0  0  0
  183.7070  175.1690  137.9330 C   0  0  0  0  0  3  0  0  0  0  0  0
  182.3950  174.9840  138.3810 C   0  0  0  0  0  3  0  0  0  0  0  0
  181.5830  176.3760  136.5740 C   0  0  0  0  0  3  0  0  0  0  0  0
  183.9620  175.9580  136.8000 C   0  0  0  0  0  0  0  0  0  0  0  0
  179.9160  175.4160  138.1660 C   0  0  1  0  0  3  0  0  0  0  0  0
  179.2990  174.1550  137.5920 C   0  0  0  0  0  1  0  0  0  0  0  0
  179.8650  175.3730  139.6190 N   0  0  0  0  0  1  0  0  0  0  0  0
  186.2250  178.4960  145.2440 C   0  0  0  0  0  2  0  0  0  0  0  0
  187.5220  177.7350  145.5900 C   0  0  1  0  0  3  0  0  0  0  0  0
  189.9950  178.0750  145.3380 C   0  0  0  0  0  3  0  0  0  0  0  0
  188.7550  178.5740  145.4070 C   0  0  0  0  0  3  0  0  0  0  0  0
  190.2960  176.6090  145.3940 C   0  0  2  0  0  3  0  0  0  0  0  0
  191.1890  176.3040  146.5580 C   0  0  0  0  0  0  0  0  0  0  0  0
  190.6440  175.7510  147.7080 O   0  0  0  0  0  1  0  0  0  0  0  0
  192.4280  176.5330  146.5010 O   0  0  0  0  0  0  0  0  0  0  0  0
  190.9280  176.1660  144.0770 C   0  0  0  0  0  2  0  0  0  0  0  0
  190.0470  176.4660  142.9620 N   0  0  0  0  0  0  0  0  0  0  0  0
  190.8580  177.0430  141.9190 C   0  0  1  0  0  3  0  0  0  0  0  0
  190.5160  175.7310  141.8880 O   0  0  0  0  0  0  0  0  0  0  0  0
  190.0360  177.7580  141.0050 O   0  0  0  0  0  0  0  0  0  0  0  0
  190.2040  177.6880  139.6190 C   0  0  0  0  0  0  0  0  0  0  0  0
  189.3690  178.3500  138.8350 C   0  0  0  0  0  2  0  0  0  0  0  0
  191.3050  176.8960  138.9990 C   0  0  0  0  0  1  0  0  0  0  0  0
  187.4690  177.1450  146.9960 C   0  0  0  0  0  2  0  0  0  0  0  0
  187.5910  178.2210  148.0200 C   0  0  0  0  0  3  0  0  0  0  0  0
  188.6570  178.2630  148.8130 C   0  0  0  0  0  2  0  0  0  0  0  0
  1  2  1  6  0  0  0
  1 37  1  0  0  0  0
  2  3  1  0  0  0  0
  4  7  1  0  0  0  0
  5  9  2  0  0  0  0
  5  3  1  0  0  0  0
  6  5  1  0  0  0  0
  7  9  1  0  0  0  0
  8 11  1  6  0  0  0
  8  6  1  0  0  0  0
  8  4  1  0  0  0  0
 10 11  1  0  0  0  0
 12  1  1  0  0  0  0
 13 12  1  0  0  0  0
 14 13  1  0  0  0  0
 15 14  1  0  0  0  0
 16 15  1  0  0  0  0
 17 16  1  0  0  0  0
 19 18  1  0  0  0  0
 19 22  1  0  0  0  0
 22 21  1  0  0  0  0
 23 18  1  6  0  0  0
 23 20  1  0  0  0  0
 24 27  1  0  0  0  0
 24 25  1  0  0  0  0
 24 33  1  1  0  0  0
 25 21  1  6  0  0  0
 25 20  1  0  0  0  0
 26 23  1  0  0  0  0
 26 27  1  0  0  0  0
 27 17  1  1  0  0  0
 28 32  2  0  0  0  0
 28 33  1  0  0  0  0
 29 34  1  0  0  0  0
 29 31  2  0  0  0  0
 30 31  1  0  0  0  0
 32 29  1  0  0  0  0
 33 30  2  0  0  0  0
 34 35  1  6  0  0  0
 34 36  1  0  0  0  0
 38 37  1  1  0  0  0
 38 53  1  0  0  0  0
 39 41  1  0  0  0  0
 39 40  2  0  0  0  0
 40 38  1  0  0  0  0
 41 45  1  6  0  0  0
 41 42  1  0  0  0  0
 42 43  1  0  0  0  0
 44 42  2  0  0  0  0
 46 45  1  0  0  0  0
 47 49  1  6  0  0  0
 47 46  1  0  0  0  0
 48 47  1  0  0  0  0
 48 46  1  0  0  0  0
 50 49  1  0  0  0  0
 51 50  2  0  0  0  0
 52 50  1  0  0  0  0
 53 54  1  0  0  0  0
 54 55  2  0  0  0  0
M  END
>  <MODEL>
3

>  <REMARK>
 VINA RESULT:      -6.4      3.279      7.943
  Name = 
  24 active torsions:
  status: ('A' for Active; 'I' for Inactive)
    1  A    between atoms: C_1  and  C_53
    2  A    between atoms: N_3  and  C_38
    3  A    between atoms: C_4  and  O_35
    4  A    between atoms: C_4  and  C_37
    5  A    between atoms: C_5  and  C_37
    6  A    between atoms: C_5  and  O_40
    7  A    between atoms: C_6  and  C_53
    8  A    between atoms: C_7  and  C_20
    9  A    between atoms: C_8  and  C_22
   10  A    between atoms: C_8  and  C_43
   11  A    between atoms: C_10  and  C_32
   12  A    between atoms: C_11  and  O_50
   13  A    between atoms: C_12  and  O_50
   14  A    between atoms: C_19  and  O_40
   15  A    between atoms: C_19  and  C_49
   16  A    between atoms: C_20  and  C_22
   17  A    between atoms: C_22  and  C_46
   18  A    between atoms: C_27  and  C_54
   19  A    between atoms: O_28  and  C_44
   20  A    between atoms: C_33  and  C_52
   21  A    between atoms: O_35  and  C_43
   22  A    between atoms: C_38  and  C_53
   23  A    between atoms: C_43  and  C_51
   24  A    between atoms: C_51  and  C_54
                            x       y       z     vdW  Elec       q    Type
                         _______ _______ _______ _____ _____    ______ ____

>  <TORSDO>
F 24

$$$$
=
 OpenBabel11052414503D

 55 59  0  0  1  0  0  0  0  0999 V2000
  187.5040  178.6050  141.6370 C   0  0  1  0  0  3  0  0  0  0  0  0
  188.7390  177.8070  142.0490 C   0  0  0  0  0  2  0  0  0  0  0  0
  189.6320  178.6290  142.9600 C   0  0  0  0  0  2  0  0  0  0  0  0
  190.6520  177.0250  146.8420 C   0  0  0  0  0  2  0  0  0  0  0  0
  189.9170  177.8730  144.2140 C   0  0  0  0  0  0  0  0  0  0  0  0
  188.8750  177.8850  145.3070 C   0  0  0  0  0  2  0  0  0  0  0  0
  191.5110  176.6030  145.6560 C   0  0  0  0  0  2  0  0  0  0  0  0
  189.1830  176.9150  146.4490 C   0  0  2  0  0  3  0  0  0  0  0  0
  191.1440  177.3660  144.4100 C   0  0  0  0  0  3  0  0  0  0  0  0
  187.2080  177.5240  147.0280 O   0  0  0  0  0  1  0  0  0  0  0  0
  188.3780  177.2150  147.5470 O   0  0  0  0  0  0  0  0  0  0  0  0
  187.3680  178.6040  140.2440 O   0  0  0  0  0  0  0  0  0  0  0  0
  188.5390  178.0230  139.7490 C   0  0  0  0  0  2  0  0  0  0  0  0
  188.8930  178.6070  138.3850 C   0  0  0  0  0  2  0  0  0  0  0  0
  187.7580  178.4320  137.3920 C   0  0  0  0  0  2  0  0  0  0  0  0
  188.2470  177.8510  136.2210 O   0  0  0  0  0  0  0  0  0  0  0  0
  187.2840  176.9130  135.8560 C   0  0  0  0  0  2  0  0  0  0  0  0
  184.2250  173.8790  137.5420 C   0  0  0  0  0  2  0  0  0  0  0  0
  183.8370  172.5530  136.8790 C   0  0  0  0  0  2  0  0  0  0  0  0
  185.4330  174.4580  135.4550 O   0  0  0  0  0  0  0  0  0  0  0  0
  186.3600  172.3830  136.4200 C   0  0  0  0  0  2  0  0  0  0  0  0
  184.9580  171.8850  136.0630 C   0  0  0  0  0  2  0  0  0  0  0  0
  184.6610  174.9580  136.5390 C   0  0  2  0  0  3  0  0  0  0  0  0
  187.3930  174.6280  136.9660 C   0  0  2  0  0  3  0  0  0  0  0  0
  186.6180  173.8110  135.9140 C   0  0  2  0  0  3  0  0  0  0  0  0
  185.3770  176.1070  137.2650 C   0  0  0  0  0  2  0  0  0  0  0  0
  186.8990  176.0780  137.0720 C   0  0  2  0  0  3  0  0  0  0  0  0
  189.4120  173.6990  135.8190 C   0  0  0  0  0  3  0  0  0  0  0  0
  191.6640  174.1890  136.5810 C   0  0  0  0  0  0  0  0  0  0  0  0
  189.7510  175.1380  137.7360 C   0  0  0  0  0  3  0  0  0  0  0  0
  191.1350  174.9840  137.6090 C   0  0  0  0  0  3  0  0  0  0  0  0
  190.7970  173.5470  135.6890 C   0  0  0  0  0  3  0  0  0  0  0  0
  188.8830  174.4970  136.8380 C   0  0  0  0  0  0  0  0  0  0  0  0
  193.1390  173.9960  136.4310 C   0  0  1  0  0  3  0  0  0  0  0  0
  193.8890  174.5770  137.6140 C   0  0  0  0  0  1  0  0  0  0  0  0
  193.4540  172.5840  136.2920 N   0  0  0  0  0  1  0  0  0  0  0  0
  186.2200  178.0660  142.2900 C   0  0  0  0  0  2  0  0  0  0  0  0
  184.8790  178.6030  141.7450 C   0  0  1  0  0  3  0  0  0  0  0  0
  183.3260  178.1860  139.8190 C   0  0  0  0  0  3  0  0  0  0  0  0
  184.3780  177.8220  140.5630 C   0  0  0  0  0  3  0  0  0  0  0  0
  182.5460  179.4430  140.0560 C   0  0  2  0  0  3  0  0  0  0  0  0
  181.1750  179.1170  140.5630 C   0  0  0  0  0  0  0  0  0  0  0  0
  180.4520  178.0940  139.9650 O   0  0  0  0  0  0  0  0  0  0  0  0
  180.6740  179.7520  141.5320 O   0  0  0  0  0  1  0  0  0  0  0  0
  182.4830  180.2570  138.7670 C   0  0  0  0  0  2  0  0  0  0  0  0
  181.2190  180.9660  138.6720 N   0  0  0  0  0  0  0  0  0  0  0  0
  181.4200  182.0840  137.7850 C   0  0  1  0  0  3  0  0  0  0  0  0
  180.8550  180.9340  137.3380 O   0  0  0  0  0  0  0  0  0  0  0  0
  180.4010  183.0540  137.9870 O   0  0  0  0  0  0  0  0  0  0  0  0
  180.4440  184.3300  137.4180 C   0  0  0  0  0  0  0  0  0  0  0  0
  181.1180  184.5130  136.2950 C   0  0  0  0  0  2  0  0  0  0  0  0
  179.7400  185.4910  138.0360 C   0  0  0  0  0  1  0  0  0  0  0  0
  183.8180  178.6750  142.8380 C   0  0  0  0  0  2  0  0  0  0  0  0
  184.3130  179.4680  143.9990 C   0  0  0  0  0  3  0  0  0  0  0  0
  184.3440  178.9220  145.2100 C   0  0  0  0  0  2  0  0  0  0  0  0
  1  2  1  6  0  0  0
  1 37  1  0  0  0  0
  2  3  1  0  0  0  0
  3  5  1  0  0  0  0
  5  9  2  0  0  0  0
  5  6  1  0  0  0  0
  6  8  1  0  0  0  0
  7  4  1  0  0  0  0
  8  4  1  0  0  0  0
  8 11  1  1  0  0  0
  9  7  1  0  0  0  0
 10 11  1  0  0  0  0
 12  1  1  0  0  0  0
 13 12  1  0  0  0  0
 14 13  1  0  0  0  0
 15 14  1  0  0  0  0
 16 15  1  0  0  0  0
 17 16  1  0  0  0  0
 19 18  1  0  0  0  0
 20 25  1  0  0  0  0
 20 23  1  0  0  0  0
 22 21  1  0  0  0  0
 22 19  1  0  0  0  0
 23 26  1  1  0  0  0
 23 18  1  0  0  0  0
 24 33  1  6  0  0  0
 24 27  1  0  0  0  0
 25 21  1  1  0  0  0
 25 24  1  0  0  0  0
 27 17  1  6  0  0  0
 27 26  1  0  0  0  0
 28 33  1  0  0  0  0
 29 31  2  0  0  0  0
 31 30  1  0  0  0  0
 32 28  2  0  0  0  0
 32 29  1  0  0  0  0
 33 30  2  0  0  0  0
 34 29  1  0  0  0  0
 34 35  1  1  0  0  0
 36 34  1  0  0  0  0
 38 40  1  6  0  0  0
 38 37  1  0  0  0  0
 38 53  1  0  0  0  0
 39 41  1  0  0  0  0
 39 40  2  0  0  0  0
 41 45  1  6  0  0  0
 41 42  1  0  0  0  0
 42 44  1  0  0  0  0
 43 42  2  0  0  0  0
 46 45  1  0  0  0  0
 47 49  1  1  0  0  0
 47 46  1  0  0  0  0
 48 47  1  0  0  0  0
 48 46  1  0  0  0  0
 50 49  1  0  0  0  0
 50 52  1  0  0  0  0
 51 50  2  0  0  0  0
 53 54  1  0  0  0  0
 54 55  2  0  0  0  0
M  END
>  <MODEL>
4

>  <REMARK>
 VINA RESULT:      -6.4      3.032      8.359
  Name = 
  24 active torsions:
  status: ('A' for Active; 'I' for Inactive)
    1  A    between atoms: C_1  and  C_53
    2  A    between atoms: N_3  and  C_38
    3  A    between atoms: C_4  and  O_35
    4  A    between atoms: C_4  and  C_37
    5  A    between atoms: C_5  and  C_37
    6  A    between atoms: C_5  and  O_40
    7  A    between atoms: C_6  and  C_53
    8  A    between atoms: C_7  and  C_20
    9  A    between atoms: C_8  and  C_22
   10  A    between atoms: C_8  and  C_43
   11  A    between atoms: C_10  and  C_32
   12  A    between atoms: C_11  and  O_50
   13  A    between atoms: C_12  and  O_50
   14  A    between atoms: C_19  and  O_40
   15  A    between atoms: C_19  and  C_49
   16  A    between atoms: C_20  and  C_22
   17  A    between atoms: C_22  and  C_46
   18  A    between atoms: C_27  and  C_54
   19  A    between atoms: O_28  and  C_44
   20  A    between atoms: C_33  and  C_52
   21  A    between atoms: O_35  and  C_43
   22  A    between atoms: C_38  and  C_53
   23  A    between atoms: C_43  and  C_51
   24  A    between atoms: C_51  and  C_54
                            x       y       z     vdW  Elec       q    Type
                         _______ _______ _______ _____ _____    ______ ____

>  <TORSDO>
F 24

$$$$
=
 OpenBabel11052414503D

 55 59  0  0  1  0  0  0  0  0999 V2000
  186.7200  177.7360  143.2670 C   0  0  1  0  0  3  0  0  0  0  0  0
  185.6790  178.6960  142.6940 C   0  0  0  0  0  2  0  0  0  0  0  0
  184.3420  177.9980  142.5190 C   0  0  0  0  0  2  0  0  0  0  0  0
  182.1480  179.1730  138.9850 C   0  0  0  0  0  2  0  0  0  0  0  0
  183.5880  178.6150  141.3900 C   0  0  0  0  0  0  0  0  0  0  0  0
  182.0810  178.5100  141.3950 C   0  0  0  0  0  2  0  0  0  0  0  0
  183.5700  179.6980  139.1390 C   0  0  0  0  0  2  0  0  0  0  0  0
  181.4110  179.3510  140.3070 C   0  0  2  0  0  3  0  0  0  0  0  0
  184.2620  179.0750  140.3240 C   0  0  0  0  0  3  0  0  0  0  0  0
  179.8510  178.1760  141.1990 O   0  0  0  0  0  1  0  0  0  0  0  0
  180.0820  178.9560  140.1640 O   0  0  0  0  0  0  0  0  0  0  0  0
  187.6370  177.3680  142.2770 O   0  0  0  0  0  0  0  0  0  0  0  0
  187.9520  178.5470  141.5950 C   0  0  0  0  0  2  0  0  0  0  0  0
  188.4320  178.2380  140.1800 C   0  0  0  0  0  2  0  0  0  0  0  0
  187.2810  178.2400  139.1890 C   0  0  0  0  0  2  0  0  0  0  0  0
  187.7620  177.9390  137.9130 O   0  0  0  0  0  0  0  0  0  0  0  0
  186.8840  176.9790  137.4160 C   0  0  0  0  0  2  0  0  0  0  0  0
  190.4720  175.7810  134.7520 C   0  0  0  0  0  2  0  0  0  0  0  0
  191.4580  174.6470  135.0530 C   0  0  0  0  0  2  0  0  0  0  0  0
  189.5700  175.4760  137.0420 O   0  0  0  0  0  0  0  0  0  0  0  0
  189.3330  173.3820  135.7550 C   0  0  0  0  0  2  0  0  0  0  0  0
  190.8590  173.4570  135.8250 C   0  0  0  0  0  2  0  0  0  0  0  0
  189.8640  176.4130  136.0130 C   0  0  2  0  0  3  0  0  0  0  0  0
  187.4380  175.0570  135.8470 C   0  0  2  0  0  3  0  0  0  0  0  0
  188.6560  174.4790  136.5920 C   0  0  2  0  0  3  0  0  0  0  0  0
  188.6380  177.2620  135.6490 C   0  0  0  0  0  2  0  0  0  0  0  0
  187.3110  176.5790  136.0080 C   0  0  2  0  0  3  0  0  0  0  0  0
  186.0730  173.5130  137.2640 C   0  0  0  0  0  3  0  0  0  0  0  0
  183.8220  172.8480  136.6430 C   0  0  0  0  0  0  0  0  0  0  0  0
  185.0830  174.3630  135.2240 C   0  0  0  0  0  3  0  0  0  0  0  0
  183.9170  173.6370  135.4870 C   0  0  0  0  0  3  0  0  0  0  0  0
  184.9050  172.7890  137.5280 C   0  0  0  0  0  3  0  0  0  0  0  0
  186.1660  174.3060  136.1160 C   0  0  0  0  0  0  0  0  0  0  0  0
  182.5930  172.0520  136.9400 C   0  0  1  0  0  3  0  0  0  0  0  0
  181.3420  172.8030  136.5250 C   0  0  0  0  0  1  0  0  0  0  0  0
  182.6450  170.7670  136.2620 N   0  0  0  0  0  1  0  0  0  0  0  0
  187.4620  178.3380  144.4730 C   0  0  0  0  0  2  0  0  0  0  0  0
  188.5790  177.4810  145.1050 C   0  0  1  0  0  3  0  0  0  0  0  0
  190.8650  178.1220  144.2920 C   0  0  0  0  0  3  0  0  0  0  0  0
  189.8880  178.2130  145.2030 C   0  0  0  0  0  3  0  0  0  0  0  0
  190.7500  177.3050  143.0420 C   0  0  2  0  0  3  0  0  0  0  0  0
  190.9690  175.8540  143.3450 C   0  0  0  0  0  0  0  0  0  0  0  0
  192.0520  175.4770  144.1280 O   0  0  0  0  0  1  0  0  0  0  0  0
  190.1780  174.9740  142.9060 O   0  0  0  0  0  0  0  0  0  0  0  0
  191.7490  177.8140  142.0060 C   0  0  0  0  0  2  0  0  0  0  0  0
  192.0760  176.7650  141.0550 N   0  0  0  0  0  0  0  0  0  0  0  0
  192.2190  177.3880  139.7630 C   0  0  1  0  0  3  0  0  0  0  0  0
  193.3070  177.0980  140.5190 O   0  0  0  0  0  0  0  0  0  0  0  0
  192.0930  176.4120  138.7370 O   0  0  0  0  0  0  0  0  0  0  0  0
  193.1620  176.0230  137.9250 C   0  0  0  0  0  0  0  0  0  0  0  0
  193.5740  176.8360  136.9660 C   0  0  0  0  0  2  0  0  0  0  0  0
  193.8610  174.7190  138.1160 C   0  0  0  0  0  1  0  0  0  0  0  0
  188.1620  176.9290  146.4640 C   0  0  0  0  0  2  0  0  0  0  0  0
  187.9400  178.0380  147.4350 C   0  0  0  0  0  3  0  0  0  0  0  0
  188.3180  177.8960  148.7010 C   0  0  0  0  0  2  0  0  0  0  0  0
  1  2  1  6  0  0  0
  1 37  1  0  0  0  0
  3  2  1  0  0  0  0
  4  7  1  0  0  0  0
  4  8  1  0  0  0  0
  5  6  1  0  0  0  0
  5  3  1  0  0  0  0
  7  9  1  0  0  0  0
  8 11  1  6  0  0  0
  8  6  1  0  0  0  0
  9  5  2  0  0  0  0
 11 10  1  0  0  0  0
 12  1  1  0  0  0  0
 13 12  1  0  0  0  0
 14 13  1  0  0  0  0
 15 14  1  0  0  0  0
 16 15  1  0  0  0  0
 17 16  1  0  0  0  0
 18 19  1  0  0  0  0
 19 22  1  0  0  0  0
 21 22  1  0  0  0  0
 23 18  1  6  0  0  0
 23 20  1  0  0  0  0
 24 27  1  0  0  0  0
 24 33  1  1  0  0  0
 24 25  1  0  0  0  0
 25 21  1  6  0  0  0
 25 20  1  0  0  0  0
 26 27  1  0  0  0  0
 26 23  1  0  0  0  0
 27 17  1  1  0  0  0
 28 32  1  0  0  0  0
 29 34  1  0  0  0  0
 29 32  2  0  0  0  0
 30 31  2  0  0  0  0
 30 33  1  0  0  0  0
 31 29  1  0  0  0  0
 33 28  2  0  0  0  0
 34 35  1  6  0  0  0
 36 34  1  0  0  0  0
 38 37  1  1  0  0  0
 38 40  1  0  0  0  0
 38 53  1  0  0  0  0
 39 40  2  0  0  0  0
 41 45  1  6  0  0  0
 41 42  1  0  0  0  0
 41 39  1  0  0  0  0
 42 43  1  0  0  0  0
 44 42  2  0  0  0  0
 46 45  1  0  0  0  0
 47 49  1  6  0  0  0
 47 48  1  0  0  0  0
 47 46  1  0  0  0  0
 48 46  1  0  0  0  0
 50 52  1  0  0  0  0
 50 49  1  0  0  0  0
 51 50  2  0  0  0  0
 53 54  1  0  0  0  0
 54 55  2  0  0  0  0
M  END
>  <MODEL>
5

>  <REMARK>
 VINA RESULT:      -6.3      3.381      8.851
  Name = 
  24 active torsions:
  status: ('A' for Active; 'I' for Inactive)
    1  A    between atoms: C_1  and  C_53
    2  A    between atoms: N_3  and  C_38
    3  A    between atoms: C_4  and  O_35
    4  A    between atoms: C_4  and  C_37
    5  A    between atoms: C_5  and  C_37
    6  A    between atoms: C_5  and  O_40
    7  A    between atoms: C_6  and  C_53
    8  A    between atoms: C_7  and  C_20
    9  A    between atoms: C_8  and  C_22
   10  A    between atoms: C_8  and  C_43
   11  A    between atoms: C_10  and  C_32
   12  A    between atoms: C_11  and  O_50
   13  A    between atoms: C_12  and  O_50
   14  A    between atoms: C_19  and  O_40
   15  A    between atoms: C_19  and  C_49
   16  A    between atoms: C_20  and  C_22
   17  A    between atoms: C_22  and  C_46
   18  A    between atoms: C_27  and  C_54
   19  A    between atoms: O_28  and  C_44
   20  A    between atoms: C_33  and  C_52
   21  A    between atoms: O_35  and  C_43
   22  A    between atoms: C_38  and  C_53
   23  A    between atoms: C_43  and  C_51
   24  A    between atoms: C_51  and  C_54
                            x       y       z     vdW  Elec       q    Type
                         _______ _______ _______ _____ _____    ______ ____

>  <TORSDO>
F 24

$$$$
=
 OpenBabel11052414503D

 55 59  0  0  1  0  0  0  0  0999 V2000
  188.9420  178.3740  140.7310 C   0  0  1  0  0  3  0  0  0  0  0  0
  189.8670  178.1680  139.5340 C   0  0  0  0  0  2  0  0  0  0  0  0
  190.9470  177.1520  139.8570 C   0  0  0  0  0  2  0  0  0  0  0  0
  192.5020  174.9890  136.4520 C   0  0  0  0  0  2  0  0  0  0  0  0
  191.5350  176.6130  138.5970 C   0  0  0  0  0  0  0  0  0  0  0  0
  190.5980  176.2520  137.4680 C   0  0  0  0  0  2  0  0  0  0  0  0
  193.5010  175.7310  137.3330 C   0  0  0  0  0  2  0  0  0  0  0  0
  191.3220  175.9100  136.1650 C   0  0  2  0  0  3  0  0  0  0  0  0
  192.8380  176.2920  138.5650 C   0  0  0  0  0  3  0  0  0  0  0  0
  189.3550  176.0320  135.3130 O   0  0  0  0  0  1  0  0  0  0  0  0
  190.4360  175.2820  135.2900 O   0  0  0  0  0  0  0  0  0  0  0  0
  187.6120  178.4690  140.3060 O   0  0  0  0  0  0  0  0  0  0  0  0
  187.6310  178.1920  138.9360 C   0  0  0  0  0  2  0  0  0  0  0  0
  186.2140  177.9850  138.4100 C   0  0  0  0  0  2  0  0  0  0  0  0
  186.2160  177.2680  137.0710 C   0  0  0  0  0  2  0  0  0  0  0  0
  184.9770  177.4350  136.4500 O   0  0  0  0  0  0  0  0  0  0  0  0
  184.1720  176.4290  136.9800 C   0  0  0  0  0  2  0  0  0  0  0  0
  181.4950  172.8310  135.8420 C   0  0  0  0  0  2  0  0  0  0  0  0
  180.2490  172.3780  136.6100 C   0  0  0  0  0  2  0  0  0  0  0  0
  181.9820  174.3660  137.7280 O   0  0  0  0  0  0  0  0  0  0  0  0
  179.7780  174.9010  136.7510 C   0  0  0  0  0  2  0  0  0  0  0  0
  179.4710  173.5080  137.3070 C   0  0  0  0  0  2  0  0  0  0  0  0
  182.5410  173.5230  136.7290 C   0  0  2  0  0  3  0  0  0  0  0  0
  181.8580  176.1140  135.9740 C   0  0  2  0  0  3  0  0  0  0  0  0
  181.1780  175.3920  137.1520 C   0  0  2  0  0  3  0  0  0  0  0  0
  183.5680  174.2690  135.8640 C   0  0  0  0  0  2  0  0  0  0  0  0
  183.3550  175.7890  135.8630 C   0  0  2  0  0  3  0  0  0  0  0  0
  181.2010  178.2510  137.0950 C   0  0  0  0  0  3  0  0  0  0  0  0
  180.9140  180.3190  135.8560 C   0  0  0  0  0  0  0  0  0  0  0  0
  181.5670  178.2850  134.7020 C   0  0  0  0  0  3  0  0  0  0  0  0
  181.2520  179.6470  134.6720 C   0  0  0  0  0  3  0  0  0  0  0  0
  180.8880  179.6150  137.0660 C   0  0  0  0  0  3  0  0  0  0  0  0
  181.5460  177.5820  135.9170 C   0  0  0  0  0  0  0  0  0  0  0  0
  180.5590  181.7710  135.8500 C   0  0  1  0  0  3  0  0  0  0  0  0
  179.6270  182.1010  134.6990 C   0  0  0  0  0  1  0  0  0  0  0  0
  179.9380  182.1470  137.1100 N   0  0  0  0  0  1  0  0  0  0  0  0
  189.0800  177.2500  141.7730 C   0  0  0  0  0  2  0  0  0  0  0  0
  188.8020  177.6220  143.2440 C   0  0  1  0  0  3  0  0  0  0  0  0
  186.9510  176.8380  144.7460 C   0  0  0  0  0  3  0  0  0  0  0  0
  188.0080  176.5720  143.9690 C   0  0  0  0  0  3  0  0  0  0  0  0
  186.4080  178.2190  144.9520 C   0  0  2  0  0  3  0  0  0  0  0  0
  186.4020  178.5650  146.4100 C   0  0  0  0  0  0  0  0  0  0  0  0
  185.6380  179.6360  146.8530 O   0  0  0  0  0  0  0  0  0  0  0  0
  187.0720  177.8900  147.2390 O   0  0  0  0  0  1  0  0  0  0  0  0
  185.0080  178.3130  144.3520 C   0  0  0  0  0  2  0  0  0  0  0  0
  185.0620  178.1780  142.9070 N   0  0  0  0  0  0  0  0  0  0  0  0
  184.0560  179.0530  142.3580 C   0  0  1  0  0  3  0  0  0  0  0  0
  185.3570  179.4350  142.4110 O   0  0  0  0  0  0  0  0  0  0  0  0
  183.7430  178.6570  141.0280 O   0  0  0  0  0  0  0  0  0  0  0  0
  182.5200  178.0790  140.6760 C   0  0  0  0  0  0  0  0  0  0  0  0
  182.5030  176.8430  140.2060 C   0  0  0  0  0  2  0  0  0  0  0  0
  181.2310  178.8140  140.8250 C   0  0  0  0  0  1  0  0  0  0  0  0
  190.0900  177.9440  143.9950 C   0  0  0  0  0  2  0  0  0  0  0  0
  190.5000  176.7950  144.8500 C   0  0  0  0  0  3  0  0  0  0  0  0
  190.5560  176.9380  146.1700 C   0  0  0  0  0  2  0  0  0  0  0  0
  1  2  1  6  0  0  0
  1 37  1  0  0  0  0
  2  3  1  0  0  0  0
  4  7  1  0  0  0  0
  5  3  1  0  0  0  0
  6  5  1  0  0  0  0
  7  9  1  0  0  0  0
  8 11  1  6  0  0  0
  8  4  1  0  0  0  0
  8  6  1  0  0  0  0
  9  5  2  0  0  0  0
 11 10  1  0  0  0  0
 12  1  1  0  0  0  0
 13 12  1  0  0  0  0
 14 13  1  0  0  0  0
 15 14  1  0  0  0  0
 16 17  1  0  0  0  0
 16 15  1  0  0  0  0
 18 19  1  0  0  0  0
 19 22  1  0  0  0  0
 21 22  1  0  0  0  0
 23 18  1  6  0  0  0
 23 20  1  0  0  0  0
 24 33  1  1  0  0  0
 24 25  1  0  0  0  0
 25 21  1  6  0  0  0
 25 20  1  0  0  0  0
 26 23  1  0  0  0  0
 27 26  1  0  0  0  0
 27 24  1  0  0  0  0
 27 17  1  1  0  0  0
 29 32  2  0  0  0  0
 30 33  1  0  0  0  0
 31 30  2  0  0  0  0
 31 29  1  0  0  0  0
 32 28  1  0  0  0  0
 33 28  2  0  0  0  0
 34 35  1  6  0  0  0
 34 29  1  0  0  0  0
 34 36  1  0  0  0  0
 38 37  1  6  0  0  0
 38 40  1  0  0  0  0
 38 53  1  0  0  0  0
 39 41  1  0  0  0  0
 40 39  2  0  0  0  0
 41 45  1  1  0  0  0
 41 42  1  0  0  0  0
 42 43  2  0  0  0  0
 42 44  1  0  0  0  0
 46 45  1  0  0  0  0
 47 49  1  6  0  0  0
 47 48  1  0  0  0  0
 47 46  1  0  0  0  0
 48 46  1  0  0  0  0
 50 52  1  0  0  0  0
 50 49  1  0  0  0  0
 51 50  2  0  0  0  0
 53 54  1  0  0  0  0
 54 55  2  0  0  0  0
M  END
>  <MODEL>
6

>  <REMARK>
 VINA RESULT:      -6.0      1.753      2.432
  Name = 
  24 active torsions:
  status: ('A' for Active; 'I' for Inactive)
    1  A    between atoms: C_1  and  C_53
    2  A    between atoms: N_3  and  C_38
    3  A    between atoms: C_4  and  O_35
    4  A    between atoms: C_4  and  C_37
    5  A    between atoms: C_5  and  C_37
    6  A    between atoms: C_5  and  O_40
    7  A    between atoms: C_6  and  C_53
    8  A    between atoms: C_7  and  C_20
    9  A    between atoms: C_8  and  C_22
   10  A    between atoms: C_8  and  C_43
   11  A    between atoms: C_10  and  C_32
   12  A    between atoms: C_11  and  O_50
   13  A    between atoms: C_12  and  O_50
   14  A    between atoms: C_19  and  O_40
   15  A    between atoms: C_19  and  C_49
   16  A    between atoms: C_20  and  C_22
   17  A    between atoms: C_22  and  C_46
   18  A    between atoms: C_27  and  C_54
   19  A    between atoms: O_28  and  C_44
   20  A    between atoms: C_33  and  C_52
   21  A    between atoms: O_35  and  C_43
   22  A    between atoms: C_38  and  C_53
   23  A    between atoms: C_43  and  C_51
   24  A    between atoms: C_51  and  C_54
                            x       y       z     vdW  Elec       q    Type
                         _______ _______ _______ _____ _____    ______ ____

>  <TORSDO>
F 24

$$$$
=
 OpenBabel11052414503D

 55 59  0  0  1  0  0  0  0  0999 V2000
  187.0860  177.2510  144.2610 C   0  0  1  0  0  3  0  0  0  0  0  0
  185.6830  177.5130  144.8040 C   0  0  0  0  0  2  0  0  0  0  0  0
  185.2510  178.9380  144.5150 C   0  0  0  0  0  2  0  0  0  0  0  0
  181.7150  178.2880  142.1140 C   0  0  0  0  0  2  0  0  0  0  0  0
  184.0450  178.9380  143.6370 C   0  0  0  0  0  0  0  0  0  0  0  0
  182.6870  179.0500  144.2880 C   0  0  0  0  0  2  0  0  0  0  0  0
  183.0110  178.6230  141.3850 C   0  0  0  0  0  2  0  0  0  0  0  0
  181.5490  179.2470  143.2860 C   0  0  2  0  0  3  0  0  0  0  0  0
  184.1840  178.6550  142.3320 C   0  0  0  0  0  3  0  0  0  0  0  0
  180.0340  177.7640  143.6250 O   0  0  0  0  0  1  0  0  0  0  0  0
  180.3270  179.0140  143.9160 O   0  0  0  0  0  0  0  0  0  0  0  0
  187.1050  177.4050  142.8700 O   0  0  0  0  0  0  0  0  0  0  0  0
  188.1360  178.3100  142.6030 C   0  0  0  0  0  2  0  0  0  0  0  0
  187.9510  178.9440  141.2280 C   0  0  0  0  0  2  0  0  0  0  0  0
  187.3130  177.9750  140.2480 C   0  0  0  0  0  2  0  0  0  0  0  0
  186.9910  178.6480  139.0690 O   0  0  0  0  0  0  0  0  0  0  0  0
  185.7040  178.2200  138.7510 C   0  0  0  0  0  2  0  0  0  0  0  0
  187.6080  176.3990  134.9480 C   0  0  0  0  0  2  0  0  0  0  0  0
  187.9660  174.9220  134.7580 C   0  0  0  0  0  2  0  0  0  0  0  0
  187.1860  175.8920  137.3380 O   0  0  0  0  0  0  0  0  0  0  0  0
  185.7030  174.5290  135.9110 C   0  0  0  0  0  2  0  0  0  0  0  0
  187.0520  173.9330  135.5040 C   0  0  0  0  0  2  0  0  0  0  0  0
  187.6650  176.8590  136.4120 C   0  0  2  0  0  3  0  0  0  0  0  0
  184.9150  176.7500  136.8330 C   0  0  2  0  0  3  0  0  0  0  0  0
  185.8340  175.5350  137.0650 C   0  0  2  0  0  3  0  0  0  0  0  0
  186.9520  178.2090  136.5790 C   0  0  0  0  0  2  0  0  0  0  0  0
  185.5720  178.0770  137.2390 C   0  0  2  0  0  3  0  0  0  0  0  0
  182.5970  177.5930  137.2490 C   0  0  0  0  0  3  0  0  0  0  0  0
  180.9380  176.2700  138.4280 C   0  0  0  0  0  0  0  0  0  0  0  0
  183.1660  175.3800  138.0480 C   0  0  0  0  0  3  0  0  0  0  0  0
  181.8760  175.2350  138.5690 C   0  0  0  0  0  3  0  0  0  0  0  0
  181.3050  177.4480  137.7680 C   0  0  0  0  0  3  0  0  0  0  0  0
  183.5300  176.5600  137.3820 C   0  0  0  0  0  0  0  0  0  0  0  0
  179.5580  176.1470  138.9870 C   0  0  1  0  0  3  0  0  0  0  0  0
  178.9320  174.8180  138.6100 C   0  0  0  0  0  1  0  0  0  0  0  0
  179.5830  176.2870  140.4340 N   0  0  0  0  0  1  0  0  0  0  0  0
  188.1390  178.1690  144.9050 C   0  0  0  0  0  2  0  0  0  0  0  0
  189.4130  177.4940  145.4560 C   0  0  1  0  0  3  0  0  0  0  0  0
  191.3650  178.3250  144.1160 C   0  0  0  0  0  3  0  0  0  0  0  0
  190.6480  178.3250  145.2460 C   0  0  0  0  0  3  0  0  0  0  0  0
  190.9970  177.5200  142.9080 C   0  0  2  0  0  3  0  0  0  0  0  0
  191.0800  176.0560  143.2100 C   0  0  0  0  0  0  0  0  0  0  0  0
  190.0480  175.2170  142.8100 O   0  0  0  0  0  0  0  0  0  0  0  0
  192.0780  175.5740  143.8140 O   0  0  0  0  0  1  0  0  0  0  0  0
  191.9080  177.9000  141.7430 C   0  0  0  0  0  2  0  0  0  0  0  0
  192.2300  176.7300  140.9450 N   0  0  0  0  0  0  0  0  0  0  0  0
  192.4940  177.1870  139.6030 C   0  0  1  0  0  3  0  0  0  0  0  0
  193.5110  176.9290  140.4630 O   0  0  0  0  0  0  0  0  0  0  0  0
  192.3740  176.1040  138.6900 O   0  0  0  0  0  0  0  0  0  0  0  0
  192.3850  176.2760  137.3030 C   0  0  0  0  0  0  0  0  0  0  0  0
  191.2350  176.3520  136.6530 C   0  0  0  0  0  2  0  0  0  0  0  0
  193.6580  176.3890  136.5340 C   0  0  0  0  0  1  0  0  0  0  0  0
  189.2560  177.1140  146.9240 C   0  0  0  0  0  2  0  0  0  0  0  0
  188.4610  178.1430  147.6510 C   0  0  0  0  0  3  0  0  0  0  0  0
  187.9230  177.8550  148.8310 C   0  0  0  0  0  2  0  0  0  0  0  0
  1  2  1  1  0  0  0
  1 37  1  0  0  0  0
  3  2  1  0  0  0  0
  4  8  1  0  0  0  0
  5  6  1  0  0  0  0
  5  3  1  0  0  0  0
  7  4  1  0  0  0  0
  7  9  1  0  0  0  0
  8 11  1  1  0  0  0
  8  6  1  0  0  0  0
  9  5  2  0  0  0  0
 10 11  1  0  0  0  0
 12  1  1  0  0  0  0
 13 12  1  0  0  0  0
 14 13  1  0  0  0  0
 15 14  1  0  0  0  0
 16 15  1  0  0  0  0
 17 16  1  0  0  0  0
 19 18  1  0  0  0  0
 19 22  1  0  0  0  0
 22 21  1  0  0  0  0
 23 18  1  6  0  0  0
 23 26  1  0  0  0  0
 23 20  1  0  0  0  0
 24 25  1  0  0  0  0
 24 27  1  0  0  0  0
 24 33  1  1  0  0  0
 25 21  1  6  0  0  0
 25 20  1  0  0  0  0
 26 27  1  0  0  0  0
 27 17  1  1  0  0  0
 28 33  2  0  0  0  0
 28 32  1  0  0  0  0
 29 31  1  0  0  0  0
 29 34  1  0  0  0  0
 30 31  2  0  0  0  0
 32 29  2  0  0  0  0
 33 30  1  0  0  0  0
 34 35  1  1  0  0  0
 34 36  1  0  0  0  0
 38 37  1  1  0  0  0
 38 53  1  0  0  0  0
 39 40  2  0  0  0  0
 40 38  1  0  0  0  0
 41 45  1  6  0  0  0
 41 42  1  0  0  0  0
 41 39  1  0  0  0  0
 42 44  1  0  0  0  0
 43 42  2  0  0  0  0
 46 45  1  0  0  0  0
 47 49  1  6  0  0  0
 47 48  1  0  0  0  0
 47 46  1  0  0  0  0
 48 46  1  0  0  0  0
 50 49  1  0  0  0  0
 51 50  2  0  0  0  0
 52 50  1  0  0  0  0
 53 54  1  0  0  0  0
 54 55  2  0  0  0  0
M  END
>  <MODEL>
7

>  <REMARK>
 VINA RESULT:      -6.0      2.903      8.079
  Name = 
  24 active torsions:
  status: ('A' for Active; 'I' for Inactive)
    1  A    between atoms: C_1  and  C_53
    2  A    between atoms: N_3  and  C_38
    3  A    between atoms: C_4  and  O_35
    4  A    between atoms: C_4  and  C_37
    5  A    between atoms: C_5  and  C_37
    6  A    between atoms: C_5  and  O_40
    7  A    between atoms: C_6  and  C_53
    8  A    between atoms: C_7  and  C_20
    9  A    between atoms: C_8  and  C_22
   10  A    between atoms: C_8  and  C_43
   11  A    between atoms: C_10  and  C_32
   12  A    between atoms: C_11  and  O_50
   13  A    between atoms: C_12  and  O_50
   14  A    between atoms: C_19  and  O_40
   15  A    between atoms: C_19  and  C_49
   16  A    between atoms: C_20  and  C_22
   17  A    between atoms: C_22  and  C_46
   18  A    between atoms: C_27  and  C_54
   19  A    between atoms: O_28  and  C_44
   20  A    between atoms: C_33  and  C_52
   21  A    between atoms: O_35  and  C_43
   22  A    between atoms: C_38  and  C_53
   23  A    between atoms: C_43  and  C_51
   24  A    between atoms: C_51  and  C_54
                            x       y       z     vdW  Elec       q    Type
                         _______ _______ _______ _____ _____    ______ ____

>  <TORSDO>
F 24

$$$$
=
 OpenBabel11052414503D

 55 59  0  0  1  0  0  0  0  0999 V2000
  188.4390  178.4520  141.4920 C   0  0  1  0  0  3  0  0  0  0  0  0
  189.0320  178.1450  140.1180 C   0  0  0  0  0  2  0  0  0  0  0  0
  190.0760  177.0480  140.2150 C   0  0  0  0  0  2  0  0  0  0  0  0
  190.9590  176.1230  136.0860 C   0  0  0  0  0  2  0  0  0  0  0  0
  190.3780  176.5090  138.8580 C   0  0  0  0  0  0  0  0  0  0  0  0
  191.8190  176.4730  138.4080 C   0  0  0  0  0  2  0  0  0  0  0  0
  189.5920  175.7160  136.6230 C   0  0  0  0  0  2  0  0  0  0  0  0
  192.0250  175.7150  137.0950 C   0  0  2  0  0  3  0  0  0  0  0  0
  189.3660  176.2490  138.0150 C   0  0  0  0  0  3  0  0  0  0  0  0
  193.9130  176.6250  137.5630 O   0  0  0  0  0  1  0  0  0  0  0  0
  193.2910  176.0010  136.5850 O   0  0  0  0  0  0  0  0  0  0  0  0
  187.0490  178.5830  141.4020 O   0  0  0  0  0  0  0  0  0  0  0  0
  186.7590  178.6210  140.0340 C   0  0  0  0  0  2  0  0  0  0  0  0
  185.2530  178.6950  139.8060 C   0  0  0  0  0  2  0  0  0  0  0  0
  184.8780  178.2400  138.4060 C   0  0  0  0  0  2  0  0  0  0  0  0
  183.4920  178.3040  138.2500 O   0  0  0  0  0  0  0  0  0  0  0  0
  183.0700  176.9770  138.2510 C   0  0  0  0  0  2  0  0  0  0  0  0
  180.6230  174.0270  135.6590 C   0  0  0  0  0  2  0  0  0  0  0  0
  180.0600  172.6850  136.1380 C   0  0  0  0  0  2  0  0  0  0  0  0
  181.8910  174.1470  137.7870 O   0  0  0  0  0  0  0  0  0  0  0  0
  179.4690  174.0220  138.2530 C   0  0  0  0  0  2  0  0  0  0  0  0
  179.6720  172.6400  137.6270 C   0  0  0  0  0  2  0  0  0  0  0  0
  181.9000  174.4530  136.3980 C   0  0  2  0  0  3  0  0  0  0  0  0
  180.6350  176.2630  138.0940 C   0  0  2  0  0  3  0  0  0  0  0  0
  180.7960  174.7730  138.4500 C   0  0  2  0  0  3  0  0  0  0  0  0
  182.1960  175.9390  136.1450 C   0  0  0  0  0  2  0  0  0  0  0  0
  181.8500  176.8290  137.3470 C   0  0  2  0  0  3  0  0  0  0  0  0
  180.0620  178.4870  139.0840 C   0  0  0  0  0  3  0  0  0  0  0  0
  179.3790  178.7270  141.4010 C   0  0  0  0  0  0  0  0  0  0  0  0
  179.9070  176.5330  140.5050 C   0  0  0  0  0  3  0  0  0  0  0  0
  179.5080  177.3410  141.5750 C   0  0  0  0  0  3  0  0  0  0  0  0
  179.6590  179.2960  140.1530 C   0  0  0  0  0  3  0  0  0  0  0  0
  180.1830  177.1040  139.2530 C   0  0  0  0  0  0  0  0  0  0  0  0
  178.9680  179.6150  142.5310 C   0  0  1  0  0  3  0  0  0  0  0  0
  179.2260  178.9510  143.8700 C   0  0  0  0  0  1  0  0  0  0  0  0
  179.6780  180.8820  142.4650 N   0  0  0  0  0  1  0  0  0  0  0  0
  188.7970  177.3760  142.5320 C   0  0  0  0  0  2  0  0  0  0  0  0
  189.3240  177.8710  143.8960 C   0  0  1  0  0  3  0  0  0  0  0  0
  189.1620  176.7750  146.1480 C   0  0  0  0  0  3  0  0  0  0  0  0
  189.5580  176.7500  144.8690 C   0  0  0  0  0  3  0  0  0  0  0  0
  188.3990  177.9150  146.7500 C   0  0  2  0  0  3  0  0  0  0  0  0
  188.7310  178.0540  148.2040 C   0  0  0  0  0  0  0  0  0  0  0  0
  187.8550  177.5480  149.1550 O   0  0  0  0  0  1  0  0  0  0  0  0
  189.7990  178.6150  148.5740 O   0  0  0  0  0  0  0  0  0  0  0  0
  186.9030  177.6960  146.5390 C   0  0  0  0  0  2  0  0  0  0  0  0
  186.4390  178.4320  145.3760 N   0  0  0  0  0  0  0  0  0  0  0  0
  185.0690  178.0470  145.1450 C   0  0  1  0  0  3  0  0  0  0  0  0
  185.3670  179.1960  145.8020 O   0  0  0  0  0  0  0  0  0  0  0  0
  184.6960  178.3610  143.8090 O   0  0  0  0  0  0  0  0  0  0  0  0
  183.3820  178.6600  143.4380 C   0  0  0  0  0  0  0  0  0  0  0  0
  182.5060  178.9880  144.3750 C   0  0  0  0  0  2  0  0  0  0  0  0
  182.9390  178.6300  142.0140 C   0  0  0  0  0  1  0  0  0  0  0  0
  190.5780  178.7240  143.7380 C   0  0  0  0  0  2  0  0  0  0  0  0
  191.6460  177.9610  143.0340 C   0  0  0  0  0  3  0  0  0  0  0  0
  191.9930  176.7530  143.4660 C   0  0  0  0  0  2  0  0  0  0  0  0
  1  2  1  6  0  0  0
  1 37  1  0  0  0  0
  2  3  1  0  0  0  0
  4  7  1  0  0  0  0
  4  8  1  0  0  0  0
  5  3  1  0  0  0  0
  6  5  1  0  0  0  0
  7  9  1  0  0  0  0
  8 11  1  6  0  0  0
  8  6  1  0  0  0  0
  9  5  2  0  0  0  0
 11 10  1  0  0  0  0
 12  1  1  0  0  0  0
 13 12  1  0  0  0  0
 14 13  1  0  0  0  0
 15 14  1  0  0  0  0
 16 17  1  0  0  0  0
 16 15  1  0  0  0  0
 18 19  1  0  0  0  0
 19 22  1  0  0  0  0
 20 25  1  0  0  0  0
 22 21  1  0  0  0  0
 23 18  1  1  0  0  0
 23 20  1  0  0  0  0
 24 25  1  0  0  0  0
 24 33  1  1  0  0  0
 25 21  1  6  0  0  0
 26 23  1  0  0  0  0
 26 27  1  0  0  0  0
 27 24  1  0  0  0  0
 27 17  1  1  0  0  0
 28 33  2  0  0  0  0
 28 32  1  0  0  0  0
 29 31  1  0  0  0  0
 29 34  1  0  0  0  0
 30 31  2  0  0  0  0
 32 29  2  0  0  0  0
 33 30  1  0  0  0  0
 34 35  1  1  0  0  0
 36 34  1  0  0  0  0
 38 37  1  6  0  0  0
 38 40  1  0  0  0  0
 40 39  2  0  0  0  0
 41 39  1  1  0  0  0
 41 42  1  0  0  0  0
 42 44  2  0  0  0  0
 42 43  1  0  0  0  0
 45 41  1  0  0  0  0
 46 48  1  0  0  0  0
 46 45  1  0  0  0  0
 47 49  1  6  0  0  0
 47 46  1  0  0  0  0
 47 48  1  0  0  0  0
 50 49  1  0  0  0  0
 50 51  2  0  0  0  0
 52 50  1  0  0  0  0
 53 38  1  0  0  0  0
 54 55  2  0  0  0  0
 54 53  1  0  0  0  0
M  END
>  <MODEL>
8

>  <REMARK>
 VINA RESULT:      -6.0      2.201      3.096
  Name = 
  24 active torsions:
  status: ('A' for Active; 'I' for Inactive)
    1  A    between atoms: C_1  and  C_53
    2  A    between atoms: N_3  and  C_38
    3  A    between atoms: C_4  and  O_35
    4  A    between atoms: C_4  and  C_37
    5  A    between atoms: C_5  and  C_37
    6  A    between atoms: C_5  and  O_40
    7  A    between atoms: C_6  and  C_53
    8  A    between atoms: C_7  and  C_20
    9  A    between atoms: C_8  and  C_22
   10  A    between atoms: C_8  and  C_43
   11  A    between atoms: C_10  and  C_32
   12  A    between atoms: C_11  and  O_50
   13  A    between atoms: C_12  and  O_50
   14  A    between atoms: C_19  and  O_40
   15  A    between atoms: C_19  and  C_49
   16  A    between atoms: C_20  and  C_22
   17  A    between atoms: C_22  and  C_46
   18  A    between atoms: C_27  and  C_54
   19  A    between atoms: O_28  and  C_44
   20  A    between atoms: C_33  and  C_52
   21  A    between atoms: O_35  and  C_43
   22  A    between atoms: C_38  and  C_53
   23  A    between atoms: C_43  and  C_51
   24  A    between atoms: C_51  and  C_54
                            x       y       z     vdW  Elec       q    Type
                         _______ _______ _______ _____ _____    ______ ____

>  <TORSDO>
F 24

$$$$
=
 OpenBabel11052414503D

 55 59  0  0  1  0  0  0  0  0999 V2000
  189.2300  178.2050  143.0120 C   0  0  1  0  0  3  0  0  0  0  0  0
  190.7390  178.4130  142.9010 C   0  0  0  0  0  2  0  0  0  0  0  0
  191.3550  178.6310  144.2710 C   0  0  0  0  0  2  0  0  0  0  0  0
  192.5790  174.9870  146.2480 C   0  0  0  0  0  2  0  0  0  0  0  0
  191.5540  177.3210  144.9560 C   0  0  0  0  0  0  0  0  0  0  0  0
  191.6910  177.3140  146.4600 C   0  0  0  0  0  2  0  0  0  0  0  0
  192.0120  174.8690  144.8380 C   0  0  0  0  0  2  0  0  0  0  0  0
  191.6810  175.9090  147.0630 C   0  0  2  0  0  3  0  0  0  0  0  0
  191.7890  176.2240  144.2180 C   0  0  0  0  0  3  0  0  0  0  0  0
  192.9180  174.9140  148.5090 O   0  0  0  0  0  1  0  0  0  0  0  0
  192.1330  175.9630  148.3810 O   0  0  0  0  0  0  0  0  0  0  0  0
  188.7610  177.4650  141.9220 O   0  0  0  0  0  0  0  0  0  0  0  0
  189.8580  177.3070  141.0700 C   0  0  0  0  0  2  0  0  0  0  0  0
  189.4420  177.5050  139.6160 C   0  0  0  0  0  2  0  0  0  0  0  0
  188.0550  178.1160  139.5110 C   0  0  0  0  0  2  0  0  0  0  0  0
  187.7860  178.4390  138.1800 O   0  0  0  0  0  0  0  0  0  0  0  0
  186.9290  177.4350  137.7340 C   0  0  0  0  0  2  0  0  0  0  0  0
  190.1540  176.3200  134.6090 C   0  0  0  0  0  2  0  0  0  0  0  0
  191.0850  175.1060  134.6930 C   0  0  0  0  0  2  0  0  0  0  0  0
  189.4580  175.8270  136.9380 O   0  0  0  0  0  0  0  0  0  0  0  0
  188.9560  173.8990  135.4800 C   0  0  0  0  0  2  0  0  0  0  0  0
  190.4840  173.8770  135.4010 C   0  0  0  0  0  2  0  0  0  0  0  0
  189.7150  176.8490  135.9830 C   0  0  2  0  0  3  0  0  0  0  0  0
  187.1980  175.6610  135.9320 C   0  0  2  0  0  3  0  0  0  0  0  0
  188.4390  174.9380  136.4870 C   0  0  2  0  0  3  0  0  0  0  0  0
  188.5200  177.8020  135.8330 C   0  0  0  0  0  2  0  0  0  0  0  0
  187.1910  177.1620  136.2560 C   0  0  2  0  0  3  0  0  0  0  0  0
  185.8980  173.9790  137.2500 C   0  0  0  0  0  3  0  0  0  0  0  0
  183.5330  173.5920  136.8670 C   0  0  0  0  0  0  0  0  0  0  0  0
  184.7260  175.2520  135.5570 C   0  0  0  0  0  3  0  0  0  0  0  0
  183.5440  174.5710  135.8620 C   0  0  0  0  0  3  0  0  0  0  0  0
  184.7140  173.2980  137.5570 C   0  0  0  0  0  3  0  0  0  0  0  0
  185.9090  174.9600  136.2550 C   0  0  0  0  0  0  0  0  0  0  0  0
  182.2860  172.8390  137.2020 C   0  0  1  0  0  3  0  0  0  0  0  0
  181.0550  173.5660  136.6960 C   0  0  0  0  0  1  0  0  0  0  0  0
  182.3350  171.5000  136.6370 N   0  0  0  0  0  1  0  0  0  0  0  0
  188.8350  177.5110  144.3270 C   0  0  0  0  0  2  0  0  0  0  0  0
  187.3620  177.6370  144.7690 C   0  0  1  0  0  3  0  0  0  0  0  0
  185.3300  177.5810  143.2970 C   0  0  0  0  0  3  0  0  0  0  0  0
  186.4100  176.9780  143.8100 C   0  0  0  0  0  3  0  0  0  0  0  0
  184.9660  179.0040  143.5900 C   0  0  2  0  0  3  0  0  0  0  0  0
  183.7170  179.0640  144.4150 C   0  0  0  0  0  0  0  0  0  0  0  0
  183.8100  179.0060  145.7990 O   0  0  0  0  0  1  0  0  0  0  0  0
  182.5850  179.1760  143.8690 O   0  0  0  0  0  0  0  0  0  0  0  0
  184.8040  179.7710  142.2800 C   0  0  0  0  0  2  0  0  0  0  0  0
  185.0010  178.8860  141.1440 N   0  0  0  0  0  0  0  0  0  0  0  0
  183.8210  178.9770  140.3220 C   0  0  1  0  0  3  0  0  0  0  0  0
  184.9370  179.6840  140.0160 O   0  0  0  0  0  0  0  0  0  0  0  0
  183.7390  177.8450  139.4640 O   0  0  0  0  0  0  0  0  0  0  0  0
  182.6630  177.6240  138.6000 C   0  0  0  0  0  0  0  0  0  0  0  0
  182.8070  177.8860  137.3110 C   0  0  0  0  0  2  0  0  0  0  0  0
  181.3600  177.0890  139.0880 C   0  0  0  0  0  1  0  0  0  0  0  0
  187.1540  177.1140  146.1860 C   0  0  0  0  0  2  0  0  0  0  0  0
  187.8130  178.0100  147.1780 C   0  0  0  0  0  3  0  0  0  0  0  0
  188.5840  177.4930  148.1290 C   0  0  0  0  0  2  0  0  0  0  0  0
  1  2  1  6  0  0  0
  1 37  1  0  0  0  0
  2  3  1  0  0  0  0
  3  5  1  0  0  0  0
  4  8  1  0  0  0  0
  5  6  1  0  0  0  0
  6  8  1  0  0  0  0
  7  4  1  0  0  0  0
  8 11  1  1  0  0  0
  9  7  1  0  0  0  0
  9  5  2  0  0  0  0
 11 10  1  0  0  0  0
 12  1  1  0  0  0  0
 13 12  1  0  0  0  0
 14 13  1  0  0  0  0
 15 14  1  0  0  0  0
 16 15  1  0  0  0  0
 17 16  1  0  0  0  0
 18 19  1  0  0  0  0
 19 22  1  0  0  0  0
 22 21  1  0  0  0  0
 23 18  1  6  0  0  0
 23 20  1  0  0  0  0
 24 33  1  1  0  0  0
 24 27  1  0  0  0  0
 24 25  1  0  0  0  0
 25 21  1  6  0  0  0
 25 20  1  0  0  0  0
 26 23  1  0  0  0  0
 26 27  1  0  0  0  0
 27 17  1  1  0  0  0
 28 32  1  0  0  0  0
 29 34  1  0  0  0  0
 29 32  2  0  0  0  0
 30 31  2  0  0  0  0
 30 33  1  0  0  0  0
 31 29  1  0  0  0  0
 33 28  2  0  0  0  0
 34 35  1  6  0  0  0
 36 34  1  0  0  0  0
 37 38  1  0  0  0  0
 38 40  1  6  0  0  0
 38 53  1  0  0  0  0
 39 41  1  0  0  0  0
 39 40  2  0  0  0  0
 41 45  1  6  0  0  0
 41 42  1  0  0  0  0
 42 43  1  0  0  0  0
 44 42  2  0  0  0  0
 46 45  1  0  0  0  0
 47 49  1  6  0  0  0
 47 46  1  0  0  0  0
 48 47  1  0  0  0  0
 48 46  1  0  0  0  0
 50 52  1  0  0  0  0
 50 49  1  0  0  0  0
 51 50  2  0  0  0  0
 53 54  1  0  0  0  0
 54 55  2  0  0  0  0
M  END
>  <MODEL>
9

>  <REMARK>
 VINA RESULT:      -6.0      2.931      7.120
  Name = 
  24 active torsions:
  status: ('A' for Active; 'I' for Inactive)
    1  A    between atoms: C_1  and  C_53
    2  A    between atoms: N_3  and  C_38
    3  A    between atoms: C_4  and  O_35
    4  A    between atoms: C_4  and  C_37
    5  A    between atoms: C_5  and  C_37
    6  A    between atoms: C_5  and  O_40
    7  A    between atoms: C_6  and  C_53
    8  A    between atoms: C_7  and  C_20
    9  A    between atoms: C_8  and  C_22
   10  A    between atoms: C_8  and  C_43
   11  A    between atoms: C_10  and  C_32
   12  A    between atoms: C_11  and  O_50
   13  A    between atoms: C_12  and  O_50
   14  A    between atoms: C_19  and  O_40
   15  A    between atoms: C_19  and  C_49
   16  A    between atoms: C_20  and  C_22
   17  A    between atoms: C_22  and  C_46
   18  A    between atoms: C_27  and  C_54
   19  A    between atoms: O_28  and  C_44
   20  A    between atoms: C_33  and  C_52
   21  A    between atoms: O_35  and  C_43
   22  A    between atoms: C_38  and  C_53
   23  A    between atoms: C_43  and  C_51
   24  A    between atoms: C_51  and  C_54
                            x       y       z     vdW  Elec       q    Type
                         _______ _______ _______ _____ _____    ______ ____

>  <TORSDO>
F 24

$$$$
