=
 OpenBabel11052415203D

 37 41  0  0  1  0  0  0  0  0999 V2000
  186.0790  176.1470  137.0090 C   0  0  1  0  0  0  0  0  0  0  0  0
  188.1470  175.9160  135.4290 C   0  0  2  0  0  3  0  0  0  0  0  0
  189.8130  177.8850  137.4400 N   0  0  2  0  0  0  0  0  0  0  0  0
  184.5460  176.2820  136.8940 C   0  0  2  0  0  3  0  0  0  0  0  0
  190.4690  176.6180  134.9770 N   0  0  0  0  0  2  0  0  0  0  0  0
  188.9090  177.9780  138.5950 C   0  0  2  0  0  3  0  0  0  0  0  0
  184.9160  177.4050  134.7020 C   0  0  0  0  0  2  0  0  0  0  0  0
  189.0430  178.1850  136.2080 C   0  0  0  0  0  2  0  0  0  0  0  0
  189.7200  177.8910  139.8970 C   0  0  2  0  0  3  0  0  0  0  0  0
  192.3480  175.8220  136.1060 O   0  0  0  0  0  0  0  0  0  0  0  0
  186.6420  176.2480  135.5690 C   0  0  2  0  0  3  0  0  0  0  0  0
  191.4170  176.4890  138.6810 C   0  0  0  0  0  2  0  0  0  0  0  0
  184.1380  177.4720  136.0140 C   0  0  0  0  0  2  0  0  0  0  0  0
  191.1900  176.3150  136.1670 C   0  0  0  0  0  0  0  0  0  0  0  0
  186.2970  177.4710  134.9600 O   0  0  0  0  0  0  0  0  0  0  0  0
  187.9060  176.9600  138.5300 O   0  0  0  0  0  0  0  0  0  0  0  0
  190.4950  176.5710  137.4650 C   0  0  2  0  0  3  0  0  0  0  0  0
  186.6880  177.2090  137.8950 C   0  0  0  0  0  0  0  0  0  0  0  0
  189.0970  177.1000  135.1140 C   0  0  2  0  0  3  0  0  0  0  0  0
  186.1720  178.3590  137.9650 O   0  0  0  0  0  0  0  0  0  0  0  0
  186.3690  174.8850  137.5320 O   0  0  0  0  0  1  0  0  0  0  0  0
  190.5750  176.6200  139.9480 C   0  0  0  0  0  2  0  0  0  0  0  0
  190.8480  177.8200  142.6110 C   0  0  0  0  0  2  0  0  0  0  0  0
  189.4030  177.9580  142.4280 N   0  0  0  0  0  0  0  0  0  0  0  0
  187.6100  178.2830  140.9600 O   0  0  0  0  0  0  0  0  0  0  0  0
  188.5230  178.0750  143.5960 C   0  0  0  0  0  2  0  0  0  0  0  0
  188.4510  177.9640  145.9820 O   0  0  0  0  0  1  0  0  0  0  0  0
  190.2660  176.8310  144.9080 C   0  0  0  0  0  2  0  0  0  0  0  0
  189.3230  178.0360  144.8960 C   0  0  1  0  0  3  0  0  0  0  0  0
  188.8420  178.0420  141.1070 C   0  0  0  0  0  0  0  0  0  0  0  0
  191.1520  176.7400  143.6520 C   0  0  0  0  0  2  0  0  0  0  0  0
  188.6780  173.6900  135.3990 C   0  0  0  0  0  1  0  0  0  0  0  0
  188.3620  174.7950  134.5940 O   0  0  0  0  0  0  0  0  0  0  0  0
  183.9170  176.3390  138.1720 O   0  0  0  0  0  0  0  0  0  0  0  0
  182.7480  175.6280  138.4510 C   0  0  0  0  0  0  0  0  0  0  0  0
  182.0110  175.9660  139.4960 C   0  0  0  0  0  2  0  0  0  0  0  0
  182.3440  174.5340  137.6320 N   0  0  0  0  0  1  0  0  0  0  0  0
  1 21  1  1  0  0  0
  1 18  1  0  0  0  0
  2 33  1  6  0  0  0
  2 11  1  0  0  0  0
  3  8  1  6  0  0  0
  3 17  1  0  0  0  0
  3  6  1  0  0  0  0
  4  1  1  0  0  0  0
  4 34  1  1  0  0  0
  5 19  1  0  0  0  0
  5 14  1  0  0  0  0
  6 16  1  6  0  0  0
  6  9  1  0  0  0  0
  7 15  1  0  0  0  0
  7 13  1  0  0  0  0
  9 22  1  0  0  0  0
  9 30  1  1  0  0  0
 10 14  2  0  0  0  0
 11 15  1  1  0  0  0
 11  1  1  0  0  0  0
 12 22  1  0  0  0  0
 13  4  1  0  0  0  0
 14 17  1  0  0  0  0
 17 12  1  1  0  0  0
 18 20  2  0  0  0  0
 18 16  1  0  0  0  0
 19  2  1  0  0  0  0
 19  8  1  1  0  0  0
 23 31  1  0  0  0  0
 24 23  1  0  0  0  0
 24 26  1  0  0  0  0
 25 30  2  0  0  0  0
 26 29  1  0  0  0  0
 29 28  1  0  0  0  0
 29 27  1  1  0  0  0
 30 24  1  0  0  0  0
 31 28  1  0  0  0  0
 33 32  1  0  0  0  0
 34 35  1  0  0  0  0
 35 36  2  0  0  0  0
 37 35  1  0  0  0  0
M  END
>  <MODEL>
1

>  <REMARK>
 VINA RESULT:      -7.5      0.000      0.000
  Name = 
  4 active torsions:
  status: ('A' for Active; 'I' for Inactive)
    1  A    between atoms: C_3  and  O_32
    2  A    between atoms: C_5  and  O_17
    3  A    between atoms: C_11  and  O_17
    4  A    between atoms: C_14  and  C_31
                            x       y       z     vdW  Elec       q    Type
                         _______ _______ _______ _____ _____    ______ ____

>  <TORSDO>
F 4

$$$$
=
 OpenBabel11052415203D

 37 41  0  0  1  0  0  0  0  0999 V2000
  187.4690  176.3710  137.0560 C   0  0  1  0  0  0  0  0  0  0  0  0
  189.8040  176.3170  138.2270 C   0  0  2  0  0  3  0  0  0  0  0  0
  188.7060  178.5400  140.3590 N   0  0  2  0  0  0  0  0  0  0  0  0
  186.8920  176.3250  135.6250 C   0  0  2  0  0  3  0  0  0  0  0  0
  191.2260  177.2620  140.0090 N   0  0  0  0  0  2  0  0  0  0  0  0
  187.2690  178.5750  140.0520 C   0  0  2  0  0  3  0  0  0  0  0  0
  189.0040  177.3960  134.8530 C   0  0  0  0  0  2  0  0  0  0  0  0
  189.4650  178.7020  139.0950 C   0  0  0  0  0  2  0  0  0  0  0  0
  186.4610  178.6320  141.3580 C   0  0  2  0  0  3  0  0  0  0  0  0
  191.0550  176.7310  142.2730 O   0  0  0  0  0  0  0  0  0  0  0  0
  189.0080  176.4800  136.9100 C   0  0  2  0  0  3  0  0  0  0  0  0
  188.3250  177.3870  142.5000 C   0  0  0  0  0  2  0  0  0  0  0  0
  187.4820  177.4250  134.7310 C   0  0  0  0  0  2  0  0  0  0  0  0
  190.4820  177.0910  141.2110 C   0  0  0  0  0  0  0  0  0  0  0  0
  189.3820  177.6310  136.1870 O   0  0  0  0  0  0  0  0  0  0  0  0
  186.9000  177.4460  139.2540 O   0  0  0  0  0  0  0  0  0  0  0  0
  189.0060  177.3160  141.1350 C   0  0  2  0  0  3  0  0  0  0  0  0
  186.9270  177.5290  137.8610 C   0  0  0  0  0  0  0  0  0  0  0  0
  190.4880  177.5890  138.7910 C   0  0  2  0  0  3  0  0  0  0  0  0
  186.6180  178.6140  137.2940 O   0  0  0  0  0  0  0  0  0  0  0  0
  187.1490  175.1710  137.6960 O   0  0  0  0  0  1  0  0  0  0  0  0
  186.8140  177.4700  142.2940 C   0  0  0  0  0  2  0  0  0  0  0  0
  184.5760  179.3500  143.4970 C   0  0  0  0  0  2  0  0  0  0  0  0
  184.0720  179.0340  142.1600 N   0  0  0  0  0  0  0  0  0  0  0  0
  184.5510  178.5770  139.9160 O   0  0  0  0  0  0  0  0  0  0  0  0
  182.6330  179.0910  141.8860 C   0  0  0  0  0  2  0  0  0  0  0  0
  180.4820  179.3710  142.8900 O   0  0  0  0  0  1  0  0  0  0  0  0
  182.2520  178.6410  144.3270 C   0  0  0  0  0  2  0  0  0  0  0  0
  181.8490  179.5040  143.1300 C   0  0  1  0  0  3  0  0  0  0  0  0
  184.9860  178.7280  141.0920 C   0  0  0  0  0  0  0  0  0  0  0  0
  183.7730  178.5950  144.5590 C   0  0  0  0  0  2  0  0  0  0  0  0
  190.5060  174.5550  136.9450 C   0  0  0  0  0  1  0  0  0  0  0  0
  190.6660  175.1970  138.1840 O   0  0  0  0  0  0  0  0  0  0  0  0
  185.4670  176.3580  135.6220 O   0  0  0  0  0  0  0  0  0  0  0  0
  184.7050  175.2840  135.1610 C   0  0  0  0  0  0  0  0  0  0  0  0
  185.3100  174.2190  134.6630 C   0  0  0  0  0  2  0  0  0  0  0  0
  183.2810  175.3230  135.2080 N   0  0  0  0  0  1  0  0  0  0  0  0
  1 21  1  1  0  0  0
  1 18  1  0  0  0  0
  2 33  1  6  0  0  0
  2 19  1  0  0  0  0
  3  8  1  6  0  0  0
  3 17  1  0  0  0  0
  4 34  1  1  0  0  0
  4  1  1  0  0  0  0
  5 14  1  0  0  0  0
  6 16  1  1  0  0  0
  6  3  1  0  0  0  0
  6  9  1  0  0  0  0
  7 15  1  0  0  0  0
  9 30  1  6  0  0  0
  9 22  1  0  0  0  0
 11 15  1  1  0  0  0
 11  1  1  0  0  0  0
 11  2  1  0  0  0  0
 13  7  1  0  0  0  0
 13  4  1  0  0  0  0
 14 10  2  0  0  0  0
 17 14  1  0  0  0  0
 17 12  1  1  0  0  0
 18 16  1  0  0  0  0
 19  8  1  1  0  0  0
 19  5  1  0  0  0  0
 20 18  2  0  0  0  0
 22 12  1  0  0  0  0
 23 31  1  0  0  0  0
 24 23  1  0  0  0  0
 25 30  2  0  0  0  0
 26 24  1  0  0  0  0
 26 29  1  0  0  0  0
 28 31  1  0  0  0  0
 29 27  1  6  0  0  0
 29 28  1  0  0  0  0
 30 24  1  0  0  0  0
 32 33  1  0  0  0  0
 35 37  1  0  0  0  0
 35 34  1  0  0  0  0
 36 35  2  0  0  0  0
M  END
>  <MODEL>
2

>  <REMARK>
 VINA RESULT:      -7.1      2.905      4.568
  Name = 
  4 active torsions:
  status: ('A' for Active; 'I' for Inactive)
    1  A    between atoms: C_3  and  O_32
    2  A    between atoms: C_5  and  O_17
    3  A    between atoms: C_11  and  O_17
    4  A    between atoms: C_14  and  C_31
                            x       y       z     vdW  Elec       q    Type
                         _______ _______ _______ _____ _____    ______ ____

>  <TORSDO>
F 4

$$$$
=
 OpenBabel11052415203D

 37 41  0  0  1  0  0  0  0  0999 V2000
  182.9440  175.5660  136.6970 C   0  0  1  0  0  0  0  0  0  0  0  0
  180.7120  176.8120  136.1580 C   0  0  2  0  0  3  0  0  0  0  0  0
  181.0250  178.4430  138.9750 N   0  0  2  0  0  0  0  0  0  0  0  0
  183.5400  174.1490  136.5560 C   0  0  2  0  0  3  0  0  0  0  0  0
  179.0280  178.4340  136.9460 N   0  0  0  0  0  2  0  0  0  0  0  0
  182.3890  178.0820  139.3860 C   0  0  2  0  0  3  0  0  0  0  0  0
  181.2210  173.2680  136.7630 C   0  0  0  0  0  2  0  0  0  0  0  0
  180.2820  177.2000  138.6520 C   0  0  0  0  0  2  0  0  0  0  0  0
  183.1100  179.3230  139.9360 C   0  0  2  0  0  3  0  0  0  0  0  0
  179.3000  180.7500  136.9360 O   0  0  0  0  0  0  0  0  0  0  0  0
  181.4500  175.4590  136.3010 C   0  0  2  0  0  3  0  0  0  0  0  0
  181.6910  180.7480  138.4250 C   0  0  0  0  0  2  0  0  0  0  0  0
  182.6630  173.0860  137.2310 C   0  0  0  0  0  2  0  0  0  0  0  0
  179.7600  179.6180  137.2430 C   0  0  0  0  0  0  0  0  0  0  0  0
  180.7580  174.5460  137.1220 O   0  0  0  0  0  0  0  0  0  0  0  0
  183.1050  177.4990  138.2940 O   0  0  0  0  0  0  0  0  0  0  0  0
  181.0970  179.4460  137.8890 C   0  0  2  0  0  3  0  0  0  0  0  0
  183.0860  176.1170  138.0960 C   0  0  0  0  0  0  0  0  0  0  0  0
  179.6580  177.1500  137.2430 C   0  0  2  0  0  3  0  0  0  0  0  0
  183.0610  175.3440  139.0940 O   0  0  0  0  0  0  0  0  0  0  0  0
  183.6020  176.4090  135.7980 O   0  0  0  0  0  1  0  0  0  0  0  0
  183.1090  180.4740  138.9240 C   0  0  0  0  0  2  0  0  0  0  0  0
  183.5720  178.4660  142.7110 C   0  0  0  0  0  2  0  0  0  0  0  0
  184.7060  178.6180  141.7990 N   0  0  0  0  0  0  0  0  0  0  0  0
  185.4600  178.9980  139.6160 O   0  0  0  0  0  0  0  0  0  0  0  0
  186.0660  178.3270  142.2640 C   0  0  0  0  0  2  0  0  0  0  0  0
  187.3790  177.7920  144.1880 O   0  0  0  0  0  1  0  0  0  0  0  0
  185.2780  178.8690  144.5870 C   0  0  0  0  0  2  0  0  0  0  0  0
  186.0660  177.8810  143.7240 C   0  0  1  0  0  3  0  0  0  0  0  0
  184.4910  178.9890  140.4260 C   0  0  0  0  0  0  0  0  0  0  0  0
  183.8670  179.1570  144.0440 C   0  0  0  0  0  2  0  0  0  0  0  0
  179.1930  176.1040  134.5980 C   0  0  0  0  0  1  0  0  0  0  0  0
  180.2360  177.0130  134.8410 O   0  0  0  0  0  0  0  0  0  0  0  0
  184.8870  174.0870  137.0220 O   0  0  0  0  0  0  0  0  0  0  0  0
  185.9030  173.5030  136.2640 C   0  0  0  0  0  0  0  0  0  0  0  0
  186.7590  172.6780  136.8440 C   0  0  0  0  0  2  0  0  0  0  0  0
  186.0390  173.7920  134.8760 N   0  0  0  0  0  1  0  0  0  0  0  0
  1 21  1  6  0  0  0
  1 18  1  0  0  0  0
  2 33  1  6  0  0  0
  2 11  1  0  0  0  0
  2 19  1  0  0  0  0
  3  8  1  6  0  0  0
  3  6  1  0  0  0  0
  4  1  1  0  0  0  0
  4 34  1  1  0  0  0
  4 13  1  0  0  0  0
  5 14  1  0  0  0  0
  5 19  1  0  0  0  0
  6 16  1  6  0  0  0
  6  9  1  0  0  0  0
  7 15  1  0  0  0  0
  7 13  1  0  0  0  0
  9 30  1  6  0  0  0
 10 14  2  0  0  0  0
 11  1  1  0  0  0  0
 11 15  1  1  0  0  0
 12 22  1  0  0  0  0
 14 17  1  0  0  0  0
 17 12  1  1  0  0  0
 17  3  1  0  0  0  0
 18 16  1  0  0  0  0
 18 20  2  0  0  0  0
 19  8  1  1  0  0  0
 22  9  1  0  0  0  0
 23 31  1  0  0  0  0
 24 26  1  0  0  0  0
 24 23  1  0  0  0  0
 25 30  2  0  0  0  0
 26 29  1  0  0  0  0
 29 27  1  1  0  0  0
 29 28  1  0  0  0  0
 30 24  1  0  0  0  0
 31 28  1  0  0  0  0
 32 33  1  0  0  0  0
 35 36  2  0  0  0  0
 35 34  1  0  0  0  0
 37 35  1  0  0  0  0
M  END
>  <MODEL>
3

>  <REMARK>
 VINA RESULT:      -6.4      4.105      7.069
  Name = 
  4 active torsions:
  status: ('A' for Active; 'I' for Inactive)
    1  A    between atoms: C_3  and  O_32
    2  A    between atoms: C_5  and  O_17
    3  A    between atoms: C_11  and  O_17
    4  A    between atoms: C_14  and  C_31
                            x       y       z     vdW  Elec       q    Type
                         _______ _______ _______ _____ _____    ______ ____

>  <TORSDO>
F 4

$$$$
=
 OpenBabel11052415203D

 37 41  0  0  1  0  0  0  0  0999 V2000
  190.1110  176.3690  142.0920 C   0  0  1  0  0  0  0  0  0  0  0  0
  190.8660  176.5590  144.5860 C   0  0  2  0  0  3  0  0  0  0  0  0
  188.3380  178.5610  145.1250 N   0  0  2  0  0  0  0  0  0  0  0  0
  190.7560  176.3000  140.6910 C   0  0  2  0  0  3  0  0  0  0  0  0
  190.4490  177.6100  146.7800 N   0  0  0  0  0  2  0  0  0  0  0  0
  187.5740  178.4320  143.8750 C   0  0  2  0  0  3  0  0  0  0  0  0
  192.6400  177.6450  141.6090 C   0  0  0  0  0  2  0  0  0  0  0  0
  189.7520  178.8560  144.7870 C   0  0  0  0  0  2  0  0  0  0  0  0
  186.0720  178.3470  144.1920 C   0  0  2  0  0  3  0  0  0  0  0  0
  188.7550  176.9880  148.2560 O   0  0  0  0  0  0  0  0  0  0  0  0
  191.2560  176.6680  143.0920 C   0  0  2  0  0  3  0  0  0  0  0  0
  186.6550  177.3000  146.4040 C   0  0  0  0  0  2  0  0  0  0  0  0
  191.6850  177.4930  140.4270 C   0  0  0  0  0  2  0  0  0  0  0  0
  189.0920  177.3100  147.0850 C   0  0  0  0  0  0  0  0  0  0  0  0
  191.9100  177.8790  142.7880 O   0  0  0  0  0  0  0  0  0  0  0  0
  188.0190  177.2940  143.1310 O   0  0  0  0  0  0  0  0  0  0  0  0
  188.1140  177.3570  145.9550 C   0  0  2  0  0  3  0  0  0  0  0  0
  189.0350  177.4250  142.1830 C   0  0  0  0  0  0  0  0  0  0  0  0
  190.7890  177.8850  145.3860 C   0  0  2  0  0  3  0  0  0  0  0  0
  189.1160  178.4830  141.4980 O   0  0  0  0  0  0  0  0  0  0  0  0
  189.5590  175.1180  142.3810 O   0  0  0  0  0  1  0  0  0  0  0  0
  185.7620  177.2060  145.1680 C   0  0  0  0  0  2  0  0  0  0  0  0
  183.3000  179.3250  144.1420 C   0  0  0  0  0  2  0  0  0  0  0  0
  183.8760  178.7120  142.9450 N   0  0  0  0  0  0  0  0  0  0  0  0
  185.7700  177.8580  141.8680 O   0  0  0  0  0  0  0  0  0  0  0  0
  183.0770  178.6000  141.7200 C   0  0  0  0  0  2  0  0  0  0  0  0
  180.8910  178.9040  140.8030 O   0  0  0  0  0  1  0  0  0  0  0  0
  181.0300  178.6150  143.1750 C   0  0  0  0  0  2  0  0  0  0  0  0
  181.6820  179.1890  141.9160 C   0  0  1  0  0  3  0  0  0  0  0  0
  185.2460  178.2730  142.9400 C   0  0  0  0  0  0  0  0  0  0  0  0
  181.9170  178.7360  144.4270 C   0  0  0  0  0  2  0  0  0  0  0  0
  192.2030  174.7250  144.2850 C   0  0  0  0  0  1  0  0  0  0  0  0
  191.6070  175.5540  145.2500 O   0  0  0  0  0  0  0  0  0  0  0  0
  189.7800  176.1610  139.6610 O   0  0  0  0  0  0  0  0  0  0  0  0
  190.1390  175.9540  138.3280 C   0  0  0  0  0  0  0  0  0  0  0  0
  189.7440  176.8130  137.4030 C   0  0  0  0  0  2  0  0  0  0  0  0
  190.9180  174.8230  137.9470 N   0  0  0  0  0  1  0  0  0  0  0  0
  1 18  1  0  0  0  0
  1 21  1  1  0  0  0
  1 11  1  0  0  0  0
  2 33  1  1  0  0  0
  2 19  1  0  0  0  0
  3  8  1  6  0  0  0
  3 17  1  0  0  0  0
  4 34  1  6  0  0  0
  4  1  1  0  0  0  0
  5 14  1  0  0  0  0
  6 16  1  1  0  0  0
  6  9  1  0  0  0  0
  6  3  1  0  0  0  0
  7 15  1  0  0  0  0
  9 30  1  6  0  0  0
  9 22  1  0  0  0  0
 11 15  1  1  0  0  0
 11  2  1  0  0  0  0
 13  4  1  0  0  0  0
 13  7  1  0  0  0  0
 14 10  2  0  0  0  0
 17 12  1  1  0  0  0
 17 14  1  0  0  0  0
 18 16  1  0  0  0  0
 19  8  1  6  0  0  0
 19  5  1  0  0  0  0
 20 18  2  0  0  0  0
 22 12  1  0  0  0  0
 23 31  1  0  0  0  0
 24 23  1  0  0  0  0
 25 30  2  0  0  0  0
 26 29  1  0  0  0  0
 26 24  1  0  0  0  0
 28 31  1  0  0  0  0
 29 27  1  6  0  0  0
 29 28  1  0  0  0  0
 30 24  1  0  0  0  0
 32 33  1  0  0  0  0
 35 34  1  0  0  0  0
 36 35  2  0  0  0  0
 37 35  1  0  0  0  0
M  END
>  <MODEL>
4

>  <REMARK>
 VINA RESULT:      -6.3      3.474      8.248
  Name = 
  4 active torsions:
  status: ('A' for Active; 'I' for Inactive)
    1  A    between atoms: C_3  and  O_32
    2  A    between atoms: C_5  and  O_17
    3  A    between atoms: C_11  and  O_17
    4  A    between atoms: C_14  and  C_31
                            x       y       z     vdW  Elec       q    Type
                         _______ _______ _______ _____ _____    ______ ____

>  <TORSDO>
F 4

$$$$
=
 OpenBabel11052415203D

 37 41  0  0  1  0  0  0  0  0999 V2000
  190.0470  176.5170  142.6970 C   0  0  1  0  0  0  0  0  0  0  0  0
  187.9030  177.6860  141.7660 C   0  0  2  0  0  3  0  0  0  0  0  0
  189.3730  177.9030  138.8530 N   0  0  2  0  0  0  0  0  0  0  0  0
  190.8920  176.5120  143.9890 C   0  0  2  0  0  3  0  0  0  0  0  0
  186.8430  178.7750  139.8220 N   0  0  0  0  0  2  0  0  0  0  0  0
  190.5660  177.0670  139.0500 C   0  0  2  0  0  3  0  0  0  0  0  0
  190.1720  178.8690  144.3430 C   0  0  0  0  0  2  0  0  0  0  0  0
  189.2870  178.8760  139.9700 C   0  0  0  0  0  2  0  0  0  0  0  0
  190.8050  176.2020  137.8020 C   0  0  2  0  0  3  0  0  0  0  0  0
  185.9640  177.6490  137.9790 O   0  0  0  0  0  0  0  0  0  0  0  0
  189.0010  177.6490  142.8570 C   0  0  2  0  0  3  0  0  0  0  0  0
  188.3270  176.2400  137.3710 C   0  0  0  0  0  2  0  0  0  0  0  0
  191.3680  177.9200  144.3700 C   0  0  0  0  0  2  0  0  0  0  0  0
  186.9310  177.8230  138.7670 C   0  0  0  0  0  0  0  0  0  0  0  0
  189.6150  178.9020  143.0520 O   0  0  0  0  0  0  0  0  0  0  0  0
  190.4280  176.2650  140.2260 O   0  0  0  0  0  0  0  0  0  0  0  0
  188.1940  177.0280  138.6730 C   0  0  2  0  0  3  0  0  0  0  0  0
  190.8840  176.7370  141.4590 C   0  0  0  0  0  0  0  0  0  0  0  0
  187.9620  178.8620  140.7570 C   0  0  2  0  0  3  0  0  0  0  0  0
  191.9250  177.4490  141.5070 O   0  0  0  0  0  0  0  0  0  0  0  0
  189.3880  175.2890  142.6000 O   0  0  0  0  0  1  0  0  0  0  0  0
  189.5720  175.3600  137.4520 C   0  0  0  0  0  2  0  0  0  0  0  0
  191.5870  174.2930  135.7070 C   0  0  0  0  0  2  0  0  0  0  0  0
  192.3930  174.4090  136.9220 N   0  0  0  0  0  0  0  0  0  0  0  0
  192.8180  175.5490  138.9210 O   0  0  0  0  0  0  0  0  0  0  0  0
  193.5950  173.5850  137.0860 C   0  0  0  0  0  2  0  0  0  0  0  0
  194.8550  171.7910  136.1340 O   0  0  0  0  0  1  0  0  0  0  0  0
  192.5410  171.9160  135.5330 C   0  0  0  0  0  2  0  0  0  0  0  0
  193.8190  172.6870  135.8720 C   0  0  1  0  0  3  0  0  0  0  0  0
  192.0500  175.3720  137.9340 C   0  0  0  0  0  0  0  0  0  0  0  0
  191.3050  172.8220  135.3940 C   0  0  0  0  0  2  0  0  0  0  0  0
  186.7070  177.5420  143.7120 C   0  0  0  0  0  1  0  0  0  0  0  0
  186.6140  177.4880  142.3120 O   0  0  0  0  0  0  0  0  0  0  0  0
  191.9820  175.5960  143.9100 O   0  0  0  0  0  0  0  0  0  0  0  0
  192.2800  174.7130  144.9490 C   0  0  0  0  0  0  0  0  0  0  0  0
  192.3550  175.1650  146.1900 C   0  0  0  0  0  2  0  0  0  0  0  0
  192.5160  173.3320  144.6910 N   0  0  0  0  0  1  0  0  0  0  0  0
  1 21  1  6  0  0  0
  1 11  1  0  0  0  0
  1  4  1  0  0  0  0
  2 33  1  1  0  0  0
  2 11  1  0  0  0  0
  3  6  1  0  0  0  0
  3  8  1  1  0  0  0
  4 34  1  6  0  0  0
  4 13  1  0  0  0  0
  5 19  1  0  0  0  0
  6 16  1  1  0  0  0
  7 13  1  0  0  0  0
  9 30  1  1  0  0  0
  9  6  1  0  0  0  0
 10 14  2  0  0  0  0
 11 15  1  6  0  0  0
 12 22  1  0  0  0  0
 14  5  1  0  0  0  0
 15  7  1  0  0  0  0
 16 18  1  0  0  0  0
 17 12  1  6  0  0  0
 17 14  1  0  0  0  0
 17  3  1  0  0  0  0
 18 20  2  0  0  0  0
 18  1  1  0  0  0  0
 19  8  1  6  0  0  0
 19  2  1  0  0  0  0
 22  9  1  0  0  0  0
 23 24  1  0  0  0  0
 24 26  1  0  0  0  0
 24 30  1  0  0  0  0
 28 29  1  0  0  0  0
 29 27  1  1  0  0  0
 29 26  1  0  0  0  0
 30 25  2  0  0  0  0
 31 28  1  0  0  0  0
 31 23  1  0  0  0  0
 33 32  1  0  0  0  0
 34 35  1  0  0  0  0
 35 36  2  0  0  0  0
 37 35  1  0  0  0  0
M  END
>  <MODEL>
5

>  <REMARK>
 VINA RESULT:      -6.1      2.830      8.000
  Name = 
  4 active torsions:
  status: ('A' for Active; 'I' for Inactive)
    1  A    between atoms: C_3  and  O_32
    2  A    between atoms: C_5  and  O_17
    3  A    between atoms: C_11  and  O_17
    4  A    between atoms: C_14  and  C_31
                            x       y       z     vdW  Elec       q    Type
                         _______ _______ _______ _____ _____    ______ ____

>  <TORSDO>
F 4

$$$$
=
 OpenBabel11052415203D

 37 41  0  0  1  0  0  0  0  0999 V2000
  184.4860  176.2400  137.1860 C   0  0  1  0  0  0  0  0  0  0  0  0
  186.8520  176.1790  136.0800 C   0  0  2  0  0  3  0  0  0  0  0  0
  187.8290  178.4580  138.2110 N   0  0  2  0  0  0  0  0  0  0  0  0
  183.0050  176.1740  136.7540 C   0  0  2  0  0  3  0  0  0  0  0  0
  189.1250  177.1410  136.0460 N   0  0  0  0  0  2  0  0  0  0  0  0
  186.6980  178.5050  139.1490 C   0  0  2  0  0  3  0  0  0  0  0  0
  183.7000  177.2020  134.5950 C   0  0  0  0  0  2  0  0  0  0  0  0
  187.3060  178.5850  136.8290 C   0  0  0  0  0  2  0  0  0  0  0  0
  187.2220  178.5980  140.5900 C   0  0  2  0  0  3  0  0  0  0  0  0
  190.8010  176.6570  137.5930 O   0  0  0  0  0  0  0  0  0  0  0  0
  185.3240  176.3260  135.8860 C   0  0  2  0  0  3  0  0  0  0  0  0
  189.2830  177.3530  139.8620 C   0  0  0  0  0  2  0  0  0  0  0  0
  182.6610  177.2480  135.7130 C   0  0  0  0  0  2  0  0  0  0  0  0
  189.6080  177.0030  137.3770 C   0  0  0  0  0  0  0  0  0  0  0  0
  184.9800  177.4580  135.1180 O   0  0  0  0  0  0  0  0  0  0  0  0
  185.8510  177.3660  138.9700 O   0  0  0  0  0  0  0  0  0  0  0  0
  188.6330  177.2460  138.4840 C   0  0  2  0  0  3  0  0  0  0  0  0
  184.7740  177.4210  138.0840 C   0  0  0  0  0  0  0  0  0  0  0  0
  187.7090  177.4530  135.8640 C   0  0  2  0  0  3  0  0  0  0  0  0
  184.1290  178.4990  137.9520 O   0  0  0  0  0  0  0  0  0  0  0  0
  184.7990  175.0580  137.8610 O   0  0  0  0  0  1  0  0  0  0  0  0
  188.1850  177.4510  140.9190 C   0  0  0  0  0  2  0  0  0  0  0  0
  187.7230  178.4070  143.4810 C   0  0  0  0  0  2  0  0  0  0  0  0
  186.3540  178.5660  142.9900 N   0  0  0  0  0  0  0  0  0  0  0  0
  184.9300  178.9670  141.1760 O   0  0  0  0  0  0  0  0  0  0  0  0
  185.2390  178.6440  143.9380 C   0  0  0  0  0  2  0  0  0  0  0  0
  184.6420  178.4370  146.2430 O   0  0  0  0  0  1  0  0  0  0  0  0
  186.6490  177.3320  145.5500 C   0  0  0  0  0  2  0  0  0  0  0  0
  185.7320  178.5440  145.3800 C   0  0  1  0  0  3  0  0  0  0  0  0
  186.0990  178.7090  141.5820 C   0  0  0  0  0  0  0  0  0  0  0  0
  187.7890  177.2830  144.5170 C   0  0  0  0  0  2  0  0  0  0  0  0
  187.5460  174.0130  136.3320 C   0  0  0  0  0  1  0  0  0  0  0  0
  187.3610  175.0480  135.4010 O   0  0  0  0  0  0  0  0  0  0  0  0
  182.1200  176.2260  137.8700 O   0  0  0  0  0  0  0  0  0  0  0  0
  181.2370  175.1850  138.1600 C   0  0  0  0  0  0  0  0  0  0  0  0
  180.2710  175.3730  139.0440 C   0  0  0  0  0  2  0  0  0  0  0  0
  181.3670  173.9160  137.5240 N   0  0  0  0  0  1  0  0  0  0  0  0
  1 21  1  1  0  0  0
  1 18  1  0  0  0  0
  2 33  1  6  0  0  0
  3  8  1  6  0  0  0
  3 17  1  0  0  0  0
  3  6  1  0  0  0  0
  4  1  1  0  0  0  0
  4 34  1  1  0  0  0
  5 14  1  0  0  0  0
  6 16  1  1  0  0  0
  6  9  1  0  0  0  0
  7 15  1  0  0  0  0
  7 13  1  0  0  0  0
  9 22  1  0  0  0  0
  9 30  1  1  0  0  0
 11 15  1  1  0  0  0
 11  2  1  0  0  0  0
 11  1  1  0  0  0  0
 12 22  1  0  0  0  0
 13  4  1  0  0  0  0
 14 10  2  0  0  0  0
 14 17  1  0  0  0  0
 17 12  1  1  0  0  0
 18 16  1  0  0  0  0
 19  5  1  0  0  0  0
 19  2  1  0  0  0  0
 19  8  1  1  0  0  0
 20 18  2  0  0  0  0
 23 31  1  0  0  0  0
 24 23  1  0  0  0  0
 24 26  1  0  0  0  0
 25 30  2  0  0  0  0
 26 29  1  0  0  0  0
 29 28  1  0  0  0  0
 29 27  1  1  0  0  0
 30 24  1  0  0  0  0
 31 28  1  0  0  0  0
 33 32  1  0  0  0  0
 34 35  1  0  0  0  0
 35 36  2  0  0  0  0
 37 35  1  0  0  0  0
M  END
>  <MODEL>
6

>  <REMARK>
 VINA RESULT:      -6.1      1.935      2.339
  Name = 
  4 active torsions:
  status: ('A' for Active; 'I' for Inactive)
    1  A    between atoms: C_3  and  O_32
    2  A    between atoms: C_5  and  O_17
    3  A    between atoms: C_11  and  O_17
    4  A    between atoms: C_14  and  C_31
                            x       y       z     vdW  Elec       q    Type
                         _______ _______ _______ _____ _____    ______ ____

>  <TORSDO>
F 4

$$$$
=
 OpenBabel11052415203D

 37 41  0  0  1  0  0  0  0  0999 V2000
  184.2260  179.1660  138.6790 C   0  0  1  0  0  0  0  0  0  0  0  0
  181.7560  179.5290  139.4500 C   0  0  2  0  0  3  0  0  0  0  0  0
  182.4870  178.0270  142.2610 N   0  0  2  0  0  0  0  0  0  0  0  0
  184.9920  178.8040  137.3890 C   0  0  2  0  0  3  0  0  0  0  0  0
  180.0780  179.1220  141.2130 N   0  0  0  0  0  2  0  0  0  0  0  0
  183.9510  177.9220  142.1790 C   0  0  2  0  0  3  0  0  0  0  0  0
  182.9750  177.5320  136.6730 C   0  0  0  0  0  2  0  0  0  0  0  0
  181.9030  177.5000  141.0040 C   0  0  0  0  0  2  0  0  0  0  0  0
  184.5720  178.2530  143.5450 C   0  0  2  0  0  3  0  0  0  0  0  0
  179.9540  180.2850  143.2310 O   0  0  0  0  0  0  0  0  0  0  0  0
  182.7180  179.0030  138.3590 C   0  0  2  0  0  3  0  0  0  0  0  0
  182.6080  179.7530  144.0130 C   0  0  0  0  0  2  0  0  0  0  0  0
  184.4980  177.4870  136.7760 C   0  0  0  0  0  2  0  0  0  0  0  0
  180.6560  179.6410  142.4060 C   0  0  0  0  0  0  0  0  0  0  0  0
  182.4120  177.6880  137.9520 O   0  0  0  0  0  0  0  0  0  0  0  0
  184.4590  178.7760  141.1500 O   0  0  0  0  0  0  0  0  0  0  0  0
  182.1210  179.4200  142.6030 C   0  0  2  0  0  3  0  0  0  0  0  0
  184.6180  178.2960  139.8500 C   0  0  0  0  0  0  0  0  0  0  0  0
  180.9640  178.4660  140.2550 C   0  0  2  0  0  3  0  0  0  0  0  0
  184.9700  177.0970  139.6670 O   0  0  0  0  0  0  0  0  0  0  0  0
  184.4910  180.5030  138.9860 O   0  0  0  0  0  1  0  0  0  0  0  0
  184.1300  179.6310  144.0510 C   0  0  0  0  0  2  0  0  0  0  0  0
  186.0550  177.5030  145.9710 C   0  0  0  0  0  2  0  0  0  0  0  0
  186.7820  177.7790  144.7320 N   0  0  0  0  0  0  0  0  0  0  0  0
  186.6930  178.2170  142.4350 O   0  0  0  0  0  0  0  0  0  0  0  0
  188.2430  177.6670  144.6970 C   0  0  0  0  0  2  0  0  0  0  0  0
  190.1890  177.3280  146.0430 O   0  0  0  0  0  1  0  0  0  0  0  0
  188.2370  178.1420  147.1640 C   0  0  0  0  0  2  0  0  0  0  0  0
  188.7970  177.2470  146.0570 C   0  0  1  0  0  3  0  0  0  0  0  0
  186.0670  178.1000  143.5250 C   0  0  0  0  0  0  0  0  0  0  0  0
  186.7010  178.2450  147.1430 C   0  0  0  0  0  2  0  0  0  0  0  0
  181.1800  180.7390  137.5940 C   0  0  0  0  0  1  0  0  0  0  0  0
  180.9400  180.5800  138.9690 O   0  0  0  0  0  0  0  0  0  0  0  0
  186.4030  178.7870  137.5940 O   0  0  0  0  0  0  0  0  0  0  0  0
  187.2330  177.8760  136.9380 C   0  0  0  0  0  0  0  0  0  0  0  0
  187.6070  178.1130  135.6920 C   0  0  0  0  0  2  0  0  0  0  0  0
  187.6730  176.6880  137.5890 N   0  0  0  0  0  1  0  0  0  0  0  0
  1 21  1  1  0  0  0
  1 18  1  0  0  0  0
  2 33  1  6  0  0  0
  2 19  1  0  0  0  0
  3  8  1  6  0  0  0
  3 17  1  0  0  0  0
  4 34  1  1  0  0  0
  4  1  1  0  0  0  0
  5 14  1  0  0  0  0
  6 16  1  6  0  0  0
  6  3  1  0  0  0  0
  6  9  1  0  0  0  0
  7 13  1  0  0  0  0
  7 15  1  0  0  0  0
  9 30  1  6  0  0  0
  9 22  1  0  0  0  0
 11 15  1  1  0  0  0
 11  1  1  0  0  0  0
 11  2  1  0  0  0  0
 12 22  1  0  0  0  0
 13  4  1  0  0  0  0
 14 17  1  0  0  0  0
 14 10  2  0  0  0  0
 17 12  1  1  0  0  0
 18 16  1  0  0  0  0
 19  8  1  1  0  0  0
 19  5  1  0  0  0  0
 20 18  2  0  0  0  0
 23 31  1  0  0  0  0
 24 23  1  0  0  0  0
 25 30  2  0  0  0  0
 26 24  1  0  0  0  0
 26 29  1  0  0  0  0
 29 27  1  6  0  0  0
 29 28  1  0  0  0  0
 30 24  1  0  0  0  0
 31 28  1  0  0  0  0
 32 33  1  0  0  0  0
 35 37  1  0  0  0  0
 35 34  1  0  0  0  0
 36 35  2  0  0  0  0
M  END
>  <MODEL>
7

>  <REMARK>
 VINA RESULT:      -6.0      3.560      7.047
  Name = 
  4 active torsions:
  status: ('A' for Active; 'I' for Inactive)
    1  A    between atoms: C_3  and  O_32
    2  A    between atoms: C_5  and  O_17
    3  A    between atoms: C_11  and  O_17
    4  A    between atoms: C_14  and  C_31
                            x       y       z     vdW  Elec       q    Type
                         _______ _______ _______ _____ _____    ______ ____

>  <TORSDO>
F 4

$$$$
=
 OpenBabel11052415203D

 37 41  0  0  1  0  0  0  0  0999 V2000
  181.5490  177.8920  139.9710 C   0  0  1  0  0  0  0  0  0  0  0  0
  180.5660  176.7530  137.8340 C   0  0  2  0  0  3  0  0  0  0  0  0
  183.3380  177.4800  136.2580 N   0  0  2  0  0  0  0  0  0  0  0  0
  181.0630  178.7880  141.1300 C   0  0  2  0  0  3  0  0  0  0  0  0
  180.9180  176.2180  135.4510 N   0  0  0  0  0  2  0  0  0  0  0  0
  184.2010  177.9420  137.3550 C   0  0  2  0  0  3  0  0  0  0  0  0
  179.3610  179.7100  139.5630 C   0  0  0  0  0  2  0  0  0  0  0  0
  182.0470  178.2060  136.3330 C   0  0  0  0  0  2  0  0  0  0  0  0
  185.6170  177.3740  137.1750 C   0  0  2  0  0  3  0  0  0  0  0  0
  182.2960  174.5130  134.6560 O   0  0  0  0  0  0  0  0  0  0  0  0
  180.3720  177.7880  138.9680 C   0  0  2  0  0  3  0  0  0  0  0  0
  184.6120  175.3900  136.0000 C   0  0  0  0  0  2  0  0  0  0  0  0
  180.3990  180.0760  140.6220 C   0  0  0  0  0  2  0  0  0  0  0  0
  182.1560  175.5170  135.4040 C   0  0  0  0  0  0  0  0  0  0  0  0
  179.9850  179.0560  138.4870 O   0  0  0  0  0  0  0  0  0  0  0  0
  183.6440  177.5730  138.6200 O   0  0  0  0  0  0  0  0  0  0  0  0
  183.2470  176.0040  136.3040 C   0  0  2  0  0  3  0  0  0  0  0  0
  182.7810  178.4420  139.2910 C   0  0  0  0  0  0  0  0  0  0  0  0
  180.7910  177.3150  136.4060 C   0  0  2  0  0  3  0  0  0  0  0  0
  182.9690  179.6880  139.2160 O   0  0  0  0  0  0  0  0  0  0  0  0
  181.8310  176.6240  140.4850 O   0  0  0  0  0  1  0  0  0  0  0  0
  185.6060  175.8440  137.0670 C   0  0  0  0  0  2  0  0  0  0  0  0
  188.4900  176.7550  137.0850 C   0  0  0  0  0  2  0  0  0  0  0  0
  187.9460  177.5160  138.2090 N   0  0  0  0  0  0  0  0  0  0  0  0
  186.1150  178.6280  139.1530 O   0  0  0  0  0  0  0  0  0  0  0  0
  188.8340  177.9820  139.2790 C   0  0  0  0  0  2  0  0  0  0  0  0
  191.0640  177.8600  140.1310 O   0  0  0  0  0  1  0  0  0  0  0  0
  190.3600  176.0700  138.7060 C   0  0  0  0  0  2  0  0  0  0  0  0
  190.2800  177.5660  139.0160 C   0  0  1  0  0  3  0  0  0  0  0  0
  186.5520  177.8680  138.2420 C   0  0  0  0  0  0  0  0  0  0  0  0
  189.3920  175.6280  137.5930 C   0  0  0  0  0  2  0  0  0  0  0  0
  180.1610  174.5870  138.4520 C   0  0  0  0  0  1  0  0  0  0  0  0
  179.5870  175.7340  137.8800 O   0  0  0  0  0  0  0  0  0  0  0  0
  182.1070  179.0700  142.0590 O   0  0  0  0  0  0  0  0  0  0  0  0
  181.9340  178.9060  143.4350 C   0  0  0  0  0  0  0  0  0  0  0  0
  182.9780  179.0020  144.2410 C   0  0  0  0  0  2  0  0  0  0  0  0
  180.6490  178.6250  143.9820 N   0  0  0  0  0  1  0  0  0  0  0  0
  1 21  1  1  0  0  0
  1  4  1  0  0  0  0
  2 33  1  6  0  0  0
  2 11  1  0  0  0  0
  3 17  1  0  0  0  0
  3  8  1  1  0  0  0
  3  6  1  0  0  0  0
  4 34  1  1  0  0  0
  5 19  1  0  0  0  0
  6 16  1  1  0  0  0
  7 13  1  0  0  0  0
  9  6  1  0  0  0  0
  9 30  1  1  0  0  0
 10 14  2  0  0  0  0
 11 15  1  6  0  0  0
 11  1  1  0  0  0  0
 12 22  1  0  0  0  0
 13  4  1  0  0  0  0
 14  5  1  0  0  0  0
 14 17  1  0  0  0  0
 15  7  1  0  0  0  0
 16 18  1  0  0  0  0
 17 12  1  6  0  0  0
 18  1  1  0  0  0  0
 19  8  1  1  0  0  0
 19  2  1  0  0  0  0
 20 18  2  0  0  0  0
 22  9  1  0  0  0  0
 23 31  1  0  0  0  0
 23 24  1  0  0  0  0
 24 30  1  0  0  0  0
 24 26  1  0  0  0  0
 28 29  1  0  0  0  0
 29 26  1  0  0  0  0
 29 27  1  1  0  0  0
 30 25  2  0  0  0  0
 31 28  1  0  0  0  0
 33 32  1  0  0  0  0
 34 35  1  0  0  0  0
 35 37  1  0  0  0  0
 35 36  2  0  0  0  0
M  END
>  <MODEL>
8

>  <REMARK>
 VINA RESULT:      -6.0      3.246      6.652
  Name = 
  4 active torsions:
  status: ('A' for Active; 'I' for Inactive)
    1  A    between atoms: C_3  and  O_32
    2  A    between atoms: C_5  and  O_17
    3  A    between atoms: C_11  and  O_17
    4  A    between atoms: C_14  and  C_31
                            x       y       z     vdW  Elec       q    Type
                         _______ _______ _______ _____ _____    ______ ____

>  <TORSDO>
F 4

$$$$
=
 OpenBabel11052415203D

 37 41  0  0  1  0  0  0  0  0999 V2000
  183.4600  177.8040  138.9520 C   0  0  1  0  0  0  0  0  0  0  0  0
  182.2870  176.3630  137.1150 C   0  0  2  0  0  3  0  0  0  0  0  0
  185.1680  176.0910  135.5910 N   0  0  2  0  0  0  0  0  0  0  0  0
  183.1570  179.0500  139.8120 C   0  0  2  0  0  3  0  0  0  0  0  0
  182.5480  175.1640  134.9740 N   0  0  0  0  0  2  0  0  0  0  0  0
  186.0950  176.6440  136.5890 C   0  0  2  0  0  3  0  0  0  0  0  0
  181.7020  179.8470  137.9550 C   0  0  0  0  0  2  0  0  0  0  0  0
  184.0550  177.0510  135.3940 C   0  0  0  0  0  2  0  0  0  0  0  0
  187.3650  175.7800  136.6520 C   0  0  2  0  0  3  0  0  0  0  0  0
  183.5520  173.0740  134.7300 O   0  0  0  0  0  0  0  0  0  0  0  0
  182.2990  177.6760  137.9340 C   0  0  2  0  0  3  0  0  0  0  0  0
  185.9830  173.7970  135.9550 C   0  0  0  0  0  2  0  0  0  0  0  0
  182.7810  180.2650  138.9520 C   0  0  0  0  0  2  0  0  0  0  0  0
  183.6150  174.2460  135.1880 C   0  0  0  0  0  0  0  0  0  0  0  0
  182.1890  178.8240  137.1230 O   0  0  0  0  0  0  0  0  0  0  0  0
  185.4590  176.7370  137.8670 O   0  0  0  0  0  0  0  0  0  0  0  0
  184.7720  174.7260  136.0040 C   0  0  2  0  0  3  0  0  0  0  0  0
  184.7870  177.9030  138.2370 C   0  0  0  0  0  0  0  0  0  0  0  0
  182.6410  176.4760  135.6090 C   0  0  2  0  0  3  0  0  0  0  0  0
  185.2300  179.0240  137.8610 O   0  0  0  0  0  0  0  0  0  0  0  0
  183.4660  176.6860  139.7890 O   0  0  0  0  0  1  0  0  0  0  0  0
  187.0370  174.3100  136.9350 C   0  0  0  0  0  2  0  0  0  0  0  0
  190.2520  175.4580  136.2000 C   0  0  0  0  0  2  0  0  0  0  0  0
  189.7760  176.1350  137.4070 N   0  0  0  0  0  0  0  0  0  0  0  0
  187.9740  177.0330  138.5990 O   0  0  0  0  0  0  0  0  0  0  0  0
  190.7380  176.6640  138.3800 C   0  0  0  0  0  2  0  0  0  0  0  0
  193.0560  176.7490  138.9570 O   0  0  0  0  0  1  0  0  0  0  0  0
  192.3620  174.9300  137.5640 C   0  0  0  0  0  2  0  0  0  0  0  0
  192.1750  176.4030  137.9330 C   0  0  1  0  0  3  0  0  0  0  0  0
  188.3690  176.3420  137.6180 C   0  0  0  0  0  0  0  0  0  0  0  0
  191.3150  174.4180  136.5590 C   0  0  0  0  0  2  0  0  0  0  0  0
  180.2700  176.3440  138.1960 C   0  0  0  0  0  1  0  0  0  0  0  0
  181.1170  175.6060  137.3540 O   0  0  0  0  0  0  0  0  0  0  0  0
  184.2260  179.3540  140.7060 O   0  0  0  0  0  0  0  0  0  0  0  0
  184.2790  178.8290  141.9980 C   0  0  0  0  0  0  0  0  0  0  0  0
  185.4010  178.2840  142.4370 C   0  0  0  0  0  2  0  0  0  0  0  0
  183.1360  178.8630  142.8480 N   0  0  0  0  0  1  0  0  0  0  0  0
  1 21  1  1  0  0  0
  1  4  1  0  0  0  0
  2 33  1  6  0  0  0
  2 11  1  0  0  0  0
  3  8  1  1  0  0  0
  3 17  1  0  0  0  0
  3  6  1  0  0  0  0
  4 34  1  6  0  0  0
  5 14  1  0  0  0  0
  5 19  1  0  0  0  0
  6  9  1  0  0  0  0
  6 16  1  1  0  0  0
  7 13  1  0  0  0  0
  9 22  1  0  0  0  0
  9 30  1  1  0  0  0
 10 14  2  0  0  0  0
 11 15  1  6  0  0  0
 11  1  1  0  0  0  0
 12 22  1  0  0  0  0
 13  4  1  0  0  0  0
 14 17  1  0  0  0  0
 15  7  1  0  0  0  0
 16 18  1  0  0  0  0
 17 12  1  6  0  0  0
 18  1  1  0  0  0  0
 19  8  1  1  0  0  0
 19  2  1  0  0  0  0
 20 18  2  0  0  0  0
 23 31  1  0  0  0  0
 23 24  1  0  0  0  0
 24 30  1  0  0  0  0
 24 26  1  0  0  0  0
 28 29  1  0  0  0  0
 29 26  1  0  0  0  0
 29 27  1  1  0  0  0
 30 25  2  0  0  0  0
 31 28  1  0  0  0  0
 33 32  1  0  0  0  0
 34 35  1  0  0  0  0
 35 36  2  0  0  0  0
 35 37  1  0  0  0  0
M  END
>  <MODEL>
9

>  <REMARK>
 VINA RESULT:      -5.9      2.956      5.901
  Name = 
  4 active torsions:
  status: ('A' for Active; 'I' for Inactive)
    1  A    between atoms: C_3  and  O_32
    2  A    between atoms: C_5  and  O_17
    3  A    between atoms: C_11  and  O_17
    4  A    between atoms: C_14  and  C_31
                            x       y       z     vdW  Elec       q    Type
                         _______ _______ _______ _____ _____    ______ ____

>  <TORSDO>
F 4

$$$$
