=
 OpenBabel11052413543D

 27 31  0  0  1  0  0  0  0  0999 V2000
  189.6200  177.4270  142.6640 N   0  0  0  0  0  0  0  0  0  0  0  0
  187.6310  177.7160  144.1210 C   0  0  0  0  0  0  0  0  0  0  0  0
  186.9280  178.5710  141.9260 N   0  0  0  0  0  0  0  0  0  0  0  0
  187.0060  177.3470  145.4310 C   0  0  0  0  0  3  0  0  0  0  0  0
  189.0500  178.1110  139.3610 C   0  0  0  0  0  0  0  0  0  0  0  0
  189.1060  177.9310  143.9320 C   0  0  1  0  0  3  0  0  0  0  0  0
  185.3980  178.0460  143.8420 N   0  0  0  0  0  0  0  0  0  0  0  0
  189.1380  177.6900  141.4900 C   0  0  0  0  0  0  0  0  0  0  0  0
  186.7020  178.1270  143.2740 C   0  0  0  0  0  0  0  0  0  0  0  0
  187.9540  178.6110  139.8870 O   0  0  0  0  0  0  0  0  0  0  0  0
  185.5080  177.5270  145.1960 C   0  0  0  0  0  3  0  0  0  0  0  0
  189.8420  177.4940  140.3180 C   0  0  0  0  0  3  0  0  0  0  0  0
  187.9620  178.3490  141.1700 C   0  0  0  0  0  0  0  0  0  0  0  0
  183.0870  178.8820  143.9930 C   0  0  0  0  0  3  0  0  0  0  0  0
  181.7200  179.0580  142.0430 N   0  0  0  0  0  0  0  0  0  0  0  0
  182.7280  178.5810  141.2640 C   0  0  0  0  0  3  0  0  0  0  0  0
  183.9540  178.2400  141.8370 C   0  0  0  0  0  3  0  0  0  0  0  0
  184.1450  178.3880  143.2180 C   0  0  0  0  0  0  0  0  0  0  0  0
  181.8750  179.2140  143.3840 C   0  0  0  0  0  3  0  0  0  0  0  0
  191.5100  176.4020  147.1540 C   0  0  0  0  0  3  0  0  0  0  0  0
  189.9300  177.3970  145.0650 C   0  0  0  0  0  0  0  0  0  0  0  0
  191.0730  176.6390  144.7830 C   0  0  0  0  0  3  0  0  0  0  0  0
  191.8610  176.1420  145.8250 C   0  0  0  0  0  3  0  0  0  0  0  0
  190.3710  177.1610  147.4410 C   0  0  0  0  0  3  0  0  0  0  0  0
  189.5820  177.6590  146.3980 C   0  0  0  0  0  3  0  0  0  0  0  0
  188.9030  179.4390  137.3640 N   0  0  0  0  0  1  0  0  0  0  0  0
  189.3730  178.1790  137.9100 C   0  0  0  0  0  2  0  0  0  0  0  0
  1  6  1  0  0  0  0
  2  4  1  0  0  0  0
  3  9  1  0  0  0  0
  5 10  1  0  0  0  0
  5 12  2  0  0  0  0
  6  2  1  0  0  0  0
  6 21  1  1  0  0  0
  7 11  1  0  0  0  0
  8  1  2  0  0  0  0
  9  7  1  0  0  0  0
  9  2  2  0  0  0  0
 10 13  1  0  0  0  0
 11  4  2  0  0  0  0
 12  8  1  0  0  0  0
 13  8  1  0  0  0  0
 13  3  2  0  0  0  0
 15 19  2  0  0  0  0
 16 17  2  0  0  0  0
 16 15  1  0  0  0  0
 17 18  1  0  0  0  0
 18  7  1  0  0  0  0
 18 14  2  0  0  0  0
 19 14  1  0  0  0  0
 20 24  1  0  0  0  0
 21 25  1  0  0  0  0
 22 21  2  0  0  0  0
 22 23  1  0  0  0  0
 23 20  2  0  0  0  0
 25 24  2  0  0  0  0
 26 27  1  0  0  0  0
 27  5  1  0  0  0  0
M  END
>  <MODEL>
1

>  <REMARK>
 VINA RESULT:     -10.2      0.000      0.000
  Name = 
  3 active torsions:
  status: ('A' for Active; 'I' for Inactive)
    1  A    between atoms: C_9  and  C_15
    2  A    between atoms: C_13  and  C_22
    3  A    between atoms: C_14  and  N_17
                            x       y       z     vdW  Elec       q    Type
                         _______ _______ _______ _____ _____    ______ ____

>  <TORSDO>
F 3

$$$$
=
 OpenBabel11052413543D

 27 31  0  0  1  0  0  0  0  0999 V2000
  185.5780  178.4340  145.0490 N   0  0  0  0  0  0  0  0  0  0  0  0
  187.5570  178.0450  143.6020 C   0  0  0  0  0  0  0  0  0  0  0  0
  185.6460  178.0620  142.0570 N   0  0  0  0  0  0  0  0  0  0  0  0
  189.0530  178.0830  143.5330 C   0  0  0  0  0  3  0  0  0  0  0  0
  182.6620  178.9370  143.3320 C   0  0  0  0  0  0  0  0  0  0  0  0
  186.7890  177.6510  144.8320 C   0  0  1  0  0  3  0  0  0  0  0  0
  188.0580  178.2090  141.3900 N   0  0  0  0  0  0  0  0  0  0  0  0
  184.6410  178.6420  144.1780 C   0  0  0  0  0  0  0  0  0  0  0  0
  187.0440  178.0890  142.3830 C   0  0  0  0  0  0  0  0  0  0  0  0
  183.4240  178.4920  142.3570 O   0  0  0  0  0  0  0  0  0  0  0  0
  189.3560  178.2460  142.0450 C   0  0  0  0  0  3  0  0  0  0  0  0
  183.3730  179.0750  144.5150 C   0  0  0  0  0  3  0  0  0  0  0  0
  184.6350  178.3310  142.8290 C   0  0  0  0  0  0  0  0  0  0  0  0
  188.9910  178.5200  139.1320 C   0  0  0  0  0  3  0  0  0  0  0  0
  187.5760  178.4830  137.2090 N   0  0  0  0  0  0  0  0  0  0  0  0
  186.4810  178.2710  137.9880 C   0  0  0  0  0  3  0  0  0  0  0  0
  186.6170  178.1770  139.3740 C   0  0  0  0  0  3  0  0  0  0  0  0
  187.8820  178.3020  139.9630 C   0  0  0  0  0  0  0  0  0  0  0  0
  188.8170  178.6090  137.7490 C   0  0  0  0  0  3  0  0  0  0  0  0
  189.1490  177.6470  148.4270 C   0  0  0  0  0  3  0  0  0  0  0  0
  187.6260  177.6500  146.0760 C   0  0  0  0  0  0  0  0  0  0  0  0
  187.1320  178.2620  147.2340 C   0  0  0  0  0  3  0  0  0  0  0  0
  187.8930  178.2610  148.4070 C   0  0  0  0  0  3  0  0  0  0  0  0
  189.6450  177.0320  147.2730 C   0  0  0  0  0  3  0  0  0  0  0  0
  188.8850  177.0320  146.0990 C   0  0  0  0  0  3  0  0  0  0  0  0
  180.4120  178.3610  143.9440 N   0  0  0  0  0  1  0  0  0  0  0  0
  181.2240  179.2770  143.1640 C   0  0  0  0  0  2  0  0  0  0  0  0
  2  6  1  0  0  0  0
  3  9  1  0  0  0  0
  3 13  2  0  0  0  0
  4  2  1  0  0  0  0
  5 12  2  0  0  0  0
  6  1  1  0  0  0  0
  6 21  1  1  0  0  0
  7 11  1  0  0  0  0
  7  9  1  0  0  0  0
  8 12  1  0  0  0  0
  8  1  2  0  0  0  0
  9  2  2  0  0  0  0
 10 13  1  0  0  0  0
 10  5  1  0  0  0  0
 11  4  2  0  0  0  0
 13  8  1  0  0  0  0
 14 18  1  0  0  0  0
 15 19  1  0  0  0  0
 15 16  2  0  0  0  0
 16 17  1  0  0  0  0
 17 18  2  0  0  0  0
 18  7  1  0  0  0  0
 19 14  2  0  0  0  0
 21 25  2  0  0  0  0
 21 22  1  0  0  0  0
 22 23  2  0  0  0  0
 23 20  1  0  0  0  0
 24 20  2  0  0  0  0
 25 24  1  0  0  0  0
 27  5  1  0  0  0  0
 27 26  1  0  0  0  0
M  END
>  <MODEL>
2

>  <REMARK>
 VINA RESULT:      -9.4      1.745      5.465
  Name = 
  3 active torsions:
  status: ('A' for Active; 'I' for Inactive)
    1  A    between atoms: C_9  and  C_15
    2  A    between atoms: C_13  and  C_22
    3  A    between atoms: C_14  and  N_17
                            x       y       z     vdW  Elec       q    Type
                         _______ _______ _______ _____ _____    ______ ____

>  <TORSDO>
F 3

$$$$
=
 OpenBabel11052413543D

 27 31  0  0  1  0  0  0  0  0999 V2000
  190.9050  177.0060  142.9540 N   0  0  0  0  0  0  0  0  0  0  0  0
  188.7070  177.5500  141.9380 C   0  0  0  0  0  0  0  0  0  0  0  0
  188.2250  177.2050  144.3230 N   0  0  0  0  0  0  0  0  0  0  0  0
  188.0160  178.0900  140.7230 C   0  0  0  0  0  3  0  0  0  0  0  0
  190.8630  176.8130  146.3680 C   0  0  0  0  0  0  0  0  0  0  0  0
  189.9560  176.7160  141.8850 C   0  0  1  0  0  3  0  0  0  0  0  0
  186.6680  178.2520  142.6610 N   0  0  0  0  0  0  0  0  0  0  0  0
  190.6360  177.0430  144.2210 C   0  0  0  0  0  0  0  0  0  0  0  0
  187.9080  177.6340  142.9900 C   0  0  0  0  0  0  0  0  0  0  0  0
  189.5710  176.8210  146.1270 O   0  0  0  0  0  0  0  0  0  0  0  0
  186.6760  178.6000  141.2490 C   0  0  0  0  0  3  0  0  0  0  0  0
  191.6020  176.9680  145.2050 C   0  0  0  0  0  3  0  0  0  0  0  0
  189.3980  176.9870  144.8400 C   0  0  0  0  0  0  0  0  0  0  0  0
  184.2930  178.7960  143.0170 C   0  0  0  0  0  3  0  0  0  0  0  0
  183.4170  179.0660  145.2220 N   0  0  0  0  0  0  0  0  0  0  0  0
  184.6380  178.8110  145.7640 C   0  0  0  0  0  3  0  0  0  0  0  0
  185.7280  178.5390  144.9360 C   0  0  0  0  0  3  0  0  0  0  0  0
  185.5640  178.5300  143.5450 C   0  0  0  0  0  0  0  0  0  0  0  0
  183.2250  179.0640  143.8760 C   0  0  0  0  0  3  0  0  0  0  0  0
  191.9850  176.8730  138.0970 C   0  0  0  0  0  3  0  0  0  0  0  0
  190.6480  176.7740  140.5570 C   0  0  0  0  0  0  0  0  0  0  0  0
  191.9710  177.2290  140.4930 C   0  0  0  0  0  3  0  0  0  0  0  0
  192.6370  177.2790  139.2660 C   0  0  0  0  0  3  0  0  0  0  0  0
  190.6660  176.4150  138.1560 C   0  0  0  0  0  3  0  0  0  0  0  0
  189.9970  176.3640  139.3840 C   0  0  0  0  0  3  0  0  0  0  0  0
  192.5200  175.7070  147.7120 N   0  0  0  0  0  1  0  0  0  0  0  0
  191.4460  176.6830  147.7310 C   0  0  0  0  0  2  0  0  0  0  0  0
  1  8  2  0  0  0  0
  2  9  2  0  0  0  0
  3 13  2  0  0  0  0
  4 11  2  0  0  0  0
  4  2  1  0  0  0  0
  5 27  1  0  0  0  0
  6 21  1  6  0  0  0
  6  2  1  0  0  0  0
  6  1  1  0  0  0  0
  7  9  1  0  0  0  0
  7 18  1  0  0  0  0
  8 13  1  0  0  0  0
  8 12  1  0  0  0  0
  9  3  1  0  0  0  0
 10  5  1  0  0  0  0
 11  7  1  0  0  0  0
 12  5  2  0  0  0  0
 13 10  1  0  0  0  0
 14 18  2  0  0  0  0
 14 19  1  0  0  0  0
 15 16  1  0  0  0  0
 17 16  2  0  0  0  0
 18 17  1  0  0  0  0
 19 15  2  0  0  0  0
 20 24  2  0  0  0  0
 20 23  1  0  0  0  0
 22 21  1  0  0  0  0
 23 22  2  0  0  0  0
 24 25  1  0  0  0  0
 25 21  2  0  0  0  0
 26 27  1  0  0  0  0
M  END
>  <MODEL>
3

>  <REMARK>
 VINA RESULT:      -9.2      2.284      5.522
  Name = 
  3 active torsions:
  status: ('A' for Active; 'I' for Inactive)
    1  A    between atoms: C_9  and  C_15
    2  A    between atoms: C_13  and  C_22
    3  A    between atoms: C_14  and  N_17
                            x       y       z     vdW  Elec       q    Type
                         _______ _______ _______ _____ _____    ______ ____

>  <TORSDO>
F 3

$$$$
=
 OpenBabel11052413543D

 27 31  0  0  1  0  0  0  0  0999 V2000
  189.9590  177.0550  142.4620 N   0  0  0  0  0  0  0  0  0  0  0  0
  187.8080  177.7490  143.4860 C   0  0  0  0  0  0  0  0  0  0  0  0
  187.5840  178.3290  141.1080 N   0  0  0  0  0  0  0  0  0  0  0  0
  186.9350  177.6420  144.7000 C   0  0  0  0  0  3  0  0  0  0  0  0
  190.0280  177.2870  139.0500 C   0  0  0  0  0  0  0  0  0  0  0  0
  189.3080  177.7910  143.5400 C   0  0  1  0  0  3  0  0  0  0  0  0
  185.7080  178.2460  142.7690 N   0  0  0  0  0  0  0  0  0  0  0  0
  189.7120  177.1840  141.1960 C   0  0  0  0  0  0  0  0  0  0  0  0
  187.0870  178.1160  142.4390 C   0  0  0  0  0  0  0  0  0  0  0  0
  188.9280  177.9640  139.3000 O   0  0  0  0  0  0  0  0  0  0  0  0
  185.5290  177.9290  144.1770 C   0  0  0  0  0  3  0  0  0  0  0  0
  190.5710  176.7480  140.2070 C   0  0  0  0  0  3  0  0  0  0  0  0
  188.6940  177.8970  140.5860 C   0  0  0  0  0  0  0  0  0  0  0  0
  183.3030  178.5810  142.3560 C   0  0  0  0  0  3  0  0  0  0  0  0
  182.5180  179.3070  140.2210 N   0  0  0  0  0  0  0  0  0  0  0  0
  183.7900  179.3450  139.7390 C   0  0  0  0  0  3  0  0  0  0  0  0
  184.8610  178.9980  140.5640 C   0  0  0  0  0  3  0  0  0  0  0  0
  184.6250  178.6090  141.8900 C   0  0  0  0  0  0  0  0  0  0  0  0
  182.2560  178.9350  141.5020 C   0  0  0  0  0  3  0  0  0  0  0  0
  190.9480  176.5540  147.3190 C   0  0  0  0  0  3  0  0  0  0  0  0
  189.8640  177.3560  144.8630 C   0  0  0  0  0  0  0  0  0  0  0  0
  191.1390  176.7810  144.9140 C   0  0  0  0  0  3  0  0  0  0  0  0
  191.6800  176.3800  146.1400 C   0  0  0  0  0  3  0  0  0  0  0  0
  189.6750  177.1300  147.2730 C   0  0  0  0  0  3  0  0  0  0  0  0
  189.1330  177.5320  146.0470 C   0  0  0  0  0  3  0  0  0  0  0  0
  191.9490  176.6030  137.7800 N   0  0  0  0  0  1  0  0  0  0  0  0
  190.5910  177.1050  137.6850 C   0  0  0  0  0  2  0  0  0  0  0  0
  1  6  1  0  0  0  0
  2  6  1  0  0  0  0
  2  4  1  0  0  0  0
  3  9  1  0  0  0  0
  5 10  1  0  0  0  0
  5 12  2  0  0  0  0
  6 21  1  1  0  0  0
  7 11  1  0  0  0  0
  8  1  2  0  0  0  0
  9  7  1  0  0  0  0
  9  2  2  0  0  0  0
 10 13  1  0  0  0  0
 11  4  2  0  0  0  0
 12  8  1  0  0  0  0
 13  3  2  0  0  0  0
 13  8  1  0  0  0  0
 15 19  1  0  0  0  0
 16 15  2  0  0  0  0
 16 17  1  0  0  0  0
 17 18  2  0  0  0  0
 18 14  1  0  0  0  0
 18  7  1  0  0  0  0
 19 14  2  0  0  0  0
 21 22  2  0  0  0  0
 21 25  1  0  0  0  0
 22 23  1  0  0  0  0
 23 20  2  0  0  0  0
 24 20  1  0  0  0  0
 25 24  2  0  0  0  0
 27 26  1  0  0  0  0
 27  5  1  0  0  0  0
M  END
>  <MODEL>
4

>  <REMARK>
 VINA RESULT:      -9.1      1.317      1.411
  Name = 
  3 active torsions:
  status: ('A' for Active; 'I' for Inactive)
    1  A    between atoms: C_9  and  C_15
    2  A    between atoms: C_13  and  C_22
    3  A    between atoms: C_14  and  N_17
                            x       y       z     vdW  Elec       q    Type
                         _______ _______ _______ _____ _____    ______ ____

>  <TORSDO>
F 3

$$$$
=
 OpenBabel11052413543D

 27 31  0  0  1  0  0  0  0  0999 V2000
  188.5870  177.1410  145.8520 N   0  0  0  0  0  0  0  0  0  0  0  0
  188.3830  177.6650  143.4350 C   0  0  0  0  0  0  0  0  0  0  0  0
  190.7870  177.2980  143.7950 N   0  0  0  0  0  0  0  0  0  0  0  0
  187.4320  177.8080  142.2860 C   0  0  0  0  0  3  0  0  0  0  0  0
  191.7180  176.1550  146.8150 C   0  0  0  0  0  0  0  0  0  0  0  0
  188.0480  178.0500  144.8480 C   0  0  1  0  0  3  0  0  0  0  0  0
  189.6490  177.4030  141.5640 N   0  0  0  0  0  0  0  0  0  0  0  0
  189.8210  176.7550  145.9440 C   0  0  0  0  0  0  0  0  0  0  0  0
  189.6120  177.4690  142.9860 C   0  0  0  0  0  0  0  0  0  0  0  0
  191.9860  176.6180  145.6140 O   0  0  0  0  0  0  0  0  0  0  0  0
  188.2990  177.5750  141.0500 C   0  0  0  0  0  3  0  0  0  0  0  0
  190.3580  176.1940  147.0860 C   0  0  0  0  0  3  0  0  0  0  0  0
  190.8570  176.9630  145.0490 C   0  0  0  0  0  0  0  0  0  0  0  0
  190.6410  176.6200  139.4500 C   0  0  0  0  0  3  0  0  0  0  0  0
  192.9960  176.7530  139.0810 N   0  0  0  0  0  0  0  0  0  0  0  0
  193.1830  177.3010  140.3120 C   0  0  0  0  0  3  0  0  0  0  0  0
  192.0890  177.5260  141.1510 C   0  0  0  0  0  3  0  0  0  0  0  0
  190.7990  177.1840  140.7240 C   0  0  0  0  0  0  0  0  0  0  0  0
  191.7580  176.4110  138.6380 C   0  0  0  0  0  3  0  0  0  0  0  0
  183.8430  178.6300  145.5390 C   0  0  0  0  0  3  0  0  0  0  0  0
  186.5780  178.2470  145.0730 C   0  0  0  0  0  0  0  0  0  0  0  0
  186.0560  178.0860  146.3620 C   0  0  0  0  0  3  0  0  0  0  0  0
  184.6900  178.2760  146.5940 C   0  0  0  0  0  3  0  0  0  0  0  0
  184.3610  178.7940  144.2510 C   0  0  0  0  0  3  0  0  0  0  0  0
  185.7270  178.6040  144.0170 C   0  0  0  0  0  3  0  0  0  0  0  0
  192.9460  176.5620  148.8400 N   0  0  0  0  0  1  0  0  0  0  0  0
  192.7520  175.6280  147.7450 C   0  0  0  0  0  2  0  0  0  0  0  0
  1  8  2  0  0  0  0
  2  6  1  0  0  0  0
  3 13  2  0  0  0  0
  4  2  1  0  0  0  0
  5 12  2  0  0  0  0
  5 27  1  0  0  0  0
  6 21  1  6  0  0  0
  6  1  1  0  0  0  0
  7  9  1  0  0  0  0
  8 12  1  0  0  0  0
  9  2  2  0  0  0  0
  9  3  1  0  0  0  0
 10  5  1  0  0  0  0
 11  7  1  0  0  0  0
 11  4  2  0  0  0  0
 13 10  1  0  0  0  0
 13  8  1  0  0  0  0
 14 18  1  0  0  0  0
 15 16  2  0  0  0  0
 16 17  1  0  0  0  0
 18 17  2  0  0  0  0
 18  7  1  0  0  0  0
 19 15  1  0  0  0  0
 19 14  2  0  0  0  0
 20 23  1  0  0  0  0
 21 22  1  0  0  0  0
 22 23  2  0  0  0  0
 24 20  2  0  0  0  0
 25 24  1  0  0  0  0
 25 21  2  0  0  0  0
 27 26  1  0  0  0  0
M  END
>  <MODEL>
5

>  <REMARK>
 VINA RESULT:      -9.1      2.838      7.214
  Name = 
  3 active torsions:
  status: ('A' for Active; 'I' for Inactive)
    1  A    between atoms: C_9  and  C_15
    2  A    between atoms: C_13  and  C_22
    3  A    between atoms: C_14  and  N_17
                            x       y       z     vdW  Elec       q    Type
                         _______ _______ _______ _____ _____    ______ ____

>  <TORSDO>
F 3

$$$$
=
 OpenBabel11052413543D

 27 31  0  0  1  0  0  0  0  0999 V2000
  186.1200  178.4480  141.4880 N   0  0  0  0  0  0  0  0  0  0  0  0
  186.3890  177.9920  143.9130 C   0  0  0  0  0  0  0  0  0  0  0  0
  188.5040  177.2550  142.9000 N   0  0  0  0  0  0  0  0  0  0  0  0
  185.8330  178.2530  145.2790 C   0  0  0  0  0  3  0  0  0  0  0  0
  188.9600  177.9570  139.6450 C   0  0  0  0  0  0  0  0  0  0  0  0
  185.5400  177.8440  142.6820 C   0  0  1  0  0  3  0  0  0  0  0  0
  188.1060  177.5980  145.3510 N   0  0  0  0  0  0  0  0  0  0  0  0
  187.3180  178.2430  141.0380 C   0  0  0  0  0  0  0  0  0  0  0  0
  187.6500  177.6020  144.0020 C   0  0  0  0  0  0  0  0  0  0  0  0
  189.3210  177.3840  140.7730 O   0  0  0  0  0  0  0  0  0  0  0  0
  187.0200  178.0320  146.2160 C   0  0  0  0  0  3  0  0  0  0  0  0
  187.7060  178.5400  139.7460 C   0  0  0  0  0  3  0  0  0  0  0  0
  188.3610  177.5630  141.6450 C   0  0  0  0  0  0  0  0  0  0  0  0
  189.6530  177.1380  147.2120 C   0  0  0  0  0  3  0  0  0  0  0  0
  191.9370  176.5810  146.7930 N   0  0  0  0  0  0  0  0  0  0  0  0
  191.7410  176.6820  145.4510 C   0  0  0  0  0  3  0  0  0  0  0  0
  190.4820  177.0180  144.9510 C   0  0  0  0  0  3  0  0  0  0  0  0
  189.4190  177.2510  145.8340 C   0  0  0  0  0  0  0  0  0  0  0  0
  190.9260  176.8000  147.6750 C   0  0  0  0  0  3  0  0  0  0  0  0
  181.4980  179.2220  143.1870 C   0  0  0  0  0  3  0  0  0  0  0  0
  184.1360  178.3340  142.8710 C   0  0  0  0  0  0  0  0  0  0  0  0
  183.2900  178.4330  141.7600 C   0  0  0  0  0  3  0  0  0  0  0  0
  181.9730  178.8770  141.9180 C   0  0  0  0  0  3  0  0  0  0  0  0
  182.3380  179.1230  144.3000 C   0  0  0  0  0  3  0  0  0  0  0  0
  183.6560  178.6790  144.1440 C   0  0  0  0  0  3  0  0  0  0  0  0
  189.1460  178.7460  137.3840 N   0  0  0  0  0  1  0  0  0  0  0  0
  189.8160  177.9950  138.4290 C   0  0  0  0  0  2  0  0  0  0  0  0
  1  6  1  0  0  0  0
  2  9  2  0  0  0  0
  2  4  1  0  0  0  0
  3  9  1  0  0  0  0
  4 11  2  0  0  0  0
  5 12  2  0  0  0  0
  5 10  1  0  0  0  0
  6 21  1  1  0  0  0
  6  2  1  0  0  0  0
  7 18  1  0  0  0  0
  7 11  1  0  0  0  0
  8  1  2  0  0  0  0
  8 13  1  0  0  0  0
  9  7  1  0  0  0  0
 10 13  1  0  0  0  0
 12  8  1  0  0  0  0
 13  3  2  0  0  0  0
 14 19  1  0  0  0  0
 15 19  2  0  0  0  0
 16 15  1  0  0  0  0
 17 16  2  0  0  0  0
 17 18  1  0  0  0  0
 18 14  2  0  0  0  0
 20 24  1  0  0  0  0
 21 25  1  0  0  0  0
 22 23  1  0  0  0  0
 22 21  2  0  0  0  0
 23 20  2  0  0  0  0
 25 24  2  0  0  0  0
 26 27  1  0  0  0  0
 27  5  1  0  0  0  0
M  END
>  <MODEL>
6

>  <REMARK>
 VINA RESULT:      -9.1      1.400      6.186
  Name = 
  3 active torsions:
  status: ('A' for Active; 'I' for Inactive)
    1  A    between atoms: C_9  and  C_15
    2  A    between atoms: C_13  and  C_22
    3  A    between atoms: C_14  and  N_17
                            x       y       z     vdW  Elec       q    Type
                         _______ _______ _______ _____ _____    ______ ____

>  <TORSDO>
F 3

$$$$
=
 OpenBabel11052413543D

 27 31  0  0  1  0  0  0  0  0999 V2000
  187.9660  177.6940  144.9630 N   0  0  0  0  0  0  0  0  0  0  0  0
  189.8250  177.2790  143.3710 C   0  0  0  0  0  0  0  0  0  0  0  0
  187.8110  177.3870  141.9660 N   0  0  0  0  0  0  0  0  0  0  0  0
  191.3130  177.2740  143.1960 C   0  0  0  0  0  3  0  0  0  0  0  0
  184.9540  178.3230  143.4680 C   0  0  0  0  0  0  0  0  0  0  0  0
  189.1340  176.8800  144.6440 C   0  0  1  0  0  3  0  0  0  0  0  0
  190.1740  177.4770  141.1320 N   0  0  0  0  0  0  0  0  0  0  0  0
  186.9770  177.9500  144.1650 C   0  0  0  0  0  0  0  0  0  0  0  0
  189.2300  177.3650  142.1930 C   0  0  0  0  0  0  0  0  0  0  0  0
  185.6310  177.8770  142.4320 O   0  0  0  0  0  0  0  0  0  0  0  0
  191.5160  177.4610  141.6940 C   0  0  0  0  0  3  0  0  0  0  0  0
  185.7510  178.4120  144.6000 C   0  0  0  0  0  3  0  0  0  0  0  0
  186.8660  177.6690  142.8130 C   0  0  0  0  0  0  0  0  0  0  0  0
  189.0560  178.6280  139.2640 C   0  0  0  0  0  3  0  0  0  0  0  0
  189.3600  177.8870  137.0140 N   0  0  0  0  0  0  0  0  0  0  0  0
  190.1850  176.8880  137.4290 C   0  0  0  0  0  3  0  0  0  0  0  0
  190.4680  176.7330  138.7870 C   0  0  0  0  0  3  0  0  0  0  0  0
  189.9010  177.6080  139.7230 C   0  0  0  0  0  0  0  0  0  0  0  0
  188.7950  178.7530  137.8980 C   0  0  0  0  0  3  0  0  0  0  0  0
  191.7410  176.7310  148.0610 C   0  0  0  0  0  3  0  0  0  0  0  0
  190.0560  176.8260  145.8240 C   0  0  0  0  0  0  0  0  0  0  0  0
  189.7350  177.5520  146.9780 C   0  0  0  0  0  3  0  0  0  0  0  0
  190.5760  177.5050  148.0940 C   0  0  0  0  0  3  0  0  0  0  0  0
  192.0640  176.0030  146.9120 C   0  0  0  0  0  3  0  0  0  0  0  0
  191.2230  176.0490  145.7950 C   0  0  0  0  0  3  0  0  0  0  0  0
  183.0380  179.0030  144.7470 N   0  0  0  0  0  1  0  0  0  0  0  0
  183.5190  178.7090  143.4100 C   0  0  0  0  0  2  0  0  0  0  0  0
  2  6  1  0  0  0  0
  3  9  1  0  0  0  0
  3 13  2  0  0  0  0
  4  2  1  0  0  0  0
  5 12  2  0  0  0  0
  6  1  1  0  0  0  0
  6 21  1  1  0  0  0
  7 11  1  0  0  0  0
  7  9  1  0  0  0  0
  8 12  1  0  0  0  0
  8  1  2  0  0  0  0
  9  2  2  0  0  0  0
 10 13  1  0  0  0  0
 10  5  1  0  0  0  0
 11  4  2  0  0  0  0
 13  8  1  0  0  0  0
 14 18  1  0  0  0  0
 15 16  2  0  0  0  0
 15 19  1  0  0  0  0
 16 17  1  0  0  0  0
 17 18  2  0  0  0  0
 18  7  1  0  0  0  0
 19 14  2  0  0  0  0
 20 23  1  0  0  0  0
 21 22  1  0  0  0  0
 22 23  2  0  0  0  0
 24 20  2  0  0  0  0
 25 21  2  0  0  0  0
 25 24  1  0  0  0  0
 27  5  1  0  0  0  0
 27 26  1  0  0  0  0
M  END
>  <MODEL>
7

>  <REMARK>
 VINA RESULT:      -8.9      1.535      5.452
  Name = 
  3 active torsions:
  status: ('A' for Active; 'I' for Inactive)
    1  A    between atoms: C_9  and  C_15
    2  A    between atoms: C_13  and  C_22
    3  A    between atoms: C_14  and  N_17
                            x       y       z     vdW  Elec       q    Type
                         _______ _______ _______ _____ _____    ______ ____

>  <TORSDO>
F 3

$$$$
=
 OpenBabel11052413543D

 27 31  0  0  1  0  0  0  0  0999 V2000
  190.1200  177.4650  143.3520 N   0  0  0  0  0  0  0  0  0  0  0  0
  188.2530  177.7730  141.7450 C   0  0  0  0  0  0  0  0  0  0  0  0
  187.1660  177.6200  143.9440 N   0  0  0  0  0  0  0  0  0  0  0  0
  187.8920  178.1550  140.3420 C   0  0  0  0  0  3  0  0  0  0  0  0
  189.1760  177.5830  146.6380 C   0  0  0  0  0  0  0  0  0  0  0  0
  189.5000  177.0190  142.1090 C   0  0  1  0  0  3  0  0  0  0  0  0
  186.0710  178.4100  141.8320 N   0  0  0  0  0  0  0  0  0  0  0  0
  189.5210  177.6000  144.4940 C   0  0  0  0  0  0  0  0  0  0  0  0
  187.2010  177.9040  142.5370 C   0  0  0  0  0  0  0  0  0  0  0  0
  187.9950  177.4880  146.0670 O   0  0  0  0  0  0  0  0  0  0  0  0
  186.4420  178.6270  140.4430 C   0  0  0  0  0  3  0  0  0  0  0  0
  190.1920  177.6770  145.6980 C   0  0  0  0  0  3  0  0  0  0  0  0
  188.1660  177.5240  144.7700 C   0  0  0  0  0  0  0  0  0  0  0  0
  183.6210  178.4510  141.5850 C   0  0  0  0  0  3  0  0  0  0  0  0
  182.2270  179.2400  143.3560 N   0  0  0  0  0  0  0  0  0  0  0  0
  183.3150  179.4900  144.1340 C   0  0  0  0  0  3  0  0  0  0  0  0
  184.5970  179.2240  143.6500 C   0  0  0  0  0  3  0  0  0  0  0  0
  184.7620  178.6980  142.3620 C   0  0  0  0  0  0  0  0  0  0  0  0
  182.3540  178.7300  142.1030 C   0  0  0  0  0  3  0  0  0  0  0  0
  192.3870  176.9630  138.9220 C   0  0  0  0  0  3  0  0  0  0  0  0
  190.5190  176.9980  141.0100 C   0  0  0  0  0  0  0  0  0  0  0  0
  190.1750  176.4510  139.7670 C   0  0  0  0  0  3  0  0  0  0  0  0
  191.1070  176.4330  138.7260 C   0  0  0  0  0  3  0  0  0  0  0  0
  192.7340  177.5120  140.1600 C   0  0  0  0  0  3  0  0  0  0  0  0
  191.8020  177.5310  141.2030 C   0  0  0  0  0  3  0  0  0  0  0  0
  188.1340  177.9730  148.7670 N   0  0  0  0  0  1  0  0  0  0  0  0
  189.3790  177.6170  148.1110 C   0  0  0  0  0  2  0  0  0  0  0  0
  1  8  2  0  0  0  0
  2  6  1  0  0  0  0
  2  9  2  0  0  0  0
  3 13  2  0  0  0  0
  4 11  2  0  0  0  0
  4  2  1  0  0  0  0
  5 27  1  0  0  0  0
  6 21  1  6  0  0  0
  6  1  1  0  0  0  0
  7 18  1  0  0  0  0
  7  9  1  0  0  0  0
  8 13  1  0  0  0  0
  8 12  1  0  0  0  0
  9  3  1  0  0  0  0
 10  5  1  0  0  0  0
 11  7  1  0  0  0  0
 12  5  2  0  0  0  0
 13 10  1  0  0  0  0
 14 19  2  0  0  0  0
 14 18  1  0  0  0  0
 15 16  2  0  0  0  0
 17 16  1  0  0  0  0
 18 17  2  0  0  0  0
 19 15  1  0  0  0  0
 20 24  1  0  0  0  0
 21 25  1  0  0  0  0
 22 21  2  0  0  0  0
 23 20  2  0  0  0  0
 23 22  1  0  0  0  0
 24 25  2  0  0  0  0
 27 26  1  0  0  0  0
M  END
>  <MODEL>
8

>  <REMARK>
 VINA RESULT:      -8.9      2.120      5.216
  Name = 
  3 active torsions:
  status: ('A' for Active; 'I' for Inactive)
    1  A    between atoms: C_9  and  C_15
    2  A    between atoms: C_13  and  C_22
    3  A    between atoms: C_14  and  N_17
                            x       y       z     vdW  Elec       q    Type
                         _______ _______ _______ _____ _____    ______ ____

>  <TORSDO>
F 3

$$$$
=
 OpenBabel11052413543D

 27 31  0  0  1  0  0  0  0  0999 V2000
  187.8570  177.8010  143.4080 N   0  0  0  0  0  0  0  0  0  0  0  0
  185.6160  178.3440  144.3270 C   0  0  0  0  0  0  0  0  0  0  0  0
  185.4670  178.9100  141.9390 N   0  0  0  0  0  0  0  0  0  0  0  0
  184.6950  178.1760  145.4970 C   0  0  0  0  0  3  0  0  0  0  0  0
  188.0730  178.0420  140.0030 C   0  0  0  0  0  0  0  0  0  0  0  0
  187.1060  178.4890  144.4520 C   0  0  1  0  0  3  0  0  0  0  0  0
  183.5230  178.6960  143.5080 N   0  0  0  0  0  0  0  0  0  0  0  0
  187.6630  177.9150  142.1320 C   0  0  0  0  0  0  0  0  0  0  0  0
  184.9230  178.6610  143.2450 C   0  0  0  0  0  0  0  0  0  0  0  0
  186.9190  178.6410  140.1990 O   0  0  0  0  0  0  0  0  0  0  0  0
  183.2990  178.3650  144.9070 C   0  0  0  0  0  3  0  0  0  0  0  0
  188.5960  177.5400  141.1860 C   0  0  0  0  0  3  0  0  0  0  0  0
  186.6280  178.5560  141.4720 C   0  0  0  0  0  0  0  0  0  0  0  0
  181.2550  179.5310  143.0370 C   0  0  0  0  0  3  0  0  0  0  0  0
  180.3990  179.5540  140.8080 N   0  0  0  0  0  0  0  0  0  0  0  0
  181.5580  179.0250  140.3310 C   0  0  0  0  0  3  0  0  0  0  0  0
  182.6060  178.7330  141.2060 C   0  0  0  0  0  3  0  0  0  0  0  0
  182.4620  178.9850  142.5770 C   0  0  0  0  0  0  0  0  0  0  0  0
  180.2290  179.8110  142.1320 C   0  0  0  0  0  3  0  0  0  0  0  0
  188.6430  177.3470  148.3030 C   0  0  0  0  0  3  0  0  0  0  0  0
  187.6260  178.0920  145.8010 C   0  0  0  0  0  0  0  0  0  0  0  0
  188.7360  177.2430  145.8840 C   0  0  0  0  0  3  0  0  0  0  0  0
  189.2430  176.8710  147.1330 C   0  0  0  0  0  3  0  0  0  0  0  0
  187.5360  178.1970  148.2250 C   0  0  0  0  0  3  0  0  0  0  0  0
  187.0270  178.5700  146.9760 C   0  0  0  0  0  3  0  0  0  0  0  0
  188.9930  179.2160  138.1190 N   0  0  0  0  0  1  0  0  0  0  0  0
  188.7120  177.9010  138.6670 C   0  0  0  0  0  2  0  0  0  0  0  0
  1  6  1  0  0  0  0
  2  6  1  0  0  0  0
  2  4  1  0  0  0  0
  3  9  1  0  0  0  0
  5 10  1  0  0  0  0
  5 12  2  0  0  0  0
  6 21  1  1  0  0  0
  7 11  1  0  0  0  0
  8  1  2  0  0  0  0
  9  7  1  0  0  0  0
  9  2  2  0  0  0  0
 10 13  1  0  0  0  0
 11  4  2  0  0  0  0
 12  8  1  0  0  0  0
 13  3  2  0  0  0  0
 13  8  1  0  0  0  0
 15 19  1  0  0  0  0
 16 15  2  0  0  0  0
 16 17  1  0  0  0  0
 17 18  2  0  0  0  0
 18 14  1  0  0  0  0
 18  7  1  0  0  0  0
 19 14  2  0  0  0  0
 21 22  2  0  0  0  0
 21 25  1  0  0  0  0
 22 23  1  0  0  0  0
 23 20  2  0  0  0  0
 24 20  1  0  0  0  0
 25 24  2  0  0  0  0
 26 27  1  0  0  0  0
 27  5  1  0  0  0  0
M  END
>  <MODEL>
9

>  <REMARK>
 VINA RESULT:      -8.8      1.508      2.083
  Name = 
  3 active torsions:
  status: ('A' for Active; 'I' for Inactive)
    1  A    between atoms: C_9  and  C_15
    2  A    between atoms: C_13  and  C_22
    3  A    between atoms: C_14  and  N_17
                            x       y       z     vdW  Elec       q    Type
                         _______ _______ _______ _____ _____    ______ ____

>  <TORSDO>
F 3

$$$$
