=
 OpenBabel11052413453D

 27 31  0  0  1  0  0  0  0  0999 V2000
  189.8910  178.6480  144.0540 N   0  0  0  0  0  2  0  0  0  0  0  0
  191.1030  177.6760  142.1050 C   0  0  0  0  0  0  0  0  0  0  0  0
  188.5450  177.3490  141.7190 N   0  0  0  0  0  0  0  0  0  0  0  0
  191.6950  176.6750  138.1280 C   0  0  0  0  0  3  0  0  0  0  0  0
  190.8810  175.8520  135.9800 F   0  0  0  0  0  0  0  0  0  0  0  0
  192.3230  177.7140  141.5520 C   0  0  0  0  0  3  0  0  0  0  0  0
  188.9350  176.6370  139.0650 C   0  0  0  0  0  2  0  0  0  0  0  0
  185.9440  177.9540  144.3320 C   0  0  0  0  0  0  0  0  0  0  0  0
  189.3380  176.2060  137.6790 C   0  0  0  0  0  3  0  0  0  0  0  0
  184.6890  178.0170  144.3710 O   0  0  0  0  0  0  0  0  0  0  0  0
  190.1040  176.9770  139.9630 C   0  0  0  0  0  0  0  0  0  0  0  0
  191.0780  177.9420  143.5840 C   0  0  2  0  0  3  0  0  0  0  0  0
  190.6000  176.2410  137.2470 C   0  0  0  0  0  0  0  0  0  0  0  0
  191.4700  177.0150  139.3950 C   0  0  0  0  0  0  0  0  0  0  0  0
  188.8090  177.6990  144.2440 C   0  0  1  0  0  3  0  0  0  0  0  0
  189.9100  177.3040  141.2590 C   0  0  0  0  0  0  0  0  0  0  0  0
  186.6330  177.7110  143.0600 C   0  0  0  0  0  2  0  0  0  0  0  0
  192.5300  177.4110  140.2050 O   0  0  0  0  0  0  0  0  0  0  0  0
  186.7310  178.1420  145.5520 C   0  0  0  0  0  3  0  0  0  0  0  0
  188.0590  178.0390  145.5100 C   0  0  0  0  0  3  0  0  0  0  0  0
  187.9650  177.6210  142.9970 C   0  0  0  0  0  0  0  0  0  0  0  0
  192.2570  174.6580  146.1150 C   0  0  0  0  0  3  0  0  0  0  0  0
  191.5090  176.7860  144.4530 C   0  0  0  0  0  0  0  0  0  0  0  0
  191.7580  175.5170  143.9080 C   0  0  0  0  0  3  0  0  0  0  0  0
  192.1330  174.4560  144.7370 C   0  0  0  0  0  3  0  0  0  0  0  0
  192.0020  175.9180  146.6630 C   0  0  0  0  0  3  0  0  0  0  0  0
  191.6270  176.9790  145.8340 C   0  0  0  0  0  3  0  0  0  0  0  0
  1 15  1  0  0  0  0
  2 12  1  0  0  0  0
  3 21  2  0  0  0  0
  4 14  2  0  0  0  0
  5 13  1  0  0  0  0
  6  2  2  0  0  0  0
  7 11  1  0  0  0  0
  8 10  2  0  0  0  0
  8 19  1  0  0  0  0
  9  7  1  0  0  0  0
 11 16  2  0  0  0  0
 12  1  1  0  0  0  0
 12 23  1  1  0  0  0
 13  9  2  0  0  0  0
 13  4  1  0  0  0  0
 14 11  1  0  0  0  0
 14 18  1  0  0  0  0
 15 20  1  1  0  0  0
 16  3  1  0  0  0  0
 16  2  1  0  0  0  0
 17  8  1  0  0  0  0
 18  6  1  0  0  0  0
 20 19  2  0  0  0  0
 21 17  1  0  0  0  0
 21 15  1  0  0  0  0
 22 26  1  0  0  0  0
 23 27  1  0  0  0  0
 24 23  2  0  0  0  0
 24 25  1  0  0  0  0
 25 22  2  0  0  0  0
 27 26  2  0  0  0  0
M  END
>  <MODEL>
1

>  <REMARK>
 VINA RESULT:      -8.7      0.000      0.000
  Name = 
  1 active torsions:
  status: ('A' for Active; 'I' for Inactive)
    1  A    between atoms: C_9  and  C_15
                            x       y       z     vdW  Elec       q    Type
                         _______ _______ _______ _____ _____    ______ ____

>  <TORSDO>
F 1

$$$$
=
 OpenBabel11052413453D

 27 31  0  0  1  0  0  0  0  0999 V2000
  189.8910  178.6610  144.7170 N   0  0  0  0  0  2  0  0  0  0  0  0
  190.9050  177.8170  142.6020 C   0  0  0  0  0  0  0  0  0  0  0  0
  188.3140  177.5750  142.4180 N   0  0  0  0  0  0  0  0  0  0  0  0
  191.1250  177.1140  138.5240 C   0  0  0  0  0  3  0  0  0  0  0  0
  190.1070  176.4770  136.4000 F   0  0  0  0  0  0  0  0  0  0  0  0
  192.0730  177.8730  141.9480 C   0  0  0  0  0  3  0  0  0  0  0  0
  188.4560  177.0610  139.6940 C   0  0  0  0  0  2  0  0  0  0  0  0
  185.9660  178.0310  145.2870 C   0  0  0  0  0  0  0  0  0  0  0  0
  188.7260  176.7310  138.2500 C   0  0  0  0  0  3  0  0  0  0  0  0
  184.7200  178.1170  145.4400 O   0  0  0  0  0  0  0  0  0  0  0  0
  189.7070  177.3070  140.5080 C   0  0  0  0  0  0  0  0  0  0  0  0
  191.0140  177.9680  144.0930 C   0  0  2  0  0  3  0  0  0  0  0  0
  189.9470  176.7720  137.7120 C   0  0  0  0  0  0  0  0  0  0  0  0
  191.0200  177.3600  139.8280 C   0  0  0  0  0  0  0  0  0  0  0  0
  188.8040  177.7230  144.9290 C   0  0  1  0  0  3  0  0  0  0  0  0
  189.6340  177.5360  141.8380 C   0  0  0  0  0  0  0  0  0  0  0  0
  186.5360  177.8720  143.9450 C   0  0  0  0  0  2  0  0  0  0  0  0
  192.1560  177.6700  140.5700 O   0  0  0  0  0  0  0  0  0  0  0  0
  186.8590  178.1080  146.4430 C   0  0  0  0  0  3  0  0  0  0  0  0
  188.1750  177.9800  146.2780 C   0  0  0  0  0  3  0  0  0  0  0  0
  187.8550  177.7600  143.7590 C   0  0  0  0  0  0  0  0  0  0  0  0
  192.4110  174.4470  146.1470 C   0  0  0  0  0  3  0  0  0  0  0  0
  191.4860  176.7400  144.8310 C   0  0  0  0  0  0  0  0  0  0  0  0
  191.7240  176.7660  146.2140 C   0  0  0  0  0  3  0  0  0  0  0  0
  192.1840  175.6210  146.8700 C   0  0  0  0  0  3  0  0  0  0  0  0
  192.1830  174.4180  144.7690 C   0  0  0  0  0  3  0  0  0  0  0  0
  191.7230  175.5630  144.1120 C   0  0  0  0  0  3  0  0  0  0  0  0
  1 15  1  0  0  0  0
  2 12  1  0  0  0  0
  3 21  2  0  0  0  0
  4 14  2  0  0  0  0
  5 13  1  0  0  0  0
  6  2  2  0  0  0  0
  7 11  1  0  0  0  0
  8 10  2  0  0  0  0
  8 19  1  0  0  0  0
  9  7  1  0  0  0  0
 11 16  2  0  0  0  0
 12  1  1  0  0  0  0
 12 23  1  1  0  0  0
 13  9  2  0  0  0  0
 13  4  1  0  0  0  0
 14 11  1  0  0  0  0
 14 18  1  0  0  0  0
 15 20  1  1  0  0  0
 16  3  1  0  0  0  0
 16  2  1  0  0  0  0
 17  8  1  0  0  0  0
 18  6  1  0  0  0  0
 20 19  2  0  0  0  0
 21 17  1  0  0  0  0
 21 15  1  0  0  0  0
 22 25  1  0  0  0  0
 23 24  1  0  0  0  0
 24 25  2  0  0  0  0
 26 22  2  0  0  0  0
 27 26  1  0  0  0  0
 27 23  2  0  0  0  0
M  END
>  <MODEL>
2

>  <REMARK>
 VINA RESULT:      -8.3      0.704      1.179
  Name = 
  1 active torsions:
  status: ('A' for Active; 'I' for Inactive)
    1  A    between atoms: C_9  and  C_15
                            x       y       z     vdW  Elec       q    Type
                         _______ _______ _______ _____ _____    ______ ____

>  <TORSDO>
F 1

$$$$
=
 OpenBabel11052413453D

 27 31  0  0  1  0  0  0  0  0999 V2000
  184.9290  179.3990  138.8760 N   0  0  0  0  0  2  0  0  0  0  0  0
  183.8730  178.9560  141.0900 C   0  0  0  0  0  0  0  0  0  0  0  0
  186.4070  178.3650  141.2630 N   0  0  0  0  0  2  0  0  0  0  0  0
  183.6820  178.7620  145.2250 C   0  0  0  0  0  3  0  0  0  0  0  0
  184.6650  178.2300  147.3940 F   0  0  0  0  0  0  0  0  0  0  0  0
  182.7450  179.2540  141.7500 C   0  0  0  0  0  3  0  0  0  0  0  0
  186.2790  178.1910  144.0300 C   0  0  0  0  0  3  0  0  0  0  0  0
  188.7060  178.1470  138.3270 C   0  0  0  0  0  0  0  0  0  0  0  0
  186.0100  178.0700  145.5070 C   0  0  0  0  0  3  0  0  0  0  0  0
  189.9450  178.0340  138.1460 O   0  0  0  0  0  0  0  0  0  0  0  0
  185.0510  178.5200  143.2110 C   0  0  0  0  0  0  0  0  0  0  0  0
  183.7400  178.9510  139.5930 C   0  0  2  0  0  3  0  0  0  0  0  0
  184.8240  178.3480  146.0540 C   0  0  0  0  0  0  0  0  0  0  0  0
  183.7810  178.8390  143.9000 C   0  0  1  0  0  3  0  0  0  0  0  0
  185.8650  178.2960  138.7600 C   0  0  1  0  0  3  0  0  0  0  0  0
  185.1140  178.5840  141.8630 C   0  0  0  0  0  0  0  0  0  0  0  0
  188.1610  178.2260  139.6870 C   0  0  0  0  0  3  0  0  0  0  0  0
  182.6770  179.2240  143.1430 O   0  0  0  0  0  0  0  0  0  0  0  0
  187.7970  178.2200  137.1830 C   0  0  0  0  0  3  0  0  0  0  0  0
  186.4820  178.3040  137.3810 C   0  0  0  0  0  3  0  0  0  0  0  0
  186.8460  178.3280  139.9030 C   0  0  0  0  0  0  0  0  0  0  0  0
  181.8840  175.4640  137.8690 C   0  0  0  0  0  3  0  0  0  0  0  0
  183.0760  177.7280  139.0110 C   0  0  0  0  0  0  0  0  0  0  0  0
  182.8790  176.5700  139.7780 C   0  0  0  0  0  3  0  0  0  0  0  0
  182.2820  175.4410  139.2080 C   0  0  0  0  0  3  0  0  0  0  0  0
  182.0860  176.6120  137.0980 C   0  0  0  0  0  3  0  0  0  0  0  0
  182.6820  177.7410  137.6680 C   0  0  0  0  0  3  0  0  0  0  0  0
  1 12  1  0  0  0  0
  2  6  2  0  0  0  0
  2 16  1  0  0  0  0
  3 16  1  0  0  0  0
  4 13  2  0  0  0  0
  6 18  1  0  0  0  0
  7  9  2  0  0  0  0
  8 17  1  0  0  0  0
  9 13  1  0  0  0  0
 10  8  2  0  0  0  0
 11 14  1  0  0  0  0
 11  7  1  0  0  0  0
 12 23  1  6  0  0  0
 12  2  1  0  0  0  0
 13  5  1  0  0  0  0
 14  4  1  6  0  0  0
 15 20  1  6  0  0  0
 15  1  1  0  0  0  0
 15 21  1  0  0  0  0
 16 11  2  0  0  0  0
 17 21  2  0  0  0  0
 18 14  1  0  0  0  0
 19 20  2  0  0  0  0
 19  8  1  0  0  0  0
 21  3  1  0  0  0  0
 22 25  1  0  0  0  0
 23 24  1  0  0  0  0
 25 24  2  0  0  0  0
 26 27  1  0  0  0  0
 26 22  2  0  0  0  0
 27 23  2  0  0  0  0
M  END
>  <MODEL>
3

>  <REMARK>
 VINA RESULT:      -8.3      4.659      9.041
  Name = 
  1 active torsions:
  status: ('A' for Active; 'I' for Inactive)
    1  A    between atoms: C_9  and  C_15
                            x       y       z     vdW  Elec       q    Type
                         _______ _______ _______ _____ _____    ______ ____

>  <TORSDO>
F 1

$$$$
=
 OpenBabel11052413453D

 27 31  0  0  1  0  0  0  0  0999 V2000
  182.1710  177.7480  140.5970 N   0  0  0  0  0  2  0  0  0  0  0  0
  183.8360  178.0130  138.7610 C   0  0  0  0  0  0  0  0  0  0  0  0
  185.0310  178.5190  141.0240 N   0  0  0  0  0  0  0  0  0  0  0  0
  187.5740  177.8330  136.9820 C   0  0  0  0  0  3  0  0  0  0  0  0
  189.9940  178.1380  137.0420 F   0  0  0  0  0  0  0  0  0  0  0  0
  183.9770  177.6860  137.4700 C   0  0  0  0  0  3  0  0  0  0  0  0
  187.5360  178.4420  139.8320 C   0  0  0  0  0  3  0  0  0  0  0  0
  183.2460  178.9450  144.2780 C   0  0  0  0  0  0  0  0  0  0  0  0
  188.7980  178.4350  139.0110 C   0  0  0  0  0  3  0  0  0  0  0  0
  183.5700  179.0410  145.4890 O   0  0  0  0  0  0  0  0  0  0  0  0
  186.2780  178.2220  139.0210 C   0  0  0  0  0  0  0  0  0  0  0  0
  182.4120  178.1590  139.2180 C   0  0  2  0  0  3  0  0  0  0  0  0
  188.8150  178.1390  137.7090 C   0  0  0  0  0  0  0  0  0  0  0  0
  186.3890  177.8750  137.5870 C   0  0  1  0  0  3  0  0  0  0  0  0
  182.5310  178.8320  141.4930 C   0  0  1  0  0  3  0  0  0  0  0  0
  185.0600  178.2800  139.6020 C   0  0  0  0  0  0  0  0  0  0  0  0
  184.2750  178.7560  143.2500 C   0  0  0  0  0  2  0  0  0  0  0  0
  185.2320  177.5900  136.8670 O   0  0  0  0  0  0  0  0  0  0  0  0
  181.8380  179.0010  143.8830 C   0  0  0  0  0  3  0  0  0  0  0  0
  181.5040  178.9340  142.5960 C   0  0  0  0  0  3  0  0  0  0  0  0
  183.9560  178.6700  141.9550 C   0  0  0  0  0  0  0  0  0  0  0  0
  180.4280  181.8250  138.1210 C   0  0  0  0  0  3  0  0  0  0  0  0
  181.7370  179.4480  138.8170 C   0  0  0  0  0  0  0  0  0  0  0  0
  182.4600  180.6440  138.7010 C   0  0  0  0  0  3  0  0  0  0  0  0
  181.8060  181.8300  138.3520 C   0  0  0  0  0  3  0  0  0  0  0  0
  179.7020  180.6370  138.2430 C   0  0  0  0  0  3  0  0  0  0  0  0
  180.3560  179.4510  138.5930 C   0  0  0  0  0  3  0  0  0  0  0  0
  1 15  1  0  0  0  0
  2 12  1  0  0  0  0
  2 16  1  0  0  0  0
  3 21  2  0  0  0  0
  4 13  2  0  0  0  0
  5 13  1  0  0  0  0
  6  2  2  0  0  0  0
  8 10  2  0  0  0  0
  9  7  2  0  0  0  0
 11 16  2  0  0  0  0
 11  7  1  0  0  0  0
 12 23  1  1  0  0  0
 12  1  1  0  0  0  0
 13  9  1  0  0  0  0
 14  4  1  6  0  0  0
 14 11  1  0  0  0  0
 15 21  1  0  0  0  0
 15 20  1  1  0  0  0
 16  3  1  0  0  0  0
 17  8  1  0  0  0  0
 18  6  1  0  0  0  0
 18 14  1  0  0  0  0
 19  8  1  0  0  0  0
 20 19  2  0  0  0  0
 21 17  1  0  0  0  0
 22 26  2  0  0  0  0
 22 25  1  0  0  0  0
 24 23  1  0  0  0  0
 25 24  2  0  0  0  0
 26 27  1  0  0  0  0
 27 23  2  0  0  0  0
M  END
>  <MODEL>
4

>  <REMARK>
 VINA RESULT:      -7.4      5.178      8.260
  Name = 
  1 active torsions:
  status: ('A' for Active; 'I' for Inactive)
    1  A    between atoms: C_9  and  C_15
                            x       y       z     vdW  Elec       q    Type
                         _______ _______ _______ _____ _____    ______ ____

>  <TORSDO>
F 1

$$$$
=
 OpenBabel11052413453D

 27 31  0  0  1  0  0  0  0  0999 V2000
  189.5850  177.8710  137.0750 N   0  0  0  0  0  2  0  0  0  0  0  0
  188.4020  177.7980  139.2670 C   0  0  0  0  0  0  0  0  0  0  0  0
  190.5850  176.3870  139.4730 N   0  0  0  0  0  2  0  0  0  0  0  0
  188.0820  177.6570  143.3970 C   0  0  0  0  0  3  0  0  0  0  0  0
  188.7890  176.8140  145.5740 F   0  0  0  0  0  0  0  0  0  0  0  0
  187.4290  178.4550  139.9130 C   0  0  0  0  0  3  0  0  0  0  0  0
  190.3560  176.2510  142.2350 C   0  0  0  0  0  3  0  0  0  0  0  0
  192.7290  175.4240  136.5700 C   0  0  0  0  0  0  0  0  0  0  0  0
  190.0350  176.2190  143.7060 C   0  0  0  0  0  3  0  0  0  0  0  0
  193.8620  174.9000  136.4060 O   0  0  0  0  0  0  0  0  0  0  0  0
  189.3260  176.9790  141.4010 C   0  0  0  0  0  0  0  0  0  0  0  0
  188.3020  177.8460  137.7680 C   0  0  2  0  0  3  0  0  0  0  0  0
  189.0030  176.8780  144.2380 C   0  0  0  0  0  0  0  0  0  0  0  0
  188.2250  177.7040  142.0740 C   0  0  1  0  0  3  0  0  0  0  0  0
  190.0970  176.5180  136.9600 C   0  0  1  0  0  3  0  0  0  0  0  0
  189.4310  177.0250  140.0550 C   0  0  0  0  0  0  0  0  0  0  0  0
  192.2190  175.6740  137.9210 C   0  0  0  0  0  3  0  0  0  0  0  0
  187.3290  178.4420  141.3050 O   0  0  0  0  0  0  0  0  0  0  0  0
  191.9190  175.8040  135.4120 C   0  0  0  0  0  3  0  0  0  0  0  0
  190.7060  176.3250  135.5910 C   0  0  0  0  0  3  0  0  0  0  0  0
  191.0110  176.2110  138.1190 C   0  0  0  0  0  0  0  0  0  0  0  0
  185.3820  175.2340  135.9710 C   0  0  0  0  0  3  0  0  0  0  0  0
  187.2750  176.9210  137.1630 C   0  0  0  0  0  0  0  0  0  0  0  0
  187.2390  175.5580  137.4900 C   0  0  0  0  0  3  0  0  0  0  0  0
  186.2920  174.7170  136.8970 C   0  0  0  0  0  3  0  0  0  0  0  0
  185.4200  176.5910  135.6350 C   0  0  0  0  0  3  0  0  0  0  0  0
  186.3670  177.4320  136.2290 C   0  0  0  0  0  3  0  0  0  0  0  0
  1 12  1  0  0  0  0
  2  6  2  0  0  0  0
  2 16  1  0  0  0  0
  3 16  1  0  0  0  0
  4 13  2  0  0  0  0
  6 18  1  0  0  0  0
  7  9  2  0  0  0  0
  8 17  1  0  0  0  0
  9 13  1  0  0  0  0
 10  8  2  0  0  0  0
 11 14  1  0  0  0  0
 11  7  1  0  0  0  0
 12 23  1  6  0  0  0
 12  2  1  0  0  0  0
 13  5  1  0  0  0  0
 14  4  1  6  0  0  0
 15 20  1  6  0  0  0
 15  1  1  0  0  0  0
 15 21  1  0  0  0  0
 16 11  2  0  0  0  0
 17 21  2  0  0  0  0
 18 14  1  0  0  0  0
 19 20  2  0  0  0  0
 19  8  1  0  0  0  0
 21  3  1  0  0  0  0
 22 25  1  0  0  0  0
 23 24  1  0  0  0  0
 25 24  2  0  0  0  0
 26 22  2  0  0  0  0
 26 27  1  0  0  0  0
 27 23  2  0  0  0  0
M  END
>  <MODEL>
5

>  <REMARK>
 VINA RESULT:      -7.4      3.210      8.088
  Name = 
  1 active torsions:
  status: ('A' for Active; 'I' for Inactive)
    1  A    between atoms: C_9  and  C_15
                            x       y       z     vdW  Elec       q    Type
                         _______ _______ _______ _____ _____    ______ ____

>  <TORSDO>
F 1

$$$$
=
 OpenBabel11052413453D

 27 31  0  0  1  0  0  0  0  0999 V2000
  182.2390  178.7710  138.1970 N   0  0  0  0  0  2  0  0  0  0  0  0
  182.0280  178.6240  140.6770 C   0  0  0  0  0  0  0  0  0  0  0  0
  184.5010  178.1000  140.0360 N   0  0  0  0  0  2  0  0  0  0  0  0
  183.2690  179.0030  144.6130 C   0  0  0  0  0  3  0  0  0  0  0  0
  184.9620  178.7920  146.3560 F   0  0  0  0  0  0  0  0  0  0  0  0
  181.1770  178.9950  141.6430 C   0  0  0  0  0  3  0  0  0  0  0  0
  185.3340  178.3100  142.6750 C   0  0  0  0  0  2  0  0  0  0  0  0
  185.6720  177.5100  136.5390 C   0  0  0  0  0  0  0  0  0  0  0  0
  185.5920  178.3900  144.1570 C   0  0  0  0  0  3  0  0  0  0  0  0
  186.7810  177.3900  135.9560 O   0  0  0  0  0  0  0  0  0  0  0  0
  183.8820  178.5040  142.2970 C   0  0  0  0  0  0  0  0  0  0  0  0
  181.3940  178.4100  139.3310 C   0  0  2  0  0  3  0  0  0  0  0  0
  184.6480  178.7250  145.0410 C   0  0  0  0  0  0  0  0  0  0  0  0
  182.9060  178.8970  143.3360 C   0  0  0  0  0  0  0  0  0  0  0  0
  183.1450  177.6760  137.9040 C   0  0  1  0  0  3  0  0  0  0  0  0
  183.4790  178.3810  141.0130 C   0  0  0  0  0  0  0  0  0  0  0  0
  185.6190  177.7690  137.9810 C   0  0  0  0  0  3  0  0  0  0  0  0
  181.5890  179.1570  142.9660 O   0  0  0  0  0  0  0  0  0  0  0  0
  184.4250  177.4100  135.7790 C   0  0  0  0  0  3  0  0  0  0  0  0
  183.2540  177.5010  136.4070 C   0  0  0  0  0  3  0  0  0  0  0  0
  184.4530  177.8800  138.6250 C   0  0  0  0  0  0  0  0  0  0  0  0
  179.2660  174.6980  138.8040 C   0  0  0  0  0  3  0  0  0  0  0  0
  180.6480  177.1080  139.1730 C   0  0  0  0  0  0  0  0  0  0  0  0
  180.9870  175.9760  139.9290 C   0  0  0  0  0  3  0  0  0  0  0  0
  180.2960  174.7750  139.7470 C   0  0  0  0  0  3  0  0  0  0  0  0
  178.9310  175.8210  138.0420 C   0  0  0  0  0  3  0  0  0  0  0  0
  179.6220  177.0220  138.2250 C   0  0  0  0  0  3  0  0  0  0  0  0
  1 12  1  0  0  0  0
  2 16  1  0  0  0  0
  2  6  2  0  0  0  0
  3 16  1  0  0  0  0
  4 13  1  0  0  0  0
  6 18  1  0  0  0  0
  7  9  1  0  0  0  0
  8 17  1  0  0  0  0
  9 13  2  0  0  0  0
 10  8  2  0  0  0  0
 11  7  1  0  0  0  0
 11 14  1  0  0  0  0
 12 23  1  6  0  0  0
 12  2  1  0  0  0  0
 13  5  1  0  0  0  0
 14  4  2  0  0  0  0
 15 20  1  6  0  0  0
 15  1  1  0  0  0  0
 15 21  1  0  0  0  0
 16 11  2  0  0  0  0
 17 21  2  0  0  0  0
 18 14  1  0  0  0  0
 19 20  2  0  0  0  0
 19  8  1  0  0  0  0
 21  3  1  0  0  0  0
 22 25  1  0  0  0  0
 23 24  1  0  0  0  0
 25 24  2  0  0  0  0
 26 27  1  0  0  0  0
 26 22  2  0  0  0  0
 27 23  2  0  0  0  0
M  END
>  <MODEL>
6

>  <REMARK>
 VINA RESULT:      -7.2      6.065     10.178
  Name = 
  1 active torsions:
  status: ('A' for Active; 'I' for Inactive)
    1  A    between atoms: C_9  and  C_15
                            x       y       z     vdW  Elec       q    Type
                         _______ _______ _______ _____ _____    ______ ____

>  <TORSDO>
F 1

$$$$
=
 OpenBabel11052413453D

 27 31  0  0  1  0  0  0  0  0999 V2000
  186.4080  178.9410  137.9500 N   0  0  0  0  0  2  0  0  0  0  0  0
  184.7810  178.7670  139.8300 C   0  0  0  0  0  0  0  0  0  0  0  0
  187.1370  178.1000  140.7270 N   0  0  0  0  0  2  0  0  0  0  0  0
  183.4970  179.0030  143.7630 C   0  0  0  0  0  3  0  0  0  0  0  0
  183.8380  178.6570  146.1530 F   0  0  0  0  0  0  0  0  0  0  0  0
  183.5410  179.1740  140.1340 C   0  0  0  0  0  3  0  0  0  0  0  0
  186.2740  178.2140  143.3630 C   0  0  0  0  0  3  0  0  0  0  0  0
  190.1080  177.4960  138.5460 C   0  0  0  0  0  0  0  0  0  0  0  0
  185.6190  178.2540  144.7180 C   0  0  0  0  0  3  0  0  0  0  0  0
  191.3420  177.3170  138.7150 O   0  0  0  0  0  0  0  0  0  0  0  0
  185.3290  178.5050  142.2190 C   0  0  0  0  0  0  0  0  0  0  0  0
  185.0460  178.6150  138.3580 C   0  0  2  0  0  3  0  0  0  0  0  0
  184.3520  178.6320  144.9010 C   0  0  0  0  0  0  0  0  0  0  0  0
  183.9450  178.9410  142.5110 C   0  0  1  0  0  3  0  0  0  0  0  0
  187.2690  177.7970  138.1860 C   0  0  1  0  0  3  0  0  0  0  0  0
  185.7490  178.4280  140.9370 C   0  0  0  0  0  0  0  0  0  0  0  0
  189.2310  177.7340  139.6970 C   0  0  0  0  0  3  0  0  0  0  0  0
  183.1070  179.2890  141.4560 O   0  0  0  0  0  0  0  0  0  0  0  0
  189.5390  177.4860  137.1980 C   0  0  0  0  0  3  0  0  0  0  0  0
  188.2260  177.6410  137.0280 C   0  0  0  0  0  3  0  0  0  0  0  0
  187.9150  177.9070  139.5440 C   0  0  0  0  0  0  0  0  0  0  0  0
  183.4940  175.0390  136.5190 C   0  0  0  0  0  3  0  0  0  0  0  0
  184.4810  177.3650  137.7290 C   0  0  0  0  0  0  0  0  0  0  0  0
  183.8950  176.3570  138.5090 C   0  0  0  0  0  3  0  0  0  0  0  0
  183.4000  175.1980  137.9040 C   0  0  0  0  0  3  0  0  0  0  0  0
  184.0850  176.0370  135.7390 C   0  0  0  0  0  3  0  0  0  0  0  0
  184.5790  177.1970  136.3440 C   0  0  0  0  0  3  0  0  0  0  0  0
  1 15  1  0  0  0  0
  1 12  1  0  0  0  0
  2  6  2  0  0  0  0
  2 16  1  0  0  0  0
  3 16  1  0  0  0  0
  4 13  2  0  0  0  0
  6 18  1  0  0  0  0
  7  9  2  0  0  0  0
  8 10  2  0  0  0  0
  8 17  1  0  0  0  0
  9 13  1  0  0  0  0
 11 14  1  0  0  0  0
 11  7  1  0  0  0  0
 12 23  1  1  0  0  0
 12  2  1  0  0  0  0
 13  5  1  0  0  0  0
 14  4  1  6  0  0  0
 15 20  1  6  0  0  0
 15 21  1  0  0  0  0
 16 11  2  0  0  0  0
 18 14  1  0  0  0  0
 19  8  1  0  0  0  0
 20 19  2  0  0  0  0
 21 17  2  0  0  0  0
 21  3  1  0  0  0  0
 22 25  1  0  0  0  0
 23 24  1  0  0  0  0
 25 24  2  0  0  0  0
 26 27  1  0  0  0  0
 26 22  2  0  0  0  0
 27 23  2  0  0  0  0
M  END
>  <MODEL>
7

>  <REMARK>
 VINA RESULT:      -7.2      4.394      8.756
  Name = 
  1 active torsions:
  status: ('A' for Active; 'I' for Inactive)
    1  A    between atoms: C_9  and  C_15
                            x       y       z     vdW  Elec       q    Type
                         _______ _______ _______ _____ _____    ______ ____

>  <TORSDO>
F 1

$$$$
=
 OpenBabel11052413453D

 27 31  0  0  1  0  0  0  0  0999 V2000
  189.4870  178.1470  137.2730 N   0  0  0  0  0  2  0  0  0  0  0  0
  187.3700  178.1750  138.5890 C   0  0  0  0  0  0  0  0  0  0  0  0
  189.3310  177.6030  140.2100 N   0  0  0  0  0  2  0  0  0  0  0  0
  184.9870  178.8280  141.9160 C   0  0  0  0  0  3  0  0  0  0  0  0
  184.5940  178.7360  144.3220 F   0  0  0  0  0  0  0  0  0  0  0  0
  186.1100  178.6140  138.4680 C   0  0  0  0  0  3  0  0  0  0  0  0
  187.7310  177.9960  142.4440 C   0  0  0  0  0  3  0  0  0  0  0  0
  192.7940  176.7660  139.0860 C   0  0  0  0  0  0  0  0  0  0  0  0
  186.7050  178.1800  143.5310 C   0  0  0  0  0  3  0  0  0  0  0  0
  193.9150  176.6030  139.6320 O   0  0  0  0  0  0  0  0  0  0  0  0
  187.1770  178.1660  141.0470 C   0  0  0  0  0  0  0  0  0  0  0  0
  188.0550  177.8680  137.2870 C   0  0  2  0  0  3  0  0  0  0  0  0
  185.4540  178.5780  143.2880 C   0  0  0  0  0  0  0  0  0  0  0  0
  185.7850  178.6330  140.8680 C   0  0  1  0  0  3  0  0  0  0  0  0
  190.2000  177.0320  137.8680 C   0  0  1  0  0  3  0  0  0  0  0  0
  187.9550  177.9540  139.9630 C   0  0  0  0  0  0  0  0  0  0  0  0
  191.6240  177.1250  139.8940 C   0  0  0  0  0  3  0  0  0  0  0  0
  185.3080  178.8690  139.5810 O   0  0  0  0  0  0  0  0  0  0  0  0
  192.6490  176.6150  137.6370 C   0  0  0  0  0  3  0  0  0  0  0  0
  191.4520  176.7520  137.0700 C   0  0  0  0  0  3  0  0  0  0  0  0
  190.4180  177.2840  139.3380 C   0  0  0  0  0  0  0  0  0  0  0  0
  186.9860  174.1370  135.4120 C   0  0  0  0  0  3  0  0  0  0  0  0
  187.6600  176.5590  136.6470 C   0  0  0  0  0  0  0  0  0  0  0  0
  187.3060  175.4460  137.4230 C   0  0  0  0  0  3  0  0  0  0  0  0
  186.9670  174.2380  136.8060 C   0  0  0  0  0  3  0  0  0  0  0  0
  187.3460  175.2410  134.6350 C   0  0  0  0  0  3  0  0  0  0  0  0
  187.6850  176.4490  135.2520 C   0  0  0  0  0  3  0  0  0  0  0  0
  1 12  1  0  0  0  0
  1 15  1  0  0  0  0
  2 16  1  0  0  0  0
  4 13  2  0  0  0  0
  6  2  2  0  0  0  0
  6 18  1  0  0  0  0
  7  9  2  0  0  0  0
  8 10  2  0  0  0  0
  8 17  1  0  0  0  0
 11  7  1  0  0  0  0
 12 23  1  1  0  0  0
 12  2  1  0  0  0  0
 13  9  1  0  0  0  0
 13  5  1  0  0  0  0
 14 11  1  0  0  0  0
 14  4  1  6  0  0  0
 15 20  1  6  0  0  0
 15 21  1  0  0  0  0
 16  3  1  0  0  0  0
 16 11  2  0  0  0  0
 18 14  1  0  0  0  0
 19  8  1  0  0  0  0
 20 19  2  0  0  0  0
 21 17  2  0  0  0  0
 21  3  1  0  0  0  0
 22 25  1  0  0  0  0
 23 24  1  0  0  0  0
 25 24  2  0  0  0  0
 26 27  1  0  0  0  0
 26 22  2  0  0  0  0
 27 23  2  0  0  0  0
M  END
>  <MODEL>
8

>  <REMARK>
 VINA RESULT:      -7.0      3.826      7.991
  Name = 
  1 active torsions:
  status: ('A' for Active; 'I' for Inactive)
    1  A    between atoms: C_9  and  C_15
                            x       y       z     vdW  Elec       q    Type
                         _______ _______ _______ _____ _____    ______ ____

>  <TORSDO>
F 1

$$$$
=
 OpenBabel11052413453D

 27 31  0  0  1  0  0  0  0  0999 V2000
  188.5850  178.6830  138.9700 N   0  0  0  0  0  2  0  0  0  0  0  0
  190.6900  177.3730  139.2290 C   0  0  0  0  0  0  0  0  0  0  0  0
  189.2610  176.2580  137.3530 N   0  0  0  0  0  2  0  0  0  0  0  0
  193.8960  175.0690  137.9710 C   0  0  0  0  0  3  0  0  0  0  0  0
  194.8470  173.2770  136.6150 F   0  0  0  0  0  0  0  0  0  0  0  0
  191.9030  177.5080  139.7800 C   0  0  0  0  0  3  0  0  0  0  0  0
  191.3910  174.6800  136.5310 C   0  0  0  0  0  2  0  0  0  0  0  0
  185.7040  177.1420  136.6330 C   0  0  0  0  0  0  0  0  0  0  0  0
  192.6250  173.8560  136.2700 C   0  0  0  0  0  3  0  0  0  0  0  0
  184.8640  176.8820  135.7340 O   0  0  0  0  0  0  0  0  0  0  0  0
  191.5340  175.6440  137.6880 C   0  0  0  0  0  0  0  0  0  0  0  0
  189.6100  178.1880  139.8830 C   0  0  2  0  0  3  0  0  0  0  0  0
  193.7760  174.0480  136.9180 C   0  0  0  0  0  0  0  0  0  0  0  0
  192.8540  175.8120  138.3370 C   0  0  0  0  0  0  0  0  0  0  0  0
  187.6040  177.6390  138.7360 C   0  0  1  0  0  3  0  0  0  0  0  0
  190.4890  176.3950  138.0970 C   0  0  0  0  0  0  0  0  0  0  0  0
  187.0660  176.6040  136.5510 C   0  0  0  0  0  3  0  0  0  0  0  0
  192.9980  176.7610  139.3440 O   0  0  0  0  0  0  0  0  0  0  0  0
  185.3360  178.0000  137.7610 C   0  0  0  0  0  3  0  0  0  0  0  0
  186.2190  178.2430  138.7280 C   0  0  0  0  0  3  0  0  0  0  0  0
  187.9700  176.8520  137.5040 C   0  0  0  0  0  0  0  0  0  0  0  0
  188.1720  176.5850  143.6170 C   0  0  0  0  0  3  0  0  0  0  0  0
  189.0820  177.6310  141.1820 C   0  0  0  0  0  0  0  0  0  0  0  0
  188.0420  178.2650  141.8790 C   0  0  0  0  0  3  0  0  0  0  0  0
  187.5870  177.7420  143.0930 C   0  0  0  0  0  3  0  0  0  0  0  0
  189.2130  175.9540  142.9300 C   0  0  0  0  0  3  0  0  0  0  0  0
  189.6680  176.4780  141.7160 C   0  0  0  0  0  3  0  0  0  0  0  0
  1 12  1  0  0  0  0
  2  6  2  0  0  0  0
  2 12  1  0  0  0  0
  3 21  1  0  0  0  0
  3 16  1  0  0  0  0
  4 14  2  0  0  0  0
  5 13  1  0  0  0  0
  7 11  1  0  0  0  0
  8 19  1  0  0  0  0
  9  7  1  0  0  0  0
  9 13  2  0  0  0  0
 10  8  2  0  0  0  0
 11 16  2  0  0  0  0
 11 14  1  0  0  0  0
 12 23  1  1  0  0  0
 13  4  1  0  0  0  0
 14 18  1  0  0  0  0
 15 20  1  6  0  0  0
 15  1  1  0  0  0  0
 16  2  1  0  0  0  0
 17  8  1  0  0  0  0
 17 21  2  0  0  0  0
 18  6  1  0  0  0  0
 19 20  2  0  0  0  0
 21 15  1  0  0  0  0
 23 27  2  0  0  0  0
 23 24  1  0  0  0  0
 24 25  2  0  0  0  0
 25 22  1  0  0  0  0
 26 22  2  0  0  0  0
 27 26  1  0  0  0  0
M  END
>  <MODEL>
9

>  <REMARK>
 VINA RESULT:      -6.9      3.154      5.028
  Name = 
  1 active torsions:
  status: ('A' for Active; 'I' for Inactive)
    1  A    between atoms: C_9  and  C_15
                            x       y       z     vdW  Elec       q    Type
                         _______ _______ _______ _____ _____    ______ ____

>  <TORSDO>
F 1

$$$$
