=
 OpenBabel11052413523D

 27 31  0  0  1  0  0  0  0  0999 V2000
  186.6680  177.6630  142.7850 C   0  0  0  0  0  2  0  0  0  0  0  0
  188.0120  177.8470  144.9290 C   0  0  1  0  0  3  0  0  0  0  0  0
  189.2470  176.2020  143.4150 C   0  0  0  0  0  2  0  0  0  0  0  0
  187.5310  178.0620  147.1920 C   0  0  1  0  0  3  0  0  0  0  0  0
  188.2300  178.6150  146.0860 O   0  0  0  0  0  0  0  0  0  0  0  0
  183.6510  179.5210  143.9730 C   0  0  0  0  0  2  0  0  0  0  0  0
  185.9270  179.1650  144.6470 N   0  0  1  0  0  0  0  0  0  0  0  0
  190.0690  177.5020  140.0620 C   0  0  0  0  0  3  0  0  0  0  0  0
  185.1060  178.1010  145.2360 C   0  0  2  0  0  3  0  0  0  0  0  0
  188.9330  178.4000  139.8260 C   0  0  0  0  0  0  0  0  0  0  0  0
  187.0840  178.5870  143.9420 C   0  0  2  0  0  3  0  0  0  0  0  0
  186.2050  178.7760  147.5020 C   0  0  2  0  0  3  0  0  0  0  0  0
  187.7800  177.5610  141.8010 C   0  0  0  0  0  0  0  0  0  0  0  0
  189.3660  177.4310  144.3300 C   0  0  1  0  0  3  0  0  0  0  0  0
  190.0380  176.6310  141.0710 C   0  0  0  0  0  3  0  0  0  0  0  0
  187.4050  176.6650  147.1650 O   0  0  0  0  0  1  0  0  0  0  0  0
  188.9310  179.1700  138.8310 O   0  0  0  0  0  0  0  0  0  0  0  0
  183.7380  178.1510  144.5910 C   0  0  0  0  0  2  0  0  0  0  0  0
  187.8210  178.4260  140.7830 C   0  0  0  0  0  3  0  0  0  0  0  0
  184.9630  178.2760  146.7500 C   0  0  0  0  0  2  0  0  0  0  0  0
  188.8290  176.4770  141.9640 C   0  0  1  0  0  3  0  0  0  0  0  0
  185.0870  179.9080  143.7100 C   0  0  0  0  0  2  0  0  0  0  0  0
  191.0920  179.1700  144.7750 C   0  0  0  0  0  2  0  0  0  0  0  0
  191.6370  178.2410  143.7120 C   0  0  0  0  0  2  0  0  0  0  0  0
  190.1610  178.5900  143.7270 C   0  0  0  0  0  3  0  0  0  0  0  0
  185.9140  180.7560  148.5540 O   0  0  0  0  0  1  0  0  0  0  0  0
  186.3360  180.2210  147.3830 N   0  0  0  0  0  2  0  0  0  0  0  0
  2  5  1  1  0  0  0
  3 14  1  0  0  0  0
  4 16  1  6  0  0  0
  4 12  1  0  0  0  0
  5  4  1  0  0  0  0
  6 18  1  0  0  0  0
  7 22  1  6  0  0  0
  7  9  1  0  0  0  0
  8 15  2  0  0  0  0
  9 18  1  6  0  0  0
  9 20  1  0  0  0  0
 10  8  1  0  0  0  0
 10 19  1  0  0  0  0
 11  1  1  6  0  0  0
 11  7  1  0  0  0  0
 11  2  1  0  0  0  0
 12 27  1  6  0  0  0
 13 21  1  0  0  0  0
 13  1  1  0  0  0  0
 14 25  1  6  0  0  0
 14  2  1  0  0  0  0
 17 10  2  0  0  0  0
 19 13  2  0  0  0  0
 20 12  1  0  0  0  0
 21 15  1  6  0  0  0
 21  3  1  0  0  0  0
 22  6  1  0  0  0  0
 24 25  1  0  0  0  0
 24 23  1  0  0  0  0
 25 23  1  0  0  0  0
 27 26  1  0  0  0  0
M  END
>  <MODEL>
1

>  <REMARK>
 VINA RESULT:      -6.3      0.000      0.000
  Name = 
  2 active torsions:
  status: ('A' for Active; 'I' for Inactive)
    1  A    between atoms: C_14  and  C_19
    2  A    between atoms: N_16  and  C_17
                            x       y       z     vdW  Elec       q    Type
                         _______ _______ _______ _____ _____    ______ ____

>  <TORSDO>
F 2

$$$$
=
 OpenBabel11052413523D

 27 31  0  0  1  0  0  0  0  0999 V2000
  183.1340  177.3820  137.3790 C   0  0  0  0  0  2  0  0  0  0  0  0
  185.3170  178.2340  138.3470 C   0  0  1  0  0  3  0  0  0  0  0  0
  183.5020  179.8990  139.0250 C   0  0  0  0  0  2  0  0  0  0  0  0
  187.5370  178.3050  137.6630 C   0  0  1  0  0  3  0  0  0  0  0  0
  186.6390  177.8890  138.6820 O   0  0  0  0  0  0  0  0  0  0  0  0
  184.6010  174.7030  135.2250 C   0  0  0  0  0  2  0  0  0  0  0  0
  185.2730  176.1260  137.0370 N   0  0  1  0  0  0  0  0  0  0  0  0
  180.6220  178.4150  140.7900 C   0  0  0  0  0  3  0  0  0  0  0  0
  185.5390  176.8340  135.7800 C   0  0  2  0  0  3  0  0  0  0  0  0
  180.5630  177.0910  140.1600 C   0  0  0  0  0  0  0  0  0  0  0  0
  184.5030  176.9830  137.9540 C   0  0  2  0  0  3  0  0  0  0  0  0
  187.9510  177.1740  136.7080 C   0  0  2  0  0  3  0  0  0  0  0  0
  182.2090  177.7440  138.4880 C   0  0  0  0  0  0  0  0  0  0  0  0
  184.7000  179.0550  139.4920 C   0  0  1  0  0  3  0  0  0  0  0  0
  181.3800  179.3760  140.2610 C   0  0  0  0  0  3  0  0  0  0  0  0
  187.1570  179.4760  136.9910 O   0  0  0  0  0  1  0  0  0  0  0  0
  179.7930  176.2070  140.6160 O   0  0  0  0  0  0  0  0  0  0  0  0
  184.8610  176.0730  134.6600 C   0  0  0  0  0  2  0  0  0  0  0  0
  181.4420  176.7900  139.0240 C   0  0  0  0  0  3  0  0  0  0  0  0
  187.0390  176.9290  135.4960 C   0  0  0  0  0  2  0  0  0  0  0  0
  182.1470  179.1800  138.9740 C   0  0  1  0  0  3  0  0  0  0  0  0
  184.5120  174.9200  136.7170 C   0  0  0  0  0  2  0  0  0  0  0  0
  185.6720  178.2940  141.6540 C   0  0  0  0  0  2  0  0  0  0  0  0
  184.4810  179.1730  141.9690 C   0  0  0  0  0  2  0  0  0  0  0  0
  184.4440  178.2500  140.7660 C   0  0  0  0  0  3  0  0  0  0  0  0
  189.4180  176.0520  138.0120 O   0  0  0  0  0  1  0  0  0  0  0  0
  188.2020  175.9340  137.4260 N   0  0  0  0  0  2  0  0  0  0  0  0
  1 13  1  0  0  0  0
  2  5  1  1  0  0  0
  2 14  1  0  0  0  0
  3 14  1  0  0  0  0
  4 16  1  6  0  0  0
  4  5  1  0  0  0  0
  6 22  1  0  0  0  0
  7 22  1  6  0  0  0
  7 11  1  0  0  0  0
  9 18  1  6  0  0  0
  9  7  1  0  0  0  0
 10 17  2  0  0  0  0
 10  8  1  0  0  0  0
 11  1  1  6  0  0  0
 11  2  1  0  0  0  0
 12 27  1  1  0  0  0
 12  4  1  0  0  0  0
 13 21  1  0  0  0  0
 13 19  2  0  0  0  0
 14 25  1  1  0  0  0
 15  8  2  0  0  0  0
 18  6  1  0  0  0  0
 19 10  1  0  0  0  0
 20  9  1  0  0  0  0
 20 12  1  0  0  0  0
 21  3  1  1  0  0  0
 21 15  1  0  0  0  0
 23 24  1  0  0  0  0
 25 23  1  0  0  0  0
 25 24  1  0  0  0  0
 27 26  1  0  0  0  0
M  END
>  <MODEL>
2

>  <REMARK>
 VINA RESULT:      -5.4      5.412      8.815
  Name = 
  2 active torsions:
  status: ('A' for Active; 'I' for Inactive)
    1  A    between atoms: C_14  and  C_19
    2  A    between atoms: N_16  and  C_17
                            x       y       z     vdW  Elec       q    Type
                         _______ _______ _______ _____ _____    ______ ____

>  <TORSDO>
F 2

$$$$
=
 OpenBabel11052413523D

 27 31  0  0  1  0  0  0  0  0999 V2000
  188.1490  177.3490  141.4330 C   0  0  0  0  0  2  0  0  0  0  0  0
  185.7490  178.0920  141.7780 C   0  0  1  0  0  3  0  0  0  0  0  0
  186.3900  176.6800  143.8080 C   0  0  0  0  0  2  0  0  0  0  0  0
  183.8830  178.4040  140.4290 C   0  0  1  0  0  3  0  0  0  0  0  0
  184.7580  179.0040  141.3720 O   0  0  0  0  0  0  0  0  0  0  0  0
  188.4700  178.4680  137.8820 C   0  0  0  0  0  2  0  0  0  0  0  0
  186.9880  178.7870  139.7430 N   0  0  1  0  0  0  0  0  0  0  0  0
  189.4270  177.8010  145.5760 C   0  0  0  0  0  3  0  0  0  0  0  0
  186.5310  177.6120  138.9930 C   0  0  2  0  0  3  0  0  0  0  0  0
  190.2130  178.3440  144.4620 C   0  0  0  0  0  0  0  0  0  0  0  0
  187.1200  178.4620  141.1730 C   0  0  2  0  0  3  0  0  0  0  0  0
  184.1980  178.7760  138.9720 C   0  0  2  0  0  3  0  0  0  0  0  0
  188.6440  177.4400  142.8330 C   0  0  0  0  0  0  0  0  0  0  0  0
  185.7450  177.9840  143.3130 C   0  0  1  0  0  3  0  0  0  0  0  0
  188.3460  177.0600  145.3360 C   0  0  0  0  0  3  0  0  0  0  0  0
  183.6840  177.0270  140.6100 O   0  0  0  0  0  1  0  0  0  0  0  0
  191.2740  178.9820  144.6870 O   0  0  0  0  0  0  0  0  0  0  0  0
  187.6110  177.2390  138.0000 C   0  0  0  0  0  2  0  0  0  0  0  0
  189.7290  178.1770  143.0870 C   0  0  0  0  0  3  0  0  0  0  0  0
  185.2270  177.8970  138.2450 C   0  0  0  0  0  2  0  0  0  0  0  0
  187.9200  176.6880  143.9350 C   0  0  1  0  0  3  0  0  0  0  0  0
  188.2840  179.1870  139.1960 C   0  0  0  0  0  2  0  0  0  0  0  0
  185.0790  180.1850  144.2700 C   0  0  0  0  0  2  0  0  0  0  0  0
  185.6100  179.3320  145.4010 C   0  0  0  0  0  2  0  0  0  0  0  0
  186.2420  179.2430  144.0250 C   0  0  0  0  0  3  0  0  0  0  0  0
  183.3740  180.8770  138.8360 O   0  0  0  0  0  1  0  0  0  0  0  0
  184.5380  180.1850  138.8420 N   0  0  0  0  0  2  0  0  0  0  0  0
  1 13  1  0  0  0  0
  2  5  1  1  0  0  0
  2 14  1  0  0  0  0
  4 16  1  6  0  0  0
  4  5  1  0  0  0  0
  6 18  1  0  0  0  0
  6 22  1  0  0  0  0
  7 22  1  6  0  0  0
  7 11  1  0  0  0  0
  9 18  1  6  0  0  0
  9  7  1  0  0  0  0
 10 17  2  0  0  0  0
 10  8  1  0  0  0  0
 11  1  1  6  0  0  0
 11  2  1  0  0  0  0
 12 27  1  1  0  0  0
 12  4  1  0  0  0  0
 13 19  2  0  0  0  0
 13 21  1  0  0  0  0
 14  3  1  0  0  0  0
 14 25  1  1  0  0  0
 15  8  2  0  0  0  0
 19 10  1  0  0  0  0
 20 12  1  0  0  0  0
 20  9  1  0  0  0  0
 21  3  1  1  0  0  0
 21 15  1  0  0  0  0
 23 24  1  0  0  0  0
 25 23  1  0  0  0  0
 25 24  1  0  0  0  0
 26 27  1  0  0  0  0
M  END
>  <MODEL>
3

>  <REMARK>
 VINA RESULT:      -5.3      3.013      5.993
  Name = 
  2 active torsions:
  status: ('A' for Active; 'I' for Inactive)
    1  A    between atoms: C_14  and  C_19
    2  A    between atoms: N_16  and  C_17
                            x       y       z     vdW  Elec       q    Type
                         _______ _______ _______ _____ _____    ______ ____

>  <TORSDO>
F 2

$$$$
=
 OpenBabel11052413523D

 27 31  0  0  1  0  0  0  0  0999 V2000
  192.1710  176.7600  137.8560 C   0  0  0  0  0  2  0  0  0  0  0  0
  190.6870  175.7540  136.0630 C   0  0  1  0  0  3  0  0  0  0  0  0
  193.0310  175.9480  135.0660 C   0  0  0  0  0  2  0  0  0  0  0  0
  188.4940  176.0410  135.3510 C   0  0  1  0  0  3  0  0  0  0  0  0
  189.4620  175.1110  135.8130 O   0  0  0  0  0  0  0  0  0  0  0  0
  189.4480  177.6860  140.2420 C   0  0  0  0  0  2  0  0  0  0  0  0
  189.7430  176.3250  138.2870 N   0  0  1  0  0  0  0  0  0  0  0  0
  195.6900  174.3200  137.0370 C   0  0  0  0  0  3  0  0  0  0  0  0
  189.3790  177.6770  137.8500 C   0  0  2  0  0  3  0  0  0  0  0  0
  195.1780  174.5030  138.4000 C   0  0  0  0  0  0  0  0  0  0  0  0
  190.9510  175.8670  137.5800 C   0  0  2  0  0  3  0  0  0  0  0  0
  187.5190  176.5100  136.4430 C   0  0  2  0  0  3  0  0  0  0  0  0
  193.4220  175.9930  137.6060 C   0  0  0  0  0  0  0  0  0  0  0  0
  191.8040  175.0460  135.2790 C   0  0  1  0  0  3  0  0  0  0  0  0
  195.1450  174.9880  136.0200 C   0  0  0  0  0  3  0  0  0  0  0  0
  189.0160  177.1010  134.5940 O   0  0  0  0  0  1  0  0  0  0  0  0
  195.7380  173.9300  139.3690 O   0  0  0  0  0  0  0  0  0  0  0  0
  189.4720  178.5990  139.0470 C   0  0  0  0  0  2  0  0  0  0  0  0
  193.9800  175.3220  138.6180 C   0  0  0  0  0  3  0  0  0  0  0  0
  187.9580  177.7190  137.2830 C   0  0  0  0  0  2  0  0  0  0  0  0
  194.0410  175.9990  136.2200 C   0  0  1  0  0  3  0  0  0  0  0  0
  189.9920  176.3750  139.7260 C   0  0  0  0  0  2  0  0  0  0  0  0
  191.1670  172.6400  135.2050 C   0  0  0  0  0  2  0  0  0  0  0  0
  192.5650  172.7630  134.6400 C   0  0  0  0  0  2  0  0  0  0  0  0
  192.1350  173.6460  135.7970 C   0  0  0  0  0  3  0  0  0  0  0  0
  186.1100  174.7550  136.6550 O   0  0  0  0  0  1  0  0  0  0  0  0
  187.1070  175.4080  137.3000 N   0  0  0  0  0  2  0  0  0  0  0  0
  2  5  1  1  0  0  0
  2 11  1  0  0  0  0
  3 14  1  0  0  0  0
  4 16  1  1  0  0  0
  4  5  1  0  0  0  0
  4 12  1  0  0  0  0
  7 22  1  1  0  0  0
  8 10  1  0  0  0  0
  9 20  1  1  0  0  0
  9  7  1  0  0  0  0
  9 18  1  0  0  0  0
 10 19  1  0  0  0  0
 10 17  2  0  0  0  0
 11  1  1  6  0  0  0
 11  7  1  0  0  0  0
 12 20  1  0  0  0  0
 12 27  1  1  0  0  0
 13  1  1  0  0  0  0
 13 19  2  0  0  0  0
 14 25  1  1  0  0  0
 14  2  1  0  0  0  0
 15 21  1  0  0  0  0
 15  8  2  0  0  0  0
 18  6  1  0  0  0  0
 21  3  1  6  0  0  0
 21 13  1  0  0  0  0
 22  6  1  0  0  0  0
 23 25  1  0  0  0  0
 24 23  1  0  0  0  0
 24 25  1  0  0  0  0
 26 27  1  0  0  0  0
M  END
>  <MODEL>
4

>  <REMARK>
 VINA RESULT:      -5.1      6.437      9.397
  Name = 
  2 active torsions:
  status: ('A' for Active; 'I' for Inactive)
    1  A    between atoms: C_14  and  C_19
    2  A    between atoms: N_16  and  C_17
                            x       y       z     vdW  Elec       q    Type
                         _______ _______ _______ _____ _____    ______ ____

>  <TORSDO>
F 2

$$$$
=
 OpenBabel11052413523D

 27 31  0  0  1  0  0  0  0  0999 V2000
  185.5350  178.5480  138.2820 C   0  0  0  0  0  2  0  0  0  0  0  0
  184.7500  176.8520  136.5680 C   0  0  1  0  0  3  0  0  0  0  0  0
  186.9730  177.7880  135.7260 C   0  0  0  0  0  2  0  0  0  0  0  0
  182.7090  176.2100  135.6620 C   0  0  1  0  0  3  0  0  0  0  0  0
  183.8810  175.7720  136.3340 O   0  0  0  0  0  0  0  0  0  0  0  0
  182.3840  178.6670  140.2880 C   0  0  0  0  0  2  0  0  0  0  0  0
  183.3920  177.2910  138.5990 N   0  0  1  0  0  0  0  0  0  0  0  0
  189.7690  177.5220  138.1170 C   0  0  0  0  0  3  0  0  0  0  0  0
  182.6240  178.3450  137.9280 C   0  0  2  0  0  3  0  0  0  0  0  0
  189.0580  177.6630  139.3930 C   0  0  0  0  0  0  0  0  0  0  0  0
  184.7630  177.2370  138.0630 C   0  0  2  0  0  3  0  0  0  0  0  0
  181.5020  176.4080  136.5930 C   0  0  2  0  0  3  0  0  0  0  0  0
  186.9990  178.2800  138.2480 C   0  0  0  0  0  0  0  0  0  0  0  0
  186.1370  176.5250  135.9880 C   0  0  1  0  0  3  0  0  0  0  0  0
  189.1530  177.8100  136.9700 C   0  0  0  0  0  3  0  0  0  0  0  0
  182.9060  177.2890  134.7860 O   0  0  0  0  0  1  0  0  0  0  0  0
  189.6610  177.4620  140.4780 O   0  0  0  0  0  0  0  0  0  0  0  0
  182.2270  179.3720  138.9680 C   0  0  0  0  0  2  0  0  0  0  0  0
  187.6280  177.9940  139.3910 C   0  0  0  0  0  3  0  0  0  0  0  0
  181.3670  177.7850  137.2600 C   0  0  0  0  0  2  0  0  0  0  0  0
  187.7430  178.3510  136.9270 C   0  0  1  0  0  3  0  0  0  0  0  0
  183.4230  177.6030  140.0270 C   0  0  0  0  0  2  0  0  0  0  0  0
  186.3870  174.0650  136.2850 C   0  0  0  0  0  2  0  0  0  0  0  0
  187.7040  174.6030  135.7680 C   0  0  0  0  0  2  0  0  0  0  0  0
  186.8810  175.4240  136.7440 C   0  0  0  0  0  3  0  0  0  0  0  0
  180.3690  175.6440  138.3930 O   0  0  0  0  0  1  0  0  0  0  0  0
  181.4090  175.3430  137.5800 N   0  0  0  0  0  2  0  0  0  0  0  0
  2  5  1  1  0  0  0
  2 11  1  0  0  0  0
  3 14  1  0  0  0  0
  4 16  1  1  0  0  0
  4  5  1  0  0  0  0
  4 12  1  0  0  0  0
  7 22  1  1  0  0  0
  8 10  1  0  0  0  0
  9 20  1  1  0  0  0
  9  7  1  0  0  0  0
  9 18  1  0  0  0  0
 10 17  2  0  0  0  0
 11  1  1  6  0  0  0
 11  7  1  0  0  0  0
 12 20  1  0  0  0  0
 12 27  1  1  0  0  0
 13  1  1  0  0  0  0
 13 19  2  0  0  0  0
 14  2  1  0  0  0  0
 14 25  1  1  0  0  0
 15  8  2  0  0  0  0
 18  6  1  0  0  0  0
 19 10  1  0  0  0  0
 21  3  1  6  0  0  0
 21 15  1  0  0  0  0
 21 13  1  0  0  0  0
 22  6  1  0  0  0  0
 23 25  1  0  0  0  0
 24 23  1  0  0  0  0
 24 25  1  0  0  0  0
 27 26  1  0  0  0  0
M  END
>  <MODEL>
5

>  <REMARK>
 VINA RESULT:      -5.0      5.518      8.254
  Name = 
  2 active torsions:
  status: ('A' for Active; 'I' for Inactive)
    1  A    between atoms: C_14  and  C_19
    2  A    between atoms: N_16  and  C_17
                            x       y       z     vdW  Elec       q    Type
                         _______ _______ _______ _____ _____    ______ ____

>  <TORSDO>
F 2

$$$$
=
 OpenBabel11052413523D

 27 31  0  0  1  0  0  0  0  0999 V2000
  182.9640  177.9420  137.9500 C   0  0  0  0  0  2  0  0  0  0  0  0
  182.1720  175.5570  137.6090 C   0  0  1  0  0  3  0  0  0  0  0  0
  183.6730  176.1320  135.6240 C   0  0  0  0  0  2  0  0  0  0  0  0
  180.2060  174.3770  137.9840 C   0  0  1  0  0  3  0  0  0  0  0  0
  181.6020  174.4340  138.2370 O   0  0  0  0  0  0  0  0  0  0  0  0
  180.6990  178.7760  140.8020 C   0  0  0  0  0  2  0  0  0  0  0  0
  181.4580  176.8330  139.6150 N   0  0  1  0  0  0  0  0  0  0  0  0
  187.0410  177.3350  136.5280 C   0  0  0  0  0  3  0  0  0  0  0  0
  180.2620  177.3420  138.9370 C   0  0  2  0  0  3  0  0  0  0  0  0
  186.7580  178.0320  137.7880 C   0  0  0  0  0  0  0  0  0  0  0  0
  182.5500  176.6350  138.6470 C   0  0  2  0  0  3  0  0  0  0  0  0
  179.3480  174.9090  139.1440 C   0  0  2  0  0  3  0  0  0  0  0  0
  184.3570  177.8180  137.4390 C   0  0  0  0  0  0  0  0  0  0  0  0
  183.3390  175.1030  136.7160 C   0  0  1  0  0  3  0  0  0  0  0  0
  186.0410  176.9590  135.7300 C   0  0  0  0  0  3  0  0  0  0  0  0
  179.8150  174.8870  136.7370 O   0  0  0  0  0  1  0  0  0  0  0  0
  187.7030  178.4520  138.5040 O   0  0  0  0  0  0  0  0  0  0  0  0
  179.9490  178.7120  139.4990 C   0  0  0  0  0  2  0  0  0  0  0  0
  185.3680  178.1950  138.2280 C   0  0  0  0  0  3  0  0  0  0  0  0
  179.0600  176.4180  139.1490 C   0  0  0  0  0  2  0  0  0  0  0  0
  184.5990  177.2840  136.0400 C   0  0  1  0  0  3  0  0  0  0  0  0
  181.8510  177.8170  140.6220 C   0  0  0  0  0  2  0  0  0  0  0  0
  184.4290  173.0990  137.7150 C   0  0  0  0  0  2  0  0  0  0  0  0
  185.3420  173.6270  136.6300 C   0  0  0  0  0  2  0  0  0  0  0  0
  184.5540  174.5940  137.4930 C   0  0  0  0  0  3  0  0  0  0  0  0
  179.0800  175.0360  141.3850 O   0  0  0  0  0  1  0  0  0  0  0  0
  179.8650  174.4760  140.4330 N   0  0  0  0  0  2  0  0  0  0  0  0
  2  5  1  1  0  0  0
  2 11  1  0  0  0  0
  3 14  1  0  0  0  0
  4 16  1  6  0  0  0
  4  5  1  0  0  0  0
  4 12  1  0  0  0  0
  7 22  1  1  0  0  0
  8 10  1  0  0  0  0
  9 20  1  1  0  0  0
  9 18  1  0  0  0  0
  9  7  1  0  0  0  0
 10 19  1  0  0  0  0
 10 17  2  0  0  0  0
 11  1  1  6  0  0  0
 11  7  1  0  0  0  0
 12 20  1  0  0  0  0
 12 27  1  1  0  0  0
 13  1  1  0  0  0  0
 13 19  2  0  0  0  0
 14 25  1  1  0  0  0
 14  2  1  0  0  0  0
 15 21  1  0  0  0  0
 15  8  2  0  0  0  0
 18  6  1  0  0  0  0
 21  3  1  1  0  0  0
 21 13  1  0  0  0  0
 22  6  1  0  0  0  0
 24 25  1  0  0  0  0
 24 23  1  0  0  0  0
 25 23  1  0  0  0  0
 27 26  1  0  0  0  0
M  END
>  <MODEL>
6

>  <REMARK>
 VINA RESULT:      -5.0      6.609      8.611
  Name = 
  2 active torsions:
  status: ('A' for Active; 'I' for Inactive)
    1  A    between atoms: C_14  and  C_19
    2  A    between atoms: N_16  and  C_17
                            x       y       z     vdW  Elec       q    Type
                         _______ _______ _______ _____ _____    ______ ____

>  <TORSDO>
F 2

$$$$
=
 OpenBabel11052413523D

 27 31  0  0  1  0  0  0  0  0999 V2000
  183.1670  177.4440  137.2990 C   0  0  0  0  0  2  0  0  0  0  0  0
  182.7740  174.9840  136.8260 C   0  0  1  0  0  3  0  0  0  0  0  0
  184.6460  175.7520  135.2670 C   0  0  0  0  0  2  0  0  0  0  0  0
  180.9310  173.5730  136.7240 C   0  0  1  0  0  3  0  0  0  0  0  0
  182.2020  173.7960  137.3160 O   0  0  0  0  0  0  0  0  0  0  0  0
  180.1760  177.9770  139.4750 C   0  0  0  0  0  2  0  0  0  0  0  0
  181.4340  176.1490  138.5600 N   0  0  1  0  0  0  0  0  0  0  0  0
  187.5130  177.3440  136.9560 C   0  0  0  0  0  3  0  0  0  0  0  0
  180.3940  176.5160  137.5930 C   0  0  2  0  0  3  0  0  0  0  0  0
  186.8420  177.9920  138.0890 C   0  0  0  0  0  0  0  0  0  0  0  0
  182.7490  176.0920  137.9000 C   0  0  2  0  0  3  0  0  0  0  0  0
  179.7530  173.9890  137.6190 C   0  0  2  0  0  3  0  0  0  0  0  0
  184.6480  177.4930  137.1570 C   0  0  0  0  0  0  0  0  0  0  0  0
  184.1740  174.6810  136.2640 C   0  0  1  0  0  3  0  0  0  0  0  0
  186.7970  176.8560  135.9430 C   0  0  0  0  0  3  0  0  0  0  0  0
  180.8080  174.0420  135.4070 O   0  0  0  0  0  1  0  0  0  0  0  0
  187.5200  178.5170  139.0100 O   0  0  0  0  0  0  0  0  0  0  0  0
  179.7900  177.8340  138.0280 C   0  0  0  0  0  2  0  0  0  0  0  0
  185.3770  177.9830  138.1640 C   0  0  0  0  0  3  0  0  0  0  0  0
  179.2960  175.4520  137.5190 C   0  0  0  0  0  2  0  0  0  0  0  0
  185.2950  177.0030  135.8740 C   0  0  1  0  0  3  0  0  0  0  0  0
  181.4420  177.1650  139.6110 C   0  0  0  0  0  2  0  0  0  0  0  0
  185.0370  172.8620  137.7280 C   0  0  0  0  0  2  0  0  0  0  0  0
  186.1510  173.2620  136.7850 C   0  0  0  0  0  2  0  0  0  0  0  0
  185.2060  174.3160  137.3310 C   0  0  0  0  0  3  0  0  0  0  0  0
  178.9320  174.0880  139.7230 O   0  0  0  0  0  1  0  0  0  0  0  0
  179.9770  173.6100  139.0070 N   0  0  0  0  0  2  0  0  0  0  0  0
  2  5  1  1  0  0  0
  2 11  1  0  0  0  0
  3 14  1  0  0  0  0
  4 16  1  6  0  0  0
  4  5  1  0  0  0  0
  4 12  1  0  0  0  0
  6 22  1  0  0  0  0
  7 22  1  1  0  0  0
  8 10  1  0  0  0  0
  9 20  1  1  0  0  0
  9 18  1  0  0  0  0
  9  7  1  0  0  0  0
 10 19  1  0  0  0  0
 10 17  2  0  0  0  0
 11  1  1  6  0  0  0
 11  7  1  0  0  0  0
 12 27  1  1  0  0  0
 13  1  1  0  0  0  0
 13 19  2  0  0  0  0
 14  2  1  0  0  0  0
 14 25  1  1  0  0  0
 15  8  2  0  0  0  0
 18  6  1  0  0  0  0
 20 12  1  0  0  0  0
 21  3  1  1  0  0  0
 21 15  1  0  0  0  0
 21 13  1  0  0  0  0
 24 25  1  0  0  0  0
 24 23  1  0  0  0  0
 25 23  1  0  0  0  0
 27 26  1  0  0  0  0
M  END
>  <MODEL>
7

>  <REMARK>
 VINA RESULT:      -4.9      7.074      9.138
  Name = 
  2 active torsions:
  status: ('A' for Active; 'I' for Inactive)
    1  A    between atoms: C_14  and  C_19
    2  A    between atoms: N_16  and  C_17
                            x       y       z     vdW  Elec       q    Type
                         _______ _______ _______ _____ _____    ______ ____

>  <TORSDO>
F 2

$$$$
=
 OpenBabel11052413523D

 27 31  0  0  1  0  0  0  0  0999 V2000
  188.7200  178.4270  141.3400 C   0  0  0  0  0  2  0  0  0  0  0  0
  190.8520  177.0870  141.0340 C   0  0  1  0  0  3  0  0  0  0  0  0
  191.1040  178.3980  143.2120 C   0  0  0  0  0  2  0  0  0  0  0  0
  192.1960  176.4680  139.2430 C   0  0  1  0  0  3  0  0  0  0  0  0
  191.4430  176.0070  140.3550 O   0  0  0  0  0  0  0  0  0  0  0  0
  187.2860  177.7900  137.9490 C   0  0  0  0  0  2  0  0  0  0  0  0
  189.0280  176.9290  139.3570 N   0  0  1  0  0  0  0  0  0  0  0  0
  188.3870  177.8810  145.6530 C   0  0  0  0  0  3  0  0  0  0  0  0
  189.5870  178.0270  138.5610 C   0  0  2  0  0  3  0  0  0  0  0  0
  187.2450  177.6640  144.7560 C   0  0  0  0  0  0  0  0  0  0  0  0
  189.3290  177.1290  140.7850 C   0  0  2  0  0  3  0  0  0  0  0  0
  191.4580  176.3350  137.9010 C   0  0  2  0  0  3  0  0  0  0  0  0
  188.5650  178.3170  142.8170 C   0  0  0  0  0  0  0  0  0  0  0  0
  191.2470  177.0330  142.5200 C   0  0  1  0  0  3  0  0  0  0  0  0
  189.5360  178.3550  145.1730 C   0  0  0  0  0  3  0  0  0  0  0  0
  192.7870  177.7280  139.4190 O   0  0  0  0  0  1  0  0  0  0  0  0
  186.1390  177.2860  145.2200 O   0  0  0  0  0  0  0  0  0  0  0  0
  188.4410  178.7530  137.8900 C   0  0  0  0  0  2  0  0  0  0  0  0
  187.4170  177.8470  143.3100 C   0  0  0  0  0  3  0  0  0  0  0  0
  190.5560  177.5090  137.4940 C   0  0  0  0  0  2  0  0  0  0  0  0
  189.7010  178.7520  143.7250 C   0  0  1  0  0  3  0  0  0  0  0  0
  187.5820  176.9170  139.1450 C   0  0  0  0  0  2  0  0  0  0  0  0
  191.6800  174.8290  143.5930 C   0  0  0  0  0  2  0  0  0  0  0  0
  191.2290  175.7870  144.6740 C   0  0  0  0  0  2  0  0  0  0  0  0
  190.6200  175.8690  143.2870 C   0  0  0  0  0  3  0  0  0  0  0  0
  191.6610  174.1040  137.5940 O   0  0  0  0  0  1  0  0  0  0  0  0
  190.7390  175.0730  137.8100 N   0  0  0  0  0  2  0  0  0  0  0  0
  1 13  1  0  0  0  0
  2  5  1  6  0  0  0
  2 14  1  0  0  0  0
  4 16  1  1  0  0  0
  4  5  1  0  0  0  0
  6 22  1  0  0  0  0
  7 22  1  1  0  0  0
  7 11  1  0  0  0  0
  9 20  1  6  0  0  0
  9  7  1  0  0  0  0
 10 17  2  0  0  0  0
 10  8  1  0  0  0  0
 11  2  1  0  0  0  0
 11  1  1  6  0  0  0
 12 27  1  1  0  0  0
 12  4  1  0  0  0  0
 13 19  2  0  0  0  0
 13 21  1  0  0  0  0
 14  3  1  0  0  0  0
 14 25  1  1  0  0  0
 15  8  2  0  0  0  0
 18  6  1  0  0  0  0
 18  9  1  0  0  0  0
 19 10  1  0  0  0  0
 20 12  1  0  0  0  0
 21  3  1  6  0  0  0
 21 15  1  0  0  0  0
 23 24  1  0  0  0  0
 25 23  1  0  0  0  0
 25 24  1  0  0  0  0
 26 27  1  0  0  0  0
M  END
>  <MODEL>
8

>  <REMARK>
 VINA RESULT:      -4.8      3.175      6.992
  Name = 
  2 active torsions:
  status: ('A' for Active; 'I' for Inactive)
    1  A    between atoms: C_14  and  C_19
    2  A    between atoms: N_16  and  C_17
                            x       y       z     vdW  Elec       q    Type
                         _______ _______ _______ _____ _____    ______ ____

>  <TORSDO>
F 2

$$$$
=
 OpenBabel11052413523D

 27 31  0  0  1  0  0  0  0  0999 V2000
  185.1310  177.9740  138.7380 C   0  0  0  0  0  2  0  0  0  0  0  0
  184.6290  175.9210  137.3370 C   0  0  1  0  0  3  0  0  0  0  0  0
  182.7650  176.1110  139.0730 C   0  0  0  0  0  2  0  0  0  0  0  0
  185.8730  174.2320  136.3380 C   0  0  1  0  0  3  0  0  0  0  0  0
  184.9110  175.2560  136.1300 O   0  0  0  0  0  0  0  0  0  0  0  0
  188.5710  178.6010  137.4200 C   0  0  0  0  0  2  0  0  0  0  0  0
  186.6350  177.3010  136.8530 N   0  0  1  0  0  0  0  0  0  0  0  0
  181.0130  179.3570  139.1150 C   0  0  0  0  0  3  0  0  0  0  0  0
  187.4740  176.5000  137.7510 C   0  0  2  0  0  3  0  0  0  0  0  0
  182.1000  180.2640  138.7290 C   0  0  0  0  0  0  0  0  0  0  0  0
  185.2470  177.3350  137.3450 C   0  0  2  0  0  3  0  0  0  0  0  0
  187.3000  174.6370  135.9350 C   0  0  2  0  0  3  0  0  0  0  0  0
  183.7470  178.4820  138.9430 C   0  0  0  0  0  0  0  0  0  0  0  0
  183.1120  175.8940  137.5920 C   0  0  1  0  0  3  0  0  0  0  0  0
  181.2820  178.0980  139.4630 C   0  0  0  0  0  3  0  0  0  0  0  0
  185.8150  173.6210  137.5990 O   0  0  0  0  0  1  0  0  0  0  0  0
  181.8560  181.4710  138.4710 O   0  0  0  0  0  0  0  0  0  0  0  0
  188.5370  177.4060  138.3340 C   0  0  0  0  0  2  0  0  0  0  0  0
  183.4660  179.7430  138.6010 C   0  0  0  0  0  3  0  0  0  0  0  0
  188.1440  175.3410  137.0090 C   0  0  0  0  0  2  0  0  0  0  0  0
  182.6940  177.5690  139.5450 C   0  0  1  0  0  3  0  0  0  0  0  0
  187.1890  178.6520  136.8150 C   0  0  0  0  0  2  0  0  0  0  0  0
  182.0490  175.9880  135.3420 C   0  0  0  0  0  2  0  0  0  0  0  0
  180.9520  176.1180  136.3760 C   0  0  0  0  0  2  0  0  0  0  0  0
  182.3050  176.7580  136.6230 C   0  0  0  0  0  3  0  0  0  0  0  0
  188.5230  175.9870  134.5960 O   0  0  0  0  0  1  0  0  0  0  0  0
  187.3100  175.3930  134.6910 N   0  0  0  0  0  2  0  0  0  0  0  0
  1 13  1  0  0  0  0
  2  5  1  6  0  0  0
  2 11  1  0  0  0  0
  2 14  1  0  0  0  0
  4 16  1  1  0  0  0
  5  4  1  0  0  0  0
  6 18  1  0  0  0  0
  7 22  1  1  0  0  0
  7 11  1  0  0  0  0
  7  9  1  0  0  0  0
  8 15  2  0  0  0  0
  9 20  1  6  0  0  0
  9 18  1  0  0  0  0
 10  8  1  0  0  0  0
 11  1  1  1  0  0  0
 12 27  1  6  0  0  0
 12  4  1  0  0  0  0
 12 20  1  0  0  0  0
 13 21  1  0  0  0  0
 14 25  1  6  0  0  0
 14  3  1  0  0  0  0
 15 21  1  0  0  0  0
 17 10  2  0  0  0  0
 19 10  1  0  0  0  0
 19 13  2  0  0  0  0
 21  3  1  6  0  0  0
 22  6  1  0  0  0  0
 23 24  1  0  0  0  0
 23 25  1  0  0  0  0
 24 25  1  0  0  0  0
 26 27  1  0  0  0  0
M  END
>  <MODEL>
9

>  <REMARK>
 VINA RESULT:      -4.7      6.668      9.575
  Name = 
  2 active torsions:
  status: ('A' for Active; 'I' for Inactive)
    1  A    between atoms: C_14  and  C_19
    2  A    between atoms: N_16  and  C_17
                            x       y       z     vdW  Elec       q    Type
                         _______ _______ _______ _____ _____    ______ ____

>  <TORSDO>
F 2

$$$$
