=
 OpenBabel11052416233D

 43 49  0  0  1  0  0  0  0  0999 V2000
  191.2660  176.6950  146.9150 C   0  0  0  0  0  0  0  0  0  0  0  0
  187.0360  177.9020  144.3500 C   0  0  0  0  0  0  0  0  0  0  0  0
  187.8120  178.1700  141.6470 C   0  0  0  0  0  0  0  0  0  0  0  0
  188.9570  177.2310  146.2950 C   0  0  0  0  0  0  0  0  0  0  0  0
  191.6990  176.7960  145.6590 C   0  0  0  0  0  3  0  0  0  0  0  0
  192.1580  176.3750  147.9290 O   0  0  0  0  0  1  0  0  0  0  0  0
  189.3450  177.3590  144.9420 C   0  0  0  0  0  0  0  0  0  0  0  0
  189.8480  176.9180  147.2390 C   0  0  0  0  0  3  0  0  0  0  0  0
  190.7800  177.1400  144.5170 C   0  0  0  0  0  2  0  0  0  0  0  0
  188.7540  177.8310  142.6290 O   0  0  0  0  0  0  0  0  0  0  0  0
  188.3830  177.6960  143.9760 C   0  0  0  0  0  0  0  0  0  0  0  0
  186.6720  177.7660  145.6980 C   0  0  0  0  0  3  0  0  0  0  0  0
  186.1270  178.2290  143.4050 C   0  0  0  0  0  0  0  0  0  0  0  0
  186.5400  178.3680  141.9930 C   0  0  0  0  0  3  0  0  0  0  0  0
  187.6250  177.4340  146.6600 C   0  0  0  0  0  3  0  0  0  0  0  0
  184.6780  178.4390  143.7340 C   0  0  0  0  0  2  0  0  0  0  0  0
  183.8170  178.3900  142.4770 C   0  0  0  0  0  2  0  0  0  0  0  0
  181.4390  178.4760  141.7650 C   0  0  0  0  0  2  0  0  0  0  0  0
  180.1260  178.6020  142.5030 C   0  0  2  0  0  3  0  0  0  0  0  0
  181.9560  178.7740  144.1050 C   0  0  0  0  0  2  0  0  0  0  0  0
  182.4690  179.0550  142.7050 C   0  0  1  0  0  3  0  0  0  0  0  0
  180.4670  178.5010  143.9780 C   0  0  0  0  0  2  0  0  0  0  0  0
  179.7450  177.1290  140.8980 C   0  0  0  0  0  1  0  0  0  0  0  0
  179.2700  177.5630  142.1370 O   0  0  0  0  0  0  0  0  0  0  0  0
  188.1910  178.3000  140.3130 O   0  0  0  0  0  0  0  0  0  0  0  0
  189.1310  177.4160  139.7240 C   0  0  0  0  0  2  0  0  0  0  0  0
  188.8660  177.2930  138.2260 C   0  0  2  0  0  3  0  0  0  0  0  0
  187.9550  179.0810  136.7400 C   0  0  0  0  0  1  0  0  0  0  0  0
  189.1900  178.5740  137.4600 C   0  0  0  0  0  2  0  0  0  0  0  0
  187.5890  176.7530  137.9210 O   0  0  0  0  0  0  0  0  0  0  0  0
  187.7030  175.5850  137.1300 C   0  0  2  0  0  0  0  0  0  0  0  0
  187.2470  175.1930  134.7420 C   0  0  0  0  0  2  0  0  0  0  0  0
  189.0110  175.3110  136.4000 C   0  0  0  0  0  2  0  0  0  0  0  0
  186.6130  175.5330  136.0740 C   0  0  1  0  0  0  0  0  0  0  0  0
  186.6040  174.5220  137.1980 C   0  0  0  0  0  2  0  0  0  0  0  0
  188.7280  175.4500  134.9170 C   0  0  0  0  0  2  0  0  0  0  0  0
  185.6770  176.6040  136.1490 O   0  0  0  0  0  0  0  0  0  0  0  0
  184.5130  176.5390  136.9180 C   0  0  0  0  0  0  0  0  0  0  0  0
  182.8550  174.9060  137.8590 C   0  0  0  0  0  2  0  0  0  0  0  0
  183.1250  177.2960  138.7830 C   0  0  0  0  0  2  0  0  0  0  0  0
  182.7490  175.8410  139.0810 C   0  0  0  0  0  2  0  0  0  0  0  0
  184.3810  177.3490  137.9670 C   0  0  0  0  0  3  0  0  0  0  0  0
  183.3980  175.5810  136.5900 C   0  0  0  0  0  2  0  0  0  0  0  0
  1  8  1  0  0  0  0
  1  6  1  0  0  0  0
  2 12  1  0  0  0  0
  3 14  2  0  0  0  0
  3 10  1  0  0  0  0
  4 15  1  0  0  0  0
  4  8  2  0  0  0  0
  5  1  2  0  0  0  0
  7  4  1  0  0  0  0
  9  7  1  0  0  0  0
  9  5  1  0  0  0  0
 10 11  1  0  0  0  0
 11  2  1  0  0  0  0
 11  7  2  0  0  0  0
 12 15  2  0  0  0  0
 13 16  1  0  0  0  0
 13  2  2  0  0  0  0
 14 13  1  0  0  0  0
 17 16  1  0  0  0  0
 18 19  1  0  0  0  0
 18 21  1  0  0  0  0
 19 24  1  6  0  0  0
 19 22  1  0  0  0  0
 21 17  1  1  0  0  0
 21 20  1  0  0  0  0
 22 20  1  0  0  0  0
 23 24  1  0  0  0  0
 25  3  1  0  0  0  0
 26 25  1  0  0  0  0
 27 29  1  6  0  0  0
 27 26  1  0  0  0  0
 28 29  1  0  0  0  0
 30 27  1  0  0  0  0
 31 35  1  0  0  0  0
 31 30  1  1  0  0  0
 32 36  1  0  0  0  0
 32 34  1  0  0  0  0
 33 31  1  0  0  0  0
 34 37  1  1  0  0  0
 34 31  1  0  0  0  0
 34 35  1  0  0  0  0
 36 33  1  0  0  0  0
 37 38  1  0  0  0  0
 38 42  2  0  0  0  0
 39 41  1  0  0  0  0
 40 41  1  0  0  0  0
 42 40  1  0  0  0  0
 43 38  1  0  0  0  0
 43 39  1  0  0  0  0
M  END
>  <MODEL>
1

>  <REMARK>
 VINA RESULT:      -9.5      0.000      0.000
  Name = 
  12 active torsions:
  status: ('A' for Active; 'I' for Inactive)
    1  A    between atoms: C_1  and  C_34
    2  A    between atoms: C_1  and  C_35
    3  A    between atoms: C_2  and  O_6
    4  A    between atoms: C_2  and  C_12
    5  A    between atoms: O_3  and  C_4
    6  A    between atoms: O_3  and  C_12
    7  A    between atoms: O_6  and  C_13
    8  A    between atoms: C_11  and  O_14
    9  A    between atoms: C_12  and  C_17
   10  A    between atoms: O_14  and  C_22
   11  A    between atoms: C_19  and  O_37
   12  A    between atoms: C_32  and  C_35
                            x       y       z     vdW  Elec       q    Type
                         _______ _______ _______ _____ _____    ______ ____

>  <TORSDO>
F 12

$$$$
=
 OpenBabel11052416233D

 43 49  0  0  1  0  0  0  0  0999 V2000
  188.9190  177.2130  146.4860 C   0  0  0  0  0  0  0  0  0  0  0  0
  184.5510  178.6580  144.3060 C   0  0  0  0  0  0  0  0  0  0  0  0
  185.0200  178.6240  141.5200 C   0  0  0  0  0  0  0  0  0  0  0  0
  186.6160  177.9430  146.0790 C   0  0  0  0  0  0  0  0  0  0  0  0
  189.2070  177.1670  145.1860 C   0  0  0  0  0  3  0  0  0  0  0  0
  189.8910  176.8820  147.4200 O   0  0  0  0  0  1  0  0  0  0  0  0
  186.8500  177.9200  144.6850 C   0  0  0  0  0  0  0  0  0  0  0  0
  187.5790  177.6120  146.9430 C   0  0  0  0  0  3  0  0  0  0  0  0
  188.1960  177.5150  144.1260 C   0  0  0  0  0  2  0  0  0  0  0  0
  186.0360  178.2660  142.4190 O   0  0  0  0  0  0  0  0  0  0  0  0
  185.8170  178.2790  143.8050 C   0  0  0  0  0  0  0  0  0  0  0  0
  184.3380  178.6690  145.6920 C   0  0  0  0  0  3  0  0  0  0  0  0
  183.5710  179.0030  143.4400 C   0  0  0  0  0  0  0  0  0  0  0  0
  183.8240  178.9840  141.9850 C   0  0  0  0  0  3  0  0  0  0  0  0
  185.3640  178.3150  146.5690 C   0  0  0  0  0  3  0  0  0  0  0  0
  182.1990  179.3920  143.9070 C   0  0  0  0  0  2  0  0  0  0  0  0
  181.2270  178.2250  143.7860 C   0  0  0  0  0  2  0  0  0  0  0  0
  179.9000  180.1120  142.8640 C   0  0  0  0  0  2  0  0  0  0  0  0
  179.2020  180.3600  141.5470 C   0  0  2  0  0  3  0  0  0  0  0  0
  180.1140  178.0990  141.5470 C   0  0  0  0  0  2  0  0  0  0  0  0
  180.0010  178.6090  142.9720 C   0  0  1  0  0  3  0  0  0  0  0  0
  179.5930  179.2040  140.6450 C   0  0  0  0  0  2  0  0  0  0  0  0
  179.6480  181.3440  139.6170 C   0  0  0  0  0  1  0  0  0  0  0  0
  179.6350  181.5660  140.9960 O   0  0  0  0  0  0  0  0  0  0  0  0
  185.2470  178.6070  140.1460 O   0  0  0  0  0  0  0  0  0  0  0  0
  184.2930  179.1260  139.2340 C   0  0  0  0  0  2  0  0  0  0  0  0
  183.9870  178.0950  138.1510 C   0  0  2  0  0  3  0  0  0  0  0  0
  182.7450  176.3400  139.4210 C   0  0  0  0  0  1  0  0  0  0  0  0
  182.6370  177.4090  138.3510 C   0  0  0  0  0  2  0  0  0  0  0  0
  185.0560  177.1930  137.9140 O   0  0  0  0  0  0  0  0  0  0  0  0
  185.6060  177.3790  136.6220 C   0  0  2  0  0  0  0  0  0  0  0  0
  187.0820  175.9500  135.2670 C   0  0  0  0  0  2  0  0  0  0  0  0
  184.8420  176.8610  135.4120 C   0  0  0  0  0  2  0  0  0  0  0  0
  186.9970  176.7790  136.5300 C   0  0  1  0  0  0  0  0  0  0  0  0
  186.8320  178.2790  136.4520 C   0  0  0  0  0  2  0  0  0  0  0  0
  185.6510  175.7170  134.8330 C   0  0  0  0  0  2  0  0  0  0  0  0
  187.4820  176.2370  137.7550 O   0  0  0  0  0  0  0  0  0  0  0  0
  188.5960  176.7500  138.4220 C   0  0  0  0  0  0  0  0  0  0  0  0
  189.3650  177.5090  140.6880 C   0  0  0  0  0  2  0  0  0  0  0  0
  191.0070  176.8550  138.8120 C   0  0  0  0  0  2  0  0  0  0  0  0
  190.7500  176.9360  140.3200 C   0  0  0  0  0  2  0  0  0  0  0  0
  189.8080  176.2930  138.1130 C   0  0  0  0  0  3  0  0  0  0  0  0
  188.4660  177.8140  139.4810 C   0  0  0  0  0  2  0  0  0  0  0  0
  1  8  1  0  0  0  0
  1  6  1  0  0  0  0
  2 12  1  0  0  0  0
  3 14  2  0  0  0  0
  3 10  1  0  0  0  0
  4 15  1  0  0  0  0
  4  8  2  0  0  0  0
  5  1  2  0  0  0  0
  7  4  1  0  0  0  0
  9  7  1  0  0  0  0
  9  5  1  0  0  0  0
 10 11  1  0  0  0  0
 11  2  1  0  0  0  0
 11  7  2  0  0  0  0
 12 15  2  0  0  0  0
 13 16  1  0  0  0  0
 13  2  2  0  0  0  0
 14 13  1  0  0  0  0
 17 16  1  0  0  0  0
 18 21  1  0  0  0  0
 19 24  1  6  0  0  0
 19 18  1  0  0  0  0
 20 21  1  0  0  0  0
 21 17  1  1  0  0  0
 22 20  1  0  0  0  0
 22 19  1  0  0  0  0
 23 24  1  0  0  0  0
 25  3  1  0  0  0  0
 26 25  1  0  0  0  0
 27 29  1  1  0  0  0
 27 26  1  0  0  0  0
 29 28  1  0  0  0  0
 30 27  1  0  0  0  0
 31 30  1  1  0  0  0
 32 34  1  0  0  0  0
 33 31  1  0  0  0  0
 34 31  1  0  0  0  0
 34 37  1  1  0  0  0
 35 34  1  0  0  0  0
 35 31  1  0  0  0  0
 36 32  1  0  0  0  0
 36 33  1  0  0  0  0
 37 38  1  0  0  0  0
 38 43  1  0  0  0  0
 40 41  1  0  0  0  0
 41 39  1  0  0  0  0
 42 38  2  0  0  0  0
 42 40  1  0  0  0  0
 43 39  1  0  0  0  0
M  END
>  <MODEL>
2

>  <REMARK>
 VINA RESULT:      -9.3      1.643      3.984
  Name = 
  12 active torsions:
  status: ('A' for Active; 'I' for Inactive)
    1  A    between atoms: C_1  and  C_34
    2  A    between atoms: C_1  and  C_35
    3  A    between atoms: C_2  and  O_6
    4  A    between atoms: C_2  and  C_12
    5  A    between atoms: O_3  and  C_4
    6  A    between atoms: O_3  and  C_12
    7  A    between atoms: O_6  and  C_13
    8  A    between atoms: C_11  and  O_14
    9  A    between atoms: C_12  and  C_17
   10  A    between atoms: O_14  and  C_22
   11  A    between atoms: C_19  and  O_37
   12  A    between atoms: C_32  and  C_35
                            x       y       z     vdW  Elec       q    Type
                         _______ _______ _______ _____ _____    ______ ____

>  <TORSDO>
F 12

$$$$
=
 OpenBabel11052416233D

 43 49  0  0  1  0  0  0  0  0999 V2000
  190.3430  176.7530  146.4250 C   0  0  0  0  0  0  0  0  0  0  0  0
  185.9400  178.5120  144.5690 C   0  0  0  0  0  0  0  0  0  0  0  0
  186.2570  178.6060  141.7630 C   0  0  0  0  0  0  0  0  0  0  0  0
  188.0600  177.6090  146.1850 C   0  0  0  0  0  0  0  0  0  0  0  0
  190.5580  176.7630  145.1090 C   0  0  0  0  0  3  0  0  0  0  0  0
  191.3460  176.3280  147.2850 O   0  0  0  0  0  1  0  0  0  0  0  0
  188.2170  177.6500  144.7810 C   0  0  0  0  0  0  0  0  0  0  0  0
  189.0500  177.1890  146.9760 C   0  0  0  0  0  3  0  0  0  0  0  0
  189.5100  177.2130  144.1270 C   0  0  0  0  0  2  0  0  0  0  0  0
  187.3000  178.1530  142.5840 O   0  0  0  0  0  0  0  0  0  0  0  0
  187.1570  178.1030  143.9790 C   0  0  0  0  0  0  0  0  0  0  0  0
  185.8030  178.4600  145.9640 C   0  0  0  0  0  3  0  0  0  0  0  0
  184.9330  178.9490  143.7780 C   0  0  0  0  0  0  0  0  0  0  0  0
  185.1070  178.9950  142.3120 C   0  0  0  0  0  3  0  0  0  0  0  0
  186.8550  178.0120  146.7630 C   0  0  0  0  0  3  0  0  0  0  0  0
  183.6090  179.3750  144.3410 C   0  0  0  0  0  2  0  0  0  0  0  0
  182.4930  178.4460  143.8790 C   0  0  0  0  0  2  0  0  0  0  0  0
  181.0250  178.7210  141.8940 C   0  0  0  0  0  2  0  0  0  0  0  0
  179.5470  178.9750  141.7080 C   0  0  2  0  0  3  0  0  0  0  0  0
  180.0660  179.0210  144.0900 C   0  0  0  0  0  2  0  0  0  0  0  0
  181.3340  179.2290  143.2820 C   0  0  1  0  0  3  0  0  0  0  0  0
  178.9310  178.8740  143.0910 C   0  0  0  0  0  2  0  0  0  0  0  0
  180.0470  177.1250  140.6050 C   0  0  0  0  0  1  0  0  0  0  0  0
  178.9970  178.0070  140.8670 O   0  0  0  0  0  0  0  0  0  0  0  0
  186.4100  178.6510  140.3800 O   0  0  0  0  0  0  0  0  0  0  0  0
  185.3150  178.9470  139.5260 C   0  0  0  0  0  2  0  0  0  0  0  0
  185.5120  178.2760  138.1700 C   0  0  2  0  0  3  0  0  0  0  0  0
  183.2140  177.5220  138.7910 C   0  0  0  0  0  1  0  0  0  0  0  0
  184.3010  177.4530  137.7350 C   0  0  0  0  0  2  0  0  0  0  0  0
  186.7440  177.5820  138.0580 O   0  0  0  0  0  0  0  0  0  0  0  0
  187.5740  178.1680  137.0700 C   0  0  2  0  0  0  0  0  0  0  0  0
  189.4180  177.2290  135.7360 C   0  0  0  0  0  2  0  0  0  0  0  0
  187.1540  178.0840  135.6090 C   0  0  0  0  0  2  0  0  0  0  0  0
  188.9820  177.6040  137.1360 C   0  0  1  0  0  0  0  0  0  0  0  0
  188.7450  179.0510  137.5020 C   0  0  0  0  0  2  0  0  0  0  0  0
  188.1490  177.1760  134.9140 C   0  0  0  0  0  2  0  0  0  0  0  0
  189.1930  176.6850  138.2040 O   0  0  0  0  0  0  0  0  0  0  0  0
  190.3780  176.6420  138.9420 C   0  0  0  0  0  0  0  0  0  0  0  0
  192.8690  176.8180  138.6910 C   0  0  0  0  0  2  0  0  0  0  0  0
  191.6760  177.1400  140.9530 C   0  0  0  0  0  2  0  0  0  0  0  0
  192.8790  177.5010  140.0750 C   0  0  0  0  0  2  0  0  0  0  0  0
  190.4130  177.2020  140.1490 C   0  0  0  0  0  3  0  0  0  0  0  0
  191.6180  175.9710  138.4120 C   0  0  0  0  0  2  0  0  0  0  0  0
  1  8  1  0  0  0  0
  1  6  1  0  0  0  0
  2 12  1  0  0  0  0
  3 14  2  0  0  0  0
  3 10  1  0  0  0  0
  4 15  1  0  0  0  0
  4  8  2  0  0  0  0
  5  1  2  0  0  0  0
  7  4  1  0  0  0  0
  9  7  1  0  0  0  0
  9  5  1  0  0  0  0
 10 11  1  0  0  0  0
 11  2  1  0  0  0  0
 11  7  2  0  0  0  0
 12 15  2  0  0  0  0
 13 16  1  0  0  0  0
 13  2  2  0  0  0  0
 14 13  1  0  0  0  0
 17 16  1  0  0  0  0
 18 21  1  0  0  0  0
 19 24  1  6  0  0  0
 19 18  1  0  0  0  0
 19 22  1  0  0  0  0
 21 17  1  1  0  0  0
 21 20  1  0  0  0  0
 22 20  1  0  0  0  0
 23 24  1  0  0  0  0
 25  3  1  0  0  0  0
 26 25  1  0  0  0  0
 27 29  1  1  0  0  0
 27 26  1  0  0  0  0
 29 28  1  0  0  0  0
 30 27  1  0  0  0  0
 31 34  1  0  0  0  0
 31 35  1  0  0  0  0
 31 30  1  1  0  0  0
 32 34  1  0  0  0  0
 33 31  1  0  0  0  0
 34 35  1  0  0  0  0
 34 37  1  1  0  0  0
 36 33  1  0  0  0  0
 36 32  1  0  0  0  0
 37 38  1  0  0  0  0
 38 42  2  0  0  0  0
 39 41  1  0  0  0  0
 41 40  1  0  0  0  0
 42 40  1  0  0  0  0
 43 39  1  0  0  0  0
 43 38  1  0  0  0  0
M  END
>  <MODEL>
3

>  <REMARK>
 VINA RESULT:      -9.3      1.553      3.900
  Name = 
  12 active torsions:
  status: ('A' for Active; 'I' for Inactive)
    1  A    between atoms: C_1  and  C_34
    2  A    between atoms: C_1  and  C_35
    3  A    between atoms: C_2  and  O_6
    4  A    between atoms: C_2  and  C_12
    5  A    between atoms: O_3  and  C_4
    6  A    between atoms: O_3  and  C_12
    7  A    between atoms: O_6  and  C_13
    8  A    between atoms: C_11  and  O_14
    9  A    between atoms: C_12  and  C_17
   10  A    between atoms: O_14  and  C_22
   11  A    between atoms: C_19  and  O_37
   12  A    between atoms: C_32  and  C_35
                            x       y       z     vdW  Elec       q    Type
                         _______ _______ _______ _____ _____    ______ ____

>  <TORSDO>
F 12

$$$$
=
 OpenBabel11052416233D

 43 49  0  0  1  0  0  0  0  0999 V2000
  187.3240  177.9300  147.2030 C   0  0  0  0  0  0  0  0  0  0  0  0
  183.9850  178.6810  143.4330 C   0  0  0  0  0  0  0  0  0  0  0  0
  185.4850  178.6330  141.0390 C   0  0  0  0  0  0  0  0  0  0  0  0
  185.2830  178.3160  145.9030 C   0  0  0  0  0  0  0  0  0  0  0  0
  188.0910  177.8870  146.1130 C   0  0  0  0  0  3  0  0  0  0  0  0
  187.8970  177.7670  148.4560 O   0  0  0  0  0  1  0  0  0  0  0  0
  186.0340  178.2860  144.7060 C   0  0  0  0  0  0  0  0  0  0  0  0
  185.8730  178.1500  147.0890 C   0  0  0  0  0  3  0  0  0  0  0  0
  187.5290  178.0580  144.7270 C   0  0  0  0  0  2  0  0  0  0  0  0
  186.1140  178.4470  142.2800 O   0  0  0  0  0  0  0  0  0  0  0  0
  185.3820  178.4700  143.4760 C   0  0  0  0  0  0  0  0  0  0  0  0
  183.2580  178.7030  144.6320 C   0  0  0  0  0  3  0  0  0  0  0  0
  183.3770  178.8600  142.2380 C   0  0  0  0  0  0  0  0  0  0  0  0
  184.1680  178.8340  140.9900 C   0  0  0  0  0  3  0  0  0  0  0  0
  183.9040  178.5220  145.8560 C   0  0  0  0  0  3  0  0  0  0  0  0
  181.8960  179.0660  142.1230 C   0  0  0  0  0  2  0  0  0  0  0  0
  181.4890  179.3300  140.6780 C   0  0  0  0  0  2  0  0  0  0  0  0
  180.9000  177.3280  139.3310 C   0  0  0  0  0  2  0  0  0  0  0  0
  179.9910  176.1420  139.5560 C   0  0  2  0  0  3  0  0  0  0  0  0
  179.7660  177.6790  141.4350 C   0  0  0  0  0  2  0  0  0  0  0  0
  180.3630  178.4050  140.2430 C   0  0  1  0  0  3  0  0  0  0  0  0
  179.5170  176.2470  140.9940 C   0  0  0  0  0  2  0  0  0  0  0  0
  181.1670  175.0190  138.0570 C   0  0  0  0  0  1  0  0  0  0  0  0
  180.7000  174.9540  139.3710 O   0  0  0  0  0  0  0  0  0  0  0  0
  186.2210  178.6070  139.8580 O   0  0  0  0  0  0  0  0  0  0  0  0
  185.6180  178.2620  138.6200 C   0  0  0  0  0  2  0  0  0  0  0  0
  186.6440  177.6020  137.7040 C   0  0  2  0  0  3  0  0  0  0  0  0
  186.3800  177.5730  135.2210 C   0  0  0  0  0  1  0  0  0  0  0  0
  186.0030  176.8830  136.5180 C   0  0  0  0  0  2  0  0  0  0  0  0
  187.5990  176.8160  138.4000 O   0  0  0  0  0  0  0  0  0  0  0  0
  188.9200  177.2270  138.0950 C   0  0  2  0  0  0  0  0  0  0  0  0
  191.0840  176.5830  139.0760 C   0  0  0  0  0  2  0  0  0  0  0  0
  189.7240  176.4320  137.0760 C   0  0  0  0  0  2  0  0  0  0  0  0
  189.7740  177.2890  139.3490 C   0  0  1  0  0  0  0  0  0  0  0  0
  189.4280  178.5690  138.6240 C   0  0  0  0  0  2  0  0  0  0  0  0
  190.8500  175.7540  137.8310 C   0  0  0  0  0  2  0  0  0  0  0  0
  189.0650  177.0060  140.5520 O   0  0  0  0  0  0  0  0  0  0  0  0
  189.6460  177.1220  141.8170 C   0  0  0  0  0  0  0  0  0  0  0  0
  191.0290  175.8470  143.4790 C   0  0  0  0  0  2  0  0  0  0  0  0
  190.8020  178.4130  143.5410 C   0  0  0  0  0  2  0  0  0  0  0  0
  191.6790  177.1960  143.8510 C   0  0  0  0  0  2  0  0  0  0  0  0
  190.1960  178.2790  142.1780 C   0  0  0  0  0  3  0  0  0  0  0  0
  189.6620  175.9720  142.7900 C   0  0  0  0  0  2  0  0  0  0  0  0
  1  6  1  0  0  0  0
  2 11  1  0  0  0  0
  2 12  1  0  0  0  0
  3 10  1  0  0  0  0
  4  8  2  0  0  0  0
  5  1  2  0  0  0  0
  7  9  1  0  0  0  0
  7  4  1  0  0  0  0
  8  1  1  0  0  0  0
  9  5  1  0  0  0  0
 10 11  1  0  0  0  0
 11  7  2  0  0  0  0
 12 15  2  0  0  0  0
 13  2  2  0  0  0  0
 14  3  2  0  0  0  0
 14 13  1  0  0  0  0
 15  4  1  0  0  0  0
 16 13  1  0  0  0  0
 17 16  1  0  0  0  0
 18 19  1  0  0  0  0
 18 21  1  0  0  0  0
 19 24  1  1  0  0  0
 19 22  1  0  0  0  0
 21 17  1  1  0  0  0
 21 20  1  0  0  0  0
 22 20  1  0  0  0  0
 23 24  1  0  0  0  0
 25  3  1  0  0  0  0
 26 25  1  0  0  0  0
 27 29  1  6  0  0  0
 27 30  1  0  0  0  0
 27 26  1  0  0  0  0
 28 29  1  0  0  0  0
 31 30  1  1  0  0  0
 31 35  1  0  0  0  0
 31 34  1  0  0  0  0
 32 34  1  0  0  0  0
 33 36  1  0  0  0  0
 33 31  1  0  0  0  0
 34 37  1  1  0  0  0
 35 34  1  0  0  0  0
 36 32  1  0  0  0  0
 37 38  1  0  0  0  0
 38 42  2  0  0  0  0
 38 43  1  0  0  0  0
 39 41  1  0  0  0  0
 40 41  1  0  0  0  0
 42 40  1  0  0  0  0
 43 39  1  0  0  0  0
M  END
>  <MODEL>
4

>  <REMARK>
 VINA RESULT:      -9.1      1.947      4.698
  Name = 
  12 active torsions:
  status: ('A' for Active; 'I' for Inactive)
    1  A    between atoms: C_1  and  C_34
    2  A    between atoms: C_1  and  C_35
    3  A    between atoms: C_2  and  O_6
    4  A    between atoms: C_2  and  C_12
    5  A    between atoms: O_3  and  C_4
    6  A    between atoms: O_3  and  C_12
    7  A    between atoms: O_6  and  C_13
    8  A    between atoms: C_11  and  O_14
    9  A    between atoms: C_12  and  C_17
   10  A    between atoms: O_14  and  C_22
   11  A    between atoms: C_19  and  O_37
   12  A    between atoms: C_32  and  C_35
                            x       y       z     vdW  Elec       q    Type
                         _______ _______ _______ _____ _____    ______ ____

>  <TORSDO>
F 12

$$$$
=
 OpenBabel11052416233D

 43 49  0  0  1  0  0  0  0  0999 V2000
  184.7780  178.6200  145.6480 C   0  0  0  0  0  0  0  0  0  0  0  0
  182.7830  178.8880  140.9710 C   0  0  0  0  0  0  0  0  0  0  0  0
  184.9460  178.5820  139.1800 C   0  0  0  0  0  0  0  0  0  0  0  0
  183.2470  178.8270  143.7470 C   0  0  0  0  0  0  0  0  0  0  0  0
  185.8430  178.4600  144.8620 C   0  0  0  0  0  3  0  0  0  0  0  0
  184.9320  178.6100  147.0270 O   0  0  0  0  0  1  0  0  0  0  0  0
  184.3300  178.6680  142.8510 C   0  0  0  0  0  0  0  0  0  0  0  0
  183.4390  178.8070  145.0680 C   0  0  0  0  0  3  0  0  0  0  0  0
  185.7390  178.4630  143.3600 C   0  0  0  0  0  2  0  0  0  0  0  0
  185.1570  178.5490  140.5670 O   0  0  0  0  0  0  0  0  0  0  0  0
  184.0930  178.7010  141.4680 C   0  0  0  0  0  0  0  0  0  0  0  0
  181.7230  179.0400  141.8770 C   0  0  0  0  0  3  0  0  0  0  0  0
  182.5780  178.9200  139.6350 C   0  0  0  0  0  0  0  0  0  0  0  0
  183.7140  178.7600  138.7050 C   0  0  0  0  0  3  0  0  0  0  0  0
  181.9550  179.0100  143.2520 C   0  0  0  0  0  3  0  0  0  0  0  0
  181.2090  179.0930  139.0460 C   0  0  0  0  0  2  0  0  0  0  0  0
  180.8890  180.5660  138.8220 C   0  0  0  0  0  2  0  0  0  0  0  0
  180.2990  182.2140  137.0590 C   0  0  0  0  0  2  0  0  0  0  0  0
  180.2320  182.1580  135.5500 C   0  0  2  0  0  3  0  0  0  0  0  0
  180.7710  179.9380  136.4010 C   0  0  0  0  0  2  0  0  0  0  0  0
  180.1570  180.7790  137.5060 C   0  0  1  0  0  3  0  0  0  0  0  0
  180.8050  180.8090  135.1580 C   0  0  0  0  0  2  0  0  0  0  0  0
  180.1490  184.2910  134.9710 C   0  0  0  0  0  1  0  0  0  0  0  0
  180.9990  183.1840  134.9990 O   0  0  0  0  0  0  0  0  0  0  0  0
  186.0100  178.4300  138.2950 O   0  0  0  0  0  0  0  0  0  0  0  0
  186.0050  177.4130  137.3050 C   0  0  0  0  0  2  0  0  0  0  0  0
  187.3670  176.7260  137.2540 C   0  0  2  0  0  3  0  0  0  0  0  0
  186.2730  174.4810  137.2100 C   0  0  0  0  0  1  0  0  0  0  0  0
  187.3180  175.3660  136.5580 C   0  0  0  0  0  2  0  0  0  0  0  0
  188.0350  176.7020  138.5050 O   0  0  0  0  0  0  0  0  0  0  0  0
  189.2850  177.3630  138.4310 C   0  0  2  0  0  0  0  0  0  0  0  0
  191.3270  177.1270  139.7860 C   0  0  0  0  0  2  0  0  0  0  0  0
  190.3920  176.7540  137.5820 C   0  0  0  0  0  2  0  0  0  0  0  0
  189.8780  177.5650  139.8130 C   0  0  1  0  0  0  0  0  0  0  0  0
  189.4270  178.7680  139.0180 C   0  0  0  0  0  2  0  0  0  0  0  0
  191.4770  176.2900  138.5340 C   0  0  0  0  0  2  0  0  0  0  0  0
  189.0370  177.1320  140.8780 O   0  0  0  0  0  0  0  0  0  0  0  0
  189.4640  177.0800  142.2070 C   0  0  0  0  0  0  0  0  0  0  0  0
  191.2240  176.0600  143.6770 C   0  0  0  0  0  2  0  0  0  0  0  0
  189.8580  178.1280  144.3800 C   0  0  0  0  0  2  0  0  0  0  0  0
  191.1820  177.3660  144.4980 C   0  0  0  0  0  2  0  0  0  0  0  0
  189.4190  178.1850  142.9490 C   0  0  0  0  0  3  0  0  0  0  0  0
  189.9700  175.8040  142.8270 C   0  0  0  0  0  2  0  0  0  0  0  0
  1  6  1  0  0  0  0
  2 11  1  0  0  0  0
  2 12  1  0  0  0  0
  3 10  1  0  0  0  0
  4  8  2  0  0  0  0
  5  1  2  0  0  0  0
  7  9  1  0  0  0  0
  7  4  1  0  0  0  0
  8  1  1  0  0  0  0
  9  5  1  0  0  0  0
 10 11  1  0  0  0  0
 11  7  2  0  0  0  0
 12 15  2  0  0  0  0
 13  2  2  0  0  0  0
 14  3  2  0  0  0  0
 14 13  1  0  0  0  0
 15  4  1  0  0  0  0
 16 13  1  0  0  0  0
 17 16  1  0  0  0  0
 18 21  1  0  0  0  0
 19 24  1  6  0  0  0
 19 18  1  0  0  0  0
 20 21  1  0  0  0  0
 21 17  1  1  0  0  0
 22 19  1  0  0  0  0
 22 20  1  0  0  0  0
 23 24  1  0  0  0  0
 25  3  1  0  0  0  0
 26 25  1  0  0  0  0
 27 29  1  1  0  0  0
 27 26  1  0  0  0  0
 27 30  1  0  0  0  0
 29 28  1  0  0  0  0
 31 30  1  6  0  0  0
 31 35  1  0  0  0  0
 31 34  1  0  0  0  0
 32 34  1  0  0  0  0
 33 31  1  0  0  0  0
 33 36  1  0  0  0  0
 34 37  1  1  0  0  0
 35 34  1  0  0  0  0
 36 32  1  0  0  0  0
 37 38  1  0  0  0  0
 38 43  1  0  0  0  0
 38 42  2  0  0  0  0
 39 41  1  0  0  0  0
 40 41  1  0  0  0  0
 42 40  1  0  0  0  0
 43 39  1  0  0  0  0
M  END
>  <MODEL>
5

>  <REMARK>
 VINA RESULT:      -9.0      3.146      6.358
  Name = 
  12 active torsions:
  status: ('A' for Active; 'I' for Inactive)
    1  A    between atoms: C_1  and  C_34
    2  A    between atoms: C_1  and  C_35
    3  A    between atoms: C_2  and  O_6
    4  A    between atoms: C_2  and  C_12
    5  A    between atoms: O_3  and  C_4
    6  A    between atoms: O_3  and  C_12
    7  A    between atoms: O_6  and  C_13
    8  A    between atoms: C_11  and  O_14
    9  A    between atoms: C_12  and  C_17
   10  A    between atoms: O_14  and  C_22
   11  A    between atoms: C_19  and  O_37
   12  A    between atoms: C_32  and  C_35
                            x       y       z     vdW  Elec       q    Type
                         _______ _______ _______ _____ _____    ______ ____

>  <TORSDO>
F 12

$$$$
=
 OpenBabel11052416233D

 43 49  0  0  1  0  0  0  0  0999 V2000
  190.9020  176.7620  146.9800 C   0  0  0  0  0  0  0  0  0  0  0  0
  186.5070  178.3420  144.9540 C   0  0  0  0  0  0  0  0  0  0  0  0
  186.8770  178.3000  142.1540 C   0  0  0  0  0  0  0  0  0  0  0  0
  188.6100  177.5610  146.6540 C   0  0  0  0  0  0  0  0  0  0  0  0
  191.1430  176.7090  145.6700 C   0  0  0  0  0  3  0  0  0  0  0  0
  191.8960  176.3990  147.8790 O   0  0  0  0  0  1  0  0  0  0  0  0
  188.7940  177.5340  145.2530 C   0  0  0  0  0  0  0  0  0  0  0  0
  189.5910  177.2000  147.4840 C   0  0  0  0  0  3  0  0  0  0  0  0
  190.1070  177.0890  144.6470 C   0  0  0  0  0  2  0  0  0  0  0  0
  187.9120  177.9090  143.0170 O   0  0  0  0  0  0  0  0  0  0  0  0
  187.7430  177.9260  144.4090 C   0  0  0  0  0  0  0  0  0  0  0  0
  186.3430  178.3570  146.3470 C   0  0  0  0  0  3  0  0  0  0  0  0
  185.5080  178.7190  144.1240 C   0  0  0  0  0  0  0  0  0  0  0  0
  185.7100  178.6950  142.6610 C   0  0  0  0  0  3  0  0  0  0  0  0
  187.3870  177.9700  147.1880 C   0  0  0  0  0  3  0  0  0  0  0  0
  184.1660  179.1480  144.6390 C   0  0  0  0  0  2  0  0  0  0  0  0
  183.0600  178.2430  144.1090 C   0  0  0  0  0  2  0  0  0  0  0  0
  181.9370  178.7830  141.9600 C   0  0  0  0  0  2  0  0  0  0  0  0
  180.4960  178.9780  141.5480 C   0  0  2  0  0  3  0  0  0  0  0  0
  180.5910  178.6280  143.9590 C   0  0  0  0  0  2  0  0  0  0  0  0
  181.9560  179.0510  143.4460 C   0  0  1  0  0  3  0  0  0  0  0  0
  179.6630  178.5960  142.7580 C   0  0  0  0  0  2  0  0  0  0  0  0
  181.0240  178.5750  139.4390 C   0  0  0  0  0  1  0  0  0  0  0  0
  180.1890  178.1460  140.4720 O   0  0  0  0  0  0  0  0  0  0  0  0
  187.0560  178.2780  140.7730 O   0  0  0  0  0  0  0  0  0  0  0  0
  188.3050  178.6070  140.1860 C   0  0  0  0  0  2  0  0  0  0  0  0
  188.9970  177.3420  139.6840 C   0  0  2  0  0  3  0  0  0  0  0  0
  190.9930  177.1690  141.1750 C   0  0  0  0  0  1  0  0  0  0  0  0
  189.6600  176.5450  140.8060 C   0  0  0  0  0  2  0  0  0  0  0  0
  189.8430  177.5680  138.5670 O   0  0  0  0  0  0  0  0  0  0  0  0
  189.2640  177.0630  137.3770 C   0  0  2  0  0  0  0  0  0  0  0  0
  188.6440  174.7740  136.7200 C   0  0  0  0  0  2  0  0  0  0  0  0
  187.7490  176.9540  137.2810 C   0  0  0  0  0  2  0  0  0  0  0  0
  189.8070  175.6850  137.0480 C   0  0  1  0  0  0  0  0  0  0  0  0
  190.1470  176.8480  136.1460 C   0  0  0  0  0  2  0  0  0  0  0  0
  187.4120  175.4760  137.2480 C   0  0  0  0  0  2  0  0  0  0  0  0
  190.8210  175.2290  137.9390 O   0  0  0  0  0  0  0  0  0  0  0  0
  192.1110  174.9030  137.5150 C   0  0  0  0  0  0  0  0  0  0  0  0
  194.5080  174.9640  138.2560 C   0  0  0  0  0  2  0  0  0  0  0  0
  193.6830  173.4360  136.3520 C   0  0  0  0  0  2  0  0  0  0  0  0
  194.6970  173.6430  137.4820 C   0  0  0  0  0  2  0  0  0  0  0  0
  192.3050  173.7800  136.8260 C   0  0  0  0  0  3  0  0  0  0  0  0
  193.2910  175.7900  137.8120 C   0  0  0  0  0  2  0  0  0  0  0  0
  1  8  1  0  0  0  0
  1  6  1  0  0  0  0
  2 12  1  0  0  0  0
  3 14  2  0  0  0  0
  3 10  1  0  0  0  0
  4 15  1  0  0  0  0
  4  8  2  0  0  0  0
  5  1  2  0  0  0  0
  7  4  1  0  0  0  0
  9  7  1  0  0  0  0
  9  5  1  0  0  0  0
 10 11  1  0  0  0  0
 11  2  1  0  0  0  0
 11  7  2  0  0  0  0
 12 15  2  0  0  0  0
 13 16  1  0  0  0  0
 13  2  2  0  0  0  0
 14 13  1  0  0  0  0
 17 16  1  0  0  0  0
 18 21  1  0  0  0  0
 19 24  1  6  0  0  0
 19 18  1  0  0  0  0
 19 22  1  0  0  0  0
 21 20  1  0  0  0  0
 21 17  1  1  0  0  0
 22 20  1  0  0  0  0
 23 24  1  0  0  0  0
 25  3  1  0  0  0  0
 26 25  1  0  0  0  0
 27 26  1  1  0  0  0
 27 29  1  0  0  0  0
 29 28  1  0  0  0  0
 30 27  1  0  0  0  0
 31 30  1  1  0  0  0
 32 34  1  0  0  0  0
 32 36  1  0  0  0  0
 33 31  1  0  0  0  0
 34 31  1  0  0  0  0
 34 37  1  1  0  0  0
 35 34  1  0  0  0  0
 35 31  1  0  0  0  0
 36 33  1  0  0  0  0
 38 43  1  0  0  0  0
 38 37  1  0  0  0  0
 40 42  1  0  0  0  0
 40 41  1  0  0  0  0
 41 39  1  0  0  0  0
 42 38  2  0  0  0  0
 43 39  1  0  0  0  0
M  END
>  <MODEL>
6

>  <REMARK>
 VINA RESULT:      -8.8      2.168      4.396
  Name = 
  12 active torsions:
  status: ('A' for Active; 'I' for Inactive)
    1  A    between atoms: C_1  and  C_34
    2  A    between atoms: C_1  and  C_35
    3  A    between atoms: C_2  and  O_6
    4  A    between atoms: C_2  and  C_12
    5  A    between atoms: O_3  and  C_4
    6  A    between atoms: O_3  and  C_12
    7  A    between atoms: O_6  and  C_13
    8  A    between atoms: C_11  and  O_14
    9  A    between atoms: C_12  and  C_17
   10  A    between atoms: O_14  and  C_22
   11  A    between atoms: C_19  and  O_37
   12  A    between atoms: C_32  and  C_35
                            x       y       z     vdW  Elec       q    Type
                         _______ _______ _______ _____ _____    ______ ____

>  <TORSDO>
F 12

$$$$
=
 OpenBabel11052416233D

 43 49  0  0  1  0  0  0  0  0999 V2000
  184.9870  178.6150  145.9590 C   0  0  0  0  0  0  0  0  0  0  0  0
  182.9200  178.8180  141.3110 C   0  0  0  0  0  0  0  0  0  0  0  0
  185.0760  178.6720  139.4900 C   0  0  0  0  0  0  0  0  0  0  0  0
  183.4220  178.7510  144.0790 C   0  0  0  0  0  0  0  0  0  0  0  0
  186.0500  178.5330  145.1580 C   0  0  0  0  0  3  0  0  0  0  0  0
  185.1590  178.5970  147.3360 O   0  0  0  0  0  1  0  0  0  0  0  0
  184.5010  178.6710  143.1690 C   0  0  0  0  0  0  0  0  0  0  0  0
  183.6320  178.7250  145.3970 C   0  0  0  0  0  3  0  0  0  0  0  0
  185.9270  178.5490  143.6580 C   0  0  0  0  0  2  0  0  0  0  0  0
  185.3060  178.6340  140.8740 O   0  0  0  0  0  0  0  0  0  0  0  0
  184.2450  178.7080  141.7890 C   0  0  0  0  0  0  0  0  0  0  0  0
  181.8640  178.8910  142.2310 C   0  0  0  0  0  3  0  0  0  0  0  0
  182.6960  178.8550  139.9780 C   0  0  0  0  0  0  0  0  0  0  0  0
  183.8290  178.7780  139.0320 C   0  0  0  0  0  3  0  0  0  0  0  0
  182.1150  178.8580  143.6030 C   0  0  0  0  0  3  0  0  0  0  0  0
  181.3120  178.9480  139.4060 C   0  0  0  0  0  2  0  0  0  0  0  0
  181.3290  178.7630  137.8940 C   0  0  0  0  0  2  0  0  0  0  0  0
  181.6600  176.4600  137.0240 C   0  0  0  0  0  2  0  0  0  0  0  0
  181.0530  175.1160  137.3540 C   0  0  2  0  0  3  0  0  0  0  0  0
  179.9360  176.8350  138.6730 C   0  0  0  0  0  2  0  0  0  0  0  0
  180.6390  177.4700  137.4870 C   0  0  1  0  0  3  0  0  0  0  0  0
  180.1870  175.3400  138.5800 C   0  0  0  0  0  2  0  0  0  0  0  0
  182.1380  173.3860  136.5030 C   0  0  0  0  0  1  0  0  0  0  0  0
  182.0590  174.1930  137.6400 O   0  0  0  0  0  0  0  0  0  0  0  0
  186.1360  178.5980  138.5900 O   0  0  0  0  0  0  0  0  0  0  0  0
  186.0300  177.8550  137.3860 C   0  0  0  0  0  2  0  0  0  0  0  0
  187.1900  176.8680  137.2770 C   0  0  2  0  0  3  0  0  0  0  0  0
  185.3070  175.2660  136.9260 C   0  0  0  0  0  1  0  0  0  0  0  0
  186.7750  175.5340  136.6580 C   0  0  0  0  0  2  0  0  0  0  0  0
  187.9320  176.7340  138.4780 O   0  0  0  0  0  0  0  0  0  0  0  0
  189.2020  177.3520  138.3670 C   0  0  2  0  0  0  0  0  0  0  0  0
  191.2960  176.9880  139.6080 C   0  0  0  0  0  2  0  0  0  0  0  0
  190.2420  176.7400  137.4400 C   0  0  0  0  0  2  0  0  0  0  0  0
  189.8680  177.4760  139.7260 C   0  0  1  0  0  0  0  0  0  0  0  0
  189.4250  178.7270  139.0020 C   0  0  0  0  0  2  0  0  0  0  0  0
  191.3540  176.1990  138.3180 C   0  0  0  0  0  2  0  0  0  0  0  0
  189.0650  177.0290  140.8130 O   0  0  0  0  0  0  0  0  0  0  0  0
  189.5020  177.0560  142.1390 C   0  0  0  0  0  0  0  0  0  0  0  0
  191.2500  176.0940  143.6620 C   0  0  0  0  0  2  0  0  0  0  0  0
  189.9400  178.2380  144.2340 C   0  0  0  0  0  2  0  0  0  0  0  0
  191.2470  177.4530  144.3930 C   0  0  0  0  0  2  0  0  0  0  0  0
  189.4900  178.2090  142.8050 C   0  0  0  0  0  3  0  0  0  0  0  0
  189.9830  175.8130  142.8400 C   0  0  0  0  0  2  0  0  0  0  0  0
  1  6  1  0  0  0  0
  2 11  1  0  0  0  0
  2 12  1  0  0  0  0
  3 10  1  0  0  0  0
  4  8  2  0  0  0  0
  5  1  2  0  0  0  0
  7  9  1  0  0  0  0
  7  4  1  0  0  0  0
  8  1  1  0  0  0  0
  9  5  1  0  0  0  0
 10 11  1  0  0  0  0
 11  7  2  0  0  0  0
 12 15  2  0  0  0  0
 13  2  2  0  0  0  0
 14  3  2  0  0  0  0
 14 13  1  0  0  0  0
 15  4  1  0  0  0  0
 16 13  1  0  0  0  0
 17 16  1  0  0  0  0
 18 19  1  0  0  0  0
 18 21  1  0  0  0  0
 19 24  1  1  0  0  0
 19 22  1  0  0  0  0
 21 17  1  1  0  0  0
 21 20  1  0  0  0  0
 22 20  1  0  0  0  0
 23 24  1  0  0  0  0
 25  3  1  0  0  0  0
 26 25  1  0  0  0  0
 27 29  1  1  0  0  0
 27 26  1  0  0  0  0
 27 30  1  0  0  0  0
 29 28  1  0  0  0  0
 31 30  1  6  0  0  0
 31 35  1  0  0  0  0
 31 34  1  0  0  0  0
 32 34  1  0  0  0  0
 33 36  1  0  0  0  0
 33 31  1  0  0  0  0
 34 37  1  1  0  0  0
 35 34  1  0  0  0  0
 36 32  1  0  0  0  0
 37 38  1  0  0  0  0
 38 42  2  0  0  0  0
 38 43  1  0  0  0  0
 39 41  1  0  0  0  0
 40 41  1  0  0  0  0
 42 40  1  0  0  0  0
 43 39  1  0  0  0  0
M  END
>  <MODEL>
7

>  <REMARK>
 VINA RESULT:      -8.8      2.263      5.863
  Name = 
  12 active torsions:
  status: ('A' for Active; 'I' for Inactive)
    1  A    between atoms: C_1  and  C_34
    2  A    between atoms: C_1  and  C_35
    3  A    between atoms: C_2  and  O_6
    4  A    between atoms: C_2  and  C_12
    5  A    between atoms: O_3  and  C_4
    6  A    between atoms: O_3  and  C_12
    7  A    between atoms: O_6  and  C_13
    8  A    between atoms: C_11  and  O_14
    9  A    between atoms: C_12  and  C_17
   10  A    between atoms: O_14  and  C_22
   11  A    between atoms: C_19  and  O_37
   12  A    between atoms: C_32  and  C_35
                            x       y       z     vdW  Elec       q    Type
                         _______ _______ _______ _____ _____    ______ ____

>  <TORSDO>
F 12

$$$$
=
 OpenBabel11052416233D

 43 49  0  0  1  0  0  0  0  0999 V2000
  190.9440  176.7770  146.6360 C   0  0  0  0  0  0  0  0  0  0  0  0
  189.7500  177.5910  141.7540 C   0  0  0  0  0  0  0  0  0  0  0  0
  187.0920  178.5490  141.7490 C   0  0  0  0  0  0  0  0  0  0  0  0
  191.0000  176.9510  144.1930 C   0  0  0  0  0  0  0  0  0  0  0  0
  189.6930  177.2320  146.7080 C   0  0  0  0  0  3  0  0  0  0  0  0
  191.6210  176.4340  147.7980 O   0  0  0  0  0  1  0  0  0  0  0  0
  189.6720  177.4360  144.1920 C   0  0  0  0  0  0  0  0  0  0  0  0
  191.6160  176.6360  145.3340 C   0  0  0  0  0  3  0  0  0  0  0  0
  188.9070  177.6200  145.4840 C   0  0  0  0  0  3  0  0  0  0  0  0
  187.7330  178.2300  142.9550 O   0  0  0  0  0  0  0  0  0  0  0  0
  189.0520  177.7520  142.9720 C   0  0  0  0  0  0  0  0  0  0  0  0
  191.0680  177.1130  141.7770 C   0  0  0  0  0  2  0  0  0  0  0  0
  189.1330  177.8980  140.5900 C   0  0  0  0  0  0  0  0  0  0  0  0
  187.7420  178.3980  140.5950 C   0  0  0  0  0  3  0  0  0  0  0  0
  191.6860  176.7960  142.9870 C   0  0  0  0  0  3  0  0  0  0  0  0
  189.8260  177.7710  139.2660 C   0  0  0  0  0  2  0  0  0  0  0  0
  189.1480  178.6320  138.2070 C   0  0  0  0  0  2  0  0  0  0  0  0
  188.6160  176.3530  137.3760 C   0  0  0  0  0  2  0  0  0  0  0  0
  187.5810  175.7970  136.4250 C   0  0  2  0  0  3  0  0  0  0  0  0
  187.3900  178.2270  136.4710 C   0  0  0  0  0  2  0  0  0  0  0  0
  188.7520  177.8070  136.9930 C   0  0  1  0  0  3  0  0  0  0  0  0
  186.6530  176.9520  136.0980 C   0  0  0  0  0  2  0  0  0  0  0  0
  185.5400  174.9790  136.6640 C   0  0  0  0  0  1  0  0  0  0  0  0
  186.8670  174.7690  137.0420 O   0  0  0  0  0  0  0  0  0  0  0  0
  185.7830  179.0230  141.7430 O   0  0  0  0  0  0  0  0  0  0  0  0
  184.7660  178.3900  142.5030 C   0  0  0  0  0  2  0  0  0  0  0  0
  183.3950  178.7050  141.9100 C   0  0  2  0  0  3  0  0  0  0  0  0
  182.9320  178.9360  144.3530 C   0  0  0  0  0  1  0  0  0  0  0  0
  182.3070  178.8440  142.9740 C   0  0  0  0  0  2  0  0  0  0  0  0
  183.0360  177.8510  140.8350 O   0  0  0  0  0  0  0  0  0  0  0  0
  183.1930  178.5050  139.5880 C   0  0  2  0  0  0  0  0  0  0  0  0
  182.1680  178.0750  137.3920 C   0  0  0  0  0  2  0  0  0  0  0  0
  182.2540  179.6500  139.2320 C   0  0  0  0  0  2  0  0  0  0  0  0
  183.1070  177.5170  138.4390 C   0  0  1  0  0  0  0  0  0  0  0  0
  184.4230  178.2010  138.7310 C   0  0  0  0  0  2  0  0  0  0  0  0
  181.3860  179.1690  138.0850 C   0  0  0  0  0  2  0  0  0  0  0  0
  182.9710  176.1590  138.8470 O   0  0  0  0  0  0  0  0  0  0  0  0
  181.7920  175.4310  138.6740 C   0  0  0  0  0  0  0  0  0  0  0  0
  179.2960  175.6460  138.8340 C   0  0  0  0  0  2  0  0  0  0  0  0
  180.4430  173.7760  137.4810 C   0  0  0  0  0  2  0  0  0  0  0  0
  179.2170  174.6820  137.6310 C   0  0  0  0  0  2  0  0  0  0  0  0
  181.6990  174.5740  137.6590 C   0  0  0  0  0  3  0  0  0  0  0  0
  180.6210  175.5840  139.6090 C   0  0  0  0  0  2  0  0  0  0  0  0
  1  5  1  0  0  0  0
  1  6  1  0  0  0  0
  2 12  1  0  0  0  0
  2 11  1  0  0  0  0
  3 10  1  0  0  0  0
  4  8  1  0  0  0  0
  7  4  1  0  0  0  0
  7  9  1  0  0  0  0
  8  1  2  0  0  0  0
  9  5  2  0  0  0  0
 10 11  1  0  0  0  0
 11  7  2  0  0  0  0
 12 15  1  0  0  0  0
 13 14  1  0  0  0  0
 13  2  2  0  0  0  0
 14  3  2  0  0  0  0
 15  4  2  0  0  0  0
 16 13  1  0  0  0  0
 17 16  1  0  0  0  0
 19 24  1  1  0  0  0
 19 18  1  0  0  0  0
 20 21  1  0  0  0  0
 21 18  1  0  0  0  0
 21 17  1  1  0  0  0
 22 19  1  0  0  0  0
 22 20  1  0  0  0  0
 23 24  1  0  0  0  0
 25  3  1  0  0  0  0
 25 26  1  0  0  0  0
 27 26  1  1  0  0  0
 27 29  1  0  0  0  0
 29 28  1  0  0  0  0
 30 27  1  0  0  0  0
 31 30  1  1  0  0  0
 32 36  1  0  0  0  0
 32 34  1  0  0  0  0
 33 31  1  0  0  0  0
 34 35  1  0  0  0  0
 34 37  1  1  0  0  0
 34 31  1  0  0  0  0
 35 31  1  0  0  0  0
 36 33  1  0  0  0  0
 38 37  1  0  0  0  0
 38 43  1  0  0  0  0
 39 43  1  0  0  0  0
 40 41  1  0  0  0  0
 40 42  1  0  0  0  0
 41 39  1  0  0  0  0
 42 38  2  0  0  0  0
M  END
>  <MODEL>
8

>  <REMARK>
 VINA RESULT:      -8.7      1.767      5.833
  Name = 
  12 active torsions:
  status: ('A' for Active; 'I' for Inactive)
    1  A    between atoms: C_1  and  C_34
    2  A    between atoms: C_1  and  C_35
    3  A    between atoms: C_2  and  O_6
    4  A    between atoms: C_2  and  C_12
    5  A    between atoms: O_3  and  C_4
    6  A    between atoms: O_3  and  C_12
    7  A    between atoms: O_6  and  C_13
    8  A    between atoms: C_11  and  O_14
    9  A    between atoms: C_12  and  C_17
   10  A    between atoms: O_14  and  C_22
   11  A    between atoms: C_19  and  O_37
   12  A    between atoms: C_32  and  C_35
                            x       y       z     vdW  Elec       q    Type
                         _______ _______ _______ _____ _____    ______ ____

>  <TORSDO>
F 12

$$$$
=
 OpenBabel11052416233D

 43 49  0  0  1  0  0  0  0  0999 V2000
  191.0160  176.7790  146.5740 C   0  0  0  0  0  0  0  0  0  0  0  0
  189.7280  177.6280  141.7220 C   0  0  0  0  0  0  0  0  0  0  0  0
  187.0740  178.5940  141.7760 C   0  0  0  0  0  0  0  0  0  0  0  0
  191.0240  176.9690  144.1320 C   0  0  0  0  0  0  0  0  0  0  0  0
  189.7680  177.2370  146.6740 C   0  0  0  0  0  3  0  0  0  0  0  0
  191.7140  176.4260  147.7200 O   0  0  0  0  0  1  0  0  0  0  0  0
  189.6980  177.4580  144.1600 C   0  0  0  0  0  0  0  0  0  0  0  0
  191.6620  176.6450  145.2590 C   0  0  0  0  0  3  0  0  0  0  0  0
  188.9600  177.6350  145.4680 C   0  0  0  0  0  3  0  0  0  0  0  0
  187.7380  178.2650  142.9670 O   0  0  0  0  0  0  0  0  0  0  0  0
  189.0550  177.7830  142.9550 C   0  0  0  0  0  0  0  0  0  0  0  0
  191.0450  177.1460  141.7170 C   0  0  0  0  0  2  0  0  0  0  0  0
  189.0900  177.9450  140.5730 C   0  0  0  0  0  0  0  0  0  0  0  0
  187.7010  178.4490  140.6090 C   0  0  0  0  0  3  0  0  0  0  0  0
  191.6860  176.8200  142.9120 C   0  0  0  0  0  3  0  0  0  0  0  0
  189.7560  177.8250  139.2340 C   0  0  0  0  0  2  0  0  0  0  0  0
  189.4650  176.4720  138.5960 C   0  0  0  0  0  2  0  0  0  0  0  0
  191.8240  176.7520  137.8690 C   0  0  0  0  0  2  0  0  0  0  0  0
  192.8490  175.8280  137.2540 C   0  0  2  0  0  3  0  0  0  0  0  0
  190.7320  174.6370  137.4590 C   0  0  0  0  0  2  0  0  0  0  0  0
  190.4900  176.1340  137.5240 C   0  0  1  0  0  3  0  0  0  0  0  0
  192.2270  174.4440  137.2730 C   0  0  0  0  0  2  0  0  0  0  0  0
  194.5050  174.5320  137.9400 C   0  0  0  0  0  1  0  0  0  0  0  0
  194.0190  175.8390  138.0140 O   0  0  0  0  0  0  0  0  0  0  0  0
  185.7660  179.0720  141.7990 O   0  0  0  0  0  0  0  0  0  0  0  0
  184.7210  178.3320  142.4100 C   0  0  0  0  0  2  0  0  0  0  0  0
  183.3960  178.6220  141.7120 C   0  0  2  0  0  3  0  0  0  0  0  0
  182.7810  178.9500  144.1100 C   0  0  0  0  0  1  0  0  0  0  0  0
  182.2480  178.8560  142.6930 C   0  0  0  0  0  2  0  0  0  0  0  0
  183.0860  177.6970  140.6820 O   0  0  0  0  0  0  0  0  0  0  0  0
  182.5320  178.3520  139.5550 C   0  0  2  0  0  0  0  0  0  0  0  0
  182.7430  177.8910  137.1460 C   0  0  0  0  0  2  0  0  0  0  0  0
  181.1930  177.8760  139.0090 C   0  0  0  0  0  2  0  0  0  0  0  0
  183.4970  178.3300  138.3830 C   0  0  1  0  0  0  0  0  0  0  0  0
  183.1720  179.6470  139.0500 C   0  0  0  0  0  2  0  0  0  0  0  0
  181.4630  177.2610  137.6490 C   0  0  0  0  0  2  0  0  0  0  0  0
  184.7600  177.7410  138.6770 O   0  0  0  0  0  0  0  0  0  0  0  0
  185.7280  177.4990  137.7000 C   0  0  0  0  0  0  0  0  0  0  0  0
  186.1640  176.1160  135.6520 C   0  0  0  0  0  2  0  0  0  0  0  0
  187.4900  178.2590  136.1860 C   0  0  0  0  0  2  0  0  0  0  0  0
  186.9470  177.3250  135.1000 C   0  0  0  0  0  2  0  0  0  0  0  0
  186.4370  178.5180  137.2190 C   0  0  0  0  0  3  0  0  0  0  0  0
  185.9980  176.1120  137.1790 C   0  0  0  0  0  2  0  0  0  0  0  0
  1  5  1  0  0  0  0
  1  6  1  0  0  0  0
  2 11  1  0  0  0  0
  3 25  1  0  0  0  0
  3 10  1  0  0  0  0
  4  7  1  0  0  0  0
  4  8  1  0  0  0  0
  7  9  1  0  0  0  0
  8  1  2  0  0  0  0
  9  5  2  0  0  0  0
 11 10  1  0  0  0  0
 11  7  2  0  0  0  0
 12  2  1  0  0  0  0
 12 15  1  0  0  0  0
 13 14  1  0  0  0  0
 13  2  2  0  0  0  0
 14  3  2  0  0  0  0
 15  4  2  0  0  0  0
 16 13  1  0  0  0  0
 17 16  1  0  0  0  0
 19 22  1  0  0  0  0
 19 18  1  0  0  0  0
 19 24  1  1  0  0  0
 20 21  1  0  0  0  0
 21 18  1  0  0  0  0
 21 17  1  1  0  0  0
 22 20  1  0  0  0  0
 23 24  1  0  0  0  0
 25 26  1  0  0  0  0
 27 26  1  1  0  0  0
 27 29  1  0  0  0  0
 29 28  1  0  0  0  0
 30 27  1  0  0  0  0
 31 30  1  1  0  0  0
 32 36  1  0  0  0  0
 32 34  1  0  0  0  0
 33 31  1  0  0  0  0
 34 37  1  1  0  0  0
 34 35  1  0  0  0  0
 34 31  1  0  0  0  0
 35 31  1  0  0  0  0
 36 33  1  0  0  0  0
 38 37  1  0  0  0  0
 39 43  1  0  0  0  0
 40 42  1  0  0  0  0
 41 39  1  0  0  0  0
 41 40  1  0  0  0  0
 42 38  2  0  0  0  0
 43 38  1  0  0  0  0
M  END
>  <MODEL>
9

>  <REMARK>
 VINA RESULT:      -8.6      2.238      6.999
  Name = 
  12 active torsions:
  status: ('A' for Active; 'I' for Inactive)
    1  A    between atoms: C_1  and  C_34
    2  A    between atoms: C_1  and  C_35
    3  A    between atoms: C_2  and  O_6
    4  A    between atoms: C_2  and  C_12
    5  A    between atoms: O_3  and  C_4
    6  A    between atoms: O_3  and  C_12
    7  A    between atoms: O_6  and  C_13
    8  A    between atoms: C_11  and  O_14
    9  A    between atoms: C_12  and  C_17
   10  A    between atoms: O_14  and  C_22
   11  A    between atoms: C_19  and  O_37
   12  A    between atoms: C_32  and  C_35
                            x       y       z     vdW  Elec       q    Type
                         _______ _______ _______ _____ _____    ______ ____

>  <TORSDO>
F 12

$$$$
