=
 OpenBabel11052413413D

 27 31  0  0  1  0  0  0  0  0999 V2000
  189.5120  176.3540  143.3590 N   0  0  2  0  0  0  0  0  0  0  0  0
  188.2640  177.5890  144.8460 C   0  0  0  0  0  0  0  0  0  0  0  0
  188.3210  176.9010  142.6270 C   0  0  1  0  0  3  0  0  0  0  0  0
  184.3190  178.9570  144.9220 C   0  0  0  0  0  3  0  0  0  0  0  0
  182.2190  179.3270  143.7960 O   0  0  0  0  0  1  0  0  0  0  0  0
  187.7620  178.1180  146.0400 C   0  0  0  0  0  3  0  0  0  0  0  0
  185.3700  177.8500  142.5640 C   0  0  0  0  0  3  0  0  0  0  0  0
  188.7860  178.7780  139.4100 O   0  0  0  0  0  1  0  0  0  0  0  0
  184.0520  178.3160  142.5970 C   0  0  0  0  0  3  0  0  0  0  0  0
  190.2330  176.9830  140.0290 C   0  0  0  0  0  2  0  0  0  0  0  0
  187.4930  177.4860  143.7240 C   0  0  0  0  0  0  0  0  0  0  0  0
  189.5310  176.9930  144.6220 N   0  0  0  0  0  0  0  0  0  0  0  0
  183.5280  178.8670  143.7720 C   0  0  0  0  0  0  0  0  0  0  0  0
  185.6380  178.4960  144.9010 C   0  0  0  0  0  0  0  0  0  0  0  0
  190.8390  176.3390  142.7160 C   0  0  0  0  0  2  0  0  0  0  0  0
  186.1680  177.9370  143.7100 C   0  0  0  0  0  0  0  0  0  0  0  0
  188.8750  177.6560  140.2320 C   0  0  1  0  0  3  0  0  0  0  0  0
  186.4360  178.5820  146.0580 C   0  0  0  0  0  3  0  0  0  0  0  0
  191.4050  177.7200  140.6990 C   0  0  0  0  0  2  0  0  0  0  0  0
  191.3250  177.6990  142.2290 C   0  0  0  0  0  2  0  0  0  0  0  0
  188.6130  178.0700  141.6760 C   0  0  0  0  0  2  0  0  0  0  0  0
  192.2390  175.9540  147.7270 C   0  0  0  0  0  3  0  0  0  0  0  0
  190.4450  176.6350  145.6770 C   0  0  0  0  0  0  0  0  0  0  0  0
  190.3230  177.2110  146.9500 C   0  0  0  0  0  3  0  0  0  0  0  0
  191.2150  176.8710  147.9710 C   0  0  0  0  0  3  0  0  0  0  0  0
  192.3730  175.3780  146.4610 C   0  0  0  0  0  3  0  0  0  0  0  0
  191.4810  175.7180  145.4410 C   0  0  0  0  0  3  0  0  0  0  0  0
  1 15  1  6  0  0  0
  1 12  1  0  0  0  0
  2  6  1  0  0  0  0
  3 21  1  6  0  0  0
  3  1  1  0  0  0  0
  3 11  1  0  0  0  0
  6 18  2  0  0  0  0
  7  9  2  0  0  0  0
  7 16  1  0  0  0  0
  9 13  1  0  0  0  0
 10 17  1  0  0  0  0
 10 19  1  0  0  0  0
 11  2  2  0  0  0  0
 12  2  1  0  0  0  0
 12 23  1  0  0  0  0
 13  5  1  0  0  0  0
 13  4  2  0  0  0  0
 14  4  1  0  0  0  0
 14 18  1  0  0  0  0
 16 11  1  0  0  0  0
 16 14  2  0  0  0  0
 17  8  1  6  0  0  0
 17 21  1  0  0  0  0
 19 20  1  0  0  0  0
 20 15  1  0  0  0  0
 22 25  1  0  0  0  0
 23 24  1  0  0  0  0
 24 25  2  0  0  0  0
 26 22  2  0  0  0  0
 27 23  2  0  0  0  0
 27 26  1  0  0  0  0
M  END
>  <MODEL>
1

>  <REMARK>
 VINA RESULT:     -11.3      0.000      0.000
  Name = 
  1 active torsions:
  status: ('A' for Active; 'I' for Inactive)
    1  A    between atoms: C_9  and  N_15
                            x       y       z     vdW  Elec       q    Type
                         _______ _______ _______ _____ _____    ______ ____

>  <TORSDO>
F 1

$$$$
=
 OpenBabel11052413413D

 27 31  0  0  1  0  0  0  0  0999 V2000
  186.3840  177.4760  143.0680 N   0  0  2  0  0  0  0  0  0  0  0  0
  188.6550  177.8470  143.0670 C   0  0  0  0  0  0  0  0  0  0  0  0
  186.8700  177.3980  144.4860 C   0  0  1  0  0  3  0  0  0  0  0  0
  191.7450  177.0690  145.7650 C   0  0  0  0  0  3  0  0  0  0  0  0
  192.4730  176.4080  147.9670 O   0  0  0  0  0  1  0  0  0  0  0  0
  189.9760  177.9910  142.6310 C   0  0  0  0  0  3  0  0  0  0  0  0
  189.0730  176.7590  146.5730 C   0  0  0  0  0  3  0  0  0  0  0  0
  185.1990  179.4290  147.1650 O   0  0  0  0  0  1  0  0  0  0  0  0
  190.1140  176.5060  147.4710 C   0  0  0  0  0  3  0  0  0  0  0  0
  183.9740  178.5590  145.3100 C   0  0  0  0  0  2  0  0  0  0  0  0
  188.3550  177.4350  144.3340 C   0  0  0  0  0  0  0  0  0  0  0  0
  187.4660  177.9710  142.3030 N   0  0  0  0  0  0  0  0  0  0  0  0
  191.4450  176.6610  147.0690 C   0  0  0  0  0  0  0  0  0  0  0  0
  190.7130  177.3260  144.8580 C   0  0  0  0  0  0  0  0  0  0  0  0
  185.1130  178.1560  142.7530 C   0  0  0  0  0  2  0  0  0  0  0  0
  189.3640  177.1690  145.2670 C   0  0  0  0  0  0  0  0  0  0  0  0
  185.2360  178.4560  146.1680 C   0  0  1  0  0  3  0  0  0  0  0  0
  191.0110  177.7340  143.5450 C   0  0  0  0  0  3  0  0  0  0  0  0
  183.9750  179.7420  144.3290 C   0  0  0  0  0  2  0  0  0  0  0  0
  185.0320  179.6030  143.2280 C   0  0  0  0  0  2  0  0  0  0  0  0
  186.5260  178.6080  145.3680 C   0  0  0  0  0  2  0  0  0  0  0  0
  187.3950  178.2090  138.0610 C   0  0  0  0  0  3  0  0  0  0  0  0
  187.4440  178.0590  140.8650 C   0  0  0  0  0  0  0  0  0  0  0  0
  186.2690  178.4250  140.1920 C   0  0  0  0  0  3  0  0  0  0  0  0
  186.2450  178.5020  138.7960 C   0  0  0  0  0  3  0  0  0  0  0  0
  188.5700  177.8390  138.7210 C   0  0  0  0  0  3  0  0  0  0  0  0
  188.5940  177.7630  140.1150 C   0  0  0  0  0  3  0  0  0  0  0  0
  1 15  1  1  0  0  0
  1  3  1  0  0  0  0
  2 11  1  0  0  0  0
  3 21  1  1  0  0  0
  4 13  2  0  0  0  0
  6  2  2  0  0  0  0
  6 18  1  0  0  0  0
  7  9  2  0  0  0  0
 10 17  1  0  0  0  0
 11  3  1  0  0  0  0
 11 16  2  0  0  0  0
 12  2  1  0  0  0  0
 12  1  1  0  0  0  0
 13  9  1  0  0  0  0
 13  5  1  0  0  0  0
 14 16  1  0  0  0  0
 14  4  1  0  0  0  0
 15 20  1  0  0  0  0
 16  7  1  0  0  0  0
 17  8  1  1  0  0  0
 18 14  2  0  0  0  0
 19 10  1  0  0  0  0
 20 19  1  0  0  0  0
 21 17  1  0  0  0  0
 22 26  2  0  0  0  0
 22 25  1  0  0  0  0
 23 12  1  0  0  0  0
 24 23  1  0  0  0  0
 25 24  2  0  0  0  0
 26 27  1  0  0  0  0
 27 23  2  0  0  0  0
M  END
>  <MODEL>
2

>  <REMARK>
 VINA RESULT:     -10.4      2.591      6.929
  Name = 
  1 active torsions:
  status: ('A' for Active; 'I' for Inactive)
    1  A    between atoms: C_9  and  N_15
                            x       y       z     vdW  Elec       q    Type
                         _______ _______ _______ _____ _____    ______ ____

>  <TORSDO>
F 1

$$$$
=
 OpenBabel11052413413D

 27 31  0  0  1  0  0  0  0  0999 V2000
  187.9190  177.0470  143.8160 N   0  0  2  0  0  0  0  0  0  0  0  0
  186.1610  178.3370  144.5520 C   0  0  0  0  0  0  0  0  0  0  0  0
  187.0150  177.3140  142.6480 C   0  0  1  0  0  3  0  0  0  0  0  0
  182.3450  179.1870  143.0860 C   0  0  0  0  0  3  0  0  0  0  0  0
  180.7330  179.1020  141.2930 O   0  0  0  0  0  1  0  0  0  0  0  0
  185.2490  178.9820  145.3940 C   0  0  0  0  0  3  0  0  0  0  0  0
  184.2050  177.8580  141.4540 C   0  0  0  0  0  3  0  0  0  0  0  0
  188.4220  178.6940  139.4530 O   0  0  0  0  0  1  0  0  0  0  0  0
  182.9280  178.1520  140.9700 C   0  0  0  0  0  3  0  0  0  0  0  0
  189.6870  177.2210  140.8410 C   0  0  0  0  0  2  0  0  0  0  0  0
  185.8270  177.9580  143.2840 C   0  0  0  0  0  0  0  0  0  0  0  0
  187.4650  177.8780  144.8680 N   0  0  0  0  0  0  0  0  0  0  0  0
  182.0000  178.8140  141.7820 C   0  0  0  0  0  0  0  0  0  0  0  0
  183.6200  178.9000  143.5810 C   0  0  0  0  0  0  0  0  0  0  0  0
  189.3840  177.0970  143.6500 C   0  0  0  0  0  2  0  0  0  0  0  0
  184.5590  178.2290  142.7560 C   0  0  0  0  0  0  0  0  0  0  0  0
  188.2990  177.7390  140.4600 C   0  0  1  0  0  3  0  0  0  0  0  0
  183.9690  179.2700  144.8930 C   0  0  0  0  0  3  0  0  0  0  0  0
  190.5090  178.1970  141.6960 C   0  0  0  0  0  2  0  0  0  0  0  0
  189.9160  178.4130  143.0930 C   0  0  0  0  0  2  0  0  0  0  0  0
  187.5350  178.3430  141.6340 C   0  0  0  0  0  2  0  0  0  0  0  0
  189.0130  177.7060  148.8220 C   0  0  0  0  0  3  0  0  0  0  0  0
  187.9880  177.8130  146.2090 C   0  0  0  0  0  0  0  0  0  0  0  0
  187.2020  178.2160  147.3000 C   0  0  0  0  0  3  0  0  0  0  0  0
  187.7110  178.1610  148.6000 C   0  0  0  0  0  3  0  0  0  0  0  0
  189.8060  177.3060  147.7430 C   0  0  0  0  0  3  0  0  0  0  0  0
  189.2960  177.3610  146.4440 C   0  0  0  0  0  3  0  0  0  0  0  0
  1 15  1  6  0  0  0
  1 12  1  0  0  0  0
  2 12  1  0  0  0  0
  2  6  1  0  0  0  0
  3 21  1  6  0  0  0
  3 11  1  0  0  0  0
  3  1  1  0  0  0  0
  4 14  1  0  0  0  0
  5 13  1  0  0  0  0
  7 16  1  0  0  0  0
  9  7  2  0  0  0  0
  9 13  1  0  0  0  0
 10 19  1  0  0  0  0
 11  2  2  0  0  0  0
 12 23  1  0  0  0  0
 13  4  2  0  0  0  0
 14 18  1  0  0  0  0
 16 11  1  0  0  0  0
 16 14  2  0  0  0  0
 17  8  1  6  0  0  0
 17 10  1  0  0  0  0
 17 21  1  0  0  0  0
 18  6  2  0  0  0  0
 19 20  1  0  0  0  0
 20 15  1  0  0  0  0
 23 27  2  0  0  0  0
 23 24  1  0  0  0  0
 24 25  2  0  0  0  0
 25 22  1  0  0  0  0
 26 22  2  0  0  0  0
 27 26  1  0  0  0  0
M  END
>  <MODEL>
3

>  <REMARK>
 VINA RESULT:     -10.3      1.585      2.371
  Name = 
  1 active torsions:
  status: ('A' for Active; 'I' for Inactive)
    1  A    between atoms: C_9  and  N_15
                            x       y       z     vdW  Elec       q    Type
                         _______ _______ _______ _____ _____    ______ ____

>  <TORSDO>
F 1

$$$$
=
 OpenBabel11052413413D

 27 31  0  0  1  0  0  0  0  0999 V2000
  187.2560  176.8980  144.5100 N   0  0  2  0  0  0  0  0  0  0  0  0
  187.3410  178.0190  142.5030 C   0  0  0  0  0  0  0  0  0  0  0  0
  188.6230  176.6990  143.9210 C   0  0  1  0  0  3  0  0  0  0  0  0
  189.8050  177.8100  139.1390 C   0  0  0  0  0  3  0  0  0  0  0  0
  191.8080  176.9960  138.0690 O   0  0  0  0  0  1  0  0  0  0  0  0
  186.9500  178.6970  141.3430 C   0  0  0  0  0  3  0  0  0  0  0  0
  190.5200  176.4370  141.4830 C   0  0  0  0  0  3  0  0  0  0  0  0
  191.6820  177.4250  145.9730 O   0  0  0  0  0  1  0  0  0  0  0  0
  191.3420  176.3780  140.3540 C   0  0  0  0  0  3  0  0  0  0  0  0
  189.6790  176.5930  146.9690 C   0  0  0  0  0  2  0  0  0  0  0  0
  188.4850  177.2760  142.5510 C   0  0  0  0  0  0  0  0  0  0  0  0
  186.6210  177.8830  143.7180 N   0  0  0  0  0  0  0  0  0  0  0  0
  190.9870  177.0610  139.1850 C   0  0  0  0  0  0  0  0  0  0  0  0
  188.9760  177.8780  140.2610 C   0  0  0  0  0  0  0  0  0  0  0  0
  187.0980  177.1490  145.9550 C   0  0  0  0  0  2  0  0  0  0  0  0
  189.3380  177.1850  141.4450 C   0  0  0  0  0  0  0  0  0  0  0  0
  190.4940  176.7550  145.6860 C   0  0  1  0  0  3  0  0  0  0  0  0
  187.7860  178.6280  140.2170 C   0  0  0  0  0  3  0  0  0  0  0  0
  188.9840  177.8810  147.4390 C   0  0  0  0  0  2  0  0  0  0  0  0
  187.8810  178.3460  146.4820 C   0  0  0  0  0  2  0  0  0  0  0  0
  189.7500  177.5040  144.5850 C   0  0  0  0  0  2  0  0  0  0  0  0
  182.5470  178.9990  144.1760 C   0  0  0  0  0  3  0  0  0  0  0  0
  185.2380  178.2550  143.8750 C   0  0  0  0  0  0  0  0  0  0  0  0
  184.3720  178.2580  142.7700 C   0  0  0  0  0  3  0  0  0  0  0  0
  183.0320  178.6270  142.9200 C   0  0  0  0  0  3  0  0  0  0  0  0
  183.4010  179.0030  145.2820 C   0  0  0  0  0  3  0  0  0  0  0  0
  184.7400  178.6340  145.1310 C   0  0  0  0  0  3  0  0  0  0  0  0
  1 15  1  1  0  0  0
  2 11  1  0  0  0  0
  2 12  1  0  0  0  0
  3  1  1  0  0  0  0
  3 21  1  1  0  0  0
  4 13  2  0  0  0  0
  4 14  1  0  0  0  0
  5 13  1  0  0  0  0
  6  2  2  0  0  0  0
  9  7  2  0  0  0  0
 10 19  1  0  0  0  0
 11  3  1  0  0  0  0
 12 23  1  0  0  0  0
 12  1  1  0  0  0  0
 13  9  1  0  0  0  0
 14 16  1  0  0  0  0
 15 20  1  0  0  0  0
 16  7  1  0  0  0  0
 16 11  2  0  0  0  0
 17  8  1  1  0  0  0
 17 10  1  0  0  0  0
 18 14  2  0  0  0  0
 18  6  1  0  0  0  0
 20 19  1  0  0  0  0
 21 17  1  0  0  0  0
 22 26  1  0  0  0  0
 23 27  1  0  0  0  0
 24 25  1  0  0  0  0
 24 23  2  0  0  0  0
 25 22  2  0  0  0  0
 27 26  2  0  0  0  0
M  END
>  <MODEL>
4

>  <REMARK>
 VINA RESULT:     -10.1      2.463      6.670
  Name = 
  1 active torsions:
  status: ('A' for Active; 'I' for Inactive)
    1  A    between atoms: C_9  and  N_15
                            x       y       z     vdW  Elec       q    Type
                         _______ _______ _______ _____ _____    ______ ____

>  <TORSDO>
F 1

$$$$
=
 OpenBabel11052413413D

 27 31  0  0  1  0  0  0  0  0999 V2000
  186.6720  179.0030  140.9690 N   0  0  2  0  0  0  0  0  0  0  0  0
  186.7370  177.8780  142.9750 C   0  0  0  0  0  0  0  0  0  0  0  0
  188.1040  178.6670  141.2690 C   0  0  1  0  0  3  0  0  0  0  0  0
  189.7240  177.0740  145.7800 C   0  0  0  0  0  3  0  0  0  0  0  0
  192.0550  177.0610  146.3970 O   0  0  0  0  0  1  0  0  0  0  0  0
  186.3640  177.3630  144.2210 C   0  0  0  0  0  3  0  0  0  0  0  0
  190.4100  178.1450  143.2760 C   0  0  0  0  0  3  0  0  0  0  0  0
  190.2070  176.9140  138.7010 O   0  0  0  0  0  1  0  0  0  0  0  0
  191.4040  177.8670  144.2190 C   0  0  0  0  0  3  0  0  0  0  0  0
  188.4940  178.4540  138.0730 C   0  0  0  0  0  2  0  0  0  0  0  0
  188.0400  178.1470  142.6680 C   0  0  0  0  0  0  0  0  0  0  0  0
  185.8910  178.3020  141.9180 N   0  0  0  0  0  0  0  0  0  0  0  0
  191.0630  177.3340  145.4670 C   0  0  0  0  0  0  0  0  0  0  0  0
  188.7220  177.3460  144.8450 C   0  0  0  0  0  0  0  0  0  0  0  0
  186.1470  178.8660  139.5970 C   0  0  0  0  0  2  0  0  0  0  0  0
  189.0690  177.8870  143.5810 C   0  0  0  0  0  0  0  0  0  0  0  0
  189.4310  177.9680  139.1800 C   0  0  1  0  0  3  0  0  0  0  0  0
  187.3740  177.0890  145.1580 C   0  0  0  0  0  3  0  0  0  0  0  0
  187.2960  177.5270  137.8130 C   0  0  0  0  0  2  0  0  0  0  0  0
  186.3140  177.4780  138.9880 C   0  0  0  0  0  2  0  0  0  0  0  0
  188.6990  177.5200  140.4400 C   0  0  0  0  0  2  0  0  0  0  0  0
  181.6890  178.7860  142.3230 C   0  0  0  0  0  3  0  0  0  0  0  0
  184.4670  178.4720  142.0530 C   0  0  0  0  0  0  0  0  0  0  0  0
  183.9210  179.0030  143.2320 C   0  0  0  0  0  3  0  0  0  0  0  0
  182.5390  179.1600  143.3660 C   0  0  0  0  0  3  0  0  0  0  0  0
  182.2210  178.2530  141.1460 C   0  0  0  0  0  3  0  0  0  0  0  0
  183.6030  178.0960  141.0120 C   0  0  0  0  0  3  0  0  0  0  0  0
  1 15  1  6  0  0  0
  1  3  1  0  0  0  0
  1 12  1  0  0  0  0
  2  6  1  0  0  0  0
  3 21  1  6  0  0  0
  3 11  1  0  0  0  0
  6 18  2  0  0  0  0
  7 16  2  0  0  0  0
  7  9  1  0  0  0  0
  9 13  2  0  0  0  0
 10 17  1  0  0  0  0
 11  2  2  0  0  0  0
 11 16  1  0  0  0  0
 12 23  1  0  0  0  0
 12  2  1  0  0  0  0
 13  4  1  0  0  0  0
 13  5  1  0  0  0  0
 14 18  1  0  0  0  0
 14  4  2  0  0  0  0
 16 14  1  0  0  0  0
 17  8  1  6  0  0  0
 17 21  1  0  0  0  0
 19 10  1  0  0  0  0
 19 20  1  0  0  0  0
 20 15  1  0  0  0  0
 22 25  1  0  0  0  0
 23 24  1  0  0  0  0
 24 25  2  0  0  0  0
 26 22  2  0  0  0  0
 27 26  1  0  0  0  0
 27 23  2  0  0  0  0
M  END
>  <MODEL>
5

>  <REMARK>
 VINA RESULT:      -9.6      2.738      6.315
  Name = 
  1 active torsions:
  status: ('A' for Active; 'I' for Inactive)
    1  A    between atoms: C_9  and  N_15
                            x       y       z     vdW  Elec       q    Type
                         _______ _______ _______ _____ _____    ______ ____

>  <TORSDO>
F 1

$$$$
=
 OpenBabel11052413413D

 27 31  0  0  1  0  0  0  0  0999 V2000
  187.1700  178.6720  139.1230 N   0  0  2  0  0  0  0  0  0  0  0  0
  186.2360  178.1170  141.1510 C   0  0  0  0  0  0  0  0  0  0  0  0
  188.2820  178.3200  140.0680 C   0  0  1  0  0  3  0  0  0  0  0  0
  187.6780  177.8580  145.0610 C   0  0  0  0  0  3  0  0  0  0  0  0
  189.5340  177.8310  146.6010 O   0  0  0  0  0  1  0  0  0  0  0  0
  185.3160  177.9790  142.1960 C   0  0  0  0  0  3  0  0  0  0  0  0
  189.4760  178.1730  142.9260 C   0  0  0  0  0  3  0  0  0  0  0  0
  190.8740  175.7950  139.0690 O   0  0  0  0  0  1  0  0  0  0  0  0
  189.9500  178.0790  144.2370 C   0  0  0  0  0  3  0  0  0  0  0  0
  189.8540  177.2400  137.4650 C   0  0  0  0  0  2  0  0  0  0  0  0
  187.5790  178.1940  141.3800 C   0  0  0  0  0  0  0  0  0  0  0  0
  185.9660  178.3090  139.7720 N   0  0  0  0  0  0  0  0  0  0  0  0
  189.0550  177.9230  145.3020 C   0  0  0  0  0  0  0  0  0  0  0  0
  187.1920  177.9490  143.7540 C   0  0  0  0  0  0  0  0  0  0  0  0
  187.2130  178.2180  137.7200 C   0  0  0  0  0  2  0  0  0  0  0  0
  188.1000  178.1080  142.6760 C   0  0  0  0  0  0  0  0  0  0  0  0
  190.1760  176.9950  138.9400 C   0  0  1  0  0  3  0  0  0  0  0  0
  185.8070  177.8870  143.5080 C   0  0  0  0  0  3  0  0  0  0  0  0
  188.7100  176.3710  136.9190 C   0  0  0  0  0  2  0  0  0  0  0  0
  187.3530  176.7100  137.5440 C   0  0  0  0  0  2  0  0  0  0  0  0
  188.9390  176.9520  139.8310 C   0  0  0  0  0  2  0  0  0  0  0  0
  182.1060  179.2150  138.2430 C   0  0  0  0  0  3  0  0  0  0  0  0
  184.6600  178.6170  139.2470 C   0  0  0  0  0  0  0  0  0  0  0  0
  184.1820  179.9370  139.2560 C   0  0  0  0  0  3  0  0  0  0  0  0
  182.9110  180.2340  138.7550 C   0  0  0  0  0  3  0  0  0  0  0  0
  182.5700  177.8970  138.2330 C   0  0  0  0  0  3  0  0  0  0  0  0
  183.8400  177.6000  138.7340 C   0  0  0  0  0  3  0  0  0  0  0  0
  1 15  1  6  0  0  0
  1 12  1  0  0  0  0
  1  3  1  0  0  0  0
  2 11  2  0  0  0  0
  2  6  1  0  0  0  0
  3 21  1  6  0  0  0
  3 11  1  0  0  0  0
  4 13  1  0  0  0  0
  6 18  2  0  0  0  0
  7  9  1  0  0  0  0
  9 13  2  0  0  0  0
 10 17  1  0  0  0  0
 11 16  1  0  0  0  0
 12  2  1  0  0  0  0
 13  5  1  0  0  0  0
 14  4  2  0  0  0  0
 16  7  2  0  0  0  0
 16 14  1  0  0  0  0
 17  8  1  6  0  0  0
 17 21  1  0  0  0  0
 18 14  1  0  0  0  0
 19 10  1  0  0  0  0
 19 20  1  0  0  0  0
 20 15  1  0  0  0  0
 22 25  1  0  0  0  0
 23 24  1  0  0  0  0
 23 12  1  0  0  0  0
 25 24  2  0  0  0  0
 26 22  2  0  0  0  0
 26 27  1  0  0  0  0
 27 23  2  0  0  0  0
M  END
>  <MODEL>
6

>  <REMARK>
 VINA RESULT:      -9.4      3.249      6.837
  Name = 
  1 active torsions:
  status: ('A' for Active; 'I' for Inactive)
    1  A    between atoms: C_9  and  N_15
                            x       y       z     vdW  Elec       q    Type
                         _______ _______ _______ _____ _____    ______ ____

>  <TORSDO>
F 1

$$$$
=
 OpenBabel11052413413D

 27 31  0  0  1  0  0  0  0  0999 V2000
  187.7060  178.6140  139.8130 N   0  0  2  0  0  0  0  0  0  0  0  0
  187.2600  177.9220  141.9610 C   0  0  0  0  0  0  0  0  0  0  0  0
  188.9990  178.1840  140.4430 C   0  0  1  0  0  3  0  0  0  0  0  0
  189.5710  177.3680  145.3950 C   0  0  0  0  0  3  0  0  0  0  0  0
  191.7350  177.2130  146.4490 O   0  0  0  0  0  1  0  0  0  0  0  0
  186.6070  177.7180  143.1820 C   0  0  0  0  0  3  0  0  0  0  0  0
  190.8260  177.8200  142.9230 C   0  0  0  0  0  3  0  0  0  0  0  0
  191.2190  175.7140  138.6920 O   0  0  0  0  0  1  0  0  0  0  0  0
  191.5910  177.6280  144.0760 C   0  0  0  0  0  3  0  0  0  0  0  0
  189.8900  177.2800  137.4760 C   0  0  0  0  0  2  0  0  0  0  0  0
  188.6210  177.9700  141.8720 C   0  0  0  0  0  0  0  0  0  0  0  0
  186.6790  178.2160  140.7010 N   0  0  0  0  0  0  0  0  0  0  0  0
  190.9670  177.4030  145.3080 C   0  0  0  0  0  0  0  0  0  0  0  0
  188.7950  177.5570  144.2480 C   0  0  0  0  0  0  0  0  0  0  0  0
  187.4080  178.2610  138.4120 C   0  0  0  0  0  2  0  0  0  0  0  0
  189.4290  177.7860  143.0000 C   0  0  0  0  0  0  0  0  0  0  0  0
  190.5410  176.9260  138.8130 C   0  0  1  0  0  3  0  0  0  0  0  0
  187.3900  177.5260  144.3320 C   0  0  0  0  0  3  0  0  0  0  0  0
  188.6270  176.4640  137.1570 C   0  0  0  0  0  2  0  0  0  0  0  0
  187.4640  176.7690  138.1060 C   0  0  0  0  0  2  0  0  0  0  0  0
  189.5470  176.8310  139.9660 C   0  0  0  0  0  2  0  0  0  0  0  0
  182.5930  179.2500  140.1610 C   0  0  0  0  0  3  0  0  0  0  0  0
  185.2950  178.5730  140.5210 C   0  0  0  0  0  0  0  0  0  0  0  0
  184.3310  178.1860  141.4660 C   0  0  0  0  0  3  0  0  0  0  0  0
  182.9870  178.5240  141.2870 C   0  0  0  0  0  3  0  0  0  0  0  0
  183.5440  179.6370  139.2120 C   0  0  0  0  0  3  0  0  0  0  0  0
  184.8870  179.2990  139.3910 C   0  0  0  0  0  3  0  0  0  0  0  0
  1 15  1  6  0  0  0
  1  3  1  0  0  0  0
  1 12  1  0  0  0  0
  2  6  1  0  0  0  0
  3 21  1  6  0  0  0
  3 11  1  0  0  0  0
  6 18  2  0  0  0  0
  7 16  2  0  0  0  0
  7  9  1  0  0  0  0
  9 13  2  0  0  0  0
 10 17  1  0  0  0  0
 11  2  2  0  0  0  0
 11 16  1  0  0  0  0
 12  2  1  0  0  0  0
 13  4  1  0  0  0  0
 13  5  1  0  0  0  0
 14 18  1  0  0  0  0
 14  4  2  0  0  0  0
 16 14  1  0  0  0  0
 17  8  1  6  0  0  0
 17 21  1  0  0  0  0
 19 10  1  0  0  0  0
 19 20  1  0  0  0  0
 20 15  1  0  0  0  0
 22 25  1  0  0  0  0
 23 12  1  0  0  0  0
 23 24  1  0  0  0  0
 25 24  2  0  0  0  0
 26 27  1  0  0  0  0
 26 22  2  0  0  0  0
 27 23  2  0  0  0  0
M  END
>  <MODEL>
7

>  <REMARK>
 VINA RESULT:      -9.3      2.964      6.524
  Name = 
  1 active torsions:
  status: ('A' for Active; 'I' for Inactive)
    1  A    between atoms: C_9  and  N_15
                            x       y       z     vdW  Elec       q    Type
                         _______ _______ _______ _____ _____    ______ ____

>  <TORSDO>
F 1

$$$$
=
 OpenBabel11052413413D

 27 31  0  0  1  0  0  0  0  0999 V2000
  185.8560  179.2410  142.2770 N   0  0  2  0  0  0  0  0  0  0  0  0
  187.5750  177.7200  142.4390 C   0  0  0  0  0  0  0  0  0  0  0  0
  186.4000  179.0020  140.8980 C   0  0  1  0  0  3  0  0  0  0  0  0
  190.7720  176.6470  139.9760 C   0  0  0  0  0  3  0  0  0  0  0  0
  191.8800  176.7480  137.8370 O   0  0  0  0  0  1  0  0  0  0  0  0
  188.5850  176.9090  142.9680 C   0  0  0  0  0  3  0  0  0  0  0  0
  188.7340  178.3040  138.9800 C   0  0  0  0  0  3  0  0  0  0  0  0
  184.0810  178.0830  138.0910 O   0  0  0  0  0  1  0  0  0  0  0  0
  189.8050  177.9350  138.1610 C   0  0  0  0  0  3  0  0  0  0  0  0
  183.3910  179.5310  139.8590 C   0  0  0  0  0  2  0  0  0  0  0  0
  187.6240  178.1860  141.1570 C   0  0  0  0  0  0  0  0  0  0  0  0
  186.4560  178.2710  143.1150 N   0  0  0  0  0  0  0  0  0  0  0  0
  190.8210  177.1100  138.6560 C   0  0  0  0  0  0  0  0  0  0  0  0
  189.7060  177.0080  140.8040 C   0  0  0  0  0  0  0  0  0  0  0  0
  184.4010  179.3500  142.4950 C   0  0  0  0  0  2  0  0  0  0  0  0
  188.6770  177.8450  140.3010 C   0  0  0  0  0  0  0  0  0  0  0  0
  184.5660  178.9190  139.0960 C   0  0  1  0  0  3  0  0  0  0  0  0
  189.6550  176.5470  142.1330 C   0  0  0  0  0  3  0  0  0  0  0  0
  182.6980  178.5610  140.8300 C   0  0  0  0  0  2  0  0  0  0  0  0
  183.5930  178.1540  142.0050 C   0  0  0  0  0  2  0  0  0  0  0  0
  185.5220  178.1320  139.9860 C   0  0  0  0  0  2  0  0  0  0  0  0
  185.9960  178.2460  147.3390 C   0  0  0  0  0  3  0  0  0  0  0  0
  186.2990  178.2560  144.5470 C   0  0  0  0  0  0  0  0  0  0  0  0
  185.0810  178.6340  145.1330 C   0  0  0  0  0  3  0  0  0  0  0  0
  184.9300  178.6280  146.5220 C   0  0  0  0  0  3  0  0  0  0  0  0
  187.2150  177.8720  146.7660 C   0  0  0  0  0  3  0  0  0  0  0  0
  187.3650  177.8780  145.3770 C   0  0  0  0  0  3  0  0  0  0  0  0
  1 15  1  6  0  0  0
  1 12  1  0  0  0  0
  2  6  1  0  0  0  0
  2 12  1  0  0  0  0
  3 21  1  6  0  0  0
  3 11  1  0  0  0  0
  3  1  1  0  0  0  0
  4 14  1  0  0  0  0
  5 13  1  0  0  0  0
  7 16  1  0  0  0  0
  9 13  1  0  0  0  0
  9  7  2  0  0  0  0
 10 19  1  0  0  0  0
 11  2  2  0  0  0  0
 12 23  1  0  0  0  0
 13  4  2  0  0  0  0
 14 18  1  0  0  0  0
 16 14  2  0  0  0  0
 16 11  1  0  0  0  0
 17  8  1  6  0  0  0
 17 10  1  0  0  0  0
 17 21  1  0  0  0  0
 18  6  2  0  0  0  0
 19 20  1  0  0  0  0
 20 15  1  0  0  0  0
 23 24  2  0  0  0  0
 23 27  1  0  0  0  0
 24 25  1  0  0  0  0
 25 22  2  0  0  0  0
 26 22  1  0  0  0  0
 27 26  2  0  0  0  0
M  END
>  <MODEL>
8

>  <REMARK>
 VINA RESULT:      -8.8      2.824      6.142
  Name = 
  1 active torsions:
  status: ('A' for Active; 'I' for Inactive)
    1  A    between atoms: C_9  and  N_15
                            x       y       z     vdW  Elec       q    Type
                         _______ _______ _______ _____ _____    ______ ____

>  <TORSDO>
F 1

$$$$
=
 OpenBabel11052413413D

 27 31  0  0  1  0  0  0  0  0999 V2000
  188.1620  176.9090  143.4170 N   0  0  2  0  0  0  0  0  0  0  0  0
  186.9800  178.1600  141.8900 C   0  0  0  0  0  0  0  0  0  0  0  0
  188.8880  176.8510  142.1040 C   0  0  1  0  0  3  0  0  0  0  0  0
  186.8800  178.3510  137.7200 C   0  0  0  0  0  3  0  0  0  0  0  0
  187.8280  177.7610  135.5820 O   0  0  0  0  0  1  0  0  0  0  0  0
  185.9480  178.8790  141.2770 C   0  0  0  0  0  3  0  0  0  0  0  0
  188.9050  176.8890  139.0040 C   0  0  0  0  0  3  0  0  0  0  0  0
  192.5480  177.6730  141.9380 O   0  0  0  0  0  1  0  0  0  0  0  0
  188.8680  176.9640  137.6090 C   0  0  0  0  0  3  0  0  0  0  0  0
  191.5870  176.6310  143.8590 C   0  0  0  0  0  2  0  0  0  0  0  0
  187.9300  177.5030  141.1620 C   0  0  0  0  0  0  0  0  0  0  0  0
  187.1550  177.8930  143.2720 N   0  0  0  0  0  0  0  0  0  0  0  0
  187.8590  177.6920  136.9680 C   0  0  0  0  0  0  0  0  0  0  0  0
  186.9080  178.2860  139.1150 C   0  0  0  0  0  0  0  0  0  0  0  0
  188.9140  177.0550  144.6780 C   0  0  0  0  0  2  0  0  0  0  0  0
  187.9310  177.5470  139.7630 C   0  0  0  0  0  0  0  0  0  0  0  0
  191.4460  176.9350  142.3670 C   0  0  1  0  0  3  0  0  0  0  0  0
  185.9230  178.9450  139.8740 C   0  0  0  0  0  3  0  0  0  0  0  0
  191.2980  177.8300  144.7750 C   0  0  0  0  0  2  0  0  0  0  0  0
  189.8310  178.2710  144.7340 C   0  0  0  0  0  2  0  0  0  0  0  0
  190.1690  177.6950  142.0230 C   0  0  0  0  0  2  0  0  0  0  0  0
  184.1820  178.6280  146.2180 C   0  0  0  0  0  3  0  0  0  0  0  0
  186.1490  178.1490  144.2710 C   0  0  0  0  0  0  0  0  0  0  0  0
  186.4490  178.0130  145.6350 C   0  0  0  0  0  3  0  0  0  0  0  0
  185.4710  178.2530  146.6040 C   0  0  0  0  0  3  0  0  0  0  0  0
  183.8710  178.7620  144.8620 C   0  0  0  0  0  3  0  0  0  0  0  0
  184.8490  178.5230  143.8940 C   0  0  0  0  0  3  0  0  0  0  0  0
  1 15  1  1  0  0  0
  2 12  1  0  0  0  0
  3 21  1  1  0  0  0
  3  1  1  0  0  0  0
  4 14  1  0  0  0  0
  5 13  1  0  0  0  0
  6  2  1  0  0  0  0
  7 16  1  0  0  0  0
  9  7  2  0  0  0  0
 10 19  1  0  0  0  0
 11  2  2  0  0  0  0
 11  3  1  0  0  0  0
 12  1  1  0  0  0  0
 12 23  1  0  0  0  0
 13  9  1  0  0  0  0
 13  4  2  0  0  0  0
 14 16  2  0  0  0  0
 14 18  1  0  0  0  0
 15 20  1  0  0  0  0
 16 11  1  0  0  0  0
 17  8  1  1  0  0  0
 17 10  1  0  0  0  0
 18  6  2  0  0  0  0
 20 19  1  0  0  0  0
 21 17  1  0  0  0  0
 22 25  1  0  0  0  0
 23 24  1  0  0  0  0
 24 25  2  0  0  0  0
 26 22  2  0  0  0  0
 27 23  2  0  0  0  0
 27 26  1  0  0  0  0
M  END
>  <MODEL>
9

>  <REMARK>
 VINA RESULT:      -8.6      2.671      5.539
  Name = 
  1 active torsions:
  status: ('A' for Active; 'I' for Inactive)
    1  A    between atoms: C_9  and  N_15
                            x       y       z     vdW  Elec       q    Type
                         _______ _______ _______ _____ _____    ______ ____

>  <TORSDO>
F 1

$$$$
