=
 OpenBabel11052415473D

 34 39  0  0  0  0  0  0  0  0999 V2000
  184.3480  178.6710  141.9220 C   0  0  0  0  0  0  0  0  0  0  0  0
  185.6530  178.3130  138.3150 C   0  0  0  0  0  3  0  0  0  0  0  0
  183.4470  178.5460  139.2650 C   0  0  0  0  0  3  0  0  0  0  0  0
  183.5280  178.8950  144.2300 C   0  0  0  0  0  0  0  0  0  0  0  0
  184.6060  178.7470  143.3110 C   0  0  0  0  0  3  0  0  0  0  0  0
  181.9840  178.8780  142.3940 C   0  0  0  0  0  0  0  0  0  0  0  0
  180.8330  178.9090  141.6860 N   0  0  0  0  0  0  0  0  0  0  0  0
  182.1880  178.9570  143.7700 C   0  0  0  0  0  3  0  0  0  0  0  0
  182.5970  178.6850  140.3080 N   0  0  0  0  0  0  0  0  0  0  0  0
  183.0240  178.7440  141.5510 C   0  0  0  0  0  0  0  0  0  0  0  0
  181.2490  178.7870  140.3860 C   0  0  0  0  0  3  0  0  0  0  0  0
  186.9680  178.2020  138.1680 C   0  0  0  0  0  3  0  0  0  0  0  0
  188.0290  178.1940  139.1800 C   0  0  0  0  0  0  0  0  0  0  0  0
  187.8320  178.3030  140.4930 C   0  0  0  0  0  3  0  0  0  0  0  0
  184.8370  178.4610  139.5250 C   0  0  0  0  0  0  0  0  0  0  0  0
  186.5920  178.4520  141.2590 C   0  0  0  0  0  3  0  0  0  0  0  0
  185.3090  178.5230  140.8840 C   0  0  0  0  0  0  0  0  0  0  0  0
  189.4150  178.0530  138.6930 C   0  0  0  0  0  0  0  0  0  0  0  0
  190.4390  177.7450  139.5820 O   0  0  0  0  0  1  0  0  0  0  0  0
  189.6900  178.2090  137.4730 O   0  0  0  0  0  0  0  0  0  0  0  0
  183.8090  178.9460  145.6940 C   0  0  0  0  0  2  0  0  0  0  0  0
  187.0590  178.2890  147.5330 C   0  0  0  0  0  3  0  0  0  0  0  0
  186.0200  178.0490  144.9380 C   0  0  0  0  0  3  0  0  0  0  0  0
  190.0030  176.9510  145.7270 C   0  0  0  0  0  0  0  0  0  0  0  0
  189.1900  177.4380  146.7600 C   0  0  0  0  0  3  0  0  0  0  0  0
  187.8660  177.8030  146.5030 C   0  0  0  0  0  0  0  0  0  0  0  0
  188.1540  177.2000  144.1650 C   0  0  0  0  0  3  0  0  0  0  0  0
  187.3450  177.6830  145.1960 C   0  0  0  0  0  0  0  0  0  0  0  0
  189.4780  176.8350  144.4300 C   0  0  0  0  0  3  0  0  0  0  0  0
  185.2140  178.5310  145.9760 C   0  0  0  0  0  0  0  0  0  0  0  0
  185.7340  178.6550  147.2690 C   0  0  0  0  0  3  0  0  0  0  0  0
  191.3960  176.5680  146.0040 C   0  0  0  0  0  0  0  0  0  0  0  0
  192.0680  175.9340  145.1470 O   0  0  0  0  0  0  0  0  0  0  0  0
  191.9860  176.9020  147.2180 O   0  0  0  0  0  1  0  0  0  0  0  0
  1  5  1  0  0  0  0
  2 15  1  0  0  0  0
  3 15  2  0  0  0  0
  3  9  1  0  0  0  0
  4 21  1  0  0  0  0
  5  4  2  0  0  0  0
  6  8  2  0  0  0  0
  7  6  1  0  0  0  0
  8  4  1  0  0  0  0
  9 11  1  0  0  0  0
  9 10  1  0  0  0  0
 10  1  2  0  0  0  0
 10  6  1  0  0  0  0
 11  7  2  0  0  0  0
 12  2  2  0  0  0  0
 12 13  1  0  0  0  0
 13 14  2  0  0  0  0
 14 16  1  0  0  0  0
 15 17  1  0  0  0  0
 17 16  2  0  0  0  0
 17  1  1  0  0  0  0
 18 13  1  0  0  0  0
 18 19  1  0  0  0  0
 20 18  2  0  0  0  0
 21 30  1  0  0  0  0
 23 28  2  0  0  0  0
 23 30  1  0  0  0  0
 24 32  1  0  0  0  0
 24 25  2  0  0  0  0
 26 25  1  0  0  0  0
 26 22  2  0  0  0  0
 27 29  2  0  0  0  0
 27 28  1  0  0  0  0
 28 26  1  0  0  0  0
 29 24  1  0  0  0  0
 30 31  2  0  0  0  0
 31 22  1  0  0  0  0
 32 34  1  0  0  0  0
 33 32  2  0  0  0  0
M  END
>  <MODEL>
1

>  <REMARK>
 VINA RESULT:     -12.4      0.000      0.000
  Name = 
  4 active torsions:
  status: ('A' for Active; 'I' for Inactive)
    1  A    between atoms: C_3  and  C_25
    2  A    between atoms: C_7  and  C_11
    3  A    between atoms: C_8  and  C_18
    4  A    between atoms: C_18  and  C_30
                            x       y       z     vdW  Elec       q    Type
                         _______ _______ _______ _____ _____    ______ ____

>  <TORSDO>
F 4

$$$$
=
 OpenBabel11052415473D

 34 39  0  0  0  0  0  0  0  0999 V2000
  189.0360  177.5730  144.3390 C   0  0  0  0  0  0  0  0  0  0  0  0
  191.3960  177.1300  141.3260 C   0  0  0  0  0  3  0  0  0  0  0  0
  191.6470  176.7620  143.6980 C   0  0  0  0  0  3  0  0  0  0  0  0
  187.5200  177.8650  146.2530 C   0  0  0  0  0  0  0  0  0  0  0  0
  187.7720  177.9470  144.8550 C   0  0  0  0  0  3  0  0  0  0  0  0
  189.7560  177.0630  146.5910 C   0  0  0  0  0  0  0  0  0  0  0  0
  190.8800  176.6130  147.1930 N   0  0  0  0  0  0  0  0  0  0  0  0
  188.5280  177.4200  147.1460 C   0  0  0  0  0  3  0  0  0  0  0  0
  191.1860  176.7670  144.9690 N   0  0  0  0  0  0  0  0  0  0  0  0
  189.9610  177.1470  145.2650 C   0  0  0  0  0  0  0  0  0  0  0  0
  191.7550  176.4370  146.1530 C   0  0  0  0  0  3  0  0  0  0  0  0
  190.9030  177.4430  140.1340 C   0  0  0  0  0  3  0  0  0  0  0  0
  189.5730  177.9410  139.7700 C   0  0  0  0  0  0  0  0  0  0  0  0
  188.5830  178.1760  140.6300 C   0  0  0  0  0  3  0  0  0  0  0  0
  190.7820  177.1810  142.6580 C   0  0  0  0  0  0  0  0  0  0  0  0
  188.5320  178.0170  142.0870 C   0  0  0  0  0  3  0  0  0  0  0  0
  189.4410  177.5990  142.9760 C   0  0  0  0  0  0  0  0  0  0  0  0
  189.3250  178.1990  138.3380 C   0  0  0  0  0  0  0  0  0  0  0  0
  188.9520  179.4690  137.9110 O   0  0  0  0  0  1  0  0  0  0  0  0
  189.4460  177.2780  137.4860 O   0  0  0  0  0  0  0  0  0  0  0  0
  186.1930  178.2870  146.7890 C   0  0  0  0  0  2  0  0  0  0  0  0
  182.9620  178.9900  144.9350 C   0  0  0  0  0  3  0  0  0  0  0  0
  185.5980  178.2210  144.3590 C   0  0  0  0  0  3  0  0  0  0  0  0
  182.7990  178.6550  141.2490 C   0  0  0  0  0  0  0  0  0  0  0  0
  182.4180  178.8950  142.5770 C   0  0  0  0  0  3  0  0  0  0  0  0
  183.3440  178.7530  143.6130 C   0  0  0  0  0  0  0  0  0  0  0  0
  185.0510  178.1240  142.0000 C   0  0  0  0  0  3  0  0  0  0  0  0
  184.6700  178.3640  143.3220 C   0  0  0  0  0  0  0  0  0  0  0  0
  184.1190  178.2690  140.9680 C   0  0  0  0  0  3  0  0  0  0  0  0
  185.2100  178.4660  145.6810 C   0  0  0  0  0  0  0  0  0  0  0  0
  183.8940  178.8450  145.9680 C   0  0  0  0  0  3  0  0  0  0  0  0
  181.8190  178.8070  140.1620 C   0  0  0  0  0  0  0  0  0  0  0  0
  180.7530  178.1350  140.1650 O   0  0  0  0  0  1  0  0  0  0  0  0
  182.0610  179.6940  139.1190 O   0  0  0  0  0  0  0  0  0  0  0  0
  1  5  2  0  0  0  0
  1 10  1  0  0  0  0
  2 15  1  0  0  0  0
  3  9  1  0  0  0  0
  4 21  1  0  0  0  0
  4  8  2  0  0  0  0
  5  4  1  0  0  0  0
  6  8  1  0  0  0  0
  6  7  1  0  0  0  0
  9 10  1  0  0  0  0
  9 11  1  0  0  0  0
 10  6  2  0  0  0  0
 11  7  2  0  0  0  0
 12  2  2  0  0  0  0
 13 12  1  0  0  0  0
 13 14  2  0  0  0  0
 14 16  1  0  0  0  0
 15 17  1  0  0  0  0
 15  3  2  0  0  0  0
 16 17  2  0  0  0  0
 17  1  1  0  0  0  0
 18 13  1  0  0  0  0
 19 18  1  0  0  0  0
 20 18  2  0  0  0  0
 22 31  1  0  0  0  0
 23 30  1  0  0  0  0
 24 25  2  0  0  0  0
 25 26  1  0  0  0  0
 26 22  2  0  0  0  0
 27 28  1  0  0  0  0
 28 26  1  0  0  0  0
 28 23  2  0  0  0  0
 29 24  1  0  0  0  0
 29 27  2  0  0  0  0
 30 31  2  0  0  0  0
 30 21  1  0  0  0  0
 32 33  1  0  0  0  0
 32 24  1  0  0  0  0
 34 32  2  0  0  0  0
M  END
>  <MODEL>
2

>  <REMARK>
 VINA RESULT:     -12.4      3.577      6.911
  Name = 
  4 active torsions:
  status: ('A' for Active; 'I' for Inactive)
    1  A    between atoms: C_3  and  C_25
    2  A    between atoms: C_7  and  C_11
    3  A    between atoms: C_8  and  C_18
    4  A    between atoms: C_18  and  C_30
                            x       y       z     vdW  Elec       q    Type
                         _______ _______ _______ _____ _____    ______ ____

>  <TORSDO>
F 4

$$$$
=
 OpenBabel11052415473D

 34 39  0  0  0  0  0  0  0  0999 V2000
  187.8060  177.7240  145.2690 C   0  0  0  0  0  0  0  0  0  0  0  0
  184.1600  178.8670  145.7660 C   0  0  0  0  0  3  0  0  0  0  0  0
  186.0180  178.5470  147.2720 C   0  0  0  0  0  3  0  0  0  0  0  0
  190.1300  176.9890  144.9370 C   0  0  0  0  0  0  0  0  0  0  0  0
  188.8420  177.2860  144.4090 C   0  0  0  0  0  3  0  0  0  0  0  0
  189.3390  177.5500  147.1320 C   0  0  0  0  0  0  0  0  0  0  0  0
  189.3010  177.7570  148.4680 N   0  0  0  0  0  0  0  0  0  0  0  0
  190.3900  177.1150  146.3260 C   0  0  0  0  0  3  0  0  0  0  0  0
  187.3000  178.2120  147.5440 N   0  0  0  0  0  0  0  0  0  0  0  0
  188.1350  177.8270  146.6010 C   0  0  0  0  0  0  0  0  0  0  0  0
  188.0140  178.1700  148.6940 C   0  0  0  0  0  3  0  0  0  0  0  0
  183.4030  178.9240  144.6770 C   0  0  0  0  0  3  0  0  0  0  0  0
  183.7370  178.6150  143.2830 C   0  0  0  0  0  0  0  0  0  0  0  0
  184.9290  178.2010  142.8570 C   0  0  0  0  0  3  0  0  0  0  0  0
  185.5660  178.4790  145.9320 C   0  0  0  0  0  0  0  0  0  0  0  0
  186.1690  177.9500  143.5990 C   0  0  0  0  0  3  0  0  0  0  0  0
  186.4740  178.0570  144.8970 C   0  0  0  0  0  0  0  0  0  0  0  0
  182.6600  178.7790  142.2860 C   0  0  0  0  0  0  0  0  0  0  0  0
  182.9160  178.5500  140.9390 O   0  0  0  0  0  0  0  0  0  0  0  0
  181.5010  179.1270  142.6390 O   0  0  0  0  0  1  0  0  0  0  0  0
  191.2060  176.5020  144.0260 C   0  0  0  0  0  2  0  0  0  0  0  0
  191.6870  177.4280  140.3810 C   0  0  0  0  0  3  0  0  0  0  0  0
  189.5870  177.0930  142.2110 C   0  0  0  0  0  3  0  0  0  0  0  0
  188.7680  178.2270  138.2440 C   0  0  0  0  0  0  0  0  0  0  0  0
  190.0910  178.0150  138.6560 C   0  0  0  0  0  3  0  0  0  0  0  0
  190.3680  177.6370  139.9720 C   0  0  0  0  0  0  0  0  0  0  0  0
  187.9920  177.6820  140.4850 C   0  0  0  0  0  3  0  0  0  0  0  0
  189.3100  177.4700  140.8930 C   0  0  0  0  0  0  0  0  0  0  0  0
  187.7220  178.0590  139.1650 C   0  0  0  0  0  3  0  0  0  0  0  0
  190.9100  176.8790  142.6140 C   0  0  0  0  0  0  0  0  0  0  0  0
  191.9580  177.0510  141.7010 C   0  0  0  0  0  3  0  0  0  0  0  0
  188.4830  178.6250  136.8570 C   0  0  0  0  0  0  0  0  0  0  0  0
  187.6280  179.5170  136.6100 O   0  0  0  0  0  1  0  0  0  0  0  0
  189.1560  178.0180  135.8020 O   0  0  0  0  0  0  0  0  0  0  0  0
  1 10  1  0  0  0  0
  2 15  1  0  0  0  0
  3  9  1  0  0  0  0
  4  8  2  0  0  0  0
  5  4  1  0  0  0  0
  5  1  2  0  0  0  0
  6  7  1  0  0  0  0
  7 11  2  0  0  0  0
  8  6  1  0  0  0  0
  9 11  1  0  0  0  0
 10  6  2  0  0  0  0
 10  9  1  0  0  0  0
 12  2  2  0  0  0  0
 13 12  1  0  0  0  0
 14 13  2  0  0  0  0
 14 16  1  0  0  0  0
 15  3  2  0  0  0  0
 16 17  2  0  0  0  0
 17  1  1  0  0  0  0
 17 15  1  0  0  0  0
 18 20  1  0  0  0  0
 18 13  1  0  0  0  0
 19 18  2  0  0  0  0
 21  4  1  0  0  0  0
 22 31  1  0  0  0  0
 23 30  1  0  0  0  0
 24 25  2  0  0  0  0
 24 29  1  0  0  0  0
 25 26  1  0  0  0  0
 26 22  2  0  0  0  0
 26 28  1  0  0  0  0
 27 28  1  0  0  0  0
 28 23  2  0  0  0  0
 29 27  2  0  0  0  0
 30 21  1  0  0  0  0
 31 30  2  0  0  0  0
 32 24  1  0  0  0  0
 33 32  1  0  0  0  0
 34 32  2  0  0  0  0
M  END
>  <MODEL>
3

>  <REMARK>
 VINA RESULT:     -12.2      3.618      7.637
  Name = 
  4 active torsions:
  status: ('A' for Active; 'I' for Inactive)
    1  A    between atoms: C_3  and  C_25
    2  A    between atoms: C_7  and  C_11
    3  A    between atoms: C_8  and  C_18
    4  A    between atoms: C_18  and  C_30
                            x       y       z     vdW  Elec       q    Type
                         _______ _______ _______ _____ _____    ______ ____

>  <TORSDO>
F 4

$$$$
=
 OpenBabel11052415473D

 34 39  0  0  0  0  0  0  0  0999 V2000
  184.3060  178.7060  141.6770 C   0  0  0  0  0  0  0  0  0  0  0  0
  185.2960  178.4070  137.9660 C   0  0  0  0  0  3  0  0  0  0  0  0
  183.1820  178.6500  139.1050 C   0  0  0  0  0  3  0  0  0  0  0  0
  183.6890  178.8920  144.0510 C   0  0  0  0  0  0  0  0  0  0  0  0
  184.6820  178.7490  143.0410 C   0  0  0  0  0  3  0  0  0  0  0  0
  181.9940  178.9360  142.3520 C   0  0  0  0  0  0  0  0  0  0  0  0
  180.7880  178.9990  141.7460 N   0  0  0  0  0  0  0  0  0  0  0  0
  182.3150  178.9830  143.7080 C   0  0  0  0  0  3  0  0  0  0  0  0
  182.4250  178.7790  140.2180 N   0  0  0  0  0  0  0  0  0  0  0  0
  182.9570  178.8050  141.4220 C   0  0  0  0  0  0  0  0  0  0  0  0
  181.0910  178.8980  140.4130 C   0  0  0  0  0  3  0  0  0  0  0  0
  186.5910  178.2810  137.7060 C   0  0  0  0  0  3  0  0  0  0  0  0
  187.7340  178.2360  138.6240 C   0  0  0  0  0  0  0  0  0  0  0  0
  187.6510  178.3200  139.9510 C   0  0  0  0  0  3  0  0  0  0  0  0
  184.5870  178.5400  139.2440 C   0  0  0  0  0  0  0  0  0  0  0  0
  186.4820  178.4700  140.8220 C   0  0  0  0  0  3  0  0  0  0  0  0
  185.1740  178.5670  140.5590 C   0  0  0  0  0  0  0  0  0  0  0  0
  189.0720  178.0860  138.0180 C   0  0  0  0  0  0  0  0  0  0  0  0
  190.1680  177.7780  138.8160 O   0  0  0  0  0  1  0  0  0  0  0  0
  189.2390  178.2340  136.7780 O   0  0  0  0  0  0  0  0  0  0  0  0
  184.0930  178.9080  145.4870 C   0  0  0  0  0  2  0  0  0  0  0  0
  187.4580  177.3370  144.7240 C   0  0  0  0  0  3  0  0  0  0  0  0
  186.1570  178.5930  146.8690 C   0  0  0  0  0  3  0  0  0  0  0  0
  190.0960  177.1880  147.3210 C   0  0  0  0  0  0  0  0  0  0  0  0
  189.4290  177.0300  146.0980 C   0  0  0  0  0  3  0  0  0  0  0  0
  188.1210  177.4960  145.9420 C   0  0  0  0  0  0  0  0  0  0  0  0
  188.1280  178.2830  148.2430 C   0  0  0  0  0  3  0  0  0  0  0  0
  187.4660  178.1270  147.0230 C   0  0  0  0  0  0  0  0  0  0  0  0
  189.4380  177.8160  148.3910 C   0  0  0  0  0  3  0  0  0  0  0  0
  185.4990  178.4350  145.6430 C   0  0  0  0  0  0  0  0  0  0  0  0
  186.1470  177.8040  144.5750 C   0  0  0  0  0  3  0  0  0  0  0  0
  191.4730  176.6950  147.4780 C   0  0  0  0  0  0  0  0  0  0  0  0
  192.1810  177.0750  148.4480 O   0  0  0  0  0  1  0  0  0  0  0  0
  192.0070  175.8030  146.5550 O   0  0  0  0  0  0  0  0  0  0  0  0
  1  5  1  0  0  0  0
  2 15  1  0  0  0  0
  3 15  2  0  0  0  0
  3  9  1  0  0  0  0
  4 21  1  0  0  0  0
  5  4  2  0  0  0  0
  6  8  2  0  0  0  0
  7  6  1  0  0  0  0
  8  4  1  0  0  0  0
  9 11  1  0  0  0  0
  9 10  1  0  0  0  0
 10  1  2  0  0  0  0
 10  6  1  0  0  0  0
 11  7  2  0  0  0  0
 12  2  2  0  0  0  0
 12 13  1  0  0  0  0
 13 14  2  0  0  0  0
 14 16  1  0  0  0  0
 15 17  1  0  0  0  0
 17 16  2  0  0  0  0
 17  1  1  0  0  0  0
 18 13  1  0  0  0  0
 18 19  1  0  0  0  0
 20 18  2  0  0  0  0
 21 30  1  0  0  0  0
 22 26  1  0  0  0  0
 23 28  1  0  0  0  0
 24 32  1  0  0  0  0
 24 29  1  0  0  0  0
 25 24  2  0  0  0  0
 26 25  1  0  0  0  0
 26 28  2  0  0  0  0
 27 29  2  0  0  0  0
 28 27  1  0  0  0  0
 30 23  2  0  0  0  0
 31 22  2  0  0  0  0
 31 30  1  0  0  0  0
 32 33  1  0  0  0  0
 34 32  2  0  0  0  0
M  END
>  <MODEL>
4

>  <REMARK>
 VINA RESULT:     -12.1      0.727      1.567
  Name = 
  4 active torsions:
  status: ('A' for Active; 'I' for Inactive)
    1  A    between atoms: C_3  and  C_25
    2  A    between atoms: C_7  and  C_11
    3  A    between atoms: C_8  and  C_18
    4  A    between atoms: C_18  and  C_30
                            x       y       z     vdW  Elec       q    Type
                         _______ _______ _______ _____ _____    ______ ____

>  <TORSDO>
F 4

$$$$
=
 OpenBabel11052415473D

 34 39  0  0  0  0  0  0  0  0999 V2000
  187.4290  177.8510  144.8620 C   0  0  0  0  0  0  0  0  0  0  0  0
  190.7740  176.7530  143.2980 C   0  0  0  0  0  3  0  0  0  0  0  0
  190.0240  177.0460  145.5730 C   0  0  0  0  0  3  0  0  0  0  0  0
  185.2890  178.5570  145.8470 C   0  0  0  0  0  0  0  0  0  0  0  0
  186.0890  178.2770  144.7030 C   0  0  0  0  0  3  0  0  0  0  0  0
  187.1470  178.0020  147.2600 C   0  0  0  0  0  0  0  0  0  0  0  0
  187.9030  177.7930  148.3610 N   0  0  0  0  0  0  0  0  0  0  0  0
  185.8230  178.4250  147.1540 C   0  0  0  0  0  3  0  0  0  0  0  0
  189.0900  177.3640  146.4980 N   0  0  0  0  0  0  0  0  0  0  0  0
  187.8750  177.7400  146.1600 C   0  0  0  0  0  0  0  0  0  0  0  0
  189.1120  177.3950  147.8510 C   0  0  0  0  0  3  0  0  0  0  0  0
  190.8230  176.7070  141.9720 C   0  0  0  0  0  3  0  0  0  0  0  0
  189.7850  177.0150  140.9830 C   0  0  0  0  0  0  0  0  0  0  0  0
  188.5480  177.4140  141.2730 C   0  0  0  0  0  3  0  0  0  0  0  0
  189.6790  177.1230  144.2010 C   0  0  0  0  0  0  0  0  0  0  0  0
  187.9040  177.6480  142.5700 C   0  0  0  0  0  3  0  0  0  0  0  0
  188.3510  177.5350  143.8260 C   0  0  0  0  0  0  0  0  0  0  0  0
  190.1520  176.8660  139.5610 C   0  0  0  0  0  0  0  0  0  0  0  0
  189.8690  177.8840  138.6570 O   0  0  0  0  0  0  0  0  0  0  0  0
  190.7240  175.8210  139.1480 O   0  0  0  0  0  1  0  0  0  0  0  0
  183.8860  179.0320  145.6670 C   0  0  0  0  0  2  0  0  0  0  0  0
  181.7280  178.5290  142.5910 C   0  0  0  0  0  3  0  0  0  0  0  0
  184.4230  178.9900  143.2220 C   0  0  0  0  0  3  0  0  0  0  0  0
  183.2410  178.5590  139.2090 C   0  0  0  0  0  0  0  0  0  0  0  0
  182.2890  178.4740  140.2350 C   0  0  0  0  0  3  0  0  0  0  0  0
  182.6770  178.6170  141.5700 C   0  0  0  0  0  0  0  0  0  0  0  0
  184.9830  178.9320  140.8660 C   0  0  0  0  0  3  0  0  0  0  0  0
  184.0340  178.8470  141.8870 C   0  0  0  0  0  0  0  0  0  0  0  0
  184.5870  178.7880  139.5320 C   0  0  0  0  0  3  0  0  0  0  0  0
  183.4660  178.9070  144.2410 C   0  0  0  0  0  0  0  0  0  0  0  0
  182.1230  178.6720  143.9250 C   0  0  0  0  0  3  0  0  0  0  0  0
  182.8260  178.4080  137.8050 C   0  0  0  0  0  0  0  0  0  0  0  0
  181.8610  179.0760  137.3480 O   0  0  0  0  0  1  0  0  0  0  0  0
  183.4960  177.5220  136.9680 O   0  0  0  0  0  0  0  0  0  0  0  0
  1 10  1  0  0  0  0
  2 15  1  0  0  0  0
  3  9  1  0  0  0  0
  4  8  2  0  0  0  0
  5  1  2  0  0  0  0
  5  4  1  0  0  0  0
  6  7  1  0  0  0  0
  8  6  1  0  0  0  0
  9 11  1  0  0  0  0
 10  9  1  0  0  0  0
 10  6  2  0  0  0  0
 11  7  2  0  0  0  0
 12  2  2  0  0  0  0
 13 14  2  0  0  0  0
 13 12  1  0  0  0  0
 14 16  1  0  0  0  0
 15  3  2  0  0  0  0
 16 17  2  0  0  0  0
 17 15  1  0  0  0  0
 17  1  1  0  0  0  0
 18 13  1  0  0  0  0
 19 18  2  0  0  0  0
 20 18  1  0  0  0  0
 21  4  1  0  0  0  0
 22 31  1  0  0  0  0
 23 30  1  0  0  0  0
 24 29  1  0  0  0  0
 24 25  2  0  0  0  0
 25 26  1  0  0  0  0
 26 28  1  0  0  0  0
 26 22  2  0  0  0  0
 27 28  1  0  0  0  0
 28 23  2  0  0  0  0
 29 27  2  0  0  0  0
 30 21  1  0  0  0  0
 31 30  2  0  0  0  0
 32 24  1  0  0  0  0
 33 32  1  0  0  0  0
 34 32  2  0  0  0  0
M  END
>  <MODEL>
5

>  <REMARK>
 VINA RESULT:     -11.9      3.044      6.926
  Name = 
  4 active torsions:
  status: ('A' for Active; 'I' for Inactive)
    1  A    between atoms: C_3  and  C_25
    2  A    between atoms: C_7  and  C_11
    3  A    between atoms: C_8  and  C_18
    4  A    between atoms: C_18  and  C_30
                            x       y       z     vdW  Elec       q    Type
                         _______ _______ _______ _____ _____    ______ ____

>  <TORSDO>
F 4

$$$$
=
 OpenBabel11052415473D

 34 39  0  0  0  0  0  0  0  0999 V2000
  186.6900  178.1210  143.9100 C   0  0  0  0  0  0  0  0  0  0  0  0
  187.9120  177.4870  147.5080 C   0  0  0  0  0  3  0  0  0  0  0  0
  185.7970  178.1750  146.5720 C   0  0  0  0  0  3  0  0  0  0  0  0
  185.9240  178.5250  141.6080 C   0  0  0  0  0  0  0  0  0  0  0  0
  186.9530  178.1570  142.5200 C   0  0  0  0  0  3  0  0  0  0  0  0
  184.4190  178.8190  143.4530 C   0  0  0  0  0  0  0  0  0  0  0  0
  183.3040  179.0910  144.1690 N   0  0  0  0  0  0  0  0  0  0  0  0
  184.6300  178.8700  142.0770 C   0  0  0  0  0  3  0  0  0  0  0  0
  184.9880  178.4890  145.5350 N   0  0  0  0  0  0  0  0  0  0  0  0
  185.4110  178.4620  144.2880 C   0  0  0  0  0  0  0  0  0  0  0  0
  183.6920  178.8760  145.4650 C   0  0  0  0  0  3  0  0  0  0  0  0
  189.1780  177.1100  147.6470 C   0  0  0  0  0  3  0  0  0  0  0  0
  190.2100  176.8920  146.6290 C   0  0  0  0  0  0  0  0  0  0  0  0
  190.0340  177.0450  145.3170 C   0  0  0  0  0  3  0  0  0  0  0  0
  187.1380  177.8060  146.3030 C   0  0  0  0  0  0  0  0  0  0  0  0
  188.8450  177.4480  144.5590 C   0  0  0  0  0  3  0  0  0  0  0  0
  187.6060  177.7760  144.9410 C   0  0  0  0  0  0  0  0  0  0  0  0
  191.5420  176.4710  147.1070 C   0  0  0  0  0  0  0  0  0  0  0  0
  192.2280  175.4540  146.4540 O   0  0  0  0  0  0  0  0  0  0  0  0
  192.0720  177.0220  148.1090 O   0  0  0  0  0  1  0  0  0  0  0  0
  186.2200  178.5870  140.1470 C   0  0  0  0  0  2  0  0  0  0  0  0
  189.8890  177.7560  140.6150 C   0  0  0  0  0  3  0  0  0  0  0  0
  187.9440  177.6440  138.5960 C   0  0  0  0  0  3  0  0  0  0  0  0
  191.8790  176.3850  137.8060 C   0  0  0  0  0  0  0  0  0  0  0  0
  191.5350  176.8620  139.0800 C   0  0  0  0  0  3  0  0  0  0  0  0
  190.2290  177.2800  139.3470 C   0  0  0  0  0  0  0  0  0  0  0  0
  189.5920  176.7520  137.0610 C   0  0  0  0  0  3  0  0  0  0  0  0
  189.2510  177.2240  138.3290 C   0  0  0  0  0  0  0  0  0  0  0  0
  190.9010  176.3330  136.8010 C   0  0  0  0  0  3  0  0  0  0  0  0
  187.6070  178.1150  139.8710 C   0  0  0  0  0  0  0  0  0  0  0  0
  188.5800  178.1750  140.8760 C   0  0  0  0  0  3  0  0  0  0  0  0
  193.2560  175.9460  137.5310 C   0  0  0  0  0  0  0  0  0  0  0  0
  194.0690  176.7150  136.9520 O   0  0  0  0  0  0  0  0  0  0  0  0
  193.6740  174.6750  137.9080 O   0  0  0  0  0  1  0  0  0  0  0  0
  1 10  1  0  0  0  0
  1 17  1  0  0  0  0
  2 12  2  0  0  0  0
  4  8  2  0  0  0  0
  4  5  1  0  0  0  0
  5  1  2  0  0  0  0
  6  7  1  0  0  0  0
  6 10  2  0  0  0  0
  7 11  2  0  0  0  0
  8  6  1  0  0  0  0
  9  3  1  0  0  0  0
 10  9  1  0  0  0  0
 11  9  1  0  0  0  0
 13 18  1  0  0  0  0
 13 12  1  0  0  0  0
 14 13  2  0  0  0  0
 15  3  2  0  0  0  0
 15  2  1  0  0  0  0
 16 17  2  0  0  0  0
 16 14  1  0  0  0  0
 17 15  1  0  0  0  0
 18 20  1  0  0  0  0
 19 18  2  0  0  0  0
 21  4  1  0  0  0  0
 22 31  1  0  0  0  0
 23 30  1  0  0  0  0
 24 25  2  0  0  0  0
 25 26  1  0  0  0  0
 26 22  2  0  0  0  0
 27 28  1  0  0  0  0
 28 23  2  0  0  0  0
 28 26  1  0  0  0  0
 29 27  2  0  0  0  0
 29 24  1  0  0  0  0
 30 21  1  0  0  0  0
 30 31  2  0  0  0  0
 32 24  1  0  0  0  0
 32 34  1  0  0  0  0
 33 32  2  0  0  0  0
M  END
>  <MODEL>
6

>  <REMARK>
 VINA RESULT:     -11.6      2.182      6.947
  Name = 
  4 active torsions:
  status: ('A' for Active; 'I' for Inactive)
    1  A    between atoms: C_3  and  C_25
    2  A    between atoms: C_7  and  C_11
    3  A    between atoms: C_8  and  C_18
    4  A    between atoms: C_18  and  C_30
                            x       y       z     vdW  Elec       q    Type
                         _______ _______ _______ _____ _____    ______ ____

>  <TORSDO>
F 4

$$$$
=
 OpenBabel11052415473D

 34 39  0  0  0  0  0  0  0  0999 V2000
  186.3210  178.4330  140.9160 C   0  0  0  0  0  0  0  0  0  0  0  0
  188.6330  177.8100  137.8990 C   0  0  0  0  0  3  0  0  0  0  0  0
  186.2790  178.2960  138.1120 C   0  0  0  0  0  3  0  0  0  0  0  0
  184.8560  178.8260  142.8530 C   0  0  0  0  0  0  0  0  0  0  0  0
  186.1420  178.5370  142.3170 C   0  0  0  0  0  3  0  0  0  0  0  0
  183.9630  178.8910  140.6260 C   0  0  0  0  0  0  0  0  0  0  0  0
  183.0980  179.0090  139.5950 N   0  0  0  0  0  0  0  0  0  0  0  0
  183.7380  179.0020  141.9970 C   0  0  0  0  0  3  0  0  0  0  0  0
  185.1680  178.5590  138.8370 N   0  0  0  0  0  0  0  0  0  0  0  0
  185.1920  178.6220  140.1510 C   0  0  0  0  0  0  0  0  0  0  0  0
  183.8800  178.7960  138.4900 C   0  0  0  0  0  3  0  0  0  0  0  0
  189.9090  177.5640  138.1690 C   0  0  0  0  0  3  0  0  0  0  0  0
  190.5970  177.4890  139.4620 C   0  0  0  0  0  0  0  0  0  0  0  0
  190.0170  177.6680  140.6480 C   0  0  0  0  0  3  0  0  0  0  0  0
  187.5020  178.0840  138.7930 C   0  0  0  0  0  0  0  0  0  0  0  0
  188.6230  177.9690  140.9880 C   0  0  0  0  0  3  0  0  0  0  0  0
  187.5350  178.1520  140.2310 C   0  0  0  0  0  0  0  0  0  0  0  0
  192.0430  177.1930  139.4330 C   0  0  0  0  0  0  0  0  0  0  0  0
  192.6160  176.6170  138.3040 O   0  0  0  0  0  0  0  0  0  0  0  0
  192.7760  177.4560  140.4250 O   0  0  0  0  0  1  0  0  0  0  0  0
  184.6730  178.9060  144.3310 C   0  0  0  0  0  2  0  0  0  0  0  0
  187.1070  178.0400  147.1060 C   0  0  0  0  0  3  0  0  0  0  0  0
  187.0220  178.0410  144.3020 C   0  0  0  0  0  3  0  0  0  0  0  0
  190.5110  176.8130  146.3060 C   0  0  0  0  0  0  0  0  0  0  0  0
  189.3860  177.2230  147.0380 C   0  0  0  0  0  3  0  0  0  0  0  0
  188.2250  177.6300  146.3760 C   0  0  0  0  0  0  0  0  0  0  0  0
  189.3030  177.2260  144.2350 C   0  0  0  0  0  3  0  0  0  0  0  0
  188.1840  177.6320  144.9640 C   0  0  0  0  0  0  0  0  0  0  0  0
  190.4620  176.8180  144.9040 C   0  0  0  0  0  3  0  0  0  0  0  0
  185.9030  178.4440  145.0390 C   0  0  0  0  0  0  0  0  0  0  0  0
  185.9480  178.4480  146.4380 C   0  0  0  0  0  3  0  0  0  0  0  0
  191.7300  176.3850  147.0090 C   0  0  0  0  0  0  0  0  0  0  0  0
  192.1210  176.9940  148.0400 O   0  0  0  0  0  1  0  0  0  0  0  0
  192.4650  175.3020  146.5390 O   0  0  0  0  0  0  0  0  0  0  0  0
  1  5  1  0  0  0  0
  2 12  2  0  0  0  0
  2 15  1  0  0  0  0
  3 15  2  0  0  0  0
  3  9  1  0  0  0  0
  4 21  1  0  0  0  0
  5  4  2  0  0  0  0
  6  8  2  0  0  0  0
  7  6  1  0  0  0  0
  8  4  1  0  0  0  0
  9 10  1  0  0  0  0
 10  6  1  0  0  0  0
 10  1  2  0  0  0  0
 11  9  1  0  0  0  0
 11  7  2  0  0  0  0
 12 13  1  0  0  0  0
 13 14  2  0  0  0  0
 14 16  1  0  0  0  0
 15 17  1  0  0  0  0
 17  1  1  0  0  0  0
 17 16  2  0  0  0  0
 18 13  1  0  0  0  0
 18 20  1  0  0  0  0
 19 18  2  0  0  0  0
 21 30  1  0  0  0  0
 23 28  2  0  0  0  0
 23 30  1  0  0  0  0
 24 32  1  0  0  0  0
 24 25  2  0  0  0  0
 26 25  1  0  0  0  0
 26 22  2  0  0  0  0
 27 29  2  0  0  0  0
 27 28  1  0  0  0  0
 28 26  1  0  0  0  0
 29 24  1  0  0  0  0
 30 31  2  0  0  0  0
 31 22  1  0  0  0  0
 32 33  1  0  0  0  0
 34 32  2  0  0  0  0
M  END
>  <MODEL>
7

>  <REMARK>
 VINA RESULT:     -11.4      1.366      2.283
  Name = 
  4 active torsions:
  status: ('A' for Active; 'I' for Inactive)
    1  A    between atoms: C_3  and  C_25
    2  A    between atoms: C_7  and  C_11
    3  A    between atoms: C_8  and  C_18
    4  A    between atoms: C_18  and  C_30
                            x       y       z     vdW  Elec       q    Type
                         _______ _______ _______ _____ _____    ______ ____

>  <TORSDO>
F 4

$$$$
=
 OpenBabel11052415473D

 34 39  0  0  0  0  0  0  0  0999 V2000
  186.3260  178.1690  143.7560 C   0  0  0  0  0  0  0  0  0  0  0  0
  187.7650  177.5540  147.2760 C   0  0  0  0  0  3  0  0  0  0  0  0
  185.5910  178.2160  146.4660 C   0  0  0  0  0  3  0  0  0  0  0  0
  185.4220  178.5620  141.5020 C   0  0  0  0  0  0  0  0  0  0  0  0
  186.5070  178.2070  142.3520 C   0  0  0  0  0  3  0  0  0  0  0  0
  184.0250  178.8410  143.4330 C   0  0  0  0  0  0  0  0  0  0  0  0
  182.9510  179.1020  144.2120 N   0  0  0  0  0  0  0  0  0  0  0  0
  184.1540  178.8930  142.0460 C   0  0  0  0  0  3  0  0  0  0  0  0
  184.7190  178.5200  145.4770 N   0  0  0  0  0  0  0  0  0  0  0  0
  185.0680  178.4970  144.2080 C   0  0  0  0  0  0  0  0  0  0  0  0
  183.4170  178.8920  145.4840 C   0  0  0  0  0  3  0  0  0  0  0  0
  189.0410  177.1920  147.3410 C   0  0  0  0  0  3  0  0  0  0  0  0
  190.0140  176.9840  146.2640 C   0  0  0  0  0  0  0  0  0  0  0  0
  189.7590  177.1340  144.9650 C   0  0  0  0  0  3  0  0  0  0  0  0
  186.9170  177.8630  146.1190 C   0  0  0  0  0  0  0  0  0  0  0  0
  188.5240  177.5220  144.2780 C   0  0  0  0  0  3  0  0  0  0  0  0
  187.3050  177.8360  144.7320 C   0  0  0  0  0  0  0  0  0  0  0  0
  191.3760  176.5790  146.6640 C   0  0  0  0  0  0  0  0  0  0  0  0
  192.1450  175.7880  145.8180 O   0  0  0  0  0  0  0  0  0  0  0  0
  191.8590  176.9400  147.7710 O   0  0  0  0  0  1  0  0  0  0  0  0
  185.6310  178.6260  140.0260 C   0  0  0  0  0  2  0  0  0  0  0  0
  188.6720  177.5480  138.0350 C   0  0  0  0  0  3  0  0  0  0  0  0
  188.0180  178.2360  140.6750 C   0  0  0  0  0  3  0  0  0  0  0  0
  191.9580  177.1360  139.6960 C   0  0  0  0  0  0  0  0  0  0  0  0
  190.9670  177.1610  138.7040 C   0  0  0  0  0  3  0  0  0  0  0  0
  189.6580  177.5260  139.0240 C   0  0  0  0  0  0  0  0  0  0  0  0
  190.3140  177.8460  141.3430 C   0  0  0  0  0  3  0  0  0  0  0  0
  189.3290  177.8710  140.3540 C   0  0  0  0  0  0  0  0  0  0  0  0
  191.6230  177.4800  141.0150 C   0  0  0  0  0  3  0  0  0  0  0  0
  187.0350  178.2620  139.6780 C   0  0  0  0  0  0  0  0  0  0  0  0
  187.3620  177.9130  138.3620 C   0  0  0  0  0  3  0  0  0  0  0  0
  193.3350  176.7500  139.3530 C   0  0  0  0  0  0  0  0  0  0  0  0
  194.2750  176.9400  140.1700 O   0  0  0  0  0  1  0  0  0  0  0  0
  193.6140  176.1720  138.1190 O   0  0  0  0  0  0  0  0  0  0  0  0
  1 10  1  0  0  0  0
  1 17  1  0  0  0  0
  2 12  2  0  0  0  0
  4  8  2  0  0  0  0
  4  5  1  0  0  0  0
  5  1  2  0  0  0  0
  6 10  2  0  0  0  0
  6  7  1  0  0  0  0
  7 11  2  0  0  0  0
  8  6  1  0  0  0  0
  9 11  1  0  0  0  0
  9  3  1  0  0  0  0
 10  9  1  0  0  0  0
 13 18  1  0  0  0  0
 13 12  1  0  0  0  0
 14 13  2  0  0  0  0
 15  3  2  0  0  0  0
 15  2  1  0  0  0  0
 16 17  2  0  0  0  0
 16 14  1  0  0  0  0
 17 15  1  0  0  0  0
 18 20  1  0  0  0  0
 19 18  2  0  0  0  0
 21  4  1  0  0  0  0
 22 31  2  0  0  0  0
 22 26  1  0  0  0  0
 24 29  1  0  0  0  0
 25 26  1  0  0  0  0
 25 24  2  0  0  0  0
 26 28  2  0  0  0  0
 28 23  1  0  0  0  0
 28 27  1  0  0  0  0
 29 27  2  0  0  0  0
 30 21  1  0  0  0  0
 30 23  2  0  0  0  0
 31 30  1  0  0  0  0
 32 24  1  0  0  0  0
 32 33  1  0  0  0  0
 34 32  2  0  0  0  0
M  END
>  <MODEL>
8

>  <REMARK>
 VINA RESULT:     -11.4      1.987      6.432
  Name = 
  4 active torsions:
  status: ('A' for Active; 'I' for Inactive)
    1  A    between atoms: C_3  and  C_25
    2  A    between atoms: C_7  and  C_11
    3  A    between atoms: C_8  and  C_18
    4  A    between atoms: C_18  and  C_30
                            x       y       z     vdW  Elec       q    Type
                         _______ _______ _______ _____ _____    ______ ____

>  <TORSDO>
F 4

$$$$
=
 OpenBabel11052415473D

 34 39  0  0  0  0  0  0  0  0999 V2000
  186.1820  178.2410  143.1520 C   0  0  0  0  0  0  0  0  0  0  0  0
  187.8870  177.5250  146.5320 C   0  0  0  0  0  3  0  0  0  0  0  0
  185.6640  178.2320  145.9120 C   0  0  0  0  0  3  0  0  0  0  0  0
  185.1080  178.6980  140.9870 C   0  0  0  0  0  0  0  0  0  0  0  0
  186.2520  178.3090  141.7400 C   0  0  0  0  0  3  0  0  0  0  0  0
  183.8720  178.9480  143.0280 C   0  0  0  0  0  0  0  0  0  0  0  0
  182.8670  179.2020  143.8960 N   0  0  0  0  0  0  0  0  0  0  0  0
  183.8920  179.0310  141.6370 C   0  0  0  0  0  3  0  0  0  0  0  0
  184.7210  178.5700  145.0030 N   0  0  0  0  0  0  0  0  0  0  0  0
  184.9690  178.5720  143.7100 C   0  0  0  0  0  0  0  0  0  0  0  0
  183.4290  178.9570  145.1220 C   0  0  0  0  0  3  0  0  0  0  0  0
  189.1580  177.1460  146.4870 C   0  0  0  0  0  3  0  0  0  0  0  0
  190.0400  176.9520  145.3310 C   0  0  0  0  0  0  0  0  0  0  0  0
  189.6860  177.1350  144.0610 C   0  0  0  0  0  3  0  0  0  0  0  0
  186.9550  177.8710  145.4520 C   0  0  0  0  0  0  0  0  0  0  0  0
  188.4050  177.5540  143.4820 C   0  0  0  0  0  3  0  0  0  0  0  0
  187.2310  177.8730  144.0390 C   0  0  0  0  0  0  0  0  0  0  0  0
  191.4240  176.5210  145.6120 C   0  0  0  0  0  0  0  0  0  0  0  0
  192.0490  176.9060  146.7920 O   0  0  0  0  0  1  0  0  0  0  0  0
  192.0550  175.8030  144.7910 O   0  0  0  0  0  0  0  0  0  0  0  0
  185.2000  178.7940  139.5010 C   0  0  0  0  0  2  0  0  0  0  0  0
  187.7900  177.1280  137.2890 C   0  0  0  0  0  3  0  0  0  0  0  0
  187.6170  178.2450  139.8570 C   0  0  0  0  0  3  0  0  0  0  0  0
  191.2480  176.6020  138.5110 C   0  0  0  0  0  0  0  0  0  0  0  0
  190.1200  176.5940  137.6780 C   0  0  0  0  0  3  0  0  0  0  0  0
  188.9120  177.1390  138.1200 C   0  0  0  0  0  0  0  0  0  0  0  0
  189.9470  177.7080  140.2450 C   0  0  0  0  0  3  0  0  0  0  0  0
  188.8260  177.7000  139.4130 C   0  0  0  0  0  0  0  0  0  0  0  0
  191.1530  177.1610  139.7950 C   0  0  0  0  0  3  0  0  0  0  0  0
  186.4970  178.2360  139.0170 C   0  0  0  0  0  0  0  0  0  0  0  0
  186.5830  177.6740  137.7380 C   0  0  0  0  0  3  0  0  0  0  0  0
  192.5170  176.0260  138.0400 C   0  0  0  0  0  0  0  0  0  0  0  0
  193.5620  176.7280  138.0030 O   0  0  0  0  0  1  0  0  0  0  0  0
  192.5740  174.6990  137.6280 O   0  0  0  0  0  0  0  0  0  0  0  0
  1 10  1  0  0  0  0
  1 17  1  0  0  0  0
  4  8  2  0  0  0  0
  4  5  1  0  0  0  0
  5  1  2  0  0  0  0
  6 10  2  0  0  0  0
  6  7  1  0  0  0  0
  7 11  2  0  0  0  0
  8  6  1  0  0  0  0
  9 11  1  0  0  0  0
  9  3  1  0  0  0  0
 10  9  1  0  0  0  0
 12  2  2  0  0  0  0
 13 18  1  0  0  0  0
 13 12  1  0  0  0  0
 14 13  2  0  0  0  0
 15  3  2  0  0  0  0
 15  2  1  0  0  0  0
 16 17  2  0  0  0  0
 16 14  1  0  0  0  0
 17 15  1  0  0  0  0
 18 19  1  0  0  0  0
 20 18  2  0  0  0  0
 21  4  1  0  0  0  0
 22 31  2  0  0  0  0
 22 26  1  0  0  0  0
 24 29  1  0  0  0  0
 25 26  1  0  0  0  0
 25 24  2  0  0  0  0
 26 28  2  0  0  0  0
 28 23  1  0  0  0  0
 28 27  1  0  0  0  0
 29 27  2  0  0  0  0
 30 21  1  0  0  0  0
 30 23  2  0  0  0  0
 31 30  1  0  0  0  0
 32 24  1  0  0  0  0
 33 32  1  0  0  0  0
 34 32  2  0  0  0  0
M  END
>  <MODEL>
9

>  <REMARK>
 VINA RESULT:     -11.2      1.826      6.474
  Name = 
  4 active torsions:
  status: ('A' for Active; 'I' for Inactive)
    1  A    between atoms: C_3  and  C_25
    2  A    between atoms: C_7  and  C_11
    3  A    between atoms: C_8  and  C_18
    4  A    between atoms: C_18  and  C_30
                            x       y       z     vdW  Elec       q    Type
                         _______ _______ _______ _____ _____    ______ ____

>  <TORSDO>
F 4

$$$$
