=
 OpenBabel11052414393D

 32 37  0  0  1  0  0  0  0  0999 V2000
  186.4350  178.1260  143.2870 C   0  0  0  0  0  0  0  0  0  0  0  0
  186.6810  178.8180  141.0180 N   0  0  0  0  0  0  0  0  0  0  0  0
  185.5010  177.8100  144.4320 C   0  0  0  0  0  2  0  0  0  0  0  0
  185.9430  178.7360  142.2030 C   0  0  0  0  0  0  0  0  0  0  0  0
  185.7260  178.9230  139.9850 C   0  0  0  0  0  0  0  0  0  0  0  0
  189.5330  176.3210  138.1280 C   0  0  0  0  0  3  0  0  0  0  0  0
  187.8660  178.0590  140.8630 C   0  0  0  0  0  0  0  0  0  0  0  0
  187.5880  177.5000  137.1960 C   0  0  0  0  0  3  0  0  0  0  0  0
  187.4650  178.3350  138.4410 C   0  0  1  0  0  3  0  0  0  0  0  0
  184.5550  178.9620  141.9940 N   0  0  0  0  0  0  0  0  0  0  0  0
  186.0500  178.5950  138.7680 N   0  0  0  0  0  0  0  0  0  0  0  0
  183.5650  178.6260  143.0140 C   0  0  0  0  0  2  0  0  0  0  0  0
  188.4510  177.4890  142.0470 N   0  0  0  0  0  0  0  0  0  0  0  0
  187.8210  177.5410  143.1970 C   0  0  0  0  0  0  0  0  0  0  0  0
  188.2470  177.7430  139.6180 C   0  0  0  0  0  0  0  0  0  0  0  0
  184.3210  179.0340  140.5390 C   0  0  2  0  0  3  0  0  0  0  0  0
  184.2200  178.6640  144.4010 C   0  0  0  0  0  2  0  0  0  0  0  0
  188.5690  176.6040  137.0450 C   0  0  0  0  0  3  0  0  0  0  0  0
  189.3800  176.8420  139.3480 C   0  0  0  0  0  3  0  0  0  0  0  0
  190.9140  176.6150  145.0590 C   0  0  0  0  0  0  0  0  0  0  0  0
  192.0530  176.1270  144.8290 O   0  0  0  0  0  0  0  0  0  0  0  0
  188.3940  177.8650  145.5860 C   0  0  0  0  0  2  0  0  0  0  0  0
  190.7050  177.3860  146.3230 C   0  0  0  0  0  2  0  0  0  0  0  0
  188.4790  176.9120  144.3920 C   0  0  2  0  0  3  0  0  0  0  0  0
  189.8540  176.4780  144.0930 N   0  0  0  0  0  0  0  0  0  0  0  0
  190.0770  175.6290  142.9280 C   0  0  0  0  0  1  0  0  0  0  0  0
  189.2400  177.3500  146.7360 C   0  0  1  0  0  3  0  0  0  0  0  0
  188.0810  177.9060  148.8310 C   0  0  0  0  0  2  0  0  0  0  0  0
  189.0200  178.2090  147.9360 C   0  0  0  0  0  3  0  0  0  0  0  0
  183.4730  177.8490  140.0880 C   0  0  0  0  0  2  0  0  0  0  0  0
  182.1280  178.3280  139.5760 C   0  0  0  0  0  2  0  0  0  0  0  0
  182.3050  179.6490  138.8590 C   0  0  0  0  0  1  0  0  0  0  0  0
  1  3  1  0  0  0  0
  2  4  1  0  0  0  0
  4  1  2  0  0  0  0
  5 16  1  0  0  0  0
  5  2  1  0  0  0  0
  6 19  2  0  0  0  0
  7  2  1  0  0  0  0
  7 13  1  0  0  0  0
  9  8  1  6  0  0  0
  9 11  1  0  0  0  0
  9 15  1  0  0  0  0
 10  4  1  0  0  0  0
 10 12  1  0  0  0  0
 11  5  2  0  0  0  0
 12 17  1  0  0  0  0
 13 14  2  0  0  0  0
 14  1  1  0  0  0  0
 15  7  2  0  0  0  0
 16 30  1  6  0  0  0
 16 10  1  0  0  0  0
 17  3  1  0  0  0  0
 18  8  2  0  0  0  0
 18  6  1  0  0  0  0
 19 15  1  0  0  0  0
 20 23  1  0  0  0  0
 21 20  2  0  0  0  0
 22 27  1  0  0  0  0
 23 27  1  0  0  0  0
 24 14  1  6  0  0  0
 24 22  1  0  0  0  0
 25 24  1  0  0  0  0
 25 20  1  0  0  0  0
 26 25  1  0  0  0  0
 27 29  1  1  0  0  0
 29 28  2  0  0  0  0
 31 30  1  0  0  0  0
 32 31  1  0  0  0  0
M  END
>  <MODEL>
1

>  <REMARK>
 VINA RESULT:      -9.9      0.000      0.000
  Name = 
  4 active torsions:
  status: ('A' for Active; 'I' for Inactive)
    1  A    between atoms: C_13  and  C_18
    2  A    between atoms: C_15  and  C_26
    3  A    between atoms: C_18  and  C_29
    4  A    between atoms: C_20  and  C_27
                            x       y       z     vdW  Elec       q    Type
                         _______ _______ _______ _____ _____    ______ ____

>  <TORSDO>
F 4

$$$$
=
 OpenBabel11052414393D

 32 37  0  0  1  0  0  0  0  0999 V2000
  185.6760  178.1080  144.5610 C   0  0  0  0  0  0  0  0  0  0  0  0
  187.5970  176.8180  143.9880 N   0  0  0  0  0  0  0  0  0  0  0  0
  184.9390  178.9060  145.6120 C   0  0  0  0  0  2  0  0  0  0  0  0
  186.7220  177.3630  144.9320 C   0  0  0  0  0  0  0  0  0  0  0  0
  188.8290  176.6630  144.6600 C   0  0  0  0  0  0  0  0  0  0  0  0
  189.9270  177.7970  139.9460 C   0  0  0  0  0  3  0  0  0  0  0  0
  187.5340  177.2320  142.6360 C   0  0  0  0  0  0  0  0  0  0  0  0
  191.1560  176.8740  141.8660 C   0  0  0  0  0  3  0  0  0  0  0  0
  189.8690  176.4360  142.5100 C   0  0  0  0  0  0  0  0  0  0  0  0
  187.2870  177.4010  146.2370 N   0  0  0  0  0  0  0  0  0  0  0  0
  189.9340  176.5870  143.9770 N   0  0  0  0  0  0  0  0  0  0  0  0
  186.6870  178.1980  147.3050 C   0  0  0  0  0  2  0  0  0  0  0  0
  186.3590  177.9460  142.2130 N   0  0  0  0  0  0  0  0  0  0  0  0
  185.4590  178.3310  143.0860 C   0  0  0  0  0  0  0  0  0  0  0  0
  188.6470  177.1260  141.8960 C   0  0  0  0  0  0  0  0  0  0  0  0
  188.7040  177.0100  146.1290 C   0  0  2  0  0  3  0  0  0  0  0  0
  185.1870  178.3750  147.0360 C   0  0  0  0  0  2  0  0  0  0  0  0
  191.1740  177.4640  140.6650 C   0  0  0  0  0  3  0  0  0  0  0  0
  188.7320  177.6550  140.5250 C   0  0  0  0  0  2  0  0  0  0  0  0
  182.6950  178.7140  140.6140 C   0  0  0  0  0  0  0  0  0  0  0  0
  182.5120  178.6280  139.3700 O   0  0  0  0  0  0  0  0  0  0  0  0
  183.0470  178.7670  143.4550 C   0  0  0  0  0  2  0  0  0  0  0  0
  181.5110  178.6210  141.5230 C   0  0  0  0  0  2  0  0  0  0  0  0
  184.2630  179.0870  142.5810 C   0  0  2  0  0  3  0  0  0  0  0  0
  184.0270  178.8430  141.1480 N   0  0  0  0  0  0  0  0  0  0  0  0
  185.1350  179.0350  140.2190 C   0  0  0  0  0  1  0  0  0  0  0  0
  181.7860  179.3410  142.8360 C   0  0  1  0  0  3  0  0  0  0  0  0
  180.0370  177.9710  143.8870 C   0  0  0  0  0  2  0  0  0  0  0  0
  180.6430  179.1520  143.7770 C   0  0  0  0  0  3  0  0  0  0  0  0
  189.6010  178.1950  146.4750 C   0  0  0  0  0  2  0  0  0  0  0  0
  190.4540  177.8740  147.6880 C   0  0  0  0  0  2  0  0  0  0  0  0
  191.2640  176.6250  147.4160 C   0  0  0  0  0  1  0  0  0  0  0  0
  1  4  2  0  0  0  0
  1  3  1  0  0  0  0
  2  5  1  0  0  0  0
  2  4  1  0  0  0  0
  3 17  1  0  0  0  0
  4 10  1  0  0  0  0
  5 16  1  0  0  0  0
  6 19  1  0  0  0  0
  6 18  2  0  0  0  0
  7  2  1  0  0  0  0
  8  9  2  0  0  0  0
  9 11  1  0  0  0  0
 10 12  1  0  0  0  0
 11  5  2  0  0  0  0
 13  7  1  0  0  0  0
 13 14  2  0  0  0  0
 14  1  1  0  0  0  0
 15  9  1  0  0  0  0
 15  7  2  0  0  0  0
 16 10  1  0  0  0  0
 16 30  1  6  0  0  0
 17 12  1  0  0  0  0
 18  8  1  0  0  0  0
 19 15  1  0  0  0  0
 20 25  1  0  0  0  0
 20 23  1  0  0  0  0
 21 20  2  0  0  0  0
 23 27  1  0  0  0  0
 24 14  1  1  0  0  0
 24 22  1  0  0  0  0
 25 24  1  0  0  0  0
 26 25  1  0  0  0  0
 27 22  1  0  0  0  0
 27 29  1  1  0  0  0
 29 28  2  0  0  0  0
 30 31  1  0  0  0  0
 32 31  1  0  0  0  0
M  END
>  <MODEL>
2

>  <REMARK>
 VINA RESULT:      -9.3      2.624      6.728
  Name = 
  4 active torsions:
  status: ('A' for Active; 'I' for Inactive)
    1  A    between atoms: C_13  and  C_18
    2  A    between atoms: C_15  and  C_26
    3  A    between atoms: C_18  and  C_29
    4  A    between atoms: C_20  and  C_27
                            x       y       z     vdW  Elec       q    Type
                         _______ _______ _______ _____ _____    ______ ____

>  <TORSDO>
F 4

$$$$
=
 OpenBabel11052414393D

 32 37  0  0  1  0  0  0  0  0999 V2000
  185.5690  178.1600  143.9110 C   0  0  0  0  0  0  0  0  0  0  0  0
  187.5760  176.8900  144.1250 N   0  0  0  0  0  0  0  0  0  0  0  0
  184.5360  179.0400  144.5770 C   0  0  0  0  0  2  0  0  0  0  0  0
  186.4460  177.5030  144.6770 C   0  0  0  0  0  0  0  0  0  0  0  0
  188.5330  176.8600  145.1620 C   0  0  0  0  0  0  0  0  0  0  0  0
  191.0590  177.5020  140.9280 C   0  0  0  0  0  3  0  0  0  0  0  0
  187.9410  177.1480  142.7820 C   0  0  0  0  0  0  0  0  0  0  0  0
  191.6210  176.8490  143.2310 C   0  0  0  0  0  3  0  0  0  0  0  0
  190.1990  176.4350  143.4880 C   0  0  0  0  0  0  0  0  0  0  0  0
  186.5710  177.7090  146.0780 N   0  0  0  0  0  0  0  0  0  0  0  0
  189.7970  176.7520  144.8730 N   0  0  0  0  0  0  0  0  0  0  0  0
  185.6640  178.5960  146.8030 C   0  0  0  0  0  2  0  0  0  0  0  0
  186.9570  177.7620  141.9310 N   0  0  0  0  0  0  0  0  0  0  0  0
  185.8270  178.2070  142.4270 C   0  0  0  0  0  0  0  0  0  0  0  0
  189.2300  177.0030  142.4450 C   0  0  0  0  0  0  0  0  0  0  0  0
  187.9520  177.3640  146.4660 C   0  0  2  0  0  3  0  0  0  0  0  0
  184.3250  178.6820  146.0590 C   0  0  0  0  0  2  0  0  0  0  0  0
  192.0160  177.3010  142.0350 C   0  0  0  0  0  3  0  0  0  0  0  0
  189.7420  177.3780  141.1180 C   0  0  0  0  0  2  0  0  0  0  0  0
  184.0160  178.2260  139.1690 C   0  0  0  0  0  0  0  0  0  0  0  0
  184.2520  178.0160  137.9480 O   0  0  0  0  0  0  0  0  0  0  0  0
  183.4200  178.5570  141.9490 C   0  0  0  0  0  2  0  0  0  0  0  0
  182.6030  178.1580  139.6500 C   0  0  0  0  0  2  0  0  0  0  0  0
  184.8490  178.8540  141.4880 C   0  0  2  0  0  3  0  0  0  0  0  0
  185.0990  178.4680  140.0880 N   0  0  0  0  0  0  0  0  0  0  0  0
  186.4460  178.6280  139.5540 C   0  0  0  0  0  1  0  0  0  0  0  0
  182.4210  179.0090  140.9000 C   0  0  1  0  0  3  0  0  0  0  0  0
  180.6890  179.3960  142.6000 C   0  0  0  0  0  2  0  0  0  0  0  0
  181.0370  178.8510  141.4360 C   0  0  0  0  0  3  0  0  0  0  0  0
  188.6910  178.6150  146.9330 C   0  0  0  0  0  2  0  0  0  0  0  0
  189.1950  178.4310  148.3510 C   0  0  0  0  0  2  0  0  0  0  0  0
  188.0810  177.8780  149.2130 C   0  0  0  0  0  1  0  0  0  0  0  0
  1  3  1  0  0  0  0
  1  4  2  0  0  0  0
  2  4  1  0  0  0  0
  2  5  1  0  0  0  0
  3 17  1  0  0  0  0
  4 10  1  0  0  0  0
  5 16  1  0  0  0  0
  6 19  1  0  0  0  0
  6 18  2  0  0  0  0
  7  2  1  0  0  0  0
  8  9  2  0  0  0  0
  9 11  1  0  0  0  0
 10 16  1  0  0  0  0
 10 12  1  0  0  0  0
 11  5  2  0  0  0  0
 13 14  2  0  0  0  0
 13  7  1  0  0  0  0
 14  1  1  0  0  0  0
 15  7  2  0  0  0  0
 15  9  1  0  0  0  0
 16 30  1  6  0  0  0
 17 12  1  0  0  0  0
 18  8  1  0  0  0  0
 19 15  1  0  0  0  0
 20 23  1  0  0  0  0
 20 25  1  0  0  0  0
 21 20  2  0  0  0  0
 23 27  1  0  0  0  0
 24 22  1  0  0  0  0
 24 14  1  1  0  0  0
 25 24  1  0  0  0  0
 26 25  1  0  0  0  0
 27 29  1  1  0  0  0
 27 22  1  0  0  0  0
 29 28  2  0  0  0  0
 30 31  1  0  0  0  0
 31 32  1  0  0  0  0
M  END
>  <MODEL>
3

>  <REMARK>
 VINA RESULT:      -8.6      2.494      6.745
  Name = 
  4 active torsions:
  status: ('A' for Active; 'I' for Inactive)
    1  A    between atoms: C_13  and  C_18
    2  A    between atoms: C_15  and  C_26
    3  A    between atoms: C_18  and  C_29
    4  A    between atoms: C_20  and  C_27
                            x       y       z     vdW  Elec       q    Type
                         _______ _______ _______ _____ _____    ______ ____

>  <TORSDO>
F 4

$$$$
=
 OpenBabel11052414393D

 32 37  0  0  1  0  0  0  0  0999 V2000
  186.5500  178.2590  137.6820 C   0  0  0  0  0  0  0  0  0  0  0  0
  188.1260  178.5350  139.4500 N   0  0  0  0  0  0  0  0  0  0  0  0
  186.2570  177.7070  136.3060 C   0  0  0  0  0  2  0  0  0  0  0  0
  187.8170  178.2870  138.1090 C   0  0  0  0  0  0  0  0  0  0  0  0
  189.3710  177.9070  139.6720 C   0  0  0  0  0  0  0  0  0  0  0  0
  186.8080  177.5020  143.9130 C   0  0  0  0  0  3  0  0  0  0  0  0
  187.1030  178.5290  140.4290 C   0  0  0  0  0  0  0  0  0  0  0  0
  189.1590  177.2340  143.2460 C   0  0  0  0  0  3  0  0  0  0  0  0
  188.9360  178.0840  142.0250 C   0  0  1  0  0  3  0  0  0  0  0  0
  188.8940  177.6780  137.4080 N   0  0  0  0  0  0  0  0  0  0  0  0
  189.7270  177.5870  140.8820 N   0  0  0  0  0  0  0  0  0  0  0  0
  188.6980  177.0560  136.1010 C   0  0  0  0  0  2  0  0  0  0  0  0
  185.7430  178.6020  139.9700 N   0  0  0  0  0  0  0  0  0  0  0  0
  185.4620  178.5180  138.6910 C   0  0  0  0  0  0  0  0  0  0  0  0
  187.4490  178.2440  141.6920 C   0  0  0  0  0  0  0  0  0  0  0  0
  189.9400  177.3380  138.3900 C   0  0  2  0  0  3  0  0  0  0  0  0
  187.4990  177.7030  135.3960 C   0  0  0  0  0  2  0  0  0  0  0  0
  188.1830  177.0060  144.1310 C   0  0  0  0  0  3  0  0  0  0  0  0
  186.4510  178.0740  142.7600 C   0  0  0  0  0  3  0  0  0  0  0  0
  181.9140  177.4890  139.1940 C   0  0  0  0  0  0  0  0  0  0  0  0
  181.2520  176.4470  139.4470 O   0  0  0  0  0  0  0  0  0  0  0  0
  183.4040  179.8970  138.7720 C   0  0  0  0  0  2  0  0  0  0  0  0
  181.2860  178.8200  139.4570 C   0  0  0  0  0  2  0  0  0  0  0  0
  184.0190  178.5840  138.2790 C   0  0  2  0  0  3  0  0  0  0  0  0
  183.2690  177.3930  138.7160 N   0  0  0  0  0  0  0  0  0  0  0  0
  183.7990  176.0770  138.3770 C   0  0  0  0  0  1  0  0  0  0  0  0
  181.9010  179.8880  138.5620 C   0  0  1  0  0  3  0  0  0  0  0  0
  181.1820  182.1620  137.9670 C   0  0  0  0  0  2  0  0  0  0  0  0
  181.3460  181.2310  138.9050 C   0  0  0  0  0  3  0  0  0  0  0  0
  190.0830  175.8220  138.4960 C   0  0  0  0  0  2  0  0  0  0  0  0
  191.4230  175.3800  137.9390 C   0  0  0  0  0  2  0  0  0  0  0  0
  192.4890  176.3750  138.3430 C   0  0  0  0  0  1  0  0  0  0  0  0
  1  4  2  0  0  0  0
  1 14  1  0  0  0  0
  2  5  1  0  0  0  0
  2  7  1  0  0  0  0
  3  1  1  0  0  0  0
  4  2  1  0  0  0  0
  5 11  2  0  0  0  0
  6 18  1  0  0  0  0
  7 15  2  0  0  0  0
  8 18  2  0  0  0  0
  9  8  1  1  0  0  0
 10  4  1  0  0  0  0
 10 16  1  0  0  0  0
 11  9  1  0  0  0  0
 12 10  1  0  0  0  0
 13  7  1  0  0  0  0
 14 13  2  0  0  0  0
 15  9  1  0  0  0  0
 15 19  1  0  0  0  0
 16 30  1  1  0  0  0
 16  5  1  0  0  0  0
 17 12  1  0  0  0  0
 17  3  1  0  0  0  0
 19  6  2  0  0  0  0
 20 21  2  0  0  0  0
 20 23  1  0  0  0  0
 24 14  1  1  0  0  0
 24 25  1  0  0  0  0
 24 22  1  0  0  0  0
 25 20  1  0  0  0  0
 26 25  1  0  0  0  0
 27 22  1  0  0  0  0
 27 29  1  1  0  0  0
 27 23  1  0  0  0  0
 28 29  2  0  0  0  0
 31 32  1  0  0  0  0
 31 30  1  0  0  0  0
M  END
>  <MODEL>
4

>  <REMARK>
 VINA RESULT:      -8.5      2.964      7.932
  Name = 
  4 active torsions:
  status: ('A' for Active; 'I' for Inactive)
    1  A    between atoms: C_13  and  C_18
    2  A    between atoms: C_15  and  C_26
    3  A    between atoms: C_18  and  C_29
    4  A    between atoms: C_20  and  C_27
                            x       y       z     vdW  Elec       q    Type
                         _______ _______ _______ _____ _____    ______ ____

>  <TORSDO>
F 4

$$$$
=
 OpenBabel11052414393D

 32 37  0  0  1  0  0  0  0  0999 V2000
  187.2780  178.0440  141.6750 C   0  0  0  0  0  0  0  0  0  0  0  0
  187.4710  176.9690  143.7940 N   0  0  0  0  0  0  0  0  0  0  0  0
  186.5100  179.0030  140.7930 C   0  0  0  0  0  2  0  0  0  0  0  0
  186.7210  177.6350  142.8200 C   0  0  0  0  0  0  0  0  0  0  0  0
  186.8210  177.2360  145.0190 C   0  0  0  0  0  0  0  0  0  0  0  0
  191.6820  176.9840  146.0270 C   0  0  0  0  0  3  0  0  0  0  0  0
  188.8820  176.9180  143.6960 C   0  0  0  0  0  0  0  0  0  0  0  0
  189.6070  176.9280  147.3440 C   0  0  0  0  0  3  0  0  0  0  0  0
  188.8190  176.5130  146.1320 C   0  0  0  0  0  0  0  0  0  0  0  0
  185.5130  178.1740  143.3400 N   0  0  0  0  0  0  0  0  0  0  0  0
  187.4770  177.1280  146.1370 N   0  0  0  0  0  0  0  0  0  0  0  0
  184.7330  179.1590  142.5940 C   0  0  0  0  0  2  0  0  0  0  0  0
  189.4730  177.2610  142.4310 N   0  0  0  0  0  0  0  0  0  0  0  0
  188.7400  177.7520  141.4590 C   0  0  0  0  0  0  0  0  0  0  0  0
  189.5830  176.7650  144.8280 C   0  0  0  0  0  0  0  0  0  0  0  0
  185.5330  178.0040  144.8050 C   0  0  2  0  0  3  0  0  0  0  0  0
  185.0000  178.9960  141.0920 C   0  0  0  0  0  2  0  0  0  0  0  0
  190.9320  177.1020  147.2950 C   0  0  0  0  0  3  0  0  0  0  0  0
  191.0520  176.8410  144.8580 C   0  0  0  0  0  2  0  0  0  0  0  0
  191.1540  176.8990  138.7490 C   0  0  0  0  0  0  0  0  0  0  0  0
  192.3110  176.4150  138.6240 O   0  0  0  0  0  0  0  0  0  0  0  0
  188.4670  177.8550  138.9980 C   0  0  0  0  0  2  0  0  0  0  0  0
  190.2340  176.8770  137.5710 C   0  0  0  0  0  2  0  0  0  0  0  0
  189.4210  178.1040  140.1680 C   0  0  2  0  0  3  0  0  0  0  0  0
  190.7120  177.4080  140.0230 N   0  0  0  0  0  0  0  0  0  0  0  0
  191.6780  177.5030  141.1100 C   0  0  0  0  0  1  0  0  0  0  0  0
  189.2020  177.9920  137.6770 C   0  0  1  0  0  3  0  0  0  0  0  0
  186.9400  178.2090  136.7390 C   0  0  0  0  0  2  0  0  0  0  0  0
  188.2230  177.8980  136.5550 C   0  0  0  0  0  3  0  0  0  0  0  0
  185.6050  179.3670  145.4880 C   0  0  0  0  0  2  0  0  0  0  0  0
  185.3050  179.2300  146.9680 C   0  0  0  0  0  2  0  0  0  0  0  0
  186.4310  179.8500  147.7680 C   0  0  0  0  0  1  0  0  0  0  0  0
  1  4  2  0  0  0  0
  2  5  1  0  0  0  0
  3 17  1  0  0  0  0
  3  1  1  0  0  0  0
  4 10  1  0  0  0  0
  4  2  1  0  0  0  0
  5 11  2  0  0  0  0
  6 18  2  0  0  0  0
  7  2  1  0  0  0  0
  7 15  2  0  0  0  0
  9 11  1  0  0  0  0
  9  8  2  0  0  0  0
 10 16  1  0  0  0  0
 12 10  1  0  0  0  0
 13  7  1  0  0  0  0
 14  1  1  0  0  0  0
 14 13  2  0  0  0  0
 15 19  1  0  0  0  0
 15  9  1  0  0  0  0
 16  5  1  0  0  0  0
 16 30  1  1  0  0  0
 17 12  1  0  0  0  0
 18  8  1  0  0  0  0
 19  6  1  0  0  0  0
 20 25  1  0  0  0  0
 21 20  2  0  0  0  0
 22 24  1  0  0  0  0
 23 27  1  0  0  0  0
 23 20  1  0  0  0  0
 24 14  1  1  0  0  0
 25 24  1  0  0  0  0
 25 26  1  0  0  0  0
 27 29  1  6  0  0  0
 27 22  1  0  0  0  0
 29 28  2  0  0  0  0
 30 31  1  0  0  0  0
 31 32  1  0  0  0  0
M  END
>  <MODEL>
5

>  <REMARK>
 VINA RESULT:      -8.0      2.085      6.596
  Name = 
  4 active torsions:
  status: ('A' for Active; 'I' for Inactive)
    1  A    between atoms: C_13  and  C_18
    2  A    between atoms: C_15  and  C_26
    3  A    between atoms: C_18  and  C_29
    4  A    between atoms: C_20  and  C_27
                            x       y       z     vdW  Elec       q    Type
                         _______ _______ _______ _____ _____    ______ ____

>  <TORSDO>
F 4

$$$$
=
 OpenBabel11052414393D

 32 37  0  0  1  0  0  0  0  0999 V2000
  188.6500  177.1790  138.8460 C   0  0  0  0  0  0  0  0  0  0  0  0
  187.1170  178.5290  140.0780 N   0  0  0  0  0  0  0  0  0  0  0  0
  189.8680  176.2850  138.8670 C   0  0  0  0  0  2  0  0  0  0  0  0
  188.3560  177.8940  139.9370 C   0  0  0  0  0  0  0  0  0  0  0  0
  186.9010  178.6290  141.4690 C   0  0  0  0  0  0  0  0  0  0  0  0
  182.4370  177.9360  139.3920 C   0  0  0  0  0  3  0  0  0  0  0  0
  186.0630  178.2390  139.1790 C   0  0  0  0  0  0  0  0  0  0  0  0
  183.2610  178.6880  141.5840 C   0  0  0  0  0  3  0  0  0  0  0  0
  184.5900  179.0580  140.9860 C   0  0  0  0  0  0  0  0  0  0  0  0
  189.0310  177.7410  141.1790 N   0  0  0  0  0  0  0  0  0  0  0  0
  185.6920  178.7740  141.9270 N   0  0  0  0  0  0  0  0  0  0  0  0
  190.1780  176.8470  141.3190 C   0  0  0  0  0  2  0  0  0  0  0  0
  186.3980  177.5590  137.9560 N   0  0  0  0  0  0  0  0  0  0  0  0
  187.6080  177.0900  137.7610 C   0  0  0  0  0  0  0  0  0  0  0  0
  184.8070  178.4190  139.6100 C   0  0  0  0  0  0  0  0  0  0  0  0
  188.1050  178.1500  142.2520 C   0  0  2  0  0  3  0  0  0  0  0  0
  190.8740  176.6860  139.9620 C   0  0  0  0  0  2  0  0  0  0  0  0
  182.2620  178.2110  140.8340 C   0  0  0  0  0  3  0  0  0  0  0  0
  183.6370  178.0170  138.8110 C   0  0  0  0  0  2  0  0  0  0  0  0
  190.0400  175.8850  135.2060 C   0  0  0  0  0  0  0  0  0  0  0  0
  191.0610  176.3000  134.5940 O   0  0  0  0  0  0  0  0  0  0  0  0
  187.8170  174.8640  136.6920 C   0  0  0  0  0  2  0  0  0  0  0  0
  189.7960  174.4120  135.2810 C   0  0  0  0  0  2  0  0  0  0  0  0
  187.8890  176.3760  136.4700 C   0  0  2  0  0  3  0  0  0  0  0  0
  189.1600  176.8140  135.8680 N   0  0  0  0  0  0  0  0  0  0  0  0
  189.3830  178.2430  135.6780 C   0  0  0  0  0  1  0  0  0  0  0  0
  188.3120  174.1240  135.4630 C   0  0  1  0  0  3  0  0  0  0  0  0
  187.8610  172.1480  136.8540 C   0  0  0  0  0  2  0  0  0  0  0  0
  188.0890  172.6590  135.6450 C   0  0  0  0  0  3  0  0  0  0  0  0
  187.7370  176.9440  143.1110 C   0  0  0  0  0  2  0  0  0  0  0  0
  188.0230  177.2310  144.5730 C   0  0  0  0  0  2  0  0  0  0  0  0
  186.7320  177.5870  145.2770 C   0  0  0  0  0  1  0  0  0  0  0  0
  1  3  1  0  0  0  0
  1  4  2  0  0  0  0
  2  5  1  0  0  0  0
  3 17  1  0  0  0  0
  4  2  1  0  0  0  0
  4 10  1  0  0  0  0
  5 11  2  0  0  0  0
  5 16  1  0  0  0  0
  6 18  2  0  0  0  0
  7 15  2  0  0  0  0
  7  2  1  0  0  0  0
  9  8  2  0  0  0  0
  9 11  1  0  0  0  0
 10 12  1  0  0  0  0
 10 16  1  0  0  0  0
 13  7  1  0  0  0  0
 14 13  2  0  0  0  0
 14  1  1  0  0  0  0
 15  9  1  0  0  0  0
 16 30  1  1  0  0  0
 17 12  1  0  0  0  0
 18  8  1  0  0  0  0
 19  6  1  0  0  0  0
 19 15  1  0  0  0  0
 20 23  1  0  0  0  0
 20 25  1  0  0  0  0
 21 20  2  0  0  0  0
 23 27  1  0  0  0  0
 24 22  1  0  0  0  0
 24 14  1  1  0  0  0
 25 24  1  0  0  0  0
 26 25  1  0  0  0  0
 27 29  1  1  0  0  0
 27 22  1  0  0  0  0
 29 28  2  0  0  0  0
 30 31  1  0  0  0  0
 31 32  1  0  0  0  0
M  END
>  <MODEL>
6

>  <REMARK>
 VINA RESULT:      -7.9      2.668      7.499
  Name = 
  4 active torsions:
  status: ('A' for Active; 'I' for Inactive)
    1  A    between atoms: C_13  and  C_18
    2  A    between atoms: C_15  and  C_26
    3  A    between atoms: C_18  and  C_29
    4  A    between atoms: C_20  and  C_27
                            x       y       z     vdW  Elec       q    Type
                         _______ _______ _______ _____ _____    ______ ____

>  <TORSDO>
F 4

$$$$
=
 OpenBabel11052414393D

 32 37  0  0  1  0  0  0  0  0999 V2000
  186.3770  178.2550  144.1060 C   0  0  0  0  0  0  0  0  0  0  0  0
  185.0900  179.3190  142.4040 N   0  0  0  0  0  0  0  0  0  0  0  0
  186.4180  177.6650  145.4970 C   0  0  0  0  0  2  0  0  0  0  0  0
  185.3100  178.9720  143.7410 C   0  0  0  0  0  0  0  0  0  0  0  0
  183.6930  179.4830  142.2810 C   0  0  0  0  0  0  0  0  0  0  0  0
  185.2810  177.6250  137.9520 C   0  0  0  0  0  3  0  0  0  0  0  0
  185.8630  178.7230  141.3780 C   0  0  0  0  0  0  0  0  0  0  0  0
  183.2310  178.7240  138.7490 C   0  0  0  0  0  3  0  0  0  0  0  0
  183.9760  179.3340  139.9040 C   0  0  0  0  0  0  0  0  0  0  0  0
  184.1310  179.0800  144.5290 N   0  0  0  0  0  0  0  0  0  0  0  0
  183.1310  179.3870  141.1120 N   0  0  0  0  0  0  0  0  0  0  0  0
  184.0470  178.4840  145.8610 C   0  0  0  0  0  2  0  0  0  0  0  0
  187.0670  178.0390  141.7640 N   0  0  0  0  0  0  0  0  0  0  0  0
  187.3490  177.8420  143.0300 C   0  0  0  0  0  0  0  0  0  0  0  0
  185.3240  178.6490  140.1530 C   0  0  0  0  0  0  0  0  0  0  0  0
  183.0020  179.3560  143.6220 C   0  0  2  0  0  3  0  0  0  0  0  0
  185.4530  178.3730  146.4650 C   0  0  0  0  0  2  0  0  0  0  0  0
  183.8490  177.9710  137.8320 C   0  0  0  0  0  3  0  0  0  0  0  0
  185.9790  177.9280  139.0490 C   0  0  0  0  0  2  0  0  0  0  0  0
  191.0490  177.4920  142.7430 C   0  0  0  0  0  0  0  0  0  0  0  0
  191.9460  177.5720  141.8610 O   0  0  0  0  0  0  0  0  0  0  0  0
  189.0500  177.4550  144.7910 C   0  0  0  0  0  2  0  0  0  0  0  0
  191.4400  177.6160  144.1800 C   0  0  0  0  0  2  0  0  0  0  0  0
  188.6140  177.1060  143.3660 C   0  0  2  0  0  3  0  0  0  0  0  0
  189.6670  177.3420  142.3630 N   0  0  0  0  0  0  0  0  0  0  0  0
  189.3490  177.1210  140.9570 C   0  0  0  0  0  1  0  0  0  0  0  0
  190.4340  176.9010  145.0730 C   0  0  1  0  0  3  0  0  0  0  0  0
  191.6700  176.3530  147.1250 C   0  0  0  0  0  2  0  0  0  0  0  0
  190.7710  177.1200  146.5100 C   0  0  0  0  0  3  0  0  0  0  0  0
  182.0370  178.1730  143.6150 C   0  0  0  0  0  2  0  0  0  0  0  0
  180.6360  178.6340  143.9690 C   0  0  0  0  0  2  0  0  0  0  0  0
  179.7400  178.4920  142.7580 C   0  0  0  0  0  1  0  0  0  0  0  0
  1  3  1  0  0  0  0
  2  4  1  0  0  0  0
  3 17  1  0  0  0  0
  4  1  2  0  0  0  0
  4 10  1  0  0  0  0
  5  2  1  0  0  0  0
  5 16  1  0  0  0  0
  6 19  1  0  0  0  0
  7 13  1  0  0  0  0
  7  2  1  0  0  0  0
  8  9  2  0  0  0  0
  9 15  1  0  0  0  0
  9 11  1  0  0  0  0
 10 12  1  0  0  0  0
 11  5  2  0  0  0  0
 12 17  1  0  0  0  0
 13 14  2  0  0  0  0
 14  1  1  0  0  0  0
 15  7  2  0  0  0  0
 16 30  1  6  0  0  0
 16 10  1  0  0  0  0
 18  6  2  0  0  0  0
 18  8  1  0  0  0  0
 19 15  1  0  0  0  0
 20 23  1  0  0  0  0
 21 20  2  0  0  0  0
 22 27  1  0  0  0  0
 23 27  1  0  0  0  0
 24 14  1  6  0  0  0
 24 22  1  0  0  0  0
 25 20  1  0  0  0  0
 25 24  1  0  0  0  0
 26 25  1  0  0  0  0
 27 29  1  1  0  0  0
 29 28  2  0  0  0  0
 30 31  1  0  0  0  0
 32 31  1  0  0  0  0
M  END
>  <MODEL>
7

>  <REMARK>
 VINA RESULT:      -7.9      1.843      3.075
  Name = 
  4 active torsions:
  status: ('A' for Active; 'I' for Inactive)
    1  A    between atoms: C_13  and  C_18
    2  A    between atoms: C_15  and  C_26
    3  A    between atoms: C_18  and  C_29
    4  A    between atoms: C_20  and  C_27
                            x       y       z     vdW  Elec       q    Type
                         _______ _______ _______ _____ _____    ______ ____

>  <TORSDO>
F 4

$$$$
=
 OpenBabel11052414393D

 32 37  0  0  1  0  0  0  0  0999 V2000
  187.8650  177.9600  140.8110 C   0  0  0  0  0  0  0  0  0  0  0  0
  188.4880  177.8790  138.5100 N   0  0  0  0  0  0  0  0  0  0  0  0
  186.7630  178.1270  141.8320 C   0  0  0  0  0  2  0  0  0  0  0  0
  187.6100  178.2550  139.5320 C   0  0  0  0  0  0  0  0  0  0  0  0
  187.6910  177.7670  137.3510 C   0  0  0  0  0  0  0  0  0  0  0  0
  191.2280  174.2930  136.9750 C   0  0  0  0  0  3  0  0  0  0  0  0
  189.5460  176.9770  138.7780 C   0  0  0  0  0  0  0  0  0  0  0  0
  189.6210  175.3420  135.4370 C   0  0  0  0  0  3  0  0  0  0  0  0
  189.4860  176.5310  136.3480 C   0  0  1  0  0  3  0  0  0  0  0  0
  186.3110  178.5650  139.0440 N   0  0  0  0  0  0  0  0  0  0  0  0
  188.1020  177.0410  136.3510 N   0  0  0  0  0  0  0  0  0  0  0  0
  185.1650  178.6800  139.9430 C   0  0  0  0  0  2  0  0  0  0  0  0
  189.8860  176.7400  140.1540 N   0  0  0  0  0  0  0  0  0  0  0  0
  189.1410  177.2200  141.1210 C   0  0  0  0  0  0  0  0  0  0  0  0
  190.0170  176.2470  137.7570 C   0  0  0  0  0  0  0  0  0  0  0  0
  186.2660  178.2070  137.6140 C   0  0  2  0  0  3  0  0  0  0  0  0
  185.6490  179.0710  141.3460 C   0  0  0  0  0  2  0  0  0  0  0  0
  190.4570  174.3350  135.7150 C   0  0  0  0  0  3  0  0  0  0  0  0
  191.0150  175.1820  137.9490 C   0  0  0  0  0  3  0  0  0  0  0  0
  190.9470  178.1930  144.2330 C   0  0  0  0  0  0  0  0  0  0  0  0
  192.0540  178.6890  144.5750 O   0  0  0  0  0  0  0  0  0  0  0  0
  188.3680  177.2090  143.4760 C   0  0  0  0  0  2  0  0  0  0  0  0
  189.8050  178.2530  145.1960 C   0  0  0  0  0  2  0  0  0  0  0  0
  189.5420  176.9220  142.5370 C   0  0  2  0  0  3  0  0  0  0  0  0
  190.7760  177.6320  142.9180 N   0  0  0  0  0  0  0  0  0  0  0  0
  191.9450  177.5020  142.0560 C   0  0  0  0  0  1  0  0  0  0  0  0
  188.8160  177.1280  144.9240 C   0  0  1  0  0  3  0  0  0  0  0  0
  186.7560  178.2540  145.6540 C   0  0  0  0  0  2  0  0  0  0  0  0
  187.6270  177.2590  145.8170 C   0  0  0  0  0  3  0  0  0  0  0  0
  185.3000  177.0470  137.3950 C   0  0  0  0  0  2  0  0  0  0  0  0
  184.3760  177.3430  136.2290 C   0  0  0  0  0  2  0  0  0  0  0  0
  182.9610  177.5050  136.7380 C   0  0  0  0  0  1  0  0  0  0  0  0
  1 14  1  0  0  0  0
  1  3  1  0  0  0  0
  2  7  1  0  0  0  0
  2  4  1  0  0  0  0
  4  1  2  0  0  0  0
  5 16  1  0  0  0  0
  5  2  1  0  0  0  0
  6 19  2  0  0  0  0
  7 13  1  0  0  0  0
  8 18  2  0  0  0  0
  9  8  1  6  0  0  0
  9 11  1  0  0  0  0
  9 15  1  0  0  0  0
 10  4  1  0  0  0  0
 10 12  1  0  0  0  0
 11  5  2  0  0  0  0
 12 17  1  0  0  0  0
 13 14  2  0  0  0  0
 15 19  1  0  0  0  0
 15  7  2  0  0  0  0
 16 30  1  1  0  0  0
 16 10  1  0  0  0  0
 17  3  1  0  0  0  0
 18  6  1  0  0  0  0
 20 21  2  0  0  0  0
 20 23  1  0  0  0  0
 22 27  1  0  0  0  0
 24 14  1  6  0  0  0
 24 25  1  0  0  0  0
 24 22  1  0  0  0  0
 25 20  1  0  0  0  0
 26 25  1  0  0  0  0
 27 23  1  0  0  0  0
 27 29  1  1  0  0  0
 28 29  2  0  0  0  0
 31 32  1  0  0  0  0
 31 30  1  0  0  0  0
M  END
>  <MODEL>
8

>  <REMARK>
 VINA RESULT:      -7.8      1.931      2.978
  Name = 
  4 active torsions:
  status: ('A' for Active; 'I' for Inactive)
    1  A    between atoms: C_13  and  C_18
    2  A    between atoms: C_15  and  C_26
    3  A    between atoms: C_18  and  C_29
    4  A    between atoms: C_20  and  C_27
                            x       y       z     vdW  Elec       q    Type
                         _______ _______ _______ _____ _____    ______ ____

>  <TORSDO>
F 4

$$$$
=
 OpenBabel11052414393D

 32 37  0  0  1  0  0  0  0  0999 V2000
  185.5300  178.1260  138.6600 C   0  0  0  0  0  0  0  0  0  0  0  0
  185.7230  179.1800  140.7900 N   0  0  0  0  0  0  0  0  0  0  0  0
  186.1770  177.2710  137.5940 C   0  0  0  0  0  2  0  0  0  0  0  0
  186.2920  178.6120  139.6460 C   0  0  0  0  0  0  0  0  0  0  0  0
  186.6800  179.0080  141.8130 C   0  0  0  0  0  0  0  0  0  0  0  0
  182.2200  178.6270  143.9760 C   0  0  0  0  0  3  0  0  0  0  0  0
  184.3350  179.0450  141.0380 C   0  0  0  0  0  0  0  0  0  0  0  0
  184.5280  178.9630  144.7520 C   0  0  0  0  0  3  0  0  0  0  0  0
  184.9370  179.4700  143.3960 C   0  0  0  0  0  0  0  0  0  0  0  0
  187.6490  178.2390  139.8440 N   0  0  0  0  0  0  0  0  0  0  0  0
  186.3070  179.0360  143.0600 N   0  0  0  0  0  0  0  0  0  0  0  0
  188.3440  177.3600  138.9060 C   0  0  0  0  0  2  0  0  0  0  0  0
  183.5030  178.6190  139.9450 N   0  0  0  0  0  0  0  0  0  0  0  0
  184.0350  178.2230  138.8130 C   0  0  0  0  0  0  0  0  0  0  0  0
  183.9180  179.1120  142.3100 C   0  0  0  0  0  0  0  0  0  0  0  0
  187.9640  178.4140  141.2740 C   0  0  2  0  0  3  0  0  0  0  0  0
  187.7010  177.4770  137.5180 C   0  0  0  0  0  2  0  0  0  0  0  0
  183.2650  178.6170  145.0200 C   0  0  0  0  0  3  0  0  0  0  0  0
  182.5220  178.8450  142.6930 C   0  0  0  0  0  2  0  0  0  0  0  0
  180.9530  176.4290  137.7250 C   0  0  0  0  0  0  0  0  0  0  0  0
  180.3450  175.3520  137.9650 O   0  0  0  0  0  0  0  0  0  0  0  0
  182.2330  178.9500  137.2730 C   0  0  0  0  0  2  0  0  0  0  0  0
  180.2000  177.5550  137.0920 C   0  0  0  0  0  2  0  0  0  0  0  0
  183.1100  177.7760  137.7170 C   0  0  2  0  0  3  0  0  0  0  0  0
  182.3330  176.5870  138.1070 N   0  0  0  0  0  0  0  0  0  0  0  0
  183.0510  175.4270  138.6240 C   0  0  0  0  0  1  0  0  0  0  0  0
  181.1470  178.4710  136.3280 C   0  0  1  0  0  3  0  0  0  0  0  0
  180.5990  180.8660  136.2950 C   0  0  0  0  0  2  0  0  0  0  0  0
  180.4040  179.6490  135.7910 C   0  0  0  0  0  3  0  0  0  0  0  0
  188.2370  177.0580  141.9190 C   0  0  0  0  0  2  0  0  0  0  0  0
  189.6660  176.9920  142.4230 C   0  0  0  0  0  2  0  0  0  0  0  0
  189.9580  178.2130  143.2680 C   0  0  0  0  0  1  0  0  0  0  0  0
  1 14  1  0  0  0  0
  1  4  2  0  0  0  0
  2  7  1  0  0  0  0
  2  5  1  0  0  0  0
  3  1  1  0  0  0  0
  4 10  1  0  0  0  0
  4  2  1  0  0  0  0
  5 11  2  0  0  0  0
  6 18  2  0  0  0  0
  7 15  2  0  0  0  0
  8 18  1  0  0  0  0
  9  8  2  0  0  0  0
 10 16  1  0  0  0  0
 11  9  1  0  0  0  0
 12 10  1  0  0  0  0
 13  7  1  0  0  0  0
 14 13  2  0  0  0  0
 15 19  1  0  0  0  0
 15  9  1  0  0  0  0
 16  5  1  0  0  0  0
 16 30  1  1  0  0  0
 17  3  1  0  0  0  0
 17 12  1  0  0  0  0
 19  6  1  0  0  0  0
 20 21  2  0  0  0  0
 20 25  1  0  0  0  0
 22 24  1  0  0  0  0
 23 20  1  0  0  0  0
 24 25  1  0  0  0  0
 24 14  1  1  0  0  0
 25 26  1  0  0  0  0
 27 29  1  1  0  0  0
 27 23  1  0  0  0  0
 27 22  1  0  0  0  0
 29 28  2  0  0  0  0
 30 31  1  0  0  0  0
 31 32  1  0  0  0  0
M  END
>  <MODEL>
9

>  <REMARK>
 VINA RESULT:      -7.5      3.290      8.586
  Name = 
  4 active torsions:
  status: ('A' for Active; 'I' for Inactive)
    1  A    between atoms: C_13  and  C_18
    2  A    between atoms: C_15  and  C_26
    3  A    between atoms: C_18  and  C_29
    4  A    between atoms: C_20  and  C_27
                            x       y       z     vdW  Elec       q    Type
                         _______ _______ _______ _____ _____    ______ ____

>  <TORSDO>
F 4

$$$$
