=
 OpenBabel11052414273D

 32 37  0  0  1  0  0  0  0  0999 V2000
  185.9280  178.3560  139.0280 C   0  0  0  0  0  0  0  0  0  0  0  0
  186.7210  178.2510  141.3220 C   0  0  0  0  0  0  0  0  0  0  0  0
  186.2130  178.2720  137.6550 C   0  0  0  0  0  3  0  0  0  0  0  0
  186.9800  178.2250  139.9510 C   0  0  0  0  0  0  0  0  0  0  0  0
  187.7690  178.1260  142.2460 C   0  0  0  0  0  0  0  0  0  0  0  0
  183.6930  179.1220  145.0870 C   0  0  0  0  0  2  0  0  0  0  0  0
  185.4070  178.4150  141.7730 C   0  0  0  0  0  0  0  0  0  0  0  0
  186.0280  178.3960  145.5450 C   0  0  0  0  0  2  0  0  0  0  0  0
  186.2280  178.2720  144.0550 C   0  0  0  0  0  0  0  0  0  0  0  0
  188.3010  178.0340  139.5150 C   0  0  0  0  0  0  0  0  0  0  0  0
  187.5000  178.1550  143.5790 N   0  0  0  0  0  0  0  0  0  0  0  0
  189.3020  177.9110  140.4290 N   0  0  0  0  0  0  0  0  0  0  0  0
  188.5700  177.9380  138.1490 C   0  0  0  0  0  3  0  0  0  0  0  0
  184.4000  178.5510  140.8670 N   0  0  0  0  0  0  0  0  0  0  0  0
  184.6170  178.5180  139.5200 C   0  0  0  0  0  0  0  0  0  0  0  0
  185.1490  178.4470  143.1500 C   0  0  0  0  0  0  0  0  0  0  0  0
  189.0740  177.9730  141.7730 C   0  0  0  0  0  0  0  0  0  0  0  0
  187.5260  178.0560  137.2220 C   0  0  0  0  0  3  0  0  0  0  0  0
  184.5680  178.2390  145.9610 C   0  0  0  0  0  2  0  0  0  0  0  0
  183.7350  178.6080  143.6510 C   0  0  0  0  0  2  0  0  0  0  0  0
  181.5950  180.3560  138.1700 N   0  0  0  0  0  0  0  0  0  0  0  0
  181.4000  178.0840  136.4810 C   0  0  0  0  0  1  0  0  0  0  0  0
  180.9660  181.5480  138.7190 C   0  0  0  0  0  1  0  0  0  0  0  0
  182.9850  176.3110  138.1780 C   0  0  0  0  0  1  0  0  0  0  0  0
  183.4640  178.7760  138.5830 C   0  0  1  0  0  3  0  0  0  0  0  0
  180.6540  179.2620  138.4210 C   0  0  0  0  0  2  0  0  0  0  0  0
  182.4180  177.6490  138.6420 C   0  0  1  0  0  3  0  0  0  0  0  0
  182.8110  180.1190  138.9540 C   0  0  1  0  0  3  0  0  0  0  0  0
  183.7220  181.1430  138.7280 F   0  0  0  0  0  0  0  0  0  0  0  0
  181.1750  177.9860  137.9240 N   0  0  0  0  0  0  0  0  0  0  0  0
  190.1300  177.8750  142.6820 O   0  0  0  0  0  0  0  0  0  0  0  0
  191.4400  177.5240  142.2660 C   0  0  0  0  0  1  0  0  0  0  0  0
  1 15  2  0  0  0  0
  1  4  1  0  0  0  0
  2  7  1  0  0  0  0
  2  5  1  0  0  0  0
  3  1  1  0  0  0  0
  4  2  2  0  0  0  0
  5 11  2  0  0  0  0
  6 19  1  0  0  0  0
  7 16  1  0  0  0  0
  8 19  1  0  0  0  0
  9  8  1  0  0  0  0
 10  4  1  0  0  0  0
 10 12  1  0  0  0  0
 11  9  1  0  0  0  0
 12 17  2  0  0  0  0
 13 10  2  0  0  0  0
 14  7  2  0  0  0  0
 15 14  1  0  0  0  0
 16 20  1  0  0  0  0
 16  9  2  0  0  0  0
 17  5  1  0  0  0  0
 17 31  1  0  0  0  0
 18  3  2  0  0  0  0
 18 13  1  0  0  0  0
 20  6  1  0  0  0  0
 21 26  1  0  0  0  0
 21 23  1  0  0  0  0
 21 28  1  0  0  0  0
 22 30  1  0  0  0  0
 25 27  1  0  0  0  0
 25 28  1  0  0  0  0
 25 15  1  1  0  0  0
 27 24  1  6  0  0  0
 28 29  1  6  0  0  0
 30 26  1  0  0  0  0
 30 27  1  0  0  0  0
 32 31  1  0  0  0  0
M  END
>  <MODEL>
1

>  <REMARK>
 VINA RESULT:      -8.6      0.000      0.000
  Name = 
  2 active torsions:
  status: ('A' for Active; 'I' for Inactive)
    1  A    between atoms: O_13  and  C_29
    2  A    between atoms: C_16  and  C_27
                            x       y       z     vdW  Elec       q    Type
                         _______ _______ _______ _____ _____    ______ ____

>  <TORSDO>
F 2

$$$$
=
 OpenBabel11052414273D

 32 37  0  0  1  0  0  0  0  0999 V2000
  183.1420  178.7210  141.7400 C   0  0  0  0  0  0  0  0  0  0  0  0
  185.5550  178.4340  141.7050 C   0  0  0  0  0  0  0  0  0  0  0  0
  181.9660  178.8950  142.4870 C   0  0  0  0  0  3  0  0  0  0  0  0
  184.3620  178.5560  142.4180 C   0  0  0  0  0  0  0  0  0  0  0  0
  186.7730  178.2640  142.3790 C   0  0  0  0  0  0  0  0  0  0  0  0
  187.9600  177.7510  137.4790 C   0  0  0  0  0  2  0  0  0  0  0  0
  185.5290  178.4720  140.3070 C   0  0  0  0  0  0  0  0  0  0  0  0
  189.2520  177.9770  139.5930 C   0  0  0  0  0  2  0  0  0  0  0  0
  187.9450  178.2180  140.3080 C   0  0  0  0  0  0  0  0  0  0  0  0
  184.4090  178.5420  143.8220 C   0  0  0  0  0  0  0  0  0  0  0  0
  187.9260  178.1460  141.6680 N   0  0  0  0  0  0  0  0  0  0  0  0
  185.6020  178.3790  144.4560 N   0  0  0  0  0  0  0  0  0  0  0  0
  183.2350  178.7300  144.5530 C   0  0  0  0  0  3  0  0  0  0  0  0
  184.3390  178.6230  139.6630 N   0  0  0  0  0  0  0  0  0  0  0  0
  183.1570  178.7560  140.3310 C   0  0  0  0  0  0  0  0  0  0  0  0
  186.7270  178.3430  139.5910 C   0  0  0  0  0  0  0  0  0  0  0  0
  186.7740  178.2200  143.7740 C   0  0  0  0  0  0  0  0  0  0  0  0
  182.0160  178.9070  143.8850 C   0  0  0  0  0  3  0  0  0  0  0  0
  189.1990  178.3590  138.1160 C   0  0  0  0  0  2  0  0  0  0  0  0
  186.7160  178.3970  138.0830 C   0  0  0  0  0  2  0  0  0  0  0  0
  180.3510  177.4200  138.1680 N   0  0  0  0  0  0  0  0  0  0  0  0
  179.6030  180.1540  138.0520 C   0  0  0  0  0  1  0  0  0  0  0  0
  180.2120  176.0740  137.6300 C   0  0  0  0  0  1  0  0  0  0  0  0
  182.2280  181.2150  138.7720 C   0  0  0  0  0  1  0  0  0  0  0  0
  181.8710  178.8180  139.5450 C   0  0  1  0  0  3  0  0  0  0  0  0
  180.6530  178.2740  137.0180 C   0  0  0  0  0  2  0  0  0  0  0  0
  181.9830  179.7720  138.3430 C   0  0  1  0  0  3  0  0  0  0  0  0
  181.5150  177.4020  139.0600 C   0  0  1  0  0  3  0  0  0  0  0  0
  181.2490  176.5990  140.1620 F   0  0  0  0  0  0  0  0  0  0  0  0
  180.8330  179.6710  137.4250 N   0  0  0  0  0  0  0  0  0  0  0  0
  187.9760  178.0230  144.4580 O   0  0  0  0  0  0  0  0  0  0  0  0
  188.0120  177.4360  145.7490 C   0  0  0  0  0  1  0  0  0  0  0  0
  1  4  1  0  0  0  0
  1  3  2  0  0  0  0
  2  5  1  0  0  0  0
  2  4  1  0  0  0  0
  3 18  1  0  0  0  0
  4 10  2  0  0  0  0
  5 17  1  0  0  0  0
  6 20  1  0  0  0  0
  6 19  1  0  0  0  0
  7  2  2  0  0  0  0
  8  9  1  0  0  0  0
  9 11  1  0  0  0  0
 10 12  1  0  0  0  0
 10 13  1  0  0  0  0
 11  5  2  0  0  0  0
 14  7  1  0  0  0  0
 14 15  2  0  0  0  0
 15  1  1  0  0  0  0
 16  7  1  0  0  0  0
 16  9  2  0  0  0  0
 17 12  2  0  0  0  0
 17 31  1  0  0  0  0
 18 13  2  0  0  0  0
 19  8  1  0  0  0  0
 20 16  1  0  0  0  0
 21 28  1  0  0  0  0
 23 21  1  0  0  0  0
 25 15  1  6  0  0  0
 26 30  1  0  0  0  0
 26 21  1  0  0  0  0
 27 24  1  1  0  0  0
 27 25  1  0  0  0  0
 28 25  1  0  0  0  0
 28 29  1  1  0  0  0
 30 22  1  0  0  0  0
 30 27  1  0  0  0  0
 31 32  1  0  0  0  0
M  END
>  <MODEL>
2

>  <REMARK>
 VINA RESULT:      -8.0      1.723      4.815
  Name = 
  2 active torsions:
  status: ('A' for Active; 'I' for Inactive)
    1  A    between atoms: O_13  and  C_29
    2  A    between atoms: C_16  and  C_27
                            x       y       z     vdW  Elec       q    Type
                         _______ _______ _______ _____ _____    ______ ____

>  <TORSDO>
F 2

$$$$
=
 OpenBabel11052414273D

 32 37  0  0  1  0  0  0  0  0999 V2000
  184.1150  178.6080  141.8170 C   0  0  0  0  0  0  0  0  0  0  0  0
  186.4070  178.1460  142.4760 C   0  0  0  0  0  0  0  0  0  0  0  0
  182.7960  178.9100  142.1940 C   0  0  0  0  0  3  0  0  0  0  0  0
  185.0790  178.3960  142.8180 C   0  0  0  0  0  0  0  0  0  0  0  0
  187.3700  177.9290  143.4720 C   0  0  0  0  0  0  0  0  0  0  0  0
  189.8270  177.0390  139.1310 C   0  0  0  0  0  2  0  0  0  0  0  0
  186.7760  178.1020  141.1270 C   0  0  0  0  0  0  0  0  0  0  0  0
  190.4930  177.2980  141.5140 C   0  0  0  0  0  2  0  0  0  0  0  0
  189.0650  177.6750  141.8200 C   0  0  0  0  0  0  0  0  0  0  0  0
  184.7310  178.4640  144.1780 C   0  0  0  0  0  0  0  0  0  0  0  0
  188.6610  177.6860  143.1220 N   0  0  0  0  0  0  0  0  0  0  0  0
  185.6820  178.2530  145.1280 N   0  0  0  0  0  0  0  0  0  0  0  0
  183.4200  178.7790  144.5390 C   0  0  0  0  0  3  0  0  0  0  0  0
  185.8300  178.2990  140.1670 N   0  0  0  0  0  0  0  0  0  0  0  0
  184.5240  178.5560  140.4690 C   0  0  0  0  0  0  0  0  0  0  0  0
  188.1100  177.8440  140.7840 C   0  0  0  0  0  0  0  0  0  0  0  0
  186.9790  177.9690  144.8120 C   0  0  0  0  0  0  0  0  0  0  0  0
  182.4560  179.0030  143.5480 C   0  0  0  0  0  3  0  0  0  0  0  0
  190.8860  177.5930  140.0680 C   0  0  0  0  0  2  0  0  0  0  0  0
  188.5250  177.8080  139.3330 C   0  0  0  0  0  2  0  0  0  0  0  0
  181.9800  180.2700  138.2500 N   0  0  0  0  0  0  0  0  0  0  0  0
  181.5690  177.6380  137.2750 C   0  0  0  0  0  1  0  0  0  0  0  0
  181.5070  181.6430  138.3430 C   0  0  0  0  0  1  0  0  0  0  0  0
  182.6810  176.2760  139.6080 C   0  0  0  0  0  1  0  0  0  0  0  0
  183.5190  178.6630  139.3500 C   0  0  1  0  0  3  0  0  0  0  0  0
  180.8530  179.4360  138.6750 C   0  0  0  0  0  2  0  0  0  0  0  0
  182.3010  177.7530  139.5880 C   0  0  1  0  0  3  0  0  0  0  0  0
  183.0640  180.1280  139.2270 C   0  0  1  0  0  3  0  0  0  0  0  0
  184.1470  180.9080  138.8420 F   0  0  0  0  0  0  0  0  0  0  0  0
  181.2000  178.0130  138.6400 N   0  0  0  0  0  0  0  0  0  0  0  0
  187.9210  177.7280  145.8140 O   0  0  0  0  0  0  0  0  0  0  0  0
  187.6010  177.8760  147.1890 C   0  0  0  0  0  1  0  0  0  0  0  0
  1  3  2  0  0  0  0
  1  4  1  0  0  0  0
  2  4  1  0  0  0  0
  2  5  1  0  0  0  0
  3 18  1  0  0  0  0
  4 10  2  0  0  0  0
  5 17  1  0  0  0  0
  6 20  1  0  0  0  0
  6 19  1  0  0  0  0
  7  2  2  0  0  0  0
  8  9  1  0  0  0  0
  9 11  1  0  0  0  0
 10 13  1  0  0  0  0
 10 12  1  0  0  0  0
 11  5  2  0  0  0  0
 14 15  2  0  0  0  0
 14  7  1  0  0  0  0
 15  1  1  0  0  0  0
 16  7  1  0  0  0  0
 16  9  2  0  0  0  0
 17 12  2  0  0  0  0
 17 31  1  0  0  0  0
 18 13  2  0  0  0  0
 19  8  1  0  0  0  0
 20 16  1  0  0  0  0
 21 23  1  0  0  0  0
 21 26  1  0  0  0  0
 21 28  1  0  0  0  0
 22 30  1  0  0  0  0
 25 27  1  0  0  0  0
 25 15  1  1  0  0  0
 27 24  1  6  0  0  0
 28 29  1  6  0  0  0
 28 25  1  0  0  0  0
 30 26  1  0  0  0  0
 30 27  1  0  0  0  0
 31 32  1  0  0  0  0
M  END
>  <MODEL>
3

>  <REMARK>
 VINA RESULT:      -7.9      1.448      4.348
  Name = 
  2 active torsions:
  status: ('A' for Active; 'I' for Inactive)
    1  A    between atoms: O_13  and  C_29
    2  A    between atoms: C_16  and  C_27
                            x       y       z     vdW  Elec       q    Type
                         _______ _______ _______ _____ _____    ______ ____

>  <TORSDO>
F 2

$$$$
=
 OpenBabel11052414273D

 32 37  0  0  1  0  0  0  0  0999 V2000
  186.3100  178.1380  139.3280 C   0  0  0  0  0  0  0  0  0  0  0  0
  186.8930  178.0980  141.6860 C   0  0  0  0  0  0  0  0  0  0  0  0
  185.3840  178.4750  138.3270 C   0  0  0  0  0  3  0  0  0  0  0  0
  185.9750  178.3730  140.6730 C   0  0  0  0  0  0  0  0  0  0  0  0
  186.5600  178.3260  143.0290 C   0  0  0  0  0  0  0  0  0  0  0  0
  191.0820  176.0470  143.2210 C   0  0  0  0  0  2  0  0  0  0  0  0
  188.1500  177.5800  141.3560 C   0  0  0  0  0  0  0  0  0  0  0  0
  189.6220  177.2110  144.8640 C   0  0  0  0  0  2  0  0  0  0  0  0
  188.7140  177.5840  143.7190 C   0  0  0  0  0  0  0  0  0  0  0  0
  184.7270  178.9170  141.0200 C   0  0  0  0  0  0  0  0  0  0  0  0
  187.4660  178.0510  144.0050 N   0  0  0  0  0  0  0  0  0  0  0  0
  184.4260  179.1340  142.3290 N   0  0  0  0  0  0  0  0  0  0  0  0
  183.8210  179.2610  140.0150 C   0  0  0  0  0  3  0  0  0  0  0  0
  188.4570  177.3480  140.0500 N   0  0  0  0  0  0  0  0  0  0  0  0
  187.5860  177.6160  139.0340 C   0  0  0  0  0  0  0  0  0  0  0  0
  189.0690  177.2970  142.3750 C   0  0  0  0  0  0  0  0  0  0  0  0
  185.2960  178.8340  143.3360 C   0  0  0  0  0  0  0  0  0  0  0  0
  184.1510  179.0410  138.6710 C   0  0  0  0  0  3  0  0  0  0  0  0
  191.0640  176.9730  144.4250 C   0  0  0  0  0  2  0  0  0  0  0  0
  190.4340  176.7530  142.0330 C   0  0  0  0  0  2  0  0  0  0  0  0
  188.5910  175.2880  136.2230 N   0  0  0  0  0  0  0  0  0  0  0  0
  188.9230  177.7160  134.7940 C   0  0  0  0  0  1  0  0  0  0  0  0
  188.8400  173.8560  136.3060 C   0  0  0  0  0  1  0  0  0  0  0  0
  189.1820  179.4200  137.1530 C   0  0  0  0  0  1  0  0  0  0  0  0
  187.9620  177.2380  137.6240 C   0  0  1  0  0  3  0  0  0  0  0  0
  189.9020  175.9040  136.0050 C   0  0  0  0  0  2  0  0  0  0  0  0
  189.2820  177.8990  137.1890 C   0  0  1  0  0  3  0  0  0  0  0  0
  188.0870  175.7070  137.5350 C   0  0  1  0  0  3  0  0  0  0  0  0
  186.8400  175.1380  137.7620 F   0  0  0  0  0  0  0  0  0  0  0  0
  189.7960  177.3620  135.9140 N   0  0  0  0  0  0  0  0  0  0  0  0
  184.9410  179.0410  144.6710 O   0  0  0  0  0  0  0  0  0  0  0  0
  183.5920  178.9700  145.1030 C   0  0  0  0  0  1  0  0  0  0  0  0
  1  4  1  0  0  0  0
  2  5  1  0  0  0  0
  3 18  2  0  0  0  0
  3  1  1  0  0  0  0
  4 10  1  0  0  0  0
  4  2  2  0  0  0  0
  5 17  1  0  0  0  0
  5 11  2  0  0  0  0
  6 19  1  0  0  0  0
  7  2  1  0  0  0  0
  7 16  1  0  0  0  0
  9 11  1  0  0  0  0
  9  8  1  0  0  0  0
 10 12  1  0  0  0  0
 12 17  2  0  0  0  0
 13 10  2  0  0  0  0
 14  7  2  0  0  0  0
 15  1  2  0  0  0  0
 15 14  1  0  0  0  0
 16  9  2  0  0  0  0
 17 31  1  0  0  0  0
 18 13  1  0  0  0  0
 19  8  1  0  0  0  0
 20 16  1  0  0  0  0
 20  6  1  0  0  0  0
 21 23  1  0  0  0  0
 21 28  1  0  0  0  0
 22 30  1  0  0  0  0
 25 15  1  1  0  0  0
 26 21  1  0  0  0  0
 27 24  1  6  0  0  0
 27 25  1  0  0  0  0
 28 25  1  0  0  0  0
 28 29  1  6  0  0  0
 30 26  1  0  0  0  0
 30 27  1  0  0  0  0
 31 32  1  0  0  0  0
M  END
>  <MODEL>
4

>  <REMARK>
 VINA RESULT:      -7.6      2.635      5.912
  Name = 
  2 active torsions:
  status: ('A' for Active; 'I' for Inactive)
    1  A    between atoms: O_13  and  C_29
    2  A    between atoms: C_16  and  C_27
                            x       y       z     vdW  Elec       q    Type
                         _______ _______ _______ _____ _____    ______ ____

>  <TORSDO>
F 2

$$$$
=
 OpenBabel11052414273D

 32 37  0  0  1  0  0  0  0  0999 V2000
  189.5130  176.7980  138.0570 C   0  0  0  0  0  0  0  0  0  0  0  0
  188.8050  177.5350  140.2620 C   0  0  0  0  0  0  0  0  0  0  0  0
  189.2810  176.7630  136.6730 C   0  0  0  0  0  3  0  0  0  0  0  0
  188.5770  177.4370  138.8890 C   0  0  0  0  0  0  0  0  0  0  0  0
  187.8710  178.1670  141.0950 C   0  0  0  0  0  0  0  0  0  0  0  0
  191.3050  176.2410  144.2850 C   0  0  0  0  0  2  0  0  0  0  0  0
  189.9710  176.9870  140.8080 C   0  0  0  0  0  0  0  0  0  0  0  0
  189.3890  177.8130  144.4950 C   0  0  0  0  0  2  0  0  0  0  0  0
  189.2510  177.7670  142.9930 C   0  0  0  0  0  0  0  0  0  0  0  0
  187.4150  178.0160  138.3530 C   0  0  0  0  0  0  0  0  0  0  0  0
  188.1080  178.2530  142.4310 N   0  0  0  0  0  0  0  0  0  0  0  0
  186.5230  178.6280  139.1800 N   0  0  0  0  0  0  0  0  0  0  0  0
  187.2020  177.9870  136.9740 C   0  0  0  0  0  3  0  0  0  0  0  0
  190.8630  176.3620  139.9920 N   0  0  0  0  0  0  0  0  0  0  0  0
  190.6760  176.2590  138.6440 C   0  0  0  0  0  0  0  0  0  0  0  0
  190.1960  177.0800  142.1880 C   0  0  0  0  0  0  0  0  0  0  0  0
  186.7100  178.6990  140.5300 C   0  0  0  0  0  0  0  0  0  0  0  0
  188.1350  177.3620  136.1360 C   0  0  0  0  0  3  0  0  0  0  0  0
  190.8060  177.5020  144.9690 C   0  0  0  0  0  2  0  0  0  0  0  0
  191.4550  176.5060  142.7890 C   0  0  0  0  0  2  0  0  0  0  0  0
  193.6110  175.7320  136.3120 N   0  0  0  0  0  0  0  0  0  0  0  0
  192.7140  173.0410  136.3490 C   0  0  0  0  0  1  0  0  0  0  0  0
  194.4370  176.7530  135.6850 C   0  0  0  0  0  1  0  0  0  0  0  0
  189.9910  173.6440  137.2180 C   0  0  0  0  0  1  0  0  0  0  0  0
  191.6600  175.4650  137.8230 C   0  0  1  0  0  3  0  0  0  0  0  0
  192.8160  175.1480  135.2290 C   0  0  0  0  0  2  0  0  0  0  0  0
  190.9650  174.6910  136.6890 C   0  0  1  0  0  3  0  0  0  0  0  0
  192.7100  176.4260  137.2370 C   0  0  1  0  0  3  0  0  0  0  0  0
  193.4430  176.9840  138.2770 F   0  0  0  0  0  0  0  0  0  0  0  0
  191.9200  174.1030  135.7310 N   0  0  0  0  0  0  0  0  0  0  0  0
  185.7580  179.3080  141.3510 O   0  0  0  0  0  0  0  0  0  0  0  0
  184.5540  178.6500  141.7090 C   0  0  0  0  0  1  0  0  0  0  0  0
  1 15  2  0  0  0  0
  1  4  1  0  0  0  0
  2  7  1  0  0  0  0
  2  5  1  0  0  0  0
  3  1  1  0  0  0  0
  4  2  2  0  0  0  0
  5 11  2  0  0  0  0
  6 19  1  0  0  0  0
  7 16  1  0  0  0  0
  8 19  1  0  0  0  0
  9  8  1  0  0  0  0
 10  4  1  0  0  0  0
 10 12  1  0  0  0  0
 11  9  1  0  0  0  0
 12 17  2  0  0  0  0
 13 10  2  0  0  0  0
 14  7  2  0  0  0  0
 15 14  1  0  0  0  0
 16 20  1  0  0  0  0
 16  9  2  0  0  0  0
 17  5  1  0  0  0  0
 17 31  1  0  0  0  0
 18  3  2  0  0  0  0
 18 13  1  0  0  0  0
 20  6  1  0  0  0  0
 21 28  1  0  0  0  0
 23 21  1  0  0  0  0
 25 15  1  6  0  0  0
 26 30  1  0  0  0  0
 26 21  1  0  0  0  0
 27 24  1  1  0  0  0
 27 25  1  0  0  0  0
 28 25  1  0  0  0  0
 28 29  1  1  0  0  0
 30 22  1  0  0  0  0
 30 27  1  0  0  0  0
 31 32  1  0  0  0  0
M  END
>  <MODEL>
5

>  <REMARK>
 VINA RESULT:      -7.5      3.870      7.439
  Name = 
  2 active torsions:
  status: ('A' for Active; 'I' for Inactive)
    1  A    between atoms: O_13  and  C_29
    2  A    between atoms: C_16  and  C_27
                            x       y       z     vdW  Elec       q    Type
                         _______ _______ _______ _____ _____    ______ ____

>  <TORSDO>
F 2

$$$$
=
 OpenBabel11052414273D

 32 37  0  0  1  0  0  0  0  0999 V2000
  186.9230  177.9960  144.1180 C   0  0  0  0  0  0  0  0  0  0  0  0
  187.0730  178.1960  141.7020 C   0  0  0  0  0  0  0  0  0  0  0  0
  186.1710  178.1690  145.2910 C   0  0  0  0  0  3  0  0  0  0  0  0
  186.3730  178.4020  142.8900 C   0  0  0  0  0  0  0  0  0  0  0  0
  186.5300  178.6050  140.4750 C   0  0  0  0  0  0  0  0  0  0  0  0
  191.2050  177.0280  139.3190 C   0  0  0  0  0  2  0  0  0  0  0  0
  188.3320  177.5850  141.7390 C   0  0  0  0  0  0  0  0  0  0  0  0
  189.1860  177.6690  138.0140 C   0  0  0  0  0  2  0  0  0  0  0  0
  188.4360  177.7690  139.3190 C   0  0  0  0  0  0  0  0  0  0  0  0
  185.1000  178.9930  142.8310 C   0  0  0  0  0  0  0  0  0  0  0  0
  187.2260  178.3970  139.3260 N   0  0  0  0  0  0  0  0  0  0  0  0
  184.5900  179.3790  141.6300 N   0  0  0  0  0  0  0  0  0  0  0  0
  184.3560  179.1460  144.0030 C   0  0  0  0  0  3  0  0  0  0  0  0
  188.8560  177.2060  142.9370 N   0  0  0  0  0  0  0  0  0  0  0  0
  188.1930  177.3830  144.1160 C   0  0  0  0  0  0  0  0  0  0  0  0
  189.0370  177.3840  140.5460 C   0  0  0  0  0  0  0  0  0  0  0  0
  185.2770  179.2210  140.4620 C   0  0  0  0  0  0  0  0  0  0  0  0
  184.8920  178.7340  145.2300 C   0  0  0  0  0  3  0  0  0  0  0  0
  190.3740  176.7130  138.0860 C   0  0  0  0  0  2  0  0  0  0  0  0
  190.3890  176.7130  140.5690 C   0  0  0  0  0  2  0  0  0  0  0  0
  188.5960  177.1320  147.8720 N   0  0  0  0  0  0  0  0  0  0  0  0
  191.2200  176.2970  147.1870 C   0  0  0  0  0  1  0  0  0  0  0  0
  187.6750  177.6050  148.8950 C   0  0  0  0  0  1  0  0  0  0  0  0
  191.2210  177.4730  144.5130 C   0  0  0  0  0  1  0  0  0  0  0  0
  188.8830  177.0280  145.4090 C   0  0  1  0  0  3  0  0  0  0  0  0
  189.7540  178.0260  147.9400 C   0  0  0  0  0  2  0  0  0  0  0  0
  190.1950  177.8110  145.5890 C   0  0  1  0  0  3  0  0  0  0  0  0
  187.9300  177.3220  146.5800 C   0  0  1  0  0  3  0  0  0  0  0  0
  186.8290  176.4790  146.4910 F   0  0  0  0  0  0  0  0  0  0  0  0
  190.7650  177.6660  146.9420 N   0  0  0  0  0  0  0  0  0  0  0  0
  184.7350  179.6580  139.2510 O   0  0  0  0  0  0  0  0  0  0  0  0
  183.3340  179.7480  139.0510 C   0  0  0  0  0  1  0  0  0  0  0  0
  1  3  2  0  0  0  0
  2  7  1  0  0  0  0
  2  4  1  0  0  0  0
  4  1  1  0  0  0  0
  5  2  2  0  0  0  0
  6 20  1  0  0  0  0
  7 14  1  0  0  0  0
  8 19  1  0  0  0  0
  8  9  1  0  0  0  0
  9 11  2  0  0  0  0
  9 16  1  0  0  0  0
 10  4  2  0  0  0  0
 10 13  1  0  0  0  0
 11  5  1  0  0  0  0
 12 10  1  0  0  0  0
 13 18  2  0  0  0  0
 14 15  2  0  0  0  0
 15  1  1  0  0  0  0
 16 20  1  0  0  0  0
 16  7  2  0  0  0  0
 17  5  1  0  0  0  0
 17 12  2  0  0  0  0
 18  3  1  0  0  0  0
 19  6  1  0  0  0  0
 21 26  1  0  0  0  0
 21 23  1  0  0  0  0
 25 15  1  6  0  0  0
 25 27  1  0  0  0  0
 25 28  1  0  0  0  0
 27 24  1  6  0  0  0
 27 30  1  0  0  0  0
 28 29  1  1  0  0  0
 28 21  1  0  0  0  0
 30 22  1  0  0  0  0
 30 26  1  0  0  0  0
 31 17  1  0  0  0  0
 32 31  1  0  0  0  0
M  END
>  <MODEL>
6

>  <REMARK>
 VINA RESULT:      -7.5      3.141      8.352
  Name = 
  2 active torsions:
  status: ('A' for Active; 'I' for Inactive)
    1  A    between atoms: O_13  and  C_29
    2  A    between atoms: C_16  and  C_27
                            x       y       z     vdW  Elec       q    Type
                         _______ _______ _______ _____ _____    ______ ____

>  <TORSDO>
F 2

$$$$
=
 OpenBabel11052414273D

 32 37  0  0  1  0  0  0  0  0999 V2000
  183.3890  178.7510  141.5960 C   0  0  0  0  0  0  0  0  0  0  0  0
  185.7770  178.3780  141.8430 C   0  0  0  0  0  0  0  0  0  0  0  0
  182.1410  178.9760  142.2010 C   0  0  0  0  0  3  0  0  0  0  0  0
  184.5160  178.5510  142.4130 C   0  0  0  0  0  0  0  0  0  0  0  0
  186.9020  178.1730  142.6540 C   0  0  0  0  0  0  0  0  0  0  0  0
  188.6260  177.5570  137.9290 C   0  0  0  0  0  2  0  0  0  0  0  0
  185.9140  178.3990  140.4500 C   0  0  0  0  0  0  0  0  0  0  0  0
  189.6730  177.7630  140.1760 C   0  0  0  0  0  2  0  0  0  0  0  0
  188.3030  178.0600  140.7320 C   0  0  0  0  0  0  0  0  0  0  0  0
  184.4000  178.5530  143.8130 C   0  0  0  0  0  0  0  0  0  0  0  0
  188.1250  178.0050  142.0820 N   0  0  0  0  0  0  0  0  0  0  0  0
  185.5060  178.3560  144.5810 N   0  0  0  0  0  0  0  0  0  0  0  0
  183.1570  178.7920  144.4020 C   0  0  0  0  0  3  0  0  0  0  0  0
  184.8120  178.5840  139.6720 N   0  0  0  0  0  0  0  0  0  0  0  0
  183.5660  178.7670  140.1980 C   0  0  0  0  0  0  0  0  0  0  0  0
  187.1800  178.2190  139.8780 C   0  0  0  0  0  0  0  0  0  0  0  0
  186.7410  178.1460  144.0410 C   0  0  0  0  0  0  0  0  0  0  0  0
  182.0310  179.0040  143.5960 C   0  0  0  0  0  3  0  0  0  0  0  0
  189.8040  178.1280  138.6990 C   0  0  0  0  0  2  0  0  0  0  0  0
  187.3450  178.2540  138.3790 C   0  0  0  0  0  2  0  0  0  0  0  0
  180.6340  180.4430  138.4880 N   0  0  0  0  0  0  0  0  0  0  0  0
  180.1390  177.8200  137.5270 C   0  0  0  0  0  1  0  0  0  0  0  0
  180.1450  181.7980  138.6960 C   0  0  0  0  0  1  0  0  0  0  0  0
  181.6700  176.4460  139.6010 C   0  0  0  0  0  1  0  0  0  0  0  0
  182.3830  178.8650  139.2680 C   0  0  1  0  0  3  0  0  0  0  0  0
  179.6200  179.5640  139.0750 C   0  0  0  0  0  2  0  0  0  0  0  0
  181.2500  177.9100  139.6850 C   0  0  1  0  0  3  0  0  0  0  0  0
  181.8720  180.3160  139.2630 C   0  0  1  0  0  3  0  0  0  0  0  0
  182.8510  181.1390  138.7220 F   0  0  0  0  0  0  0  0  0  0  0  0
  179.9970  178.1550  138.9440 N   0  0  0  0  0  0  0  0  0  0  0  0
  187.8490  177.9160  144.8600 O   0  0  0  0  0  0  0  0  0  0  0  0
  187.7040  177.5030  146.2100 C   0  0  0  0  0  1  0  0  0  0  0  0
  1  3  2  0  0  0  0
  1  4  1  0  0  0  0
  2  4  1  0  0  0  0
  2  5  1  0  0  0  0
  3 18  1  0  0  0  0
  4 10  2  0  0  0  0
  5 17  1  0  0  0  0
  6 20  1  0  0  0  0
  6 19  1  0  0  0  0
  7  2  2  0  0  0  0
  8  9  1  0  0  0  0
  9 11  1  0  0  0  0
 10 13  1  0  0  0  0
 10 12  1  0  0  0  0
 11  5  2  0  0  0  0
 14 15  2  0  0  0  0
 14  7  1  0  0  0  0
 15  1  1  0  0  0  0
 16  7  1  0  0  0  0
 16  9  2  0  0  0  0
 17 12  2  0  0  0  0
 17 31  1  0  0  0  0
 18 13  2  0  0  0  0
 19  8  1  0  0  0  0
 20 16  1  0  0  0  0
 21 23  1  0  0  0  0
 21 26  1  0  0  0  0
 21 28  1  0  0  0  0
 22 30  1  0  0  0  0
 25 27  1  0  0  0  0
 25 15  1  1  0  0  0
 27 24  1  6  0  0  0
 28 29  1  6  0  0  0
 28 25  1  0  0  0  0
 30 26  1  0  0  0  0
 30 27  1  0  0  0  0
 31 32  1  0  0  0  0
M  END
>  <MODEL>
7

>  <REMARK>
 VINA RESULT:      -7.3      1.445      4.402
  Name = 
  2 active torsions:
  status: ('A' for Active; 'I' for Inactive)
    1  A    between atoms: O_13  and  C_29
    2  A    between atoms: C_16  and  C_27
                            x       y       z     vdW  Elec       q    Type
                         _______ _______ _______ _____ _____    ______ ____

>  <TORSDO>
F 2

$$$$
=
 OpenBabel11052414273D

 32 37  0  0  1  0  0  0  0  0999 V2000
  189.3260  177.4770  138.5680 C   0  0  0  0  0  0  0  0  0  0  0  0
  188.6720  177.7330  140.8940 C   0  0  0  0  0  0  0  0  0  0  0  0
  189.0220  177.6600  137.2090 C   0  0  0  0  0  3  0  0  0  0  0  0
  188.3790  177.8530  139.5360 C   0  0  0  0  0  0  0  0  0  0  0  0
  187.7270  178.1030  141.8620 C   0  0  0  0  0  0  0  0  0  0  0  0
  191.5120  176.0350  144.5220 C   0  0  0  0  0  2  0  0  0  0  0  0
  189.9160  177.2290  141.2890 C   0  0  0  0  0  0  0  0  0  0  0  0
  189.4610  177.3260  145.0830 C   0  0  0  0  0  2  0  0  0  0  0  0
  189.2440  177.5300  143.6040 C   0  0  0  0  0  0  0  0  0  0  0  0
  187.1350  178.3870  139.1570 C   0  0  0  0  0  0  0  0  0  0  0  0
  188.0290  177.9790  143.1820 N   0  0  0  0  0  0  0  0  0  0  0  0
  186.2350  178.7430  140.1120 N   0  0  0  0  0  0  0  0  0  0  0  0
  186.8500  178.5770  137.8030 C   0  0  0  0  0  3  0  0  0  0  0  0
  190.8200  176.8580  140.3410 N   0  0  0  0  0  0  0  0  0  0  0  0
  190.5680  176.9730  139.0040 C   0  0  0  0  0  0  0  0  0  0  0  0
  190.2080  177.1020  142.6530 C   0  0  0  0  0  0  0  0  0  0  0  0
  186.4890  178.5960  141.4450 C   0  0  0  0  0  0  0  0  0  0  0  0
  187.7930  178.2150  136.8330 C   0  0  0  0  0  3  0  0  0  0  0  0
  190.9270  177.0940  145.4410 C   0  0  0  0  0  2  0  0  0  0  0  0
  191.5500  176.5730  143.0940 C   0  0  0  0  0  2  0  0  0  0  0  0
  192.1470  174.4350  136.6810 N   0  0  0  0  0  0  0  0  0  0  0  0
  194.2240  176.3630  136.5470 C   0  0  0  0  0  1  0  0  0  0  0  0
  191.7060  173.0710  136.4290 C   0  0  0  0  0  1  0  0  0  0  0  0
  193.5300  177.7260  139.0360 C   0  0  0  0  0  1  0  0  0  0  0  0
  191.5810  176.4480  138.0180 C   0  0  1  0  0  3  0  0  0  0  0  0
  193.3910  174.3130  137.4450 C   0  0  0  0  0  2  0  0  0  0  0  0
  192.9870  176.3580  138.6370 C   0  0  1  0  0  3  0  0  0  0  0  0
  191.1300  175.0590  137.5330 C   0  0  1  0  0  3  0  0  0  0  0  0
  189.9410  175.1900  136.8260 F   0  0  0  0  0  0  0  0  0  0  0  0
  193.9410  175.6280  137.7800 N   0  0  0  0  0  0  0  0  0  0  0  0
  185.5280  178.9430  142.3970 O   0  0  0  0  0  0  0  0  0  0  0  0
  184.2160  178.4050  142.3630 C   0  0  0  0  0  1  0  0  0  0  0  0
  1 15  2  0  0  0  0
  1  4  1  0  0  0  0
  2  7  1  0  0  0  0
  2  5  1  0  0  0  0
  3  1  1  0  0  0  0
  4  2  2  0  0  0  0
  5 11  2  0  0  0  0
  6 19  1  0  0  0  0
  7 16  1  0  0  0  0
  8 19  1  0  0  0  0
  9  8  1  0  0  0  0
 10  4  1  0  0  0  0
 10 12  1  0  0  0  0
 11  9  1  0  0  0  0
 12 17  2  0  0  0  0
 13 10  2  0  0  0  0
 14  7  2  0  0  0  0
 15 14  1  0  0  0  0
 16 20  1  0  0  0  0
 16  9  2  0  0  0  0
 17  5  1  0  0  0  0
 17 31  1  0  0  0  0
 18  3  2  0  0  0  0
 18 13  1  0  0  0  0
 20  6  1  0  0  0  0
 21 26  1  0  0  0  0
 21 28  1  0  0  0  0
 22 30  1  0  0  0  0
 23 21  1  0  0  0  0
 25 27  1  0  0  0  0
 25 15  1  1  0  0  0
 26 30  1  0  0  0  0
 27 24  1  6  0  0  0
 28 29  1  6  0  0  0
 28 25  1  0  0  0  0
 30 27  1  0  0  0  0
 32 31  1  0  0  0  0
M  END
>  <MODEL>
8

>  <REMARK>
 VINA RESULT:      -7.2      3.512      7.496
  Name = 
  2 active torsions:
  status: ('A' for Active; 'I' for Inactive)
    1  A    between atoms: O_13  and  C_29
    2  A    between atoms: C_16  and  C_27
                            x       y       z     vdW  Elec       q    Type
                         _______ _______ _______ _____ _____    ______ ____

>  <TORSDO>
F 2

$$$$
=
 OpenBabel11052414273D

 32 37  0  0  1  0  0  0  0  0999 V2000
  182.9340  178.3930  142.0990 C   0  0  0  0  0  0  0  0  0  0  0  0
  184.9330  178.3320  143.4780 C   0  0  0  0  0  0  0  0  0  0  0  0
  181.5520  178.6190  142.0000 C   0  0  0  0  0  3  0  0  0  0  0  0
  183.5540  178.4990  143.3560 C   0  0  0  0  0  0  0  0  0  0  0  0
  185.5540  178.4330  144.7320 C   0  0  0  0  0  0  0  0  0  0  0  0
  189.2560  176.9440  141.6090 C   0  0  0  0  0  2  0  0  0  0  0  0
  185.6980  178.0520  142.3410 C   0  0  0  0  0  0  0  0  0  0  0  0
  189.1500  177.7600  143.9570 C   0  0  0  0  0  2  0  0  0  0  0  0
  187.6820  178.0320  143.7430 C   0  0  0  0  0  0  0  0  0  0  0  0
  182.8050  178.8070  144.5040 C   0  0  0  0  0  0  0  0  0  0  0  0
  186.9000  178.2660  144.8340 N   0  0  0  0  0  0  0  0  0  0  0  0
  183.4280  178.9030  145.7100 N   0  0  0  0  0  0  0  0  0  0  0  0
  181.4340  179.0430  144.3900 C   0  0  0  0  0  3  0  0  0  0  0  0
  185.0830  177.9410  141.1310 N   0  0  0  0  0  0  0  0  0  0  0  0
  183.7380  178.1100  140.9750 C   0  0  0  0  0  0  0  0  0  0  0  0
  187.0830  177.8780  142.4660 C   0  0  0  0  0  0  0  0  0  0  0  0
  184.7700  178.7040  145.8550 C   0  0  0  0  0  0  0  0  0  0  0  0
  180.8100  178.9500  143.1390 C   0  0  0  0  0  3  0  0  0  0  0  0
  189.9530  177.7920  142.6590 C   0  0  0  0  0  2  0  0  0  0  0  0
  187.9220  177.5890  141.2460 C   0  0  0  0  0  2  0  0  0  0  0  0
  182.7330  176.0960  137.9310 N   0  0  0  0  0  0  0  0  0  0  0  0
  182.0090  178.6430  136.9130 C   0  0  0  0  0  1  0  0  0  0  0  0
  183.0070  174.6910  137.6700 C   0  0  0  0  0  1  0  0  0  0  0  0
  183.6970  180.1850  138.7320 C   0  0  0  0  0  1  0  0  0  0  0  0
  183.1190  177.8720  139.6210 C   0  0  1  0  0  3  0  0  0  0  0  0
  183.5760  176.8430  136.9950 C   0  0  0  0  0  2  0  0  0  0  0  0
  183.8290  178.6810  138.5200 C   0  0  1  0  0  3  0  0  0  0  0  0
  183.1890  176.3700  139.2970 C   0  0  1  0  0  3  0  0  0  0  0  0
  182.3990  175.6740  140.2040 F   0  0  0  0  0  0  0  0  0  0  0  0
  183.4060  178.2880  137.1620 N   0  0  0  0  0  0  0  0  0  0  0  0
  185.3710  178.7800  147.1140 O   0  0  0  0  0  0  0  0  0  0  0  0
  186.1490  179.9010  147.5020 C   0  0  0  0  0  1  0  0  0  0  0  0
  1  4  1  0  0  0  0
  2  5  1  0  0  0  0
  3  1  2  0  0  0  0
  3 18  1  0  0  0  0
  4  2  1  0  0  0  0
  4 10  2  0  0  0  0
  5 11  2  0  0  0  0
  5 17  1  0  0  0  0
  6 19  1  0  0  0  0
  7 16  1  0  0  0  0
  7  2  2  0  0  0  0
  9  8  1  0  0  0  0
  9 11  1  0  0  0  0
 10 12  1  0  0  0  0
 12 17  2  0  0  0  0
 13 10  1  0  0  0  0
 14  7  1  0  0  0  0
 15 14  2  0  0  0  0
 15  1  1  0  0  0  0
 16  9  2  0  0  0  0
 17 31  1  0  0  0  0
 18 13  2  0  0  0  0
 19  8  1  0  0  0  0
 20  6  1  0  0  0  0
 20 16  1  0  0  0  0
 21 28  1  0  0  0  0
 22 30  1  0  0  0  0
 23 21  1  0  0  0  0
 25 15  1  1  0  0  0
 26 30  1  0  0  0  0
 26 21  1  0  0  0  0
 27 24  1  1  0  0  0
 27 25  1  0  0  0  0
 28 25  1  0  0  0  0
 28 29  1  1  0  0  0
 30 27  1  0  0  0  0
 31 32  1  0  0  0  0
M  END
>  <MODEL>
9

>  <REMARK>
 VINA RESULT:      -7.1      2.410      5.107
  Name = 
  2 active torsions:
  status: ('A' for Active; 'I' for Inactive)
    1  A    between atoms: O_13  and  C_29
    2  A    between atoms: C_16  and  C_27
                            x       y       z     vdW  Elec       q    Type
                         _______ _______ _______ _____ _____    ______ ____

>  <TORSDO>
F 2

$$$$
