=
 OpenBabel11052414383D

 32 37  0  0  1  0  0  0  0  0999 V2000
  189.8630  177.2260  141.7860 C   0  0  1  0  0  3  0  0  0  0  0  0
  187.7720  178.4250  142.7300 C   0  0  2  0  0  3  0  0  0  0  0  0
  191.3550  177.0510  142.0750 C   0  0  0  0  0  2  0  0  0  0  0  0
  189.2330  177.9910  142.9640 C   0  0  1  0  0  3  0  0  0  0  0  0
  186.7480  177.8500  143.7060 C   0  0  2  0  0  3  0  0  0  0  0  0
  183.8640  178.9540  139.7040 C   0  0  0  0  0  2  0  0  0  0  0  0
  187.2830  178.1650  141.3140 C   0  0  2  0  0  3  0  0  0  0  0  0
  183.5930  178.8230  142.1930 C   0  0  0  0  0  2  0  0  0  0  0  0
  185.0010  178.2470  142.3150 C   0  0  2  0  0  3  0  0  0  0  0  0
  189.4680  177.2480  144.2610 C   0  0  0  0  0  0  0  0  0  0  0  0
  185.5470  178.5790  143.5740 O   0  0  0  0  0  0  0  0  0  0  0  0
  188.5830  177.2410  145.2150 N   0  0  0  0  0  0  0  0  0  0  0  0
  190.7080  176.4700  144.4110 C   0  0  0  0  0  3  0  0  0  0  0  0
  188.3130  178.7220  140.3410 C   0  0  0  0  0  2  0  0  0  0  0  0
  189.6160  177.9010  140.4070 C   0  0  2  0  0  3  0  0  0  0  0  0
  185.8900  178.7730  141.1610 C   0  0  2  0  0  3  0  0  0  0  0  0
  187.3100  177.9580  145.1240 C   0  0  2  0  0  3  0  0  0  0  0  0
  191.5730  176.3560  143.3960 C   0  0  0  0  0  3  0  0  0  0  0  0
  182.9870  178.4420  140.8450 C   0  0  0  0  0  2  0  0  0  0  0  0
  185.2740  178.3790  139.8200 C   0  0  0  0  0  2  0  0  0  0  0  0
  188.4730  176.0400  137.1450 C   0  0  2  0  0  3  0  0  0  0  0  0
  187.2170  175.4900  137.4030 O   0  0  0  0  0  1  0  0  0  0  0  0
  189.6020  176.8960  139.2470 C   0  0  2  0  0  3  0  0  0  0  0  0
  189.5440  174.9460  137.2690 C   0  0  0  0  0  2  0  0  0  0  0  0
  190.9670  176.2980  138.8630 C   0  0  0  0  0  2  0  0  0  0  0  0
  188.7020  177.2580  138.0560 C   0  0  1  0  0  3  0  0  0  0  0  0
  189.2770  178.3920  137.2250 C   0  0  0  0  0  1  0  0  0  0  0  0
  190.9230  175.5480  137.5250 C   0  0  1  0  0  3  0  0  0  0  0  0
  193.1340  174.7430  137.6720 O   0  0  0  0  0  0  0  0  0  0  0  0
  191.9560  174.4720  137.5060 C   0  0  0  0  0  3  0  0  0  0  0  0
  186.3310  177.4400  146.1760 C   0  0  0  0  0  2  0  0  0  0  0  0
  185.6760  178.5690  146.9560 C   0  0  0  0  0  1  0  0  0  0  0  0
  1  3  1  1  0  0  0
  1  4  1  0  0  0  0
  2  4  1  0  0  0  0
  2  5  1  0  0  0  0
  3 18  1  0  0  0  0
  4 10  1  0  0  0  0
  5 17  1  0  0  0  0
  6 20  1  0  0  0  0
  6 19  1  0  0  0  0
  7  2  1  0  0  0  0
  8  9  1  0  0  0  0
  9 11  1  0  0  0  0
 10 13  1  0  0  0  0
 10 12  2  0  0  0  0
 11  5  1  0  0  0  0
 14 15  1  0  0  0  0
 14  7  1  0  0  0  0
 15  1  1  0  0  0  0
 16  7  1  0  0  0  0
 16  9  1  0  0  0  0
 17 12  1  0  0  0  0
 17 31  1  0  0  0  0
 18 13  2  0  0  0  0
 19  8  1  0  0  0  0
 20 16  1  0  0  0  0
 21 24  1  0  0  0  0
 21 22  1  0  0  0  0
 21 26  1  0  0  0  0
 23 15  1  0  0  0  0
 24 28  1  0  0  0  0
 25 23  1  0  0  0  0
 26 23  1  0  0  0  0
 27 26  1  0  0  0  0
 28 25  1  0  0  0  0
 30 28  1  0  0  0  0
 30 29  2  0  0  0  0
 31 32  1  0  0  0  0
M  END
>  <MODEL>
1

>  <REMARK>
 VINA RESULT:      -9.3      0.000      0.000
  Name = 
  3 active torsions:
  status: ('A' for Active; 'I' for Inactive)
    1  A    between atoms: C_13  and  C_29
    2  A    between atoms: C_15  and  C_26
    3  A    between atoms: C_16  and  C_27
                            x       y       z     vdW  Elec       q    Type
                         _______ _______ _______ _____ _____    ______ ____

>  <TORSDO>
F 3

$$$$
=
 OpenBabel11052414383D

 32 37  0  0  1  0  0  0  0  0999 V2000
  186.2370  178.0140  139.3970 C   0  0  1  0  0  3  0  0  0  0  0  0
  187.5030  178.4350  141.6140 C   0  0  2  0  0  3  0  0  0  0  0  0
  186.4270  178.1480  137.8840 C   0  0  0  0  0  2  0  0  0  0  0  0
  187.5810  178.3290  140.0780 C   0  0  1  0  0  3  0  0  0  0  0  0
  188.3540  177.4320  142.3890 C   0  0  2  0  0  3  0  0  0  0  0  0
  184.8150  178.6380  145.7910 C   0  0  0  0  0  2  0  0  0  0  0  0
  186.0830  178.3750  142.1540 C   0  0  2  0  0  3  0  0  0  0  0  0
  187.2150  177.9100  145.8030 C   0  0  0  0  0  2  0  0  0  0  0  0
  187.1520  177.6820  144.2970 C   0  0  2  0  0  3  0  0  0  0  0  0
  188.6620  177.4040  139.5660 C   0  0  0  0  0  0  0  0  0  0  0  0
  188.4350  177.8570  143.7320 O   0  0  0  0  0  0  0  0  0  0  0  0
  189.6190  176.9760  140.3370 N   0  0  0  0  0  0  0  0  0  0  0  0
  188.5870  176.9370  138.1710 C   0  0  0  0  0  3  0  0  0  0  0  0
  185.2300  179.3630  141.3690 C   0  0  0  0  0  2  0  0  0  0  0  0
  185.0600  178.8890  139.9120 C   0  0  2  0  0  3  0  0  0  0  0  0
  186.1220  178.6450  143.6570 C   0  0  2  0  0  3  0  0  0  0  0  0
  189.7380  177.3640  141.7440 C   0  0  2  0  0  3  0  0  0  0  0  0
  187.5440  177.2590  137.3960 C   0  0  0  0  0  3  0  0  0  0  0  0
  185.8370  177.6940  146.4230 C   0  0  0  0  0  2  0  0  0  0  0  0
  184.7470  178.4120  144.2830 C   0  0  0  0  0  2  0  0  0  0  0  0
  181.1970  178.2520  140.1860 C   0  0  2  0  0  3  0  0  0  0  0  0
  180.8700  178.2790  141.5410 O   0  0  0  0  0  1  0  0  0  0  0  0
  183.7010  178.1860  139.7980 C   0  0  2  0  0  3  0  0  0  0  0  0
  181.2990  176.7940  139.7140 C   0  0  0  0  0  2  0  0  0  0  0  0
  183.5910  177.1150  138.6980 C   0  0  0  0  0  2  0  0  0  0  0  0
  182.4650  179.0870  139.9420 C   0  0  1  0  0  3  0  0  0  0  0  0
  182.2490  179.9650  138.7210 C   0  0  0  0  0  1  0  0  0  0  0  0
  182.1420  176.6790  138.4470 C   0  0  1  0  0  3  0  0  0  0  0  0
  183.1340  174.6160  137.8800 O   0  0  0  0  0  0  0  0  0  0  0  0
  182.1090  175.2750  137.9430 C   0  0  0  0  0  3  0  0  0  0  0  0
  190.6750  176.4090  142.4820 C   0  0  0  0  0  2  0  0  0  0  0  0
  191.6940  177.1480  143.3340 C   0  0  0  0  0  1  0  0  0  0  0  0
  1  3  1  6  0  0  0
  1 15  1  0  0  0  0
  1  4  1  0  0  0  0
  2  7  1  0  0  0  0
  2  5  1  0  0  0  0
  4  2  1  0  0  0  0
  5 11  1  0  0  0  0
  6 19  1  0  0  0  0
  7 16  1  0  0  0  0
  8 19  1  0  0  0  0
  9  8  1  0  0  0  0
 10  4  1  0  0  0  0
 10 12  2  0  0  0  0
 11  9  1  0  0  0  0
 12 17  1  0  0  0  0
 13 10  1  0  0  0  0
 14  7  1  0  0  0  0
 15 14  1  0  0  0  0
 16 20  1  0  0  0  0
 16  9  1  0  0  0  0
 17  5  1  0  0  0  0
 17 31  1  0  0  0  0
 18  3  1  0  0  0  0
 18 13  2  0  0  0  0
 20  6  1  0  0  0  0
 21 22  1  0  0  0  0
 23 15  1  0  0  0  0
 23 26  1  0  0  0  0
 24 21  1  0  0  0  0
 25 23  1  0  0  0  0
 26 21  1  0  0  0  0
 27 26  1  0  0  0  0
 28 25  1  0  0  0  0
 28 24  1  0  0  0  0
 29 30  2  0  0  0  0
 30 28  1  0  0  0  0
 31 32  1  0  0  0  0
M  END
>  <MODEL>
2

>  <REMARK>
 VINA RESULT:      -8.9      2.436      6.096
  Name = 
  3 active torsions:
  status: ('A' for Active; 'I' for Inactive)
    1  A    between atoms: C_13  and  C_29
    2  A    between atoms: C_15  and  C_26
    3  A    between atoms: C_16  and  C_27
                            x       y       z     vdW  Elec       q    Type
                         _______ _______ _______ _____ _____    ______ ____

>  <TORSDO>
F 3

$$$$
=
 OpenBabel11052414383D

 32 37  0  0  1  0  0  0  0  0999 V2000
  188.6790  177.1810  138.3730 C   0  0  1  0  0  3  0  0  0  0  0  0
  188.3450  178.3200  140.6730 C   0  0  2  0  0  3  0  0  0  0  0  0
  189.7320  177.0270  137.2740 C   0  0  0  0  0  2  0  0  0  0  0  0
  189.3330  177.9070  139.5630 C   0  0  1  0  0  3  0  0  0  0  0  0
  188.6010  177.7040  142.0460 C   0  0  2  0  0  3  0  0  0  0  0  0
  183.6840  178.8470  142.3200 C   0  0  0  0  0  2  0  0  0  0  0  0
  186.8880  178.0830  140.3070 C   0  0  2  0  0  3  0  0  0  0  0  0
  185.6240  178.6530  143.8970 C   0  0  0  0  0  2  0  0  0  0  0  0
  186.4860  178.1000  142.7670 C   0  0  2  0  0  3  0  0  0  0  0  0
  190.5410  177.1390  140.0510 C   0  0  0  0  0  0  0  0  0  0  0  0
  187.8430  178.4130  143.0020 O   0  0  0  0  0  0  0  0  0  0  0  0
  190.8600  177.0930  141.3120 N   0  0  0  0  0  0  0  0  0  0  0  0
  191.3350  176.3800  139.0700 C   0  0  0  0  0  3  0  0  0  0  0  0
  186.6380  178.6810  138.9280 C   0  0  0  0  0  2  0  0  0  0  0  0
  187.3940  177.8820  137.8490 C   0  0  2  0  0  3  0  0  0  0  0  0
  186.0080  178.6690  141.4080 C   0  0  2  0  0  3  0  0  0  0  0  0
  190.0970  177.7890  142.3490 C   0  0  2  0  0  3  0  0  0  0  0  0
  190.9530  176.3050  137.7900 C   0  0  0  0  0  3  0  0  0  0  0  0
  184.1600  178.2930  143.6620 C   0  0  0  0  0  2  0  0  0  0  0  0
  184.5430  178.2950  141.1850 C   0  0  0  0  0  2  0  0  0  0  0  0
  184.6170  176.4830  135.4540 C   0  0  2  0  0  3  0  0  0  0  0  0
  183.4590  177.2230  135.6880 O   0  0  0  0  0  1  0  0  0  0  0  0
  186.4040  176.9050  137.2020 C   0  0  2  0  0  3  0  0  0  0  0  0
  184.5190  175.1360  136.1860 C   0  0  0  0  0  2  0  0  0  0  0  0
  186.7560  175.4120  137.3300 C   0  0  0  0  0  2  0  0  0  0  0  0
  185.8530  177.3190  135.8290 C   0  0  1  0  0  3  0  0  0  0  0  0
  186.8900  177.1840  134.7280 C   0  0  0  0  0  1  0  0  0  0  0  0
  185.8990  174.5270  136.4150 C   0  0  1  0  0  3  0  0  0  0  0  0
  185.0750  172.9880  138.0000 O   0  0  0  0  0  0  0  0  0  0  0  0
  185.7590  173.1630  137.0050 C   0  0  0  0  0  3  0  0  0  0  0  0
  190.4420  177.2290  143.7290 C   0  0  0  0  0  2  0  0  0  0  0  0
  191.3710  176.0280  143.6450 C   0  0  0  0  0  1  0  0  0  0  0  0
  1  3  1  6  0  0  0
  1  4  1  0  0  0  0
  2  5  1  0  0  0  0
  3 18  1  0  0  0  0
  4 10  1  0  0  0  0
  4  2  1  0  0  0  0
  5 17  1  0  0  0  0
  5 11  1  0  0  0  0
  6 19  1  0  0  0  0
  7  2  1  0  0  0  0
  7 16  1  0  0  0  0
  9 11  1  0  0  0  0
  9  8  1  0  0  0  0
 10 12  2  0  0  0  0
 12 17  1  0  0  0  0
 13 10  1  0  0  0  0
 14  7  1  0  0  0  0
 15  1  1  0  0  0  0
 15 14  1  0  0  0  0
 16  9  1  0  0  0  0
 17 31  1  0  0  0  0
 18 13  2  0  0  0  0
 19  8  1  0  0  0  0
 20 16  1  0  0  0  0
 20  6  1  0  0  0  0
 21 22  1  0  0  0  0
 21 26  1  0  0  0  0
 21 24  1  0  0  0  0
 23 25  1  0  0  0  0
 23 15  1  0  0  0  0
 24 28  1  0  0  0  0
 26 23  1  0  0  0  0
 27 26  1  0  0  0  0
 28 30  1  0  0  0  0
 28 25  1  0  0  0  0
 30 29  2  0  0  0  0
 32 31  1  0  0  0  0
M  END
>  <MODEL>
3

>  <REMARK>
 VINA RESULT:      -8.0      2.290      4.194
  Name = 
  3 active torsions:
  status: ('A' for Active; 'I' for Inactive)
    1  A    between atoms: C_13  and  C_29
    2  A    between atoms: C_15  and  C_26
    3  A    between atoms: C_16  and  C_27
                            x       y       z     vdW  Elec       q    Type
                         _______ _______ _______ _____ _____    ______ ____

>  <TORSDO>
F 3

$$$$
=
 OpenBabel11052414383D

 32 37  0  0  1  0  0  0  0  0999 V2000
  185.7420  177.7710  138.4450 C   0  0  1  0  0  3  0  0  0  0  0  0
  186.4400  178.7730  140.7270 C   0  0  2  0  0  3  0  0  0  0  0  0
  186.2150  177.7030  136.9920 C   0  0  0  0  0  2  0  0  0  0  0  0
  186.8480  178.4460  139.2770 C   0  0  1  0  0  3  0  0  0  0  0  0
  187.2650  178.0890  141.8150 C   0  0  2  0  0  3  0  0  0  0  0  0
  182.9540  179.0950  144.2570 C   0  0  0  0  0  2  0  0  0  0  0  0
  184.9680  178.5210  141.0140 C   0  0  2  0  0  3  0  0  0  0  0  0
  185.3860  178.8620  144.8250 C   0  0  0  0  0  2  0  0  0  0  0  0
  185.6720  178.3930  143.4020 C   0  0  2  0  0  3  0  0  0  0  0  0
  188.1470  177.6820  139.1470 C   0  0  0  0  0  0  0  0  0  0  0  0
  186.9980  178.7260  143.0460 O   0  0  0  0  0  0  0  0  0  0  0  0
  188.9810  177.5750  140.1400 N   0  0  0  0  0  0  0  0  0  0  0  0
  188.4370  176.9970  137.8760 C   0  0  0  0  0  3  0  0  0  0  0  0
  184.1470  179.1880  139.9180 C   0  0  0  0  0  2  0  0  0  0  0  0
  184.3590  178.4680  138.5720 C   0  0  2  0  0  3  0  0  0  0  0  0
  184.6530  179.0240  142.4210 C   0  0  2  0  0  3  0  0  0  0  0  0
  188.7440  178.1940  141.4460 C   0  0  2  0  0  3  0  0  0  0  0  0
  187.5380  176.9840  136.8840 C   0  0  0  0  0  3  0  0  0  0  0  0
  183.9630  178.4800  145.2250 C   0  0  0  0  0  2  0  0  0  0  0  0
  183.2350  178.6270  142.8310 C   0  0  0  0  0  2  0  0  0  0  0  0
  180.6830  177.1660  138.1310 C   0  0  2  0  0  3  0  0  0  0  0  0
  179.9970  177.4600  139.3100 O   0  0  0  0  0  1  0  0  0  0  0  0
  183.1840  177.5040  138.3590 C   0  0  2  0  0  3  0  0  0  0  0  0
  181.0960  175.6860  138.1370 C   0  0  0  0  0  2  0  0  0  0  0  0
  183.5180  176.1960  137.6210 C   0  0  0  0  0  2  0  0  0  0  0  0
  181.8510  178.1500  137.9520 C   0  0  1  0  0  3  0  0  0  0  0  0
  181.8650  178.6390  136.5140 C   0  0  0  0  0  1  0  0  0  0  0  0
  182.2600  175.4320  137.1830 C   0  0  1  0  0  3  0  0  0  0  0  0
  183.5940  173.5230  137.5500 O   0  0  0  0  0  0  0  0  0  0  0  0
  182.5470  173.9700  137.1130 C   0  0  0  0  0  3  0  0  0  0  0  0
  189.6520  177.5670  142.5040 C   0  0  0  0  0  2  0  0  0  0  0  0
  189.2330  176.1470  142.8500 C   0  0  0  0  0  1  0  0  0  0  0  0
  1  3  1  6  0  0  0
  1 15  1  0  0  0  0
  1  4  1  0  0  0  0
  2  7  1  0  0  0  0
  2  5  1  0  0  0  0
  4  2  1  0  0  0  0
  5 11  1  0  0  0  0
  6 19  1  0  0  0  0
  7 16  1  0  0  0  0
  8 19  1  0  0  0  0
  9  8  1  0  0  0  0
 10  4  1  0  0  0  0
 10 12  2  0  0  0  0
 11  9  1  0  0  0  0
 12 17  1  0  0  0  0
 13 10  1  0  0  0  0
 14  7  1  0  0  0  0
 15 14  1  0  0  0  0
 16 20  1  0  0  0  0
 16  9  1  0  0  0  0
 17  5  1  0  0  0  0
 17 31  1  0  0  0  0
 18  3  1  0  0  0  0
 18 13  2  0  0  0  0
 20  6  1  0  0  0  0
 21 24  1  0  0  0  0
 21 22  1  0  0  0  0
 23 15  1  0  0  0  0
 25 23  1  0  0  0  0
 26 21  1  0  0  0  0
 26 23  1  0  0  0  0
 27 26  1  0  0  0  0
 28 25  1  0  0  0  0
 28 24  1  0  0  0  0
 30 28  1  0  0  0  0
 30 29  2  0  0  0  0
 31 32  1  0  0  0  0
M  END
>  <MODEL>
4

>  <REMARK>
 VINA RESULT:      -7.6      2.874      5.939
  Name = 
  3 active torsions:
  status: ('A' for Active; 'I' for Inactive)
    1  A    between atoms: C_13  and  C_29
    2  A    between atoms: C_15  and  C_26
    3  A    between atoms: C_16  and  C_27
                            x       y       z     vdW  Elec       q    Type
                         _______ _______ _______ _____ _____    ______ ____

>  <TORSDO>
F 3

$$$$
=
 OpenBabel11052414383D

 32 37  0  0  1  0  0  0  0  0999 V2000
  186.7000  178.4180  141.2070 C   0  0  1  0  0  3  0  0  0  0  0  0
  187.4450  178.0360  138.7580 C   0  0  2  0  0  3  0  0  0  0  0  0
  185.6910  179.2310  142.0210 C   0  0  0  0  0  2  0  0  0  0  0  0
  186.3890  178.6280  139.7130 C   0  0  1  0  0  3  0  0  0  0  0  0
  186.9390  176.9560  137.8040 C   0  0  2  0  0  3  0  0  0  0  0  0
  191.8840  175.9290  138.0080 C   0  0  0  0  0  2  0  0  0  0  0  0
  188.6770  177.5040  139.4710 C   0  0  2  0  0  3  0  0  0  0  0  0
  190.0170  175.6900  136.3510 C   0  0  0  0  0  2  0  0  0  0  0  0
  189.0180  176.1370  137.4140 C   0  0  2  0  0  3  0  0  0  0  0  0
  184.9650  178.2190  139.4080 C   0  0  0  0  0  0  0  0  0  0  0  0
  187.9090  176.7580  136.7990 O   0  0  0  0  0  0  0  0  0  0  0  0
  184.6390  177.6660  138.2760 N   0  0  0  0  0  0  0  0  0  0  0  0
  183.9410  178.4040  140.4500 C   0  0  0  0  0  3  0  0  0  0  0  0
  189.1700  178.5750  140.4360 C   0  0  0  0  0  2  0  0  0  0  0  0
  188.1660  178.7640  141.5890 C   0  0  2  0  0  3  0  0  0  0  0  0
  189.7070  177.0910  138.4210 C   0  0  2  0  0  3  0  0  0  0  0  0
  185.6080  177.4140  137.2070 C   0  0  2  0  0  3  0  0  0  0  0  0
  184.2750  178.8500  141.6670 C   0  0  0  0  0  3  0  0  0  0  0  0
  191.2050  174.9930  137.0100 C   0  0  0  0  0  2  0  0  0  0  0  0
  190.8890  176.3780  139.0760 C   0  0  0  0  0  2  0  0  0  0  0  0
  190.5720  176.7090  143.9120 C   0  0  2  0  0  3  0  0  0  0  0  0
  190.9240  175.5520  143.2180 O   0  0  0  0  0  1  0  0  0  0  0  0
  188.6720  177.9620  142.7960 C   0  0  2  0  0  3  0  0  0  0  0  0
  189.4720  176.3780  144.9320 C   0  0  0  0  0  2  0  0  0  0  0  0
  187.9460  178.2250  144.1270 C   0  0  0  0  0  2  0  0  0  0  0  0
  190.1970  177.8170  142.9140 C   0  0  1  0  0  3  0  0  0  0  0  0
  190.8660  179.1120  143.3420 C   0  0  0  0  0  1  0  0  0  0  0  0
  188.6890  177.6260  145.3280 C   0  0  1  0  0  3  0  0  0  0  0  0
  186.5300  177.5030  146.2670 O   0  0  0  0  0  0  0  0  0  0  0  0
  187.7220  177.2940  146.4150 C   0  0  0  0  0  3  0  0  0  0  0  0
  185.0440  176.4080  136.2050 C   0  0  0  0  0  2  0  0  0  0  0  0
  184.6580  175.0940  136.8670 C   0  0  0  0  0  1  0  0  0  0  0  0
  1 15  1  0  0  0  0
  1  3  1  1  0  0  0
  2  7  1  0  0  0  0
  2  4  1  0  0  0  0
  4  1  1  0  0  0  0
  5  2  1  0  0  0  0
  6 20  1  0  0  0  0
  7 14  1  0  0  0  0
  8 19  1  0  0  0  0
  8  9  1  0  0  0  0
  9 16  1  0  0  0  0
 10  4  1  0  0  0  0
 10 13  1  0  0  0  0
 11  9  1  0  0  0  0
 11  5  1  0  0  0  0
 12 10  2  0  0  0  0
 13 18  2  0  0  0  0
 14 15  1  0  0  0  0
 15 23  1  0  0  0  0
 16 20  1  0  0  0  0
 16  7  1  0  0  0  0
 17  5  1  0  0  0  0
 17 12  1  0  0  0  0
 18  3  1  0  0  0  0
 19  6  1  0  0  0  0
 21 24  1  0  0  0  0
 22 21  1  0  0  0  0
 23 26  1  0  0  0  0
 23 25  1  0  0  0  0
 24 28  1  0  0  0  0
 25 28  1  0  0  0  0
 26 27  1  0  0  0  0
 26 21  1  0  0  0  0
 28 30  1  0  0  0  0
 29 30  2  0  0  0  0
 31 32  1  0  0  0  0
 31 17  1  0  0  0  0
M  END
>  <MODEL>
5

>  <REMARK>
 VINA RESULT:      -7.6      2.364      7.174
  Name = 
  3 active torsions:
  status: ('A' for Active; 'I' for Inactive)
    1  A    between atoms: C_13  and  C_29
    2  A    between atoms: C_15  and  C_26
    3  A    between atoms: C_16  and  C_27
                            x       y       z     vdW  Elec       q    Type
                         _______ _______ _______ _____ _____    ______ ____

>  <TORSDO>
F 3

$$$$
=
 OpenBabel11052414383D

 32 37  0  0  1  0  0  0  0  0999 V2000
  188.2360  177.4310  139.0390 C   0  0  1  0  0  3  0  0  0  0  0  0
  187.1280  178.5570  141.0890 C   0  0  2  0  0  3  0  0  0  0  0  0
  189.5930  177.3230  138.3410 C   0  0  0  0  0  2  0  0  0  0  0  0
  188.4380  178.1880  140.3640 C   0  0  1  0  0  3  0  0  0  0  0  0
  186.9530  177.9550  142.4820 C   0  0  2  0  0  3  0  0  0  0  0  0
  182.1670  178.8720  141.1360 C   0  0  0  0  0  2  0  0  0  0  0  0
  185.8800  178.2530  140.2770 C   0  0  2  0  0  3  0  0  0  0  0  0
  183.5000  178.7700  143.2580 C   0  0  0  0  0  2  0  0  0  0  0  0
  184.7040  178.2550  142.4750 C   0  0  2  0  0  3  0  0  0  0  0  0
  189.4560  177.4760  141.2280 C   0  0  0  0  0  0  0  0  0  0  0  0
  185.8980  178.6300  143.1310 O   0  0  0  0  0  0  0  0  0  0  0  0
  189.3520  177.4470  142.5250 N   0  0  0  0  0  0  0  0  0  0  0  0
  190.5550  176.7530  140.5690 C   0  0  0  0  0  3  0  0  0  0  0  0
  186.0630  178.8370  138.8820 C   0  0  0  0  0  2  0  0  0  0  0  0
  187.1600  178.0720  138.1170 C   0  0  2  0  0  3  0  0  0  0  0  0
  184.6660  178.8000  141.0260 C   0  0  2  0  0  3  0  0  0  0  0  0
  188.2660  178.1090  143.2500 C   0  0  2  0  0  3  0  0  0  0  0  0
  190.6110  176.6590  139.2350 C   0  0  0  0  0  3  0  0  0  0  0  0
  182.2070  178.3430  142.5690 C   0  0  0  0  0  2  0  0  0  0  0  0
  183.3700  178.3590  140.3480 C   0  0  0  0  0  2  0  0  0  0  0  0
  185.2230  176.5770  135.0490 C   0  0  2  0  0  3  0  0  0  0  0  0
  183.9640  177.1780  135.0230 O   0  0  0  0  0  1  0  0  0  0  0  0
  186.4750  177.0490  137.2010 C   0  0  2  0  0  3  0  0  0  0  0  0
  185.1070  175.1770  135.6710 C   0  0  0  0  0  2  0  0  0  0  0  0
  186.9560  175.5940  137.3440 C   0  0  0  0  0  2  0  0  0  0  0  0
  186.2260  177.5040  135.7550 C   0  0  1  0  0  3  0  0  0  0  0  0
  187.5070  177.5550  134.9400 C   0  0  0  0  0  1  0  0  0  0  0  0
  186.4530  174.6960  136.2060 C   0  0  1  0  0  3  0  0  0  0  0  0
  186.9900  172.4010  136.1570 O   0  0  0  0  0  0  0  0  0  0  0  0
  186.3340  173.2860  136.6800 C   0  0  0  0  0  3  0  0  0  0  0  0
  188.1700  177.5670  144.6750 C   0  0  0  0  0  2  0  0  0  0  0  0
  189.5370  177.4180  145.3260 C   0  0  0  0  0  1  0  0  0  0  0  0
  1  3  1  6  0  0  0
  1  4  1  0  0  0  0
  2  5  1  0  0  0  0
  3 18  1  0  0  0  0
  4  2  1  0  0  0  0
  4 10  1  0  0  0  0
  5 11  1  0  0  0  0
  5 17  1  0  0  0  0
  6 19  1  0  0  0  0
  7 16  1  0  0  0  0
  7  2  1  0  0  0  0
  9 11  1  0  0  0  0
  9  8  1  0  0  0  0
 10 12  2  0  0  0  0
 12 17  1  0  0  0  0
 13 10  1  0  0  0  0
 14  7  1  0  0  0  0
 15 14  1  0  0  0  0
 15  1  1  0  0  0  0
 16  9  1  0  0  0  0
 17 31  1  0  0  0  0
 18 13  2  0  0  0  0
 19  8  1  0  0  0  0
 20 16  1  0  0  0  0
 20  6  1  0  0  0  0
 21 24  1  0  0  0  0
 21 26  1  0  0  0  0
 22 21  1  0  0  0  0
 23 25  1  0  0  0  0
 23 15  1  0  0  0  0
 24 28  1  0  0  0  0
 26 23  1  0  0  0  0
 27 26  1  0  0  0  0
 28 30  1  0  0  0  0
 28 25  1  0  0  0  0
 29 30  2  0  0  0  0
 31 32  1  0  0  0  0
M  END
>  <MODEL>
6

>  <REMARK>
 VINA RESULT:      -7.5      2.074      3.389
  Name = 
  3 active torsions:
  status: ('A' for Active; 'I' for Inactive)
    1  A    between atoms: C_13  and  C_29
    2  A    between atoms: C_15  and  C_26
    3  A    between atoms: C_16  and  C_27
                            x       y       z     vdW  Elec       q    Type
                         _______ _______ _______ _____ _____    ______ ____

>  <TORSDO>
F 3

$$$$
=
 OpenBabel11052414383D

 32 37  0  0  1  0  0  0  0  0999 V2000
  188.5670  177.4840  140.4470 C   0  0  1  0  0  3  0  0  0  0  0  0
  186.6570  178.6400  141.7560 C   0  0  2  0  0  3  0  0  0  0  0  0
  190.0950  177.4090  140.4090 C   0  0  0  0  0  2  0  0  0  0  0  0
  188.1600  178.3010  141.6870 C   0  0  1  0  0  3  0  0  0  0  0  0
  185.9120  178.0870  142.9690 C   0  0  2  0  0  3  0  0  0  0  0  0
  182.1570  178.7370  139.6470 C   0  0  0  0  0  2  0  0  0  0  0  0
  185.8900  178.2490  140.5040 C   0  0  2  0  0  3  0  0  0  0  0  0
  182.4450  178.7790  142.1380 C   0  0  0  0  0  2  0  0  0  0  0  0
  183.8800  178.2870  141.9790 C   0  0  2  0  0  3  0  0  0  0  0  0
  188.7210  177.6700  142.9430 C   0  0  0  0  0  0  0  0  0  0  0  0
  184.6640  178.7410  143.0620 O   0  0  0  0  0  0  0  0  0  0  0  0
  188.0680  177.6880  144.0680 N   0  0  0  0  0  0  0  0  0  0  0  0
  190.0140  176.9710  142.8610 C   0  0  0  0  0  3  0  0  0  0  0  0
  186.6440  178.7850  139.2940 C   0  0  0  0  0  2  0  0  0  0  0  0
  187.9810  178.0400  139.1190 C   0  0  2  0  0  3  0  0  0  0  0  0
  184.4590  178.7710  140.6260 C   0  0  2  0  0  3  0  0  0  0  0  0
  186.7600  178.3300  144.2170 C   0  0  2  0  0  3  0  0  0  0  0  0
  190.6420  176.8270  141.6890 C   0  0  0  0  0  3  0  0  0  0  0  0
  181.5860  178.2680  140.9830 C   0  0  0  0  0  2  0  0  0  0  0  0
  183.5940  178.2470  139.4820 C   0  0  0  0  0  2  0  0  0  0  0  0
  186.3260  175.9480  136.2400 C   0  0  2  0  0  3  0  0  0  0  0  0
  185.1350  175.4240  136.7430 O   0  0  0  0  0  1  0  0  0  0  0  0
  187.7830  176.9520  138.0550 C   0  0  2  0  0  3  0  0  0  0  0  0
  187.4120  174.8610  136.2640 C   0  0  0  0  0  2  0  0  0  0  0  0
  189.0690  176.3200  137.4950 C   0  0  0  0  0  2  0  0  0  0  0  0
  186.6940  177.2290  137.0070 C   0  0  1  0  0  3  0  0  0  0  0  0
  187.1150  178.2950  136.0100 C   0  0  0  0  0  1  0  0  0  0  0  0
  188.8100  175.4730  136.2420 C   0  0  1  0  0  3  0  0  0  0  0  0
  190.0260  173.6270  137.0610 O   0  0  0  0  0  0  0  0  0  0  0  0
  189.8330  174.3930  136.1310 C   0  0  0  0  0  3  0  0  0  0  0  0
  186.0700  177.8420  145.4900 C   0  0  0  0  0  2  0  0  0  0  0  0
  186.9570  177.9910  146.7170 C   0  0  0  0  0  1  0  0  0  0  0  0
  1  3  1  6  0  0  0
  1  4  1  0  0  0  0
  2  5  1  0  0  0  0
  3 18  1  0  0  0  0
  4  2  1  0  0  0  0
  4 10  1  0  0  0  0
  5 11  1  0  0  0  0
  5 17  1  0  0  0  0
  6 19  1  0  0  0  0
  7 16  1  0  0  0  0
  7  2  1  0  0  0  0
  9  8  1  0  0  0  0
  9 11  1  0  0  0  0
 10 12  2  0  0  0  0
 12 17  1  0  0  0  0
 13 10  1  0  0  0  0
 14  7  1  0  0  0  0
 15 14  1  0  0  0  0
 15  1  1  0  0  0  0
 16  9  1  0  0  0  0
 17 31  1  0  0  0  0
 18 13  2  0  0  0  0
 19  8  1  0  0  0  0
 20  6  1  0  0  0  0
 20 16  1  0  0  0  0
 21 24  1  0  0  0  0
 21 22  1  0  0  0  0
 21 26  1  0  0  0  0
 23 15  1  0  0  0  0
 25 23  1  0  0  0  0
 26 23  1  0  0  0  0
 27 26  1  0  0  0  0
 28 24  1  0  0  0  0
 28 25  1  0  0  0  0
 30 28  1  0  0  0  0
 30 29  2  0  0  0  0
 31 32  1  0  0  0  0
M  END
>  <MODEL>
7

>  <REMARK>
 VINA RESULT:      -7.5      1.459      1.902
  Name = 
  3 active torsions:
  status: ('A' for Active; 'I' for Inactive)
    1  A    between atoms: C_13  and  C_29
    2  A    between atoms: C_15  and  C_26
    3  A    between atoms: C_16  and  C_27
                            x       y       z     vdW  Elec       q    Type
                         _______ _______ _______ _____ _____    ______ ____

>  <TORSDO>
F 3

$$$$
=
 OpenBabel11052414383D

 32 37  0  0  1  0  0  0  0  0999 V2000
  185.7950  178.0140  138.4550 C   0  0  1  0  0  3  0  0  0  0  0  0
  185.8090  178.9350  140.8740 C   0  0  2  0  0  3  0  0  0  0  0  0
  186.6770  177.9630  137.2060 C   0  0  0  0  0  2  0  0  0  0  0  0
  186.6220  178.6280  139.6000 C   0  0  1  0  0  3  0  0  0  0  0  0
  186.2530  178.1950  142.1340 C   0  0  2  0  0  3  0  0  0  0  0  0
  181.4410  179.3030  143.2190 C   0  0  0  0  0  2  0  0  0  0  0  0
  184.3130  178.7320  140.7020 C   0  0  2  0  0  3  0  0  0  0  0  0
  183.5850  178.9660  144.4740 C   0  0  0  0  0  2  0  0  0  0  0  0
  184.2690  178.5210  143.1850 C   0  0  2  0  0  3  0  0  0  0  0  0
  187.8780  177.8180  139.8360 C   0  0  0  0  0  0  0  0  0  0  0  0
  185.6500  178.8120  143.2500 O   0  0  0  0  0  0  0  0  0  0  0  0
  188.3750  177.6570  141.0280 N   0  0  0  0  0  0  0  0  0  0  0  0
  188.5130  177.1540  138.6850 C   0  0  0  0  0  3  0  0  0  0  0  0
  183.8740  179.4550  139.4350 C   0  0  0  0  0  2  0  0  0  0  0  0
  184.4570  178.7600  138.1890 C   0  0  2  0  0  3  0  0  0  0  0  0
  183.6070  179.2130  141.9680 C   0  0  2  0  0  3  0  0  0  0  0  0
  187.7780  178.2530  142.2240 C   0  0  2  0  0  3  0  0  0  0  0  0
  187.9500  177.1990  137.4720 C   0  0  0  0  0  3  0  0  0  0  0  0
  182.0980  178.6280  144.4210 C   0  0  0  0  0  2  0  0  0  0  0  0
  182.1210  178.8600  141.9250 C   0  0  0  0  0  2  0  0  0  0  0  0
  182.5690  175.4940  137.1070 C   0  0  2  0  0  3  0  0  0  0  0  0
  183.3710  174.8450  136.1690 O   0  0  0  0  0  1  0  0  0  0  0  0
  183.3720  177.8460  137.6040 C   0  0  2  0  0  3  0  0  0  0  0  0
  181.4500  176.2570  136.3810 C   0  0  0  0  0  2  0  0  0  0  0  0
  181.9510  178.4350  137.5620 C   0  0  0  0  0  2  0  0  0  0  0  0
  183.4430  176.3690  138.0210 C   0  0  1  0  0  3  0  0  0  0  0  0
  183.0120  176.1580  139.4620 C   0  0  0  0  0  1  0  0  0  0  0  0
  180.8850  177.3750  137.2530 C   0  0  1  0  0  3  0  0  0  0  0  0
  179.8370  179.0790  136.0060 O   0  0  0  0  0  0  0  0  0  0  0  0
  179.7170  178.0060  136.5730 C   0  0  0  0  0  3  0  0  0  0  0  0
  188.3100  177.5680  143.4820 C   0  0  0  0  0  2  0  0  0  0  0  0
  188.7300  176.1300  143.2180 C   0  0  0  0  0  1  0  0  0  0  0  0
  1  3  1  6  0  0  0
  1  4  1  0  0  0  0
  2  5  1  0  0  0  0
  3 18  1  0  0  0  0
  4 10  1  0  0  0  0
  4  2  1  0  0  0  0
  5 17  1  0  0  0  0
  5 11  1  0  0  0  0
  6 19  1  0  0  0  0
  7  2  1  0  0  0  0
  7 16  1  0  0  0  0
  9 11  1  0  0  0  0
  9  8  1  0  0  0  0
 10 12  2  0  0  0  0
 12 17  1  0  0  0  0
 13 10  1  0  0  0  0
 14  7  1  0  0  0  0
 15  1  1  0  0  0  0
 15 14  1  0  0  0  0
 16  9  1  0  0  0  0
 17 31  1  0  0  0  0
 18 13  2  0  0  0  0
 19  8  1  0  0  0  0
 20 16  1  0  0  0  0
 20  6  1  0  0  0  0
 21 26  1  0  0  0  0
 22 21  1  0  0  0  0
 23 26  1  0  0  0  0
 23 15  1  0  0  0  0
 24 21  1  0  0  0  0
 24 28  1  0  0  0  0
 25 23  1  0  0  0  0
 26 27  1  0  0  0  0
 28 25  1  0  0  0  0
 29 30  2  0  0  0  0
 30 28  1  0  0  0  0
 32 31  1  0  0  0  0
M  END
>  <MODEL>
8

>  <REMARK>
 VINA RESULT:      -7.4      2.901      6.112
  Name = 
  3 active torsions:
  status: ('A' for Active; 'I' for Inactive)
    1  A    between atoms: C_13  and  C_29
    2  A    between atoms: C_15  and  C_26
    3  A    between atoms: C_16  and  C_27
                            x       y       z     vdW  Elec       q    Type
                         _______ _______ _______ _____ _____    ______ ____

>  <TORSDO>
F 3

$$$$
=
 OpenBabel11052414383D

 32 37  0  0  1  0  0  0  0  0999 V2000
  190.0740  177.5200  140.4660 C   0  0  1  0  0  3  0  0  0  0  0  0
  189.0910  178.4370  142.6780 C   0  0  2  0  0  3  0  0  0  0  0  0
  191.3820  177.5070  139.6710 C   0  0  0  0  0  2  0  0  0  0  0  0
  190.3540  178.1650  141.8360 C   0  0  1  0  0  3  0  0  0  0  0  0
  189.0250  177.7130  144.0210 C   0  0  2  0  0  3  0  0  0  0  0  0
  184.1410  178.6230  143.0890 C   0  0  0  0  0  2  0  0  0  0  0  0
  187.7950  178.1730  141.9290 C   0  0  2  0  0  3  0  0  0  0  0  0
  185.6200  178.3720  145.0980 C   0  0  0  0  0  2  0  0  0  0  0  0
  186.7760  177.9570  144.1940 C   0  0  2  0  0  3  0  0  0  0  0  0
  191.4430  177.4070  142.5640 C   0  0  0  0  0  0  0  0  0  0  0  0
  188.0050  178.3040  144.7970 O   0  0  0  0  0  0  0  0  0  0  0  0
  191.4310  177.2640  143.8570 N   0  0  0  0  0  0  0  0  0  0  0  0
  192.5080  176.7710  141.7700 C   0  0  0  0  0  3  0  0  0  0  0  0
  187.8700  178.8800  140.5810 C   0  0  0  0  0  2  0  0  0  0  0  0
  188.9250  178.2110  139.6800 C   0  0  2  0  0  3  0  0  0  0  0  0
  186.6270  178.6230  142.8030 C   0  0  2  0  0  3  0  0  0  0  0  0
  190.3850  177.8330  144.7090 C   0  0  2  0  0  3  0  0  0  0  0  0
  192.4720  176.7940  140.4320 C   0  0  0  0  0  3  0  0  0  0  0  0
  184.2900  177.9740  144.4640 C   0  0  0  0  0  2  0  0  0  0  0  0
  185.2950  178.2100  142.1790 C   0  0  0  0  0  2  0  0  0  0  0  0
  186.2840  176.8560  137.1120 C   0  0  2  0  0  3  0  0  0  0  0  0
  185.0410  176.8890  137.7430 O   0  0  0  0  0  1  0  0  0  0  0  0
  188.1980  177.2540  138.7260 C   0  0  2  0  0  3  0  0  0  0  0  0
  186.8340  175.4220  137.1450 C   0  0  0  0  0  2  0  0  0  0  0  0
  189.0550  176.1260  138.1260 C   0  0  0  0  0  2  0  0  0  0  0  0
  187.2140  177.9060  137.7420 C   0  0  1  0  0  3  0  0  0  0  0  0
  187.9270  178.6600  136.6330 C   0  0  0  0  0  1  0  0  0  0  0  0
  188.3500  175.4050  136.9690 C   0  0  1  0  0  3  0  0  0  0  0  0
  189.8950  173.6710  137.3770 O   0  0  0  0  0  0  0  0  0  0  0  0
  188.8330  173.9970  136.8720 C   0  0  0  0  0  3  0  0  0  0  0  0
  190.4000  177.1690  146.0850 C   0  0  0  0  0  2  0  0  0  0  0  0
  191.6450  176.3230  146.3010 C   0  0  0  0  0  1  0  0  0  0  0  0
  1  3  1  6  0  0  0
  1  4  1  0  0  0  0
  2  5  1  0  0  0  0
  3 18  1  0  0  0  0
  4 10  1  0  0  0  0
  4  2  1  0  0  0  0
  5 17  1  0  0  0  0
  5 11  1  0  0  0  0
  6 19  1  0  0  0  0
  7  2  1  0  0  0  0
  7 16  1  0  0  0  0
  9 11  1  0  0  0  0
  9  8  1  0  0  0  0
 10 12  2  0  0  0  0
 12 17  1  0  0  0  0
 13 10  1  0  0  0  0
 14  7  1  0  0  0  0
 15  1  1  0  0  0  0
 15 14  1  0  0  0  0
 16  9  1  0  0  0  0
 17 31  1  0  0  0  0
 18 13  2  0  0  0  0
 19  8  1  0  0  0  0
 20 16  1  0  0  0  0
 20  6  1  0  0  0  0
 21 24  1  0  0  0  0
 21 26  1  0  0  0  0
 21 22  1  0  0  0  0
 23 15  1  0  0  0  0
 25 23  1  0  0  0  0
 26 23  1  0  0  0  0
 27 26  1  0  0  0  0
 28 24  1  0  0  0  0
 28 25  1  0  0  0  0
 30 28  1  0  0  0  0
 30 29  2  0  0  0  0
 31 32  1  0  0  0  0
M  END
>  <MODEL>
9

>  <REMARK>
 VINA RESULT:      -7.3      1.761      2.778
  Name = 
  3 active torsions:
  status: ('A' for Active; 'I' for Inactive)
    1  A    between atoms: C_13  and  C_29
    2  A    between atoms: C_15  and  C_26
    3  A    between atoms: C_16  and  C_27
                            x       y       z     vdW  Elec       q    Type
                         _______ _______ _______ _____ _____    ______ ____

>  <TORSDO>
F 3

$$$$
