=
 OpenBabel11052414063D

 34 41  0  0  1  0  0  0  0  0999 V2000
  189.3790  177.1230  145.8340 C   0  0  0  0  0  0  0  0  0  0  0  0
  190.9700  176.7870  144.0120 C   0  0  0  0  0  0  0  0  0  0  0  0
  188.6410  177.4220  143.5450 C   0  0  0  0  0  0  0  0  0  0  0  0
  187.9550  177.7500  141.2820 C   0  0  0  0  0  0  0  0  0  0  0  0
  191.6660  176.4970  146.2700 C   0  0  0  0  0  3  0  0  0  0  0  0
  191.9260  176.4910  144.9330 N   0  0  0  0  0  0  0  0  0  0  0  0
  190.1630  177.1320  141.6560 C   0  0  0  0  0  0  0  0  0  0  0  0
  189.6610  177.1100  144.4560 C   0  0  0  0  0  0  0  0  0  0  0  0
  188.5980  177.6820  139.7280 S   0  0  0  0  0  0  0  0  0  0  0  0
  190.3890  176.8140  146.7440 C   0  0  0  0  0  3  0  0  0  0  0  0
  187.3330  177.7470  143.9750 C   0  0  0  0  0  0  0  0  0  0  0  0
  188.0940  177.4520  146.2780 C   0  0  0  0  0  3  0  0  0  0  0  0
  191.3320  176.7640  142.5340 C   0  0  0  0  0  3  0  0  0  0  0  0
  186.6910  178.0650  141.6590 N   0  0  0  0  0  0  0  0  0  0  0  0
  186.3380  178.0670  142.9870 C   0  0  0  0  0  0  0  0  0  0  0  0
  190.1480  177.2290  140.2670 C   0  0  0  0  0  0  0  0  0  0  0  0
  188.9210  177.4270  142.1970 C   0  0  1  0  0  3  0  0  0  0  0  0
  187.0820  177.7630  145.3570 C   0  0  0  0  0  3  0  0  0  0  0  0
  182.6130  178.8180  142.6940 C   0  0  0  0  0  0  0  0  0  0  0  0
  182.3010  179.1340  144.0170 C   0  0  0  0  0  3  0  0  0  0  0  0
  184.9300  178.4120  143.3250 C   0  0  0  0  0  0  0  0  0  0  0  0
  183.2950  179.0990  144.9950 C   0  0  0  0  0  3  0  0  0  0  0  0
  183.9210  178.4630  142.3510 C   0  0  0  0  0  3  0  0  0  0  0  0
  184.6030  178.7440  144.6500 C   0  0  0  0  0  3  0  0  0  0  0  0
  181.6500  178.8560  141.7420 F   0  0  0  0  0  0  0  0  0  0  0  0
  191.8750  176.7340  138.0780 C   0  0  1  0  0  3  0  0  0  0  0  0
  192.7300  176.9040  139.1510 C   0  0  2  0  0  3  0  0  0  0  0  0
  193.0030  175.7400  138.2250 C   0  0  2  0  0  3  0  0  0  0  0  0
  191.2630  176.9910  139.4160 N   0  0  0  0  0  0  0  0  0  0  0  0
  194.1290  176.0910  137.2620 C   0  0  1  0  0  3  0  0  0  0  0  0
  195.1990  175.2200  137.4790 O   0  0  0  0  0  1  0  0  0  0  0  0
  193.5370  174.5290  135.3920 C   0  0  0  0  0  1  0  0  0  0  0  0
  193.6550  175.9840  135.8110 C   0  0  0  0  0  3  0  0  0  0  0  0
  194.6280  176.6740  134.8690 C   0  0  0  0  0  1  0  0  0  0  0  0
  1 12  1  0  0  0  0
  1 10  2  0  0  0  0
  2  8  1  0  0  0  0
  2  6  1  0  0  0  0
  3 11  1  0  0  0  0
  3  8  2  0  0  0  0
  4 14  2  0  0  0  0
  5 10  1  0  0  0  0
  6  5  2  0  0  0  0
  7 17  1  0  0  0  0
  7 13  1  0  0  0  0
  8  1  1  0  0  0  0
  9 16  1  0  0  0  0
  9  4  1  0  0  0  0
 11 18  1  0  0  0  0
 13  2  2  0  0  0  0
 14 15  1  0  0  0  0
 15 21  1  0  0  0  0
 15 11  2  0  0  0  0
 16  7  2  0  0  0  0
 17  4  1  1  0  0  0
 17  3  1  0  0  0  0
 18 12  2  0  0  0  0
 19 20  1  0  0  0  0
 20 22  2  0  0  0  0
 21 24  2  0  0  0  0
 23 19  2  0  0  0  0
 23 21  1  0  0  0  0
 24 22  1  0  0  0  0
 25 19  1  0  0  0  0
 26 28  1  0  0  0  0
 26 27  1  0  0  0  0
 26 29  1  1  0  0  0
 27 29  1  1  0  0  0
 28 30  1  6  0  0  0
 28 27  1  0  0  0  0
 29 16  1  0  0  0  0
 30 31  1  6  0  0  0
 32 33  1  0  0  0  0
 33 30  1  0  0  0  0
 34 33  1  0  0  0  0
M  END
>  <MODEL>
1

>  <REMARK>
 VINA RESULT:     -10.9      0.000      0.000
  Name = 
  4 active torsions:
  status: ('A' for Active; 'I' for Inactive)
    1  A    between atoms: C_12  and  C_28
    2  A    between atoms: C_13  and  C_14
    3  A    between atoms: C_14  and  C_22
    4  A    between atoms: N_17  and  C_29
                            x       y       z     vdW  Elec       q    Type
                         _______ _______ _______ _____ _____    ______ ____

>  <TORSDO>
F 4

$$$$
=
 OpenBabel11052414063D

 34 41  0  0  1  0  0  0  0  0999 V2000
  186.3500  178.0480  146.2250 C   0  0  0  0  0  0  0  0  0  0  0  0
  188.2820  177.7290  144.7670 C   0  0  0  0  0  0  0  0  0  0  0  0
  186.0570  178.1750  143.8240 C   0  0  0  0  0  0  0  0  0  0  0  0
  185.8070  178.3350  141.4540 C   0  0  0  0  0  0  0  0  0  0  0  0
  188.5410  177.6060  147.1300 C   0  0  0  0  0  3  0  0  0  0  0  0
  189.0560  177.5470  145.8710 N   0  0  0  0  0  0  0  0  0  0  0  0
  187.9330  177.8930  142.2830 C   0  0  0  0  0  0  0  0  0  0  0  0
  186.8960  177.9820  144.9300 C   0  0  0  0  0  0  0  0  0  0  0  0
  186.7450  178.2300  140.0600 S   0  0  0  0  0  0  0  0  0  0  0  0
  187.1790  177.8580  147.3300 C   0  0  0  0  0  3  0  0  0  0  0  0
  184.6730  178.4300  143.9730 C   0  0  0  0  0  0  0  0  0  0  0  0
  184.9860  178.3100  146.3930 C   0  0  0  0  0  3  0  0  0  0  0  0
  188.9270  177.6530  143.3900 C   0  0  0  0  0  3  0  0  0  0  0  0
  184.4780  178.5810  141.5610 N   0  0  0  0  0  0  0  0  0  0  0  0
  183.8740  178.6280  142.7950 C   0  0  0  0  0  0  0  0  0  0  0  0
  188.1830  177.9160  140.9130 C   0  0  0  0  0  0  0  0  0  0  0  0
  186.5930  178.1290  142.5560 C   0  0  1  0  0  3  0  0  0  0  0  0
  184.1570  178.5010  145.2780 C   0  0  0  0  0  3  0  0  0  0  0  0
  180.3440  179.6720  141.8040 C   0  0  0  0  0  0  0  0  0  0  0  0
  179.6520  179.4290  142.9920 C   0  0  0  0  0  3  0  0  0  0  0  0
  182.4100  178.8920  142.8330 C   0  0  0  0  0  0  0  0  0  0  0  0
  180.3300  178.9260  144.1030 C   0  0  0  0  0  3  0  0  0  0  0  0
  181.7150  179.4090  141.7290 C   0  0  0  0  0  3  0  0  0  0  0  0
  181.7010  178.6630  144.0250 C   0  0  0  0  0  3  0  0  0  0  0  0
  179.6890  180.1660  140.7260 F   0  0  0  0  0  0  0  0  0  0  0  0
  190.3380  177.5100  139.1210 C   0  0  1  0  0  3  0  0  0  0  0  0
  190.9450  177.6320  140.3570 C   0  0  2  0  0  3  0  0  0  0  0  0
  191.4160  176.5080  139.4620 C   0  0  2  0  0  3  0  0  0  0  0  0
  189.4550  177.7110  140.3090 N   0  0  0  0  0  0  0  0  0  0  0  0
  192.7180  176.8970  138.7750 C   0  0  1  0  0  3  0  0  0  0  0  0
  193.6920  177.1290  139.7490 O   0  0  0  0  0  1  0  0  0  0  0  0
  193.5840  176.3720  136.4810 C   0  0  0  0  0  1  0  0  0  0  0  0
  193.1820  175.7900  137.8250 C   0  0  0  0  0  3  0  0  0  0  0  0
  192.0770  174.7730  137.5940 C   0  0  0  0  0  1  0  0  0  0  0  0
  1 12  1  0  0  0  0
  1 10  2  0  0  0  0
  2  8  1  0  0  0  0
  2  6  1  0  0  0  0
  3 11  1  0  0  0  0
  3  8  2  0  0  0  0
  4 14  2  0  0  0  0
  5 10  1  0  0  0  0
  6  5  2  0  0  0  0
  7 17  1  0  0  0  0
  7 13  1  0  0  0  0
  8  1  1  0  0  0  0
  9 16  1  0  0  0  0
  9  4  1  0  0  0  0
 11 18  1  0  0  0  0
 13  2  2  0  0  0  0
 14 15  1  0  0  0  0
 15 21  1  0  0  0  0
 15 11  2  0  0  0  0
 16  7  2  0  0  0  0
 17  4  1  1  0  0  0
 17  3  1  0  0  0  0
 18 12  2  0  0  0  0
 19 20  1  0  0  0  0
 20 22  2  0  0  0  0
 21 24  2  0  0  0  0
 23 19  2  0  0  0  0
 23 21  1  0  0  0  0
 24 22  1  0  0  0  0
 25 19  1  0  0  0  0
 26 28  1  0  0  0  0
 26 29  1  1  0  0  0
 26 27  1  0  0  0  0
 27 29  1  1  0  0  0
 28 30  1  6  0  0  0
 28 27  1  0  0  0  0
 29 16  1  0  0  0  0
 30 31  1  1  0  0  0
 32 33  1  0  0  0  0
 33 30  1  0  0  0  0
 34 33  1  0  0  0  0
M  END
>  <MODEL>
2

>  <REMARK>
 VINA RESULT:     -10.0      1.673      2.732
  Name = 
  4 active torsions:
  status: ('A' for Active; 'I' for Inactive)
    1  A    between atoms: C_12  and  C_28
    2  A    between atoms: C_13  and  C_14
    3  A    between atoms: C_14  and  C_22
    4  A    between atoms: N_17  and  C_29
                            x       y       z     vdW  Elec       q    Type
                         _______ _______ _______ _____ _____    ______ ____

>  <TORSDO>
F 4

$$$$
=
 OpenBabel11052414063D

 34 41  0  0  1  0  0  0  0  0999 V2000
  186.1510  178.1720  145.7510 C   0  0  0  0  0  0  0  0  0  0  0  0
  186.0050  178.2890  143.3160 C   0  0  0  0  0  0  0  0  0  0  0  0
  188.1020  177.6340  144.4190 C   0  0  0  0  0  0  0  0  0  0  0  0
  189.9960  177.0690  143.0790 C   0  0  0  0  0  0  0  0  0  0  0  0
  184.1050  178.8160  144.6500 C   0  0  0  0  0  3  0  0  0  0  0  0
  184.7060  178.6730  143.4360 N   0  0  0  0  0  0  0  0  0  0  0  0
  188.0490  177.6980  141.9770 C   0  0  0  0  0  0  0  0  0  0  0  0
  186.7590  178.0320  144.4900 C   0  0  0  0  0  0  0  0  0  0  0  0
  190.4260  176.9600  141.4550 S   0  0  0  0  0  0  0  0  0  0  0  0
  184.8160  178.5670  145.8280 C   0  0  0  0  0  3  0  0  0  0  0  0
  188.8650  177.3730  145.5820 C   0  0  0  0  0  0  0  0  0  0  0  0
  186.8860  177.9090  146.9120 C   0  0  0  0  0  3  0  0  0  0  0  0
  186.6110  178.1470  141.9270 C   0  0  0  0  0  3  0  0  0  0  0  0
  190.7550  176.8110  144.1720 N   0  0  0  0  0  0  0  0  0  0  0  0
  190.2330  176.9580  145.4350 C   0  0  0  0  0  0  0  0  0  0  0  0
  188.8940  177.4500  140.8980 C   0  0  0  0  0  0  0  0  0  0  0  0
  188.6940  177.4780  143.1850 C   0  0  1  0  0  3  0  0  0  0  0  0
  188.2280  177.5110  146.8280 C   0  0  0  0  0  3  0  0  0  0  0  0
  192.1560  177.2790  148.7100 C   0  0  0  0  0  0  0  0  0  0  0  0
  192.8890  176.0910  148.7050 C   0  0  0  0  0  3  0  0  0  0  0  0
  191.1290  176.6690  146.5880 C   0  0  0  0  0  0  0  0  0  0  0  0
  192.7540  175.1930  147.6460 C   0  0  0  0  0  3  0  0  0  0  0  0
  191.2860  177.5670  147.6550 C   0  0  0  0  0  3  0  0  0  0  0  0
  191.8830  175.4820  146.5920 C   0  0  0  0  0  3  0  0  0  0  0  0
  192.2910  178.1540  149.7360 F   0  0  0  0  0  0  0  0  0  0  0  0
  187.7810  177.1540  138.3120 C   0  0  1  0  0  3  0  0  0  0  0  0
  188.5380  178.3080  138.2230 C   0  0  2  0  0  3  0  0  0  0  0  0
  188.6640  177.3090  137.0950 C   0  0  2  0  0  3  0  0  0  0  0  0
  188.5350  177.5820  139.5280 N   0  0  0  0  0  0  0  0  0  0  0  0
  187.8260  177.7570  135.9050 C   0  0  1  0  0  3  0  0  0  0  0  0
  188.6390  177.7960  134.7690 O   0  0  0  0  0  1  0  0  0  0  0  0
  187.1330  175.5120  135.0310 C   0  0  0  0  0  1  0  0  0  0  0  0
  186.6540  176.8010  135.6740 C   0  0  0  0  0  3  0  0  0  0  0  0
  185.6110  177.4300  134.7660 C   0  0  0  0  0  1  0  0  0  0  0  0
  1 10  2  0  0  0  0
  1 12  1  0  0  0  0
  2  6  1  0  0  0  0
  2  8  1  0  0  0  0
  3  8  2  0  0  0  0
  3 11  1  0  0  0  0
  4 17  1  0  0  0  0
  4 14  2  0  0  0  0
  5 10  1  0  0  0  0
  6  5  2  0  0  0  0
  8  1  1  0  0  0  0
  9  4  1  0  0  0  0
 11 18  1  0  0  0  0
 13  7  1  0  0  0  0
 13  2  2  0  0  0  0
 14 15  1  0  0  0  0
 15 11  2  0  0  0  0
 15 21  1  0  0  0  0
 16  9  1  0  0  0  0
 16  7  2  0  0  0  0
 17  7  1  6  0  0  0
 17  3  1  0  0  0  0
 18 12  2  0  0  0  0
 19 25  1  0  0  0  0
 20 19  1  0  0  0  0
 21 24  2  0  0  0  0
 21 23  1  0  0  0  0
 22 20  2  0  0  0  0
 23 19  2  0  0  0  0
 24 22  1  0  0  0  0
 26 29  1  1  0  0  0
 27 26  1  0  0  0  0
 27 29  1  1  0  0  0
 28 30  1  6  0  0  0
 28 27  1  0  0  0  0
 28 26  1  0  0  0  0
 29 16  1  0  0  0  0
 30 31  1  6  0  0  0
 32 33  1  0  0  0  0
 33 30  1  0  0  0  0
 34 33  1  0  0  0  0
M  END
>  <MODEL>
3

>  <REMARK>
 VINA RESULT:      -9.8      3.750      6.465
  Name = 
  4 active torsions:
  status: ('A' for Active; 'I' for Inactive)
    1  A    between atoms: C_12  and  C_28
    2  A    between atoms: C_13  and  C_14
    3  A    between atoms: C_14  and  C_22
    4  A    between atoms: N_17  and  C_29
                            x       y       z     vdW  Elec       q    Type
                         _______ _______ _______ _____ _____    ______ ____

>  <TORSDO>
F 4

$$$$
=
 OpenBabel11052414063D

 34 41  0  0  1  0  0  0  0  0999 V2000
  189.4250  177.7340  140.6900 C   0  0  0  0  0  0  0  0  0  0  0  0
  187.3900  178.2540  139.4450 C   0  0  0  0  0  0  0  0  0  0  0  0
  187.3560  178.0960  141.8970 C   0  0  0  0  0  0  0  0  0  0  0  0
  185.3120  178.4990  143.0630 C   0  0  0  0  0  0  0  0  0  0  0  0
  189.4360  177.8900  138.2840 C   0  0  0  0  0  3  0  0  0  0  0  0
  188.1050  178.1760  138.2900 N   0  0  0  0  0  0  0  0  0  0  0  0
  185.2740  178.6450  140.7440 C   0  0  0  0  0  0  0  0  0  0  0  0
  188.0490  178.0270  140.6800 C   0  0  0  0  0  0  0  0  0  0  0  0
  183.7090  178.8950  142.7330 S   0  0  0  0  0  0  0  0  0  0  0  0
  190.1200  177.6640  139.4830 C   0  0  0  0  0  3  0  0  0  0  0  0
  188.0020  177.8740  143.1370 C   0  0  0  0  0  0  0  0  0  0  0  0
  190.0840  177.5210  141.9060 C   0  0  0  0  0  3  0  0  0  0  0  0
  185.9050  178.5810  139.3770 C   0  0  0  0  0  3  0  0  0  0  0  0
  185.8990  178.2910  144.2670 N   0  0  0  0  0  0  0  0  0  0  0  0
  187.2330  177.9700  144.3470 C   0  0  0  0  0  0  0  0  0  0  0  0
  183.9470  178.9380  141.0490 C   0  0  0  0  0  0  0  0  0  0  0  0
  186.0130  178.4010  141.8920 C   0  0  1  0  0  3  0  0  0  0  0  0
  189.3790  177.5930  143.1170 C   0  0  0  0  0  3  0  0  0  0  0  0
  189.5530  176.9060  147.1780 C   0  0  0  0  0  0  0  0  0  0  0  0
  188.8050  177.2900  148.2930 C   0  0  0  0  0  3  0  0  0  0  0  0
  187.8060  177.7450  145.7020 C   0  0  0  0  0  0  0  0  0  0  0  0
  187.5580  177.8930  148.1210 C   0  0  0  0  0  3  0  0  0  0  0  0
  189.0530  177.1290  145.8920 C   0  0  0  0  0  3  0  0  0  0  0  0
  187.0610  178.1160  146.8340 C   0  0  0  0  0  3  0  0  0  0  0  0
  190.7610  176.3160  147.3430 F   0  0  0  0  0  0  0  0  0  0  0  0
  182.4610  179.8290  138.8080 C   0  0  1  0  0  3  0  0  0  0  0  0
  181.5460  179.1120  139.5570 C   0  0  2  0  0  3  0  0  0  0  0  0
  181.0990  180.4500  139.0130 C   0  0  2  0  0  3  0  0  0  0  0  0
  182.9330  179.2360  140.0950 N   0  0  0  0  0  0  0  0  0  0  0  0
  180.2490  180.2510  137.7660 C   0  0  1  0  0  3  0  0  0  0  0  0
  178.9380  180.6500  138.0430 O   0  0  0  0  0  1  0  0  0  0  0  0
  180.4300  182.5270  136.7310 C   0  0  0  0  0  1  0  0  0  0  0  0
  180.8050  181.0620  136.5940 C   0  0  0  0  0  3  0  0  0  0  0  0
  180.2570  180.5510  135.2720 C   0  0  0  0  0  1  0  0  0  0  0  0
  1 12  1  0  0  0  0
  2  8  1  0  0  0  0
  3 11  1  0  0  0  0
  4 14  2  0  0  0  0
  5  6  2  0  0  0  0
  5 10  1  0  0  0  0
  6  2  1  0  0  0  0
  7 16  2  0  0  0  0
  8  1  1  0  0  0  0
  8  3  2  0  0  0  0
  9  4  1  0  0  0  0
 10  1  2  0  0  0  0
 11 15  2  0  0  0  0
 12 18  2  0  0  0  0
 13  2  2  0  0  0  0
 13  7  1  0  0  0  0
 14 15  1  0  0  0  0
 15 21  1  0  0  0  0
 16  9  1  0  0  0  0
 17  7  1  1  0  0  0
 17  3  1  0  0  0  0
 17  4  1  0  0  0  0
 18 11  1  0  0  0  0
 19 25  1  0  0  0  0
 19 20  1  0  0  0  0
 21 23  1  0  0  0  0
 21 24  2  0  0  0  0
 22 20  2  0  0  0  0
 23 19  2  0  0  0  0
 24 22  1  0  0  0  0
 26 28  1  0  0  0  0
 26 27  1  0  0  0  0
 26 29  1  1  0  0  0
 27 29  1  1  0  0  0
 28 30  1  6  0  0  0
 28 27  1  0  0  0  0
 29 16  1  0  0  0  0
 30 31  1  1  0  0  0
 33 32  1  0  0  0  0
 33 30  1  0  0  0  0
 34 33  1  0  0  0  0
M  END
>  <MODEL>
4

>  <REMARK>
 VINA RESULT:      -9.6      4.761      8.502
  Name = 
  4 active torsions:
  status: ('A' for Active; 'I' for Inactive)
    1  A    between atoms: C_12  and  C_28
    2  A    between atoms: C_13  and  C_14
    3  A    between atoms: C_14  and  C_22
    4  A    between atoms: N_17  and  C_29
                            x       y       z     vdW  Elec       q    Type
                         _______ _______ _______ _____ _____    ______ ____

>  <TORSDO>
F 4

$$$$
=
 OpenBabel11052414063D

 34 41  0  0  1  0  0  0  0  0999 V2000
  189.2850  177.2200  145.2040 C   0  0  0  0  0  0  0  0  0  0  0  0
  186.9320  177.8610  145.0850 C   0  0  0  0  0  0  0  0  0  0  0  0
  188.2840  177.6610  143.0430 C   0  0  0  0  0  0  0  0  0  0  0  0
  187.2590  178.0620  140.9240 C   0  0  0  0  0  0  0  0  0  0  0  0
  187.9420  177.4250  147.1960 C   0  0  0  0  0  3  0  0  0  0  0  0
  186.8640  177.7740  146.4410 N   0  0  0  0  0  0  0  0  0  0  0  0
  185.9330  178.2850  142.8180 C   0  0  0  0  0  0  0  0  0  0  0  0
  188.1630  177.5840  144.4370 C   0  0  0  0  0  0  0  0  0  0  0  0
  185.7580  178.4850  140.2880 S   0  0  0  0  0  0  0  0  0  0  0  0
  189.1710  177.1420  146.5920 C   0  0  0  0  0  3  0  0  0  0  0  0
  189.5060  177.3860  142.3840 C   0  0  0  0  0  0  0  0  0  0  0  0
  190.4990  176.9350  144.5710 C   0  0  0  0  0  3  0  0  0  0  0  0
  185.6850  178.2530  144.3050 C   0  0  0  0  0  3  0  0  0  0  0  0
  188.4140  177.8050  140.2610 N   0  0  0  0  0  0  0  0  0  0  0  0
  189.5560  177.4740  140.9500 C   0  0  0  0  0  0  0  0  0  0  0  0
  185.0130  178.5820  141.8150 C   0  0  0  0  0  0  0  0  0  0  0  0
  187.1820  178.0000  142.2890 C   0  0  1  0  0  3  0  0  0  0  0  0
  190.6070  177.0150  143.1740 C   0  0  0  0  0  3  0  0  0  0  0  0
  191.9220  176.3890  138.1660 C   0  0  0  0  0  0  0  0  0  0  0  0
  193.1590  176.6980  138.7330 C   0  0  0  0  0  3  0  0  0  0  0  0
  190.7880  177.2180  140.1560 C   0  0  0  0  0  0  0  0  0  0  0  0
  193.2200  177.2590  140.0100 C   0  0  0  0  0  3  0  0  0  0  0  0
  190.7460  176.6430  138.8760 C   0  0  0  0  0  3  0  0  0  0  0  0
  192.0420  177.5130  140.7180 C   0  0  0  0  0  3  0  0  0  0  0  0
  191.8620  175.8400  136.9290 F   0  0  0  0  0  0  0  0  0  0  0  0
  182.4730  179.1830  142.9140 C   0  0  1  0  0  3  0  0  0  0  0  0
  182.3040  179.3650  141.5530 C   0  0  2  0  0  3  0  0  0  0  0  0
  181.2290  178.5960  142.2870 C   0  0  2  0  0  3  0  0  0  0  0  0
  183.6460  178.9150  142.0290 N   0  0  0  0  0  0  0  0  0  0  0  0
  180.0360  179.5000  142.5650 C   0  0  1  0  0  3  0  0  0  0  0  0
  179.2770  179.6200  141.3970 O   0  0  0  0  0  1  0  0  0  0  0  0
  178.9310  179.9760  144.7640 C   0  0  0  0  0  1  0  0  0  0  0  0
  179.1720  178.9290  143.6920 C   0  0  0  0  0  3  0  0  0  0  0  0
  179.8460  177.7300  144.3380 C   0  0  0  0  0  1  0  0  0  0  0  0
  1 10  2  0  0  0  0
  2  6  1  0  0  0  0
  3  8  2  0  0  0  0
  6  5  2  0  0  0  0
  7 13  1  0  0  0  0
  8  2  1  0  0  0  0
  8  1  1  0  0  0  0
  9  4  1  0  0  0  0
  9 16  1  0  0  0  0
 10  5  1  0  0  0  0
 11  3  1  0  0  0  0
 11 18  1  0  0  0  0
 12  1  1  0  0  0  0
 13  2  2  0  0  0  0
 14  4  2  0  0  0  0
 14 15  1  0  0  0  0
 15 11  2  0  0  0  0
 16 29  1  0  0  0  0
 16  7  2  0  0  0  0
 17  4  1  6  0  0  0
 17  7  1  0  0  0  0
 17  3  1  0  0  0  0
 18 12  2  0  0  0  0
 19 20  2  0  0  0  0
 19 23  1  0  0  0  0
 20 22  1  0  0  0  0
 21 24  1  0  0  0  0
 21 15  1  0  0  0  0
 22 24  2  0  0  0  0
 23 21  2  0  0  0  0
 25 19  1  0  0  0  0
 26 29  1  6  0  0  0
 27 29  1  6  0  0  0
 27 28  1  0  0  0  0
 27 26  1  0  0  0  0
 28 30  1  1  0  0  0
 28 26  1  0  0  0  0
 30 31  1  6  0  0  0
 30 33  1  0  0  0  0
 33 34  1  0  0  0  0
 33 32  1  0  0  0  0
M  END
>  <MODEL>
5

>  <REMARK>
 VINA RESULT:      -9.2      4.012      9.155
  Name = 
  4 active torsions:
  status: ('A' for Active; 'I' for Inactive)
    1  A    between atoms: C_12  and  C_28
    2  A    between atoms: C_13  and  C_14
    3  A    between atoms: C_14  and  C_22
    4  A    between atoms: N_17  and  C_29
                            x       y       z     vdW  Elec       q    Type
                         _______ _______ _______ _____ _____    ______ ____

>  <TORSDO>
F 4

$$$$
=
 OpenBabel11052414063D

 34 41  0  0  1  0  0  0  0  0999 V2000
  187.5620  177.6530  145.1840 C   0  0  0  0  0  0  0  0  0  0  0  0
  189.4150  177.2470  143.6460 C   0  0  0  0  0  0  0  0  0  0  0  0
  187.1840  177.8300  142.7970 C   0  0  0  0  0  0  0  0  0  0  0  0
  186.8510  178.0370  140.4420 C   0  0  0  0  0  0  0  0  0  0  0  0
  189.7580  177.0770  145.9960 C   0  0  0  0  0  3  0  0  0  0  0  0
  190.2200  177.0080  144.7170 N   0  0  0  0  0  0  0  0  0  0  0  0
  188.9790  177.4660  141.1800 C   0  0  0  0  0  0  0  0  0  0  0  0
  188.0530  177.5750  143.8670 C   0  0  0  0  0  0  0  0  0  0  0  0
  187.7260  177.9010  139.0100 S   0  0  0  0  0  0  0  0  0  0  0  0
  188.4220  177.4010  146.2520 C   0  0  0  0  0  3  0  0  0  0  0  0
  185.8230  178.1590  143.0040 C   0  0  0  0  0  0  0  0  0  0  0  0
  186.2220  177.9870  145.4090 C   0  0  0  0  0  3  0  0  0  0  0  0
  190.0010  177.1560  142.2440 C   0  0  0  0  0  3  0  0  0  0  0  0
  185.5430  178.3550  140.6040 N   0  0  0  0  0  0  0  0  0  0  0  0
  184.9900  178.4180  141.8610 C   0  0  0  0  0  0  0  0  0  0  0  0
  189.1770  177.4950  139.8020 C   0  0  0  0  0  0  0  0  0  0  0  0
  187.6660  177.7720  141.5090 C   0  0  1  0  0  3  0  0  0  0  0  0
  185.3630  178.2400  144.3300 C   0  0  0  0  0  3  0  0  0  0  0  0
  181.4880  179.0220  143.2390 C   0  0  0  0  0  0  0  0  0  0  0  0
  180.7990  179.3590  142.0730 C   0  0  0  0  0  3  0  0  0  0  0  0
  183.5460  178.7610  141.9610 C   0  0  0  0  0  0  0  0  0  0  0  0
  181.4710  179.3920  140.8500 C   0  0  0  0  0  3  0  0  0  0  0  0
  182.8520  178.7210  143.1810 C   0  0  0  0  0  3  0  0  0  0  0  0
  182.8350  179.0910  140.7950 C   0  0  0  0  0  3  0  0  0  0  0  0
  180.8360  178.9850  144.4250 F   0  0  0  0  0  0  0  0  0  0  0  0
  191.2280  176.9640  137.9240 C   0  0  1  0  0  3  0  0  0  0  0  0
  191.8980  177.0980  139.1260 C   0  0  2  0  0  3  0  0  0  0  0  0
  192.2870  175.9340  138.2430 C   0  0  2  0  0  3  0  0  0  0  0  0
  190.4100  177.2290  139.1450 N   0  0  0  0  0  0  0  0  0  0  0  0
  193.5670  176.2580  137.4850 C   0  0  1  0  0  3  0  0  0  0  0  0
  194.6380  175.6110  138.1080 O   0  0  0  0  0  1  0  0  0  0  0  0
  192.9080  174.3970  135.9390 C   0  0  0  0  0  1  0  0  0  0  0  0
  193.4630  175.8070  136.0260 C   0  0  0  0  0  3  0  0  0  0  0  0
  194.8250  175.8260  135.3540 C   0  0  0  0  0  1  0  0  0  0  0  0
  1 12  1  0  0  0  0
  1 10  2  0  0  0  0
  2  8  1  0  0  0  0
  2  6  1  0  0  0  0
  3 11  1  0  0  0  0
  3  8  2  0  0  0  0
  4 14  2  0  0  0  0
  5 10  1  0  0  0  0
  6  5  2  0  0  0  0
  7 17  1  0  0  0  0
  7 13  1  0  0  0  0
  8  1  1  0  0  0  0
  9 16  1  0  0  0  0
  9  4  1  0  0  0  0
 11 18  1  0  0  0  0
 13  2  2  0  0  0  0
 14 15  1  0  0  0  0
 15 21  1  0  0  0  0
 15 11  2  0  0  0  0
 16  7  2  0  0  0  0
 17  4  1  1  0  0  0
 17  3  1  0  0  0  0
 18 12  2  0  0  0  0
 19 25  1  0  0  0  0
 20 19  2  0  0  0  0
 21 23  2  0  0  0  0
 22 20  1  0  0  0  0
 23 19  1  0  0  0  0
 24 22  2  0  0  0  0
 24 21  1  0  0  0  0
 26 28  1  0  0  0  0
 26 27  1  0  0  0  0
 26 29  1  1  0  0  0
 27 29  1  1  0  0  0
 28 30  1  6  0  0  0
 28 27  1  0  0  0  0
 29 16  1  0  0  0  0
 30 31  1  1  0  0  0
 32 33  1  0  0  0  0
 33 30  1  0  0  0  0
 34 33  1  0  0  0  0
M  END
>  <MODEL>
6

>  <REMARK>
 VINA RESULT:      -9.1      1.163      1.868
  Name = 
  4 active torsions:
  status: ('A' for Active; 'I' for Inactive)
    1  A    between atoms: C_12  and  C_28
    2  A    between atoms: C_13  and  C_14
    3  A    between atoms: C_14  and  C_22
    4  A    between atoms: N_17  and  C_29
                            x       y       z     vdW  Elec       q    Type
                         _______ _______ _______ _____ _____    ______ ____

>  <TORSDO>
F 4

$$$$
=
 OpenBabel11052414063D

 34 41  0  0  1  0  0  0  0  0999 V2000
  186.3590  178.1590  143.7790 C   0  0  0  0  0  0  0  0  0  0  0  0
  188.4550  177.5480  142.6860 C   0  0  0  0  0  0  0  0  0  0  0  0
  186.5040  178.2410  141.3620 C   0  0  0  0  0  0  0  0  0  0  0  0
  186.6900  178.3520  138.9840 C   0  0  0  0  0  0  0  0  0  0  0  0
  188.2840  177.4730  145.0590 C   0  0  0  0  0  3  0  0  0  0  0  0
  188.9970  177.3070  143.9110 N   0  0  0  0  0  0  0  0  0  0  0  0
  188.5640  177.6720  140.1780 C   0  0  0  0  0  0  0  0  0  0  0  0
  187.1070  177.9810  142.6010 C   0  0  0  0  0  0  0  0  0  0  0  0
  187.8320  178.0830  137.7770 S   0  0  0  0  0  0  0  0  0  0  0  0
  186.9530  177.9020  145.0140 C   0  0  0  0  0  3  0  0  0  0  0  0
  185.1610  178.6750  141.2630 C   0  0  0  0  0  0  0  0  0  0  0  0
  185.0330  178.5970  143.7030 C   0  0  0  0  0  3  0  0  0  0  0  0
  189.3120  177.3450  141.4450 C   0  0  0  0  0  3  0  0  0  0  0  0
  185.4060  178.7680  138.8540 N   0  0  0  0  0  0  0  0  0  0  0  0
  184.6090  178.9330  139.9620 C   0  0  0  0  0  0  0  0  0  0  0  0
  189.0480  177.6170  138.8730 C   0  0  0  0  0  0  0  0  0  0  0  0
  187.2400  178.0850  140.2090 C   0  0  1  0  0  3  0  0  0  0  0  0
  184.4410  178.8540  142.4570 C   0  0  0  0  0  3  0  0  0  0  0  0
  181.5650  180.8380  138.6860 C   0  0  0  0  0  0  0  0  0  0  0  0
  180.5440  180.2260  139.4140 C   0  0  0  0  0  3  0  0  0  0  0  0
  183.2080  179.3810  139.7400 C   0  0  0  0  0  0  0  0  0  0  0  0
  180.8460  179.1990  140.3100 C   0  0  0  0  0  3  0  0  0  0  0  0
  182.8880  180.4210  138.8520 C   0  0  0  0  0  3  0  0  0  0  0  0
  182.1700  178.7830  140.4740 C   0  0  0  0  0  3  0  0  0  0  0  0
  181.2740  181.8390  137.8200 F   0  0  0  0  0  0  0  0  0  0  0  0
  191.3780  176.7630  137.5090 C   0  0  1  0  0  3  0  0  0  0  0  0
  191.8270  177.0810  138.7780 C   0  0  2  0  0  3  0  0  0  0  0  0
  192.3180  175.7850  138.1740 C   0  0  2  0  0  3  0  0  0  0  0  0
  190.3670  177.2320  138.5030 N   0  0  0  0  0  0  0  0  0  0  0  0
  193.7250  175.9650  137.6220 C   0  0  1  0  0  3  0  0  0  0  0  0
  194.6050  175.1650  138.3550 O   0  0  0  0  0  1  0  0  0  0  0  0
  194.3150  174.1700  135.9740 C   0  0  0  0  0  1  0  0  0  0  0  0
  193.7820  175.5820  136.1420 C   0  0  0  0  0  3  0  0  0  0  0  0
  194.6850  176.5280  135.3700 C   0  0  0  0  0  1  0  0  0  0  0  0
  1 10  2  0  0  0  0
  2  6  1  0  0  0  0
  3  8  2  0  0  0  0
  6  5  2  0  0  0  0
  7 17  1  0  0  0  0
  7 13  1  0  0  0  0
  8  2  1  0  0  0  0
  8  1  1  0  0  0  0
  9 16  1  0  0  0  0
  9  4  1  0  0  0  0
 10  5  1  0  0  0  0
 11  3  1  0  0  0  0
 11 18  1  0  0  0  0
 12  1  1  0  0  0  0
 13  2  2  0  0  0  0
 14  4  2  0  0  0  0
 14 15  1  0  0  0  0
 15 11  2  0  0  0  0
 16  7  2  0  0  0  0
 17  4  1  1  0  0  0
 17  3  1  0  0  0  0
 18 12  2  0  0  0  0
 19 23  2  0  0  0  0
 19 20  1  0  0  0  0
 20 22  2  0  0  0  0
 21 15  1  0  0  0  0
 21 24  2  0  0  0  0
 22 24  1  0  0  0  0
 23 21  1  0  0  0  0
 25 19  1  0  0  0  0
 26 28  1  0  0  0  0
 26 29  1  1  0  0  0
 26 27  1  0  0  0  0
 27 29  1  1  0  0  0
 28 30  1  6  0  0  0
 28 27  1  0  0  0  0
 29 16  1  0  0  0  0
 30 31  1  1  0  0  0
 32 33  1  0  0  0  0
 33 30  1  0  0  0  0
 34 33  1  0  0  0  0
M  END
>  <MODEL>
7

>  <REMARK>
 VINA RESULT:      -8.7      2.194      3.207
  Name = 
  4 active torsions:
  status: ('A' for Active; 'I' for Inactive)
    1  A    between atoms: C_12  and  C_28
    2  A    between atoms: C_13  and  C_14
    3  A    between atoms: C_14  and  C_22
    4  A    between atoms: N_17  and  C_29
                            x       y       z     vdW  Elec       q    Type
                         _______ _______ _______ _____ _____    ______ ____

>  <TORSDO>
F 4

$$$$
=
 OpenBabel11052414063D

 34 41  0  0  1  0  0  0  0  0999 V2000
  190.6600  177.3280  140.1960 C   0  0  0  0  0  0  0  0  0  0  0  0
  188.5030  177.8550  139.1800 C   0  0  0  0  0  0  0  0  0  0  0  0
  188.7400  177.7160  141.6220 C   0  0  0  0  0  0  0  0  0  0  0  0
  186.8400  178.1430  143.0030 C   0  0  0  0  0  0  0  0  0  0  0  0
  190.4060  177.4660  137.8030 C   0  0  0  0  0  3  0  0  0  0  0  0
  189.0850  177.7630  137.9530 N   0  0  0  0  0  0  0  0  0  0  0  0
  186.5470  178.2720  140.7020 C   0  0  0  0  0  0  0  0  0  0  0  0
  189.2940  177.6330  140.3370 C   0  0  0  0  0  0  0  0  0  0  0  0
  185.2130  178.5500  142.8500 S   0  0  0  0  0  0  0  0  0  0  0  0
  191.2160  177.2450  138.9200 C   0  0  0  0  0  3  0  0  0  0  0  0
  189.5180  177.4980  142.7850 C   0  0  0  0  0  0  0  0  0  0  0  0
  191.4480  177.1190  141.3340 C   0  0  0  0  0  3  0  0  0  0  0  0
  187.0220  178.1940  139.2740 C   0  0  0  0  0  3  0  0  0  0  0  0
  187.5550  177.9400  144.1370 N   0  0  0  0  0  0  0  0  0  0  0  0
  188.8880  177.6090  144.0720 C   0  0  0  0  0  0  0  0  0  0  0  0
  185.2630  178.5790  141.1490 C   0  0  0  0  0  0  0  0  0  0  0  0
  187.4070  178.0320  141.7630 C   0  0  1  0  0  3  0  0  0  0  0  0
  190.8820  177.2060  142.6140 C   0  0  0  0  0  3  0  0  0  0  0  0
  189.8180  177.6660  147.7670 C   0  0  0  0  0  0  0  0  0  0  0  0
  191.0440  176.9990  147.7430 C   0  0  0  0  0  3  0  0  0  0  0  0
  189.6060  177.3900  145.3570 C   0  0  0  0  0  0  0  0  0  0  0  0
  191.5590  176.5320  146.5330 C   0  0  0  0  0  3  0  0  0  0  0  0
  189.1070  177.8630  146.5800 C   0  0  0  0  0  3  0  0  0  0  0  0
  190.8460  176.7300  145.3470 C   0  0  0  0  0  3  0  0  0  0  0  0
  189.3180  178.1240  148.9400 F   0  0  0  0  0  0  0  0  0  0  0  0
  182.8220  178.5550  139.7150 C   0  0  1  0  0  3  0  0  0  0  0  0
  183.3690  179.7940  139.4310 C   0  0  2  0  0  3  0  0  0  0  0  0
  182.7980  179.0070  138.2730 C   0  0  2  0  0  3  0  0  0  0  0  0
  184.1530  178.8770  140.3110 N   0  0  0  0  0  0  0  0  0  0  0  0
  181.4110  179.5290  137.9190 C   0  0  1  0  0  3  0  0  0  0  0  0
  181.5340  180.8140  137.3840 O   0  0  0  0  0  1  0  0  0  0  0  0
  179.9850  177.4880  137.6220 C   0  0  0  0  0  1  0  0  0  0  0  0
  180.7250  178.6060  136.9100 C   0  0  0  0  0  3  0  0  0  0  0  0
  181.7390  177.9820  135.9670 C   0  0  0  0  0  1  0  0  0  0  0  0
  1  8  1  0  0  0  0
  1 12  1  0  0  0  0
  2 13  2  0  0  0  0
  2  8  1  0  0  0  0
  3 17  1  0  0  0  0
  3 11  1  0  0  0  0
  4 14  2  0  0  0  0
  5  6  2  0  0  0  0
  5 10  1  0  0  0  0
  6  2  1  0  0  0  0
  7 16  2  0  0  0  0
  8  3  2  0  0  0  0
  9  4  1  0  0  0  0
 10  1  2  0  0  0  0
 11 15  2  0  0  0  0
 12 18  2  0  0  0  0
 13  7  1  0  0  0  0
 15 14  1  0  0  0  0
 15 21  1  0  0  0  0
 16  9  1  0  0  0  0
 17  7  1  1  0  0  0
 17  4  1  0  0  0  0
 18 11  1  0  0  0  0
 19 25  1  0  0  0  0
 20 19  1  0  0  0  0
 21 23  1  0  0  0  0
 22 20  2  0  0  0  0
 23 19  2  0  0  0  0
 24 21  2  0  0  0  0
 24 22  1  0  0  0  0
 26 29  1  6  0  0  0
 27 26  1  0  0  0  0
 27 29  1  6  0  0  0
 28 30  1  1  0  0  0
 28 27  1  0  0  0  0
 28 26  1  0  0  0  0
 29 16  1  0  0  0  0
 30 31  1  6  0  0  0
 33 32  1  0  0  0  0
 33 30  1  0  0  0  0
 34 33  1  0  0  0  0
M  END
>  <MODEL>
8

>  <REMARK>
 VINA RESULT:      -8.6      4.148      8.093
  Name = 
  4 active torsions:
  status: ('A' for Active; 'I' for Inactive)
    1  A    between atoms: C_12  and  C_28
    2  A    between atoms: C_13  and  C_14
    3  A    between atoms: C_14  and  C_22
    4  A    between atoms: N_17  and  C_29
                            x       y       z     vdW  Elec       q    Type
                         _______ _______ _______ _____ _____    ______ ____

>  <TORSDO>
F 4

$$$$
=
 OpenBabel11052414063D

 34 41  0  0  1  0  0  0  0  0999 V2000
  188.2240  177.5300  136.4230 C   0  0  0  0  0  0  0  0  0  0  0  0
  187.6940  177.8780  138.7800 C   0  0  0  0  0  0  0  0  0  0  0  0
  189.9290  177.1180  138.0940 C   0  0  0  0  0  0  0  0  0  0  0  0
  191.6000  176.7600  139.7610 C   0  0  0  0  0  0  0  0  0  0  0  0
  186.0380  178.2710  137.1170 C   0  0  0  0  0  3  0  0  0  0  0  0
  186.4350  178.2460  138.4190 N   0  0  0  0  0  0  0  0  0  0  0  0
  189.5030  177.4600  140.4760 C   0  0  0  0  0  0  0  0  0  0  0  0
  188.6200  177.5050  137.7720 C   0  0  0  0  0  0  0  0  0  0  0  0
  191.7820  176.8610  141.4320 S   0  0  0  0  0  0  0  0  0  0  0  0
  186.9240  177.9150  136.0960 C   0  0  0  0  0  3  0  0  0  0  0  0
  190.8630  176.7460  137.0980 C   0  0  0  0  0  0  0  0  0  0  0  0
  189.1360  177.1750  135.4230 C   0  0  0  0  0  2  0  0  0  0  0  0
  188.0710  177.8760  140.2550 C   0  0  0  0  0  3  0  0  0  0  0  0
  192.5190  176.3970  138.8330 N   0  0  0  0  0  0  0  0  0  0  0  0
  192.1910  176.3690  137.4990 C   0  0  0  0  0  0  0  0  0  0  0  0
  190.1780  177.3690  141.6900 C   0  0  0  0  0  0  0  0  0  0  0  0
  190.3240  177.1110  139.4140 C   0  0  0  0  0  0  0  0  0  0  0  0
  190.4430  176.7890  135.7580 C   0  0  0  0  0  3  0  0  0  0  0  0
  195.2070  176.4180  135.1690 C   0  0  0  0  0  0  0  0  0  0  0  0
  195.1800  175.1140  134.6720 C   0  0  0  0  0  3  0  0  0  0  0  0
  193.2480  175.9490  136.5390 C   0  0  0  0  0  0  0  0  0  0  0  0
  194.1890  174.2260  135.0960 C   0  0  0  0  0  3  0  0  0  0  0  0
  194.2440  176.8330  136.0930 C   0  0  0  0  0  3  0  0  0  0  0  0
  193.2270  174.6430  136.0210 C   0  0  0  0  0  3  0  0  0  0  0  0
  196.1640  177.2810  134.7550 F   0  0  0  0  0  0  0  0  0  0  0  0
  189.7200  178.1270  144.3800 C   0  0  1  0  0  3  0  0  0  0  0  0
  188.4590  177.8360  143.8910 C   0  0  2  0  0  3  0  0  0  0  0  0
  188.8190  177.2830  145.2520 C   0  0  2  0  0  3  0  0  0  0  0  0
  189.6170  177.6610  142.9650 N   0  0  0  0  0  0  0  0  0  0  0  0
  188.2060  178.1450  146.3460 C   0  0  1  0  0  3  0  0  0  0  0  0
  186.8910  177.7270  146.5680 O   0  0  0  0  0  1  0  0  0  0  0  0
  189.9480  176.8400  147.5910 C   0  0  0  0  0  1  0  0  0  0  0  0
  189.0130  178.0360  147.6410 C   0  0  0  0  0  3  0  0  0  0  0  0
  188.0950  177.8740  148.8410 C   0  0  0  0  0  1  0  0  0  0  0  0
  1  8  1  0  0  0  0
  2 13  2  0  0  0  0
  3 17  1  0  0  0  0
  4  9  1  0  0  0  0
  5  6  2  0  0  0  0
  6  2  1  0  0  0  0
  7 16  2  0  0  0  0
  8  3  2  0  0  0  0
  8  2  1  0  0  0  0
  9 16  1  0  0  0  0
 10  1  2  0  0  0  0
 10  5  1  0  0  0  0
 11 15  1  0  0  0  0
 11  3  1  0  0  0  0
 12 18  1  0  0  0  0
 12  1  1  0  0  0  0
 13  7  1  0  0  0  0
 14  4  1  0  0  0  0
 15 14  2  0  0  0  0
 16 29  1  0  0  0  0
 17  4  2  0  0  0  0
 17  7  1  0  0  0  0
 18 11  2  0  0  0  0
 19 23  1  0  0  0  0
 20 22  1  0  0  0  0
 20 19  2  0  0  0  0
 21 15  1  0  0  0  0
 22 24  2  0  0  0  0
 23 21  2  0  0  0  0
 24 21  1  0  0  0  0
 25 19  1  0  0  0  0
 26 29  1  6  0  0  0
 26 28  1  0  0  0  0
 27 29  1  6  0  0  0
 27 26  1  0  0  0  0
 27 28  1  0  0  0  0
 28 30  1  1  0  0  0
 30 31  1  1  0  0  0
 30 33  1  0  0  0  0
 32 33  1  0  0  0  0
 33 34  1  0  0  0  0
M  END
>  <MODEL>
9

>  <REMARK>
 VINA RESULT:      -8.5      4.355     10.055
  Name = 
  4 active torsions:
  status: ('A' for Active; 'I' for Inactive)
    1  A    between atoms: C_12  and  C_28
    2  A    between atoms: C_13  and  C_14
    3  A    between atoms: C_14  and  C_22
    4  A    between atoms: N_17  and  C_29
                            x       y       z     vdW  Elec       q    Type
                         _______ _______ _______ _____ _____    ______ ____

>  <TORSDO>
F 4

$$$$
