=
 OpenBabel11052413503D

 27 31  0  0  1  0  0  0  0  0999 V2000
  191.0860  177.8450  140.2920 C   0  0  0  0  0  2  0  0  0  0  0  0
  188.9110  177.6420  139.0590 C   0  0  0  0  0  0  0  0  0  0  0  0
  188.5140  177.8400  141.5980 C   0  0  0  0  0  2  0  0  0  0  0  0
  184.5580  178.9020  138.4290 S   0  0  0  0  0  0  0  0  0  0  0  0
  183.3810  177.8970  140.6900 C   0  0  0  0  0  1  0  0  0  0  0  0
  188.4100  177.7650  137.7490 C   0  0  0  0  0  3  0  0  0  0  0  0
  185.7010  178.6370  140.8500 N   0  0  0  0  0  0  0  0  0  0  0  0
  189.5140  176.8710  145.4970 O   0  0  0  0  0  0  0  0  0  0  0  0
  185.9240  178.8660  142.2700 C   0  0  0  0  0  1  0  0  0  0  0  0
  189.9190  176.9330  144.3080 C   0  0  0  0  0  0  0  0  0  0  0  0
  186.7120  178.3210  139.8910 C   0  0  0  0  0  0  0  0  0  0  0  0
  190.2870  177.2310  139.2340 N   0  0  0  0  0  0  0  0  0  0  0  0
  184.4000  178.9360  140.2580 C   0  0  1  0  0  3  0  0  0  0  0  0
  186.2620  178.4120  138.5920 C   0  0  0  0  0  0  0  0  0  0  0  0
  190.9290  177.0700  141.5970 C   0  0  1  0  0  3  0  0  0  0  0  0
  188.0460  177.9200  140.1650 C   0  0  0  0  0  0  0  0  0  0  0  0
  189.2650  176.0890  143.2550 C   0  0  0  0  0  2  0  0  0  0  0  0
  187.0910  178.1440  137.5110 C   0  0  0  0  0  3  0  0  0  0  0  0
  191.0560  177.8020  143.9710 C   0  0  0  0  0  3  0  0  0  0  0  0
  191.5100  177.8850  142.7200 C   0  0  0  0  0  3  0  0  0  0  0  0
  189.4590  176.6710  141.8510 C   0  0  1  0  0  3  0  0  0  0  0  0
  192.0450  174.1250  136.9130 C   0  0  0  0  0  3  0  0  0  0  0  0
  190.8780  176.1840  138.4320 C   0  0  0  0  0  0  0  0  0  0  0  0
  190.0820  175.1820  137.8530 C   0  0  0  0  0  3  0  0  0  0  0  0
  190.6610  174.1600  137.0970 C   0  0  0  0  0  3  0  0  0  0  0  0
  192.8510  175.1100  137.4880 C   0  0  0  0  0  3  0  0  0  0  0  0
  192.2710  176.1320  138.2460 C   0  0  0  0  0  3  0  0  0  0  0  0
  2 12  1  0  0  0  0
  2 16  1  0  0  0  0
  4 14  1  0  0  0  0
  4 13  1  0  0  0  0
  6  2  2  0  0  0  0
  7  9  1  0  0  0  0
 10  8  2  0  0  0  0
 11 16  2  0  0  0  0
 11  7  1  0  0  0  0
 12  1  1  0  0  0  0
 13  5  1  6  0  0  0
 13  7  1  0  0  0  0
 14 11  1  0  0  0  0
 15  1  1  6  0  0  0
 15 21  1  0  0  0  0
 15 20  1  0  0  0  0
 16  3  1  0  0  0  0
 17 10  1  0  0  0  0
 18  6  1  0  0  0  0
 18 14  2  0  0  0  0
 19 10  1  0  0  0  0
 20 19  2  0  0  0  0
 21  3  1  1  0  0  0
 21 17  1  0  0  0  0
 22 25  2  0  0  0  0
 22 26  1  0  0  0  0
 23 12  1  0  0  0  0
 24 23  2  0  0  0  0
 25 24  1  0  0  0  0
 26 27  2  0  0  0  0
 27 23  1  0  0  0  0
M  END
>  <MODEL>
1

>  <REMARK>
 VINA RESULT:      -7.6      0.000      0.000
  Name = 
  1 active torsions:
  status: ('A' for Active; 'I' for Inactive)
    1  A    between atoms: C_9  and  N_15
                            x       y       z     vdW  Elec       q    Type
                         _______ _______ _______ _____ _____    ______ ____

>  <TORSDO>
F 1

$$$$
=
 OpenBabel11052413503D

 27 31  0  0  1  0  0  0  0  0999 V2000
  184.0430  179.3780  141.6640 C   0  0  0  0  0  2  0  0  0  0  0  0
  186.2490  178.5810  140.7740 C   0  0  0  0  0  0  0  0  0  0  0  0
  184.3240  177.9170  139.1930 C   0  0  0  0  0  2  0  0  0  0  0  0
  189.1390  177.9430  137.2850 S   0  0  0  0  0  0  0  0  0  0  0  0
  187.8500  175.9760  135.8800 C   0  0  0  0  0  1  0  0  0  0  0  0
  187.6240  178.8110  140.9660 C   0  0  0  0  0  3  0  0  0  0  0  0
  186.4800  177.5790  137.1070 N   0  0  0  0  0  0  0  0  0  0  0  0
  180.4850  176.4990  138.5730 O   0  0  0  0  0  0  0  0  0  0  0  0
  185.1650  177.5030  136.4850 C   0  0  0  0  0  1  0  0  0  0  0  0
  181.2710  177.0380  139.3940 C   0  0  0  0  0  0  0  0  0  0  0  0
  186.7400  177.9950  138.4500 C   0  0  0  0  0  0  0  0  0  0  0  0
  185.3550  178.7780  141.8950 N   0  0  0  0  0  0  0  0  0  0  0  0
  187.6830  177.4260  136.2940 C   0  0  1  0  0  3  0  0  0  0  0  0
  188.0780  178.2170  138.6880 C   0  0  0  0  0  0  0  0  0  0  0  0
  183.0160  178.3010  141.3290 C   0  0  1  0  0  3  0  0  0  0  0  0
  185.7850  178.1570  139.4870 C   0  0  0  0  0  0  0  0  0  0  0  0
  182.4970  176.3010  139.8430 C   0  0  0  0  0  2  0  0  0  0  0  0
  188.5400  178.6280  139.9320 C   0  0  0  0  0  3  0  0  0  0  0  0
  180.9570  178.3680  139.9340 C   0  0  0  0  0  3  0  0  0  0  0  0
  181.7680  178.9640  140.8090 C   0  0  0  0  0  3  0  0  0  0  0  0
  183.5850  177.2530  140.3490 C   0  0  1  0  0  3  0  0  0  0  0  0
  186.4030  177.5220  145.8260 C   0  0  0  0  0  3  0  0  0  0  0  0
  185.6970  178.3410  143.2290 C   0  0  0  0  0  0  0  0  0  0  0  0
  184.9560  178.7720  144.3420 C   0  0  0  0  0  3  0  0  0  0  0  0
  185.3040  178.3630  145.6320 C   0  0  0  0  0  3  0  0  0  0  0  0
  187.1540  177.0920  144.7300 C   0  0  0  0  0  3  0  0  0  0  0  0
  186.8050  177.5020  143.4400 C   0  0  0  0  0  3  0  0  0  0  0  0
  1 12  1  0  0  0  0
  2  6  1  0  0  0  0
  2 12  1  0  0  0  0
  3 16  1  0  0  0  0
  4 14  1  0  0  0  0
  7 11  1  0  0  0  0
  8 10  2  0  0  0  0
  9  7  1  0  0  0  0
 10 17  1  0  0  0  0
 10 19  1  0  0  0  0
 11 14  2  0  0  0  0
 11 16  1  0  0  0  0
 12 23  1  0  0  0  0
 13  5  1  1  0  0  0
 13  7  1  0  0  0  0
 13  4  1  0  0  0  0
 14 18  1  0  0  0  0
 15 20  1  6  0  0  0
 15  1  1  0  0  0  0
 16  2  2  0  0  0  0
 17 21  1  0  0  0  0
 18  6  2  0  0  0  0
 19 20  2  0  0  0  0
 21  3  1  6  0  0  0
 21 15  1  0  0  0  0
 23 27  2  0  0  0  0
 23 24  1  0  0  0  0
 24 25  2  0  0  0  0
 25 22  1  0  0  0  0
 26 22  2  0  0  0  0
 27 26  1  0  0  0  0
M  END
>  <MODEL>
2

>  <REMARK>
 VINA RESULT:      -7.0      3.688      7.290
  Name = 
  1 active torsions:
  status: ('A' for Active; 'I' for Inactive)
    1  A    between atoms: C_9  and  N_15
                            x       y       z     vdW  Elec       q    Type
                         _______ _______ _______ _____ _____    ______ ____

>  <TORSDO>
F 1

$$$$
=
 OpenBabel11052413503D

 27 31  0  0  1  0  0  0  0  0999 V2000
  188.6190  178.4310  139.0730 C   0  0  0  0  0  2  0  0  0  0  0  0
  190.7800  177.1610  138.9880 C   0  0  0  0  0  0  0  0  0  0  0  0
  189.3180  176.6280  136.9330 C   0  0  0  0  0  2  0  0  0  0  0  0
  194.3820  175.5840  136.6510 S   0  0  0  0  0  0  0  0  0  0  0  0
  193.1980  173.6940  135.0590 C   0  0  0  0  0  1  0  0  0  0  0  0
  192.0530  177.1780  139.5880 C   0  0  0  0  0  3  0  0  0  0  0  0
  191.8800  175.6550  135.6680 N   0  0  0  0  0  0  0  0  0  0  0  0
  185.6310  175.8110  135.2370 O   0  0  0  0  0  0  0  0  0  0  0  0
  190.8220  175.7200  134.6700 C   0  0  0  0  0  1  0  0  0  0  0  0
  186.2300  176.3140  136.2220 C   0  0  0  0  0  0  0  0  0  0  0  0
  191.8080  176.1960  136.9890 C   0  0  0  0  0  0  0  0  0  0  0  0
  189.6530  177.6540  139.7510 N   0  0  0  0  0  0  0  0  0  0  0  0
  193.2120  175.1940  135.2910 C   0  0  1  0  0  3  0  0  0  0  0  0
  193.0320  176.2180  137.6220 C   0  0  0  0  0  0  0  0  0  0  0  0
  187.5410  177.5100  138.5110 C   0  0  1  0  0  3  0  0  0  0  0  0
  190.6430  176.6540  137.6560 C   0  0  0  0  0  0  0  0  0  0  0  0
  187.0920  175.4460  137.0890 C   0  0  0  0  0  2  0  0  0  0  0  0
  193.1770  176.7060  138.9130 C   0  0  0  0  0  3  0  0  0  0  0  0
  186.0460  177.7380  136.5350 C   0  0  0  0  0  3  0  0  0  0  0  0
  186.6650  178.2980  137.5750 C   0  0  0  0  0  3  0  0  0  0  0  0
  188.1510  176.2590  137.8420 C   0  0  1  0  0  3  0  0  0  0  0  0
  189.1240  176.7280  143.8730 C   0  0  0  0  0  3  0  0  0  0  0  0
  189.4890  177.3470  141.1530 C   0  0  0  0  0  0  0  0  0  0  0  0
  190.1980  176.2910  141.7490 C   0  0  0  0  0  3  0  0  0  0  0  0
  190.0190  175.9840  143.1000 C   0  0  0  0  0  3  0  0  0  0  0  0
  188.4060  177.7770  143.2930 C   0  0  0  0  0  3  0  0  0  0  0  0
  188.5850  178.0820  141.9400 C   0  0  0  0  0  3  0  0  0  0  0  0
  1 12  1  0  0  0  0
  2  6  1  0  0  0  0
  2 12  1  0  0  0  0
  3 16  1  0  0  0  0
  4 14  1  0  0  0  0
  7 11  1  0  0  0  0
  8 10  2  0  0  0  0
  9  7  1  0  0  0  0
 10 19  1  0  0  0  0
 10 17  1  0  0  0  0
 11 14  2  0  0  0  0
 11 16  1  0  0  0  0
 12 23  1  0  0  0  0
 13  5  1  1  0  0  0
 13  7  1  0  0  0  0
 13  4  1  0  0  0  0
 14 18  1  0  0  0  0
 15 20  1  6  0  0  0
 15  1  1  0  0  0  0
 16  2  2  0  0  0  0
 17 21  1  0  0  0  0
 18  6  2  0  0  0  0
 19 20  2  0  0  0  0
 21  3  1  6  0  0  0
 21 15  1  0  0  0  0
 23 24  2  0  0  0  0
 23 27  1  0  0  0  0
 24 25  1  0  0  0  0
 25 22  2  0  0  0  0
 26 22  1  0  0  0  0
 27 26  2  0  0  0  0
M  END
>  <MODEL>
3

>  <REMARK>
 VINA RESULT:      -6.8      3.504      7.133
  Name = 
  1 active torsions:
  status: ('A' for Active; 'I' for Inactive)
    1  A    between atoms: C_9  and  N_15
                            x       y       z     vdW  Elec       q    Type
                         _______ _______ _______ _____ _____    ______ ____

>  <TORSDO>
F 1

$$$$
=
 OpenBabel11052413503D

 27 31  0  0  1  0  0  0  0  0999 V2000
  187.0200  178.5290  136.9240 C   0  0  0  0  0  2  0  0  0  0  0  0
  186.9850  178.1360  139.4010 C   0  0  0  0  0  0  0  0  0  0  0  0
  189.1230  177.1580  138.3440 C   0  0  0  0  0  2  0  0  0  0  0  0
  189.1170  178.0400  143.4470 S   0  0  0  0  0  0  0  0  0  0  0  0
  190.7810  175.8880  143.1210 C   0  0  0  0  0  1  0  0  0  0  0  0
  186.3130  178.6020  140.5470 C   0  0  0  0  0  3  0  0  0  0  0  0
  190.2420  177.2180  141.1470 N   0  0  0  0  0  0  0  0  0  0  0  0
  191.0320  175.0960  135.3050 O   0  0  0  0  0  0  0  0  0  0  0  0
  191.3000  176.9180  140.1920 C   0  0  0  0  0  1  0  0  0  0  0  0
  190.0130  175.7580  135.6270 C   0  0  0  0  0  0  0  0  0  0  0  0
  188.9250  177.6630  140.8140 C   0  0  0  0  0  0  0  0  0  0  0  0
  186.2860  178.1660  138.1340 N   0  0  0  0  0  0  0  0  0  0  0  0
  190.5430  177.2840  142.5740 C   0  0  1  0  0  3  0  0  0  0  0  0
  188.2230  178.1140  141.9100 C   0  0  0  0  0  0  0  0  0  0  0  0
  187.6470  177.2920  136.2880 C   0  0  1  0  0  3  0  0  0  0  0  0
  188.3250  177.6470  139.5290 C   0  0  0  0  0  0  0  0  0  0  0  0
  189.1000  175.2430  136.7000 C   0  0  0  0  0  2  0  0  0  0  0  0
  186.9230  178.5890  141.7990 C   0  0  0  0  0  3  0  0  0  0  0  0
  189.7050  177.0080  134.9190 C   0  0  0  0  0  3  0  0  0  0  0  0
  188.6290  177.7300  135.2350 C   0  0  0  0  0  3  0  0  0  0  0  0
  188.2850  176.3670  137.3470 C   0  0  1  0  0  3  0  0  0  0  0  0
  182.1890  177.0720  137.7560 C   0  0  0  0  0  3  0  0  0  0  0  0
  184.8970  177.7860  138.0200 C   0  0  0  0  0  0  0  0  0  0  0  0
  184.5340  176.5010  137.5810 C   0  0  0  0  0  3  0  0  0  0  0  0
  183.1900  176.1450  137.4520 C   0  0  0  0  0  3  0  0  0  0  0  0
  182.5350  178.3550  138.1850 C   0  0  0  0  0  3  0  0  0  0  0  0
  183.8810  178.7110  138.3130 C   0  0  0  0  0  3  0  0  0  0  0  0
  1 12  1  0  0  0  0
  2 16  2  0  0  0  0
  2  6  1  0  0  0  0
  3 16  1  0  0  0  0
  6 18  2  0  0  0  0
  7 13  1  0  0  0  0
  8 10  2  0  0  0  0
  9  7  1  0  0  0  0
 10 17  1  0  0  0  0
 11  7  1  0  0  0  0
 11 14  2  0  0  0  0
 12  2  1  0  0  0  0
 13  5  1  1  0  0  0
 13  4  1  0  0  0  0
 14  4  1  0  0  0  0
 15 20  1  6  0  0  0
 15  1  1  0  0  0  0
 15 21  1  0  0  0  0
 16 11  1  0  0  0  0
 18 14  1  0  0  0  0
 19 20  2  0  0  0  0
 19 10  1  0  0  0  0
 21 17  1  6  0  0  0
 21  3  1  0  0  0  0
 22 26  1  0  0  0  0
 23 12  1  0  0  0  0
 23 27  1  0  0  0  0
 24 23  2  0  0  0  0
 25 24  1  0  0  0  0
 25 22  2  0  0  0  0
 26 27  2  0  0  0  0
M  END
>  <MODEL>
4

>  <REMARK>
 VINA RESULT:      -6.5      3.054      6.676
  Name = 
  1 active torsions:
  status: ('A' for Active; 'I' for Inactive)
    1  A    between atoms: C_9  and  N_15
                            x       y       z     vdW  Elec       q    Type
                         _______ _______ _______ _____ _____    ______ ____

>  <TORSDO>
F 1

$$$$
=
 OpenBabel11052413503D

 27 31  0  0  1  0  0  0  0  0999 V2000
  181.7590  176.9590  140.1400 C   0  0  0  0  0  2  0  0  0  0  0  0
  181.1430  179.3740  139.8570 C   0  0  0  0  0  0  0  0  0  0  0  0
  181.9350  178.3580  137.6240 C   0  0  0  0  0  2  0  0  0  0  0  0
  179.1460  182.7190  137.4590 S   0  0  0  0  0  0  0  0  0  0  0  0
  180.8050  182.8770  135.2840 C   0  0  0  0  0  1  0  0  0  0  0  0
  180.4340  180.3820  140.5370 C   0  0  0  0  0  3  0  0  0  0  0  0
  180.5220  180.6960  136.3400 N   0  0  0  0  0  0  0  0  0  0  0  0
  184.5240  175.9550  135.4650 O   0  0  0  0  0  0  0  0  0  0  0  0
  180.9200  179.7320  135.3240 C   0  0  0  0  0  1  0  0  0  0  0  0
  184.0430  176.2030  136.6010 C   0  0  0  0  0  0  0  0  0  0  0  0
  180.5610  180.4770  137.7520 C   0  0  0  0  0  0  0  0  0  0  0  0
  181.7770  178.3320  140.6370 N   0  0  0  0  0  0  0  0  0  0  0  0
  179.8330  181.9230  135.9540 C   0  0  1  0  0  3  0  0  0  0  0  0
  179.8920  181.4500  138.4610 C   0  0  0  0  0  0  0  0  0  0  0  0
  182.9650  176.7010  139.2420 C   0  0  1  0  0  3  0  0  0  0  0  0
  181.2190  179.4160  138.4280 C   0  0  0  0  0  0  0  0  0  0  0  0
  184.2910  177.5380  137.2370 C   0  0  0  0  0  2  0  0  0  0  0  0
  179.8120  181.4200  139.8460 C   0  0  0  0  0  3  0  0  0  0  0  0
  183.2800  175.1670  137.3090 C   0  0  0  0  0  3  0  0  0  0  0  0
  182.7620  175.3980  138.5160 C   0  0  0  0  0  3  0  0  0  0  0  0
  183.2250  177.8820  138.2820 C   0  0  1  0  0  3  0  0  0  0  0  0
  183.8460  179.1350  144.2700 C   0  0  0  0  0  3  0  0  0  0  0  0
  182.4810  178.6210  141.8660 C   0  0  0  0  0  0  0  0  0  0  0  0
  183.8800  178.7480  141.8820 C   0  0  0  0  0  3  0  0  0  0  0  0
  184.5590  179.0060  143.0760 C   0  0  0  0  0  3  0  0  0  0  0  0
  182.4550  179.0040  144.2710 C   0  0  0  0  0  3  0  0  0  0  0  0
  181.7770  178.7450  143.0760 C   0  0  0  0  0  3  0  0  0  0  0  0
  1 12  1  0  0  0  0
  2  6  1  0  0  0  0
  2 12  1  0  0  0  0
  3 21  1  0  0  0  0
  3 16  1  0  0  0  0
  4 14  1  0  0  0  0
  7 11  1  0  0  0  0
  8 10  2  0  0  0  0
  9  7  1  0  0  0  0
 10 17  1  0  0  0  0
 10 19  1  0  0  0  0
 11 16  1  0  0  0  0
 11 14  2  0  0  0  0
 12 23  1  0  0  0  0
 13  5  1  1  0  0  0
 13  7  1  0  0  0  0
 13  4  1  0  0  0  0
 14 18  1  0  0  0  0
 15 20  1  6  0  0  0
 15  1  1  0  0  0  0
 16  2  2  0  0  0  0
 18  6  2  0  0  0  0
 19 20  2  0  0  0  0
 21 17  1  6  0  0  0
 21 15  1  0  0  0  0
 22 26  1  0  0  0  0
 23 24  2  0  0  0  0
 23 27  1  0  0  0  0
 24 25  1  0  0  0  0
 25 22  2  0  0  0  0
 27 26  2  0  0  0  0
M  END
>  <MODEL>
5

>  <REMARK>
 VINA RESULT:      -6.5      6.135      9.003
  Name = 
  1 active torsions:
  status: ('A' for Active; 'I' for Inactive)
    1  A    between atoms: C_9  and  N_15
                            x       y       z     vdW  Elec       q    Type
                         _______ _______ _______ _____ _____    ______ ____

>  <TORSDO>
F 1

$$$$
=
 OpenBabel11052413503D

 27 31  0  0  1  0  0  0  0  0999 V2000
  189.2690  177.2270  136.2500 C   0  0  0  0  0  2  0  0  0  0  0  0
  188.6750  177.3280  138.6850 C   0  0  0  0  0  0  0  0  0  0  0  0
  191.1050  176.5320  138.3630 C   0  0  0  0  0  2  0  0  0  0  0  0
  189.7480  178.3850  143.0050 S   0  0  0  0  0  0  0  0  0  0  0  0
  191.6800  176.5190  143.5450 C   0  0  0  0  0  1  0  0  0  0  0  0
  187.6940  177.8910  139.5220 C   0  0  0  0  0  3  0  0  0  0  0  0
  191.4900  177.3260  141.2500 N   0  0  0  0  0  0  0  0  0  0  0  0
  193.9270  174.2600  136.3600 O   0  0  0  0  0  0  0  0  0  0  0  0
  192.7760  177.0250  140.6380 C   0  0  0  0  0  1  0  0  0  0  0  0
  192.7900  174.7930  136.2950 C   0  0  0  0  0  0  0  0  0  0  0  0
  190.2520  177.4710  140.5500 C   0  0  0  0  0  0  0  0  0  0  0  0
  188.3090  176.9920  137.3250 N   0  0  0  0  0  0  0  0  0  0  0  0
  191.4230  177.7200  142.6540 C   0  0  1  0  0  3  0  0  0  0  0  0
  189.2550  178.0050  141.3370 C   0  0  0  0  0  0  0  0  0  0  0  0
  190.1720  176.0110  136.0650 C   0  0  1  0  0  3  0  0  0  0  0  0
  189.9900  177.1040  139.2050 C   0  0  0  0  0  0  0  0  0  0  0  0
  191.7080  174.3540  137.2370 C   0  0  0  0  0  2  0  0  0  0  0  0
  187.9760  178.2270  140.8440 C   0  0  0  0  0  3  0  0  0  0  0  0
  192.5210  175.8110  135.2700 C   0  0  0  0  0  3  0  0  0  0  0  0
  191.3240  176.3910  135.1740 C   0  0  0  0  0  3  0  0  0  0  0  0
  190.6350  175.4320  137.4190 C   0  0  1  0  0  3  0  0  0  0  0  0
  184.5930  175.1630  136.3400 C   0  0  0  0  0  3  0  0  0  0  0  0
  187.0440  176.3700  137.0080 C   0  0  0  0  0  0  0  0  0  0  0  0
  186.8420  174.9960  137.2190 C   0  0  0  0  0  3  0  0  0  0  0  0
  185.6240  174.3960  136.8900 C   0  0  0  0  0  3  0  0  0  0  0  0
  184.7820  176.5280  136.1180 C   0  0  0  0  0  3  0  0  0  0  0  0
  186.0020  177.1280  136.4460 C   0  0  0  0  0  3  0  0  0  0  0  0
  1 12  1  0  0  0  0
  2 16  2  0  0  0  0
  2  6  1  0  0  0  0
  3 16  1  0  0  0  0
  6 18  2  0  0  0  0
  7 13  1  0  0  0  0
  9  7  1  0  0  0  0
 10  8  2  0  0  0  0
 10 17  1  0  0  0  0
 11  7  1  0  0  0  0
 11 14  2  0  0  0  0
 12  2  1  0  0  0  0
 13  4  1  0  0  0  0
 13  5  1  1  0  0  0
 14  4  1  0  0  0  0
 15 20  1  6  0  0  0
 15  1  1  0  0  0  0
 15 21  1  0  0  0  0
 16 11  1  0  0  0  0
 18 14  1  0  0  0  0
 19 10  1  0  0  0  0
 20 19  2  0  0  0  0
 21 17  1  6  0  0  0
 21  3  1  0  0  0  0
 22 25  1  0  0  0  0
 23 24  1  0  0  0  0
 23 12  1  0  0  0  0
 25 24  2  0  0  0  0
 26 22  2  0  0  0  0
 26 27  1  0  0  0  0
 27 23  2  0  0  0  0
M  END
>  <MODEL>
6

>  <REMARK>
 VINA RESULT:      -6.5      3.132      6.148
  Name = 
  1 active torsions:
  status: ('A' for Active; 'I' for Inactive)
    1  A    between atoms: C_9  and  N_15
                            x       y       z     vdW  Elec       q    Type
                         _______ _______ _______ _____ _____    ______ ____

>  <TORSDO>
F 1

$$$$
=
 OpenBabel11052413503D

 27 31  0  0  1  0  0  0  0  0999 V2000
  189.0340  178.6880  140.7610 C   0  0  0  0  0  2  0  0  0  0  0  0
  186.7080  178.4040  139.8650 C   0  0  0  0  0  0  0  0  0  0  0  0
  186.7280  178.2560  142.4380 C   0  0  0  0  0  2  0  0  0  0  0  0
  182.2210  179.2630  140.0940 S   0  0  0  0  0  0  0  0  0  0  0  0
  181.5290  177.8780  142.3550 C   0  0  0  0  0  1  0  0  0  0  0  0
  185.9870  178.6270  138.6780 C   0  0  0  0  0  3  0  0  0  0  0  0
  183.7710  178.8350  142.2500 N   0  0  0  0  0  0  0  0  0  0  0  0
  188.4460  176.9440  145.9690 O   0  0  0  0  0  0  0  0  0  0  0  0
  184.2100  178.9160  143.6360 C   0  0  0  0  0  1  0  0  0  0  0  0
  188.6390  177.1890  144.7500 C   0  0  0  0  0  0  0  0  0  0  0  0
  184.6310  178.7430  141.1120 C   0  0  0  0  0  0  0  0  0  0  0  0
  188.1250  178.1230  139.7670 N   0  0  0  0  0  0  0  0  0  0  0  0
  182.3690  179.0620  141.9130 C   0  0  1  0  0  3  0  0  0  0  0  0
  183.9630  178.9390  139.9230 C   0  0  0  0  0  0  0  0  0  0  0  0
  189.1650  177.7520  141.9580 C   0  0  1  0  0  3  0  0  0  0  0  0
  186.0210  178.4560  141.1200 C   0  0  0  0  0  0  0  0  0  0  0  0
  187.8920  176.4110  143.7080 C   0  0  0  0  0  2  0  0  0  0  0  0
  184.6190  178.8910  138.7010 C   0  0  0  0  0  3  0  0  0  0  0  0
  189.6250  178.2060  144.3610 C   0  0  0  0  0  3  0  0  0  0  0  0
  189.8550  178.4850  143.0770 C   0  0  0  0  0  3  0  0  0  0  0  0
  187.7980  177.1720  142.3820 C   0  0  1  0  0  3  0  0  0  0  0  0
  189.7200  175.5120  136.8060 C   0  0  0  0  0  3  0  0  0  0  0  0
  188.6600  177.2470  138.7500 C   0  0  0  0  0  0  0  0  0  0  0  0
  187.8210  176.3770  138.0330 C   0  0  0  0  0  3  0  0  0  0  0  0
  188.3460  175.5170  137.0650 C   0  0  0  0  0  3  0  0  0  0  0  0
  190.5670  176.3650  137.5170 C   0  0  0  0  0  3  0  0  0  0  0  0
  190.0400  177.2250  138.4860 C   0  0  0  0  0  3  0  0  0  0  0  0
  2 16  1  0  0  0  0
  4 13  1  0  0  0  0
  6 18  1  0  0  0  0
  6  2  2  0  0  0  0
  7  9  1  0  0  0  0
 10  8  2  0  0  0  0
 11 16  2  0  0  0  0
 11  7  1  0  0  0  0
 12  2  1  0  0  0  0
 12  1  1  0  0  0  0
 13  7  1  0  0  0  0
 13  5  1  6  0  0  0
 14  4  1  0  0  0  0
 14 11  1  0  0  0  0
 15  1  1  6  0  0  0
 15 21  1  0  0  0  0
 15 20  1  0  0  0  0
 16  3  1  0  0  0  0
 17 10  1  0  0  0  0
 18 14  2  0  0  0  0
 19 10  1  0  0  0  0
 20 19  2  0  0  0  0
 21  3  1  1  0  0  0
 21 17  1  0  0  0  0
 22 25  2  0  0  0  0
 22 26  1  0  0  0  0
 23 12  1  0  0  0  0
 24 23  2  0  0  0  0
 25 24  1  0  0  0  0
 26 27  2  0  0  0  0
 27 23  1  0  0  0  0
M  END
>  <MODEL>
7

>  <REMARK>
 VINA RESULT:      -6.4      1.651      2.322
  Name = 
  1 active torsions:
  status: ('A' for Active; 'I' for Inactive)
    1  A    between atoms: C_9  and  N_15
                            x       y       z     vdW  Elec       q    Type
                         _______ _______ _______ _____ _____    ______ ____

>  <TORSDO>
F 1

$$$$
=
 OpenBabel11052413503D

 27 31  0  0  1  0  0  0  0  0999 V2000
  183.9260  179.6090  139.6600 C   0  0  0  0  0  2  0  0  0  0  0  0
  186.1650  178.5750  140.1220 C   0  0  0  0  0  0  0  0  0  0  0  0
  185.1340  177.6130  137.9650 C   0  0  0  0  0  2  0  0  0  0  0  0
  190.2370  177.0820  138.6690 S   0  0  0  0  0  0  0  0  0  0  0  0
  189.5070  174.8760  137.2160 C   0  0  0  0  0  1  0  0  0  0  0  0
  187.3070  178.8090  140.9100 C   0  0  0  0  0  3  0  0  0  0  0  0
  187.9480  176.7510  137.2950 N   0  0  0  0  0  0  0  0  0  0  0  0
  181.8800  176.1850  135.8400 O   0  0  0  0  0  0  0  0  0  0  0  0
  187.0800  176.5660  136.1410 C   0  0  0  0  0  1  0  0  0  0  0  0
  182.2550  176.8790  136.8200 C   0  0  0  0  0  0  0  0  0  0  0  0
  187.6030  177.4590  138.4880 C   0  0  0  0  0  0  0  0  0  0  0  0
  184.8850  179.0470  140.6080 N   0  0  0  0  0  0  0  0  0  0  0  0
  189.3590  176.3860  137.2140 C   0  0  1  0  0  3  0  0  0  0  0  0
  188.6900  177.6970  139.2990 C   0  0  0  0  0  0  0  0  0  0  0  0
  183.0420  178.5100  139.0800 C   0  0  1  0  0  3  0  0  0  0  0  0
  186.3050  177.8780  138.8800 C   0  0  0  0  0  0  0  0  0  0  0  0
  183.0190  176.2350  137.9390 C   0  0  0  0  0  2  0  0  0  0  0  0
  188.5670  178.3710  140.5060 C   0  0  0  0  0  3  0  0  0  0  0  0
  181.9040  178.3050  136.8770 C   0  0  0  0  0  3  0  0  0  0  0  0
  182.2830  179.0650  137.9050 C   0  0  0  0  0  3  0  0  0  0  0  0
  183.8590  177.2510  138.7180 C   0  0  1  0  0  3  0  0  0  0  0  0
  183.7400  178.6280  144.6870 C   0  0  0  0  0  3  0  0  0  0  0  0
  184.5030  178.9200  141.9960 C   0  0  0  0  0  0  0  0  0  0  0  0
  185.4650  178.6780  142.9900 C   0  0  0  0  0  3  0  0  0  0  0  0
  185.0870  178.5350  144.3270 C   0  0  0  0  0  3  0  0  0  0  0  0
  182.7720  178.8610  143.7080 C   0  0  0  0  0  3  0  0  0  0  0  0
  183.1500  179.0030  142.3700 C   0  0  0  0  0  3  0  0  0  0  0  0
  1 12  1  0  0  0  0
  2 12  1  0  0  0  0
  2  6  1  0  0  0  0
  3 21  1  0  0  0  0
  3 16  1  0  0  0  0
  4 14  1  0  0  0  0
  7 11  1  0  0  0  0
  8 10  2  0  0  0  0
  9  7  1  0  0  0  0
 10 19  1  0  0  0  0
 10 17  1  0  0  0  0
 11 16  1  0  0  0  0
 11 14  2  0  0  0  0
 12 23  1  0  0  0  0
 13  5  1  1  0  0  0
 13  7  1  0  0  0  0
 13  4  1  0  0  0  0
 14 18  1  0  0  0  0
 15 20  1  6  0  0  0
 15  1  1  0  0  0  0
 16  2  2  0  0  0  0
 18  6  2  0  0  0  0
 19 20  2  0  0  0  0
 21 17  1  6  0  0  0
 21 15  1  0  0  0  0
 23 27  2  0  0  0  0
 23 24  1  0  0  0  0
 24 25  2  0  0  0  0
 25 22  1  0  0  0  0
 26 22  2  0  0  0  0
 27 26  1  0  0  0  0
M  END
>  <MODEL>
8

>  <REMARK>
 VINA RESULT:      -6.3      3.485      7.907
  Name = 
  1 active torsions:
  status: ('A' for Active; 'I' for Inactive)
    1  A    between atoms: C_9  and  N_15
                            x       y       z     vdW  Elec       q    Type
                         _______ _______ _______ _____ _____    ______ ____

>  <TORSDO>
F 1

$$$$
=
 OpenBabel11052413503D

 27 31  0  0  1  0  0  0  0  0999 V2000
  182.0910  178.9700  140.5190 C   0  0  0  0  0  2  0  0  0  0  0  0
  184.3700  178.2790  139.7300 C   0  0  0  0  0  0  0  0  0  0  0  0
  182.5300  176.9620  138.4950 C   0  0  0  0  0  2  0  0  0  0  0  0
  187.2400  177.1490  136.3510 S   0  0  0  0  0  0  0  0  0  0  0  0
  186.2280  174.7220  135.5820 C   0  0  0  0  0  1  0  0  0  0  0  0
  185.7000  178.7390  139.7700 C   0  0  0  0  0  3  0  0  0  0  0  0
  184.6620  176.3870  136.4380 N   0  0  0  0  0  0  0  0  0  0  0  0
  178.9320  174.9140  138.4990 O   0  0  0  0  0  0  0  0  0  0  0  0
  183.3600  175.9680  135.9390 C   0  0  0  0  0  1  0  0  0  0  0  0
  179.6470  175.7540  139.1030 C   0  0  0  0  0  0  0  0  0  0  0  0
  184.8890  177.1740  137.6090 C   0  0  0  0  0  0  0  0  0  0  0  0
  183.4830  178.6390  140.8150 N   0  0  0  0  0  0  0  0  0  0  0  0
  185.8550  176.1930  135.6190 C   0  0  1  0  0  3  0  0  0  0  0  0
  186.1840  177.6340  137.6990 C   0  0  0  0  0  0  0  0  0  0  0  0
  181.2290  177.7120  140.5370 C   0  0  1  0  0  3  0  0  0  0  0  0
  183.9450  177.4700  138.6270 C   0  0  0  0  0  0  0  0  0  0  0  0
  180.9800  175.3380  139.6510 C   0  0  0  0  0  2  0  0  0  0  0  0
  186.6080  178.4180  138.7640 C   0  0  0  0  0  3  0  0  0  0  0  0
  179.1510  177.1230  139.3010 C   0  0  0  0  0  3  0  0  0  0  0  0
  179.8850  178.0340  139.9420 C   0  0  0  0  0  3  0  0  0  0  0  0
  181.9250  176.5310  139.8260 C   0  0  1  0  0  3  0  0  0  0  0  0
  184.7910  178.6290  144.8670 C   0  0  0  0  0  3  0  0  0  0  0  0
  183.9180  178.6210  142.1930 C   0  0  0  0  0  0  0  0  0  0  0  0
  183.0480  179.0000  143.2290 C   0  0  0  0  0  3  0  0  0  0  0  0
  183.4800  179.0020  144.5580 C   0  0  0  0  0  3  0  0  0  0  0  0
  185.6690  178.2570  143.8470 C   0  0  0  0  0  3  0  0  0  0  0  0
  185.2360  178.2560  142.5170 C   0  0  0  0  0  3  0  0  0  0  0  0
  1 15  1  0  0  0  0
  1 12  1  0  0  0  0
  2  6  1  0  0  0  0
  2 12  1  0  0  0  0
  3 16  1  0  0  0  0
  4 14  1  0  0  0  0
  7 11  1  0  0  0  0
  8 10  2  0  0  0  0
  9  7  1  0  0  0  0
 10 19  1  0  0  0  0
 10 17  1  0  0  0  0
 11 14  2  0  0  0  0
 11 16  1  0  0  0  0
 12 23  1  0  0  0  0
 13  5  1  1  0  0  0
 13  4  1  0  0  0  0
 13  7  1  0  0  0  0
 14 18  1  0  0  0  0
 15 20  1  6  0  0  0
 16  2  2  0  0  0  0
 17 21  1  0  0  0  0
 18  6  2  0  0  0  0
 19 20  2  0  0  0  0
 21  3  1  6  0  0  0
 21 15  1  0  0  0  0
 23 27  2  0  0  0  0
 23 24  1  0  0  0  0
 24 25  2  0  0  0  0
 25 22  1  0  0  0  0
 26 22  2  0  0  0  0
 27 26  1  0  0  0  0
M  END
>  <MODEL>
9

>  <REMARK>
 VINA RESULT:      -6.3      4.788      8.307
  Name = 
  1 active torsions:
  status: ('A' for Active; 'I' for Inactive)
    1  A    between atoms: C_9  and  N_15
                            x       y       z     vdW  Elec       q    Type
                         _______ _______ _______ _____ _____    ______ ____

>  <TORSDO>
F 1

$$$$
