=
 OpenBabel11052417023D

 32 37  0  0  1  0  0  0  0  0999 V2000
  183.6810  177.3940  138.6120 C   0  0  2  0  0  3  0  0  0  0  0  0
  180.6910  179.7430  137.6060 C   0  0  0  0  0  2  0  0  0  0  0  0
  179.0540  178.3840  139.9060 C   0  0  0  0  0  1  0  0  0  0  0  0
  183.9230  179.0150  140.6500 C   0  0  1  0  0  3  0  0  0  0  0  0
  183.8830  179.0050  142.1520 C   0  0  0  0  0  0  0  0  0  0  0  0
  182.6700  175.6930  137.4470 C   0  0  2  0  0  3  0  0  0  0  0  0
  180.6280  177.0710  136.4170 C   0  0  0  0  0  1  0  0  0  0  0  0
  183.7580  178.8400  144.9490 C   0  0  0  0  0  3  0  0  0  0  0  0
  182.9660  177.8870  136.3710 O   0  0  0  0  0  0  0  0  0  0  0  0
  181.0650  179.6130  139.0690 C   0  0  2  0  0  3  0  0  0  0  0  0
  182.6290  178.0380  137.7370 C   0  0  2  0  0  0  0  0  0  0  0  0
  182.1390  179.4830  137.9810 C   0  0  1  0  0  3  0  0  0  0  0  0
  182.3910  177.0010  140.7120 O   0  0  0  0  0  0  0  0  0  0  0  0
  184.9980  178.9210  144.3080 C   0  0  0  0  0  3  0  0  0  0  0  0
  182.0560  176.9750  136.9230 C   0  0  2  0  0  0  0  0  0  0  0  0
  185.0600  178.9970  142.9140 C   0  0  0  0  0  3  0  0  0  0  0  0
  180.5430  178.2840  139.6220 C   0  0  1  0  0  3  0  0  0  0  0  0
  181.2820  177.8690  140.8940 C   0  0  2  0  0  3  0  0  0  0  0  0
  181.3610  178.9240  142.0180 C   0  0  0  0  0  2  0  0  0  0  0  0
  183.7150  176.0050  138.3500 O   0  0  0  0  0  0  0  0  0  0  0  0
  185.1900  179.3670  140.1760 O   0  0  0  0  0  1  0  0  0  0  0  0
  182.5810  178.8330  144.1950 C   0  0  0  0  0  3  0  0  0  0  0  0
  183.5190  177.6330  140.1200 C   0  0  1  0  0  3  0  0  0  0  0  0
  182.6390  178.9020  142.7990 C   0  0  0  0  0  0  0  0  0  0  0  0
  183.2210  174.8300  136.3180 C   0  0  0  0  0  2  0  0  0  0  0  0
  185.4630  175.2360  135.6080 C   0  0  0  0  0  3  0  0  0  0  0  0
  184.6590  174.6680  136.4490 N   0  0  0  0  0  0  0  0  0  0  0  0
  187.4850  174.9190  136.8460 C   0  0  0  0  0  3  0  0  0  0  0  0
  186.8820  175.0840  135.7120 N   0  0  0  0  0  0  0  0  0  0  0  0
  188.9380  174.7660  136.9110 C   0  0  0  0  0  0  0  0  0  0  0  0
  189.5230  173.5120  137.2480 N   0  0  0  0  0  1  0  0  0  0  0  0
  189.6970  175.7790  136.6590 N   0  0  0  0  0  2  0  0  0  0  0  0
  1 20  1  1  0  0  0
  1 23  1  0  0  0  0
  4 21  1  1  0  0  0
  4  5  1  0  0  0  0
  5 24  2  0  0  0  0
  5 16  1  0  0  0  0
  6 25  1  6  0  0  0
  6 20  1  0  0  0  0
  9 15  1  0  0  0  0
 10  2  1  6  0  0  0
 10 17  1  0  0  0  0
 11  9  1  6  0  0  0
 11 12  1  0  0  0  0
 11  1  1  0  0  0  0
 12  2  1  6  0  0  0
 12 10  1  0  0  0  0
 13 18  1  0  0  0  0
 14  8  1  0  0  0  0
 15  7  1  6  0  0  0
 15  6  1  0  0  0  0
 15 11  1  0  0  0  0
 16 14  2  0  0  0  0
 17  3  1  1  0  0  0
 17 18  1  0  0  0  0
 18 19  1  6  0  0  0
 19 24  1  0  0  0  0
 22  8  2  0  0  0  0
 23  4  1  0  0  0  0
 23 13  1  6  0  0  0
 24 22  1  0  0  0  0
 25 27  1  0  0  0  0
 26 29  1  0  0  0  0
 26 27  2  0  0  0  0
 28 30  1  0  0  0  0
 29 28  2  0  0  0  0
 30 31  1  0  0  0  0
 32 30  2  0  0  0  0
M  END
>  <MODEL>
1

>  <REMARK>
 VINA RESULT:      -6.4      0.000      0.000
  Name = 
  4 active torsions:
  status: ('A' for Active; 'I' for Inactive)
    1  A    between atoms: C_1  and  C_10
    2  A    between atoms: C_2  and  N_24
    3  A    between atoms: C_8  and  C_23
    4  A    between atoms: N_19  and  C_23
                            x       y       z     vdW  Elec       q    Type
                         _______ _______ _______ _____ _____    ______ ____

>  <TORSDO>
F 4

$$$$
=
 OpenBabel11052417023D

 32 37  0  0  1  0  0  0  0  0999 V2000
  191.0320  176.1520  138.6200 C   0  0  2  0  0  3  0  0  0  0  0  0
  188.8550  179.0300  137.0560 C   0  0  0  0  0  2  0  0  0  0  0  0
  186.5400  178.0950  138.9500 C   0  0  0  0  0  1  0  0  0  0  0  0
  191.1790  177.7460  140.6880 C   0  0  1  0  0  3  0  0  0  0  0  0
  190.8320  177.7860  142.1490 C   0  0  0  0  0  0  0  0  0  0  0  0
  189.9550  174.6600  137.2470 C   0  0  2  0  0  3  0  0  0  0  0  0
  188.4910  176.3940  135.8400 C   0  0  0  0  0  1  0  0  0  0  0  0
  190.1090  177.7280  144.8580 C   0  0  0  0  0  3  0  0  0  0  0  0
  190.9060  176.7170  136.2880 O   0  0  0  0  0  0  0  0  0  0  0  0
  188.8870  178.8670  138.5630 C   0  0  2  0  0  3  0  0  0  0  0  0
  190.3350  176.9720  137.5560 C   0  0  2  0  0  0  0  0  0  0  0  0
  190.1110  178.4920  137.7170 C   0  0  1  0  0  3  0  0  0  0  0  0
  189.2890  176.0870  140.4040 O   0  0  0  0  0  0  0  0  0  0  0  0
  191.4430  177.5370  144.4870 C   0  0  0  0  0  3  0  0  0  0  0  0
  189.7360  176.0240  136.6270 C   0  0  2  0  0  0  0  0  0  0  0  0
  191.8030  177.5610  143.1370 C   0  0  0  0  0  3  0  0  0  0  0  0
  188.0040  177.6870  138.9760 C   0  0  1  0  0  3  0  0  0  0  0  0
  188.3670  177.1670  140.3670 C   0  0  2  0  0  3  0  0  0  0  0  0
  188.4290  178.2140  141.4990 C   0  0  0  0  0  2  0  0  0  0  0  0
  190.8350  174.7790  138.3490 O   0  0  0  0  0  0  0  0  0  0  0  0
  192.5610  177.8210  140.4900 O   0  0  0  0  0  1  0  0  0  0  0  0
  189.1340  177.9380  143.8790 C   0  0  0  0  0  3  0  0  0  0  0  0
  190.6180  176.4610  140.0650 C   0  0  1  0  0  3  0  0  0  0  0  0
  189.4880  177.9550  142.5260 C   0  0  0  0  0  0  0  0  0  0  0  0
  190.5370  173.6720  136.2420 C   0  0  0  0  0  2  0  0  0  0  0  0
  192.8290  174.0360  135.6840 C   0  0  0  0  0  3  0  0  0  0  0  0
  191.9600  173.4840  136.4700 N   0  0  0  0  0  0  0  0  0  0  0  0
  194.9990  174.8000  136.3390 C   0  0  0  0  0  3  0  0  0  0  0  0
  194.2340  173.8590  135.8840 N   0  0  0  0  0  0  0  0  0  0  0  0
  196.4320  174.5780  136.5300 C   0  0  0  0  0  0  0  0  0  0  0  0
  197.3480  175.6680  136.4960 N   0  0  0  0  0  2  0  0  0  0  0  0
  196.8700  173.3810  136.7330 N   0  0  0  0  0  1  0  0  0  0  0  0
  1 20  1  6  0  0  0
  1 23  1  0  0  0  0
  4 21  1  1  0  0  0
  4  5  1  0  0  0  0
  5 24  2  0  0  0  0
  5 16  1  0  0  0  0
  6 25  1  6  0  0  0
  6 20  1  0  0  0  0
  9 15  1  0  0  0  0
 10  2  1  6  0  0  0
 10 17  1  0  0  0  0
 11  9  1  6  0  0  0
 11 12  1  0  0  0  0
 11  1  1  0  0  0  0
 12  2  1  6  0  0  0
 12 10  1  0  0  0  0
 14  8  1  0  0  0  0
 15  7  1  6  0  0  0
 15  6  1  0  0  0  0
 15 11  1  0  0  0  0
 16 14  2  0  0  0  0
 17  3  1  1  0  0  0
 17 18  1  0  0  0  0
 18 13  1  0  0  0  0
 18 19  1  1  0  0  0
 19 24  1  0  0  0  0
 22  8  2  0  0  0  0
 23 13  1  6  0  0  0
 23  4  1  0  0  0  0
 24 22  1  0  0  0  0
 25 27  1  0  0  0  0
 26 29  1  0  0  0  0
 26 27  2  0  0  0  0
 28 30  1  0  0  0  0
 29 28  2  0  0  0  0
 30 32  1  0  0  0  0
 31 30  2  0  0  0  0
M  END
>  <MODEL>
2

>  <REMARK>
 VINA RESULT:      -6.1      5.192      7.420
  Name = 
  4 active torsions:
  status: ('A' for Active; 'I' for Inactive)
    1  A    between atoms: C_1  and  C_10
    2  A    between atoms: C_2  and  N_24
    3  A    between atoms: C_8  and  C_23
    4  A    between atoms: N_19  and  C_23
                            x       y       z     vdW  Elec       q    Type
                         _______ _______ _______ _____ _____    ______ ____

>  <TORSDO>
F 4

$$$$
=
 OpenBabel11052417023D

 32 37  0  0  1  0  0  0  0  0999 V2000
  185.0130  179.0040  139.1390 C   0  0  2  0  0  3  0  0  0  0  0  0
  184.6760  176.7180  135.9570 C   0  0  0  0  0  2  0  0  0  0  0  0
  183.5710  174.4920  137.8640 C   0  0  0  0  0  1  0  0  0  0  0  0
  182.4120  179.1970  138.9510 C   0  0  1  0  0  3  0  0  0  0  0  0
  181.1670  178.9020  139.7390 C   0  0  0  0  0  0  0  0  0  0  0  0
  186.9610  177.9050  139.6600 C   0  0  2  0  0  3  0  0  0  0  0  0
  187.1410  176.3590  137.4900 C   0  0  0  0  0  1  0  0  0  0  0  0
  178.9310  178.2790  141.3120 C   0  0  0  0  0  3  0  0  0  0  0  0
  186.6380  178.7820  137.3830 O   0  0  0  0  0  0  0  0  0  0  0  0
  183.5130  176.8090  136.9250 C   0  0  2  0  0  3  0  0  0  0  0  0
  185.4300  178.2530  137.8940 C   0  0  2  0  0  0  0  0  0  0  0  0
  184.4490  178.0080  136.7240 C   0  0  1  0  0  3  0  0  0  0  0  0
  183.5300  177.3280  140.2420 O   0  0  0  0  0  0  0  0  0  0  0  0
  179.3710  179.6020  141.2180 C   0  0  0  0  0  3  0  0  0  0  0  0
  186.7170  177.6380  138.1890 C   0  0  2  0  0  0  0  0  0  0  0  0
  180.4890  179.9120  140.4390 C   0  0  0  0  0  3  0  0  0  0  0  0
  183.8050  175.9620  138.1660 C   0  0  1  0  0  3  0  0  0  0  0  0
  182.9430  176.3860  139.3560 C   0  0  2  0  0  3  0  0  0  0  0  0
  181.4220  176.4690  139.1080 C   0  0  0  0  0  2  0  0  0  0  0  0
  185.9950  178.8220  140.1400 O   0  0  0  0  0  0  0  0  0  0  0  0
  182.5630  180.5690  138.7310 O   0  0  0  0  0  1  0  0  0  0  0  0
  179.6090  177.2660  140.6300 C   0  0  0  0  0  3  0  0  0  0  0  0
  183.6310  178.6370  139.6970 C   0  0  1  0  0  3  0  0  0  0  0  0
  180.7330  177.5700  139.8540 C   0  0  0  0  0  0  0  0  0  0  0  0
  188.3560  178.4680  139.9050 C   0  0  0  0  0  2  0  0  0  0  0  0
  188.5940  177.3770  142.0150 C   0  0  0  0  0  3  0  0  0  0  0  0
  188.6680  178.4710  141.3240 N   0  0  0  0  0  0  0  0  0  0  0  0
  187.9700  177.4350  144.3230 C   0  0  0  0  0  3  0  0  0  0  0  0
  188.8890  177.3570  143.4140 N   0  0  0  0  0  0  0  0  0  0  0  0
  188.3130  177.4100  145.7450 C   0  0  0  0  0  0  0  0  0  0  0  0
  189.6350  177.0920  146.1680 N   0  0  0  0  0  2  0  0  0  0  0  0
  187.4070  177.6800  146.6230 N   0  0  0  0  0  1  0  0  0  0  0  0
  1 23  1  0  0  0  0
  1 20  1  1  0  0  0
  4 21  1  1  0  0  0
  4 23  1  0  0  0  0
  4  5  1  0  0  0  0
  5 24  2  0  0  0  0
  5 16  1  0  0  0  0
  6 25  1  6  0  0  0
  6 20  1  0  0  0  0
  9 15  1  0  0  0  0
 10  2  1  6  0  0  0
 10 17  1  0  0  0  0
 11  9  1  6  0  0  0
 11 15  1  0  0  0  0
 11  1  1  0  0  0  0
 12  2  1  6  0  0  0
 12 10  1  0  0  0  0
 12 11  1  0  0  0  0
 14  8  1  0  0  0  0
 15  7  1  6  0  0  0
 15  6  1  0  0  0  0
 16 14  2  0  0  0  0
 17  3  1  6  0  0  0
 17 18  1  0  0  0  0
 18 19  1  6  0  0  0
 18 13  1  0  0  0  0
 19 24  1  0  0  0  0
 22  8  2  0  0  0  0
 23 13  1  6  0  0  0
 24 22  1  0  0  0  0
 25 27  1  0  0  0  0
 26 29  1  0  0  0  0
 27 26  2  0  0  0  0
 28 30  1  0  0  0  0
 29 28  2  0  0  0  0
 30 31  2  0  0  0  0
 30 32  1  0  0  0  0
M  END
>  <MODEL>
3

>  <REMARK>
 VINA RESULT:      -6.1      3.664      5.675
  Name = 
  4 active torsions:
  status: ('A' for Active; 'I' for Inactive)
    1  A    between atoms: C_1  and  C_10
    2  A    between atoms: C_2  and  N_24
    3  A    between atoms: C_8  and  C_23
    4  A    between atoms: N_19  and  C_23
                            x       y       z     vdW  Elec       q    Type
                         _______ _______ _______ _____ _____    ______ ____

>  <TORSDO>
F 4

$$$$
=
 OpenBabel11052417023D

 32 37  0  0  1  0  0  0  0  0999 V2000
  187.3800  177.5030  137.4020 C   0  0  2  0  0  3  0  0  0  0  0  0
  190.6730  176.2040  135.6910 C   0  0  0  0  0  2  0  0  0  0  0  0
  189.9100  173.3520  136.7400 C   0  0  0  0  0  1  0  0  0  0  0  0
  186.1880  176.3460  135.3810 C   0  0  1  0  0  3  0  0  0  0  0  0
  185.1820  175.2690  135.0890 C   0  0  0  0  0  0  0  0  0  0  0  0
  188.4830  177.4970  139.4150 C   0  0  2  0  0  3  0  0  0  0  0  0
  190.9170  176.8360  138.5370 C   0  0  0  0  0  1  0  0  0  0  0  0
  183.3100  173.2190  134.6930 C   0  0  0  0  0  3  0  0  0  0  0  0
  189.5240  178.5840  137.4680 O   0  0  0  0  0  0  0  0  0  0  0  0
  189.3820  175.4430  135.4730 C   0  0  2  0  0  3  0  0  0  0  0  0
  188.8550  177.3990  137.0840 C   0  0  2  0  0  0  0  0  0  0  0  0
  189.3580  176.9610  135.6890 C   0  0  1  0  0  3  0  0  0  0  0  0
  186.7360  175.0940  137.5120 O   0  0  0  0  0  0  0  0  0  0  0  0
  182.9140  174.5550  134.5940 C   0  0  0  0  0  3  0  0  0  0  0  0
  189.5620  177.4980  138.3530 C   0  0  2  0  0  0  0  0  0  0  0  0
  183.8450  175.5770  134.7970 C   0  0  0  0  0  3  0  0  0  0  0  0
  189.0550  174.6080  136.7140 C   0  0  1  0  0  3  0  0  0  0  0  0
  187.5770  174.2250  136.7670 C   0  0  2  0  0  3  0  0  0  0  0  0
  186.9940  173.5570  135.5030 C   0  0  0  0  0  2  0  0  0  0  0  0
  187.2150  177.6310  138.8000 O   0  0  0  0  0  0  0  0  0  0  0  0
  185.7210  177.6020  134.9810 O   0  0  0  0  0  1  0  0  0  0  0  0
  184.6370  172.9040  134.9980 C   0  0  0  0  0  3  0  0  0  0  0  0
  186.5110  176.3490  136.8810 C   0  0  1  0  0  3  0  0  0  0  0  0
  185.5710  173.9230  135.2090 C   0  0  0  0  0  0  0  0  0  0  0  0
  188.6790  178.6290  140.4170 C   0  0  0  0  0  2  0  0  0  0  0  0
  187.0520  178.3680  142.1430 C   0  0  0  0  0  3  0  0  0  0  0  0
  187.4210  178.9720  141.0590 N   0  0  0  0  0  0  0  0  0  0  0  0
  185.5450  178.3150  144.0000 C   0  0  0  0  0  3  0  0  0  0  0  0
  185.8150  178.6840  142.7890 N   0  0  0  0  0  0  0  0  0  0  0  0
  184.2680  178.6590  144.6250 C   0  0  0  0  0  0  0  0  0  0  0  0
  184.1780  178.8650  146.0310 N   0  0  0  0  0  1  0  0  0  0  0  0
  183.2120  178.7780  143.8920 N   0  0  0  0  0  2  0  0  0  0  0  0
  1 20  1  1  0  0  0
  4 21  1  1  0  0  0
  4 23  1  0  0  0  0
  5 24  1  0  0  0  0
  5  4  1  0  0  0  0
  6 25  1  1  0  0  0
  8 22  1  0  0  0  0
  9 15  1  0  0  0  0
 10 12  1  0  0  0  0
 10  2  1  1  0  0  0
 10 17  1  0  0  0  0
 11  1  1  0  0  0  0
 11  9  1  6  0  0  0
 11 15  1  0  0  0  0
 12  2  1  1  0  0  0
 12 11  1  0  0  0  0
 14  8  2  0  0  0  0
 14 16  1  0  0  0  0
 15  7  1  1  0  0  0
 15  6  1  0  0  0  0
 16  5  2  0  0  0  0
 17  3  1  6  0  0  0
 17 18  1  0  0  0  0
 18 19  1  6  0  0  0
 18 13  1  0  0  0  0
 20  6  1  0  0  0  0
 22 24  2  0  0  0  0
 23  1  1  0  0  0  0
 23 13  1  6  0  0  0
 24 19  1  0  0  0  0
 25 27  1  0  0  0  0
 26 29  1  0  0  0  0
 27 26  2  0  0  0  0
 28 30  1  0  0  0  0
 29 28  2  0  0  0  0
 30 31  1  0  0  0  0
 32 30  2  0  0  0  0
M  END
>  <MODEL>
4

>  <REMARK>
 VINA RESULT:      -6.0      4.249      8.644
  Name = 
  4 active torsions:
  status: ('A' for Active; 'I' for Inactive)
    1  A    between atoms: C_1  and  C_10
    2  A    between atoms: C_2  and  N_24
    3  A    between atoms: C_8  and  C_23
    4  A    between atoms: N_19  and  C_23
                            x       y       z     vdW  Elec       q    Type
                         _______ _______ _______ _____ _____    ______ ____

>  <TORSDO>
F 4

$$$$
=
 OpenBabel11052417023D

 32 37  0  0  1  0  0  0  0  0999 V2000
  187.3250  177.4390  137.2460 C   0  0  2  0  0  3  0  0  0  0  0  0
  190.6000  176.2490  135.4230 C   0  0  0  0  0  2  0  0  0  0  0  0
  189.9770  173.3780  136.5120 C   0  0  0  0  0  1  0  0  0  0  0  0
  186.1040  176.2290  135.2750 C   0  0  1  0  0  3  0  0  0  0  0  0
  185.1280  175.1150  135.0240 C   0  0  0  0  0  0  0  0  0  0  0  0
  188.5000  177.4840  139.2190 C   0  0  2  0  0  3  0  0  0  0  0  0
  190.9220  176.9050  138.2560 C   0  0  0  0  0  1  0  0  0  0  0  0
  183.3170  172.9980  134.7040 C   0  0  0  0  0  3  0  0  0  0  0  0
  189.4310  178.5970  137.2310 O   0  0  0  0  0  0  0  0  0  0  0  0
  189.3290  175.4410  135.2550 C   0  0  2  0  0  3  0  0  0  0  0  0
  188.7910  177.3860  136.8760 C   0  0  2  0  0  0  0  0  0  0  0  0
  189.2590  176.9590  135.4660 C   0  0  1  0  0  3  0  0  0  0  0  0
  186.7730  175.0090  137.3900 O   0  0  0  0  0  0  0  0  0  0  0  0
  182.8700  174.3190  134.6140 C   0  0  0  0  0  3  0  0  0  0  0  0
  189.5400  177.5170  138.1180 C   0  0  2  0  0  0  0  0  0  0  0  0
  183.7710  175.3740  134.7790 C   0  0  0  0  0  3  0  0  0  0  0  0
  189.0780  174.6030  136.5110 C   0  0  1  0  0  3  0  0  0  0  0  0
  187.6170  174.1670  136.6190 C   0  0  2  0  0  3  0  0  0  0  0  0
  187.0130  173.4720  135.3800 C   0  0  0  0  0  2  0  0  0  0  0  0
  187.2070  177.5690  138.6490 O   0  0  0  0  0  0  0  0  0  0  0  0
  185.5780  177.4650  134.8870 O   0  0  0  0  0  1  0  0  0  0  0  0
  184.6650  172.7320  134.9630 C   0  0  0  0  0  3  0  0  0  0  0  0
  186.4810  176.2520  136.7630 C   0  0  1  0  0  3  0  0  0  0  0  0
  185.5690  173.7850  135.1350 C   0  0  0  0  0  0  0  0  0  0  0  0
  188.6900  178.6280  140.2080 C   0  0  0  0  0  2  0  0  0  0  0  0
  188.7490  177.6710  142.3930 C   0  0  0  0  0  3  0  0  0  0  0  0
  188.0790  178.3100  141.4870 N   0  0  0  0  0  0  0  0  0  0  0  0
  188.5670  177.8660  144.7700 C   0  0  0  0  0  3  0  0  0  0  0  0
  188.1660  177.3410  143.6570 N   0  0  0  0  0  0  0  0  0  0  0  0
  187.9430  177.5030  146.0420 C   0  0  0  0  0  0  0  0  0  0  0  0
  186.5280  177.5390  146.1950 N   0  0  0  0  0  2  0  0  0  0  0  0
  188.6850  177.1450  147.0360 N   0  0  0  0  0  1  0  0  0  0  0  0
  1 20  1  1  0  0  0
  4 21  1  1  0  0  0
  4 23  1  0  0  0  0
  5 24  1  0  0  0  0
  5  4  1  0  0  0  0
  6 25  1  1  0  0  0
  8 22  1  0  0  0  0
  9 15  1  0  0  0  0
 10  2  1  1  0  0  0
 10 12  1  0  0  0  0
 10 17  1  0  0  0  0
 11  9  1  6  0  0  0
 11  1  1  0  0  0  0
 11 15  1  0  0  0  0
 12  2  1  1  0  0  0
 12 11  1  0  0  0  0
 14  8  2  0  0  0  0
 14 16  1  0  0  0  0
 15  7  1  1  0  0  0
 15  6  1  0  0  0  0
 16  5  2  0  0  0  0
 17  3  1  6  0  0  0
 17 18  1  0  0  0  0
 18 19  1  6  0  0  0
 18 13  1  0  0  0  0
 20  6  1  0  0  0  0
 22 24  2  0  0  0  0
 23  1  1  0  0  0  0
 23 13  1  6  0  0  0
 24 19  1  0  0  0  0
 25 27  1  0  0  0  0
 26 29  1  0  0  0  0
 27 26  2  0  0  0  0
 28 30  1  0  0  0  0
 29 28  2  0  0  0  0
 30 31  2  0  0  0  0
 30 32  1  0  0  0  0
M  END
>  <MODEL>
5

>  <REMARK>
 VINA RESULT:      -5.9      5.010      8.675
  Name = 
  4 active torsions:
  status: ('A' for Active; 'I' for Inactive)
    1  A    between atoms: C_1  and  C_10
    2  A    between atoms: C_2  and  N_24
    3  A    between atoms: C_8  and  C_23
    4  A    between atoms: N_19  and  C_23
                            x       y       z     vdW  Elec       q    Type
                         _______ _______ _______ _____ _____    ______ ____

>  <TORSDO>
F 4

$$$$
=
 OpenBabel11052417023D

 32 37  0  0  1  0  0  0  0  0999 V2000
  182.7380  178.1450  137.8850 C   0  0  2  0  0  3  0  0  0  0  0  0
  179.8020  180.6040  138.7760 C   0  0  0  0  0  2  0  0  0  0  0  0
  179.2050  178.7520  141.2320 C   0  0  0  0  0  1  0  0  0  0  0  0
  183.9570  179.2920  139.8950 C   0  0  1  0  0  3  0  0  0  0  0  0
  184.5620  178.9570  141.2280 C   0  0  0  0  0  0  0  0  0  0  0  0
  181.1960  176.7180  136.9590 C   0  0  2  0  0  3  0  0  0  0  0  0
  179.0250  178.2510  137.2210 C   0  0  0  0  0  1  0  0  0  0  0  0
  185.6350  178.1900  143.7040 C   0  0  0  0  0  3  0  0  0  0  0  0
  181.1750  179.0980  136.3290 O   0  0  0  0  0  0  0  0  0  0  0  0
  180.7540  180.1670  139.8710 C   0  0  2  0  0  3  0  0  0  0  0  0
  181.4670  178.9440  137.7040 C   0  0  2  0  0  0  0  0  0  0  0  0
  181.2450  180.2940  138.4230 C   0  0  1  0  0  3  0  0  0  0  0  0
  182.4450  177.2850  140.2090 O   0  0  0  0  0  0  0  0  0  0  0  0
  186.4830  178.4290  142.6190 C   0  0  0  0  0  3  0  0  0  0  0  0
  180.5200  178.0720  137.0240 C   0  0  2  0  0  0  0  0  0  0  0  0
  185.9490  178.8050  141.3840 C   0  0  0  0  0  3  0  0  0  0  0  0
  180.4160  178.7410  140.3150 C   0  0  1  0  0  3  0  0  0  0  0  0
  181.5930  178.0750  141.0260 C   0  0  2  0  0  3  0  0  0  0  0  0
  182.2280  178.8630  142.1910 C   0  0  0  0  0  2  0  0  0  0  0  0
  182.5480  176.8470  137.3600 O   0  0  0  0  0  0  0  0  0  0  0  0
  184.9230  179.7600  138.9990 O   0  0  0  0  0  1  0  0  0  0  0  0
  184.2520  178.3250  143.5530 C   0  0  0  0  0  3  0  0  0  0  0  0
  183.2570  178.0500  139.3260 C   0  0  1  0  0  3  0  0  0  0  0  0
  183.7120  178.6950  142.3170 C   0  0  0  0  0  0  0  0  0  0  0  0
  181.1410  176.1290  135.5540 C   0  0  0  0  0  2  0  0  0  0  0  0
  182.0180  173.9100  135.5630 C   0  0  0  0  0  3  0  0  0  0  0  0
  182.2170  175.1730  135.3540 N   0  0  0  0  0  0  0  0  0  0  0  0
  184.0940  172.8830  136.1620 C   0  0  0  0  0  3  0  0  0  0  0  0
  183.0640  172.9510  135.3800 N   0  0  0  0  0  0  0  0  0  0  0  0
  185.1410  171.8860  135.9420 C   0  0  0  0  0  0  0  0  0  0  0  0
  186.4890  172.1510  136.3180 N   0  0  0  0  0  1  0  0  0  0  0  0
  184.8400  170.7540  135.4000 N   0  0  0  0  0  2  0  0  0  0  0  0
  1 20  1  1  0  0  0
  1 23  1  0  0  0  0
  4 21  1  6  0  0  0
  4  5  1  0  0  0  0
  5 16  2  0  0  0  0
  5 24  1  0  0  0  0
  6 25  1  6  0  0  0
  6 15  1  0  0  0  0
  6 20  1  0  0  0  0
  9 15  1  0  0  0  0
 10  2  1  6  0  0  0
 10 17  1  0  0  0  0
 11  9  1  6  0  0  0
 11  1  1  0  0  0  0
 11 12  1  0  0  0  0
 12  2  1  6  0  0  0
 12 10  1  0  0  0  0
 13 18  1  0  0  0  0
 14  8  2  0  0  0  0
 15  7  1  1  0  0  0
 15 11  1  0  0  0  0
 16 14  1  0  0  0  0
 17 18  1  0  0  0  0
 17  3  1  1  0  0  0
 18 19  1  6  0  0  0
 19 24  1  0  0  0  0
 22  8  1  0  0  0  0
 23  4  1  0  0  0  0
 23 13  1  1  0  0  0
 24 22  2  0  0  0  0
 27 25  1  0  0  0  0
 27 26  2  0  0  0  0
 29 26  1  0  0  0  0
 29 28  2  0  0  0  0
 30 28  1  0  0  0  0
 30 31  1  0  0  0  0
 32 30  2  0  0  0  0
M  END
>  <MODEL>
6

>  <REMARK>
 VINA RESULT:      -5.9      2.030      2.533
  Name = 
  4 active torsions:
  status: ('A' for Active; 'I' for Inactive)
    1  A    between atoms: C_1  and  C_10
    2  A    between atoms: C_2  and  N_24
    3  A    between atoms: C_8  and  C_23
    4  A    between atoms: N_19  and  C_23
                            x       y       z     vdW  Elec       q    Type
                         _______ _______ _______ _____ _____    ______ ____

>  <TORSDO>
F 4

$$$$
=
 OpenBabel11052417023D

 32 37  0  0  1  0  0  0  0  0999 V2000
  182.7440  175.9590  137.7530 C   0  0  2  0  0  3  0  0  0  0  0  0
  185.6380  177.4820  135.5700 C   0  0  0  0  0  2  0  0  0  0  0  0
  187.4880  175.2390  136.7370 C   0  0  0  0  0  1  0  0  0  0  0  0
  182.7270  174.0730  135.9420 C   0  0  1  0  0  3  0  0  0  0  0  0
  182.9210  172.5890  135.8110 C   0  0  0  0  0  0  0  0  0  0  0  0
  183.6130  177.0510  139.5770 C   0  0  2  0  0  3  0  0  0  0  0  0
  185.5530  178.4100  138.3430 C   0  0  0  0  0  1  0  0  0  0  0  0
  183.3290  169.8160  135.7130 C   0  0  0  0  0  3  0  0  0  0  0  0
  183.2310  178.2980  137.4890 O   0  0  0  0  0  0  0  0  0  0  0  0
  185.4150  175.9840  135.5540 C   0  0  2  0  0  3  0  0  0  0  0  0
  183.7070  176.9940  137.2160 C   0  0  2  0  0  0  0  0  0  0  0  0
  184.2340  176.9400  135.7640 C   0  0  1  0  0  3  0  0  0  0  0  0
  184.2380  173.9720  137.9720 O   0  0  0  0  0  0  0  0  0  0  0  0
  182.0310  170.3330  135.6690 C   0  0  0  0  0  3  0  0  0  0  0  0
  184.1830  177.7560  138.3630 C   0  0  2  0  0  0  0  0  0  0  0  0
  181.8270  171.7140  135.7230 C   0  0  0  0  0  3  0  0  0  0  0  0
  185.9770  175.3620  136.8340 C   0  0  1  0  0  3  0  0  0  0  0  0
  185.3680  173.9870  137.1120 C   0  0  2  0  0  3  0  0  0  0  0  0
  185.4150  172.9680  135.9540 C   0  0  0  0  0  2  0  0  0  0  0  0
  182.6690  176.0820  139.1600 O   0  0  0  0  0  0  0  0  0  0  0  0
  181.4220  174.4480  135.6120 O   0  0  0  0  0  1  0  0  0  0  0  0
  184.4220  170.6800  135.8150 C   0  0  0  0  0  3  0  0  0  0  0  0
  183.0610  174.5060  137.3760 C   0  0  1  0  0  3  0  0  0  0  0  0
  184.2230  172.0630  135.8770 C   0  0  0  0  0  0  0  0  0  0  0  0
  182.9410  178.0310  140.5310 C   0  0  0  0  0  2  0  0  0  0  0  0
  184.7730  178.5480  141.9700 C   0  0  0  0  0  3  0  0  0  0  0  0
  183.5990  178.0220  141.8270 N   0  0  0  0  0  0  0  0  0  0  0  0
  184.8120  178.6320  144.3600 C   0  0  0  0  0  3  0  0  0  0  0  0
  185.4440  178.5440  143.2330 N   0  0  0  0  0  0  0  0  0  0  0  0
  185.5340  178.6240  145.6310 C   0  0  0  0  0  0  0  0  0  0  0  0
  186.8950  178.2070  145.6920 N   0  0  0  0  0  2  0  0  0  0  0  0
  184.9320  178.9980  146.7090 N   0  0  0  0  0  1  0  0  0  0  0  0
  1 20  1  1  0  0  0
  4 21  1  1  0  0  0
  4 23  1  0  0  0  0
  5 24  1  0  0  0  0
  5  4  1  0  0  0  0
  6 25  1  1  0  0  0
  8 22  1  0  0  0  0
  9 15  1  0  0  0  0
 10  2  1  1  0  0  0
 10 12  1  0  0  0  0
 10 17  1  0  0  0  0
 11  9  1  6  0  0  0
 11  1  1  0  0  0  0
 11 15  1  0  0  0  0
 12  2  1  1  0  0  0
 12 11  1  0  0  0  0
 14  8  2  0  0  0  0
 14 16  1  0  0  0  0
 15  7  1  1  0  0  0
 15  6  1  0  0  0  0
 16  5  2  0  0  0  0
 17  3  1  6  0  0  0
 17 18  1  0  0  0  0
 18 19  1  6  0  0  0
 18 13  1  0  0  0  0
 20  6  1  0  0  0  0
 22 24  2  0  0  0  0
 23  1  1  0  0  0  0
 23 13  1  6  0  0  0
 24 19  1  0  0  0  0
 25 27  1  0  0  0  0
 26 29  1  0  0  0  0
 27 26  2  0  0  0  0
 28 30  1  0  0  0  0
 29 28  2  0  0  0  0
 30 31  2  0  0  0  0
 30 32  1  0  0  0  0
M  END
>  <MODEL>
7

>  <REMARK>
 VINA RESULT:      -5.8      3.844      7.765
  Name = 
  4 active torsions:
  status: ('A' for Active; 'I' for Inactive)
    1  A    between atoms: C_1  and  C_10
    2  A    between atoms: C_2  and  N_24
    3  A    between atoms: C_8  and  C_23
    4  A    between atoms: N_19  and  C_23
                            x       y       z     vdW  Elec       q    Type
                         _______ _______ _______ _____ _____    ______ ____

>  <TORSDO>
F 4

$$$$
=
 OpenBabel11052417023D

 32 37  0  0  1  0  0  0  0  0999 V2000
  188.5150  177.1130  137.1760 C   0  0  2  0  0  3  0  0  0  0  0  0
  190.3570  174.4520  134.9420 C   0  0  0  0  0  2  0  0  0  0  0  0
  188.5120  172.2930  136.2670 C   0  0  0  0  0  1  0  0  0  0  0  0
  186.5500  176.7860  135.4820 C   0  0  1  0  0  3  0  0  0  0  0  0
  185.1110  176.3550  135.4430 C   0  0  0  0  0  0  0  0  0  0  0  0
  189.8360  176.4720  138.9410 C   0  0  2  0  0  3  0  0  0  0  0  0
  191.4160  174.7470  137.6530 C   0  0  0  0  0  1  0  0  0  0  0  0
  182.4390  175.5060  135.5180 C   0  0  0  0  0  3  0  0  0  0  0  0
  190.8820  177.0020  136.7770 O   0  0  0  0  0  0  0  0  0  0  0  0
  188.8430  174.4320  135.0140 C   0  0  2  0  0  3  0  0  0  0  0  0
  189.6590  176.3160  136.5900 C   0  0  2  0  0  0  0  0  0  0  0  0
  189.6080  175.7550  135.1500 C   0  0  1  0  0  3  0  0  0  0  0  0
  186.8110  175.3260  137.5330 O   0  0  0  0  0  0  0  0  0  0  0  0
  182.7370  176.8680  135.4260 C   0  0  0  0  0  3  0  0  0  0  0  0
  190.5520  175.9950  137.6940 C   0  0  2  0  0  0  0  0  0  0  0  0
  184.0680  177.2920  135.3940 C   0  0  0  0  0  3  0  0  0  0  0  0
  188.3950  173.8060  136.3370 C   0  0  1  0  0  3  0  0  0  0  0  0
  186.9590  174.1940  136.6890 C   0  0  2  0  0  3  0  0  0  0  0  0
  185.8950  173.9580  135.5960 C   0  0  0  0  0  2  0  0  0  0  0  0
  188.7050  177.2390  138.5710 O   0  0  0  0  0  0  0  0  0  0  0  0
  186.6900  178.1270  135.1120 O   0  0  0  0  0  1  0  0  0  0  0  0
  183.4730  174.5670  135.5820 C   0  0  0  0  0  3  0  0  0  0  0  0
  187.1130  176.5590  136.8910 C   0  0  1  0  0  3  0  0  0  0  0  0
  184.8070  174.9870  135.5580 C   0  0  0  0  0  0  0  0  0  0  0  0
  190.7480  177.3140  139.8260 C   0  0  0  0  0  2  0  0  0  0  0  0
  191.5550  177.1780  142.0670 C   0  0  0  0  0  3  0  0  0  0  0  0
  190.6050  176.9350  141.2210 N   0  0  0  0  0  0  0  0  0  0  0  0
  190.8630  177.5600  144.3250 C   0  0  0  0  0  3  0  0  0  0  0  0
  191.4410  176.8070  143.4440 N   0  0  0  0  0  0  0  0  0  0  0  0
  190.7660  177.1440  145.7240 C   0  0  0  0  0  0  0  0  0  0  0  0
  189.5000  177.0620  146.3720 N   0  0  0  0  0  2  0  0  0  0  0  0
  191.8390  176.8470  146.3770 N   0  0  0  0  0  1  0  0  0  0  0  0
  1 20  1  1  0  0  0
  4 21  1  1  0  0  0
  4 23  1  0  0  0  0
  5  4  1  0  0  0  0
  5 24  1  0  0  0  0
  6 25  1  1  0  0  0
  8 22  1  0  0  0  0
  9 15  1  0  0  0  0
 10  2  1  1  0  0  0
 10 12  1  0  0  0  0
 10 17  1  0  0  0  0
 11  9  1  6  0  0  0
 11  1  1  0  0  0  0
 11 15  1  0  0  0  0
 12  2  1  1  0  0  0
 12 11  1  0  0  0  0
 14  8  2  0  0  0  0
 15  7  1  1  0  0  0
 15  6  1  0  0  0  0
 16 14  1  0  0  0  0
 16  5  2  0  0  0  0
 17  3  1  6  0  0  0
 17 18  1  0  0  0  0
 18 19  1  6  0  0  0
 18 13  1  0  0  0  0
 20  6  1  0  0  0  0
 23  1  1  0  0  0  0
 23 13  1  6  0  0  0
 24 22  2  0  0  0  0
 24 19  1  0  0  0  0
 25 27  1  0  0  0  0
 26 29  1  0  0  0  0
 27 26  2  0  0  0  0
 28 30  1  0  0  0  0
 29 28  2  0  0  0  0
 30 31  2  0  0  0  0
 30 32  1  0  0  0  0
M  END
>  <MODEL>
8

>  <REMARK>
 VINA RESULT:      -5.7      5.073      8.604
  Name = 
  4 active torsions:
  status: ('A' for Active; 'I' for Inactive)
    1  A    between atoms: C_1  and  C_10
    2  A    between atoms: C_2  and  N_24
    3  A    between atoms: C_8  and  C_23
    4  A    between atoms: N_19  and  C_23
                            x       y       z     vdW  Elec       q    Type
                         _______ _______ _______ _____ _____    ______ ____

>  <TORSDO>
F 4

$$$$
=
 OpenBabel11052417023D

 32 37  0  0  1  0  0  0  0  0999 V2000
  188.4350  177.2180  141.7000 C   0  0  2  0  0  3  0  0  0  0  0  0
  191.8920  175.8540  142.9850 C   0  0  0  0  0  2  0  0  0  0  0  0
  192.2240  178.5740  144.5050 C   0  0  0  0  0  1  0  0  0  0  0  0
  187.6320  176.7210  144.1390 C   0  0  1  0  0  3  0  0  0  0  0  0
  187.0550  177.4220  145.3360 C   0  0  0  0  0  0  0  0  0  0  0  0
  189.5630  178.4400  140.1160 C   0  0  2  0  0  3  0  0  0  0  0  0
  192.0310  177.5390  140.5980 C   0  0  0  0  0  1  0  0  0  0  0  0
  186.0010  178.8640  147.4980 C   0  0  0  0  0  3  0  0  0  0  0  0
  190.0660  176.0450  140.3830 O   0  0  0  0  0  0  0  0  0  0  0  0
  190.9400  176.4950  143.9750 C   0  0  2  0  0  3  0  0  0  0  0  0
  189.8370  176.6530  141.6390 C   0  0  2  0  0  0  0  0  0  0  0  0
  190.3970  175.7410  142.7540 C   0  0  1  0  0  3  0  0  0  0  0  0
  188.6820  178.9340  143.4960 O   0  0  0  0  0  0  0  0  0  0  0  0
  185.1580  178.0840  146.7030 C   0  0  0  0  0  3  0  0  0  0  0  0
  190.5230  177.3570  140.5650 C   0  0  2  0  0  0  0  0  0  0  0  0
  185.6820  177.3690  145.6220 C   0  0  0  0  0  3  0  0  0  0  0  0
  190.9840  178.0180  143.8270 C   0  0  1  0  0  3  0  0  0  0  0  0
  189.7370  178.6800  144.4120 C   0  0  2  0  0  3  0  0  0  0  0  0
  189.3680  178.2930  145.8590 C   0  0  0  0  0  2  0  0  0  0  0  0
  188.3010  178.2320  140.7240 O   0  0  0  0  0  0  0  0  0  0  0  0
  186.7370  175.7830  143.6170 O   0  0  0  0  0  1  0  0  0  0  0  0
  187.3670  178.9340  147.2110 C   0  0  0  0  0  3  0  0  0  0  0  0
  188.0030  177.7590  143.0700 C   0  0  1  0  0  3  0  0  0  0  0  0
  187.8950  178.2260  146.1260 C   0  0  0  0  0  0  0  0  0  0  0  0
  189.3960  178.4510  138.6010 C   0  0  0  0  0  2  0  0  0  0  0  0
  187.5080  177.5990  137.4160 C   0  0  0  0  0  3  0  0  0  0  0  0
  187.9890  178.4770  138.2380 N   0  0  0  0  0  0  0  0  0  0  0  0
  185.1680  177.7160  137.9010 C   0  0  0  0  0  3  0  0  0  0  0  0
  186.1280  177.6090  137.0390 N   0  0  0  0  0  0  0  0  0  0  0  0
  183.7690  177.7240  137.4740 C   0  0  0  0  0  0  0  0  0  0  0  0
  182.8200  178.5770  138.1060 N   0  0  0  0  0  1  0  0  0  0  0  0
  183.3930  176.9490  136.5130 N   0  0  0  0  0  2  0  0  0  0  0  0
  1 20  1  6  0  0  0
  1 23  1  0  0  0  0
  4 21  1  6  0  0  0
  4  5  1  0  0  0  0
  5 16  2  0  0  0  0
  5 24  1  0  0  0  0
  6 25  1  6  0  0  0
  6 15  1  0  0  0  0
  6 20  1  0  0  0  0
  9 15  1  0  0  0  0
 10  2  1  6  0  0  0
 11  9  1  6  0  0  0
 11  1  1  0  0  0  0
 11 12  1  0  0  0  0
 12  2  1  6  0  0  0
 12 10  1  0  0  0  0
 13 18  1  0  0  0  0
 14  8  2  0  0  0  0
 15  7  1  1  0  0  0
 15 11  1  0  0  0  0
 16 14  1  0  0  0  0
 17 10  1  0  0  0  0
 17 18  1  0  0  0  0
 17  3  1  1  0  0  0
 18 19  1  1  0  0  0
 19 24  1  0  0  0  0
 22  8  1  0  0  0  0
 23 13  1  1  0  0  0
 23  4  1  0  0  0  0
 24 22  2  0  0  0  0
 26 27  2  0  0  0  0
 27 25  1  0  0  0  0
 29 26  1  0  0  0  0
 29 28  2  0  0  0  0
 30 28  1  0  0  0  0
 30 31  1  0  0  0  0
 32 30  2  0  0  0  0
M  END
>  <MODEL>
9

>  <REMARK>
 VINA RESULT:      -5.7      4.441      7.743
  Name = 
  4 active torsions:
  status: ('A' for Active; 'I' for Inactive)
    1  A    between atoms: C_1  and  C_10
    2  A    between atoms: C_2  and  N_24
    3  A    between atoms: C_8  and  C_23
    4  A    between atoms: N_19  and  C_23
                            x       y       z     vdW  Elec       q    Type
                         _______ _______ _______ _____ _____    ______ ____

>  <TORSDO>
F 4

$$$$
