=
 OpenBabel11052414463D

 32 33  0  0  1  0  0  0  0  0999 V2000
  188.5600  176.5110  143.8500 C   0  0  0  0  0  0  0  0  0  0  0  0
  187.7290  175.8990  143.1920 O   0  0  0  0  0  0  0  0  0  0  0  0
  188.5420  177.8610  147.4210 C   0  0  0  0  0  0  0  0  0  0  0  0
  189.1680  177.8160  148.4670 O   0  0  0  0  0  0  0  0  0  0  0  0
  186.6840  177.0760  145.3770 C   0  0  0  0  0  2  0  0  0  0  0  0
  187.2840  178.6760  147.3410 C   0  0  0  0  0  2  0  0  0  0  0  0
  188.1410  177.3560  145.0090 C   0  0  1  0  0  3  0  0  0  0  0  0
  189.0560  177.1310  146.2130 C   0  0  0  0  0  2  0  0  0  0  0  0
  186.1880  177.9520  146.5420 C   0  0  1  0  0  3  0  0  0  0  0  0
  185.0850  178.9140  146.1020 C   0  0  0  0  0  2  0  0  0  0  0  0
  185.0060  179.0820  144.5850 C   0  0  0  0  0  2  0  0  0  0  0  0
  183.6620  178.6280  144.0400 C   0  0  0  0  0  2  0  0  0  0  0  0
  183.5090  179.0720  142.6650 N   0  0  0  0  0  2  0  0  0  0  0  0
  185.0120  178.9060  140.7800 C   0  0  0  0  0  2  0  0  0  0  0  0
  183.7230  178.2030  140.4180 C   0  0  0  0  0  2  0  0  0  0  0  0
  184.2460  178.1360  141.8370 C   0  0  0  0  0  3  0  0  0  0  0  0
  190.2910  175.2140  142.8890 O   0  0  0  0  0  1  0  0  0  0  0  0
  190.0120  176.4440  143.4890 C   0  0  1  0  0  3  0  0  0  0  0  0
  190.4140  177.5920  142.5560 C   0  0  2  0  0  3  0  0  0  0  0  0
  190.1610  177.2350  141.0930 C   0  0  0  0  0  2  0  0  0  0  0  0
  188.6490  178.0320  140.4580 S   0  0  0  0  0  0  0  0  0  0  0  0
  188.7720  177.1620  138.8680 C   0  0  2  0  0  3  0  0  0  0  0  0
  190.1570  177.3560  138.2660 C   0  0  0  0  0  1  0  0  0  0  0  0
  187.6450  177.5940  137.9270 C   0  0  1  0  0  3  0  0  0  0  0  0
  187.5880  179.7230  136.8250 O   0  0  0  0  0  1  0  0  0  0  0  0
  188.1550  178.4500  136.7690 C   0  0  0  0  0  2  0  0  0  0  0  0
  186.8850  176.3750  137.4210 C   0  0  0  0  0  2  0  0  0  0  0  0
  185.4610  176.3280  135.3990 C   0  0  0  0  0  1  0  0  0  0  0  0
  185.5470  176.7860  136.8390 C   0  0  0  0  0  2  0  0  0  0  0  0
  191.7610  177.9300  142.7360 O   0  0  0  0  0  0  0  0  0  0  0  0
  191.8410  178.4090  144.0450 C   0  0  0  0  0  2  0  0  0  0  0  0
  191.0910  179.7210  144.1480 C   0  0  0  0  0  1  0  0  0  0  0  0
  2  1  2  0  0  0  0
  3  4  2  0  0  0  0
  5  9  1  0  0  0  0
  6  3  1  0  0  0  0
  7  1  1  6  0  0  0
  7  5  1  0  0  0  0
  7  8  1  0  0  0  0
  8  3  1  0  0  0  0
  9 10  1  6  0  0  0
  9  6  1  0  0  0  0
 11 10  1  0  0  0  0
 12 11  1  0  0  0  0
 13 12  1  0  0  0  0
 14 16  1  0  0  0  0
 15 14  1  0  0  0  0
 15 16  1  0  0  0  0
 16 13  1  0  0  0  0
 18 17  1  6  0  0  0
 18  1  1  0  0  0  0
 19 20  1  6  0  0  0
 19 30  1  0  0  0  0
 19 18  1  0  0  0  0
 21 20  1  0  0  0  0
 22 23  1  6  0  0  0
 22 21  1  0  0  0  0
 24 26  1  6  0  0  0
 24 22  1  0  0  0  0
 26 25  1  0  0  0  0
 27 24  1  0  0  0  0
 28 29  1  0  0  0  0
 29 27  1  0  0  0  0
 30 31  1  0  0  0  0
 31 32  1  0  0  0  0
M  END
>  <MODEL>
1

>  <REMARK>
 VINA RESULT:      -6.7      0.000      0.000
  Name = 
  17 active torsions:
  status: ('A' for Active; 'I' for Inactive)
    1  A    between atoms: C_1  and  C_2
    2  A    between atoms: C_1  and  S_30
    3  A    between atoms: C_2  and  O_5
    4  A    between atoms: C_2  and  C_27
    5  A    between atoms: C_4  and  C_29
    6  A    between atoms: C_4  and  S_30
    7  A    between atoms: O_5  and  C_14
    8  A    between atoms: C_7  and  C_26
    9  A    between atoms: C_7  and  C_31
   10  A    between atoms: C_9  and  C_31
   11  A    between atoms: C_9  and  N_32
   12  A    between atoms: C_16  and  C_20
   13  A    between atoms: C_16  and  C_27
   14  A    between atoms: C_17  and  C_29
   15  A    between atoms: C_18  and  C_25
   16  A    between atoms: C_18  and  C_29
   17  A    between atoms: C_28  and  N_32
                            x       y       z     vdW  Elec       q    Type
                         _______ _______ _______ _____ _____    ______ ____

>  <TORSDO>
F 17

$$$$
=
 OpenBabel11052414463D

 32 33  0  0  1  0  0  0  0  0999 V2000
  190.4750  177.7940  143.4250 C   0  0  0  0  0  0  0  0  0  0  0  0
  189.8360  178.7720  143.0600 O   0  0  0  0  0  0  0  0  0  0  0  0
  191.9040  176.0990  146.5330 C   0  0  0  0  0  0  0  0  0  0  0  0
  192.7230  175.2640  146.8800 O   0  0  0  0  0  0  0  0  0  0  0  0
  189.4170  177.1790  145.5880 C   0  0  0  0  0  2  0  0  0  0  0  0
  191.0630  176.7900  147.5670 C   0  0  0  0  0  2  0  0  0  0  0  0
  190.7200  177.5460  144.8790 C   0  0  1  0  0  3  0  0  0  0  0  0
  191.7720  176.4550  145.0800 C   0  0  0  0  0  2  0  0  0  0  0  0
  189.6070  176.9530  147.0990 C   0  0  1  0  0  3  0  0  0  0  0  0
  188.8630  177.9970  147.9290 C   0  0  0  0  0  2  0  0  0  0  0  0
  187.3540  177.7570  147.9820 C   0  0  0  0  0  2  0  0  0  0  0  0
  186.5730  179.0300  147.7060 C   0  0  0  0  0  2  0  0  0  0  0  0
  185.3660  178.7200  146.9600 N   0  0  0  0  0  2  0  0  0  0  0  0
  184.3850  178.8200  144.7530 C   0  0  0  0  0  2  0  0  0  0  0  0
  185.6980  178.0770  144.6510 C   0  0  0  0  0  2  0  0  0  0  0  0
  185.5590  179.2360  145.6170 C   0  0  0  0  0  3  0  0  0  0  0  0
  190.2920  175.6620  142.4140 O   0  0  0  0  0  1  0  0  0  0  0  0
  191.0430  176.8400  142.4210 C   0  0  1  0  0  3  0  0  0  0  0  0
  191.0770  177.4540  141.0170 C   0  0  2  0  0  3  0  0  0  0  0  0
  189.9500  176.9080  140.1430 C   0  0  0  0  0  2  0  0  0  0  0  0
  188.6640  178.1640  139.8390 S   0  0  0  0  0  0  0  0  0  0  0  0
  188.5780  177.7520  138.0720 C   0  0  2  0  0  3  0  0  0  0  0  0
  188.9240  178.9720  137.2290 C   0  0  0  0  0  1  0  0  0  0  0  0
  187.2150  177.1510  137.7230 C   0  0  1  0  0  3  0  0  0  0  0  0
  185.5610  178.7920  138.2960 O   0  0  0  0  0  1  0  0  0  0  0  0
  186.2290  178.2050  137.2210 C   0  0  0  0  0  2  0  0  0  0  0  0
  187.3790  176.0220  136.7150 C   0  0  0  0  0  2  0  0  0  0  0  0
  189.1590  174.6820  135.6410 C   0  0  0  0  0  1  0  0  0  0  0  0
  188.6860  175.2880  136.9450 C   0  0  0  0  0  2  0  0  0  0  0  0
  192.3120  177.2180  140.4010 O   0  0  0  0  0  0  0  0  0  0  0  0
  191.9970  176.8180  139.1010 C   0  0  0  0  0  2  0  0  0  0  0  0
  193.2650  176.4110  138.3790 C   0  0  0  0  0  1  0  0  0  0  0  0
  2  1  2  0  0  0  0
  3  4  2  0  0  0  0
  3  6  1  0  0  0  0
  5  9  1  0  0  0  0
  7  1  1  6  0  0  0
  7  8  1  0  0  0  0
  7  5  1  0  0  0  0
  8  3  1  0  0  0  0
  9  6  1  0  0  0  0
  9 10  1  1  0  0  0
 10 11  1  0  0  0  0
 12 11  1  0  0  0  0
 13 12  1  0  0  0  0
 14 16  1  0  0  0  0
 15 14  1  0  0  0  0
 15 16  1  0  0  0  0
 16 13  1  0  0  0  0
 18 17  1  6  0  0  0
 18  1  1  0  0  0  0
 19 20  1  6  0  0  0
 19 18  1  0  0  0  0
 21 20  1  0  0  0  0
 22 23  1  6  0  0  0
 22 21  1  0  0  0  0
 24 27  1  6  0  0  0
 24 22  1  0  0  0  0
 26 24  1  0  0  0  0
 26 25  1  0  0  0  0
 27 29  1  0  0  0  0
 28 29  1  0  0  0  0
 30 19  1  0  0  0  0
 31 30  1  0  0  0  0
 32 31  1  0  0  0  0
M  END
>  <MODEL>
2

>  <REMARK>
 VINA RESULT:      -6.5      2.120      3.457
  Name = 
  17 active torsions:
  status: ('A' for Active; 'I' for Inactive)
    1  A    between atoms: C_1  and  C_2
    2  A    between atoms: C_1  and  S_30
    3  A    between atoms: C_2  and  O_5
    4  A    between atoms: C_2  and  C_27
    5  A    between atoms: C_4  and  C_29
    6  A    between atoms: C_4  and  S_30
    7  A    between atoms: O_5  and  C_14
    8  A    between atoms: C_7  and  C_26
    9  A    between atoms: C_7  and  C_31
   10  A    between atoms: C_9  and  C_31
   11  A    between atoms: C_9  and  N_32
   12  A    between atoms: C_16  and  C_20
   13  A    between atoms: C_16  and  C_27
   14  A    between atoms: C_17  and  C_29
   15  A    between atoms: C_18  and  C_25
   16  A    between atoms: C_18  and  C_29
   17  A    between atoms: C_28  and  N_32
                            x       y       z     vdW  Elec       q    Type
                         _______ _______ _______ _____ _____    ______ ____

>  <TORSDO>
F 17

$$$$
=
 OpenBabel11052414463D

 32 33  0  0  1  0  0  0  0  0999 V2000
  184.9940  178.9710  140.9920 C   0  0  0  0  0  0  0  0  0  0  0  0
  186.2060  179.1340  140.9880 O   0  0  0  0  0  0  0  0  0  0  0  0
  182.0740  178.9750  143.4530 C   0  0  0  0  0  0  0  0  0  0  0  0
  180.8720  179.1760  143.5160 O   0  0  0  0  0  0  0  0  0  0  0  0
  184.8860  179.5540  143.4050 C   0  0  0  0  0  2  0  0  0  0  0  0
  182.8330  178.6060  144.6940 C   0  0  0  0  0  2  0  0  0  0  0  0
  184.2620  178.7360  142.2750 C   0  0  1  0  0  3  0  0  0  0  0  0
  182.7760  179.0620  142.1280 C   0  0  0  0  0  2  0  0  0  0  0  0
  184.1950  179.3160  144.7600 C   0  0  1  0  0  3  0  0  0  0  0  0
  185.1290  178.6480  145.7680 C   0  0  0  0  0  2  0  0  0  0  0  0
  186.2540  177.8530  145.1060 C   0  0  0  0  0  2  0  0  0  0  0  0
  187.4220  177.6370  146.0540 C   0  0  0  0  0  2  0  0  0  0  0  0
  188.5730  177.1440  145.3180 N   0  0  0  0  0  2  0  0  0  0  0  0
  190.9590  176.9170  145.6330 C   0  0  0  0  0  2  0  0  0  0  0  0
  190.3020  176.9100  146.9950 C   0  0  0  0  0  2  0  0  0  0  0  0
  189.7430  177.7840  145.8910 C   0  0  0  0  0  3  0  0  0  0  0  0
  184.3450  180.2280  139.0950 O   0  0  0  0  0  1  0  0  0  0  0  0
  184.2220  178.9800  139.7090 C   0  0  1  0  0  3  0  0  0  0  0  0
  184.6960  177.8740  138.7590 C   0  0  2  0  0  3  0  0  0  0  0  0
  185.6720  178.4160  137.7170 C   0  0  0  0  0  2  0  0  0  0  0  0
  186.8800  177.1500  137.2040 S   0  0  0  0  0  0  0  0  0  0  0  0
  188.2330  177.9820  138.0850 C   0  0  2  0  0  3  0  0  0  0  0  0
  189.0680  178.8060  137.1140 C   0  0  0  0  0  1  0  0  0  0  0  0
  189.0630  176.9700  138.8780 C   0  0  1  0  0  3  0  0  0  0  0  0
  190.8650  175.3900  138.7620 O   0  0  0  0  0  1  0  0  0  0  0  0
  190.0140  176.1750  137.9840 C   0  0  0  0  0  2  0  0  0  0  0  0
  189.8160  177.6700  140.0010 C   0  0  0  0  0  2  0  0  0  0  0  0
  190.2240  176.4470  142.1120 C   0  0  0  0  0  1  0  0  0  0  0  0
  189.2310  177.2960  141.3490 C   0  0  0  0  0  2  0  0  0  0  0  0
  183.6080  177.2670  138.1210 O   0  0  0  0  0  0  0  0  0  0  0  0
  182.7050  176.9760  139.1460 C   0  0  0  0  0  2  0  0  0  0  0  0
  182.1190  175.5970  138.9240 C   0  0  0  0  0  1  0  0  0  0  0  0
  2  1  2  0  0  0  0
  3  4  2  0  0  0  0
  3  6  1  0  0  0  0
  5  9  1  0  0  0  0
  6  9  1  0  0  0  0
  7  1  1  6  0  0  0
  7  5  1  0  0  0  0
  8  7  1  0  0  0  0
  8  3  1  0  0  0  0
  9 10  1  1  0  0  0
 11 10  1  0  0  0  0
 11 12  1  0  0  0  0
 13 16  1  0  0  0  0
 13 12  1  0  0  0  0
 14 16  1  0  0  0  0
 14 15  1  0  0  0  0
 16 15  1  0  0  0  0
 18 17  1  6  0  0  0
 18  1  1  0  0  0  0
 19 20  1  6  0  0  0
 19 18  1  0  0  0  0
 21 20  1  0  0  0  0
 21 22  1  0  0  0  0
 22 23  1  6  0  0  0
 22 24  1  0  0  0  0
 24 26  1  6  0  0  0
 24 27  1  0  0  0  0
 26 25  1  0  0  0  0
 27 29  1  0  0  0  0
 29 28  1  0  0  0  0
 30 19  1  0  0  0  0
 30 31  1  0  0  0  0
 32 31  1  0  0  0  0
M  END
>  <MODEL>
3

>  <REMARK>
 VINA RESULT:      -6.4      2.808      6.391
  Name = 
  17 active torsions:
  status: ('A' for Active; 'I' for Inactive)
    1  A    between atoms: C_1  and  C_2
    2  A    between atoms: C_1  and  S_30
    3  A    between atoms: C_2  and  O_5
    4  A    between atoms: C_2  and  C_27
    5  A    between atoms: C_4  and  C_29
    6  A    between atoms: C_4  and  S_30
    7  A    between atoms: O_5  and  C_14
    8  A    between atoms: C_7  and  C_26
    9  A    between atoms: C_7  and  C_31
   10  A    between atoms: C_9  and  C_31
   11  A    between atoms: C_9  and  N_32
   12  A    between atoms: C_16  and  C_20
   13  A    between atoms: C_16  and  C_27
   14  A    between atoms: C_17  and  C_29
   15  A    between atoms: C_18  and  C_25
   16  A    between atoms: C_18  and  C_29
   17  A    between atoms: C_28  and  N_32
                            x       y       z     vdW  Elec       q    Type
                         _______ _______ _______ _____ _____    ______ ____

>  <TORSDO>
F 17

$$$$
=
 OpenBabel11052414463D

 32 33  0  0  1  0  0  0  0  0999 V2000
  188.6140  178.0420  138.1660 C   0  0  0  0  0  0  0  0  0  0  0  0
  189.2670  178.5100  137.2430 O   0  0  0  0  0  0  0  0  0  0  0  0
  186.7200  174.9870  136.8800 C   0  0  0  0  0  0  0  0  0  0  0  0
  186.8980  173.8780  136.4040 O   0  0  0  0  0  0  0  0  0  0  0  0
  186.4400  177.8430  136.9800 C   0  0  0  0  0  2  0  0  0  0  0  0
  185.3220  175.4940  137.0810 C   0  0  0  0  0  2  0  0  0  0  0  0
  187.4470  177.1480  137.8960 C   0  0  1  0  0  3  0  0  0  0  0  0
  187.9000  175.8190  137.2930 C   0  0  0  0  0  2  0  0  0  0  0  0
  185.1960  176.9790  136.7030 C   0  0  1  0  0  3  0  0  0  0  0  0
  183.9280  177.6020  137.2850 C   0  0  0  0  0  2  0  0  0  0  0  0
  183.9780  177.7530  138.8050 C   0  0  0  0  0  2  0  0  0  0  0  0
  183.8610  179.2070  139.2300 C   0  0  0  0  0  2  0  0  0  0  0  0
  184.5200  179.4050  140.5090 N   0  0  0  0  0  2  0  0  0  0  0  0
  183.8120  178.8270  142.7470 C   0  0  0  0  0  2  0  0  0  0  0  0
  185.1310  178.1400  142.4790 C   0  0  0  0  0  2  0  0  0  0  0  0
  184.1220  178.2990  141.3600 C   0  0  0  0  0  3  0  0  0  0  0  0
  187.7940  178.6980  140.2870 O   0  0  0  0  0  1  0  0  0  0  0  0
  188.9580  178.3770  139.5850 C   0  0  1  0  0  3  0  0  0  0  0  0
  189.6900  177.2210  140.2750 C   0  0  2  0  0  3  0  0  0  0  0  0
  189.9630  177.5330  141.7450 C   0  0  0  0  0  2  0  0  0  0  0  0
  188.9110  176.5360  142.8510 S   0  0  0  0  0  0  0  0  0  0  0  0
  189.0130  177.7720  144.1790 C   0  0  2  0  0  3  0  0  0  0  0  0
  190.4290  178.3220  144.2800 C   0  0  0  0  0  1  0  0  0  0  0  0
  188.5030  177.1890  145.4990 C   0  0  1  0  0  3  0  0  0  0  0  0
  189.7620  176.8970  147.5210 O   0  0  0  0  0  1  0  0  0  0  0  0
  189.1490  177.8550  146.7130 C   0  0  0  0  0  2  0  0  0  0  0  0
  186.9850  177.2770  145.5630 C   0  0  0  0  0  2  0  0  0  0  0  0
  185.4570  179.1380  146.1320 C   0  0  0  0  0  1  0  0  0  0  0  0
  186.5520  178.2340  146.6570 C   0  0  0  0  0  2  0  0  0  0  0  0
  190.8930  176.9330  139.6200 O   0  0  0  0  0  0  0  0  0  0  0  0
  191.8920  177.4000  140.4770 C   0  0  0  0  0  2  0  0  0  0  0  0
  193.2440  177.2220  139.8180 C   0  0  0  0  0  1  0  0  0  0  0  0
  1 18  1  0  0  0  0
  2  1  2  0  0  0  0
  3  6  1  0  0  0  0
  3  8  1  0  0  0  0
  4  3  2  0  0  0  0
  5  7  1  0  0  0  0
  7  1  1  6  0  0  0
  8  7  1  0  0  0  0
  9  5  1  0  0  0  0
  9  6  1  0  0  0  0
  9 10  1  1  0  0  0
 10 11  1  0  0  0  0
 11 12  1  0  0  0  0
 12 13  1  0  0  0  0
 13 16  1  0  0  0  0
 15 14  1  0  0  0  0
 16 15  1  0  0  0  0
 16 14  1  0  0  0  0
 18 19  1  0  0  0  0
 18 17  1  1  0  0  0
 19 20  1  1  0  0  0
 20 21  1  0  0  0  0
 21 22  1  0  0  0  0
 22 23  1  1  0  0  0
 22 24  1  0  0  0  0
 24 27  1  1  0  0  0
 24 26  1  0  0  0  0
 26 25  1  0  0  0  0
 27 29  1  0  0  0  0
 28 29  1  0  0  0  0
 30 19  1  0  0  0  0
 30 31  1  0  0  0  0
 32 31  1  0  0  0  0
M  END
>  <MODEL>
4

>  <REMARK>
 VINA RESULT:      -6.2      1.968      7.299
  Name = 
  17 active torsions:
  status: ('A' for Active; 'I' for Inactive)
    1  A    between atoms: C_1  and  C_2
    2  A    between atoms: C_1  and  S_30
    3  A    between atoms: C_2  and  O_5
    4  A    between atoms: C_2  and  C_27
    5  A    between atoms: C_4  and  C_29
    6  A    between atoms: C_4  and  S_30
    7  A    between atoms: O_5  and  C_14
    8  A    between atoms: C_7  and  C_26
    9  A    between atoms: C_7  and  C_31
   10  A    between atoms: C_9  and  C_31
   11  A    between atoms: C_9  and  N_32
   12  A    between atoms: C_16  and  C_20
   13  A    between atoms: C_16  and  C_27
   14  A    between atoms: C_17  and  C_29
   15  A    between atoms: C_18  and  C_25
   16  A    between atoms: C_18  and  C_29
   17  A    between atoms: C_28  and  N_32
                            x       y       z     vdW  Elec       q    Type
                         _______ _______ _______ _____ _____    ______ ____

>  <TORSDO>
F 17

$$$$
=
 OpenBabel11052414463D

 32 33  0  0  1  0  0  0  0  0999 V2000
  184.8930  178.8090  140.9360 C   0  0  0  0  0  0  0  0  0  0  0  0
  186.1120  178.7650  140.8420 O   0  0  0  0  0  0  0  0  0  0  0  0
  182.0910  178.9190  143.5280 C   0  0  0  0  0  0  0  0  0  0  0  0
  180.8910  179.1060  143.6360 O   0  0  0  0  0  0  0  0  0  0  0  0
  184.8870  179.5360  143.3120 C   0  0  0  0  0  2  0  0  0  0  0  0
  182.9130  178.6380  144.7520 C   0  0  0  0  0  2  0  0  0  0  0  0
  184.2260  178.6420  142.2630 C   0  0  1  0  0  3  0  0  0  0  0  0
  182.7290  178.9360  142.1680 C   0  0  0  0  0  2  0  0  0  0  0  0
  184.2640  179.3710  144.7100 C   0  0  1  0  0  3  0  0  0  0  0  0
  185.2570  178.7790  145.7100 C   0  0  0  0  0  2  0  0  0  0  0  0
  186.2550  177.8180  145.0670 C   0  0  0  0  0  2  0  0  0  0  0  0
  187.5400  177.7210  145.8720 C   0  0  0  0  0  2  0  0  0  0  0  0
  188.6380  177.3210  145.0090 N   0  0  0  0  0  2  0  0  0  0  0  0
  189.1040  176.0040  143.0370 C   0  0  0  0  0  2  0  0  0  0  0  0
  188.7020  177.3910  142.5920 C   0  0  0  0  0  2  0  0  0  0  0  0
  188.0440  176.7690  143.8050 C   0  0  0  0  0  3  0  0  0  0  0  0
  184.5050  180.1090  138.9970 O   0  0  0  0  0  1  0  0  0  0  0  0
  184.0430  179.0060  139.7180 C   0  0  1  0  0  3  0  0  0  0  0  0
  184.0350  177.7570  138.8290 C   0  0  2  0  0  3  0  0  0  0  0  0
  184.6800  178.0360  137.4730 C   0  0  0  0  0  2  0  0  0  0  0  0
  185.9170  176.7670  137.0430 S   0  0  0  0  0  0  0  0  0  0  0  0
  186.9630  177.9770  136.1820 C   0  0  2  0  0  3  0  0  0  0  0  0
  186.6860  177.9450  134.6860 C   0  0  0  0  0  1  0  0  0  0  0  0
  188.4390  177.7530  136.5210 C   0  0  1  0  0  3  0  0  0  0  0  0
  189.6240  176.1110  135.2360 O   0  0  0  0  0  1  0  0  0  0  0  0
  189.2800  177.4620  135.2790 C   0  0  0  0  0  2  0  0  0  0  0  0
  188.9890  178.9440  137.2950 C   0  0  0  0  0  2  0  0  0  0  0  0
  189.4180  177.1240  138.9150 C   0  0  0  0  0  1  0  0  0  0  0  0
  189.1330  178.6030  138.7660 C   0  0  0  0  0  2  0  0  0  0  0  0
  182.7300  177.2860  138.6470 O   0  0  0  0  0  0  0  0  0  0  0  0
  182.5830  176.2580  139.5800 C   0  0  0  0  0  2  0  0  0  0  0  0
  181.2560  175.5630  139.3590 C   0  0  0  0  0  1  0  0  0  0  0  0
  2  1  2  0  0  0  0
  3  4  2  0  0  0  0
  3  6  1  0  0  0  0
  5  9  1  0  0  0  0
  7  1  1  6  0  0  0
  7  5  1  0  0  0  0
  8  7  1  0  0  0  0
  8  3  1  0  0  0  0
  9  6  1  0  0  0  0
  9 10  1  1  0  0  0
 11 10  1  0  0  0  0
 11 12  1  0  0  0  0
 13 12  1  0  0  0  0
 14 16  1  0  0  0  0
 15 14  1  0  0  0  0
 15 16  1  0  0  0  0
 16 13  1  0  0  0  0
 18 17  1  6  0  0  0
 18  1  1  0  0  0  0
 19 20  1  6  0  0  0
 19 18  1  0  0  0  0
 21 20  1  0  0  0  0
 22 23  1  6  0  0  0
 22 24  1  0  0  0  0
 22 21  1  0  0  0  0
 24 26  1  6  0  0  0
 24 27  1  0  0  0  0
 25 26  1  0  0  0  0
 27 29  1  0  0  0  0
 29 28  1  0  0  0  0
 30 19  1  0  0  0  0
 30 31  1  0  0  0  0
 32 31  1  0  0  0  0
M  END
>  <MODEL>
5

>  <REMARK>
 VINA RESULT:      -6.2      3.031      6.079
  Name = 
  17 active torsions:
  status: ('A' for Active; 'I' for Inactive)
    1  A    between atoms: C_1  and  C_2
    2  A    between atoms: C_1  and  S_30
    3  A    between atoms: C_2  and  O_5
    4  A    between atoms: C_2  and  C_27
    5  A    between atoms: C_4  and  C_29
    6  A    between atoms: C_4  and  S_30
    7  A    between atoms: O_5  and  C_14
    8  A    between atoms: C_7  and  C_26
    9  A    between atoms: C_7  and  C_31
   10  A    between atoms: C_9  and  C_31
   11  A    between atoms: C_9  and  N_32
   12  A    between atoms: C_16  and  C_20
   13  A    between atoms: C_16  and  C_27
   14  A    between atoms: C_17  and  C_29
   15  A    between atoms: C_18  and  C_25
   16  A    between atoms: C_18  and  C_29
   17  A    between atoms: C_28  and  N_32
                            x       y       z     vdW  Elec       q    Type
                         _______ _______ _______ _____ _____    ______ ____

>  <TORSDO>
F 17

$$$$
=
 OpenBabel11052414463D

 32 33  0  0  1  0  0  0  0  0999 V2000
  188.6560  177.0720  143.4230 C   0  0  0  0  0  0  0  0  0  0  0  0
  188.7330  175.8600  143.2730 O   0  0  0  0  0  0  0  0  0  0  0  0
  188.1920  177.6150  147.1740 C   0  0  0  0  0  0  0  0  0  0  0  0
  188.6910  177.3390  148.2520 O   0  0  0  0  0  0  0  0  0  0  0  0
  186.6030  177.3070  144.8020 C   0  0  0  0  0  2  0  0  0  0  0  0
  186.9370  178.4370  147.1230 C   0  0  0  0  0  2  0  0  0  0  0  0
  188.0870  177.6490  144.6800 C   0  0  1  0  0  3  0  0  0  0  0  0
  188.8580  177.1610  145.9060 C   0  0  0  0  0  2  0  0  0  0  0  0
  185.9560  177.9130  146.0610 C   0  0  1  0  0  3  0  0  0  0  0  0
  184.8960  178.9560  145.7120 C   0  0  0  0  0  2  0  0  0  0  0  0
  184.3130  178.7720  144.3110 C   0  0  0  0  0  2  0  0  0  0  0  0
  182.7950  178.7080  144.3380 C   0  0  0  0  0  2  0  0  0  0  0  0
  182.2430  179.6040  143.3370 N   0  0  0  0  0  2  0  0  0  0  0  0
  179.9180  179.9540  142.7770 C   0  0  0  0  0  2  0  0  0  0  0  0
  179.9860  178.9150  143.8720 C   0  0  0  0  0  2  0  0  0  0  0  0
  181.0590  178.9570  142.8030 C   0  0  0  0  0  3  0  0  0  0  0  0
  190.4950  177.9280  142.2040 O   0  0  0  0  0  1  0  0  0  0  0  0
  189.1070  178.0020  142.3390 C   0  0  1  0  0  3  0  0  0  0  0  0
  188.4280  177.6810  141.0030 C   0  0  2  0  0  3  0  0  0  0  0  0
  189.4450  177.2320  139.9550 C   0  0  0  0  0  2  0  0  0  0  0  0
  189.2080  178.1020  138.3710 S   0  0  0  0  0  0  0  0  0  0  0  0
  189.2950  176.5530  137.4250 C   0  0  2  0  0  3  0  0  0  0  0  0
  190.3850  176.6430  136.3660 C   0  0  0  0  0  1  0  0  0  0  0  0
  187.9240  176.1970  136.8440 C   0  0  1  0  0  3  0  0  0  0  0  0
  186.9140  174.2320  135.9110 O   0  0  0  0  0  1  0  0  0  0  0  0
  187.5820  174.7200  137.0340 C   0  0  0  0  0  2  0  0  0  0  0  0
  186.8490  177.0950  137.4410 C   0  0  0  0  0  2  0  0  0  0  0  0
  186.7110  177.8310  135.0830 C   0  0  0  0  0  1  0  0  0  0  0  0
  185.9230  177.6110  136.3560 C   0  0  0  0  0  2  0  0  0  0  0  0
  187.7160  178.7890  140.5290 O   0  0  0  0  0  0  0  0  0  0  0  0
  186.5500  178.8240  141.2960 C   0  0  0  0  0  2  0  0  0  0  0  0
  185.3450  178.8660  140.3800 C   0  0  0  0  0  1  0  0  0  0  0  0
  2  1  2  0  0  0  0
  3  4  2  0  0  0  0
  5  9  1  0  0  0  0
  6  3  1  0  0  0  0
  7  1  1  6  0  0  0
  7  5  1  0  0  0  0
  7  8  1  0  0  0  0
  8  3  1  0  0  0  0
  9 10  1  6  0  0  0
  9  6  1  0  0  0  0
 11 12  1  0  0  0  0
 11 10  1  0  0  0  0
 13 12  1  0  0  0  0
 14 16  1  0  0  0  0
 14 15  1  0  0  0  0
 16 13  1  0  0  0  0
 16 15  1  0  0  0  0
 18 17  1  6  0  0  0
 18  1  1  0  0  0  0
 19 20  1  6  0  0  0
 19 18  1  0  0  0  0
 21 20  1  0  0  0  0
 22 23  1  6  0  0  0
 22 21  1  0  0  0  0
 24 26  1  1  0  0  0
 24 22  1  0  0  0  0
 24 27  1  0  0  0  0
 25 26  1  0  0  0  0
 28 29  1  0  0  0  0
 29 27  1  0  0  0  0
 30 19  1  0  0  0  0
 30 31  1  0  0  0  0
 32 31  1  0  0  0  0
M  END
>  <MODEL>
6

>  <REMARK>
 VINA RESULT:      -6.2      1.982      2.899
  Name = 
  17 active torsions:
  status: ('A' for Active; 'I' for Inactive)
    1  A    between atoms: C_1  and  C_2
    2  A    between atoms: C_1  and  S_30
    3  A    between atoms: C_2  and  O_5
    4  A    between atoms: C_2  and  C_27
    5  A    between atoms: C_4  and  C_29
    6  A    between atoms: C_4  and  S_30
    7  A    between atoms: O_5  and  C_14
    8  A    between atoms: C_7  and  C_26
    9  A    between atoms: C_7  and  C_31
   10  A    between atoms: C_9  and  C_31
   11  A    between atoms: C_9  and  N_32
   12  A    between atoms: C_16  and  C_20
   13  A    between atoms: C_16  and  C_27
   14  A    between atoms: C_17  and  C_29
   15  A    between atoms: C_18  and  C_25
   16  A    between atoms: C_18  and  C_29
   17  A    between atoms: C_28  and  N_32
                            x       y       z     vdW  Elec       q    Type
                         _______ _______ _______ _____ _____    ______ ____

>  <TORSDO>
F 17

$$$$
=
 OpenBabel11052414463D

 32 33  0  0  1  0  0  0  0  0999 V2000
  190.2340  176.7030  142.7970 C   0  0  0  0  0  0  0  0  0  0  0  0
  190.0910  175.5270  142.4930 O   0  0  0  0  0  0  0  0  0  0  0  0
  191.1810  176.7930  146.4950 C   0  0  0  0  0  0  0  0  0  0  0  0
  192.0180  176.3820  147.2810 O   0  0  0  0  0  0  0  0  0  0  0  0
  188.8310  176.7950  144.8450 C   0  0  0  0  0  2  0  0  0  0  0  0
  190.0400  177.6310  146.9930 C   0  0  0  0  0  2  0  0  0  0  0  0
  190.1890  177.1300  144.2290 C   0  0  1  0  0  3  0  0  0  0  0  0
  191.3200  176.4870  145.0310 C   0  0  0  0  0  2  0  0  0  0  0  0
  188.7150  177.2520  146.3110 C   0  0  1  0  0  3  0  0  0  0  0  0
  187.6600  178.3430  146.4860 C   0  0  0  0  0  2  0  0  0  0  0  0
  186.2610  177.8970  146.0630 C   0  0  0  0  0  2  0  0  0  0  0  0
  185.4670  179.0410  145.4550 C   0  0  0  0  0  2  0  0  0  0  0  0
  184.0440  178.7610  145.5440 N   0  0  0  0  0  2  0  0  0  0  0  0
  182.0350  178.8790  144.2060 C   0  0  0  0  0  2  0  0  0  0  0  0
  183.1880  178.5250  143.2940 C   0  0  0  0  0  2  0  0  0  0  0  0
  183.4070  179.4740  144.4530 C   0  0  0  0  0  3  0  0  0  0  0  0
  191.7050  177.6050  141.1770 O   0  0  0  0  0  1  0  0  0  0  0  0
  190.4330  177.7430  141.7370 C   0  0  1  0  0  3  0  0  0  0  0  0
  189.3610  177.6470  140.6460 C   0  0  2  0  0  3  0  0  0  0  0  0
  189.9760  177.7460  139.2520 C   0  0  0  0  0  2  0  0  0  0  0  0
  189.9710  176.1350  138.3980 S   0  0  0  0  0  0  0  0  0  0  0  0
  188.8850  176.7550  137.0810 C   0  0  2  0  0  3  0  0  0  0  0  0
  189.4360  178.0560  136.5120 C   0  0  0  0  0  1  0  0  0  0  0  0
  187.4460  176.8840  137.5830 C   0  0  1  0  0  3  0  0  0  0  0  0
  186.0460  178.6760  138.3490 O   0  0  0  0  0  1  0  0  0  0  0  0
  186.8510  178.2610  137.2880 C   0  0  0  0  0  2  0  0  0  0  0  0
  186.5830  175.7730  137.0010 C   0  0  0  0  0  2  0  0  0  0  0  0
  186.5360  173.4480  136.1580 C   0  0  0  0  0  1  0  0  0  0  0  0
  187.4090  174.5230  136.7690 C   0  0  0  0  0  2  0  0  0  0  0  0
  188.3940  178.6460  140.8110 O   0  0  0  0  0  0  0  0  0  0  0  0
  187.2910  177.9930  141.3640 C   0  0  0  0  0  2  0  0  0  0  0  0
  186.3040  179.0200  141.8790 C   0  0  0  0  0  1  0  0  0  0  0  0
  2  1  2  0  0  0  0
  3  6  1  0  0  0  0
  3  4  2  0  0  0  0
  5  9  1  0  0  0  0
  7  1  1  6  0  0  0
  7  5  1  0  0  0  0
  7  8  1  0  0  0  0
  8  3  1  0  0  0  0
  9 10  1  6  0  0  0
  9  6  1  0  0  0  0
 11 10  1  0  0  0  0
 12 13  1  0  0  0  0
 12 11  1  0  0  0  0
 14 16  1  0  0  0  0
 15 14  1  0  0  0  0
 15 16  1  0  0  0  0
 16 13  1  0  0  0  0
 18 17  1  6  0  0  0
 18  1  1  0  0  0  0
 19 20  1  6  0  0  0
 19 30  1  0  0  0  0
 19 18  1  0  0  0  0
 21 20  1  0  0  0  0
 22 23  1  1  0  0  0
 22 24  1  0  0  0  0
 22 21  1  0  0  0  0
 24 27  1  6  0  0  0
 26 24  1  0  0  0  0
 26 25  1  0  0  0  0
 28 29  1  0  0  0  0
 29 27  1  0  0  0  0
 30 31  1  0  0  0  0
 31 32  1  0  0  0  0
M  END
>  <MODEL>
7

>  <REMARK>
 VINA RESULT:      -6.1      1.815      2.900
  Name = 
  17 active torsions:
  status: ('A' for Active; 'I' for Inactive)
    1  A    between atoms: C_1  and  C_2
    2  A    between atoms: C_1  and  S_30
    3  A    between atoms: C_2  and  O_5
    4  A    between atoms: C_2  and  C_27
    5  A    between atoms: C_4  and  C_29
    6  A    between atoms: C_4  and  S_30
    7  A    between atoms: O_5  and  C_14
    8  A    between atoms: C_7  and  C_26
    9  A    between atoms: C_7  and  C_31
   10  A    between atoms: C_9  and  C_31
   11  A    between atoms: C_9  and  N_32
   12  A    between atoms: C_16  and  C_20
   13  A    between atoms: C_16  and  C_27
   14  A    between atoms: C_17  and  C_29
   15  A    between atoms: C_18  and  C_25
   16  A    between atoms: C_18  and  C_29
   17  A    between atoms: C_28  and  N_32
                            x       y       z     vdW  Elec       q    Type
                         _______ _______ _______ _____ _____    ______ ____

>  <TORSDO>
F 17

$$$$
=
 OpenBabel11052414463D

 32 33  0  0  1  0  0  0  0  0999 V2000
  188.5080  178.4810  138.8820 C   0  0  0  0  0  0  0  0  0  0  0  0
  189.0480  179.3060  138.1570 O   0  0  0  0  0  0  0  0  0  0  0  0
  186.5180  176.1480  136.6080 C   0  0  0  0  0  0  0  0  0  0  0  0
  186.6480  175.3930  135.6580 O   0  0  0  0  0  0  0  0  0  0  0  0
  186.1730  178.6110  138.0420 C   0  0  0  0  0  2  0  0  0  0  0  0
  185.1590  176.3640  137.2060 C   0  0  0  0  0  2  0  0  0  0  0  0
  187.3390  177.6880  138.3930 C   0  0  1  0  0  3  0  0  0  0  0  0
  187.7250  176.8240  137.1930 C   0  0  0  0  0  2  0  0  0  0  0  0
  184.9270  177.8400  137.5710 C   0  0  1  0  0  3  0  0  0  0  0  0
  183.7560  178.0030  138.5390 C   0  0  0  0  0  2  0  0  0  0  0  0
  184.0460  178.9890  139.6690 C   0  0  0  0  0  2  0  0  0  0  0  0
  184.2780  178.2760  140.9910 C   0  0  0  0  0  2  0  0  0  0  0  0
  184.2040  179.2260  142.0870 N   0  0  0  0  0  2  0  0  0  0  0  0
  184.3310  179.3000  144.5000 C   0  0  0  0  0  2  0  0  0  0  0  0
  185.2860  178.2340  144.0110 C   0  0  0  0  0  2  0  0  0  0  0  0
  183.9700  178.4550  143.2940 C   0  0  0  0  0  3  0  0  0  0  0  0
  187.9130  177.9480  141.1100 O   0  0  0  0  0  1  0  0  0  0  0  0
  188.9920  178.2690  140.2830 C   0  0  1  0  0  3  0  0  0  0  0  0
  190.0570  177.1690  140.3510 C   0  0  2  0  0  3  0  0  0  0  0  0
  190.8250  177.2190  141.6700 C   0  0  0  0  0  2  0  0  0  0  0  0
  190.1670  176.0220  142.8780 S   0  0  0  0  0  0  0  0  0  0  0  0
  189.9530  177.3070  144.1430 C   0  0  2  0  0  3  0  0  0  0  0  0
  190.8410  178.5050  143.8340 C   0  0  0  0  0  1  0  0  0  0  0  0
  190.1900  176.7330  145.5420 C   0  0  1  0  0  3  0  0  0  0  0  0
  191.9300  176.8500  147.1880 O   0  0  0  0  0  1  0  0  0  0  0  0
  191.6750  176.5530  145.8500 C   0  0  0  0  0  2  0  0  0  0  0  0
  189.5090  177.6020  146.5900 C   0  0  0  0  0  2  0  0  0  0  0  0
  187.3330  178.1040  147.6560 C   0  0  0  0  0  1  0  0  0  0  0  0
  188.0040  177.5820  146.4030 C   0  0  0  0  0  2  0  0  0  0  0  0
  190.9490  177.2750  139.2770 O   0  0  0  0  0  0  0  0  0  0  0  0
  190.9660  176.0060  138.6960 C   0  0  0  0  0  2  0  0  0  0  0  0
  192.2730  175.8070  137.9570 C   0  0  0  0  0  1  0  0  0  0  0  0
  1 18  1  0  0  0  0
  2  1  2  0  0  0  0
  3  8  1  0  0  0  0
  3  6  1  0  0  0  0
  4  3  2  0  0  0  0
  5  7  1  0  0  0  0
  6  9  1  0  0  0  0
  7  1  1  6  0  0  0
  8  7  1  0  0  0  0
  9  5  1  0  0  0  0
  9 10  1  1  0  0  0
 10 11  1  0  0  0  0
 11 12  1  0  0  0  0
 12 13  1  0  0  0  0
 13 16  1  0  0  0  0
 15 14  1  0  0  0  0
 16 15  1  0  0  0  0
 16 14  1  0  0  0  0
 18 19  1  0  0  0  0
 18 17  1  1  0  0  0
 19 20  1  1  0  0  0
 20 21  1  0  0  0  0
 21 22  1  0  0  0  0
 22 23  1  6  0  0  0
 22 24  1  0  0  0  0
 24 26  1  1  0  0  0
 24 27  1  0  0  0  0
 26 25  1  0  0  0  0
 29 27  1  0  0  0  0
 29 28  1  0  0  0  0
 30 19  1  0  0  0  0
 31 30  1  0  0  0  0
 32 31  1  0  0  0  0
M  END
>  <MODEL>
8

>  <REMARK>
 VINA RESULT:      -6.1      1.893      7.361
  Name = 
  17 active torsions:
  status: ('A' for Active; 'I' for Inactive)
    1  A    between atoms: C_1  and  C_2
    2  A    between atoms: C_1  and  S_30
    3  A    between atoms: C_2  and  O_5
    4  A    between atoms: C_2  and  C_27
    5  A    between atoms: C_4  and  C_29
    6  A    between atoms: C_4  and  S_30
    7  A    between atoms: O_5  and  C_14
    8  A    between atoms: C_7  and  C_26
    9  A    between atoms: C_7  and  C_31
   10  A    between atoms: C_9  and  C_31
   11  A    between atoms: C_9  and  N_32
   12  A    between atoms: C_16  and  C_20
   13  A    between atoms: C_16  and  C_27
   14  A    between atoms: C_17  and  C_29
   15  A    between atoms: C_18  and  C_25
   16  A    between atoms: C_18  and  C_29
   17  A    between atoms: C_28  and  N_32
                            x       y       z     vdW  Elec       q    Type
                         _______ _______ _______ _____ _____    ______ ____

>  <TORSDO>
F 17

$$$$
=
 OpenBabel11052414463D

 32 33  0  0  1  0  0  0  0  0999 V2000
  188.2360  176.7680  143.2440 C   0  0  0  0  0  0  0  0  0  0  0  0
  188.3070  175.5460  143.2330 O   0  0  0  0  0  0  0  0  0  0  0  0
  188.1060  177.7420  146.9340 C   0  0  0  0  0  0  0  0  0  0  0  0
  188.6960  177.5830  147.9890 O   0  0  0  0  0  0  0  0  0  0  0  0
  186.3120  177.1880  144.7600 C   0  0  0  0  0  2  0  0  0  0  0  0
  186.8550  178.5710  146.8980 C   0  0  0  0  0  2  0  0  0  0  0  0
  187.7820  177.4920  144.4710 C   0  0  1  0  0  3  0  0  0  0  0  0
  188.6550  177.1360  145.6730 C   0  0  0  0  0  2  0  0  0  0  0  0
  185.7820  177.9430  145.9930 C   0  0  1  0  0  3  0  0  0  0  0  0
  184.6990  178.9550  145.6190 C   0  0  0  0  0  2  0  0  0  0  0  0
  184.4100  178.9960  144.1190 C   0  0  0  0  0  2  0  0  0  0  0  0
  182.9490  178.7000  143.8210 C   0  0  0  0  0  2  0  0  0  0  0  0
  182.6590  178.9870  142.4270 N   0  0  0  0  0  2  0  0  0  0  0  0
  183.6420  178.9300  140.2200 C   0  0  0  0  0  2  0  0  0  0  0  0
  183.2010  177.5280  140.5750 C   0  0  0  0  0  2  0  0  0  0  0  0
  183.7560  178.4400  141.6500 C   0  0  0  0  0  3  0  0  0  0  0  0
  188.0830  178.8600  142.1480 O   0  0  0  0  0  1  0  0  0  0  0  0
  188.5780  177.5600  142.0200 C   0  0  1  0  0  3  0  0  0  0  0  0
  190.0900  177.5910  141.7730 C   0  0  2  0  0  3  0  0  0  0  0  0
  190.4810  176.6940  140.6000 C   0  0  0  0  0  2  0  0  0  0  0  0
  192.0220  177.2580  139.8060 S   0  0  0  0  0  0  0  0  0  0  0  0
  191.4420  176.7560  138.1590 C   0  0  2  0  0  3  0  0  0  0  0  0
  190.0080  177.2200  137.9410 C   0  0  0  0  0  1  0  0  0  0  0  0
  191.6190  175.2500  137.9600 C   0  0  1  0  0  3  0  0  0  0  0  0
  189.9120  173.6070  137.5810 O   0  0  0  0  0  1  0  0  0  0  0  0
  190.5930  174.6700  136.9880 C   0  0  0  0  0  2  0  0  0  0  0  0
  193.0420  174.9410  137.5130 C   0  0  0  0  0  2  0  0  0  0  0  0
  193.5310  175.7290  135.2200 C   0  0  0  0  0  1  0  0  0  0  0  0
  193.6010  176.0840  136.6890 C   0  0  0  0  0  2  0  0  0  0  0  0
  190.7890  177.2010  142.9220 O   0  0  0  0  0  0  0  0  0  0  0  0
  191.6960  178.2350  143.1610 C   0  0  0  0  0  2  0  0  0  0  0  0
  191.0580  179.2650  144.0700 C   0  0  0  0  0  1  0  0  0  0  0  0
  2  1  2  0  0  0  0
  3  4  2  0  0  0  0
  5  9  1  0  0  0  0
  6  3  1  0  0  0  0
  7  1  1  6  0  0  0
  7  5  1  0  0  0  0
  7  8  1  0  0  0  0
  8  3  1  0  0  0  0
  9 10  1  6  0  0  0
  9  6  1  0  0  0  0
 11 10  1  0  0  0  0
 12 11  1  0  0  0  0
 13 12  1  0  0  0  0
 14 15  1  0  0  0  0
 14 16  1  0  0  0  0
 15 16  1  0  0  0  0
 16 13  1  0  0  0  0
 18 17  1  1  0  0  0
 18  1  1  0  0  0  0
 19 20  1  6  0  0  0
 19 18  1  0  0  0  0
 19 30  1  0  0  0  0
 21 20  1  0  0  0  0
 22 23  1  1  0  0  0
 22 21  1  0  0  0  0
 24 26  1  6  0  0  0
 24 22  1  0  0  0  0
 26 25  1  0  0  0  0
 27 24  1  0  0  0  0
 28 29  1  0  0  0  0
 29 27  1  0  0  0  0
 30 31  1  0  0  0  0
 31 32  1  0  0  0  0
M  END
>  <MODEL>
9

>  <REMARK>
 VINA RESULT:      -6.0      2.096      3.133
  Name = 
  17 active torsions:
  status: ('A' for Active; 'I' for Inactive)
    1  A    between atoms: C_1  and  C_2
    2  A    between atoms: C_1  and  S_30
    3  A    between atoms: C_2  and  O_5
    4  A    between atoms: C_2  and  C_27
    5  A    between atoms: C_4  and  C_29
    6  A    between atoms: C_4  and  S_30
    7  A    between atoms: O_5  and  C_14
    8  A    between atoms: C_7  and  C_26
    9  A    between atoms: C_7  and  C_31
   10  A    between atoms: C_9  and  C_31
   11  A    between atoms: C_9  and  N_32
   12  A    between atoms: C_16  and  C_20
   13  A    between atoms: C_16  and  C_27
   14  A    between atoms: C_17  and  C_29
   15  A    between atoms: C_18  and  C_25
   16  A    between atoms: C_18  and  C_29
   17  A    between atoms: C_28  and  N_32
                            x       y       z     vdW  Elec       q    Type
                         _______ _______ _______ _____ _____    ______ ____

>  <TORSDO>
F 17

$$$$
