=
 OpenBabel11052415593D

 34 37  0  0  1  0  0  0  0  0999 V2000
  183.1960  177.9270  137.8630 N   0  0  2  0  0  0  0  0  0  0  0  0
  185.9210  175.4950  135.8790 C   0  0  0  0  0  2  0  0  0  0  0  0
  183.8770  175.5840  137.3590 C   0  0  2  0  0  3  0  0  0  0  0  0
  182.2360  178.6510  138.6970 C   0  0  2  0  0  3  0  0  0  0  0  0
  181.9410  180.0100  138.0850 C   0  0  0  0  0  1  0  0  0  0  0  0
  183.2090  178.7990  139.8470 C   0  0  2  0  0  3  0  0  0  0  0  0
  182.7360  176.5330  137.7710 C   0  0  2  0  0  3  0  0  0  0  0  0
  186.7750  176.1760  136.9470 C   0  0  0  0  0  2  0  0  0  0  0  0
  186.6540  177.6950  136.8820 C   0  0  1  0  0  3  0  0  0  0  0  0
  186.5920  178.2140  138.3100 C   0  0  0  0  0  2  0  0  0  0  0  0
  184.4510  175.8900  135.9760 C   0  0  0  0  0  2  0  0  0  0  0  0
  185.3030  178.9820  138.5480 C   0  0  0  0  0  2  0  0  0  0  0  0
  184.1710  178.0440  138.9530 C   0  0  2  0  0  3  0  0  0  0  0  0
  181.3650  179.3620  143.1200 C   0  0  0  0  0  2  0  0  0  0  0  0
  182.7720  177.9180  141.0250 C   0  0  1  0  0  3  0  0  0  0  0  0
  184.8170  179.0060  144.6680 C   0  0  0  0  0  0  0  0  0  0  0  0
  183.4770  179.3760  144.4680 C   0  0  0  0  0  3  0  0  0  0  0  0
  182.8150  179.0220  143.2890 C   0  0  0  0  0  0  0  0  0  0  0  0
  184.8200  177.9030  142.5060 C   0  0  0  0  0  3  0  0  0  0  0  0
  183.4860  178.2760  142.3070 C   0  0  0  0  0  0  0  0  0  0  0  0
  185.4810  178.2680  143.6830 C   0  0  0  0  0  3  0  0  0  0  0  0
  181.3610  177.9140  141.1880 O   0  0  0  0  0  0  0  0  0  0  0  0
  180.9470  179.1780  141.6620 C   0  0  0  0  0  2  0  0  0  0  0  0
  185.5070  179.3540  145.8320 O   0  0  0  0  0  0  0  0  0  0  0  0
  187.0490  178.1910  147.2520 C   0  0  0  0  0  1  0  0  0  0  0  0
  185.5940  178.4920  146.9590 C   0  0  0  0  0  2  0  0  0  0  0  0
  187.8350  178.3170  136.1250 C   0  0  0  0  0  3  0  0  0  0  0  0
  188.8430  178.9270  137.0840 C   0  0  0  0  0  1  0  0  0  0  0  0
  188.5550  177.2730  135.2890 C   0  0  0  0  0  1  0  0  0  0  0  0
  180.5960  175.6400  137.1340 O   0  0  0  0  0  1  0  0  0  0  0  0
  181.5430  176.4230  136.8610 C   0  0  0  0  0  0  0  0  0  0  0  0
  181.4830  177.2000  135.7120 O   0  0  0  0  0  0  0  0  0  0  0  0
  183.5400  174.1060  137.5500 C   0  0  0  0  0  2  0  0  0  0  0  0
  184.6590  173.3840  137.9700 O   0  0  0  0  0  1  0  0  0  0  0  0
  1  4  1  0  0  0  0
  1 13  1  0  0  0  0
  2 11  1  0  0  0  0
  2  8  1  0  0  0  0
  3 33  1  0  0  0  0
  3  7  1  0  0  0  0
  4  6  1  0  0  0  0
  5  4  1  0  0  0  0
  6 15  1  0  0  0  0
  7  1  1  0  0  0  0
  9  8  1  0  0  0  0
  9 10  1  0  0  0  0
 10 12  1  0  0  0  0
 11  3  1  0  0  0  0
 12 13  1  0  0  0  0
 13  6  1  0  0  0  0
 14 18  1  0  0  0  0
 15 22  1  0  0  0  0
 15 20  1  0  0  0  0
 16 24  1  0  0  0  0
 17 16  1  0  0  0  0
 18 17  2  0  0  0  0
 19 21  1  0  0  0  0
 20 19  2  0  0  0  0
 20 18  1  0  0  0  0
 21 16  2  0  0  0  0
 22 23  1  0  0  0  0
 23 14  1  0  0  0  0
 24 26  1  0  0  0  0
 26 25  1  0  0  0  0
 27  9  1  0  0  0  0
 27 28  1  0  0  0  0
 29 27  1  0  0  0  0
 31 30  1  0  0  0  0
 31  7  1  0  0  0  0
 32 31  2  0  0  0  0
 33 34  1  0  0  0  0
M  END
>  <MODEL>
1

>  <REMARK>
 VINA RESULT:      -7.1      0.000      0.000
  Name = 
  6 active torsions:
  status: ('A' for Active; 'I' for Inactive)
    1  A    between atoms: C_3  and  C_25
    2  A    between atoms: C_5  and  C_19
    3  A    between atoms: C_6  and  C_18
    4  A    between atoms: C_7  and  O_11
    5  A    between atoms: O_11  and  C_21
    6  A    between atoms: C_12  and  C_20
                            x       y       z     vdW  Elec       q    Type
                         _______ _______ _______ _____ _____    ______ ____

>  <TORSDO>
F 6

$$$$
=
 OpenBabel11052415593D

 34 37  0  0  1  0  0  0  0  0999 V2000
  189.7780  176.8180  137.6060 N   0  0  2  0  0  0  0  0  0  0  0  0
  191.6370  173.6460  135.6660 C   0  0  0  0  0  2  0  0  0  0  0  0
  189.6460  174.3990  137.0240 C   0  0  2  0  0  3  0  0  0  0  0  0
  189.0670  177.8070  138.4170 C   0  0  2  0  0  3  0  0  0  0  0  0
  189.3040  179.2000  137.8600 C   0  0  0  0  0  1  0  0  0  0  0  0
  189.9440  177.5750  139.6300 C   0  0  2  0  0  3  0  0  0  0  0  0
  188.8740  175.6730  137.4150 C   0  0  2  0  0  3  0  0  0  0  0  0
  192.5920  173.9590  136.8160 C   0  0  0  0  0  2  0  0  0  0  0  0
  193.0060  175.4270  136.8220 C   0  0  1  0  0  3  0  0  0  0  0  0
  193.0220  175.8950  138.2690 C   0  0  0  0  0  2  0  0  0  0  0  0
  190.3900  174.5250  135.6950 C   0  0  0  0  0  2  0  0  0  0  0  0
  192.0630  177.0560  138.4690 C   0  0  0  0  0  2  0  0  0  0  0  0
  190.6500  176.5590  138.7570 C   0  0  2  0  0  3  0  0  0  0  0  0
  188.1030  178.6640  142.7690 C   0  0  0  0  0  2  0  0  0  0  0  0
  189.1450  176.8690  140.7320 C   0  0  1  0  0  3  0  0  0  0  0  0
  191.1050  177.1830  144.5660 C   0  0  0  0  0  0  0  0  0  0  0  0
  189.9790  177.9710  144.2780 C   0  0  0  0  0  3  0  0  0  0  0  0
  189.3440  177.8690  143.0370 C   0  0  0  0  0  0  0  0  0  0  0  0
  190.9410  176.1680  142.3670 C   0  0  0  0  0  3  0  0  0  0  0  0
  189.8210  176.9580  142.0800 C   0  0  0  0  0  0  0  0  0  0  0  0
  191.5780  176.2820  143.6060 C   0  0  0  0  0  3  0  0  0  0  0  0
  187.8000  177.3220  140.7850 O   0  0  0  0  0  0  0  0  0  0  0  0
  187.7770  178.6460  141.2760 C   0  0  0  0  0  2  0  0  0  0  0  0
  191.7670  177.2710  145.7940 O   0  0  0  0  0  0  0  0  0  0  0  0
  192.3470  175.6920  147.5010 C   0  0  0  0  0  1  0  0  0  0  0  0
  191.2880  176.6350  146.9710 C   0  0  0  0  0  2  0  0  0  0  0  0
  194.3820  175.6210  136.1700 C   0  0  0  0  0  3  0  0  0  0  0  0
  195.1890  174.3340  136.1950 C   0  0  0  0  0  1  0  0  0  0  0  0
  194.2390  176.0560  134.7210 C   0  0  0  0  0  1  0  0  0  0  0  0
  186.5970  175.6550  136.6420 O   0  0  0  0  0  1  0  0  0  0  0  0
  187.7870  176.0100  136.4310 C   0  0  0  0  0  0  0  0  0  0  0  0
  188.0980  176.7250  135.2830 O   0  0  0  0  0  0  0  0  0  0  0  0
  188.8070  173.1260  137.1180 C   0  0  0  0  0  2  0  0  0  0  0  0
  188.3910  172.7000  135.8550 O   0  0  0  0  0  1  0  0  0  0  0  0
  1  4  1  0  0  0  0
  1 13  1  0  0  0  0
  2 11  1  0  0  0  0
  2  8  1  0  0  0  0
  3 33  1  0  0  0  0
  3  7  1  0  0  0  0
  4  6  1  0  0  0  0
  5  4  1  0  0  0  0
  6 15  1  0  0  0  0
  7  1  1  0  0  0  0
  8  9  1  0  0  0  0
  9 10  1  0  0  0  0
 10 12  1  0  0  0  0
 11  3  1  0  0  0  0
 12 13  1  0  0  0  0
 13  6  1  0  0  0  0
 14 18  1  0  0  0  0
 15 22  1  0  0  0  0
 15 20  1  0  0  0  0
 16 24  1  0  0  0  0
 17 16  1  0  0  0  0
 18 17  2  0  0  0  0
 19 21  1  0  0  0  0
 20 19  2  0  0  0  0
 20 18  1  0  0  0  0
 21 16  2  0  0  0  0
 22 23  1  0  0  0  0
 23 14  1  0  0  0  0
 24 26  1  0  0  0  0
 26 25  1  0  0  0  0
 27 28  1  0  0  0  0
 27  9  1  0  0  0  0
 29 27  1  0  0  0  0
 31 30  1  0  0  0  0
 31  7  1  0  0  0  0
 32 31  2  0  0  0  0
 34 33  1  0  0  0  0
M  END
>  <MODEL>
2

>  <REMARK>
 VINA RESULT:      -6.8      4.681      6.473
  Name = 
  6 active torsions:
  status: ('A' for Active; 'I' for Inactive)
    1  A    between atoms: C_3  and  C_25
    2  A    between atoms: C_5  and  C_19
    3  A    between atoms: C_6  and  C_18
    4  A    between atoms: C_7  and  O_11
    5  A    between atoms: O_11  and  C_21
    6  A    between atoms: C_12  and  C_20
                            x       y       z     vdW  Elec       q    Type
                         _______ _______ _______ _____ _____    ______ ____

>  <TORSDO>
F 6

$$$$
=
 OpenBabel11052415593D

 34 37  0  0  1  0  0  0  0  0999 V2000
  189.3770  176.9130  137.1830 N   0  0  2  0  0  0  0  0  0  0  0  0
  190.5990  173.5320  135.0970 C   0  0  0  0  0  2  0  0  0  0  0  0
  188.8310  174.5580  136.5800 C   0  0  2  0  0  3  0  0  0  0  0  0
  188.8780  177.9840  138.0480 C   0  0  2  0  0  3  0  0  0  0  0  0
  189.3010  179.3340  137.4950 C   0  0  0  0  0  1  0  0  0  0  0  0
  189.7740  177.5910  139.2040 C   0  0  2  0  0  3  0  0  0  0  0  0
  188.2940  175.9290  137.0320 C   0  0  2  0  0  3  0  0  0  0  0  0
  191.6540  173.6660  136.1930 C   0  0  0  0  0  2  0  0  0  0  0  0
  192.2950  175.0500  136.1930 C   0  0  1  0  0  3  0  0  0  0  0  0
  192.4670  175.4780  137.6420 C   0  0  0  0  0  2  0  0  0  0  0  0
  189.5100  174.5940  135.2110 C   0  0  0  0  0  2  0  0  0  0  0  0
  191.7150  176.7710  137.9130 C   0  0  0  0  0  2  0  0  0  0  0  0
  190.2610  176.4950  138.2770 C   0  0  2  0  0  3  0  0  0  0  0  0
  188.0640  178.9480  142.3110 C   0  0  0  0  0  2  0  0  0  0  0  0
  188.9370  176.9950  140.3420 C   0  0  1  0  0  3  0  0  0  0  0  0
  190.9640  177.3130  144.1400 C   0  0  0  0  0  0  0  0  0  0  0  0
  189.9000  178.1740  143.8300 C   0  0  0  0  0  3  0  0  0  0  0  0
  189.2430  178.0710  142.6010 C   0  0  0  0  0  0  0  0  0  0  0  0
  190.6940  176.2250  141.9880 C   0  0  0  0  0  3  0  0  0  0  0  0
  189.6360  177.0870  141.6780 C   0  0  0  0  0  0  0  0  0  0  0  0
  191.3540  176.3400  143.2150 C   0  0  0  0  0  3  0  0  0  0  0  0
  187.6320  177.5540  140.3880 O   0  0  0  0  0  0  0  0  0  0  0  0
  187.7180  178.8940  140.8240 C   0  0  0  0  0  2  0  0  0  0  0  0
  191.6470  177.4000  145.3570 O   0  0  0  0  0  0  0  0  0  0  0  0
  190.1160  176.8900  147.1300 C   0  0  0  0  0  1  0  0  0  0  0  0
  191.4070  176.5080  146.4370 C   0  0  0  0  0  2  0  0  0  0  0  0
  193.6450  175.0400  135.4630 C   0  0  0  0  0  3  0  0  0  0  0  0
  194.0750  176.4460  135.0820 C   0  0  0  0  0  1  0  0  0  0  0  0
  194.7320  174.4390  136.3380 C   0  0  0  0  0  1  0  0  0  0  0  0
  186.0780  175.9240  136.0980 O   0  0  0  0  0  1  0  0  0  0  0  0
  187.2200  176.4530  136.1180 C   0  0  0  0  0  0  0  0  0  0  0  0
  187.4890  177.5380  135.2950 O   0  0  0  0  0  0  0  0  0  0  0  0
  187.8080  173.4310  136.7080 C   0  0  0  0  0  2  0  0  0  0  0  0
  188.2770  172.4170  137.5470 O   0  0  0  0  0  1  0  0  0  0  0  0
  1  4  1  0  0  0  0
  1 13  1  0  0  0  0
  2 11  1  0  0  0  0
  2  8  1  0  0  0  0
  3 33  1  0  0  0  0
  3  7  1  0  0  0  0
  4  6  1  0  0  0  0
  5  4  1  0  0  0  0
  6 15  1  0  0  0  0
  7  1  1  0  0  0  0
  8  9  1  0  0  0  0
  9 10  1  0  0  0  0
 10 12  1  0  0  0  0
 11  3  1  0  0  0  0
 12 13  1  0  0  0  0
 13  6  1  0  0  0  0
 14 18  1  0  0  0  0
 15 22  1  0  0  0  0
 15 20  1  0  0  0  0
 16 24  1  0  0  0  0
 17 16  1  0  0  0  0
 18 17  2  0  0  0  0
 19 21  1  0  0  0  0
 20 19  2  0  0  0  0
 20 18  1  0  0  0  0
 21 16  2  0  0  0  0
 22 23  1  0  0  0  0
 23 14  1  0  0  0  0
 24 26  1  0  0  0  0
 26 25  1  0  0  0  0
 27  9  1  0  0  0  0
 27 29  1  0  0  0  0
 28 27  1  0  0  0  0
 30 31  1  0  0  0  0
 31  7  1  0  0  0  0
 32 31  2  0  0  0  0
 33 34  1  0  0  0  0
M  END
>  <MODEL>
3

>  <REMARK>
 VINA RESULT:      -5.9      4.499      6.098
  Name = 
  6 active torsions:
  status: ('A' for Active; 'I' for Inactive)
    1  A    between atoms: C_3  and  C_25
    2  A    between atoms: C_5  and  C_19
    3  A    between atoms: C_6  and  C_18
    4  A    between atoms: C_7  and  O_11
    5  A    between atoms: O_11  and  C_21
    6  A    between atoms: C_12  and  C_20
                            x       y       z     vdW  Elec       q    Type
                         _______ _______ _______ _____ _____    ______ ____

>  <TORSDO>
F 6

$$$$
=
 OpenBabel11052415593D

 34 37  0  0  1  0  0  0  0  0999 V2000
  181.4170  176.9290  137.8490 N   0  0  2  0  0  0  0  0  0  0  0  0
  179.8810  180.5210  139.2710 C   0  0  0  0  0  2  0  0  0  0  0  0
  180.8480  179.2890  137.2900 C   0  0  2  0  0  3  0  0  0  0  0  0
  182.0750  175.7700  137.2440 C   0  0  2  0  0  3  0  0  0  0  0  0
  181.5530  174.4910  137.8760 C   0  0  0  0  0  1  0  0  0  0  0  0
  183.4280  176.1230  137.8240 C   0  0  2  0  0  3  0  0  0  0  0  0
  181.0790  177.8610  136.7620 C   0  0  2  0  0  3  0  0  0  0  0  0
  181.1810  180.3620  140.0570 C   0  0  0  0  0  2  0  0  0  0  0  0
  181.2450  179.0190  140.7770 C   0  0  1  0  0  3  0  0  0  0  0  0
  182.6660  178.4920  140.6440 C   0  0  0  0  0  2  0  0  0  0  0  0
  179.6740  179.3940  138.2620 C   0  0  0  0  0  2  0  0  0  0  0  0
  182.6750  177.1440  139.9450 C   0  0  0  0  0  2  0  0  0  0  0  0
  182.7090  177.3100  138.4290 C   0  0  2  0  0  3  0  0  0  0  0  0
  186.5240  174.7090  136.1370 C   0  0  0  0  0  2  0  0  0  0  0  0
  184.3760  176.5840  136.7100 C   0  0  1  0  0  3  0  0  0  0  0  0
  188.3580  177.3110  138.2110 C   0  0  0  0  0  0  0  0  0  0  0  0
  188.0800  176.1500  137.4710 C   0  0  0  0  0  3  0  0  0  0  0  0
  186.7910  175.9160  136.9840 C   0  0  0  0  0  0  0  0  0  0  0  0
  186.0500  178.0140  137.9520 C   0  0  0  0  0  3  0  0  0  0  0  0
  185.7730  176.8550  137.2180 C   0  0  0  0  0  0  0  0  0  0  0  0
  187.3390  178.2390  138.4450 C   0  0  0  0  0  3  0  0  0  0  0  0
  184.3790  175.6840  135.6110 O   0  0  0  0  0  0  0  0  0  0  0  0
  185.0190  174.4860  135.9960 C   0  0  0  0  0  2  0  0  0  0  0  0
  189.6350  177.5670  138.7190 O   0  0  0  0  0  0  0  0  0  0  0  0
  189.6630  177.2680  141.0970 C   0  0  0  0  0  1  0  0  0  0  0  0
  190.2120  176.7990  139.7660 C   0  0  0  0  0  2  0  0  0  0  0  0
  180.8490  179.1580  142.2530 C   0  0  0  0  0  3  0  0  0  0  0  0
  179.8290  178.1050  142.6510 C   0  0  0  0  0  1  0  0  0  0  0  0
  182.0610  179.0020  143.1580 C   0  0  0  0  0  1  0  0  0  0  0  0
  178.9710  176.7280  136.5250 O   0  0  0  0  0  1  0  0  0  0  0  0
  179.9110  177.3490  135.9640 C   0  0  0  0  0  0  0  0  0  0  0  0
  179.8670  177.5720  134.5940 O   0  0  0  0  0  0  0  0  0  0  0  0
  180.8040  180.3460  136.1880 C   0  0  0  0  0  2  0  0  0  0  0  0
  179.5000  180.7970  135.9710 O   0  0  0  0  0  1  0  0  0  0  0  0
  1 13  1  0  0  0  0
  2  8  1  0  0  0  0
  3 11  1  0  0  0  0
  4  6  1  0  0  0  0
  4  1  1  0  0  0  0
  4  5  1  0  0  0  0
  6 13  1  0  0  0  0
  7  3  1  0  0  0  0
  7  1  1  0  0  0  0
  8  9  1  0  0  0  0
  9 27  1  0  0  0  0
 10  9  1  0  0  0  0
 11  2  1  0  0  0  0
 12 10  1  0  0  0  0
 13 12  1  0  0  0  0
 14 18  1  0  0  0  0
 15 20  1  0  0  0  0
 15  6  1  0  0  0  0
 16 21  1  0  0  0  0
 16 24  1  0  0  0  0
 17 16  2  0  0  0  0
 18 20  2  0  0  0  0
 18 17  1  0  0  0  0
 19 21  2  0  0  0  0
 20 19  1  0  0  0  0
 22 23  1  0  0  0  0
 22 15  1  0  0  0  0
 23 14  1  0  0  0  0
 24 26  1  0  0  0  0
 26 25  1  0  0  0  0
 27 28  1  0  0  0  0
 27 29  1  0  0  0  0
 31 30  1  0  0  0  0
 31  7  1  0  0  0  0
 32 31  2  0  0  0  0
 33  3  1  0  0  0  0
 34 33  1  0  0  0  0
M  END
>  <MODEL>
4

>  <REMARK>
 VINA RESULT:      -5.3      2.815      6.665
  Name = 
  6 active torsions:
  status: ('A' for Active; 'I' for Inactive)
    1  A    between atoms: C_3  and  C_25
    2  A    between atoms: C_5  and  C_19
    3  A    between atoms: C_6  and  C_18
    4  A    between atoms: C_7  and  O_11
    5  A    between atoms: O_11  and  C_21
    6  A    between atoms: C_12  and  C_20
                            x       y       z     vdW  Elec       q    Type
                         _______ _______ _______ _____ _____    ______ ____

>  <TORSDO>
F 6

$$$$
=
 OpenBabel11052415593D

 34 37  0  0  1  0  0  0  0  0999 V2000
  186.9570  177.8300  137.9230 N   0  0  2  0  0  0  0  0  0  0  0  0
  185.7270  179.0500  141.7020 C   0  0  0  0  0  2  0  0  0  0  0  0
  187.3890  177.6910  140.3730 C   0  0  2  0  0  3  0  0  0  0  0  0
  187.4350  177.2360  136.6740 C   0  0  2  0  0  3  0  0  0  0  0  0
  187.1800  178.1870  135.5180 C   0  0  0  0  0  1  0  0  0  0  0  0
  186.3890  176.1420  136.6890 C   0  0  2  0  0  3  0  0  0  0  0  0
  187.9740  177.5660  138.9540 C   0  0  2  0  0  3  0  0  0  0  0  0
  184.5680  178.1770  141.2220 C   0  0  0  0  0  2  0  0  0  0  0  0
  184.0370  178.6390  139.8690 C   0  0  1  0  0  3  0  0  0  0  0  0
  183.7370  177.3970  139.0440 C   0  0  0  0  0  2  0  0  0  0  0  0
  186.8730  179.0930  140.6950 C   0  0  0  0  0  2  0  0  0  0  0  0
  184.5480  177.3970  137.7600 C   0  0  0  0  0  2  0  0  0  0  0  0
  185.9280  176.7870  137.9800 C   0  0  2  0  0  3  0  0  0  0  0  0
  187.4350  173.1410  134.6090 C   0  0  0  0  0  2  0  0  0  0  0  0
  187.0460  174.7860  136.9750 C   0  0  1  0  0  3  0  0  0  0  0  0
  184.3620  171.5100  136.1360 C   0  0  0  0  0  0  0  0  0  0  0  0
  185.4100  171.8130  135.2520 C   0  0  0  0  0  3  0  0  0  0  0  0
  186.2790  172.8730  135.5240 C   0  0  0  0  0  0  0  0  0  0  0  0
  185.0760  173.3230  137.5830 C   0  0  0  0  0  3  0  0  0  0  0  0
  186.1180  173.6270  136.6980 C   0  0  0  0  0  0  0  0  0  0  0  0
  184.2030  172.2680  137.3010 C   0  0  0  0  0  3  0  0  0  0  0  0
  188.2850  174.6450  136.2950 O   0  0  0  0  0  0  0  0  0  0  0  0
  188.0410  174.5110  134.9110 C   0  0  0  0  0  2  0  0  0  0  0  0
  183.4710  170.4630  135.8850 O   0  0  0  0  0  0  0  0  0  0  0  0
  181.1250  170.8990  135.6670 C   0  0  0  0  0  1  0  0  0  0  0  0
  182.4120  170.5660  134.9430 C   0  0  0  0  0  2  0  0  0  0  0  0
  182.7800  179.5050  140.0290 C   0  0  0  0  0  3  0  0  0  0  0  0
  182.4110  180.1850  138.7210 C   0  0  0  0  0  1  0  0  0  0  0  0
  181.5940  178.6660  140.4720 C   0  0  0  0  0  1  0  0  0  0  0  0
  189.0560  179.6150  138.3100 O   0  0  0  0  0  0  0  0  0  0  0  0
  189.1800  178.4430  138.7510 C   0  0  0  0  0  0  0  0  0  0  0  0
  190.4420  177.9550  139.0630 O   0  0  0  0  0  1  0  0  0  0  0  0
  188.3040  177.1290  141.4600 C   0  0  0  0  0  2  0  0  0  0  0  0
  189.0110  178.1480  142.1020 O   0  0  0  0  0  1  0  0  0  0  0  0
  1 13  1  0  0  0  0
  1  7  1  0  0  0  0
  3 11  1  0  0  0  0
  3 33  1  0  0  0  0
  4  6  1  0  0  0  0
  4  1  1  0  0  0  0
  5  4  1  0  0  0  0
  6 15  1  0  0  0  0
  6 13  1  0  0  0  0
  7  3  1  0  0  0  0
  8  2  1  0  0  0  0
  9 27  1  0  0  0  0
  9  8  1  0  0  0  0
 10  9  1  0  0  0  0
 11  2  1  0  0  0  0
 12 13  1  0  0  0  0
 12 10  1  0  0  0  0
 14 23  1  0  0  0  0
 14 18  1  0  0  0  0
 16 21  1  0  0  0  0
 17 18  1  0  0  0  0
 17 16  2  0  0  0  0
 18 20  2  0  0  0  0
 20 15  1  0  0  0  0
 20 19  1  0  0  0  0
 21 19  2  0  0  0  0
 22 15  1  0  0  0  0
 23 22  1  0  0  0  0
 24 16  1  0  0  0  0
 26 25  1  0  0  0  0
 26 24  1  0  0  0  0
 27 29  1  0  0  0  0
 28 27  1  0  0  0  0
 30 31  2  0  0  0  0
 31  7  1  0  0  0  0
 31 32  1  0  0  0  0
 33 34  1  0  0  0  0
M  END
>  <MODEL>
5

>  <REMARK>
 VINA RESULT:      -5.1      3.247      8.430
  Name = 
  6 active torsions:
  status: ('A' for Active; 'I' for Inactive)
    1  A    between atoms: C_3  and  C_25
    2  A    between atoms: C_5  and  C_19
    3  A    between atoms: C_6  and  C_18
    4  A    between atoms: C_7  and  O_11
    5  A    between atoms: O_11  and  C_21
    6  A    between atoms: C_12  and  C_20
                            x       y       z     vdW  Elec       q    Type
                         _______ _______ _______ _____ _____    ______ ____

>  <TORSDO>
F 6

$$$$
=
 OpenBabel11052415593D

 34 37  0  0  1  0  0  0  0  0999 V2000
  184.4650  177.5800  136.8550 N   0  0  2  0  0  0  0  0  0  0  0  0
  182.2380  180.3300  139.0350 C   0  0  0  0  0  2  0  0  0  0  0  0
  183.9100  178.4400  139.1260 C   0  0  2  0  0  3  0  0  0  0  0  0
  185.2200  176.4920  136.2310 C   0  0  2  0  0  3  0  0  0  0  0  0
  185.6420  176.8930  134.8290 C   0  0  0  0  0  1  0  0  0  0  0  0
  184.0200  175.5720  136.1710 C   0  0  2  0  0  3  0  0  0  0  0  0
  184.9330  177.7010  138.2440 C   0  0  2  0  0  3  0  0  0  0  0  0
  181.1720  179.4130  138.4370 C   0  0  0  0  0  2  0  0  0  0  0  0
  181.3050  179.3060  136.9220 C   0  0  1  0  0  3  0  0  0  0  0  0
  181.0530  177.8550  136.5390 C   0  0  0  0  0  2  0  0  0  0  0  0
  183.6520  179.8790  138.6810 C   0  0  0  0  0  2  0  0  0  0  0  0
  182.2590  177.2720  135.8240 C   0  0  0  0  0  2  0  0  0  0  0  0
  183.2760  176.7220  136.8190 C   0  0  2  0  0  3  0  0  0  0  0  0
  184.9940  171.9080  135.9360 C   0  0  0  0  0  2  0  0  0  0  0  0
  184.1880  174.4170  137.1660 C   0  0  1  0  0  3  0  0  0  0  0  0
  181.2850  171.2950  136.4870 C   0  0  0  0  0  0  0  0  0  0  0  0
  182.6200  171.1230  136.0850 C   0  0  0  0  0  3  0  0  0  0  0  0
  183.5600  172.1330  136.3060 C   0  0  0  0  0  0  0  0  0  0  0  0
  181.8440  173.4910  137.3560 C   0  0  0  0  0  3  0  0  0  0  0  0
  183.1730  173.3190  136.9510 C   0  0  0  0  0  0  0  0  0  0  0  0
  180.9060  172.4810  137.1230 C   0  0  0  0  0  3  0  0  0  0  0  0
  185.5170  173.9140  137.1730 O   0  0  0  0  0  0  0  0  0  0  0  0
  185.7590  173.2310  135.9620 C   0  0  0  0  0  2  0  0  0  0  0  0
  180.3210  170.3060  136.2690 O   0  0  0  0  0  0  0  0  0  0  0  0
  178.9310  171.3770  134.6370 C   0  0  0  0  0  1  0  0  0  0  0  0
  178.9720  170.6090  135.9410 C   0  0  0  0  0  2  0  0  0  0  0  0
  180.3180  180.2390  136.2070 C   0  0  0  0  0  3  0  0  0  0  0  0
  180.9660  180.9100  135.0080 C   0  0  0  0  0  1  0  0  0  0  0  0
  179.1030  179.4700  135.7140 C   0  0  0  0  0  1  0  0  0  0  0  0
  187.1050  178.0530  139.2160 O   0  0  0  0  0  1  0  0  0  0  0  0
  186.2960  178.3370  138.2940 C   0  0  0  0  0  0  0  0  0  0  0  0
  186.6690  179.2390  137.3070 O   0  0  0  0  0  0  0  0  0  0  0  0
  184.1970  178.3210  140.6220 C   0  0  0  0  0  2  0  0  0  0  0  0
  184.8230  179.4710  141.1080 O   0  0  0  0  0  1  0  0  0  0  0  0
  1  7  1  0  0  0  0
  3 33  1  0  0  0  0
  4  1  1  0  0  0  0
  5  4  1  0  0  0  0
  6  4  1  0  0  0  0
  6 13  1  0  0  0  0
  6 15  1  0  0  0  0
  7 31  1  0  0  0  0
  7  3  1  0  0  0  0
  8  2  1  0  0  0  0
  9  8  1  0  0  0  0
 10  9  1  0  0  0  0
 11  2  1  0  0  0  0
 11  3  1  0  0  0  0
 12 10  1  0  0  0  0
 12 13  1  0  0  0  0
 13  1  1  0  0  0  0
 14 23  1  0  0  0  0
 14 18  1  0  0  0  0
 15 22  1  0  0  0  0
 16 21  1  0  0  0  0
 17 18  1  0  0  0  0
 17 16  2  0  0  0  0
 18 20  2  0  0  0  0
 20 15  1  0  0  0  0
 20 19  1  0  0  0  0
 21 19  2  0  0  0  0
 23 22  1  0  0  0  0
 24 16  1  0  0  0  0
 25 26  1  0  0  0  0
 26 24  1  0  0  0  0
 27  9  1  0  0  0  0
 28 27  1  0  0  0  0
 29 27  1  0  0  0  0
 31 30  1  0  0  0  0
 32 31  2  0  0  0  0
 33 34  1  0  0  0  0
M  END
>  <MODEL>
6

>  <REMARK>
 VINA RESULT:      -4.9      3.090      8.204
  Name = 
  6 active torsions:
  status: ('A' for Active; 'I' for Inactive)
    1  A    between atoms: C_3  and  C_25
    2  A    between atoms: C_5  and  C_19
    3  A    between atoms: C_6  and  C_18
    4  A    between atoms: C_7  and  O_11
    5  A    between atoms: O_11  and  C_21
    6  A    between atoms: C_12  and  C_20
                            x       y       z     vdW  Elec       q    Type
                         _______ _______ _______ _____ _____    ______ ____

>  <TORSDO>
F 6

$$$$
=
 OpenBabel11052415593D

 34 37  0  0  1  0  0  0  0  0999 V2000
  180.7120  178.3620  140.2270 N   0  0  2  0  0  0  0  0  0  0  0  0
  178.9990  177.8270  136.4780 C   0  0  0  0  0  2  0  0  0  0  0  0
  180.2260  176.7400  138.3990 C   0  0  2  0  0  3  0  0  0  0  0  0
  181.4460  178.4240  141.4920 C   0  0  2  0  0  3  0  0  0  0  0  0
  180.8430  179.4920  142.3870 C   0  0  0  0  0  1  0  0  0  0  0  0
  182.7090  178.9440  140.8380 C   0  0  2  0  0  3  0  0  0  0  0  0
  180.5260  176.9400  139.8960 C   0  0  2  0  0  3  0  0  0  0  0  0
  180.1810  178.7530  136.1930 C   0  0  0  0  0  2  0  0  0  0  0  0
  180.1460  179.9990  137.0700 C   0  0  1  0  0  3  0  0  0  0  0  0
  181.5710  180.2900  137.5150 C   0  0  0  0  0  2  0  0  0  0  0  0
  178.9310  177.4130  137.9440 C   0  0  0  0  0  2  0  0  0  0  0  0
  181.6750  180.2750  139.0300 C   0  0  0  0  0  2  0  0  0  0  0  0
  181.9140  178.8620  139.5510 C   0  0  2  0  0  3  0  0  0  0  0  0
  186.4950  178.9200  141.1380 C   0  0  0  0  0  2  0  0  0  0  0  0
  183.7990  177.8660  140.8630 C   0  0  1  0  0  3  0  0  0  0  0  0
  186.3890  178.1460  137.4200 C   0  0  0  0  0  0  0  0  0  0  0  0
  186.8270  178.5950  138.6760 C   0  0  0  0  0  3  0  0  0  0  0  0
  185.9890  178.5030  139.7910 C   0  0  0  0  0  0  0  0  0  0  0  0
  184.2720  177.4890  138.4080 C   0  0  0  0  0  3  0  0  0  0  0  0
  184.7090  177.9410  139.6590 C   0  0  0  0  0  0  0  0  0  0  0  0
  185.1110  177.5920  137.2950 C   0  0  0  0  0  3  0  0  0  0  0  0
  184.5300  177.8800  142.0800 O   0  0  0  0  0  0  0  0  0  0  0  0
  185.3330  179.0410  142.1230 C   0  0  0  0  0  2  0  0  0  0  0  0
  187.2010  178.2350  136.2860 O   0  0  0  0  0  0  0  0  0  0  0  0
  188.5660  176.2960  136.6400 C   0  0  0  0  0  1  0  0  0  0  0  0
  188.5420  177.7630  136.2630 C   0  0  0  0  0  2  0  0  0  0  0  0
  179.5540  181.1970  136.3150 C   0  0  0  0  0  3  0  0  0  0  0  0
  179.0910  182.2790  137.2760 C   0  0  0  0  0  1  0  0  0  0  0  0
  180.5810  181.8110  135.3790 C   0  0  0  0  0  1  0  0  0  0  0  0
  178.9310  176.9880  141.6950 O   0  0  0  0  0  1  0  0  0  0  0  0
  179.4770  176.3200  140.7780 C   0  0  0  0  0  0  0  0  0  0  0  0
  179.1010  174.9990  140.5730 O   0  0  0  0  0  0  0  0  0  0  0  0
  180.3320  175.2860  137.9450 C   0  0  0  0  0  2  0  0  0  0  0  0
  181.6670  174.8890  137.8310 O   0  0  0  0  0  1  0  0  0  0  0  0
  1  4  1  0  0  0  0
  2 11  1  0  0  0  0
  3  7  1  0  0  0  0
  4  5  1  0  0  0  0
  6 15  1  0  0  0  0
  6  4  1  0  0  0  0
  7  1  1  0  0  0  0
  7 31  1  0  0  0  0
  8  2  1  0  0  0  0
  8  9  1  0  0  0  0
  9 10  1  0  0  0  0
 10 12  1  0  0  0  0
 11  3  1  0  0  0  0
 12 13  1  0  0  0  0
 13  1  1  0  0  0  0
 13  6  1  0  0  0  0
 14 23  1  0  0  0  0
 15 22  1  0  0  0  0
 16 17  1  0  0  0  0
 17 18  2  0  0  0  0
 18 14  1  0  0  0  0
 19 20  2  0  0  0  0
 20 18  1  0  0  0  0
 20 15  1  0  0  0  0
 21 16  2  0  0  0  0
 21 19  1  0  0  0  0
 22 23  1  0  0  0  0
 24 16  1  0  0  0  0
 26 24  1  0  0  0  0
 26 25  1  0  0  0  0
 27  9  1  0  0  0  0
 27 28  1  0  0  0  0
 29 27  1  0  0  0  0
 31 30  1  0  0  0  0
 32 31  2  0  0  0  0
 33  3  1  0  0  0  0
 34 33  1  0  0  0  0
M  END
>  <MODEL>
7

>  <REMARK>
 VINA RESULT:      -4.6      2.399      6.104
  Name = 
  6 active torsions:
  status: ('A' for Active; 'I' for Inactive)
    1  A    between atoms: C_3  and  C_25
    2  A    between atoms: C_5  and  C_19
    3  A    between atoms: C_6  and  C_18
    4  A    between atoms: C_7  and  O_11
    5  A    between atoms: O_11  and  C_21
    6  A    between atoms: C_12  and  C_20
                            x       y       z     vdW  Elec       q    Type
                         _______ _______ _______ _____ _____    ______ ____

>  <TORSDO>
F 6

$$$$
=
 OpenBabel11052415593D

 34 37  0  0  1  0  0  0  0  0999 V2000
  187.9360  176.8830  137.0740 N   0  0  2  0  0  0  0  0  0  0  0  0
  188.0390  173.2460  135.0630 C   0  0  0  0  0  2  0  0  0  0  0  0
  186.8220  174.6780  136.7510 C   0  0  2  0  0  3  0  0  0  0  0  0
  187.8340  178.0650  137.9300 C   0  0  2  0  0  3  0  0  0  0  0  0
  188.4100  179.2740  137.2140 C   0  0  0  0  0  1  0  0  0  0  0  0
  188.8310  177.5330  138.9380 C   0  0  2  0  0  3  0  0  0  0  0  0
  186.6680  176.1460  137.1870 C   0  0  2  0  0  3  0  0  0  0  0  0
  189.2850  173.1920  135.9460 C   0  0  0  0  0  2  0  0  0  0  0  0
  190.1810  174.4070  135.7310 C   0  0  1  0  0  3  0  0  0  0  0  0
  190.7020  174.8420  137.0930 C   0  0  0  0  0  2  0  0  0  0  0  0
  187.2270  174.5190  135.2860 C   0  0  0  0  0  2  0  0  0  0  0  0
  190.2910  176.2730  137.3930 C   0  0  0  0  0  2  0  0  0  0  0  0
  188.9040  176.3270  138.0250 C   0  0  2  0  0  3  0  0  0  0  0  0
  187.9530  179.3630  142.1490 C   0  0  0  0  0  2  0  0  0  0  0  0
  188.1170  177.1700  140.2460 C   0  0  1  0  0  3  0  0  0  0  0  0
  190.8050  177.3290  143.6210 C   0  0  0  0  0  0  0  0  0  0  0  0
  189.8670  178.3530  143.4120 C   0  0  0  0  0  3  0  0  0  0  0  0
  188.9960  178.3010  142.3200 C   0  0  0  0  0  0  0  0  0  0  0  0
  189.9770  176.1860  141.6470 C   0  0  0  0  0  3  0  0  0  0  0  0
  189.0450  177.2090  141.4370 C   0  0  0  0  0  0  0  0  0  0  0  0
  190.8520  176.2480  142.7350 C   0  0  0  0  0  3  0  0  0  0  0  0
  186.9570  177.9620  140.4540 O   0  0  0  0  0  0  0  0  0  0  0  0
  187.3480  179.2870  140.7480 C   0  0  0  0  0  2  0  0  0  0  0  0
  191.6950  177.3600  144.6980 O   0  0  0  0  0  0  0  0  0  0  0  0
  190.7780  176.8550  146.8540 C   0  0  0  0  0  1  0  0  0  0  0  0
  191.6810  176.3860  145.7330 C   0  0  0  0  0  2  0  0  0  0  0  0
  191.3410  174.0840  134.7800 C   0  0  0  0  0  3  0  0  0  0  0  0
  192.6560  174.6280  135.3120 C   0  0  0  0  0  1  0  0  0  0  0  0
  191.4940  172.5840  134.5990 C   0  0  0  0  0  1  0  0  0  0  0  0
  185.8280  177.5290  135.4070 O   0  0  0  0  0  0  0  0  0  0  0  0
  185.5710  176.8540  136.4390 C   0  0  0  0  0  0  0  0  0  0  0  0
  184.2600  176.7540  136.8860 O   0  0  0  0  0  1  0  0  0  0  0  0
  185.6350  173.7980  137.1390 C   0  0  0  0  0  2  0  0  0  0  0  0
  186.0380  172.7320  137.9460 O   0  0  0  0  0  1  0  0  0  0  0  0
  1  7  1  0  0  0  0
  1  4  1  0  0  0  0
  1 13  1  0  0  0  0
  2 11  1  0  0  0  0
  2  8  1  0  0  0  0
  3 33  1  0  0  0  0
  3  7  1  0  0  0  0
  4  6  1  0  0  0  0
  5  4  1  0  0  0  0
  6 15  1  0  0  0  0
  9  8  1  0  0  0  0
  9 10  1  0  0  0  0
 10 12  1  0  0  0  0
 11  3  1  0  0  0  0
 12 13  1  0  0  0  0
 13  6  1  0  0  0  0
 14 18  1  0  0  0  0
 15 22  1  0  0  0  0
 15 20  1  0  0  0  0
 16 24  1  0  0  0  0
 17 16  1  0  0  0  0
 18 17  2  0  0  0  0
 19 21  1  0  0  0  0
 20 19  2  0  0  0  0
 20 18  1  0  0  0  0
 21 16  2  0  0  0  0
 22 23  1  0  0  0  0
 23 14  1  0  0  0  0
 24 26  1  0  0  0  0
 26 25  1  0  0  0  0
 27 28  1  0  0  0  0
 27  9  1  0  0  0  0
 29 27  1  0  0  0  0
 30 31  2  0  0  0  0
 31 32  1  0  0  0  0
 31  7  1  0  0  0  0
 33 34  1  0  0  0  0
M  END
>  <MODEL>
8

>  <REMARK>
 VINA RESULT:      -4.2      3.864      5.273
  Name = 
  6 active torsions:
  status: ('A' for Active; 'I' for Inactive)
    1  A    between atoms: C_3  and  C_25
    2  A    between atoms: C_5  and  C_19
    3  A    between atoms: C_6  and  C_18
    4  A    between atoms: C_7  and  O_11
    5  A    between atoms: O_11  and  C_21
    6  A    between atoms: C_12  and  C_20
                            x       y       z     vdW  Elec       q    Type
                         _______ _______ _______ _____ _____    ______ ____

>  <TORSDO>
F 6

$$$$
