=
 OpenBabel11052416473D

 32 37  0  0  1  0  0  0  0  0999 V2000
  183.2170  178.1220  142.2520 C   0  0  0  0  0  3  0  0  0  0  0  0
  188.2680  178.1150  142.7540 C   0  0  0  0  0  0  0  0  0  0  0  0
  189.4680  177.4410  137.9790 C   0  0  0  0  0  3  0  0  0  0  0  0
  190.6460  176.9730  138.3870 C   0  0  0  0  0  3  0  0  0  0  0  0
  189.9320  176.8120  144.1640 C   0  0  1  0  0  3  0  0  0  0  0  0
  190.2150  177.5090  145.5060 C   0  0  2  0  0  3  0  0  0  0  0  0
  186.0180  178.6330  143.4110 C   0  0  0  0  0  0  0  0  0  0  0  0
  186.6630  178.6270  140.9910 C   0  0  0  0  0  3  0  0  0  0  0  0
  192.0560  175.3530  144.5980 C   0  0  1  0  0  3  0  0  0  0  0  0
  184.3950  178.0350  141.6360 C   0  0  0  0  0  3  0  0  0  0  0  0
  188.5810  178.2310  138.8990 C   0  0  0  0  0  2  0  0  0  0  0  0
  187.9130  178.2840  141.3290 C   0  0  0  0  0  0  0  0  0  0  0  0
  188.8970  177.9960  140.3180 N   0  0  0  0  0  0  0  0  0  0  0  0
  190.7090  177.8240  142.1250 C   0  0  2  0  0  3  0  0  0  0  0  0
  191.7200  175.5850  146.0540 C   0  0  0  0  0  3  0  0  0  0  0  0
  183.7930  179.2700  144.3770 C   0  0  0  0  0  3  0  0  0  0  0  0
  185.5710  178.8800  141.9920 C   0  0  1  0  0  3  0  0  0  0  0  0
  190.8790  176.5510  146.4690 C   0  0  0  0  0  3  0  0  0  0  0  0
  185.2140  178.8770  144.4470 C   0  0  0  0  0  3  0  0  0  0  0  0
  182.9060  178.9900  143.4060 C   0  0  0  0  0  0  0  0  0  0  0  0
  191.0790  177.1420  139.7800 C   0  0  0  0  0  3  0  0  0  0  0  0
  190.2310  177.6000  140.7080 C   0  0  0  0  0  0  0  0  0  0  0  0
  191.6770  176.7830  142.5970 C   0  0  0  0  0  3  0  0  0  0  0  0
  187.3750  178.2670  143.6830 N   0  0  0  0  0  0  0  0  0  0  0  0
  188.9480  178.0360  146.1460 C   0  0  0  0  0  1  0  0  0  0  0  0
  191.8660  174.0220  144.2760 F   0  0  0  0  0  0  0  0  0  0  0  0
  189.6140  177.7560  143.0960 N   0  0  0  0  0  0  0  0  0  0  0  0
  191.2200  176.2210  143.7070 C   0  0  0  0  0  0  0  0  0  0  0  0
  180.4240  178.6190  143.9710 C   0  0  0  0  0  0  0  0  0  0  0  0
  181.5390  179.4100  143.5350 N   0  0  0  0  0  2  0  0  0  0  0  0
  180.5720  177.4270  144.3480 O   0  0  0  0  0  0  0  0  0  0  0  0
  179.0670  179.2260  143.9890 C   0  0  0  0  0  1  0  0  0  0  0  0
  1 20  1  0  0  0  0
  2 27  1  0  0  0  0
  2 24  2  0  0  0  0
  3  4  2  0  0  0  0
  3 11  1  0  0  0  0
  4 21  1  0  0  0  0
  5 28  1  6  0  0  0
  5  6  1  0  0  0  0
  6 25  1  1  0  0  0
  6 18  1  0  0  0  0
  7 24  1  0  0  0  0
  7 19  2  0  0  0  0
  8 12  2  0  0  0  0
  9 26  1  6  0  0  0
  9 15  1  0  0  0  0
 10 17  1  0  0  0  0
 10  1  2  0  0  0  0
 11 13  1  0  0  0  0
 12  2  1  0  0  0  0
 13 22  1  0  0  0  0
 13 12  1  0  0  0  0
 14 23  1  1  0  0  0
 14 27  1  0  0  0  0
 15 18  2  0  0  0  0
 16 19  1  0  0  0  0
 17  8  1  6  0  0  0
 17  7  1  0  0  0  0
 20 30  1  0  0  0  0
 20 16  2  0  0  0  0
 21 22  2  0  0  0  0
 22 14  1  0  0  0  0
 23 28  2  0  0  0  0
 27  5  1  0  0  0  0
 28  9  1  0  0  0  0
 29 32  1  0  0  0  0
 29 31  2  0  0  0  0
 30 29  1  0  0  0  0
M  END
>  <MODEL>
1

>  <REMARK>
 VINA RESULT:     -10.0      0.000      0.000
  Name = 
  1 active torsions:
  status: ('A' for Active; 'I' for Inactive)
    1  A    between atoms: N_10  and  C_24
                            x       y       z     vdW  Elec       q    Type
                         _______ _______ _______ _____ _____    ______ ____

>  <TORSDO>
F 1

$$$$
=
 OpenBabel11052416473D

 32 37  0  0  1  0  0  0  0  0999 V2000
  187.7530  177.2750  144.2200 C   0  0  0  0  0  3  0  0  0  0  0  0
  189.7300  177.4810  139.5490 C   0  0  0  0  0  0  0  0  0  0  0  0
  185.4840  177.4830  136.9680 C   0  0  0  0  0  3  0  0  0  0  0  0
  186.1730  177.0320  135.9200 C   0  0  0  0  0  3  0  0  0  0  0  0
  191.4260  176.1030  138.2540 C   0  0  1  0  0  3  0  0  0  0  0  0
  192.8570  176.6380  138.4340 C   0  0  2  0  0  3  0  0  0  0  0  0
  189.7390  177.7870  141.9310 C   0  0  0  0  0  0  0  0  0  0  0  0
  187.6330  178.1240  140.6170 C   0  0  0  0  0  3  0  0  0  0  0  0
  192.3160  174.7180  136.2240 C   0  0  1  0  0  3  0  0  0  0  0  0
  187.5100  177.3310  142.9120 C   0  0  0  0  0  3  0  0  0  0  0  0
  186.1770  178.1000  138.1500 C   0  0  0  0  0  2  0  0  0  0  0  0
  188.2900  177.8090  139.4920 C   0  0  0  0  0  0  0  0  0  0  0  0
  187.5930  177.7060  138.2370 N   0  0  0  0  0  0  0  0  0  0  0  0
  189.8280  177.4060  137.0160 C   0  0  2  0  0  3  0  0  0  0  0  0
  193.6230  174.7460  136.9850 C   0  0  0  0  0  3  0  0  0  0  0  0
  190.0610  178.1750  144.3870 C   0  0  0  0  0  3  0  0  0  0  0  0
  188.2860  178.1870  141.9690 C   0  0  0  0  0  0  0  0  0  0  0  0
  193.8670  175.6050  137.9930 C   0  0  0  0  0  3  0  0  0  0  0  0
  190.5090  177.8540  143.0180 C   0  0  0  0  0  3  0  0  0  0  0  0
  188.8470  177.9710  144.9270 C   0  0  0  0  0  0  0  0  0  0  0  0
  187.6410  177.0470  135.9240 C   0  0  0  0  0  3  0  0  0  0  0  0
  188.3170  177.3370  137.0410 C   0  0  0  0  0  0  0  0  0  0  0  0
  190.4540  176.3680  136.1360 C   0  0  0  0  0  3  0  0  0  0  0  0
  190.3620  177.4650  140.6830 N   0  0  0  0  0  2  0  0  0  0  0  0
  193.1430  177.0100  139.8740 C   0  0  0  0  0  1  0  0  0  0  0  0
  191.8140  173.4320  136.1930 F   0  0  0  0  0  0  0  0  0  0  0  0
  190.4170  177.1550  138.3330 N   0  0  0  0  0  0  0  0  0  0  0  0
  191.3130  175.6450  136.8410 C   0  0  0  0  0  0  0  0  0  0  0  0
  188.9590  177.5160  147.4570 C   0  0  0  0  0  0  0  0  0  0  0  0
  188.6070  178.2960  146.3050 N   0  0  0  0  0  2  0  0  0  0  0  0
  189.5930  176.4340  147.3470 O   0  0  0  0  0  0  0  0  0  0  0  0
  188.5770  178.0030  148.8080 C   0  0  0  0  0  1  0  0  0  0  0  0
  1 20  1  0  0  0  0
  2 24  1  0  0  0  0
  3 11  1  0  0  0  0
  4 21  1  0  0  0  0
  4  3  2  0  0  0  0
  5 28  1  6  0  0  0
  5 27  1  0  0  0  0
  5  6  1  0  0  0  0
  6 25  1  1  0  0  0
  7 17  1  0  0  0  0
  7 19  2  0  0  0  0
  8 17  2  0  0  0  0
  9 26  1  1  0  0  0
  9 28  1  0  0  0  0
  9 15  1  0  0  0  0
 10  1  2  0  0  0  0
 11 13  1  0  0  0  0
 12  2  2  0  0  0  0
 12  8  1  0  0  0  0
 13 12  1  0  0  0  0
 14 23  1  6  0  0  0
 14 22  1  0  0  0  0
 14 27  1  0  0  0  0
 15 18  2  0  0  0  0
 16 20  2  0  0  0  0
 17 10  1  0  0  0  0
 18  6  1  0  0  0  0
 19 16  1  0  0  0  0
 20 30  1  0  0  0  0
 21 22  2  0  0  0  0
 22 13  1  0  0  0  0
 23 28  2  0  0  0  0
 24  7  1  0  0  0  0
 27  2  1  0  0  0  0
 29 32  1  0  0  0  0
 30 29  1  0  0  0  0
 31 29  2  0  0  0  0
M  END
>  <MODEL>
2

>  <REMARK>
 VINA RESULT:     -10.0      3.983      6.272
  Name = 
  1 active torsions:
  status: ('A' for Active; 'I' for Inactive)
    1  A    between atoms: N_10  and  C_24
                            x       y       z     vdW  Elec       q    Type
                         _______ _______ _______ _____ _____    ______ ____

>  <TORSDO>
F 1

$$$$
=
 OpenBabel11052416473D

 32 37  0  0  1  0  0  0  0  0999 V2000
  189.4910  176.6900  145.0880 C   0  0  0  0  0  3  0  0  0  0  0  0
  188.7010  177.7280  140.1830 C   0  0  0  0  0  0  0  0  0  0  0  0
  183.8860  178.9240  140.4640 C   0  0  0  0  0  3  0  0  0  0  0  0
  183.7870  178.6450  139.1650 C   0  0  0  0  0  3  0  0  0  0  0  0
  189.0650  176.4780  138.0010 C   0  0  1  0  0  3  0  0  0  0  0  0
  190.4570  176.7540  137.4070 C   0  0  2  0  0  3  0  0  0  0  0  0
  190.0330  177.4550  142.1610 C   0  0  0  0  0  0  0  0  0  0  0  0
  187.7100  178.3790  142.3140 C   0  0  0  0  0  3  0  0  0  0  0  0
  188.3850  175.5070  135.6720 C   0  0  1  0  0  3  0  0  0  0  0  0
  188.6200  177.0880  144.1630 C   0  0  0  0  0  3  0  0  0  0  0  0
  185.2220  179.1420  141.1150 C   0  0  0  0  0  2  0  0  0  0  0  0
  187.5780  178.2530  140.9870 C   0  0  0  0  0  0  0  0  0  0  0  0
  186.3250  178.5480  140.3410 N   0  0  0  0  0  0  0  0  0  0  0  0
  187.4320  178.2440  138.0470 C   0  0  2  0  0  3  0  0  0  0  0  0
  189.8550  175.1740  135.5610 C   0  0  0  0  0  3  0  0  0  0  0  0
  191.6800  177.2000  144.0350 C   0  0  0  0  0  3  0  0  0  0  0  0
  188.9670  178.0300  143.0600 C   0  0  0  0  0  0  0  0  0  0  0  0
  190.7950  175.7260  136.3520 C   0  0  0  0  0  3  0  0  0  0  0  0
  191.2470  177.1560  142.6250 C   0  0  0  0  0  3  0  0  0  0  0  0
  190.9240  177.0420  145.1360 C   0  0  0  0  0  0  0  0  0  0  0  0
  184.9890  178.4570  138.3430 C   0  0  0  0  0  3  0  0  0  0  0  0
  186.1980  178.3780  138.9110 C   0  0  0  0  0  0  0  0  0  0  0  0
  187.2260  177.3680  136.8490 C   0  0  0  0  0  3  0  0  0  0  0  0
  189.8070  177.3560  140.7510 N   0  0  0  0  0  2  0  0  0  0  0  0
  191.5370  176.7300  138.4690 C   0  0  0  0  0  1  0  0  0  0  0  0
  187.6430  174.3450  135.7720 F   0  0  0  0  0  0  0  0  0  0  0  0
  188.5430  177.6090  138.7620 N   0  0  0  0  0  0  0  0  0  0  0  0
  188.1190  176.3890  136.8540 C   0  0  0  0  0  0  0  0  0  0  0  0
  192.2270  175.9870  147.0860 C   0  0  0  0  0  0  0  0  0  0  0  0
  191.5320  177.0600  146.4360 N   0  0  0  0  0  2  0  0  0  0  0  0
  192.4180  174.8840  146.5100 O   0  0  0  0  0  0  0  0  0  0  0  0
  192.7460  176.1870  148.4650 C   0  0  0  0  0  1  0  0  0  0  0  0
  1 20  1  0  0  0  0
  2 24  1  0  0  0  0
  2 12  2  0  0  0  0
  3 11  1  0  0  0  0
  4  3  2  0  0  0  0
  5 28  1  6  0  0  0
  5 27  1  0  0  0  0
  6  5  1  0  0  0  0
  6 25  1  1  0  0  0
  7 19  2  0  0  0  0
  7 17  1  0  0  0  0
  8 17  2  0  0  0  0
  9 26  1  1  0  0  0
  9 28  1  0  0  0  0
 10  1  2  0  0  0  0
 12  8  1  0  0  0  0
 13 12  1  0  0  0  0
 13 11  1  0  0  0  0
 14 23  1  6  0  0  0
 14 27  1  0  0  0  0
 14 22  1  0  0  0  0
 15  9  1  0  0  0  0
 15 18  2  0  0  0  0
 16 20  2  0  0  0  0
 17 10  1  0  0  0  0
 18  6  1  0  0  0  0
 19 16  1  0  0  0  0
 20 30  1  0  0  0  0
 21 22  2  0  0  0  0
 21  4  1  0  0  0  0
 22 13  1  0  0  0  0
 23 28  2  0  0  0  0
 24  7  1  0  0  0  0
 27  2  1  0  0  0  0
 29 32  1  0  0  0  0
 30 29  1  0  0  0  0
 31 29  2  0  0  0  0
M  END
>  <MODEL>
3

>  <REMARK>
 VINA RESULT:      -9.6      3.643      7.614
  Name = 
  1 active torsions:
  status: ('A' for Active; 'I' for Inactive)
    1  A    between atoms: N_10  and  C_24
                            x       y       z     vdW  Elec       q    Type
                         _______ _______ _______ _____ _____    ______ ____

>  <TORSDO>
F 1

$$$$
=
 OpenBabel11052416473D

 32 37  0  0  1  0  0  0  0  0999 V2000
  189.1550  178.6530  138.8530 C   0  0  0  0  0  3  0  0  0  0  0  0
  188.3020  177.1970  143.6400 C   0  0  0  0  0  0  0  0  0  0  0  0
  183.7160  179.0400  144.1500 C   0  0  0  0  0  3  0  0  0  0  0  0
  183.9070  179.0320  145.4690 C   0  0  0  0  0  3  0  0  0  0  0  0
  189.5120  177.5020  145.8530 C   0  0  1  0  0  3  0  0  0  0  0  0
  190.5100  176.3630  146.1230 C   0  0  2  0  0  3  0  0  0  0  0  0
  189.3710  177.0940  141.4920 C   0  0  2  0  0  3  0  0  0  0  0  0
  186.9500  177.7120  141.6760 C   0  0  0  0  0  3  0  0  0  0  0  0
  189.7330  178.1450  148.3760 C   0  0  1  0  0  3  0  0  0  0  0  0
  188.2950  178.6280  139.8700 C   0  0  0  0  0  3  0  0  0  0  0  0
  184.6030  178.2530  143.2280 C   0  0  0  0  0  2  0  0  0  0  0  0
  187.0260  177.5940  143.0090 C   0  0  0  0  0  0  0  0  0  0  0  0
  185.9010  177.9280  143.8430 N   0  0  0  0  0  0  0  0  0  0  0  0
  187.1530  177.0360  145.8960 C   0  0  2  0  0  3  0  0  0  0  0  0
  191.1170  177.5520  148.2400 C   0  0  0  0  0  3  0  0  0  0  0  0
  190.6890  176.7750  139.3830 C   0  0  0  0  0  3  0  0  0  0  0  0
  188.1040  177.4400  140.7520 C   0  0  0  0  0  0  0  0  0  0  0  0
  191.4770  176.7540  147.2160 C   0  0  0  0  0  3  0  0  0  0  0  0
  190.4830  176.7450  140.8440 C   0  0  0  0  0  3  0  0  0  0  0  0
  190.0890  177.5720  138.4810 C   0  0  0  0  0  0  0  0  0  0  0  0
  185.0470  178.3180  146.0570 C   0  0  0  0  0  3  0  0  0  0  0  0
  186.0160  177.8200  145.2800 C   0  0  0  0  0  0  0  0  0  0  0  0
  187.6050  177.5840  147.2150 C   0  0  0  0  0  3  0  0  0  0  0  0
  189.3630  176.9900  142.9200 N   0  0  0  0  0  0  0  0  0  0  0  0
  191.3030  176.0030  144.8830 C   0  0  0  0  0  1  0  0  0  0  0  0
  189.8220  179.5100  148.5750 F   0  0  0  0  0  0  0  0  0  0  0  0
  188.3610  177.0680  145.0670 N   0  0  0  0  0  0  0  0  0  0  0  0
  188.9010  177.8570  147.1640 C   0  0  0  0  0  0  0  0  0  0  0  0
  189.8110  176.7460  136.0610 C   0  0  0  0  0  0  0  0  0  0  0  0
  190.4590  177.5000  137.0960 N   0  0  0  0  0  2  0  0  0  0  0  0
  188.7660  176.0810  136.2890 O   0  0  0  0  0  0  0  0  0  0  0  0
  190.3800  176.7610  134.6880 C   0  0  0  0  0  1  0  0  0  0  0  0
  1 10  1  0  0  0  0
  2 27  1  0  0  0  0
  3  4  2  0  0  0  0
  4 21  1  0  0  0  0
  5  6  1  0  0  0  0
  5 28  1  1  0  0  0
  6 25  1  6  0  0  0
  6 18  1  0  0  0  0
  7 19  1  6  0  0  0
  7 24  1  0  0  0  0
  8 12  2  0  0  0  0
  9 26  1  6  0  0  0
 10 17  2  0  0  0  0
 11 13  1  0  0  0  0
 11  3  1  0  0  0  0
 12  2  1  0  0  0  0
 12 13  1  0  0  0  0
 13 22  1  0  0  0  0
 14 23  1  1  0  0  0
 15  9  1  0  0  0  0
 16 19  2  0  0  0  0
 17  7  1  0  0  0  0
 17  8  1  0  0  0  0
 18 15  2  0  0  0  0
 20  1  2  0  0  0  0
 20 16  1  0  0  0  0
 22 14  1  0  0  0  0
 22 21  2  0  0  0  0
 24  2  2  0  0  0  0
 27  5  1  0  0  0  0
 27 14  1  0  0  0  0
 28 23  2  0  0  0  0
 28  9  1  0  0  0  0
 29 31  2  0  0  0  0
 29 30  1  0  0  0  0
 30 20  1  0  0  0  0
 32 29  1  0  0  0  0
M  END
>  <MODEL>
4

>  <REMARK>
 VINA RESULT:      -9.4      3.006      6.814
  Name = 
  1 active torsions:
  status: ('A' for Active; 'I' for Inactive)
    1  A    between atoms: N_10  and  C_24
                            x       y       z     vdW  Elec       q    Type
                         _______ _______ _______ _____ _____    ______ ____

>  <TORSDO>
F 1

$$$$
=
 OpenBabel11052416473D

 32 37  0  0  1  0  0  0  0  0999 V2000
  182.8560  177.4670  140.6700 C   0  0  0  0  0  3  0  0  0  0  0  0
  186.9790  178.4540  143.4620 C   0  0  0  0  0  0  0  0  0  0  0  0
  190.4340  177.3070  140.0800 C   0  0  0  0  0  3  0  0  0  0  0  0
  191.2920  177.1280  141.0840 C   0  0  0  0  0  3  0  0  0  0  0  0
  187.8330  177.7000  145.7330 C   0  0  1  0  0  3  0  0  0  0  0  0
  187.3550  178.6280  146.8630 C   0  0  2  0  0  3  0  0  0  0  0  0
  184.6620  178.6450  142.8600 C   0  0  0  0  0  0  0  0  0  0  0  0
  186.4170  178.3980  141.0900 C   0  0  0  0  0  3  0  0  0  0  0  0
  189.5820  176.7320  147.4170 C   0  0  1  0  0  3  0  0  0  0  0  0
  184.1870  177.5050  140.7120 C   0  0  0  0  0  3  0  0  0  0  0  0
  189.1440  178.0500  140.2810 C   0  0  0  0  0  2  0  0  0  0  0  0
  187.3610  178.3420  142.0390 C   0  0  0  0  0  0  0  0  0  0  0  0
  188.7360  178.0910  141.6960 N   0  0  0  0  0  0  0  0  0  0  0  0
  189.4250  178.5220  144.1290 C   0  0  2  0  0  3  0  0  0  0  0  0
  188.5520  177.1130  148.4560 C   0  0  0  0  0  3  0  0  0  0  0  0
  182.2050  179.0040  142.5080 C   0  0  0  0  0  3  0  0  0  0  0  0
  184.9560  178.5940  141.3820 C   0  0  1  0  0  3  0  0  0  0  0  0
  187.5360  177.9610  148.2070 C   0  0  0  0  0  3  0  0  0  0  0  0
  183.4340  178.8900  143.3180 C   0  0  0  0  0  3  0  0  0  0  0  0
  181.9420  178.4250  141.3230 C   0  0  0  0  0  0  0  0  0  0  0  0
  190.9640  177.5780  142.4420 C   0  0  0  0  0  3  0  0  0  0  0  0
  189.7320  178.0060  142.7400 C   0  0  0  0  0  0  0  0  0  0  0  0
  190.1200  177.7560  145.2130 C   0  0  0  0  0  3  0  0  0  0  0  0
  185.7330  178.5770  143.8070 N   0  0  0  0  0  0  0  0  0  0  0  0
  185.8960  179.0050  146.7030 C   0  0  0  0  0  1  0  0  0  0  0  0
  189.6920  175.3570  147.3420 F   0  0  0  0  0  0  0  0  0  0  0  0
  188.0040  178.4010  144.4630 N   0  0  0  0  0  0  0  0  0  0  0  0
  189.2240  177.2920  146.0730 C   0  0  0  0  0  0  0  0  0  0  0  0
  180.3390  179.4670  139.6020 C   0  0  0  0  0  0  0  0  0  0  0  0
  180.6600  178.6040  140.7020 N   0  0  0  0  0  2  0  0  0  0  0  0
  181.2250  180.1470  139.0210 O   0  0  0  0  0  0  0  0  0  0  0  0
  178.9310  179.5510  139.1320 C   0  0  0  0  0  1  0  0  0  0  0  0
  1 10  2  0  0  0  0
  1 20  1  0  0  0  0
  2 24  2  0  0  0  0
  2 27  1  0  0  0  0
  3 11  1  0  0  0  0
  3  4  2  0  0  0  0
  4 21  1  0  0  0  0
  5 28  1  1  0  0  0
  5  6  1  0  0  0  0
  6 25  1  6  0  0  0
  6 18  1  0  0  0  0
  7 19  2  0  0  0  0
  7 24  1  0  0  0  0
  8 17  1  0  0  0  0
  8 12  2  0  0  0  0
  9 26  1  6  0  0  0
  9 15  1  0  0  0  0
 11 13  1  0  0  0  0
 12  2  1  0  0  0  0
 13 12  1  0  0  0  0
 13 22  1  0  0  0  0
 14 27  1  0  0  0  0
 14 23  1  1  0  0  0
 16 19  1  0  0  0  0
 17 10  1  1  0  0  0
 17  7  1  0  0  0  0
 18 15  2  0  0  0  0
 20 16  2  0  0  0  0
 21 22  2  0  0  0  0
 22 14  1  0  0  0  0
 23 28  2  0  0  0  0
 27  5  1  0  0  0  0
 28  9  1  0  0  0  0
 29 30  1  0  0  0  0
 30 20  1  0  0  0  0
 31 29  2  0  0  0  0
 32 29  1  0  0  0  0
M  END
>  <MODEL>
5

>  <REMARK>
 VINA RESULT:      -9.0      2.205      2.933
  Name = 
  1 active torsions:
  status: ('A' for Active; 'I' for Inactive)
    1  A    between atoms: N_10  and  C_24
                            x       y       z     vdW  Elec       q    Type
                         _______ _______ _______ _____ _____    ______ ____

>  <TORSDO>
F 1

$$$$
=
 OpenBabel11052416473D

 32 37  0  0  1  0  0  0  0  0999 V2000
  190.2210  176.3780  140.3610 C   0  0  0  0  0  3  0  0  0  0  0  0
  185.9000  178.6930  141.6780 C   0  0  0  0  0  0  0  0  0  0  0  0
  186.1200  177.8990  146.5780 C   0  0  0  0  0  3  0  0  0  0  0  0
  184.7990  178.0730  146.6200 C   0  0  0  0  0  3  0  0  0  0  0  0
  183.4690  178.4990  140.9680 C   0  0  1  0  0  3  0  0  0  0  0  0
  183.1350  179.4450  139.8010 C   0  0  2  0  0  3  0  0  0  0  0  0
  187.7860  178.2510  140.2600 C   0  0  2  0  0  3  0  0  0  0  0  0
  188.0250  178.1620  142.7510 C   0  0  0  0  0  3  0  0  0  0  0  0
  180.8960  178.2210  141.3350 C   0  0  1  0  0  3  0  0  0  0  0  0
  189.4070  176.7300  141.3550 C   0  0  0  0  0  3  0  0  0  0  0  0
  186.9270  178.3430  145.3920 C   0  0  0  0  0  2  0  0  0  0  0  0
  186.7260  178.4660  142.8820 C   0  0  0  0  0  0  0  0  0  0  0  0
  186.1040  178.4940  144.1800 N   0  0  0  0  0  0  0  0  0  0  0  0
  183.9550  179.4250  143.1330 C   0  0  2  0  0  3  0  0  0  0  0  0
  180.8170  178.5000  139.8510 C   0  0  0  0  0  3  0  0  0  0  0  0
  189.6090  177.9730  138.5600 C   0  0  0  0  0  3  0  0  0  0  0  0
  188.7220  178.0530  141.4250 C   0  0  0  0  0  0  0  0  0  0  0  0
  181.8310  179.0420  139.1510 C   0  0  0  0  0  3  0  0  0  0  0  0
  188.2320  178.2680  139.0030 C   0  0  0  0  0  3  0  0  0  0  0  0
  190.5170  177.1820  139.1590 C   0  0  0  0  0  0  0  0  0  0  0  0
  184.0780  178.6280  145.4690 C   0  0  0  0  0  3  0  0  0  0  0  0
  184.6950  178.7970  144.2940 C   0  0  0  0  0  0  0  0  0  0  0  0
  182.5190  179.0080  143.0510 C   0  0  0  0  0  3  0  0  0  0  0  0
  186.4110  178.5730  140.4900 N   0  0  0  0  0  0  0  0  0  0  0  0
  184.2210  179.4450  138.7460 C   0  0  0  0  0  1  0  0  0  0  0  0
  180.5310  176.9130  141.5900 F   0  0  0  0  0  0  0  0  0  0  0  0
  184.5150  179.0270  141.8390 N   0  0  0  0  0  0  0  0  0  0  0  0
  182.2760  178.4790  141.8590 C   0  0  0  0  0  0  0  0  0  0  0  0
  192.2980  175.7430  137.9870 C   0  0  0  0  0  0  0  0  0  0  0  0
  191.7980  176.9650  138.5480 N   0  0  0  0  0  2  0  0  0  0  0  0
  191.5880  174.7050  137.9370 O   0  0  0  0  0  0  0  0  0  0  0  0
  193.6810  175.7070  137.4430 C   0  0  0  0  0  1  0  0  0  0  0  0
  1 10  1  0  0  0  0
  2 27  1  0  0  0  0
  2 12  1  0  0  0  0
  3  4  2  0  0  0  0
  5 27  1  0  0  0  0
  5 28  1  1  0  0  0
  6 25  1  6  0  0  0
  6  5  1  0  0  0  0
  7 19  1  6  0  0  0
  7 24  1  0  0  0  0
  7 17  1  0  0  0  0
  8 12  2  0  0  0  0
  9 26  1  6  0  0  0
  9 28  1  0  0  0  0
 10 17  2  0  0  0  0
 11  3  1  0  0  0  0
 12 13  1  0  0  0  0
 13 22  1  0  0  0  0
 13 11  1  0  0  0  0
 14 23  1  6  0  0  0
 14 22  1  0  0  0  0
 15  9  1  0  0  0  0
 16 19  2  0  0  0  0
 16 20  1  0  0  0  0
 17  8  1  0  0  0  0
 18  6  1  0  0  0  0
 18 15  2  0  0  0  0
 20  1  2  0  0  0  0
 21  4  1  0  0  0  0
 22 21  2  0  0  0  0
 24  2  2  0  0  0  0
 27 14  1  0  0  0  0
 28 23  2  0  0  0  0
 29 30  1  0  0  0  0
 30 20  1  0  0  0  0
 31 29  2  0  0  0  0
 32 29  1  0  0  0  0
M  END
>  <MODEL>
6

>  <REMARK>
 VINA RESULT:      -9.0      3.902      8.905
  Name = 
  1 active torsions:
  status: ('A' for Active; 'I' for Inactive)
    1  A    between atoms: N_10  and  C_24
                            x       y       z     vdW  Elec       q    Type
                         _______ _______ _______ _____ _____    ______ ____

>  <TORSDO>
F 1

$$$$
=
 OpenBabel11052416473D

 32 37  0  0  1  0  0  0  0  0999 V2000
  188.3990  176.7530  145.5440 C   0  0  0  0  0  3  0  0  0  0  0  0
  186.4910  178.5080  141.1800 C   0  0  0  0  0  0  0  0  0  0  0  0
  181.6970  178.6300  142.4840 C   0  0  0  0  0  3  0  0  0  0  0  0
  181.3900  178.5850  141.1880 C   0  0  0  0  0  3  0  0  0  0  0  0
  186.6160  177.7880  138.7470 C   0  0  1  0  0  3  0  0  0  0  0  0
  187.7980  178.4470  138.0140 C   0  0  2  0  0  3  0  0  0  0  0  0
  188.2160  178.1450  142.8100 C   0  0  0  0  0  0  0  0  0  0  0  0
  185.8490  178.5340  143.5320 C   0  0  0  0  0  3  0  0  0  0  0  0
  185.6580  177.1530  136.4000 C   0  0  1  0  0  3  0  0  0  0  0  0
  187.3070  177.1320  144.8810 C   0  0  0  0  0  3  0  0  0  0  0  0
  183.0820  178.9880  142.9450 C   0  0  0  0  0  2  0  0  0  0  0  0
  185.4790  178.6350  142.2490 C   0  0  0  0  0  0  0  0  0  0  0  0
  184.0920  178.7860  141.8920 N   0  0  0  0  0  0  0  0  0  0  0  0
  184.7570  179.1470  139.4420 C   0  0  2  0  0  3  0  0  0  0  0  0
  187.1120  177.1510  135.9850 C   0  0  0  0  0  3  0  0  0  0  0  0
  190.2210  177.8830  144.2940 C   0  0  0  0  0  3  0  0  0  0  0  0
  187.2690  178.3140  143.9720 C   0  0  0  0  0  0  0  0  0  0  0  0
  188.0850  177.7250  136.7180 C   0  0  0  0  0  3  0  0  0  0  0  0
  189.5300  178.0170  142.9960 C   0  0  0  0  0  3  0  0  0  0  0  0
  189.7340  177.3730  145.4380 C   0  0  0  0  0  0  0  0  0  0  0  0
  182.4200  178.8020  140.1640 C   0  0  0  0  0  3  0  0  0  0  0  0
  183.7130  178.8640  140.4990 C   0  0  0  0  0  0  0  0  0  0  0  0
  184.4640  178.4880  138.1290 C   0  0  0  0  0  3  0  0  0  0  0  0
  187.7340  178.2680  141.4680 N   0  0  0  0  0  2  0  0  0  0  0  0
  189.0560  178.4440  138.8570 C   0  0  0  0  0  1  0  0  0  0  0  0
  185.1530  175.8670  136.3580 F   0  0  0  0  0  0  0  0  0  0  0  0
  186.0760  178.6280  139.8120 N   0  0  0  0  0  0  0  0  0  0  0  0
  185.4900  177.7260  137.7750 C   0  0  0  0  0  0  0  0  0  0  0  0
  191.6800  176.3740  146.7930 C   0  0  0  0  0  0  0  0  0  0  0  0
  190.5760  177.2700  146.5970 N   0  0  0  0  0  2  0  0  0  0  0  0
  192.0560  175.5870  145.8850 O   0  0  0  0  0  0  0  0  0  0  0  0
  192.4020  176.3850  148.0920 C   0  0  0  0  0  1  0  0  0  0  0  0
  2 24  1  0  0  0  0
  2 12  2  0  0  0  0
  3 11  1  0  0  0  0
  4  3  2  0  0  0  0
  5 28  1  6  0  0  0
  5 27  1  0  0  0  0
  6  5  1  0  0  0  0
  6 25  1  1  0  0  0
  7 19  2  0  0  0  0
  7 17  1  0  0  0  0
  8 17  2  0  0  0  0
  9 26  1  1  0  0  0
  9 28  1  0  0  0  0
 10  1  2  0  0  0  0
 12  8  1  0  0  0  0
 13 12  1  0  0  0  0
 13 11  1  0  0  0  0
 14 23  1  6  0  0  0
 14 27  1  0  0  0  0
 14 22  1  0  0  0  0
 15  9  1  0  0  0  0
 15 18  2  0  0  0  0
 16 20  2  0  0  0  0
 17 10  1  0  0  0  0
 18  6  1  0  0  0  0
 19 16  1  0  0  0  0
 20  1  1  0  0  0  0
 20 30  1  0  0  0  0
 21 22  2  0  0  0  0
 21  4  1  0  0  0  0
 22 13  1  0  0  0  0
 24  7  1  0  0  0  0
 27  2  1  0  0  0  0
 28 23  2  0  0  0  0
 29 32  1  0  0  0  0
 30 29  1  0  0  0  0
 31 29  2  0  0  0  0
M  END
>  <MODEL>
7

>  <REMARK>
 VINA RESULT:      -8.9      3.454      7.880
  Name = 
  1 active torsions:
  status: ('A' for Active; 'I' for Inactive)
    1  A    between atoms: N_10  and  C_24
                            x       y       z     vdW  Elec       q    Type
                         _______ _______ _______ _____ _____    ______ ____

>  <TORSDO>
F 1

$$$$
=
 OpenBabel11052416473D

 32 37  0  0  1  0  0  0  0  0999 V2000
  187.2930  176.9400  145.4650 C   0  0  0  0  0  3  0  0  0  0  0  0
  185.0550  178.5540  141.2050 C   0  0  0  0  0  0  0  0  0  0  0  0
  180.4160  178.9640  142.9360 C   0  0  0  0  0  3  0  0  0  0  0  0
  179.9860  178.8670  141.6790 C   0  0  0  0  0  3  0  0  0  0  0  0
  184.9200  177.7050  138.8140 C   0  0  1  0  0  3  0  0  0  0  0  0
  186.0540  178.2700  137.9400 C   0  0  2  0  0  3  0  0  0  0  0  0
  186.9100  178.1970  142.6870 C   0  0  0  0  0  0  0  0  0  0  0  0
  184.6410  178.7310  143.6010 C   0  0  0  0  0  3  0  0  0  0  0  0
  183.7190  176.9950  136.6040 C   0  0  1  0  0  3  0  0  0  0  0  0
  186.1610  177.3340  144.8860 C   0  0  0  0  0  3  0  0  0  0  0  0
  181.8510  179.2820  143.2470 C   0  0  0  0  0  2  0  0  0  0  0  0
  184.1550  178.7830  142.3540 C   0  0  0  0  0  0  0  0  0  0  0  0
  182.7480  178.9790  142.1190 N   0  0  0  0  0  0  0  0  0  0  0  0
  183.1930  179.1820  139.6010 C   0  0  2  0  0  3  0  0  0  0  0  0
  185.1260  176.9050  136.0580 C   0  0  0  0  0  3  0  0  0  0  0  0
  189.0340  177.9190  143.9910 C   0  0  0  0  0  3  0  0  0  0  0  0
  186.0850  178.4680  143.9200 C   0  0  0  0  0  0  0  0  0  0  0  0
  186.1870  177.4700  136.6650 C   0  0  0  0  0  3  0  0  0  0  0  0
  188.2300  178.0180  142.7570 C   0  0  0  0  0  3  0  0  0  0  0  0
  188.6370  177.4910  145.2030 C   0  0  0  0  0  0  0  0  0  0  0  0
  180.9220  178.9830  140.5540 C   0  0  0  0  0  3  0  0  0  0  0  0
  182.2430  179.0030  140.7650 C   0  0  0  0  0  0  0  0  0  0  0  0
  182.7500  178.4700  138.3590 C   0  0  0  0  0  3  0  0  0  0  0  0
  186.3090  178.2730  141.3900 N   0  0  0  0  0  2  0  0  0  0  0  0
  187.3850  178.2530  138.6630 C   0  0  0  0  0  1  0  0  0  0  0  0
  183.1600  175.7340  136.6810 F   0  0  0  0  0  0  0  0  0  0  0  0
  184.5180  178.6220  139.8770 N   0  0  0  0  0  0  0  0  0  0  0  0
  183.7050  177.6450  137.9550 C   0  0  0  0  0  0  0  0  0  0  0  0
  190.8670  176.7740  146.2670 C   0  0  0  0  0  0  0  0  0  0  0  0
  189.5800  177.4090  146.2820 N   0  0  0  0  0  2  0  0  0  0  0  0
  191.3250  176.2440  145.2210 O   0  0  0  0  0  0  0  0  0  0  0  0
  191.6810  176.7530  147.5110 C   0  0  0  0  0  1  0  0  0  0  0  0
  2 24  1  0  0  0  0
  2 12  2  0  0  0  0
  3 11  1  0  0  0  0
  4  3  2  0  0  0  0
  5 28  1  6  0  0  0
  5 27  1  0  0  0  0
  6 25  1  1  0  0  0
  6  5  1  0  0  0  0
  7 19  2  0  0  0  0
  7 17  1  0  0  0  0
  8 17  2  0  0  0  0
  9 26  1  1  0  0  0
  9 28  1  0  0  0  0
 10  1  2  0  0  0  0
 12  8  1  0  0  0  0
 13 12  1  0  0  0  0
 13 11  1  0  0  0  0
 14 23  1  6  0  0  0
 14 27  1  0  0  0  0
 14 22  1  0  0  0  0
 15  9  1  0  0  0  0
 15 18  2  0  0  0  0
 16 20  2  0  0  0  0
 17 10  1  0  0  0  0
 18  6  1  0  0  0  0
 19 16  1  0  0  0  0
 20  1  1  0  0  0  0
 20 30  1  0  0  0  0
 21 22  2  0  0  0  0
 21  4  1  0  0  0  0
 22 13  1  0  0  0  0
 24  7  1  0  0  0  0
 27  2  1  0  0  0  0
 28 23  2  0  0  0  0
 29 30  1  0  0  0  0
 29 32  1  0  0  0  0
 31 29  2  0  0  0  0
M  END
>  <MODEL>
8

>  <REMARK>
 VINA RESULT:      -8.8      3.728      8.290
  Name = 
  1 active torsions:
  status: ('A' for Active; 'I' for Inactive)
    1  A    between atoms: N_10  and  C_24
                            x       y       z     vdW  Elec       q    Type
                         _______ _______ _______ _____ _____    ______ ____

>  <TORSDO>
F 1

$$$$
=
 OpenBabel11052416473D

 32 37  0  0  1  0  0  0  0  0999 V2000
  183.8750  179.9320  144.2000 C   0  0  0  0  0  3  0  0  0  0  0  0
  188.0170  177.2160  143.0910 C   0  0  0  0  0  0  0  0  0  0  0  0
  190.0620  177.1350  147.6200 C   0  0  0  0  0  3  0  0  0  0  0  0
  191.2360  176.8940  147.0360 C   0  0  0  0  0  3  0  0  0  0  0  0
  189.8970  177.4180  141.3940 C   0  0  1  0  0  3  0  0  0  0  0  0
  189.5690  176.6790  140.0840 C   0  0  2  0  0  3  0  0  0  0  0  0
  185.7710  177.9930  142.7530 C   0  0  2  0  0  3  0  0  0  0  0  0
  186.6590  177.6490  145.0700 C   0  0  0  0  0  3  0  0  0  0  0  0
  192.3840  177.5030  140.5940 C   0  0  1  0  0  3  0  0  0  0  0  0
  184.9920  179.3710  144.6600 C   0  0  0  0  0  3  0  0  0  0  0  0
  188.7690  176.9480  146.8770 C   0  0  0  0  0  2  0  0  0  0  0  0
  187.8360  177.2650  144.5570 C   0  0  0  0  0  0  0  0  0  0  0  0
  188.9540  176.9760  145.4160 N   0  0  0  0  0  0  0  0  0  0  0  0
  190.2970  176.1450  143.3950 C   0  0  2  0  0  3  0  0  0  0  0  0
  191.7710  177.4890  139.2120 C   0  0  0  0  0  3  0  0  0  0  0  0
  183.4380  178.6560  142.1160 C   0  0  0  0  0  3  0  0  0  0  0  0
  185.4710  178.0250  144.2310 C   0  0  0  0  0  0  0  0  0  0  0  0
  190.4950  177.1280  138.9780 C   0  0  0  0  0  3  0  0  0  0  0  0
  184.8220  178.2220  141.8450 C   0  0  0  0  0  3  0  0  0  0  0  0
  182.9880  179.3700  143.1630 C   0  0  0  0  0  0  0  0  0  0  0  0
  191.3070  176.5190  145.6190 C   0  0  0  0  0  3  0  0  0  0  0  0
  190.2220  176.5910  144.8390 C   0  0  0  0  0  0  0  0  0  0  0  0
  191.5920  176.5010  142.7310 C   0  0  0  0  0  3  0  0  0  0  0  0
  187.0580  177.5700  142.2910 N   0  0  0  0  0  0  0  0  0  0  0  0
  188.1390  176.9190  139.6450 C   0  0  0  0  0  1  0  0  0  0  0  0
  192.9810  178.7250  140.8340 F   0  0  0  0  0  0  0  0  0  0  0  0
  189.2810  176.7940  142.5620 N   0  0  0  0  0  0  0  0  0  0  0  0
  191.3520  177.2220  141.6440 C   0  0  0  0  0  0  0  0  0  0  0  0
  180.5210  178.9950  143.7870 C   0  0  0  0  0  0  0  0  0  0  0  0
  181.6060  179.7530  143.2340 N   0  0  0  0  0  2  0  0  0  0  0  0
  180.7130  177.8780  144.3370 O   0  0  0  0  0  0  0  0  0  0  0  0
  179.1410  179.5450  143.7200 C   0  0  0  0  0  1  0  0  0  0  0  0
  1 10  1  0  0  0  0
  2 12  1  0  0  0  0
  4  3  2  0  0  0  0
  5 28  1  1  0  0  0
  5 27  1  0  0  0  0
  6 25  1  6  0  0  0
  6  5  1  0  0  0  0
  7 19  1  6  0  0  0
  7 17  1  0  0  0  0
  9 26  1  1  0  0  0
  9 28  1  0  0  0  0
 11  3  1  0  0  0  0
 12  8  2  0  0  0  0
 12 13  1  0  0  0  0
 13 11  1  0  0  0  0
 14 23  1  6  0  0  0
 14 22  1  0  0  0  0
 15  9  1  0  0  0  0
 16 20  1  0  0  0  0
 17 10  2  0  0  0  0
 17  8  1  0  0  0  0
 18 15  2  0  0  0  0
 18  6  1  0  0  0  0
 19 16  2  0  0  0  0
 20 30  1  0  0  0  0
 20  1  2  0  0  0  0
 21  4  1  0  0  0  0
 22 13  1  0  0  0  0
 22 21  2  0  0  0  0
 24  7  1  0  0  0  0
 24  2  2  0  0  0  0
 27  2  1  0  0  0  0
 27 14  1  0  0  0  0
 28 23  2  0  0  0  0
 29 31  2  0  0  0  0
 30 29  1  0  0  0  0
 32 29  1  0  0  0  0
M  END
>  <MODEL>
9

>  <REMARK>
 VINA RESULT:      -8.7      1.547      4.481
  Name = 
  1 active torsions:
  status: ('A' for Active; 'I' for Inactive)
    1  A    between atoms: N_10  and  C_24
                            x       y       z     vdW  Elec       q    Type
                         _______ _______ _______ _____ _____    ______ ____

>  <TORSDO>
F 1

$$$$
