=
 OpenBabel11052412273D

 30 30  0  0  1  0  0  0  0  0999 V2000
  184.4260  178.3550  143.1020 C   0  0  0  0  0  2  0  0  0  0  0  0
  183.9180  178.3350  141.6690 C   0  0  0  0  0  2  0  0  0  0  0  0
  185.8020  179.7240  141.1790 O   0  0  0  0  0  1  0  0  0  0  0  0
  185.0590  178.6350  140.7130 C   0  0  2  0  0  3  0  0  0  0  0  0
  184.5340  178.8860  139.2880 C   0  0  2  0  0  3  0  0  0  0  0  0
  182.5240  180.3000  138.7500 C   0  0  0  0  0  1  0  0  0  0  0  0
  183.0010  178.9510  139.2600 C   0  0  0  0  0  3  0  0  0  0  0  0
  182.4280  177.8760  138.3480 C   0  0  0  0  0  1  0  0  0  0  0  0
  185.0550  177.8290  138.3100 C   0  0  0  0  0  2  0  0  0  0  0  0
  186.3740  177.8110  136.3210 O   0  0  0  0  0  1  0  0  0  0  0  0
  186.3320  178.2990  137.6280 C   0  0  2  0  0  3  0  0  0  0  0  0
  188.9610  179.6460  137.5190 O   0  0  0  0  0  0  0  0  0  0  0  0
  187.5140  177.8520  138.3640 N   0  0  0  0  0  2  0  0  0  0  0  0
  188.7850  178.5090  138.3000 C   0  0  0  0  0  0  0  0  0  0  0  0
  189.7560  178.0520  138.9600 O   0  0  0  0  0  1  0  0  0  0  0  0
  183.6320  179.3440  143.9300 C   0  0  0  0  0  2  0  0  0  0  0  0
  183.6190  178.9530  145.3980 C   0  0  0  0  0  2  0  0  0  0  0  0
  184.9140  178.2380  145.7470 C   0  0  0  0  0  2  0  0  0  0  0  0
  185.5900  178.9410  146.8280 N   0  0  0  0  0  2  0  0  0  0  0  0
  186.9980  178.5730  146.7710 C   0  0  1  0  0  3  0  0  0  0  0  0
  187.4450  178.0950  148.1360 C   0  0  0  0  0  1  0  0  0  0  0  0
  187.2000  177.4510  145.7600 C   0  0  0  0  0  2  0  0  0  0  0  0
  190.4540  177.8860  142.9900 C   0  0  1  0  0  3  0  0  0  0  0  0
  188.6590  178.8540  141.7600 F   0  0  0  0  0  0  0  0  0  0  0  0
  191.4300  177.6470  142.0210 O   0  0  0  0  0  1  0  0  0  0  0  0
  188.3240  177.7850  144.7930 C   0  0  2  0  0  3  0  0  0  0  0  0
  189.0580  177.6850  142.3800 C   0  0  2  0  0  3  0  0  0  0  0  0
  190.6820  176.9670  144.1850 C   0  0  0  0  0  2  0  0  0  0  0  0
  187.9990  177.2510  143.4010 C   0  0  0  0  0  2  0  0  0  0  0  0
  189.6630  177.2290  145.3030 C   0  0  0  0  0  2  0  0  0  0  0  0
  1 16  1  0  0  0  0
  2  1  1  0  0  0  0
  4  3  1  1  0  0  0
  4  2  1  0  0  0  0
  5  9  1  6  0  0  0
  5  4  1  0  0  0  0
  6  7  1  0  0  0  0
  7  5  1  0  0  0  0
  8  7  1  0  0  0  0
 11 10  1  6  0  0  0
 11  9  1  0  0  0  0
 11 13  1  0  0  0  0
 12 14  2  0  0  0  0
 14 13  1  0  0  0  0
 14 15  1  0  0  0  0
 16 17  1  0  0  0  0
 17 18  1  0  0  0  0
 18 19  1  0  0  0  0
 20 19  1  0  0  0  0
 20 21  1  1  0  0  0
 22 20  1  0  0  0  0
 23 25  1  6  0  0  0
 23 28  1  0  0  0  0
 26 30  1  0  0  0  0
 26 22  1  1  0  0  0
 27 24  1  1  0  0  0
 27 23  1  0  0  0  0
 27 29  1  0  0  0  0
 28 30  1  0  0  0  0
 29 26  1  0  0  0  0
M  END
>  <MODEL>
1

>  <REMARK>
 VINA RESULT:      -7.1      0.000      0.000
  Name = 
  14 active torsions:
  status: ('A' for Active; 'I' for Inactive)
    1  A    between atoms: C_3  and  C_11
    2  A    between atoms: C_3  and  C_19
    3  A    between atoms: C_4  and  C_13
    4  A    between atoms: C_7  and  C_16
    5  A    between atoms: C_7  and  C_30
    6  A    between atoms: C_8  and  C_12
    7  A    between atoms: C_8  and  C_13
    8  A    between atoms: N_9  and  C_12
    9  A    between atoms: C_10  and  C_15
   10  A    between atoms: C_10  and  N_25
   11  A    between atoms: C_11  and  N_25
   12  A    between atoms: C_13  and  C_30
   13  A    between atoms: C_15  and  C_26
   14  A    between atoms: C_16  and  C_26
                            x       y       z     vdW  Elec       q    Type
                         _______ _______ _______ _____ _____    ______ ____

>  <TORSDO>
F 14

$$$$
=
 OpenBabel11052412273D

 30 30  0  0  1  0  0  0  0  0999 V2000
  186.8960  178.1920  141.7090 C   0  0  0  0  0  2  0  0  0  0  0  0
  188.1610  178.6330  140.9920 C   0  0  0  0  0  2  0  0  0  0  0  0
  189.4480  176.6540  141.3670 O   0  0  0  0  0  1  0  0  0  0  0  0
  188.8490  177.4300  140.3710 C   0  0  2  0  0  3  0  0  0  0  0  0
  189.8750  177.8670  139.3100 C   0  0  2  0  0  3  0  0  0  0  0  0
  188.0250  176.8930  137.9110 C   0  0  0  0  0  1  0  0  0  0  0  0
  189.3250  177.6790  137.8900 C   0  0  0  0  0  3  0  0  0  0  0  0
  189.0500  179.0220  137.2310 C   0  0  0  0  0  1  0  0  0  0  0  0
  191.2040  177.1250  139.4840 C   0  0  0  0  0  2  0  0  0  0  0  0
  191.2940  175.0300  138.3440 O   0  0  0  0  0  1  0  0  0  0  0  0
  191.5870  176.3880  138.2080 C   0  0  2  0  0  3  0  0  0  0  0  0
  192.8140  175.7910  135.5860 O   0  0  0  0  0  0  0  0  0  0  0  0
  193.0070  176.5630  137.9080 N   0  0  0  0  0  2  0  0  0  0  0  0
  193.5930  176.2660  136.6350 C   0  0  0  0  0  0  0  0  0  0  0  0
  194.8290  176.4370  136.4630 O   0  0  0  0  0  1  0  0  0  0  0  0
  185.7040  178.9840  141.2130 C   0  0  0  0  0  2  0  0  0  0  0  0
  184.6760  179.1860  142.3130 C   0  0  0  0  0  2  0  0  0  0  0  0
  185.0370  178.3270  143.5130 C   0  0  0  0  0  2  0  0  0  0  0  0
  184.7420  179.0470  144.7430 N   0  0  0  0  0  2  0  0  0  0  0  0
  185.8400  178.7990  145.6660 C   0  0  1  0  0  3  0  0  0  0  0  0
  185.2880  178.6410  147.0680 C   0  0  0  0  0  1  0  0  0  0  0  0
  186.5700  177.5210  145.2720 C   0  0  0  0  0  2  0  0  0  0  0  0
  190.7590  177.3420  146.2050 C   0  0  1  0  0  3  0  0  0  0  0  0
  190.8180  177.9310  143.8980 F   0  0  0  0  0  0  0  0  0  0  0  0
  192.0560  176.8950  146.4670 O   0  0  0  0  0  1  0  0  0  0  0  0
  188.0590  177.6350  145.5570 C   0  0  2  0  0  3  0  0  0  0  0  0
  190.3610  176.9620  144.7700 C   0  0  2  0  0  3  0  0  0  0  0  0
  189.7970  176.7510  147.2300 C   0  0  0  0  0  2  0  0  0  0  0  0
  188.8500  176.7660  144.5850 C   0  0  0  0  0  2  0  0  0  0  0  0
  188.3630  177.2550  147.0160 C   0  0  0  0  0  2  0  0  0  0  0  0
  2  1  1  0  0  0  0
  4  2  1  0  0  0  0
  4  3  1  1  0  0  0
  5  9  1  6  0  0  0
  5  4  1  0  0  0  0
  7  6  1  0  0  0  0
  7  5  1  0  0  0  0
  8  7  1  0  0  0  0
 11 10  1  1  0  0  0
 11  9  1  0  0  0  0
 12 14  2  0  0  0  0
 13 11  1  0  0  0  0
 14 13  1  0  0  0  0
 15 14  1  0  0  0  0
 16  1  1  0  0  0  0
 16 17  1  0  0  0  0
 17 18  1  0  0  0  0
 18 19  1  0  0  0  0
 19 20  1  0  0  0  0
 20 21  1  1  0  0  0
 22 20  1  0  0  0  0
 23 25  1  1  0  0  0
 23 28  1  0  0  0  0
 26 22  1  6  0  0  0
 26 30  1  0  0  0  0
 27 24  1  6  0  0  0
 27 23  1  0  0  0  0
 29 27  1  0  0  0  0
 29 26  1  0  0  0  0
 30 28  1  0  0  0  0
M  END
>  <MODEL>
2

>  <REMARK>
 VINA RESULT:      -7.0      2.851      4.377
  Name = 
  14 active torsions:
  status: ('A' for Active; 'I' for Inactive)
    1  A    between atoms: C_3  and  C_11
    2  A    between atoms: C_3  and  C_19
    3  A    between atoms: C_4  and  C_13
    4  A    between atoms: C_7  and  C_16
    5  A    between atoms: C_7  and  C_30
    6  A    between atoms: C_8  and  C_12
    7  A    between atoms: C_8  and  C_13
    8  A    between atoms: N_9  and  C_12
    9  A    between atoms: C_10  and  C_15
   10  A    between atoms: C_10  and  N_25
   11  A    between atoms: C_11  and  N_25
   12  A    between atoms: C_13  and  C_30
   13  A    between atoms: C_15  and  C_26
   14  A    between atoms: C_16  and  C_26
                            x       y       z     vdW  Elec       q    Type
                         _______ _______ _______ _____ _____    ______ ____

>  <TORSDO>
F 14

$$$$
=
 OpenBabel11052412273D

 30 30  0  0  1  0  0  0  0  0999 V2000
  183.4390  179.4880  143.9770 C   0  0  0  0  0  2  0  0  0  0  0  0
  183.0610  178.4020  142.9820 C   0  0  0  0  0  2  0  0  0  0  0  0
  180.8190  178.4930  142.1560 O   0  0  0  0  0  1  0  0  0  0  0  0
  182.1160  178.9660  141.9360 C   0  0  2  0  0  3  0  0  0  0  0  0
  182.6000  178.6300  140.5140 C   0  0  2  0  0  3  0  0  0  0  0  0
  181.2990  178.1430  138.4170 C   0  0  0  0  0  1  0  0  0  0  0  0
  181.6440  177.6550  139.8140 C   0  0  0  0  0  3  0  0  0  0  0  0
  182.2710  176.2750  139.6870 C   0  0  0  0  0  1  0  0  0  0  0  0
  184.0290  178.0780  140.5290 C   0  0  0  0  0  2  0  0  0  0  0  0
  184.3810  180.1040  139.3170 O   0  0  0  0  0  1  0  0  0  0  0  0
  184.9160  178.8360  139.5510 C   0  0  2  0  0  3  0  0  0  0  0  0
  187.3650  178.8130  137.8960 O   0  0  0  0  0  1  0  0  0  0  0  0
  185.0460  178.1090  138.2900 N   0  0  0  0  0  2  0  0  0  0  0  0
  186.2360  178.1090  137.4920 C   0  0  0  0  0  0  0  0  0  0  0  0
  186.2610  177.4620  136.4120 O   0  0  0  0  0  0  0  0  0  0  0  0
  183.9270  178.8710  145.2710 C   0  0  0  0  0  2  0  0  0  0  0  0
  185.4070  179.1400  145.4890 C   0  0  0  0  0  2  0  0  0  0  0  0
  185.7620  178.8890  146.9440 C   0  0  0  0  0  2  0  0  0  0  0  0
  186.5960  177.7010  147.0520 N   0  0  0  0  0  2  0  0  0  0  0  0
  187.9630  178.1490  147.2740 C   0  0  1  0  0  3  0  0  0  0  0  0
  188.3400  177.9080  148.7210 C   0  0  0  0  0  1  0  0  0  0  0  0
  188.9160  177.3680  146.3760 C   0  0  0  0  0  2  0  0  0  0  0  0
  188.8350  178.2010  142.1630 C   0  0  1  0  0  3  0  0  0  0  0  0
  186.5360  177.7550  142.5960 F   0  0  0  0  0  0  0  0  0  0  0  0
  188.9370  178.0990  140.7740 O   0  0  0  0  0  1  0  0  0  0  0  0
  188.7770  177.8030  144.9260 C   0  0  2  0  0  3  0  0  0  0  0  0
  187.7960  177.1940  142.6810 C   0  0  2  0  0  3  0  0  0  0  0  0
  190.2030  177.9730  142.7960 C   0  0  0  0  0  2  0  0  0  0  0  0
  188.0610  176.7260  144.1180 C   0  0  0  0  0  2  0  0  0  0  0  0
  190.1530  178.1280  144.3220 C   0  0  0  0  0  2  0  0  0  0  0  0
  1 16  1  0  0  0  0
  2  1  1  0  0  0  0
  4  3  1  1  0  0  0
  4  2  1  0  0  0  0
  5  9  1  1  0  0  0
  5  4  1  0  0  0  0
  6  7  1  0  0  0  0
  7  5  1  0  0  0  0
  8  7  1  0  0  0  0
 11 10  1  6  0  0  0
 11  9  1  0  0  0  0
 13 11  1  0  0  0  0
 14 12  1  0  0  0  0
 14 13  1  0  0  0  0
 15 14  2  0  0  0  0
 16 17  1  0  0  0  0
 17 18  1  0  0  0  0
 18 19  1  0  0  0  0
 19 20  1  0  0  0  0
 20 21  1  1  0  0  0
 22 20  1  0  0  0  0
 23 25  1  6  0  0  0
 23 27  1  0  0  0  0
 23 28  1  0  0  0  0
 26 22  1  1  0  0  0
 27 24  1  1  0  0  0
 27 29  1  0  0  0  0
 28 30  1  0  0  0  0
 29 26  1  0  0  0  0
 30 26  1  0  0  0  0
M  END
>  <MODEL>
3

>  <REMARK>
 VINA RESULT:      -7.0      1.671      2.389
  Name = 
  14 active torsions:
  status: ('A' for Active; 'I' for Inactive)
    1  A    between atoms: C_3  and  C_11
    2  A    between atoms: C_3  and  C_19
    3  A    between atoms: C_4  and  C_13
    4  A    between atoms: C_7  and  C_16
    5  A    between atoms: C_7  and  C_30
    6  A    between atoms: C_8  and  C_12
    7  A    between atoms: C_8  and  C_13
    8  A    between atoms: N_9  and  C_12
    9  A    between atoms: C_10  and  C_15
   10  A    between atoms: C_10  and  N_25
   11  A    between atoms: C_11  and  N_25
   12  A    between atoms: C_13  and  C_30
   13  A    between atoms: C_15  and  C_26
   14  A    between atoms: C_16  and  C_26
                            x       y       z     vdW  Elec       q    Type
                         _______ _______ _______ _____ _____    ______ ____

>  <TORSDO>
F 14

$$$$
=
 OpenBabel11052412273D

 30 30  0  0  1  0  0  0  0  0999 V2000
  187.0870  178.6920  141.7110 C   0  0  0  0  0  2  0  0  0  0  0  0
  187.0020  177.6140  142.7800 C   0  0  0  0  0  2  0  0  0  0  0  0
  188.2980  175.6500  143.2060 O   0  0  0  0  0  1  0  0  0  0  0  0
  188.3820  177.0350  143.0390 C   0  0  2  0  0  3  0  0  0  0  0  0
  189.0430  177.7060  144.2560 C   0  0  2  0  0  3  0  0  0  0  0  0
  190.9830  179.2850  143.9840 C   0  0  0  0  0  1  0  0  0  0  0  0
  190.5610  177.8280  144.0710 C   0  0  0  0  0  3  0  0  0  0  0  0
  191.3040  177.1950  145.2380 C   0  0  0  0  0  1  0  0  0  0  0  0
  188.7080  176.9610  145.5520 C   0  0  0  0  0  2  0  0  0  0  0  0
  188.2040  177.4920  147.8240 O   0  0  0  0  0  1  0  0  0  0  0  0
  187.9210  177.8510  146.5040 C   0  0  2  0  0  3  0  0  0  0  0  0
  185.9240  179.8180  147.4410 O   0  0  0  0  0  1  0  0  0  0  0  0
  186.4840  177.7430  146.2560 N   0  0  0  0  0  2  0  0  0  0  0  0
  185.5240  178.6990  146.7190 C   0  0  0  0  0  0  0  0  0  0  0  0
  184.3020  178.5250  146.4680 O   0  0  0  0  0  0  0  0  0  0  0  0
  185.7640  179.4210  141.5910 C   0  0  0  0  0  2  0  0  0  0  0  0
  184.5980  178.4470  141.5490 C   0  0  0  0  0  2  0  0  0  0  0  0
  183.8150  178.6460  140.2630 C   0  0  0  0  0  2  0  0  0  0  0  0
  184.7000  179.1330  139.2150 N   0  0  0  0  0  2  0  0  0  0  0  0
  185.0830  177.9870  138.4030 C   0  0  1  0  0  3  0  0  0  0  0  0
  183.9670  177.6670  137.4310 C   0  0  0  0  0  1  0  0  0  0  0  0
  186.3490  178.3080  137.6170 C   0  0  0  0  0  2  0  0  0  0  0  0
  189.9140  176.1430  138.6450 C   0  0  1  0  0  3  0  0  0  0  0  0
  189.9600  177.9080  140.2440 F   0  0  0  0  0  0  0  0  0  0  0  0
  191.2160  175.6390  138.6680 O   0  0  0  0  0  1  0  0  0  0  0  0
  187.5340  177.5140  138.1440 C   0  0  2  0  0  3  0  0  0  0  0  0
  189.9420  177.6610  138.8840 C   0  0  2  0  0  3  0  0  0  0  0  0
  189.2550  175.7970  137.3140 C   0  0  0  0  0  2  0  0  0  0  0  0
  188.7680  178.4060  138.2360 C   0  0  0  0  0  2  0  0  0  0  0  0
  187.8000  176.2850  137.2590 C   0  0  0  0  0  2  0  0  0  0  0  0
  1  2  1  0  0  0  0
  2  4  1  0  0  0  0
  4  3  1  1  0  0  0
  4  5  1  0  0  0  0
  5  9  1  1  0  0  0
  6  7  1  0  0  0  0
  7  5  1  0  0  0  0
  7  8  1  0  0  0  0
  9 11  1  0  0  0  0
 11 10  1  1  0  0  0
 13 11  1  0  0  0  0
 13 14  1  0  0  0  0
 14 12  1  0  0  0  0
 15 14  2  0  0  0  0
 16  1  1  0  0  0  0
 17 16  1  0  0  0  0
 18 17  1  0  0  0  0
 19 18  1  0  0  0  0
 20 21  1  6  0  0  0
 20 19  1  0  0  0  0
 22 20  1  0  0  0  0
 23 25  1  6  0  0  0
 23 27  1  0  0  0  0
 26 22  1  6  0  0  0
 26 29  1  0  0  0  0
 27 24  1  1  0  0  0
 28 23  1  0  0  0  0
 29 27  1  0  0  0  0
 30 28  1  0  0  0  0
 30 26  1  0  0  0  0
M  END
>  <MODEL>
4

>  <REMARK>
 VINA RESULT:      -6.9      2.618      7.477
  Name = 
  14 active torsions:
  status: ('A' for Active; 'I' for Inactive)
    1  A    between atoms: C_3  and  C_11
    2  A    between atoms: C_3  and  C_19
    3  A    between atoms: C_4  and  C_13
    4  A    between atoms: C_7  and  C_16
    5  A    between atoms: C_7  and  C_30
    6  A    between atoms: C_8  and  C_12
    7  A    between atoms: C_8  and  C_13
    8  A    between atoms: N_9  and  C_12
    9  A    between atoms: C_10  and  C_15
   10  A    between atoms: C_10  and  N_25
   11  A    between atoms: C_11  and  N_25
   12  A    between atoms: C_13  and  C_30
   13  A    between atoms: C_15  and  C_26
   14  A    between atoms: C_16  and  C_26
                            x       y       z     vdW  Elec       q    Type
                         _______ _______ _______ _____ _____    ______ ____

>  <TORSDO>
F 14

$$$$
=
 OpenBabel11052412273D

 30 30  0  0  1  0  0  0  0  0999 V2000
  189.1310  177.3350  140.5710 C   0  0  0  0  0  2  0  0  0  0  0  0
  189.0270  178.6130  139.7550 C   0  0  0  0  0  2  0  0  0  0  0  0
  188.8970  179.4470  137.5180 O   0  0  0  0  0  1  0  0  0  0  0  0
  188.9160  178.2740  138.2790 C   0  0  2  0  0  3  0  0  0  0  0  0
  187.6740  177.4080  138.0020 C   0  0  2  0  0  3  0  0  0  0  0  0
  189.4160  175.9870  136.8730 C   0  0  0  0  0  1  0  0  0  0  0  0
  187.9480  176.3750  136.9010 C   0  0  0  0  0  3  0  0  0  0  0  0
  187.1330  175.1100  137.1270 C   0  0  0  0  0  1  0  0  0  0  0  0
  186.4600  178.2730  137.6510 C   0  0  0  0  0  2  0  0  0  0  0  0
  184.1490  178.5300  138.1910 O   0  0  0  0  0  1  0  0  0  0  0  0
  185.3860  178.1650  138.7250 C   0  0  2  0  0  3  0  0  0  0  0  0
  184.1090  177.9150  141.3790 O   0  0  0  0  0  0  0  0  0  0  0  0
  185.7040  179.0150  139.8720 N   0  0  0  0  0  2  0  0  0  0  0  0
  185.0750  178.8890  141.1530 C   0  0  0  0  0  0  0  0  0  0  0  0
  185.4020  179.6700  142.0850 O   0  0  0  0  0  1  0  0  0  0  0  0
  190.4790  176.6780  140.3550 C   0  0  0  0  0  2  0  0  0  0  0  0
  191.6030  177.5120  140.9470 C   0  0  0  0  0  2  0  0  0  0  0  0
  191.4190  177.6210  142.4510 C   0  0  0  0  0  2  0  0  0  0  0  0
  191.2300  176.2950  143.0230 N   0  0  0  0  0  2  0  0  0  0  0  0
  190.7740  176.4740  144.3940 C   0  0  1  0  0  3  0  0  0  0  0  0
  191.8300  175.9490  145.3440 C   0  0  0  0  0  1  0  0  0  0  0  0
  190.5450  177.9540  144.6750 C   0  0  0  0  0  2  0  0  0  0  0  0
  186.4750  178.1440  146.0360 C   0  0  1  0  0  3  0  0  0  0  0  0
  187.6520  178.8710  147.9750 F   0  0  0  0  0  0  0  0  0  0  0  0
  185.2070  177.8160  146.5200 O   0  0  0  0  0  1  0  0  0  0  0  0
  189.1330  178.2000  145.1800 C   0  0  2  0  0  3  0  0  0  0  0  0
  187.5360  177.8110  147.0960 C   0  0  2  0  0  3  0  0  0  0  0  0
  186.7330  177.4000  144.7300 C   0  0  0  0  0  2  0  0  0  0  0  0
  188.9110  177.4750  146.5040 C   0  0  0  0  0  2  0  0  0  0  0  0
  188.0970  177.7690  144.1290 C   0  0  0  0  0  2  0  0  0  0  0  0
  2  1  1  0  0  0  0
  4  3  1  6  0  0  0
  4  2  1  0  0  0  0
  5  9  1  6  0  0  0
  5  4  1  0  0  0  0
  6  7  1  0  0  0  0
  7  8  1  0  0  0  0
  7  5  1  0  0  0  0
  9 11  1  0  0  0  0
 11 10  1  6  0  0  0
 11 13  1  0  0  0  0
 13 14  1  0  0  0  0
 14 12  2  0  0  0  0
 14 15  1  0  0  0  0
 16  1  1  0  0  0  0
 16 17  1  0  0  0  0
 17 18  1  0  0  0  0
 18 19  1  0  0  0  0
 19 20  1  0  0  0  0
 20 22  1  0  0  0  0
 20 21  1  1  0  0  0
 23 25  1  1  0  0  0
 23 27  1  0  0  0  0
 26 22  1  6  0  0  0
 26 29  1  0  0  0  0
 27 24  1  1  0  0  0
 28 23  1  0  0  0  0
 29 27  1  0  0  0  0
 30 28  1  0  0  0  0
 30 26  1  0  0  0  0
M  END
>  <MODEL>
5

>  <REMARK>
 VINA RESULT:      -6.7      2.641      5.410
  Name = 
  14 active torsions:
  status: ('A' for Active; 'I' for Inactive)
    1  A    between atoms: C_3  and  C_11
    2  A    between atoms: C_3  and  C_19
    3  A    between atoms: C_4  and  C_13
    4  A    between atoms: C_7  and  C_16
    5  A    between atoms: C_7  and  C_30
    6  A    between atoms: C_8  and  C_12
    7  A    between atoms: C_8  and  C_13
    8  A    between atoms: N_9  and  C_12
    9  A    between atoms: C_10  and  C_15
   10  A    between atoms: C_10  and  N_25
   11  A    between atoms: C_11  and  N_25
   12  A    between atoms: C_13  and  C_30
   13  A    between atoms: C_15  and  C_26
   14  A    between atoms: C_16  and  C_26
                            x       y       z     vdW  Elec       q    Type
                         _______ _______ _______ _____ _____    ______ ____

>  <TORSDO>
F 14

$$$$
=
 OpenBabel11052412273D

 30 30  0  0  1  0  0  0  0  0999 V2000
  183.5900  178.8460  145.3790 C   0  0  0  0  0  2  0  0  0  0  0  0
  183.8000  178.4870  143.9160 C   0  0  0  0  0  2  0  0  0  0  0  0
  185.2950  180.2980  143.4710 O   0  0  0  0  0  1  0  0  0  0  0  0
  185.1920  178.9040  143.4780 C   0  0  2  0  0  3  0  0  0  0  0  0
  185.5390  178.3120  142.1000 C   0  0  2  0  0  3  0  0  0  0  0  0
  187.9820  178.6030  141.5710 C   0  0  0  0  0  1  0  0  0  0  0  0
  186.9250  177.6530  142.1080 C   0  0  0  0  0  3  0  0  0  0  0  0
  187.3290  177.2520  143.5190 C   0  0  0  0  0  1  0  0  0  0  0  0
  185.4450  179.3720  140.9990 C   0  0  0  0  0  2  0  0  0  0  0  0
  184.5860  179.7910  138.8120 O   0  0  0  0  0  1  0  0  0  0  0  0
  184.4620  178.9470  139.9160 C   0  0  2  0  0  3  0  0  0  0  0  0
  182.6600  176.6050  139.9510 O   0  0  0  0  0  0  0  0  0  0  0  0
  183.0880  178.9770  140.4140 N   0  0  0  0  0  2  0  0  0  0  0  0
  182.2200  177.8370  140.4220 C   0  0  0  0  0  0  0  0  0  0  0  0
  181.0460  177.9520  140.8620 O   0  0  0  0  0  1  0  0  0  0  0  0
  184.5920  178.1180  146.2500 C   0  0  0  0  0  2  0  0  0  0  0  0
  185.6950  179.0500  146.7220 C   0  0  0  0  0  2  0  0  0  0  0  0
  186.6330  178.3000  147.6530 C   0  0  0  0  0  2  0  0  0  0  0  0
  187.6620  177.6220  146.8780 N   0  0  0  0  0  2  0  0  0  0  0  0
  188.9500  178.1180  147.3390 C   0  0  1  0  0  3  0  0  0  0  0  0
  188.9250  178.2510  148.8470 C   0  0  0  0  0  1  0  0  0  0  0  0
  190.0530  177.1420  146.9440 C   0  0  0  0  0  2  0  0  0  0  0  0
  191.1150  177.3530  142.7880 C   0  0  1  0  0  3  0  0  0  0  0  0
  190.8700  175.0030  143.0900 F   0  0  0  0  0  0  0  0  0  0  0  0
  191.8230  177.4610  141.5890 O   0  0  0  0  0  1  0  0  0  0  0  0
  190.2660  177.1410  145.4400 C   0  0  2  0  0  3  0  0  0  0  0  0
  191.5750  176.1000  143.5490 C   0  0  2  0  0  3  0  0  0  0  0  0
  191.3130  178.6170  143.6170 C   0  0  0  0  0  2  0  0  0  0  0  0
  191.4220  176.2160  145.0710 C   0  0  0  0  0  2  0  0  0  0  0  0
  190.5100  178.5680  144.9240 C   0  0  0  0  0  2  0  0  0  0  0  0
  1 16  1  0  0  0  0
  2  1  1  0  0  0  0
  4  3  1  6  0  0  0
  4  2  1  0  0  0  0
  5  9  1  6  0  0  0
  5  7  1  0  0  0  0
  5  4  1  0  0  0  0
  6  7  1  0  0  0  0
  7  8  1  0  0  0  0
 11 10  1  6  0  0  0
 11 13  1  0  0  0  0
 11  9  1  0  0  0  0
 12 14  2  0  0  0  0
 13 14  1  0  0  0  0
 14 15  1  0  0  0  0
 16 17  1  0  0  0  0
 17 18  1  0  0  0  0
 19 20  1  0  0  0  0
 19 18  1  0  0  0  0
 20 21  1  1  0  0  0
 22 20  1  0  0  0  0
 23 25  1  6  0  0  0
 23 27  1  0  0  0  0
 23 28  1  0  0  0  0
 26 22  1  1  0  0  0
 27 24  1  6  0  0  0
 27 29  1  0  0  0  0
 28 30  1  0  0  0  0
 29 26  1  0  0  0  0
 30 26  1  0  0  0  0
M  END
>  <MODEL>
6

>  <REMARK>
 VINA RESULT:      -6.7      2.343      4.054
  Name = 
  14 active torsions:
  status: ('A' for Active; 'I' for Inactive)
    1  A    between atoms: C_3  and  C_11
    2  A    between atoms: C_3  and  C_19
    3  A    between atoms: C_4  and  C_13
    4  A    between atoms: C_7  and  C_16
    5  A    between atoms: C_7  and  C_30
    6  A    between atoms: C_8  and  C_12
    7  A    between atoms: C_8  and  C_13
    8  A    between atoms: N_9  and  C_12
    9  A    between atoms: C_10  and  C_15
   10  A    between atoms: C_10  and  N_25
   11  A    between atoms: C_11  and  N_25
   12  A    between atoms: C_13  and  C_30
   13  A    between atoms: C_15  and  C_26
   14  A    between atoms: C_16  and  C_26
                            x       y       z     vdW  Elec       q    Type
                         _______ _______ _______ _____ _____    ______ ____

>  <TORSDO>
F 14

$$$$
=
 OpenBabel11052412273D

 30 30  0  0  1  0  0  0  0  0999 V2000
  183.4330  178.2360  141.1600 C   0  0  0  0  0  2  0  0  0  0  0  0
  183.7980  177.8520  139.7350 C   0  0  0  0  0  2  0  0  0  0  0  0
  184.5270  180.0120  139.0150 O   0  0  0  0  0  1  0  0  0  0  0  0
  184.9580  178.7040  139.2520 C   0  0  2  0  0  3  0  0  0  0  0  0
  185.6080  178.0930  137.9980 C   0  0  2  0  0  3  0  0  0  0  0  0
  184.1270  177.3450  136.1060 C   0  0  0  0  0  1  0  0  0  0  0  0
  184.7590  176.9480  137.4300 C   0  0  0  0  0  3  0  0  0  0  0  0
  185.6080  175.7080  137.1900 C   0  0  0  0  0  1  0  0  0  0  0  0
  187.0370  177.6230  138.2850 C   0  0  0  0  0  2  0  0  0  0  0  0
  187.3960  179.3670  136.6950 O   0  0  0  0  0  1  0  0  0  0  0  0
  188.0540  178.5060  137.5750 C   0  0  2  0  0  3  0  0  0  0  0  0
  190.4840  177.3450  138.7920 O   0  0  0  0  0  1  0  0  0  0  0  0
  189.0310  177.6990  136.8460 N   0  0  0  0  0  2  0  0  0  0  0  0
  190.2090  177.1450  137.4440 C   0  0  0  0  0  0  0  0  0  0  0  0
  191.0040  176.4680  136.7400 O   0  0  0  0  0  0  0  0  0  0  0  0
  184.6350  178.0900  142.0700 C   0  0  0  0  0  2  0  0  0  0  0  0
  185.0070  179.4160  142.7130 C   0  0  0  0  0  2  0  0  0  0  0  0
  184.3430  179.5260  144.0740 C   0  0  0  0  0  2  0  0  0  0  0  0
  184.6680  178.3570  144.8790 N   0  0  0  0  0  2  0  0  0  0  0  0
  185.9260  178.6330  145.5580 C   0  0  1  0  0  3  0  0  0  0  0  0
  185.6470  178.9860  147.0040 C   0  0  0  0  0  1  0  0  0  0  0  0
  186.8220  177.4010  145.5110 C   0  0  0  0  0  2  0  0  0  0  0  0
  190.1870  177.4640  142.8430 C   0  0  1  0  0  3  0  0  0  0  0  0
  188.3830  177.8190  141.3300 F   0  0  0  0  0  0  0  0  0  0  0  0
  191.2480  177.0920  142.0150 O   0  0  0  0  0  1  0  0  0  0  0  0
  187.9640  177.5950  144.5280 C   0  0  2  0  0  3  0  0  0  0  0  0
  188.8680  176.9270  142.2670 C   0  0  2  0  0  3  0  0  0  0  0  0
  190.4350  176.9470  144.2560 C   0  0  0  0  0  2  0  0  0  0  0  0
  187.7970  176.6610  143.3330 C   0  0  0  0  0  2  0  0  0  0  0  0
  189.3200  177.3760  145.2200 C   0  0  0  0  0  2  0  0  0  0  0  0
  1 16  1  0  0  0  0
  2  1  1  0  0  0  0
  4  3  1  6  0  0  0
  4  2  1  0  0  0  0
  5  9  1  1  0  0  0
  5  4  1  0  0  0  0
  6  7  1  0  0  0  0
  7  5  1  0  0  0  0
  8  7  1  0  0  0  0
 11 10  1  6  0  0  0
 11  9  1  0  0  0  0
 13 14  1  0  0  0  0
 13 11  1  0  0  0  0
 14 12  1  0  0  0  0
 15 14  2  0  0  0  0
 16 17  1  0  0  0  0
 17 18  1  0  0  0  0
 18 19  1  0  0  0  0
 19 20  1  0  0  0  0
 20 21  1  1  0  0  0
 22 20  1  0  0  0  0
 23 25  1  6  0  0  0
 23 28  1  0  0  0  0
 26 30  1  0  0  0  0
 26 22  1  1  0  0  0
 27 24  1  6  0  0  0
 27 23  1  0  0  0  0
 27 29  1  0  0  0  0
 28 30  1  0  0  0  0
 29 26  1  0  0  0  0
M  END
>  <MODEL>
7

>  <REMARK>
 VINA RESULT:      -6.7      1.447      2.164
  Name = 
  14 active torsions:
  status: ('A' for Active; 'I' for Inactive)
    1  A    between atoms: C_3  and  C_11
    2  A    between atoms: C_3  and  C_19
    3  A    between atoms: C_4  and  C_13
    4  A    between atoms: C_7  and  C_16
    5  A    between atoms: C_7  and  C_30
    6  A    between atoms: C_8  and  C_12
    7  A    between atoms: C_8  and  C_13
    8  A    between atoms: N_9  and  C_12
    9  A    between atoms: C_10  and  C_15
   10  A    between atoms: C_10  and  N_25
   11  A    between atoms: C_11  and  N_25
   12  A    between atoms: C_13  and  C_30
   13  A    between atoms: C_15  and  C_26
   14  A    between atoms: C_16  and  C_26
                            x       y       z     vdW  Elec       q    Type
                         _______ _______ _______ _____ _____    ______ ____

>  <TORSDO>
F 14

$$$$
=
 OpenBabel11052412273D

 30 30  0  0  1  0  0  0  0  0999 V2000
  188.6700  177.4570  139.9320 C   0  0  0  0  0  2  0  0  0  0  0  0
  189.1600  178.6110  139.0710 C   0  0  0  0  0  2  0  0  0  0  0  0
  188.2640  179.7530  137.1710 O   0  0  0  0  0  1  0  0  0  0  0  0
  188.5870  178.4880  137.6700 C   0  0  2  0  0  3  0  0  0  0  0  0
  187.3650  177.5510  137.6530 C   0  0  2  0  0  3  0  0  0  0  0  0
  188.9220  175.9260  136.5270 C   0  0  0  0  0  1  0  0  0  0  0  0
  187.5040  176.4720  136.5710 C   0  0  0  0  0  3  0  0  0  0  0  0
  186.5620  175.3080  136.8400 C   0  0  0  0  0  1  0  0  0  0  0  0
  186.0640  178.3390  137.4750 C   0  0  0  0  0  2  0  0  0  0  0  0
  183.8570  178.5220  138.3680 O   0  0  0  0  0  1  0  0  0  0  0  0
  185.1750  178.2060  138.7050 C   0  0  2  0  0  3  0  0  0  0  0  0
  184.3150  177.9590  141.5210 O   0  0  0  0  0  0  0  0  0  0  0  0
  185.6370  179.0790  139.7830 N   0  0  0  0  0  2  0  0  0  0  0  0
  185.2100  178.9540  141.1440 C   0  0  0  0  0  0  0  0  0  0  0  0
  185.6510  179.7550  142.0100 O   0  0  0  0  0  1  0  0  0  0  0  0
  188.8170  177.7960  141.4010 C   0  0  0  0  0  2  0  0  0  0  0  0
  189.6930  176.7820  142.1180 C   0  0  0  0  0  2  0  0  0  0  0  0
  191.1540  177.1660  141.9590 C   0  0  0  0  0  2  0  0  0  0  0  0
  191.7590  177.3620  143.2680 N   0  0  0  0  0  2  0  0  0  0  0  0
  191.1320  176.4190  144.1820 C   0  0  1  0  0  3  0  0  0  0  0  0
  192.0480  175.2300  144.3810 C   0  0  0  0  0  1  0  0  0  0  0  0
  190.8870  177.0880  145.5300 C   0  0  0  0  0  2  0  0  0  0  0  0
  186.7810  177.6730  146.6490 C   0  0  1  0  0  3  0  0  0  0  0  0
  186.5950  177.4410  144.2860 F   0  0  0  0  0  0  0  0  0  0  0  0
  185.5630  178.2410  147.0240 O   0  0  0  0  0  1  0  0  0  0  0  0
  189.4030  177.1290  145.8560 C   0  0  2  0  0  3  0  0  0  0  0  0
  187.1970  178.2040  145.2680 C   0  0  2  0  0  3  0  0  0  0  0  0
  187.8360  177.9760  147.7080 C   0  0  0  0  0  2  0  0  0  0  0  0
  188.7150  178.2260  145.0500 C   0  0  0  0  0  2  0  0  0  0  0  0
  189.1840  177.3270  147.3660 C   0  0  0  0  0  2  0  0  0  0  0  0
  1 16  1  0  0  0  0
  2  1  1  0  0  0  0
  4  3  1  1  0  0  0
  4  2  1  0  0  0  0
  5  9  1  6  0  0  0
  5  4  1  0  0  0  0
  6  7  1  0  0  0  0
  7  8  1  0  0  0  0
  7  5  1  0  0  0  0
  9 11  1  0  0  0  0
 11 10  1  6  0  0  0
 11 13  1  0  0  0  0
 13 14  1  0  0  0  0
 14 12  2  0  0  0  0
 14 15  1  0  0  0  0
 16 17  1  0  0  0  0
 18 17  1  0  0  0  0
 18 19  1  0  0  0  0
 19 20  1  0  0  0  0
 20 21  1  1  0  0  0
 20 22  1  0  0  0  0
 23 25  1  1  0  0  0
 23 28  1  0  0  0  0
 26 22  1  1  0  0  0
 26 30  1  0  0  0  0
 27 24  1  6  0  0  0
 27 23  1  0  0  0  0
 29 27  1  0  0  0  0
 29 26  1  0  0  0  0
 30 28  1  0  0  0  0
M  END
>  <MODEL>
8

>  <REMARK>
 VINA RESULT:      -6.6      2.569      5.109
  Name = 
  14 active torsions:
  status: ('A' for Active; 'I' for Inactive)
    1  A    between atoms: C_3  and  C_11
    2  A    between atoms: C_3  and  C_19
    3  A    between atoms: C_4  and  C_13
    4  A    between atoms: C_7  and  C_16
    5  A    between atoms: C_7  and  C_30
    6  A    between atoms: C_8  and  C_12
    7  A    between atoms: C_8  and  C_13
    8  A    between atoms: N_9  and  C_12
    9  A    between atoms: C_10  and  C_15
   10  A    between atoms: C_10  and  N_25
   11  A    between atoms: C_11  and  N_25
   12  A    between atoms: C_13  and  C_30
   13  A    between atoms: C_15  and  C_26
   14  A    between atoms: C_16  and  C_26
                            x       y       z     vdW  Elec       q    Type
                         _______ _______ _______ _____ _____    ______ ____

>  <TORSDO>
F 14

$$$$
=
 OpenBabel11052412273D

 30 30  0  0  1  0  0  0  0  0999 V2000
  190.7750  178.1640  143.8510 C   0  0  0  0  0  2  0  0  0  0  0  0
  189.2660  178.3070  143.9640 C   0  0  0  0  0  2  0  0  0  0  0  0
  187.7940  176.4310  144.1350 O   0  0  0  0  0  1  0  0  0  0  0  0
  188.7090  177.2080  144.8510 C   0  0  2  0  0  3  0  0  0  0  0  0
  188.0690  177.7940  146.1220 C   0  0  2  0  0  3  0  0  0  0  0  0
  190.1320  176.7490  147.1150 C   0  0  0  0  0  1  0  0  0  0  0  0
  188.7110  177.2130  147.3890 C   0  0  0  0  0  3  0  0  0  0  0  0
  188.7640  178.2540  148.4980 C   0  0  0  0  0  1  0  0  0  0  0  0
  186.5530  177.5810  146.1310 C   0  0  0  0  0  2  0  0  0  0  0  0
  185.8480  179.4810  147.3920 O   0  0  0  0  0  1  0  0  0  0  0  0
  185.8150  178.9130  146.1170 C   0  0  2  0  0  3  0  0  0  0  0  0
  184.8200  179.6180  143.4250 O   0  0  0  0  0  0  0  0  0  0  0  0
  184.4300  178.7400  145.6840 N   0  0  0  0  0  2  0  0  0  0  0  0
  183.9560  179.0900  144.3780 C   0  0  0  0  0  0  0  0  0  0  0  0
  182.7420  178.9170  144.0890 O   0  0  0  0  0  1  0  0  0  0  0  0
  191.1330  177.2250  142.7180 C   0  0  0  0  0  2  0  0  0  0  0  0
  190.1950  177.4010  141.5350 C   0  0  0  0  0  2  0  0  0  0  0  0
  190.9580  177.1790  140.2410 C   0  0  0  0  0  2  0  0  0  0  0  0
  190.3210  176.1250  139.4660 N   0  0  0  0  0  2  0  0  0  0  0  0
  190.6510  176.3540  138.0670 C   0  0  1  0  0  3  0  0  0  0  0  0
  190.3090  175.1160  137.2630 C   0  0  0  0  0  1  0  0  0  0  0  0
  189.8470  177.5320  137.5300 C   0  0  0  0  0  2  0  0  0  0  0  0
  185.6150  177.0020  137.0220 C   0  0  1  0  0  3  0  0  0  0  0  0
  186.4710  175.6760  135.2380 F   0  0  0  0  0  0  0  0  0  0  0  0
  184.2720  177.1850  136.6850 O   0  0  0  0  0  1  0  0  0  0  0  0
  188.3790  177.1670  137.3800 C   0  0  2  0  0  3  0  0  0  0  0  0
  186.4680  176.9620  135.7440 C   0  0  2  0  0  3  0  0  0  0  0  0
  186.0640  178.1150  137.9620 C   0  0  0  0  0  2  0  0  0  0  0  0
  187.9100  177.4410  135.9540 C   0  0  0  0  0  2  0  0  0  0  0  0
  187.5220  177.9290  138.4040 C   0  0  0  0  0  2  0  0  0  0  0  0
  1  2  1  0  0  0  0
  2  4  1  0  0  0  0
  4  3  1  6  0  0  0
  4  5  1  0  0  0  0
  5  9  1  1  0  0  0
  5  7  1  0  0  0  0
  6  7  1  0  0  0  0
  7  8  1  0  0  0  0
 11  9  1  0  0  0  0
 11 10  1  1  0  0  0
 12 14  2  0  0  0  0
 13 11  1  0  0  0  0
 14 13  1  0  0  0  0
 15 14  1  0  0  0  0
 16  1  1  0  0  0  0
 17 16  1  0  0  0  0
 18 17  1  0  0  0  0
 19 18  1  0  0  0  0
 20 21  1  6  0  0  0
 20 19  1  0  0  0  0
 22 20  1  0  0  0  0
 23 25  1  6  0  0  0
 23 28  1  0  0  0  0
 26 22  1  6  0  0  0
 26 30  1  0  0  0  0
 27 24  1  1  0  0  0
 27 29  1  0  0  0  0
 27 23  1  0  0  0  0
 28 30  1  0  0  0  0
 29 26  1  0  0  0  0
M  END
>  <MODEL>
9

>  <REMARK>
 VINA RESULT:      -6.6      2.885      8.454
  Name = 
  14 active torsions:
  status: ('A' for Active; 'I' for Inactive)
    1  A    between atoms: C_3  and  C_11
    2  A    between atoms: C_3  and  C_19
    3  A    between atoms: C_4  and  C_13
    4  A    between atoms: C_7  and  C_16
    5  A    between atoms: C_7  and  C_30
    6  A    between atoms: C_8  and  C_12
    7  A    between atoms: C_8  and  C_13
    8  A    between atoms: N_9  and  C_12
    9  A    between atoms: C_10  and  C_15
   10  A    between atoms: C_10  and  N_25
   11  A    between atoms: C_11  and  N_25
   12  A    between atoms: C_13  and  C_30
   13  A    between atoms: C_15  and  C_26
   14  A    between atoms: C_16  and  C_26
                            x       y       z     vdW  Elec       q    Type
                         _______ _______ _______ _____ _____    ______ ____

>  <TORSDO>
F 14

$$$$
