=
 OpenBabel11052414433D

 32 35  0  0  1  0  0  0  0  0999 V2000
  186.4260  177.4020  144.8380 C   0  0  0  0  0  2  0  0  0  0  0  0
  186.0160  178.1130  146.0970 C   0  0  0  0  0  0  0  0  0  0  0  0
  187.9330  177.5050  144.5570 C   0  0  1  0  0  3  0  0  0  0  0  0
  188.7670  177.3980  145.8180 C   0  0  0  0  0  0  0  0  0  0  0  0
  188.2700  177.8140  146.9880 C   0  0  0  0  0  3  0  0  0  0  0  0
  186.8710  178.2530  147.1120 C   0  0  0  0  0  3  0  0  0  0  0  0
  188.3170  176.4350  143.5430 C   0  0  0  0  0  2  0  0  0  0  0  0
  188.7580  177.0600  142.2650 C   0  0  0  0  0  0  0  0  0  0  0  0
  190.1440  177.1020  138.1150 C   0  0  0  0  0  3  0  0  0  0  0  0
  189.9450  176.6810  141.5760 N   0  0  0  0  0  0  0  0  0  0  0  0
  188.0610  178.0290  139.0670 C   0  0  0  0  0  3  0  0  0  0  0  0
  188.7870  178.2930  140.3620 C   0  0  1  0  0  3  0  0  0  0  0  0
  188.0160  177.9250  141.5840 C   0  0  0  0  0  2  0  0  0  0  0  0
  189.9600  177.3790  140.4920 C   0  0  2  0  0  3  0  0  0  0  0  0
  188.7210  177.5280  138.0080 C   0  0  0  0  0  3  0  0  0  0  0  0
  190.7440  177.0040  139.3100 C   0  0  0  0  0  3  0  0  0  0  0  0
  190.2240  177.0760  145.7330 C   0  0  0  0  0  2  0  0  0  0  0  0
  190.7490  176.6200  147.0820 C   0  0  0  0  0  2  0  0  0  0  0  0
  192.0470  175.8650  146.8870 C   0  0  0  0  0  2  0  0  0  0  0  0
  192.7570  175.7350  148.2170 C   0  0  0  0  0  1  0  0  0  0  0  0
  184.5960  178.5370  146.2570 C   0  0  0  0  0  2  0  0  0  0  0  0
  184.1990  179.3140  145.1630 O   0  0  0  0  0  0  0  0  0  0  0  0
  182.9030  179.0850  145.0450 O   0  0  0  0  0  0  0  0  0  0  0  0
  181.2570  178.9440  143.1810 C   0  0  2  0  0  0  0  0  0  0  0  0
  182.2240  178.8740  140.8930 N   0  0  0  0  0  2  0  0  0  0  0  0
  180.3300  178.2620  143.9720 O   0  0  0  0  0  1  0  0  0  0  0  0
  183.8130  178.9420  142.7550 C   0  0  0  0  0  2  0  0  0  0  0  0
  181.1320  178.4010  141.7480 C   0  0  0  0  0  2  0  0  0  0  0  0
  182.6700  178.6330  143.7290 C   0  0  1  0  0  3  0  0  0  0  0  0
  183.4860  178.3340  141.3940 C   0  0  0  0  0  2  0  0  0  0  0  0
  180.9370  180.3180  143.2270 O   0  0  0  0  0  0  0  0  0  0  0  0
  179.9480  180.5540  142.3730 F   0  0  0  0  0  0  0  0  0  0  0  0
  1  2  1  0  0  0  0
  2 21  1  0  0  0  0
  2  6  2  0  0  0  0
  3  7  1  6  0  0  0
  3  1  1  0  0  0  0
  3  4  1  0  0  0  0
  4  5  2  0  0  0  0
  5  6  1  0  0  0  0
  8  7  1  0  0  0  0
  9 16  2  0  0  0  0
 10  8  2  0  0  0  0
 12 11  1  6  0  0  0
 12 14  1  0  0  0  0
 12 13  1  0  0  0  0
 13  8  1  0  0  0  0
 14 16  1  6  0  0  0
 14 10  1  0  0  0  0
 15  9  1  0  0  0  0
 15 11  2  0  0  0  0
 17  4  1  0  0  0  0
 17 18  1  0  0  0  0
 19 18  1  0  0  0  0
 19 20  1  0  0  0  0
 22 21  1  0  0  0  0
 23 22  1  0  0  0  0
 24 31  1  0  0  0  0
 24 29  1  0  0  0  0
 24 26  1  1  0  0  0
 25 30  1  0  0  0  0
 25 28  1  0  0  0  0
 27 29  1  0  0  0  0
 28 24  1  0  0  0  0
 29 23  1  1  0  0  0
 30 27  1  0  0  0  0
 32 31  1  0  0  0  0
M  END
>  <MODEL>
1

>  <REMARK>
 VINA RESULT:      -9.1      0.000      0.000
  Name = 
  10 active torsions:
  status: ('A' for Active; 'I' for Inactive)
    1  A    between atoms: C_2  and  C_5
    2  A    between atoms: C_2  and  C_6
    3  A    between atoms: C_3  and  O_22
    4  A    between atoms: C_4  and  C_27
    5  A    between atoms: C_13  and  C_29
    6  A    between atoms: C_14  and  C_18
    7  A    between atoms: O_16  and  C_20
    8  A    between atoms: O_16  and  O_24
    9  A    between atoms: C_18  and  C_29
   10  A    between atoms: O_24  and  C_27
                            x       y       z     vdW  Elec       q    Type
                         _______ _______ _______ _____ _____    ______ ____

>  <TORSDO>
F 10

$$$$
=
 OpenBabel11052414433D

 32 35  0  0  1  0  0  0  0  0999 V2000
  186.4740  177.4650  144.5590 C   0  0  0  0  0  2  0  0  0  0  0  0
  186.1360  178.1720  145.8410 C   0  0  0  0  0  0  0  0  0  0  0  0
  187.9870  177.3780  144.3040 C   0  0  1  0  0  3  0  0  0  0  0  0
  188.7730  177.1100  145.5720 C   0  0  0  0  0  0  0  0  0  0  0  0
  188.3130  177.5410  146.7510 C   0  0  0  0  0  3  0  0  0  0  0  0
  186.9810  178.1560  146.8730 C   0  0  0  0  0  3  0  0  0  0  0  0
  188.2460  176.3090  143.2510 C   0  0  0  0  0  2  0  0  0  0  0  0
  188.8970  176.9040  142.0510 C   0  0  0  0  0  0  0  0  0  0  0  0
  190.6010  176.8970  138.0210 C   0  0  0  0  0  3  0  0  0  0  0  0
  190.0470  176.3450  141.4240 N   0  0  0  0  0  2  0  0  0  0  0  0
  188.6520  178.1460  138.8810 C   0  0  0  0  0  3  0  0  0  0  0  0
  189.3050  178.2040  140.2390 C   0  0  1  0  0  3  0  0  0  0  0  0
  188.3830  177.9260  141.3760 C   0  0  0  0  0  3  0  0  0  0  0  0
  190.2770  177.0820  140.3920 C   0  0  2  0  0  3  0  0  0  0  0  0
  189.2940  177.5860  137.8420 C   0  0  0  0  0  3  0  0  0  0  0  0
  191.0740  176.6270  139.2470 C   0  0  0  0  0  3  0  0  0  0  0  0
  190.1770  176.6020  145.4940 C   0  0  0  0  0  2  0  0  0  0  0  0
  191.1650  177.7500  145.5820 C   0  0  0  0  0  2  0  0  0  0  0  0
  191.6330  178.1190  144.1910 C   0  0  0  0  0  2  0  0  0  0  0  0
  191.0700  179.4720  143.8140 C   0  0  0  0  0  1  0  0  0  0  0  0
  184.7810  178.7750  145.9980 C   0  0  0  0  0  2  0  0  0  0  0  0
  184.3190  179.2490  144.7660 O   0  0  0  0  0  0  0  0  0  0  0  0
  183.0190  179.0130  144.7850 O   0  0  0  0  0  0  0  0  0  0  0  0
  181.2100  178.9560  143.0740 C   0  0  2  0  0  0  0  0  0  0  0  0
  181.9670  178.8370  140.7100 N   0  0  0  0  0  2  0  0  0  0  0  0
  180.3230  178.3220  143.9470 O   0  0  0  0  0  1  0  0  0  0  0  0
  183.7150  178.8240  142.4250 C   0  0  0  0  0  2  0  0  0  0  0  0
  180.9320  178.4200  141.6600 C   0  0  0  0  0  2  0  0  0  0  0  0
  182.6490  178.5730  143.4970 C   0  0  1  0  0  3  0  0  0  0  0  0
  183.2400  178.2330  141.1010 C   0  0  0  0  0  2  0  0  0  0  0  0
  180.9670  180.3450  143.1420 O   0  0  0  0  0  0  0  0  0  0  0  0
  179.6550  180.5450  143.2110 F   0  0  0  0  0  0  0  0  0  0  0  0
  1  2  1  0  0  0  0
  2 21  1  0  0  0  0
  2  6  2  0  0  0  0
  3  7  1  6  0  0  0
  3  1  1  0  0  0  0
  3  4  1  0  0  0  0
  4  5  2  0  0  0  0
  5  6  1  0  0  0  0
  8  7  1  0  0  0  0
  9 16  2  0  0  0  0
 10  8  1  0  0  0  0
 12 11  1  6  0  0  0
 12 14  1  0  0  0  0
 12 13  1  0  0  0  0
 13  8  2  0  0  0  0
 14 16  1  6  0  0  0
 14 10  1  0  0  0  0
 15  9  1  0  0  0  0
 15 11  2  0  0  0  0
 17  4  1  0  0  0  0
 17 18  1  0  0  0  0
 19 18  1  0  0  0  0
 20 19  1  0  0  0  0
 22 23  1  0  0  0  0
 22 21  1  0  0  0  0
 24 31  1  0  0  0  0
 24 29  1  0  0  0  0
 24 26  1  1  0  0  0
 25 30  1  0  0  0  0
 25 28  1  0  0  0  0
 27 29  1  0  0  0  0
 28 24  1  0  0  0  0
 29 23  1  1  0  0  0
 30 27  1  0  0  0  0
 31 32  1  0  0  0  0
M  END
>  <MODEL>
2

>  <REMARK>
 VINA RESULT:      -8.9      0.923      1.338
  Name = 
  10 active torsions:
  status: ('A' for Active; 'I' for Inactive)
    1  A    between atoms: C_2  and  C_5
    2  A    between atoms: C_2  and  C_6
    3  A    between atoms: C_3  and  O_22
    4  A    between atoms: C_4  and  C_27
    5  A    between atoms: C_13  and  C_29
    6  A    between atoms: C_14  and  C_18
    7  A    between atoms: O_16  and  C_20
    8  A    between atoms: O_16  and  O_24
    9  A    between atoms: C_18  and  C_29
   10  A    between atoms: O_24  and  C_27
                            x       y       z     vdW  Elec       q    Type
                         _______ _______ _______ _____ _____    ______ ____

>  <TORSDO>
F 10

$$$$
=
 OpenBabel11052414433D

 32 35  0  0  1  0  0  0  0  0999 V2000
  186.0910  177.6340  143.3190 C   0  0  0  0  0  2  0  0  0  0  0  0
  185.2390  178.4380  144.2600 C   0  0  0  0  0  0  0  0  0  0  0  0
  187.5700  177.5950  143.7360 C   0  0  1  0  0  3  0  0  0  0  0  0
  187.7460  177.4790  145.2360 C   0  0  0  0  0  0  0  0  0  0  0  0
  186.8280  177.9930  146.0620 C   0  0  0  0  0  3  0  0  0  0  0  0
  185.5670  178.5540  145.5480 C   0  0  0  0  0  3  0  0  0  0  0  0
  188.2550  176.4480  143.0040 C   0  0  0  0  0  2  0  0  0  0  0  0
  189.0410  176.9610  141.8470 C   0  0  0  0  0  0  0  0  0  0  0  0
  190.9400  176.7590  137.9110 C   0  0  0  0  0  3  0  0  0  0  0  0
  190.1390  176.2610  141.2730 N   0  0  0  0  0  2  0  0  0  0  0  0
  189.1290  178.2470  138.6870 C   0  0  0  0  0  3  0  0  0  0  0  0
  189.7110  178.2090  140.0770 C   0  0  1  0  0  3  0  0  0  0  0  0
  188.7010  178.0460  141.1610 C   0  0  0  0  0  3  0  0  0  0  0  0
  190.5190  176.9680  140.2650 C   0  0  2  0  0  3  0  0  0  0  0  0
  189.7460  177.6140  137.6740 C   0  0  0  0  0  3  0  0  0  0  0  0
  191.3080  176.4210  139.1560 C   0  0  0  0  0  3  0  0  0  0  0  0
  189.0530  177.0320  145.8090 C   0  0  0  0  0  2  0  0  0  0  0  0
  190.0970  178.1250  145.6710 C   0  0  0  0  0  2  0  0  0  0  0  0
  191.2470  177.6170  144.8280 C   0  0  0  0  0  2  0  0  0  0  0  0
  191.6390  178.6780  143.8220 C   0  0  0  0  0  1  0  0  0  0  0  0
  183.9430  178.9880  143.7700 C   0  0  0  0  0  2  0  0  0  0  0  0
  183.5600  178.3410  142.5910 O   0  0  0  0  0  0  0  0  0  0  0  0
  183.8220  179.2120  141.6330 O   0  0  0  0  0  0  0  0  0  0  0  0
  184.1800  179.0480  139.1740 C   0  0  2  0  0  0  0  0  0  0  0  0
  183.3800  176.9520  138.1060 N   0  0  0  0  0  2  0  0  0  0  0  0
  184.0960  180.4320  139.0090 O   0  0  0  0  0  1  0  0  0  0  0  0
  182.9820  177.1810  140.5110 C   0  0  0  0  0  2  0  0  0  0  0  0
  183.5630  178.3950  137.9260 C   0  0  0  0  0  2  0  0  0  0  0  0
  183.3480  178.6660  140.4210 C   0  0  1  0  0  3  0  0  0  0  0  0
  182.4060  176.7270  139.1730 C   0  0  0  0  0  2  0  0  0  0  0  0
  185.5450  178.7090  139.2950 O   0  0  0  0  0  0  0  0  0  0  0  0
  186.0640  178.5880  138.0790 F   0  0  0  0  0  0  0  0  0  0  0  0
  1  3  1  0  0  0  0
  1  2  1  0  0  0  0
  2  6  2  0  0  0  0
  3  7  1  6  0  0  0
  3  4  1  0  0  0  0
  4 17  1  0  0  0  0
  4  5  2  0  0  0  0
  6  5  1  0  0  0  0
  8  7  1  0  0  0  0
  9 16  2  0  0  0  0
 10  8  1  0  0  0  0
 12 11  1  6  0  0  0
 12 14  1  0  0  0  0
 12 13  1  0  0  0  0
 13  8  2  0  0  0  0
 14 16  1  6  0  0  0
 14 10  1  0  0  0  0
 15  9  1  0  0  0  0
 15 11  2  0  0  0  0
 18 17  1  0  0  0  0
 19 18  1  0  0  0  0
 20 19  1  0  0  0  0
 21  2  1  0  0  0  0
 22 21  1  0  0  0  0
 23 22  1  0  0  0  0
 24 26  1  6  0  0  0
 24 31  1  0  0  0  0
 24 29  1  0  0  0  0
 25 30  1  0  0  0  0
 28 25  1  0  0  0  0
 28 24  1  0  0  0  0
 29 27  1  0  0  0  0
 29 23  1  1  0  0  0
 30 27  1  0  0  0  0
 32 31  1  0  0  0  0
M  END
>  <MODEL>
3

>  <REMARK>
 VINA RESULT:      -8.8      2.580      3.176
  Name = 
  10 active torsions:
  status: ('A' for Active; 'I' for Inactive)
    1  A    between atoms: C_2  and  C_5
    2  A    between atoms: C_2  and  C_6
    3  A    between atoms: C_3  and  O_22
    4  A    between atoms: C_4  and  C_27
    5  A    between atoms: C_13  and  C_29
    6  A    between atoms: C_14  and  C_18
    7  A    between atoms: O_16  and  C_20
    8  A    between atoms: O_16  and  O_24
    9  A    between atoms: C_18  and  C_29
   10  A    between atoms: O_24  and  C_27
                            x       y       z     vdW  Elec       q    Type
                         _______ _______ _______ _____ _____    ______ ____

>  <TORSDO>
F 10

$$$$
=
 OpenBabel11052414433D

 32 35  0  0  1  0  0  0  0  0999 V2000
  185.7110  177.8130  143.0250 C   0  0  0  0  0  2  0  0  0  0  0  0
  184.6500  178.7830  142.5890 C   0  0  0  0  0  0  0  0  0  0  0  0
  186.1620  178.0330  144.4780 C   0  0  1  0  0  3  0  0  0  0  0  0
  185.0100  178.3890  145.3940 C   0  0  0  0  0  0  0  0  0  0  0  0
  183.9460  179.0430  144.9140 C   0  0  0  0  0  3  0  0  0  0  0  0
  183.8000  179.3090  143.4740 C   0  0  0  0  0  3  0  0  0  0  0  0
  186.8920  176.7850  144.9580 C   0  0  0  0  0  2  0  0  0  0  0  0
  188.3600  176.9250  144.7490 C   0  0  0  0  0  0  0  0  0  0  0  0
  192.0440  177.2390  142.4100 C   0  0  0  0  0  3  0  0  0  0  0  0
  189.1190  176.0620  143.9090 N   0  0  0  0  0  0  0  0  0  0  0  0
  191.0490  178.8770  143.9680 C   0  0  0  0  0  3  0  0  0  0  0  0
  190.4760  177.7400  144.7760 C   0  0  1  0  0  3  0  0  0  0  0  0
  189.0670  177.9490  145.2150 C   0  0  0  0  0  2  0  0  0  0  0  0
  190.3210  176.5270  143.9210 C   0  0  2  0  0  3  0  0  0  0  0  0
  191.8280  178.6280  142.9020 C   0  0  0  0  0  3  0  0  0  0  0  0
  191.3060  176.2220  142.8780 C   0  0  0  0  0  3  0  0  0  0  0  0
  185.1560  178.2530  146.8760 C   0  0  0  0  0  2  0  0  0  0  0  0
  186.4150  178.9530  147.3540 C   0  0  0  0  0  2  0  0  0  0  0  0
  187.1810  178.0330  148.2810 C   0  0  0  0  0  2  0  0  0  0  0  0
  188.5850  178.5650  148.4690 C   0  0  0  0  0  1  0  0  0  0  0  0
  184.4630  179.0430  141.1330 C   0  0  0  0  0  2  0  0  0  0  0  0
  185.6540  179.5130  140.5710 O   0  0  0  0  0  0  0  0  0  0  0  0
  185.7500  178.8800  139.4150 O   0  0  0  0  0  0  0  0  0  0  0  0
  187.5750  177.8980  138.0340 C   0  0  2  0  0  0  0  0  0  0  0  0
  189.7930  177.7290  139.1420 N   0  0  0  0  0  2  0  0  0  0  0  0
  186.6810  177.1120  137.3040 O   0  0  0  0  0  1  0  0  0  0  0  0
  187.9560  178.6230  140.4920 C   0  0  0  0  0  2  0  0  0  0  0  0
  188.8790  177.0970  138.1870 C   0  0  0  0  0  2  0  0  0  0  0  0
  186.9570  178.1500  139.4300 C   0  0  1  0  0  3  0  0  0  0  0  0
  189.1790  177.7120  140.4680 C   0  0  0  0  0  2  0  0  0  0  0  0
  187.7990  179.0870  137.3070 O   0  0  0  0  0  0  0  0  0  0  0  0
  187.1630  179.0020  136.1440 F   0  0  0  0  0  0  0  0  0  0  0  0
  1  3  1  0  0  0  0
  2  1  1  0  0  0  0
  2  6  2  0  0  0  0
  3  7  1  1  0  0  0
  3  4  1  0  0  0  0
  4 17  1  0  0  0  0
  5  4  2  0  0  0  0
  6  5  1  0  0  0  0
  8  7  1  0  0  0  0
  8 13  1  0  0  0  0
  9 16  2  0  0  0  0
  9 15  1  0  0  0  0
 10 14  1  0  0  0  0
 10  8  2  0  0  0  0
 12 11  1  6  0  0  0
 12 13  1  0  0  0  0
 14 16  1  6  0  0  0
 14 12  1  0  0  0  0
 15 11  2  0  0  0  0
 17 18  1  0  0  0  0
 18 19  1  0  0  0  0
 19 20  1  0  0  0  0
 21  2  1  0  0  0  0
 22 21  1  0  0  0  0
 23 22  1  0  0  0  0
 24 26  1  6  0  0  0
 24 28  1  0  0  0  0
 24 29  1  0  0  0  0
 25 30  1  0  0  0  0
 28 25  1  0  0  0  0
 29 23  1  6  0  0  0
 29 27  1  0  0  0  0
 30 27  1  0  0  0  0
 31 24  1  0  0  0  0
 32 31  1  0  0  0  0
M  END
>  <MODEL>
4

>  <REMARK>
 VINA RESULT:      -8.7      3.422      5.630
  Name = 
  10 active torsions:
  status: ('A' for Active; 'I' for Inactive)
    1  A    between atoms: C_2  and  C_5
    2  A    between atoms: C_2  and  C_6
    3  A    between atoms: C_3  and  O_22
    4  A    between atoms: C_4  and  C_27
    5  A    between atoms: C_13  and  C_29
    6  A    between atoms: C_14  and  C_18
    7  A    between atoms: O_16  and  C_20
    8  A    between atoms: O_16  and  O_24
    9  A    between atoms: C_18  and  C_29
   10  A    between atoms: O_24  and  C_27
                            x       y       z     vdW  Elec       q    Type
                         _______ _______ _______ _____ _____    ______ ____

>  <TORSDO>
F 10

$$$$
=
 OpenBabel11052414433D

 32 35  0  0  1  0  0  0  0  0999 V2000
  185.8030  177.7560  143.9560 C   0  0  0  0  0  2  0  0  0  0  0  0
  185.0470  178.5350  144.9940 C   0  0  0  0  0  0  0  0  0  0  0  0
  187.3170  177.7200  144.2190 C   0  0  1  0  0  3  0  0  0  0  0  0
  187.6460  177.5780  145.6910 C   0  0  0  0  0  0  0  0  0  0  0  0
  186.8130  178.0690  146.6160 C   0  0  0  0  0  3  0  0  0  0  0  0
  185.5040  178.6300  146.2440 C   0  0  0  0  0  3  0  0  0  0  0  0
  187.9300  176.5920  143.3990 C   0  0  0  0  0  2  0  0  0  0  0  0
  188.6320  177.1370  142.2040 C   0  0  0  0  0  0  0  0  0  0  0  0
  190.4870  176.9650  138.2450 C   0  0  0  0  0  3  0  0  0  0  0  0
  189.7990  176.5450  141.6430 N   0  0  0  0  0  2  0  0  0  0  0  0
  188.5200  178.2630  138.9840 C   0  0  0  0  0  3  0  0  0  0  0  0
  189.1220  178.3650  140.3620 C   0  0  1  0  0  3  0  0  0  0  0  0
  188.1540  178.1370  141.4730 C   0  0  0  0  0  3  0  0  0  0  0  0
  190.0760  177.2410  140.5940 C   0  0  2  0  0  3  0  0  0  0  0  0
  189.1950  177.6590  137.9910 C   0  0  0  0  0  3  0  0  0  0  0  0
  190.9100  176.7370  139.4970 C   0  0  0  0  0  3  0  0  0  0  0  0
  189.0060  177.1300  146.1190 C   0  0  0  0  0  2  0  0  0  0  0  0
  190.0440  178.1880  145.7890 C   0  0  0  0  0  2  0  0  0  0  0  0
  191.1180  177.5810  144.9130 C   0  0  0  0  0  2  0  0  0  0  0  0
  191.6290  178.6270  143.9460 C   0  0  0  0  0  1  0  0  0  0  0  0
  183.7040  179.0850  144.6500 C   0  0  0  0  0  2  0  0  0  0  0  0
  183.6530  179.4140  143.2910 O   0  0  0  0  0  0  0  0  0  0  0  0
  182.7210  178.6220  142.7910 O   0  0  0  0  0  0  0  0  0  0  0  0
  181.8860  178.4700  140.4500 C   0  0  2  0  0  0  0  0  0  0  0  0
  183.5510  178.9800  138.6760 N   0  0  0  0  0  2  0  0  0  0  0  0
  180.9450  177.4950  140.7860 O   0  0  0  0  0  1  0  0  0  0  0  0
  184.3530  179.0490  140.9890 C   0  0  0  0  0  2  0  0  0  0  0  0
  182.3870  178.1620  139.0290 C   0  0  0  0  0  2  0  0  0  0  0  0
  183.0630  178.3600  141.4470 C   0  0  1  0  0  3  0  0  0  0  0  0
  184.6630  178.6260  139.5570 C   0  0  0  0  0  2  0  0  0  0  0  0
  181.2420  179.7250  140.4940 O   0  0  0  0  0  0  0  0  0  0  0  0
  180.4100  179.8150  139.4620 F   0  0  0  0  0  0  0  0  0  0  0  0
  1  3  1  0  0  0  0
  1  2  1  0  0  0  0
  2  6  2  0  0  0  0
  3  7  1  6  0  0  0
  3  4  1  0  0  0  0
  4 17  1  0  0  0  0
  4  5  2  0  0  0  0
  6  5  1  0  0  0  0
  8  7  1  0  0  0  0
  9 16  2  0  0  0  0
 10  8  1  0  0  0  0
 12 11  1  6  0  0  0
 12 14  1  0  0  0  0
 12 13  1  0  0  0  0
 13  8  2  0  0  0  0
 14 16  1  6  0  0  0
 14 10  1  0  0  0  0
 15  9  1  0  0  0  0
 15 11  2  0  0  0  0
 18 17  1  0  0  0  0
 19 18  1  0  0  0  0
 20 19  1  0  0  0  0
 21  2  1  0  0  0  0
 22 21  1  0  0  0  0
 23 22  1  0  0  0  0
 24 31  1  0  0  0  0
 24 26  1  1  0  0  0
 24 29  1  0  0  0  0
 25 28  1  0  0  0  0
 25 30  1  0  0  0  0
 27 29  1  0  0  0  0
 28 24  1  0  0  0  0
 29 23  1  1  0  0  0
 30 27  1  0  0  0  0
 32 31  1  0  0  0  0
M  END
>  <MODEL>
5

>  <REMARK>
 VINA RESULT:      -8.6      1.656      2.033
  Name = 
  10 active torsions:
  status: ('A' for Active; 'I' for Inactive)
    1  A    between atoms: C_2  and  C_5
    2  A    between atoms: C_2  and  C_6
    3  A    between atoms: C_3  and  O_22
    4  A    between atoms: C_4  and  C_27
    5  A    between atoms: C_13  and  C_29
    6  A    between atoms: C_14  and  C_18
    7  A    between atoms: O_16  and  C_20
    8  A    between atoms: O_16  and  O_24
    9  A    between atoms: C_18  and  C_29
   10  A    between atoms: O_24  and  C_27
                            x       y       z     vdW  Elec       q    Type
                         _______ _______ _______ _____ _____    ______ ____

>  <TORSDO>
F 10

$$$$
=
 OpenBabel11052414433D

 32 35  0  0  1  0  0  0  0  0999 V2000
  185.5210  177.9450  143.7740 C   0  0  0  0  0  2  0  0  0  0  0  0
  184.7920  178.7600  144.8050 C   0  0  0  0  0  0  0  0  0  0  0  0
  187.0340  177.8680  144.0350 C   0  0  1  0  0  3  0  0  0  0  0  0
  187.3630  177.7350  145.5080 C   0  0  0  0  0  0  0  0  0  0  0  0
  186.5480  178.2620  146.4280 C   0  0  0  0  0  3  0  0  0  0  0  0
  185.2550  178.8570  146.0520 C   0  0  0  0  0  3  0  0  0  0  0  0
  187.6120  176.7130  143.2280 C   0  0  0  0  0  2  0  0  0  0  0  0
  188.4150  177.2240  142.0820 C   0  0  0  0  0  0  0  0  0  0  0  0
  190.5990  176.9450  138.3020 C   0  0  0  0  0  3  0  0  0  0  0  0
  189.6230  176.6170  141.6380 N   0  0  0  0  0  2  0  0  0  0  0  0
  188.5810  178.2650  138.8360 C   0  0  0  0  0  3  0  0  0  0  0  0
  189.0640  178.4030  140.2570 C   0  0  1  0  0  3  0  0  0  0  0  0
  188.0040  178.2060  141.2870 C   0  0  0  0  0  3  0  0  0  0  0  0
  189.9910  177.2840  140.5990 C   0  0  2  0  0  3  0  0  0  0  0  0
  189.3360  177.6330  137.9200 C   0  0  0  0  0  3  0  0  0  0  0  0
  190.9140  176.7500  139.5910 C   0  0  0  0  0  3  0  0  0  0  0  0
  188.7110  177.2530  145.9380 C   0  0  0  0  0  2  0  0  0  0  0  0
  189.7860  178.2440  145.5330 C   0  0  0  0  0  2  0  0  0  0  0  0
  190.9280  177.5040  144.8710 C   0  0  0  0  0  2  0  0  0  0  0  0
  191.6790  178.4510  143.9590 C   0  0  0  0  0  1  0  0  0  0  0  0
  183.4650  179.3440  144.4560 C   0  0  0  0  0  2  0  0  0  0  0  0
  183.1490  179.0620  143.1230 O   0  0  0  0  0  0  0  0  0  0  0  0
  182.0060  178.4030  143.1840 O   0  0  0  0  0  0  0  0  0  0  0  0
  180.0040  179.2380  141.9610 C   0  0  2  0  0  0  0  0  0  0  0  0
  180.3830  179.8930  139.5940 N   0  0  0  0  0  2  0  0  0  0  0  0
  179.1350  178.4600  142.7290 O   0  0  0  0  0  1  0  0  0  0  0  0
  182.3130  179.0010  140.8090 C   0  0  0  0  0  2  0  0  0  0  0  0
  179.4270  179.3070  140.5370 C   0  0  0  0  0  2  0  0  0  0  0  0
  181.3770  178.5260  141.9270 C   0  0  1  0  0  3  0  0  0  0  0  0
  181.5460  179.0140  139.4900 C   0  0  0  0  0  2  0  0  0  0  0  0
  180.0620  180.5230  142.5420 O   0  0  0  0  0  0  0  0  0  0  0  0
  179.3920  180.5040  143.6880 F   0  0  0  0  0  0  0  0  0  0  0  0
  1  3  1  0  0  0  0
  1  2  1  0  0  0  0
  2  6  2  0  0  0  0
  3  7  1  6  0  0  0
  3  4  1  0  0  0  0
  4 17  1  0  0  0  0
  4  5  2  0  0  0  0
  6  5  1  0  0  0  0
  8  7  1  0  0  0  0
  9 16  2  0  0  0  0
 10  8  1  0  0  0  0
 12 11  1  6  0  0  0
 12 14  1  0  0  0  0
 12 13  1  0  0  0  0
 13  8  2  0  0  0  0
 14 16  1  6  0  0  0
 14 10  1  0  0  0  0
 15  9  1  0  0  0  0
 15 11  2  0  0  0  0
 18 17  1  0  0  0  0
 19 18  1  0  0  0  0
 20 19  1  0  0  0  0
 21  2  1  0  0  0  0
 22 23  1  0  0  0  0
 22 21  1  0  0  0  0
 24 31  1  0  0  0  0
 24 26  1  1  0  0  0
 25 28  1  0  0  0  0
 27 29  1  0  0  0  0
 28 24  1  0  0  0  0
 29 24  1  0  0  0  0
 29 23  1  1  0  0  0
 30 25  1  0  0  0  0
 30 27  1  0  0  0  0
 31 32  1  0  0  0  0
M  END
>  <MODEL>
6

>  <REMARK>
 VINA RESULT:      -8.4      1.493      1.913
  Name = 
  10 active torsions:
  status: ('A' for Active; 'I' for Inactive)
    1  A    between atoms: C_2  and  C_5
    2  A    between atoms: C_2  and  C_6
    3  A    between atoms: C_3  and  O_22
    4  A    between atoms: C_4  and  C_27
    5  A    between atoms: C_13  and  C_29
    6  A    between atoms: C_14  and  C_18
    7  A    between atoms: O_16  and  C_20
    8  A    between atoms: O_16  and  O_24
    9  A    between atoms: C_18  and  C_29
   10  A    between atoms: O_24  and  C_27
                            x       y       z     vdW  Elec       q    Type
                         _______ _______ _______ _____ _____    ______ ____

>  <TORSDO>
F 10

$$$$
=
 OpenBabel11052414433D

 32 35  0  0  1  0  0  0  0  0999 V2000
  188.4420  178.2710  141.6430 C   0  0  0  0  0  2  0  0  0  0  0  0
  189.5760  177.3100  141.8670 C   0  0  0  0  0  0  0  0  0  0  0  0
  187.1760  177.8950  142.4290 C   0  0  1  0  0  3  0  0  0  0  0  0
  187.4880  177.3680  143.8140 C   0  0  0  0  0  0  0  0  0  0  0  0
  188.6390  176.7260  144.0450 C   0  0  0  0  0  3  0  0  0  0  0  0
  189.6830  176.6350  143.0120 C   0  0  0  0  0  3  0  0  0  0  0  0
  186.2570  179.1080  142.4880 C   0  0  0  0  0  2  0  0  0  0  0  0
  185.0840  178.9200  141.5890 C   0  0  0  0  0  0  0  0  0  0  0  0
  183.0220  177.7410  137.9150 C   0  0  0  0  0  3  0  0  0  0  0  0
  185.0470  179.3780  140.2420 N   0  0  0  0  0  0  0  0  0  0  0  0
  182.7350  176.8660  140.2060 C   0  0  0  0  0  3  0  0  0  0  0  0
  183.0940  178.2230  140.7550 C   0  0  1  0  0  3  0  0  0  0  0  0
  184.0260  178.1880  141.9180 C   0  0  0  0  0  2  0  0  0  0  0  0
  183.9170  178.9790  139.7660 C   0  0  2  0  0  3  0  0  0  0  0  0
  182.6470  176.6710  138.8790 C   0  0  0  0  0  3  0  0  0  0  0  0
  183.6570  178.8480  138.3280 C   0  0  0  0  0  3  0  0  0  0  0  0
  186.4220  177.3250  144.8620 C   0  0  0  0  0  2  0  0  0  0  0  0
  186.9880  177.7180  146.2140 C   0  0  0  0  0  2  0  0  0  0  0  0
  186.0150  178.6390  146.9180 C   0  0  0  0  0  2  0  0  0  0  0  0
  184.6910  178.6280  146.1830 C   0  0  0  0  0  1  0  0  0  0  0  0
  190.6610  177.2260  140.8480 C   0  0  0  0  0  2  0  0  0  0  0  0
  190.3070  176.3220  139.8410 O   0  0  0  0  0  0  0  0  0  0  0  0
  190.1840  177.0660  138.7560 O   0  0  0  0  0  0  0  0  0  0  0  0
  188.2050  177.7800  137.4220 C   0  0  2  0  0  0  0  0  0  0  0  0
  187.3350  176.1050  135.8050 N   0  0  0  0  0  2  0  0  0  0  0  0
  187.7500  178.6240  138.4370 O   0  0  0  0  0  1  0  0  0  0  0  0
  189.2360  175.4150  137.1860 C   0  0  0  0  0  2  0  0  0  0  0  0
  186.9700  177.1880  136.7220 C   0  0  0  0  0  2  0  0  0  0  0  0
  189.0210  176.6410  138.0790 C   0  0  1  0  0  3  0  0  0  0  0  0
  187.9000  175.0000  136.5780 C   0  0  0  0  0  2  0  0  0  0  0  0
  188.9670  178.5560  136.5230 O   0  0  0  0  0  0  0  0  0  0  0  0
  189.4070  179.6370  137.1580 F   0  0  0  0  0  0  0  0  0  0  0  0
  1  2  1  0  0  0  0
  1  3  1  0  0  0  0
  2  6  2  0  0  0  0
  3  7  1  1  0  0  0
  3  4  1  0  0  0  0
  4  5  2  0  0  0  0
  4 17  1  0  0  0  0
  6  5  1  0  0  0  0
  8 13  1  0  0  0  0
  8  7  1  0  0  0  0
  9 16  2  0  0  0  0
  9 15  1  0  0  0  0
 10  8  2  0  0  0  0
 12 11  1  6  0  0  0
 12 13  1  0  0  0  0
 14 16  1  6  0  0  0
 14 10  1  0  0  0  0
 14 12  1  0  0  0  0
 15 11  2  0  0  0  0
 17 18  1  0  0  0  0
 18 19  1  0  0  0  0
 20 19  1  0  0  0  0
 21  2  1  0  0  0  0
 22 21  1  0  0  0  0
 23 22  1  0  0  0  0
 24 29  1  0  0  0  0
 24 26  1  1  0  0  0
 25 30  1  0  0  0  0
 25 28  1  0  0  0  0
 27 29  1  0  0  0  0
 28 24  1  0  0  0  0
 29 23  1  6  0  0  0
 30 27  1  0  0  0  0
 31 32  1  0  0  0  0
 31 24  1  0  0  0  0
M  END
>  <MODEL>
7

>  <REMARK>
 VINA RESULT:      -8.3      4.181      6.926
  Name = 
  10 active torsions:
  status: ('A' for Active; 'I' for Inactive)
    1  A    between atoms: C_2  and  C_5
    2  A    between atoms: C_2  and  C_6
    3  A    between atoms: C_3  and  O_22
    4  A    between atoms: C_4  and  C_27
    5  A    between atoms: C_13  and  C_29
    6  A    between atoms: C_14  and  C_18
    7  A    between atoms: O_16  and  C_20
    8  A    between atoms: O_16  and  O_24
    9  A    between atoms: C_18  and  C_29
   10  A    between atoms: O_24  and  C_27
                            x       y       z     vdW  Elec       q    Type
                         _______ _______ _______ _____ _____    ______ ____

>  <TORSDO>
F 10

$$$$
=
 OpenBabel11052414433D

 32 35  0  0  1  0  0  0  0  0999 V2000
  185.6960  177.9070  143.0060 C   0  0  0  0  0  2  0  0  0  0  0  0
  184.7090  178.9710  142.6210 C   0  0  0  0  0  0  0  0  0  0  0  0
  186.2170  178.0660  144.4430 C   0  0  1  0  0  3  0  0  0  0  0  0
  185.1340  178.5080  145.4060 C   0  0  0  0  0  0  0  0  0  0  0  0
  184.1150  179.2580  144.9720 C   0  0  0  0  0  3  0  0  0  0  0  0
  183.9410  179.5570  143.5420 C   0  0  0  0  0  3  0  0  0  0  0  0
  186.8510  176.7520  144.8830 C   0  0  0  0  0  2  0  0  0  0  0  0
  188.2620  176.6700  144.4110 C   0  0  0  0  0  0  0  0  0  0  0  0
  191.6000  177.3750  141.6730 C   0  0  0  0  0  3  0  0  0  0  0  0
  188.6290  176.2330  143.1070 N   0  0  0  0  0  0  0  0  0  0  0  0
  191.3200  178.1300  144.0080 C   0  0  0  0  0  3  0  0  0  0  0  0
  190.5160  176.8890  144.2980 C   0  0  1  0  0  3  0  0  0  0  0  0
  189.2910  177.1280  145.1140 C   0  0  0  0  0  2  0  0  0  0  0  0
  189.9100  176.3600  143.0410 C   0  0  2  0  0  3  0  0  0  0  0  0
  191.8710  178.3150  142.7950 C   0  0  0  0  0  3  0  0  0  0  0  0
  190.6400  176.4440  141.7720 C   0  0  0  0  0  3  0  0  0  0  0  0
  185.3200  178.3380  146.8800 C   0  0  0  0  0  2  0  0  0  0  0  0
  186.6360  178.9500  147.3240 C   0  0  0  0  0  2  0  0  0  0  0  0
  187.2810  178.0570  148.3620 C   0  0  0  0  0  2  0  0  0  0  0  0
  188.7810  178.2530  148.3330 C   0  0  0  0  0  1  0  0  0  0  0  0
  184.4930  179.2670  141.1750 C   0  0  0  0  0  2  0  0  0  0  0  0
  185.0330  178.2440  140.3880 O   0  0  0  0  0  0  0  0  0  0  0  0
  185.9670  178.8370  139.6670 O   0  0  0  0  0  0  0  0  0  0  0  0
  187.1200  177.9120  137.6620 C   0  0  2  0  0  0  0  0  0  0  0  0
  185.7230  176.4980  136.1720 N   0  0  0  0  0  2  0  0  0  0  0  0
  187.9990  178.9950  137.5940 O   0  0  0  0  0  1  0  0  0  0  0  0
  184.6060  177.4840  138.1160 C   0  0  0  0  0  2  0  0  0  0  0  0
  186.8200  177.4670  136.2210 C   0  0  0  0  0  2  0  0  0  0  0  0
  185.8140  178.4000  138.3330 C   0  0  1  0  0  3  0  0  0  0  0  0
  184.4960  177.1470  136.6320 C   0  0  0  0  0  2  0  0  0  0  0  0
  187.7590  176.8810  138.3840 O   0  0  0  0  0  0  0  0  0  0  0  0
  188.7210  177.4140  139.1290 F   0  0  0  0  0  0  0  0  0  0  0  0
  1  3  1  0  0  0  0
  2  1  1  0  0  0  0
  2  6  2  0  0  0  0
  3  7  1  1  0  0  0
  3  4  1  0  0  0  0
  4 17  1  0  0  0  0
  5  4  2  0  0  0  0
  6  5  1  0  0  0  0
  8  7  1  0  0  0  0
  8 13  1  0  0  0  0
  9 16  2  0  0  0  0
  9 15  1  0  0  0  0
 10  8  2  0  0  0  0
 12 11  1  6  0  0  0
 12 13  1  0  0  0  0
 14 16  1  6  0  0  0
 14 10  1  0  0  0  0
 14 12  1  0  0  0  0
 15 11  2  0  0  0  0
 17 18  1  0  0  0  0
 18 19  1  0  0  0  0
 20 19  1  0  0  0  0
 21  2  1  0  0  0  0
 22 21  1  0  0  0  0
 23 22  1  0  0  0  0
 24 26  1  6  0  0  0
 24 29  1  0  0  0  0
 24 31  1  0  0  0  0
 25 28  1  0  0  0  0
 25 30  1  0  0  0  0
 27 29  1  0  0  0  0
 28 24  1  0  0  0  0
 29 23  1  1  0  0  0
 30 27  1  0  0  0  0
 31 32  1  0  0  0  0
M  END
>  <MODEL>
8

>  <REMARK>
 VINA RESULT:      -8.1      3.668      5.468
  Name = 
  10 active torsions:
  status: ('A' for Active; 'I' for Inactive)
    1  A    between atoms: C_2  and  C_5
    2  A    between atoms: C_2  and  C_6
    3  A    between atoms: C_3  and  O_22
    4  A    between atoms: C_4  and  C_27
    5  A    between atoms: C_13  and  C_29
    6  A    between atoms: C_14  and  C_18
    7  A    between atoms: O_16  and  C_20
    8  A    between atoms: O_16  and  O_24
    9  A    between atoms: C_18  and  C_29
   10  A    between atoms: O_24  and  C_27
                            x       y       z     vdW  Elec       q    Type
                         _______ _______ _______ _____ _____    ______ ____

>  <TORSDO>
F 10

$$$$
=
 OpenBabel11052414433D

 32 35  0  0  1  0  0  0  0  0999 V2000
  187.9920  177.5260  143.2340 C   0  0  0  0  0  2  0  0  0  0  0  0
  189.2910  177.8440  142.5500 C   0  0  0  0  0  0  0  0  0  0  0  0
  188.1780  177.0780  144.6920 C   0  0  1  0  0  3  0  0  0  0  0  0
  189.2610  177.8620  145.4050 C   0  0  0  0  0  0  0  0  0  0  0  0
  190.2950  178.3580  144.7160 C   0  0  0  0  0  3  0  0  0  0  0  0
  190.3410  178.2810  143.2470 C   0  0  0  0  0  3  0  0  0  0  0  0
  186.8410  177.1910  145.4140 C   0  0  0  0  0  2  0  0  0  0  0  0
  185.8780  177.9930  144.6090 C   0  0  0  0  0  0  0  0  0  0  0  0
  182.5300  178.6280  141.8650 C   0  0  0  0  0  3  0  0  0  0  0  0
  185.6260  177.7600  143.2280 N   0  0  0  0  0  0  0  0  0  0  0  0
  182.7610  179.3290  144.2220 C   0  0  0  0  0  3  0  0  0  0  0  0
  184.2500  179.4580  144.0230 C   0  0  1  0  0  3  0  0  0  0  0  0
  185.0690  178.9030  145.1390 C   0  0  0  0  0  2  0  0  0  0  0  0
  184.6980  178.5900  142.8950 C   0  0  2  0  0  3  0  0  0  0  0  0
  181.9640  178.9980  143.1910 C   0  0  0  0  0  3  0  0  0  0  0  0
  183.8440  178.4050  141.7160 C   0  0  0  0  0  3  0  0  0  0  0  0
  189.3280  177.8670  146.8990 C   0  0  0  0  0  2  0  0  0  0  0  0
  189.9030  176.5590  147.4110 C   0  0  0  0  0  2  0  0  0  0  0  0
  191.3740  176.7420  147.7170 C   0  0  0  0  0  2  0  0  0  0  0  0
  192.1720  175.6640  147.0150 C   0  0  0  0  0  1  0  0  0  0  0  0
  189.3520  177.8040  141.0600 C   0  0  0  0  0  2  0  0  0  0  0  0
  188.2860  178.5280  140.5150 O   0  0  0  0  0  0  0  0  0  0  0  0
  188.5780  178.6340  139.2310 O   0  0  0  0  0  0  0  0  0  0  0  0
  186.6480  178.2780  137.6970 C   0  0  2  0  0  0  0  0  0  0  0  0
  186.7830  176.2650  136.2450 N   0  0  0  0  0  2  0  0  0  0  0  0
  185.7610  178.9090  138.5700 O   0  0  0  0  0  1  0  0  0  0  0  0
  188.6280  176.6110  137.8180 C   0  0  0  0  0  2  0  0  0  0  0  0
  185.8820  177.1420  136.9980 C   0  0  0  0  0  2  0  0  0  0  0  0
  187.8010  177.6800  138.5390 C   0  0  1  0  0  3  0  0  0  0  0  0
  187.6850  175.5960  137.1820 C   0  0  0  0  0  2  0  0  0  0  0  0
  187.0890  179.2370  136.7600 O   0  0  0  0  0  0  0  0  0  0  0  0
  187.3460  178.6230  135.6100 F   0  0  0  0  0  0  0  0  0  0  0  0
  1  3  1  0  0  0  0
  2  1  1  0  0  0  0
  2  6  2  0  0  0  0
  3  4  1  0  0  0  0
  3  7  1  1  0  0  0
  4 17  1  0  0  0  0
  5  4  2  0  0  0  0
  6  5  1  0  0  0  0
  8 13  1  0  0  0  0
  8  7  1  0  0  0  0
  9 15  1  0  0  0  0
 10  8  2  0  0  0  0
 12 11  1  1  0  0  0
 12 13  1  0  0  0  0
 14 16  1  1  0  0  0
 14 10  1  0  0  0  0
 14 12  1  0  0  0  0
 15 11  2  0  0  0  0
 16  9  2  0  0  0  0
 17 18  1  0  0  0  0
 18 19  1  0  0  0  0
 20 19  1  0  0  0  0
 21  2  1  0  0  0  0
 22 21  1  0  0  0  0
 23 22  1  0  0  0  0
 24 29  1  0  0  0  0
 24 26  1  1  0  0  0
 25 28  1  0  0  0  0
 25 30  1  0  0  0  0
 27 29  1  0  0  0  0
 28 24  1  0  0  0  0
 29 23  1  6  0  0  0
 30 27  1  0  0  0  0
 31 24  1  0  0  0  0
 32 31  1  0  0  0  0
M  END
>  <MODEL>
9

>  <REMARK>
 VINA RESULT:      -8.0      3.636      6.059
  Name = 
  10 active torsions:
  status: ('A' for Active; 'I' for Inactive)
    1  A    between atoms: C_2  and  C_5
    2  A    between atoms: C_2  and  C_6
    3  A    between atoms: C_3  and  O_22
    4  A    between atoms: C_4  and  C_27
    5  A    between atoms: C_13  and  C_29
    6  A    between atoms: C_14  and  C_18
    7  A    between atoms: O_16  and  C_20
    8  A    between atoms: O_16  and  O_24
    9  A    between atoms: C_18  and  C_29
   10  A    between atoms: O_24  and  C_27
                            x       y       z     vdW  Elec       q    Type
                         _______ _______ _______ _____ _____    ______ ____

>  <TORSDO>
F 10

$$$$
