=
 OpenBabel11052413443D

 27 31  0  0  1  0  0  0  0  0999 V2000
  187.2650  176.2080  143.6460 C   0  0  0  0  0  2  0  0  0  0  0  0
  186.7410  178.2100  142.3530 C   0  0  2  0  0  3  0  0  0  0  0  0
  185.0930  178.1340  144.1310 N   0  0  0  0  0  2  0  0  0  0  0  0
  183.5510  179.3890  140.0720 N   0  0  0  0  0  0  0  0  0  0  0  0
  181.1540  179.3720  140.5750 C   0  0  0  0  0  1  0  0  0  0  0  0
  186.9710  178.8070  141.0820 C   0  0  0  0  0  3  0  0  0  0  0  0
  183.0140  178.5860  142.0520 C   0  0  0  0  0  0  0  0  0  0  0  0
  186.1020  179.7200  147.3280 C   0  0  0  0  0  3  0  0  0  0  0  0
  182.1710  178.1940  143.2210 C   0  0  0  0  0  1  0  0  0  0  0  0
  187.1200  178.8910  147.7910 C   0  0  0  0  0  3  0  0  0  0  0  0
  184.3880  178.4980  141.9510 C   0  0  0  0  0  0  0  0  0  0  0  0
  187.7050  177.4270  142.8840 C   0  0  2  0  0  3  0  0  0  0  0  0
  182.5470  179.1050  140.8930 N   0  0  0  0  0  0  0  0  0  0  0  0
  184.6700  179.0160  140.7180 C   0  0  0  0  0  0  0  0  0  0  0  0
  187.4570  176.4140  145.0630 N   0  0  0  0  0  2  0  0  0  0  0  0
  185.4040  178.1920  142.8610 C   0  0  1  0  0  3  0  0  0  0  0  0
  185.4930  179.4520  146.1020 C   0  0  0  0  0  3  0  0  0  0  0  0
  185.9380  179.2240  140.2940 N   0  0  0  0  0  0  0  0  0  0  0  0
  187.5280  177.8000  147.0240 C   0  0  0  0  0  3  0  0  0  0  0  0
  186.9360  177.5270  145.7860 C   0  0  0  0  0  0  0  0  0  0  0  0
  185.8990  178.3730  145.3030 C   0  0  0  0  0  0  0  0  0  0  0  0
  191.8930  177.7280  141.9470 C   0  0  0  0  0  3  0  0  0  0  0  0
  189.1510  177.5630  142.5480 C   0  0  0  0  0  0  0  0  0  0  0  0
  190.0400  178.2010  143.4310 C   0  0  0  0  0  3  0  0  0  0  0  0
  191.4010  178.2890  143.1300 C   0  0  0  0  0  3  0  0  0  0  0  0
  191.0240  177.0770  141.0690 C   0  0  0  0  0  3  0  0  0  0  0  0
  189.6620  176.9910  141.3700 C   0  0  0  0  0  3  0  0  0  0  0  0
  1 15  1  0  0  0  0
  2  6  1  6  0  0  0
  2 16  1  0  0  0  0
  2 12  1  0  0  0  0
  3 21  1  0  0  0  0
  4 14  2  0  0  0  0
  4 13  1  0  0  0  0
  5 13  1  0  0  0  0
  7  9  1  0  0  0  0
  8 10  1  0  0  0  0
 11  7  2  0  0  0  0
 12 23  1  6  0  0  0
 12  1  1  0  0  0  0
 13  7  1  0  0  0  0
 14 11  1  0  0  0  0
 15 20  1  0  0  0  0
 16 11  1  1  0  0  0
 16  3  1  0  0  0  0
 17  8  2  0  0  0  0
 18 14  1  0  0  0  0
 18  6  2  0  0  0  0
 19 10  2  0  0  0  0
 20 19  1  0  0  0  0
 21 20  2  0  0  0  0
 21 17  1  0  0  0  0
 22 25  1  0  0  0  0
 23 24  1  0  0  0  0
 25 24  2  0  0  0  0
 26 27  1  0  0  0  0
 26 22  2  0  0  0  0
 27 23  2  0  0  0  0
M  END
>  <MODEL>
1

>  <REMARK>
 VINA RESULT:      -7.7      0.000      0.000
  Name = 
  1 active torsions:
  status: ('A' for Active; 'I' for Inactive)
    1  A    between atoms: C_9  and  C_15
                            x       y       z     vdW  Elec       q    Type
                         _______ _______ _______ _____ _____    ______ ____

>  <TORSDO>
F 1

$$$$
=
 OpenBabel11052413443D

 27 31  0  0  1  0  0  0  0  0999 V2000
  190.1160  178.9420  144.2700 C   0  0  0  0  0  2  0  0  0  0  0  0
  189.2300  177.4340  142.5680 C   0  0  2  0  0  3  0  0  0  0  0  0
  191.5820  176.8770  142.7730 N   0  0  0  0  0  2  0  0  0  0  0  0
  189.9270  176.9110  138.5670 N   0  0  0  0  0  0  0  0  0  0  0  0
  192.0370  176.6710  137.3470 C   0  0  0  0  0  1  0  0  0  0  0  0
  188.1300  177.2810  141.6800 C   0  0  0  0  0  3  0  0  0  0  0  0
  191.7450  177.0230  139.8060 C   0  0  0  0  0  0  0  0  0  0  0  0
  192.4250  174.4010  145.4030 C   0  0  0  0  0  3  0  0  0  0  0  0
  193.1930  176.9900  140.1720 C   0  0  0  0  0  1  0  0  0  0  0  0
  192.1480  175.0810  146.5850 C   0  0  0  0  0  3  0  0  0  0  0  0
  190.6750  177.1940  140.6610 C   0  0  0  0  0  0  0  0  0  0  0  0
  189.0240  178.0470  143.7540 C   0  0  2  0  0  3  0  0  0  0  0  0
  191.2550  176.8790  138.5530 N   0  0  0  0  0  0  0  0  0  0  0  0
  189.5770  177.1050  139.8510 C   0  0  0  0  0  0  0  0  0  0  0  0
  190.7990  178.3070  145.3720 N   0  0  0  0  0  2  0  0  0  0  0  0
  190.5500  177.2360  142.0530 C   0  0  1  0  0  3  0  0  0  0  0  0
  192.1870  175.0190  144.1750 C   0  0  0  0  0  3  0  0  0  0  0  0
  188.3160  177.0940  140.3410 N   0  0  0  0  0  0  0  0  0  0  0  0
  191.6280  176.3740  146.5350 C   0  0  0  0  0  3  0  0  0  0  0  0
  191.3700  177.0020  145.3110 C   0  0  0  0  0  0  0  0  0  0  0  0
  191.6460  176.3110  144.0980 C   0  0  0  0  0  0  0  0  0  0  0  0
  185.2130  178.2470  145.7420 C   0  0  0  0  0  3  0  0  0  0  0  0
  187.7010  178.0820  144.4400 C   0  0  0  0  0  0  0  0  0  0  0  0
  187.5930  177.8110  145.8150 C   0  0  0  0  0  3  0  0  0  0  0  0
  186.3570  177.8860  146.4610 C   0  0  0  0  0  3  0  0  0  0  0  0
  185.3090  178.5360  144.3790 C   0  0  0  0  0  3  0  0  0  0  0  0
  186.5450  178.4590  143.7330 C   0  0  0  0  0  3  0  0  0  0  0  0
  1 15  1  0  0  0  0
  2  6  1  6  0  0  0
  2 12  1  0  0  0  0
  3 21  1  0  0  0  0
  4 14  2  0  0  0  0
  5 13  1  0  0  0  0
  7  9  1  0  0  0  0
  7 11  2  0  0  0  0
  8 10  1  0  0  0  0
 12  1  1  0  0  0  0
 12 23  1  6  0  0  0
 13  4  1  0  0  0  0
 13  7  1  0  0  0  0
 14 18  1  0  0  0  0
 14 11  1  0  0  0  0
 16 11  1  6  0  0  0
 16  2  1  0  0  0  0
 16  3  1  0  0  0  0
 17  8  2  0  0  0  0
 18  6  2  0  0  0  0
 19 10  2  0  0  0  0
 20 15  1  0  0  0  0
 20 19  1  0  0  0  0
 21 17  1  0  0  0  0
 21 20  2  0  0  0  0
 22 25  1  0  0  0  0
 23 24  1  0  0  0  0
 24 25  2  0  0  0  0
 26 22  2  0  0  0  0
 27 26  1  0  0  0  0
 27 23  2  0  0  0  0
M  END
>  <MODEL>
2

>  <REMARK>
 VINA RESULT:      -7.5      2.920      6.451
  Name = 
  1 active torsions:
  status: ('A' for Active; 'I' for Inactive)
    1  A    between atoms: C_9  and  C_15
                            x       y       z     vdW  Elec       q    Type
                         _______ _______ _______ _____ _____    ______ ____

>  <TORSDO>
F 1

$$$$
=
 OpenBabel11052413443D

 27 31  0  0  1  0  0  0  0  0999 V2000
  190.5290  179.1130  144.2750 C   0  0  0  0  0  2  0  0  0  0  0  0
  188.6950  177.5580  144.6910 C   0  0  2  0  0  3  0  0  0  0  0  0
  188.4090  178.3060  142.4010 N   0  0  0  0  0  2  0  0  0  0  0  0
  184.6180  177.9160  144.8320 N   0  0  0  0  0  0  0  0  0  0  0  0
  183.0660  178.9570  143.2490 C   0  0  0  0  0  1  0  0  0  0  0  0
  187.9740  176.9460  145.7530 C   0  0  0  0  0  3  0  0  0  0  0  0
  185.5570  178.8350  143.0640 C   0  0  0  0  0  0  0  0  0  0  0  0
  190.2710  176.3790  139.8370 C   0  0  0  0  0  3  0  0  0  0  0  0
  185.6800  179.5300  141.7470 C   0  0  0  0  0  1  0  0  0  0  0  0
  191.6020  176.6790  140.1140 C   0  0  0  0  0  3  0  0  0  0  0  0
  186.5830  178.3230  143.8330 C   0  0  0  0  0  0  0  0  0  0  0  0
  190.0040  177.8380  144.8750 C   0  0  2  0  0  3  0  0  0  0  0  0
  184.3940  178.5900  143.7100 N   0  0  0  0  0  0  0  0  0  0  0  0
  185.9510  177.7570  144.9050 C   0  0  0  0  0  0  0  0  0  0  0  0
  191.3470  178.8180  143.1220 N   0  0  0  0  0  2  0  0  0  0  0  0
  187.9520  178.1420  143.6170 C   0  0  1  0  0  3  0  0  0  0  0  0
  189.2600  176.9060  140.6410 C   0  0  0  0  0  3  0  0  0  0  0  0
  186.6140  177.0300  145.8340 N   0  0  0  0  0  0  0  0  0  0  0  0
  191.9170  177.5000  141.1960 C   0  0  0  0  0  3  0  0  0  0  0  0
  190.9140  178.0260  142.0190 C   0  0  0  0  0  0  0  0  0  0  0  0
  189.5520  177.7200  141.7460 C   0  0  0  0  0  0  0  0  0  0  0  0
  192.4510  175.6280  147.6370 C   0  0  0  0  0  3  0  0  0  0  0  0
  190.8750  177.0970  145.8300 C   0  0  0  0  0  0  0  0  0  0  0  0
  190.8930  177.4270  147.1960 C   0  0  0  0  0  3  0  0  0  0  0  0
  191.6800  176.7020  148.0930 C   0  0  0  0  0  3  0  0  0  0  0  0
  192.4300  175.2790  146.2850 C   0  0  0  0  0  3  0  0  0  0  0  0
  191.6440  176.0050  145.3880 C   0  0  0  0  0  3  0  0  0  0  0  0
  1 12  1  0  0  0  0
  2 12  1  0  0  0  0
  2  6  1  1  0  0  0
  4 14  2  0  0  0  0
  5 13  1  0  0  0  0
  6 18  2  0  0  0  0
  7 13  1  0  0  0  0
  7 11  2  0  0  0  0
  8 10  2  0  0  0  0
  8 17  1  0  0  0  0
  9  7  1  0  0  0  0
 10 19  1  0  0  0  0
 11 14  1  0  0  0  0
 12 23  1  1  0  0  0
 13  4  1  0  0  0  0
 14 18  1  0  0  0  0
 15  1  1  0  0  0  0
 16  3  1  6  0  0  0
 16 11  1  0  0  0  0
 16  2  1  0  0  0  0
 17 21  2  0  0  0  0
 19 20  2  0  0  0  0
 20 15  1  0  0  0  0
 21 20  1  0  0  0  0
 21  3  1  0  0  0  0
 22 25  1  0  0  0  0
 23 24  1  0  0  0  0
 24 25  2  0  0  0  0
 26 22  2  0  0  0  0
 27 23  2  0  0  0  0
 27 26  1  0  0  0  0
M  END
>  <MODEL>
3

>  <REMARK>
 VINA RESULT:      -7.4      2.445      5.180
  Name = 
  1 active torsions:
  status: ('A' for Active; 'I' for Inactive)
    1  A    between atoms: C_9  and  C_15
                            x       y       z     vdW  Elec       q    Type
                         _______ _______ _______ _____ _____    ______ ____

>  <TORSDO>
F 1

$$$$
=
 OpenBabel11052413443D

 27 31  0  0  1  0  0  0  0  0999 V2000
  189.8500  179.2070  143.2200 C   0  0  0  0  0  2  0  0  0  0  0  0
  189.4090  177.4800  141.5530 C   0  0  2  0  0  3  0  0  0  0  0  0
  191.6850  177.1000  142.2990 N   0  0  0  0  0  2  0  0  0  0  0  0
  190.9580  176.6030  137.8660 N   0  0  0  0  0  0  0  0  0  0  0  0
  193.2860  176.3780  137.1410 C   0  0  0  0  0  1  0  0  0  0  0  0
  188.5290  177.1680  140.4800 C   0  0  0  0  0  3  0  0  0  0  0  0
  192.4660  176.9570  139.4310 C   0  0  0  0  0  0  0  0  0  0  0  0
  192.0550  174.9620  145.3060 C   0  0  0  0  0  3  0  0  0  0  0  0
  193.8040  177.0540  140.0890 C   0  0  0  0  0  1  0  0  0  0  0  0
  191.5060  175.7380  146.3220 C   0  0  0  0  0  3  0  0  0  0  0  0
  191.2330  177.1440  140.0240 C   0  0  0  0  0  0  0  0  0  0  0  0
  188.9300  178.1950  142.5950 C   0  0  2  0  0  3  0  0  0  0  0  0
  192.2580  176.6560  138.1290 N   0  0  0  0  0  0  0  0  0  0  0  0
  190.3360  176.9030  139.0200 C   0  0  0  0  0  0  0  0  0  0  0  0
  190.3100  178.7310  144.5040 N   0  0  0  0  0  2  0  0  0  0  0  0
  190.8140  177.3180  141.3460 C   0  0  1  0  0  3  0  0  0  0  0  0
  192.0560  175.4360  143.9940 C   0  0  0  0  0  3  0  0  0  0  0  0
  189.0020  176.8590  139.2370 N   0  0  0  0  0  0  0  0  0  0  0  0
  190.9540  176.9840  146.0220 C   0  0  0  0  0  3  0  0  0  0  0  0
  190.9350  177.4670  144.7080 C   0  0  0  0  0  0  0  0  0  0  0  0
  191.4910  176.6760  143.6640 C   0  0  0  0  0  0  0  0  0  0  0  0
  184.7860  178.3470  143.7410 C   0  0  0  0  0  3  0  0  0  0  0  0
  187.4920  178.2140  142.9850 C   0  0  0  0  0  0  0  0  0  0  0  0
  187.0880  177.8180  144.2720 C   0  0  0  0  0  3  0  0  0  0  0  0
  185.7430  177.8780  144.6460 C   0  0  0  0  0  3  0  0  0  0  0  0
  185.1750  178.7600  142.4650 C   0  0  0  0  0  3  0  0  0  0  0  0
  186.5200  178.6990  142.0910 C   0  0  0  0  0  3  0  0  0  0  0  0
  1 15  1  0  0  0  0
  2  6  1  6  0  0  0
  2 12  1  0  0  0  0
  3 21  1  0  0  0  0
  4 13  1  0  0  0  0
  4 14  2  0  0  0  0
  5 13  1  0  0  0  0
  7 11  2  0  0  0  0
  7  9  1  0  0  0  0
  8 10  1  0  0  0  0
 12 23  1  6  0  0  0
 12  1  1  0  0  0  0
 13  7  1  0  0  0  0
 14 18  1  0  0  0  0
 14 11  1  0  0  0  0
 15 20  1  0  0  0  0
 16 11  1  6  0  0  0
 16  2  1  0  0  0  0
 16  3  1  0  0  0  0
 17  8  2  0  0  0  0
 18  6  2  0  0  0  0
 19 10  2  0  0  0  0
 20 19  1  0  0  0  0
 21 17  1  0  0  0  0
 21 20  2  0  0  0  0
 22 25  1  0  0  0  0
 23 24  1  0  0  0  0
 24 25  2  0  0  0  0
 26 22  2  0  0  0  0
 27 26  1  0  0  0  0
 27 23  2  0  0  0  0
M  END
>  <MODEL>
4

>  <REMARK>
 VINA RESULT:      -7.3      3.051      6.669
  Name = 
  1 active torsions:
  status: ('A' for Active; 'I' for Inactive)
    1  A    between atoms: C_9  and  C_15
                            x       y       z     vdW  Elec       q    Type
                         _______ _______ _______ _____ _____    ______ ____

>  <TORSDO>
F 1

$$$$
=
 OpenBabel11052413443D

 27 31  0  0  1  0  0  0  0  0999 V2000
  189.3820  179.0930  138.4220 C   0  0  0  0  0  2  0  0  0  0  0  0
  188.8800  177.3500  140.0550 C   0  0  2  0  0  3  0  0  0  0  0  0
  186.7480  178.3780  139.5210 N   0  0  0  0  0  2  0  0  0  0  0  0
  187.4020  177.3490  143.8740 N   0  0  0  0  0  0  0  0  0  0  0  0
  185.4320  178.4650  144.8080 C   0  0  0  0  0  1  0  0  0  0  0  0
  189.5000  176.5410  141.0460 C   0  0  0  0  0  3  0  0  0  0  0  0
  186.2540  178.5750  142.4480 C   0  0  0  0  0  0  0  0  0  0  0  0
  184.9830  176.9800  136.5750 C   0  0  0  0  0  3  0  0  0  0  0  0
  185.1680  179.4510  141.9140 C   0  0  0  0  0  1  0  0  0  0  0  0
  185.7970  177.3470  135.5080 C   0  0  0  0  0  3  0  0  0  0  0  0
  187.3200  178.0490  141.7460 C   0  0  0  0  0  0  0  0  0  0  0  0
  189.5990  177.7100  138.9690 C   0  0  2  0  0  3  0  0  0  0  0  0
  186.3520  178.1490  143.7290 N   0  0  0  0  0  0  0  0  0  0  0  0
  187.9900  177.2920  142.6660 C   0  0  0  0  0  0  0  0  0  0  0  0
  188.6340  179.0270  137.1890 N   0  0  0  0  0  2  0  0  0  0  0  0
  187.6570  178.0130  140.3900 C   0  0  1  0  0  3  0  0  0  0  0  0
  185.3570  177.3070  137.8780 C   0  0  0  0  0  3  0  0  0  0  0  0
  189.0350  176.5010  142.3280 N   0  0  0  0  0  0  0  0  0  0  0  0
  186.9860  178.0360  135.7480 C   0  0  0  0  0  3  0  0  0  0  0  0
  187.3810  178.3600  137.0510 C   0  0  0  0  0  0  0  0  0  0  0  0
  186.5560  177.9830  138.1470 C   0  0  0  0  0  0  0  0  0  0  0  0
  192.9040  175.3580  137.5370 C   0  0  0  0  0  3  0  0  0  0  0  0
  190.7510  176.9190  138.4500 C   0  0  0  0  0  0  0  0  0  0  0  0
  192.0640  177.2000  138.8640 C   0  0  0  0  0  3  0  0  0  0  0  0
  193.1350  176.4290  138.4060 C   0  0  0  0  0  3  0  0  0  0  0  0
  191.6030  175.0570  137.1300 C   0  0  0  0  0  3  0  0  0  0  0  0
  190.5320  175.8300  137.5880 C   0  0  0  0  0  3  0  0  0  0  0  0
  1 12  1  0  0  0  0
  2 16  1  0  0  0  0
  2  6  1  1  0  0  0
  6 18  2  0  0  0  0
  7 13  1  0  0  0  0
  8 17  1  0  0  0  0
  9  7  1  0  0  0  0
 10 19  1  0  0  0  0
 10  8  2  0  0  0  0
 11  7  2  0  0  0  0
 11 14  1  0  0  0  0
 12 23  1  1  0  0  0
 12  2  1  0  0  0  0
 13  4  1  0  0  0  0
 13  5  1  0  0  0  0
 14  4  2  0  0  0  0
 15  1  1  0  0  0  0
 16  3  1  6  0  0  0
 16 11  1  0  0  0  0
 17 21  2  0  0  0  0
 18 14  1  0  0  0  0
 19 20  2  0  0  0  0
 20 15  1  0  0  0  0
 20 21  1  0  0  0  0
 21  3  1  0  0  0  0
 22 25  1  0  0  0  0
 23 24  1  0  0  0  0
 25 24  2  0  0  0  0
 26 22  2  0  0  0  0
 26 27  1  0  0  0  0
 27 23  2  0  0  0  0
M  END
>  <MODEL>
5

>  <REMARK>
 VINA RESULT:      -7.1      3.083      6.372
  Name = 
  1 active torsions:
  status: ('A' for Active; 'I' for Inactive)
    1  A    between atoms: C_9  and  C_15
                            x       y       z     vdW  Elec       q    Type
                         _______ _______ _______ _____ _____    ______ ____

>  <TORSDO>
F 1

$$$$
=
 OpenBabel11052413443D

 27 31  0  0  1  0  0  0  0  0999 V2000
  187.9740  175.7620  143.5670 C   0  0  0  0  0  2  0  0  0  0  0  0
  189.5040  177.3090  142.4640 C   0  0  2  0  0  3  0  0  0  0  0  0
  187.3460  177.6710  141.4180 N   0  0  0  0  0  2  0  0  0  0  0  0
  190.9100  177.7010  138.6380 N   0  0  0  0  0  0  0  0  0  0  0  0
  189.7040  177.7420  136.5060 C   0  0  0  0  0  1  0  0  0  0  0  0
  190.8910  177.5380  142.2470 C   0  0  0  0  0  3  0  0  0  0  0  0
  188.7260  177.4590  138.7910 C   0  0  0  0  0  0  0  0  0  0  0  0
  185.1280  180.1130  143.1120 C   0  0  0  0  0  3  0  0  0  0  0  0
  187.2940  177.3780  138.3710 C   0  0  0  0  0  1  0  0  0  0  0  0
  184.8070  179.4790  144.3090 C   0  0  0  0  0  3  0  0  0  0  0  0
  189.2200  177.3930  140.0780 C   0  0  0  0  0  0  0  0  0  0  0  0
  189.1170  176.7360  143.6250 C   0  0  2  0  0  3  0  0  0  0  0  0
  189.7750  177.6210  137.9530 N   0  0  0  0  0  0  0  0  0  0  0  0
  190.5690  177.5590  139.9310 C   0  0  0  0  0  0  0  0  0  0  0  0
  186.7860  176.3570  144.1340 N   0  0  0  0  0  2  0  0  0  0  0  0
  188.6220  177.3860  141.3410 C   0  0  1  0  0  3  0  0  0  0  0  0
  185.9970  179.4960  142.2120 C   0  0  0  0  0  3  0  0  0  0  0  0
  191.4020  177.6850  140.9900 N   0  0  0  0  0  0  0  0  0  0  0  0
  185.3610  178.2340  144.6050 C   0  0  0  0  0  3  0  0  0  0  0  0
  186.2440  177.6080  143.7170 C   0  0  0  0  0  0  0  0  0  0  0  0
  186.5810  178.2520  142.4940 C   0  0  0  0  0  0  0  0  0  0  0  0
  191.3700  176.8950  147.2870 C   0  0  0  0  0  3  0  0  0  0  0  0
  189.9060  176.8240  144.8860 C   0  0  0  0  0  0  0  0  0  0  0  0
  189.3530  177.3960  146.0450 C   0  0  0  0  0  3  0  0  0  0  0  0
  190.0820  177.4370  147.2360 C   0  0  0  0  0  3  0  0  0  0  0  0
  191.9250  176.3080  146.1480 C   0  0  0  0  0  3  0  0  0  0  0  0
  191.1960  176.2680  144.9560 C   0  0  0  0  0  3  0  0  0  0  0  0
  1 12  1  0  0  0  0
  1 15  1  0  0  0  0
  2  6  1  6  0  0  0
  2 12  1  0  0  0  0
  3 21  1  0  0  0  0
  4 14  2  0  0  0  0
  5 13  1  0  0  0  0
  7 11  2  0  0  0  0
  8 10  1  0  0  0  0
  9  7  1  0  0  0  0
 10 19  2  0  0  0  0
 12 23  1  6  0  0  0
 13  4  1  0  0  0  0
 13  7  1  0  0  0  0
 14 11  1  0  0  0  0
 14 18  1  0  0  0  0
 16 11  1  6  0  0  0
 16  3  1  0  0  0  0
 16  2  1  0  0  0  0
 17 21  1  0  0  0  0
 17  8  2  0  0  0  0
 18  6  2  0  0  0  0
 20 15  1  0  0  0  0
 20 19  1  0  0  0  0
 21 20  2  0  0  0  0
 23 27  2  0  0  0  0
 23 24  1  0  0  0  0
 24 25  2  0  0  0  0
 25 22  1  0  0  0  0
 26 22  2  0  0  0  0
 27 26  1  0  0  0  0
M  END
>  <MODEL>
6

>  <REMARK>
 VINA RESULT:      -7.0      2.755      4.898
  Name = 
  1 active torsions:
  status: ('A' for Active; 'I' for Inactive)
    1  A    between atoms: C_9  and  C_15
                            x       y       z     vdW  Elec       q    Type
                         _______ _______ _______ _____ _____    ______ ____

>  <TORSDO>
F 1

$$$$
=
 OpenBabel11052413443D

 27 31  0  0  1  0  0  0  0  0999 V2000
  187.9270  175.9980  144.1750 C   0  0  0  0  0  2  0  0  0  0  0  0
  189.6980  177.5390  143.5090 C   0  0  2  0  0  3  0  0  0  0  0  0
  188.2030  177.4020  141.6040 N   0  0  0  0  0  2  0  0  0  0  0  0
  192.6180  177.4690  140.6380 N   0  0  0  0  0  0  0  0  0  0  0  0
  192.4710  176.9710  138.2440 C   0  0  0  0  0  1  0  0  0  0  0  0
  191.0240  177.9240  143.8490 C   0  0  0  0  0  3  0  0  0  0  0  0
  190.6060  176.9450  139.9110 C   0  0  0  0  0  0  0  0  0  0  0  0
  185.3340  179.7530  141.6400 C   0  0  0  0  0  3  0  0  0  0  0  0
  189.5110  176.5880  138.9580 C   0  0  0  0  0  1  0  0  0  0  0  0
  184.5560  179.2930  142.6990 C   0  0  0  0  0  3  0  0  0  0  0  0
  190.4870  177.1720  141.2670 C   0  0  0  0  0  0  0  0  0  0  0  0
  188.8730  177.1230  144.4940 C   0  0  2  0  0  3  0  0  0  0  0  0
  191.9060  177.1110  139.5760 N   0  0  0  0  0  0  0  0  0  0  0  0
  191.7520  177.5030  141.6660 C   0  0  0  0  0  0  0  0  0  0  0  0
  186.5800  176.5050  144.0490 N   0  0  0  0  0  2  0  0  0  0  0  0
  189.3960  177.2950  142.1320 C   0  0  1  0  0  3  0  0  0  0  0  0
  186.5430  179.1220  141.3440 C   0  0  0  0  0  3  0  0  0  0  0  0
  192.0260  177.9260  142.9220 N   0  0  0  0  0  0  0  0  0  0  0  0
  184.9910  178.2090  143.4610 C   0  0  0  0  0  3  0  0  0  0  0  0
  186.2080  177.5750  143.1830 C   0  0  0  0  0  0  0  0  0  0  0  0
  187.0120  178.0420  142.1060 C   0  0  0  0  0  0  0  0  0  0  0  0
  189.2710  178.2280  148.6330 C   0  0  0  0  0  3  0  0  0  0  0  0
  189.0210  177.5370  145.9180 C   0  0  0  0  0  0  0  0  0  0  0  0
  188.0020  178.2520  146.5710 C   0  0  0  0  0  3  0  0  0  0  0  0
  188.1290  178.6010  147.9180 C   0  0  0  0  0  3  0  0  0  0  0  0
  190.2840  177.5030  148.0010 C   0  0  0  0  0  3  0  0  0  0  0  0
  190.1570  177.1550  146.6530 C   0  0  0  0  0  3  0  0  0  0  0  0
  1 12  1  0  0  0  0
  2  6  1  1  0  0  0
  2 12  1  0  0  0  0
  3 21  1  0  0  0  0
  3 16  1  0  0  0  0
  4 14  2  0  0  0  0
  5 13  1  0  0  0  0
  7 11  2  0  0  0  0
  8 10  1  0  0  0  0
  9  7  1  0  0  0  0
 10 19  2  0  0  0  0
 11 14  1  0  0  0  0
 12 23  1  1  0  0  0
 13  7  1  0  0  0  0
 13  4  1  0  0  0  0
 14 18  1  0  0  0  0
 15  1  1  0  0  0  0
 16 11  1  6  0  0  0
 16  2  1  0  0  0  0
 17  8  2  0  0  0  0
 17 21  1  0  0  0  0
 18  6  2  0  0  0  0
 20 19  1  0  0  0  0
 20 15  1  0  0  0  0
 21 20  2  0  0  0  0
 23 24  2  0  0  0  0
 23 27  1  0  0  0  0
 24 25  1  0  0  0  0
 25 22  2  0  0  0  0
 26 22  1  0  0  0  0
 27 26  2  0  0  0  0
M  END
>  <MODEL>
7

>  <REMARK>
 VINA RESULT:      -7.0      2.612      6.050
  Name = 
  1 active torsions:
  status: ('A' for Active; 'I' for Inactive)
    1  A    between atoms: C_9  and  C_15
                            x       y       z     vdW  Elec       q    Type
                         _______ _______ _______ _____ _____    ______ ____

>  <TORSDO>
F 1

$$$$
=
 OpenBabel11052413443D

 27 31  0  0  1  0  0  0  0  0999 V2000
  189.1110  178.6050  137.5450 C   0  0  0  0  0  2  0  0  0  0  0  0
  189.7310  176.2520  137.3700 C   0  0  2  0  0  3  0  0  0  0  0  0
  190.8390  177.0700  139.3670 N   0  0  0  0  0  2  0  0  0  0  0  0
  193.2610  174.2600  136.7850 N   0  0  0  0  0  0  0  0  0  0  0  0
  195.4210  174.5030  137.9140 C   0  0  0  0  0  1  0  0  0  0  0  0
  189.7850  175.1810  136.4350 C   0  0  0  0  0  3  0  0  0  0  0  0
  193.3350  175.8150  138.3430 C   0  0  0  0  0  0  0  0  0  0  0  0
  188.8350  176.9410  142.4850 C   0  0  0  0  0  3  0  0  0  0  0  0
  193.8720  176.6620  139.4510 C   0  0  0  0  0  1  0  0  0  0  0  0
  187.8320  177.8800  142.2610 C   0  0  0  0  0  3  0  0  0  0  0  0
  192.0570  175.8420  137.8200 C   0  0  0  0  0  0  0  0  0  0  0  0
  188.7560  177.1770  137.2390 C   0  0  2  0  0  3  0  0  0  0  0  0
  194.0340  174.8660  137.6790 N   0  0  0  0  0  0  0  0  0  0  0  0
  192.0600  174.8580  136.8710 C   0  0  0  0  0  0  0  0  0  0  0  0
  188.5240  179.0030  138.8030 N   0  0  0  0  0  2  0  0  0  0  0  0
  190.8760  176.4890  138.1940 C   0  0  1  0  0  3  0  0  0  0  0  0
  189.7780  176.6820  141.4890 C   0  0  0  0  0  3  0  0  0  0  0  0
  190.9370  174.4830  136.2160 N   0  0  0  0  0  0  0  0  0  0  0  0
  187.7710  178.5520  141.0410 C   0  0  0  0  0  3  0  0  0  0  0  0
  188.7010  178.2930  140.0270 C   0  0  0  0  0  0  0  0  0  0  0  0
  189.7260  177.3310  140.2460 C   0  0  0  0  0  0  0  0  0  0  0  0
  184.9470  176.4730  135.3670 C   0  0  0  0  0  3  0  0  0  0  0  0
  187.4480  176.9020  136.5800 C   0  0  0  0  0  0  0  0  0  0  0  0
  186.4670  176.1240  137.2180 C   0  0  0  0  0  3  0  0  0  0  0  0
  185.2270  175.9050  136.6140 C   0  0  0  0  0  3  0  0  0  0  0  0
  185.9060  177.2620  134.7290 C   0  0  0  0  0  3  0  0  0  0  0  0
  187.1460  177.4800  135.3330 C   0  0  0  0  0  3  0  0  0  0  0  0
  1 15  1  0  0  0  0
  2  6  1  6  0  0  0
  2 16  1  0  0  0  0
  3 21  1  0  0  0  0
  4 14  2  0  0  0  0
  4 13  1  0  0  0  0
  7  9  1  0  0  0  0
 10  8  1  0  0  0  0
 11  7  2  0  0  0  0
 12 23  1  6  0  0  0
 12  2  1  0  0  0  0
 12  1  1  0  0  0  0
 13  5  1  0  0  0  0
 13  7  1  0  0  0  0
 14 11  1  0  0  0  0
 15 20  1  0  0  0  0
 16 11  1  1  0  0  0
 16  3  1  0  0  0  0
 17  8  2  0  0  0  0
 18  6  2  0  0  0  0
 18 14  1  0  0  0  0
 19 10  2  0  0  0  0
 20 21  2  0  0  0  0
 20 19  1  0  0  0  0
 21 17  1  0  0  0  0
 22 25  1  0  0  0  0
 23 24  1  0  0  0  0
 25 24  2  0  0  0  0
 26 27  1  0  0  0  0
 26 22  2  0  0  0  0
 27 23  2  0  0  0  0
M  END
>  <MODEL>
8

>  <REMARK>
 VINA RESULT:      -6.6      4.945      8.554
  Name = 
  1 active torsions:
  status: ('A' for Active; 'I' for Inactive)
    1  A    between atoms: C_9  and  C_15
                            x       y       z     vdW  Elec       q    Type
                         _______ _______ _______ _____ _____    ______ ____

>  <TORSDO>
F 1

$$$$
=
 OpenBabel11052413443D

 27 31  0  0  1  0  0  0  0  0999 V2000
  183.8440  179.4940  138.8800 C   0  0  0  0  0  2  0  0  0  0  0  0
  184.7760  177.4380  137.9540 C   0  0  2  0  0  3  0  0  0  0  0  0
  186.6370  178.5760  139.0170 N   0  0  0  0  0  2  0  0  0  0  0  0
  187.5420  176.6050  135.0510 N   0  0  0  0  0  0  0  0  0  0  0  0
  189.7950  177.5040  134.7080 C   0  0  0  0  0  1  0  0  0  0  0  0
  184.5020  176.4240  136.9950 C   0  0  0  0  0  3  0  0  0  0  0  0
  188.1780  178.1250  136.5130 C   0  0  0  0  0  0  0  0  0  0  0  0
  187.0940  177.8780  142.6310 C   0  0  0  0  0  3  0  0  0  0  0  0
  189.0560  179.1070  137.2190 C   0  0  0  0  0  1  0  0  0  0  0  0
  185.9760  178.4650  143.2160 C   0  0  0  0  0  3  0  0  0  0  0  0
  186.8940  177.7580  136.8610 C   0  0  0  0  0  0  0  0  0  0  0  0
  183.7390  178.0220  138.5930 C   0  0  2  0  0  3  0  0  0  0  0  0
  188.5230  177.4260  135.4070 N   0  0  0  0  0  0  0  0  0  0  0  0
  186.5510  176.8110  135.9360 C   0  0  0  0  0  0  0  0  0  0  0  0
  184.0840  179.7080  140.2880 N   0  0  0  0  0  2  0  0  0  0  0  0
  186.0830  178.0200  137.9690 C   0  0  1  0  0  3  0  0  0  0  0  0
  187.2470  177.9060  141.2440 C   0  0  0  0  0  3  0  0  0  0  0  0
  185.3990  176.1060  136.0170 N   0  0  0  0  0  0  0  0  0  0  0  0
  185.0120  179.0740  142.4120 C   0  0  0  0  0  3  0  0  0  0  0  0
  185.1460  179.0990  141.0190 C   0  0  0  0  0  0  0  0  0  0  0  0
  186.2830  178.4960  140.4130 C   0  0  0  0  0  0  0  0  0  0  0  0
  179.9130  176.1690  139.2530 C   0  0  0  0  0  3  0  0  0  0  0  0
  182.4220  177.3560  138.7980 C   0  0  0  0  0  0  0  0  0  0  0  0
  182.3050  176.2250  139.6230 C   0  0  0  0  0  3  0  0  0  0  0  0
  181.0610  175.6300  139.8450 C   0  0  0  0  0  3  0  0  0  0  0  0
  180.0120  177.3030  138.4450 C   0  0  0  0  0  3  0  0  0  0  0  0
  181.2570  177.8960  138.2230 C   0  0  0  0  0  3  0  0  0  0  0  0
  1 15  1  0  0  0  0
  2  6  1  6  0  0  0
  2 16  1  0  0  0  0
  2 12  1  0  0  0  0
  3 21  1  0  0  0  0
  4 13  1  0  0  0  0
  4 14  2  0  0  0  0
  5 13  1  0  0  0  0
  7 11  2  0  0  0  0
  7  9  1  0  0  0  0
  8 10  1  0  0  0  0
 12 23  1  6  0  0  0
 12  1  1  0  0  0  0
 13  7  1  0  0  0  0
 14 18  1  0  0  0  0
 14 11  1  0  0  0  0
 15 20  1  0  0  0  0
 16 11  1  1  0  0  0
 16  3  1  0  0  0  0
 17  8  2  0  0  0  0
 18  6  2  0  0  0  0
 19 10  2  0  0  0  0
 20 19  1  0  0  0  0
 21 20  2  0  0  0  0
 21 17  1  0  0  0  0
 22 25  1  0  0  0  0
 23 24  1  0  0  0  0
 24 25  2  0  0  0  0
 26 22  2  0  0  0  0
 27 26  1  0  0  0  0
 27 23  2  0  0  0  0
M  END
>  <MODEL>
9

>  <REMARK>
 VINA RESULT:      -6.6      3.644      7.402
  Name = 
  1 active torsions:
  status: ('A' for Active; 'I' for Inactive)
    1  A    between atoms: C_9  and  C_15
                            x       y       z     vdW  Elec       q    Type
                         _______ _______ _______ _____ _____    ______ ____

>  <TORSDO>
F 1

$$$$
