=
 OpenBabel11052413533D

 27 30  0  0  1  0  0  0  0  0999 V2000
  187.6810  178.6460  142.2670 C   0  0  0  0  0  2  0  0  0  0  0  0
  187.6780  177.0070  144.2560 C   0  0  1  0  0  3  0  0  0  0  0  0
  188.7190  175.2850  142.9040 O   0  0  0  0  0  1  0  0  0  0  0  0
  190.9150  177.3520  139.5630 C   0  0  0  0  0  2  0  0  0  0  0  0
  189.5810  177.8180  139.0570 C   0  0  0  0  0  0  0  0  0  0  0  0
  190.0610  177.2650  143.3720 C   0  0  2  0  0  3  0  0  0  0  0  0
  186.8910  177.6230  143.0810 C   0  0  1  0  0  3  0  0  0  0  0  0
  188.6020  177.8980  141.3210 C   0  0  1  0  0  3  0  0  0  0  0  0
  188.9690  176.2910  143.8410 C   0  0  1  0  0  3  0  0  0  0  0  0
  190.7760  176.7370  140.9580 C   0  0  0  0  0  2  0  0  0  0  0  0
  189.2680  177.6280  137.8930 O   0  0  0  0  0  0  0  0  0  0  0  0
  188.6720  178.5920  139.9650 C   0  0  0  0  0  2  0  0  0  0  0  0
  190.0170  177.6920  141.8870 C   0  0  2  0  0  3  0  0  0  0  0  0
  183.9680  178.8370  145.2070 C   0  0  0  0  0  3  0  0  0  0  0  0
  185.5450  178.1360  143.4970 C   0  0  0  0  0  0  0  0  0  0  0  0
  184.5550  178.3110  142.5240 C   0  0  0  0  0  3  0  0  0  0  0  0
  183.2800  178.7550  142.8880 C   0  0  0  0  0  3  0  0  0  0  0  0
  182.9870  179.0170  144.2290 C   0  0  0  0  0  3  0  0  0  0  0  0
  185.2440  178.3950  144.8430 C   0  0  0  0  0  3  0  0  0  0  0  0
  188.0960  177.6340  146.6710 C   0  0  0  0  0  0  0  0  0  0  0  0
  187.9570  177.9940  145.2950 N   0  0  0  0  0  2  0  0  0  0  0  0
  188.0490  176.4240  147.0210 O   0  0  0  0  0  0  0  0  0  0  0  0
  189.5350  178.3520  148.4810 N   0  0  0  0  0  2  0  0  0  0  0  0
  188.1940  178.1420  149.0390 C   0  0  0  0  0  2  0  0  0  0  0  0
  188.3380  178.6940  147.6940 C   0  0  2  0  0  3  0  0  0  0  0  0
  191.5040  176.7840  145.2180 O   0  0  0  0  0  1  0  0  0  0  0  0
  191.4480  176.8260  143.8250 C   0  0  0  0  0  2  0  0  0  0  0  0
  1  7  1  0  0  0  0
  2 21  1  1  0  0  0
  4 10  1  0  0  0  0
  5  4  1  0  0  0  0
  5 12  1  0  0  0  0
  6 27  1  6  0  0  0
  6  9  1  0  0  0  0
  7 15  1  1  0  0  0
  7  2  1  0  0  0  0
  8 12  1  6  0  0  0
  8 13  1  0  0  0  0
  8  1  1  0  0  0  0
  9  3  1  6  0  0  0
  9  2  1  0  0  0  0
 11  5  2  0  0  0  0
 13 10  1  6  0  0  0
 13  6  1  0  0  0  0
 15 19  2  0  0  0  0
 16 17  2  0  0  0  0
 16 15  1  0  0  0  0
 17 18  1  0  0  0  0
 18 14  2  0  0  0  0
 19 14  1  0  0  0  0
 20 22  2  0  0  0  0
 21 20  1  0  0  0  0
 23 24  1  0  0  0  0
 25 20  1  6  0  0  0
 25 23  1  0  0  0  0
 25 24  1  0  0  0  0
 27 26  1  0  0  0  0
M  END
>  <MODEL>
1

>  <REMARK>
 VINA RESULT:      -8.7      0.000      0.000
  Name = 
  4 active torsions:
  status: ('A' for Active; 'I' for Inactive)
    1  A    between atoms: C_2  and  N_6
    2  A    between atoms: C_5  and  C_17
    3  A    between atoms: C_9  and  C_15
    4  A    between atoms: C_12  and  C_14
                            x       y       z     vdW  Elec       q    Type
                         _______ _______ _______ _____ _____    ______ ____

>  <TORSDO>
F 4

$$$$
=
 OpenBabel11052413533D

 27 30  0  0  1  0  0  0  0  0999 V2000
  187.3470  177.0830  143.8720 C   0  0  0  0  0  2  0  0  0  0  0  0
  188.7070  178.2630  142.0280 C   0  0  1  0  0  3  0  0  0  0  0  0
  190.0670  179.3960  143.6850 O   0  0  0  0  0  1  0  0  0  0  0  0
  189.9250  176.9260  147.4460 C   0  0  0  0  0  2  0  0  0  0  0  0
  188.4590  177.2410  147.5240 C   0  0  0  0  0  0  0  0  0  0  0  0
  190.2940  176.9720  143.5590 C   0  0  2  0  0  3  0  0  0  0  0  0
  187.4350  178.2570  142.9000 C   0  0  1  0  0  3  0  0  0  0  0  0
  188.2260  177.3860  145.0710 C   0  0  1  0  0  3  0  0  0  0  0  0
  190.0160  178.2940  142.8270 C   0  0  1  0  0  3  0  0  0  0  0  0
  190.4970  177.3600  146.0940 C   0  0  0  0  0  2  0  0  0  0  0  0
  187.9850  177.6960  148.5510 O   0  0  0  0  0  0  0  0  0  0  0  0
  187.5670  176.9130  146.3630 C   0  0  0  0  0  2  0  0  0  0  0  0
  189.6430  176.8010  144.9500 C   0  0  2  0  0  3  0  0  0  0  0  0
  185.0440  179.0450  140.0360 C   0  0  0  0  0  3  0  0  0  0  0  0
  186.1840  178.4280  142.0910 C   0  0  0  0  0  0  0  0  0  0  0  0
  184.9460  178.2000  142.7000 C   0  0  0  0  0  3  0  0  0  0  0  0
  183.7610  178.3850  141.9800 C   0  0  0  0  0  3  0  0  0  0  0  0
  183.8110  178.8080  140.6490 C   0  0  0  0  0  3  0  0  0  0  0  0
  186.2280  178.8590  140.7550 C   0  0  0  0  0  3  0  0  0  0  0  0
  189.1370  177.3100  139.7240 C   0  0  0  0  0  0  0  0  0  0  0  0
  188.7180  177.1520  141.0810 N   0  0  0  0  0  2  0  0  0  0  0  0
  189.5820  178.4180  139.3190 O   0  0  0  0  0  0  0  0  0  0  0  0
  190.4430  175.6130  138.5950 N   0  0  0  0  0  2  0  0  0  0  0  0
  189.8170  176.4480  137.5630 C   0  0  0  0  0  2  0  0  0  0  0  0
  189.0850  176.1460  138.7910 C   0  0  2  0  0  3  0  0  0  0  0  0
  191.9480  175.2790  143.9070 O   0  0  0  0  0  1  0  0  0  0  0  0
  191.7750  176.6160  143.5470 C   0  0  0  0  0  2  0  0  0  0  0  0
  2 21  1  1  0  0  0
  2  9  1  0  0  0  0
  2  7  1  0  0  0  0
  4  5  1  0  0  0  0
  5 11  2  0  0  0  0
  6 27  1  1  0  0  0
  6 13  1  0  0  0  0
  7 15  1  6  0  0  0
  7  1  1  0  0  0  0
  8  1  1  6  0  0  0
  8 12  1  0  0  0  0
  9  6  1  0  0  0  0
  9  3  1  1  0  0  0
 10  4  1  0  0  0  0
 12  5  1  0  0  0  0
 13  8  1  0  0  0  0
 13 10  1  1  0  0  0
 14 18  2  0  0  0  0
 14 19  1  0  0  0  0
 15 16  1  0  0  0  0
 17 16  2  0  0  0  0
 18 17  1  0  0  0  0
 19 15  2  0  0  0  0
 20 21  1  0  0  0  0
 22 20  2  0  0  0  0
 23 25  1  0  0  0  0
 24 23  1  0  0  0  0
 24 25  1  0  0  0  0
 25 20  1  1  0  0  0
 27 26  1  0  0  0  0
M  END
>  <MODEL>
2

>  <REMARK>
 VINA RESULT:      -8.6      2.308      5.834
  Name = 
  4 active torsions:
  status: ('A' for Active; 'I' for Inactive)
    1  A    between atoms: C_2  and  N_6
    2  A    between atoms: C_5  and  C_17
    3  A    between atoms: C_9  and  C_15
    4  A    between atoms: C_12  and  C_14
                            x       y       z     vdW  Elec       q    Type
                         _______ _______ _______ _____ _____    ______ ____

>  <TORSDO>
F 4

$$$$
=
 OpenBabel11052413533D

 27 30  0  0  1  0  0  0  0  0999 V2000
  188.1270  177.1460  141.5620 C   0  0  0  0  0  2  0  0  0  0  0  0
  190.5070  177.5090  140.6420 C   0  0  1  0  0  3  0  0  0  0  0  0
  191.1710  178.6580  142.6720 O   0  0  0  0  0  1  0  0  0  0  0  0
  188.4370  177.2510  145.9590 C   0  0  0  0  0  2  0  0  0  0  0  0
  187.3070  177.9040  145.2160 C   0  0  0  0  0  0  0  0  0  0  0  0
  190.6390  176.2880  142.8830 C   0  0  2  0  0  3  0  0  0  0  0  0
  189.0470  178.0040  140.6960 C   0  0  1  0  0  3  0  0  0  0  0  0
  188.3560  177.5140  143.0160 C   0  0  1  0  0  3  0  0  0  0  0  0
  191.1930  177.4260  142.0120 C   0  0  1  0  0  3  0  0  0  0  0  0
  189.6980  177.2080  145.0930 C   0  0  0  0  0  2  0  0  0  0  0  0
  186.5690  178.6860  145.7900 O   0  0  0  0  0  0  0  0  0  0  0  0
  187.0410  177.5250  143.7890 C   0  0  0  0  0  2  0  0  0  0  0  0
  189.3790  176.6060  143.7190 C   0  0  2  0  0  3  0  0  0  0  0  0
  186.7050  178.0350  137.6880 C   0  0  0  0  0  3  0  0  0  0  0  0
  188.4780  178.2620  139.3330 C   0  0  0  0  0  0  0  0  0  0  0  0
  189.2650  178.9220  138.3830 C   0  0  0  0  0  3  0  0  0  0  0  0
  188.7730  179.1450  137.0930 C   0  0  0  0  0  3  0  0  0  0  0  0
  187.4930  178.7020  136.7460 C   0  0  0  0  0  3  0  0  0  0  0  0
  187.1960  177.8140  138.9770 C   0  0  0  0  0  3  0  0  0  0  0  0
  191.3460  176.0980  138.7180 C   0  0  0  0  0  0  0  0  0  0  0  0
  190.6190  176.2340  139.9410 N   0  0  0  0  0  2  0  0  0  0  0  0
  191.9790  177.0780  138.2400 O   0  0  0  0  0  0  0  0  0  0  0  0
  192.7850  174.4390  137.6990 N   0  0  0  0  0  2  0  0  0  0  0  0
  191.8790  174.9390  136.6570 C   0  0  0  0  0  2  0  0  0  0  0  0
  191.3890  174.7770  138.0240 C   0  0  2  0  0  3  0  0  0  0  0  0
  191.4990  174.2340  143.7570 O   0  0  0  0  0  1  0  0  0  0  0  0
  191.7360  175.6070  143.6930 C   0  0  0  0  0  2  0  0  0  0  0  0
  2 21  1  1  0  0  0
  2  7  1  0  0  0  0
  2  9  1  0  0  0  0
  5 11  2  0  0  0  0
  5  4  1  0  0  0  0
  6 27  1  1  0  0  0
  6 13  1  0  0  0  0
  7 15  1  6  0  0  0
  7  1  1  0  0  0  0
  8  1  1  6  0  0  0
  8 13  1  0  0  0  0
  8 12  1  0  0  0  0
  9  3  1  1  0  0  0
  9  6  1  0  0  0  0
 10  4  1  0  0  0  0
 12  5  1  0  0  0  0
 13 10  1  1  0  0  0
 14 19  1  0  0  0  0
 16 15  1  0  0  0  0
 17 16  2  0  0  0  0
 18 17  1  0  0  0  0
 18 14  2  0  0  0  0
 19 15  2  0  0  0  0
 20 21  1  0  0  0  0
 22 20  2  0  0  0  0
 23 25  1  0  0  0  0
 24 23  1  0  0  0  0
 24 25  1  0  0  0  0
 25 20  1  1  0  0  0
 27 26  1  0  0  0  0
M  END
>  <MODEL>
3

>  <REMARK>
 VINA RESULT:      -7.6      3.008      6.760
  Name = 
  4 active torsions:
  status: ('A' for Active; 'I' for Inactive)
    1  A    between atoms: C_2  and  N_6
    2  A    between atoms: C_5  and  C_17
    3  A    between atoms: C_9  and  C_15
    4  A    between atoms: C_12  and  C_14
                            x       y       z     vdW  Elec       q    Type
                         _______ _______ _______ _____ _____    ______ ____

>  <TORSDO>
F 4

$$$$
=
 OpenBabel11052413533D

 27 30  0  0  1  0  0  0  0  0999 V2000
  190.0030  176.3710  140.2050 C   0  0  0  0  0  2  0  0  0  0  0  0
  188.6540  178.5150  140.6840 C   0  0  1  0  0  3  0  0  0  0  0  0
  189.2320  179.4240  138.5110 O   0  0  0  0  0  1  0  0  0  0  0  0
  190.1970  175.9470  135.8210 C   0  0  0  0  0  2  0  0  0  0  0  0
  191.3740  175.6650  136.7100 C   0  0  0  0  0  0  0  0  0  0  0  0
  187.8100  177.4440  138.5220 C   0  0  2  0  0  3  0  0  0  0  0  0
  189.9850  177.7540  140.8530 C   0  0  1  0  0  3  0  0  0  0  0  0
  190.2350  176.5430  138.7160 C   0  0  1  0  0  3  0  0  0  0  0  0
  188.2420  178.7410  139.2230 C   0  0  1  0  0  3  0  0  0  0  0  0
  189.2780  176.9910  136.4600 C   0  0  0  0  0  2  0  0  0  0  0  0
  192.4880  175.5390  136.2290 O   0  0  0  0  0  0  0  0  0  0  0  0
  191.1590  175.4540  138.1800 C   0  0  0  0  0  2  0  0  0  0  0  0
  188.9340  176.5870  137.8980 C   0  0  2  0  0  3  0  0  0  0  0  0
  191.0550  178.8550  144.3440 C   0  0  0  0  0  3  0  0  0  0  0  0
  190.4530  177.7280  142.2780 C   0  0  0  0  0  0  0  0  0  0  0  0
  190.8160  176.5030  142.8500 C   0  0  0  0  0  3  0  0  0  0  0  0
  191.2890  176.4520  144.1650 C   0  0  0  0  0  3  0  0  0  0  0  0
  191.4090  177.6290  144.9110 C   0  0  0  0  0  3  0  0  0  0  0  0
  190.5810  178.9060  143.0290 C   0  0  0  0  0  3  0  0  0  0  0  0
  186.3670  178.5700  141.7640 C   0  0  0  0  0  0  0  0  0  0  0  0
  187.5690  177.8770  141.4230 N   0  0  0  0  0  2  0  0  0  0  0  0
  186.1800  179.7530  141.3700 O   0  0  0  0  0  0  0  0  0  0  0  0
  184.0480  177.8780  141.8030 N   0  0  0  0  0  2  0  0  0  0  0  0
  184.2480  178.8150  142.9150 C   0  0  0  0  0  2  0  0  0  0  0  0
  185.3110  177.8780  142.5600 C   0  0  2  0  0  3  0  0  0  0  0  0
  185.9210  178.8030  137.9670 O   0  0  0  0  0  1  0  0  0  0  0  0
  186.6390  177.6730  137.5750 C   0  0  0  0  0  2  0  0  0  0  0  0
  1  7  1  0  0  0  0
  2  7  1  0  0  0  0
  2 21  1  1  0  0  0
  4 10  1  0  0  0  0
  4  5  1  0  0  0  0
  5 12  1  0  0  0  0
  6 27  1  6  0  0  0
  6  9  1  0  0  0  0
  7 15  1  1  0  0  0
  8 12  1  6  0  0  0
  8  1  1  0  0  0  0
  9  3  1  6  0  0  0
  9  2  1  0  0  0  0
 11  5  2  0  0  0  0
 13 10  1  6  0  0  0
 13  6  1  0  0  0  0
 13  8  1  0  0  0  0
 14 18  1  0  0  0  0
 15 16  2  0  0  0  0
 15 19  1  0  0  0  0
 16 17  1  0  0  0  0
 17 18  2  0  0  0  0
 19 14  2  0  0  0  0
 21 20  1  0  0  0  0
 22 20  2  0  0  0  0
 23 25  1  0  0  0  0
 23 24  1  0  0  0  0
 25 20  1  6  0  0  0
 25 24  1  0  0  0  0
 27 26  1  0  0  0  0
M  END
>  <MODEL>
4

>  <REMARK>
 VINA RESULT:      -7.2      3.351      5.956
  Name = 
  4 active torsions:
  status: ('A' for Active; 'I' for Inactive)
    1  A    between atoms: C_2  and  N_6
    2  A    between atoms: C_5  and  C_17
    3  A    between atoms: C_9  and  C_15
    4  A    between atoms: C_12  and  C_14
                            x       y       z     vdW  Elec       q    Type
                         _______ _______ _______ _____ _____    ______ ____

>  <TORSDO>
F 4

$$$$
=
 OpenBabel11052413533D

 27 30  0  0  1  0  0  0  0  0999 V2000
  186.2670  177.4910  142.8680 C   0  0  0  0  0  2  0  0  0  0  0  0
  187.5190  178.6250  140.9210 C   0  0  1  0  0  3  0  0  0  0  0  0
  189.0200  179.7370  142.4680 O   0  0  0  0  0  1  0  0  0  0  0  0
  189.0880  177.3000  146.2510 C   0  0  0  0  0  2  0  0  0  0  0  0
  187.6390  177.6500  146.4300 C   0  0  0  0  0  0  0  0  0  0  0  0
  189.1810  177.3080  142.3480 C   0  0  2  0  0  3  0  0  0  0  0  0
  186.3130  178.6560  141.8810 C   0  0  1  0  0  3  0  0  0  0  0  0
  187.2350  177.7820  143.9990 C   0  0  1  0  0  3  0  0  0  0  0  0
  188.8820  178.6310  141.6260 C   0  0  1  0  0  3  0  0  0  0  0  0
  189.5730  177.7100  144.8580 C   0  0  0  0  0  2  0  0  0  0  0  0
  187.2500  178.1240  147.4840 O   0  0  0  0  0  0  0  0  0  0  0  0
  186.6600  177.3350  145.3380 C   0  0  0  0  0  2  0  0  0  0  0  0
  188.6260  177.1630  143.7830 C   0  0  2  0  0  3  0  0  0  0  0  0
  182.5960  178.6290  141.0310 C   0  0  0  0  0  3  0  0  0  0  0  0
  185.0120  178.8510  141.1610 C   0  0  0  0  0  0  0  0  0  0  0  0
  185.0260  179.3780  139.8650 C   0  0  0  0  0  3  0  0  0  0  0  0
  183.8310  179.5370  139.1570 C   0  0  0  0  0  3  0  0  0  0  0  0
  182.6160  179.1630  139.7400 C   0  0  0  0  0  3  0  0  0  0  0  0
  183.7900  178.4710  141.7400 C   0  0  0  0  0  3  0  0  0  0  0  0
  187.8180  177.6300  138.6150 C   0  0  0  0  0  0  0  0  0  0  0  0
  187.4370  177.5070  139.9860 N   0  0  0  0  0  2  0  0  0  0  0  0
  188.3080  178.7090  138.1830 O   0  0  0  0  0  0  0  0  0  0  0  0
  188.9570  175.7560  137.5910 N   0  0  0  0  0  2  0  0  0  0  0  0
  188.5060  176.6420  136.5110 C   0  0  0  0  0  2  0  0  0  0  0  0
  187.6700  176.4630  137.6960 C   0  0  2  0  0  3  0  0  0  0  0  0
  191.2130  177.5030  141.1000 O   0  0  0  0  0  1  0  0  0  0  0  0
  190.6490  176.9160  142.2340 C   0  0  0  0  0  2  0  0  0  0  0  0
  2 21  1  1  0  0  0
  2  9  1  0  0  0  0
  2  7  1  0  0  0  0
  4  5  1  0  0  0  0
  5 11  2  0  0  0  0
  6 27  1  1  0  0  0
  6 13  1  0  0  0  0
  7 15  1  6  0  0  0
  7  1  1  0  0  0  0
  8  1  1  6  0  0  0
  8 12  1  0  0  0  0
  9  6  1  0  0  0  0
  9  3  1  1  0  0  0
 10  4  1  0  0  0  0
 12  5  1  0  0  0  0
 13  8  1  0  0  0  0
 13 10  1  1  0  0  0
 14 19  1  0  0  0  0
 15 19  2  0  0  0  0
 16 15  1  0  0  0  0
 17 18  1  0  0  0  0
 17 16  2  0  0  0  0
 18 14  2  0  0  0  0
 20 21  1  0  0  0  0
 22 20  2  0  0  0  0
 23 25  1  0  0  0  0
 24 23  1  0  0  0  0
 24 25  1  0  0  0  0
 25 20  1  1  0  0  0
 26 27  1  0  0  0  0
M  END
>  <MODEL>
5

>  <REMARK>
 VINA RESULT:      -7.2      2.783      6.059
  Name = 
  4 active torsions:
  status: ('A' for Active; 'I' for Inactive)
    1  A    between atoms: C_2  and  N_6
    2  A    between atoms: C_5  and  C_17
    3  A    between atoms: C_9  and  C_15
    4  A    between atoms: C_12  and  C_14
                            x       y       z     vdW  Elec       q    Type
                         _______ _______ _______ _____ _____    ______ ____

>  <TORSDO>
F 4

$$$$
=
 OpenBabel11052413533D

 27 30  0  0  1  0  0  0  0  0999 V2000
  187.3270  177.0910  143.3820 C   0  0  0  0  0  2  0  0  0  0  0  0
  186.6570  178.8520  141.6240 C   0  0  1  0  0  3  0  0  0  0  0  0
  188.9020  179.7700  141.6150 O   0  0  0  0  0  1  0  0  0  0  0  0
  191.6830  176.5170  143.0070 C   0  0  0  0  0  2  0  0  0  0  0  0
  190.9910  176.5790  144.3380 C   0  0  0  0  0  0  0  0  0  0  0  0
  188.6470  177.5030  140.7590 C   0  0  2  0  0  3  0  0  0  0  0  0
  186.6960  178.4560  143.1140 C   0  0  1  0  0  3  0  0  0  0  0  0
  188.8360  177.2420  143.3340 C   0  0  1  0  0  3  0  0  0  0  0  0
  188.0350  178.8990  140.9510 C   0  0  1  0  0  3  0  0  0  0  0  0
  190.9140  177.3290  141.9620 C   0  0  0  0  0  2  0  0  0  0  0  0
  191.6420  176.7110  145.3600 O   0  0  0  0  0  0  0  0  0  0  0  0
  189.5040  176.3930  144.4100 C   0  0  0  0  0  2  0  0  0  0  0  0
  189.4350  176.9220  141.9540 C   0  0  2  0  0  3  0  0  0  0  0  0
  182.9680  179.0020  143.6970 C   0  0  0  0  0  3  0  0  0  0  0  0
  185.3640  178.6150  143.7850 C   0  0  0  0  0  0  0  0  0  0  0  0
  185.3040  178.6060  145.1830 C   0  0  0  0  0  3  0  0  0  0  0  0
  184.0810  178.7870  145.8360 C   0  0  0  0  0  3  0  0  0  0  0  0
  182.9130  178.9860  145.0930 C   0  0  0  0  0  3  0  0  0  0  0  0
  184.1900  178.8200  143.0440 C   0  0  0  0  0  3  0  0  0  0  0  0
  184.8610  178.5270  139.8730 C   0  0  0  0  0  0  0  0  0  0  0  0
  185.7490  178.0010  140.8620 N   0  0  0  0  0  2  0  0  0  0  0  0
  184.8890  179.7520  139.5780 O   0  0  0  0  0  0  0  0  0  0  0  0
  184.4790  177.2800  137.8330 N   0  0  0  0  0  2  0  0  0  0  0  0
  183.3970  178.2640  137.9600 C   0  0  0  0  0  2  0  0  0  0  0  0
  183.9240  177.6120  139.1560 C   0  0  2  0  0  3  0  0  0  0  0  0
  188.9410  178.3560  138.5430 O   0  0  0  0  0  1  0  0  0  0  0  0
  189.3970  177.3880  139.4380 C   0  0  0  0  0  2  0  0  0  0  0  0
  2 21  1  6  0  0  0
  2  7  1  0  0  0  0
  4  5  1  0  0  0  0
  5 12  1  0  0  0  0
  5 11  2  0  0  0  0
  6 27  1  6  0  0  0
  6  9  1  0  0  0  0
  6 13  1  0  0  0  0
  7  1  1  0  0  0  0
  7 15  1  6  0  0  0
  8  1  1  6  0  0  0
  8 12  1  0  0  0  0
  9  3  1  1  0  0  0
  9  2  1  0  0  0  0
 10  4  1  0  0  0  0
 13 10  1  1  0  0  0
 13  8  1  0  0  0  0
 14 18  1  0  0  0  0
 15 16  2  0  0  0  0
 16 17  1  0  0  0  0
 18 17  2  0  0  0  0
 19 14  2  0  0  0  0
 19 15  1  0  0  0  0
 20 21  1  0  0  0  0
 22 20  2  0  0  0  0
 23 24  1  0  0  0  0
 23 25  1  0  0  0  0
 24 25  1  0  0  0  0
 25 20  1  1  0  0  0
 26 27  1  0  0  0  0
M  END
>  <MODEL>
6

>  <REMARK>
 VINA RESULT:      -7.0      2.676      5.587
  Name = 
  4 active torsions:
  status: ('A' for Active; 'I' for Inactive)
    1  A    between atoms: C_2  and  N_6
    2  A    between atoms: C_5  and  C_17
    3  A    between atoms: C_9  and  C_15
    4  A    between atoms: C_12  and  C_14
                            x       y       z     vdW  Elec       q    Type
                         _______ _______ _______ _____ _____    ______ ____

>  <TORSDO>
F 4

$$$$
=
 OpenBabel11052413533D

 27 30  0  0  1  0  0  0  0  0999 V2000
  187.1370  177.1490  143.2580 C   0  0  0  0  0  2  0  0  0  0  0  0
  186.5330  178.8970  141.4630 C   0  0  1  0  0  3  0  0  0  0  0  0
  188.7870  179.7900  141.5020 O   0  0  0  0  0  1  0  0  0  0  0  0
  191.4950  176.5240  143.0040 C   0  0  0  0  0  2  0  0  0  0  0  0
  190.7690  176.6100  144.3160 C   0  0  0  0  0  0  0  0  0  0  0  0
  188.5290  177.5150  140.6660 C   0  0  2  0  0  3  0  0  0  0  0  0
  186.5290  178.5170  142.9580 C   0  0  1  0  0  3  0  0  0  0  0  0
  188.6480  177.2840  143.2480 C   0  0  1  0  0  3  0  0  0  0  0  0
  187.9280  178.9200  140.8250 C   0  0  1  0  0  3  0  0  0  0  0  0
  190.7620  177.3320  141.9300 C   0  0  0  0  0  2  0  0  0  0  0  0
  191.3950  176.7470  145.3530 O   0  0  0  0  0  0  0  0  0  0  0  0
  189.2790  176.4410  144.3510 C   0  0  0  0  0  2  0  0  0  0  0  0
  189.2800  176.9410  141.8890 C   0  0  2  0  0  3  0  0  0  0  0  0
  183.7500  178.8320  145.5500 C   0  0  0  0  0  3  0  0  0  0  0  0
  185.1820  178.6990  143.5920 C   0  0  0  0  0  0  0  0  0  0  0  0
  184.0560  178.8220  142.7700 C   0  0  0  0  0  3  0  0  0  0  0  0
  182.7830  178.9570  143.3340 C   0  0  0  0  0  3  0  0  0  0  0  0
  182.6310  178.9620  144.7240 C   0  0  0  0  0  3  0  0  0  0  0  0
  185.0230  178.6990  144.9860 C   0  0  0  0  0  3  0  0  0  0  0  0
  184.7950  178.5660  139.6550 C   0  0  0  0  0  0  0  0  0  0  0  0
  185.6350  178.0460  140.6870 N   0  0  0  0  0  2  0  0  0  0  0  0
  184.8580  179.7840  139.3340 O   0  0  0  0  0  0  0  0  0  0  0  0
  182.4740  178.0450  139.2050 N   0  0  0  0  0  2  0  0  0  0  0  0
  183.0670  176.8800  139.8730 C   0  0  0  0  0  2  0  0  0  0  0  0
  183.8660  177.6540  138.9250 C   0  0  2  0  0  3  0  0  0  0  0  0
  189.2130  178.5510  138.6210 O   0  0  0  0  0  1  0  0  0  0  0  0
  189.3120  177.3760  139.3660 C   0  0  0  0  0  2  0  0  0  0  0  0
  2 21  1  6  0  0  0
  2  7  1  0  0  0  0
  4  5  1  0  0  0  0
  5 12  1  0  0  0  0
  5 11  2  0  0  0  0
  6 27  1  6  0  0  0
  6  9  1  0  0  0  0
  6 13  1  0  0  0  0
  7  1  1  0  0  0  0
  7 15  1  6  0  0  0
  8  1  1  6  0  0  0
  8 12  1  0  0  0  0
  9  2  1  0  0  0  0
  9  3  1  1  0  0  0
 10  4  1  0  0  0  0
 13 10  1  1  0  0  0
 13  8  1  0  0  0  0
 15 19  2  0  0  0  0
 16 17  2  0  0  0  0
 16 15  1  0  0  0  0
 17 18  1  0  0  0  0
 18 14  2  0  0  0  0
 19 14  1  0  0  0  0
 20 21  1  0  0  0  0
 22 20  2  0  0  0  0
 23 24  1  0  0  0  0
 25 23  1  0  0  0  0
 25 20  1  1  0  0  0
 25 24  1  0  0  0  0
 26 27  1  0  0  0  0
M  END
>  <MODEL>
7

>  <REMARK>
 VINA RESULT:      -7.0      2.724      5.424
  Name = 
  4 active torsions:
  status: ('A' for Active; 'I' for Inactive)
    1  A    between atoms: C_2  and  N_6
    2  A    between atoms: C_5  and  C_17
    3  A    between atoms: C_9  and  C_15
    4  A    between atoms: C_12  and  C_14
                            x       y       z     vdW  Elec       q    Type
                         _______ _______ _______ _____ _____    ______ ____

>  <TORSDO>
F 4

$$$$
=
 OpenBabel11052413533D

 27 30  0  0  1  0  0  0  0  0999 V2000
  183.1470  177.3290  140.1880 C   0  0  0  0  0  2  0  0  0  0  0  0
  181.9600  179.5160  140.8550 C   0  0  1  0  0  3  0  0  0  0  0  0
  182.3350  180.4510  138.6490 O   0  0  0  0  0  1  0  0  0  0  0  0
  182.8360  177.0020  135.8020 C   0  0  0  0  0  2  0  0  0  0  0  0
  184.0890  176.6470  136.5490 C   0  0  0  0  0  0  0  0  0  0  0  0
  180.8330  178.5360  138.7820 C   0  0  2  0  0  3  0  0  0  0  0  0
  183.2650  178.6950  140.8600 C   0  0  1  0  0  3  0  0  0  0  0  0
  183.2210  177.5250  138.6860 C   0  0  1  0  0  3  0  0  0  0  0  0
  181.4000  179.7960  139.4540 C   0  0  1  0  0  3  0  0  0  0  0  0
  182.0420  178.0690  136.5600 C   0  0  0  0  0  2  0  0  0  0  0  0
  185.1360  176.4850  135.9440 O   0  0  0  0  0  0  0  0  0  0  0  0
  184.0290  176.4110  138.0290 C   0  0  0  0  0  2  0  0  0  0  0  0
  181.8410  177.6460  138.0200 C   0  0  2  0  0  3  0  0  0  0  0  0
  183.7960  178.9450  144.6280 C   0  0  0  0  0  3  0  0  0  0  0  0
  183.8860  178.6140  142.2230 C   0  0  0  0  0  0  0  0  0  0  0  0
  185.2150  178.1930  142.3390 C   0  0  0  0  0  3  0  0  0  0  0  0
  185.8310  178.1410  143.5930 C   0  0  0  0  0  3  0  0  0  0  0  0
  185.1220  178.5170  144.7370 C   0  0  0  0  0  3  0  0  0  0  0  0
  183.1800  178.9960  143.3740 C   0  0  0  0  0  3  0  0  0  0  0  0
  179.9270  179.6830  142.3510 C   0  0  0  0  0  0  0  0  0  0  0  0
  180.9350  178.9080  141.6990 N   0  0  0  0  0  2  0  0  0  0  0  0
  179.8520  180.9260  142.1570 O   0  0  0  0  0  0  0  0  0  0  0  0
  178.9990  179.5960  144.5860 N   0  0  0  0  0  2  0  0  0  0  0  0
  179.6130  178.2910  144.3110 C   0  0  0  0  0  2  0  0  0  0  0  0
  178.9320  179.0090  143.2370 C   0  0  2  0  0  3  0  0  0  0  0  0
  179.0060  180.0350  138.4100 O   0  0  0  0  0  1  0  0  0  0  0  0
  179.5760  178.8380  137.9750 C   0  0  0  0  0  2  0  0  0  0  0  0
  1  7  1  0  0  0  0
  2  7  1  0  0  0  0
  2 21  1  1  0  0  0
  4  5  1  0  0  0  0
  4 10  1  0  0  0  0
  5 12  1  0  0  0  0
  6 27  1  6  0  0  0
  6  9  1  0  0  0  0
  7 15  1  1  0  0  0
  8 12  1  6  0  0  0
  8  1  1  0  0  0  0
  9  3  1  6  0  0  0
  9  2  1  0  0  0  0
 11  5  2  0  0  0  0
 13 10  1  6  0  0  0
 13  8  1  0  0  0  0
 13  6  1  0  0  0  0
 14 18  1  0  0  0  0
 15 16  2  0  0  0  0
 15 19  1  0  0  0  0
 16 17  1  0  0  0  0
 17 18  2  0  0  0  0
 19 14  2  0  0  0  0
 21 20  1  0  0  0  0
 22 20  2  0  0  0  0
 24 23  1  0  0  0  0
 25 20  1  6  0  0  0
 25 24  1  0  0  0  0
 25 23  1  0  0  0  0
 27 26  1  0  0  0  0
M  END
>  <MODEL>
8

>  <REMARK>
 VINA RESULT:      -6.3      5.448      8.111
  Name = 
  4 active torsions:
  status: ('A' for Active; 'I' for Inactive)
    1  A    between atoms: C_2  and  N_6
    2  A    between atoms: C_5  and  C_17
    3  A    between atoms: C_9  and  C_15
    4  A    between atoms: C_12  and  C_14
                            x       y       z     vdW  Elec       q    Type
                         _______ _______ _______ _____ _____    ______ ____

>  <TORSDO>
F 4

$$$$
=
 OpenBabel11052413533D

 27 30  0  0  1  0  0  0  0  0999 V2000
  188.7000  178.1040  145.4820 C   0  0  0  0  0  2  0  0  0  0  0  0
  189.5420  176.3970  143.7450 C   0  0  1  0  0  3  0  0  0  0  0  0
  187.2820  175.6110  143.3480 O   0  0  0  0  0  1  0  0  0  0  0  0
  184.4860  178.9470  144.4940 C   0  0  0  0  0  2  0  0  0  0  0  0
  184.9640  178.7780  145.9080 C   0  0  0  0  0  0  0  0  0  0  0  0
  187.7760  177.9000  142.6720 C   0  0  2  0  0  3  0  0  0  0  0  0
  189.2960  176.7210  145.2320 C   0  0  1  0  0  3  0  0  0  0  0  0
  187.2110  178.0420  145.2000 C   0  0  1  0  0  3  0  0  0  0  0  0
  188.2820  176.4640  142.8720 C   0  0  1  0  0  3  0  0  0  0  0  0
  185.3640  178.1440  143.5310 C   0  0  0  0  0  2  0  0  0  0  0  0
  184.1580  178.6340  146.8130 O   0  0  0  0  0  0  0  0  0  0  0  0
  186.4300  178.8750  146.2120 C   0  0  0  0  0  2  0  0  0  0  0  0
  186.8450  178.4650  143.7680 C   0  0  2  0  0  3  0  0  0  0  0  0
  192.5930  175.2920  146.5100 C   0  0  0  0  0  3  0  0  0  0  0  0
  190.5010  176.4520  146.0850 C   0  0  0  0  0  0  0  0  0  0  0  0
  190.6030  177.0770  147.3320 C   0  0  0  0  0  3  0  0  0  0  0  0
  191.6970  176.8180  148.1630 C   0  0  0  0  0  3  0  0  0  0  0  0
  192.6920  175.9260  147.7520 C   0  0  0  0  0  3  0  0  0  0  0  0
  191.4990  175.5520  145.6790 C   0  0  0  0  0  3  0  0  0  0  0  0
  191.1570  176.9800  141.8870 C   0  0  0  0  0  0  0  0  0  0  0  0
  190.5970  177.2310  143.1780 N   0  0  0  0  0  2  0  0  0  0  0  0
  190.6990  176.0550  141.1620 O   0  0  0  0  0  0  0  0  0  0  0  0
  192.2240  177.8720  139.9060 N   0  0  0  0  0  2  0  0  0  0  0  0
  193.2130  177.0430  140.6060 C   0  0  0  0  0  2  0  0  0  0  0  0
  192.2640  177.8410  141.3780 C   0  0  2  0  0  3  0  0  0  0  0  0
  188.2930  178.4350  140.3980 O   0  0  0  0  0  1  0  0  0  0  0  0
  187.2430  178.1240  141.2620 C   0  0  0  0  0  2  0  0  0  0  0  0
  2 21  1  6  0  0  0
  2  7  1  0  0  0  0
  4  5  1  0  0  0  0
  5 12  1  0  0  0  0
  5 11  2  0  0  0  0
  6 27  1  6  0  0  0
  6  9  1  0  0  0  0
  6 13  1  0  0  0  0
  7  1  1  0  0  0  0
  7 15  1  1  0  0  0
  8  1  1  1  0  0  0
  8 12  1  0  0  0  0
  9  3  1  1  0  0  0
  9  2  1  0  0  0  0
 10  4  1  0  0  0  0
 13 10  1  6  0  0  0
 13  8  1  0  0  0  0
 14 18  1  0  0  0  0
 15 16  2  0  0  0  0
 16 17  1  0  0  0  0
 18 17  2  0  0  0  0
 19 15  1  0  0  0  0
 19 14  2  0  0  0  0
 20 21  1  0  0  0  0
 22 20  2  0  0  0  0
 23 24  1  0  0  0  0
 23 25  1  0  0  0  0
 24 25  1  0  0  0  0
 25 20  1  1  0  0  0
 26 27  1  0  0  0  0
M  END
>  <MODEL>
9

>  <REMARK>
 VINA RESULT:      -6.3      2.631      6.743
  Name = 
  4 active torsions:
  status: ('A' for Active; 'I' for Inactive)
    1  A    between atoms: C_2  and  N_6
    2  A    between atoms: C_5  and  C_17
    3  A    between atoms: C_9  and  C_15
    4  A    between atoms: C_12  and  C_14
                            x       y       z     vdW  Elec       q    Type
                         _______ _______ _______ _____ _____    ______ ____

>  <TORSDO>
F 4

$$$$
