=
 OpenBabel11052413303D

 28 30  0  0  1  0  0  0  0  0999 V2000
  188.6230  177.5390  140.9270 C   0  0  1  0  0  3  0  0  0  0  0  0
  183.5340  178.0910  141.3060 C   0  0  0  0  0  2  0  0  0  0  0  0
  186.7370  177.6170  146.4430 C   0  0  0  0  0  1  0  0  0  0  0  0
  183.3940  179.5650  143.2600 C   0  0  1  0  0  3  0  0  0  0  0  0
  185.5890  178.6120  142.7780 C   0  0  2  0  0  3  0  0  0  0  0  0
  181.2950  178.5410  142.3520 C   0  0  0  0  0  0  0  0  0  0  0  0
  184.1000  178.3260  142.7010 C   0  0  2  0  0  3  0  0  0  0  0  0
  184.8380  179.3410  145.0820 C   0  0  0  0  0  2  0  0  0  0  0  0
  181.9240  179.2610  143.5270 C   0  0  0  0  0  2  0  0  0  0  0  0
  187.6100  176.6760  144.3270 C   0  0  0  0  0  2  0  0  0  0  0  0
  186.4600  177.7570  141.8630 C   0  0  0  0  0  2  0  0  0  0  0  0
  184.0510  180.2390  144.3270 O   0  0  0  0  0  0  0  0  0  0  0  0
  189.8290  176.9650  143.1620 C   0  0  0  0  0  2  0  0  0  0  0  0
  186.4300  177.4070  144.9650 C   0  0  2  0  0  3  0  0  0  0  0  0
  188.8210  177.5830  144.1290 C   0  0  0  0  0  2  0  0  0  0  0  0
  179.9140  178.4110  142.3140 O   0  0  0  0  0  1  0  0  0  0  0  0
  182.0290  177.9760  141.3760 C   0  0  0  0  0  3  0  0  0  0  0  0
  186.0140  178.7330  144.2710 C   0  0  1  0  0  3  0  0  0  0  0  0
  189.1880  176.4580  141.8670 C   0  0  0  0  0  2  0  0  0  0  0  0
  187.7030  178.4630  141.5860 N   0  0  0  0  0  2  0  0  0  0  0  0
  189.6650  178.2630  140.0550 C   0  0  2  0  0  3  0  0  0  0  0  0
  189.0710  179.0590  139.0720 O   0  0  0  0  0  1  0  0  0  0  0  0
  190.8140  177.4170  139.4920 C   0  0  0  0  0  2  0  0  0  0  0  0
  191.4680  176.3230  137.2760 N   0  0  0  0  0  0  0  0  0  0  0  0
  189.2650  176.3390  138.0520 O   0  0  0  0  0  0  0  0  0  0  0  0
  190.4650  176.6750  138.2400 C   0  0  0  0  0  0  0  0  0  0  0  0
  193.1910  176.4200  137.6620 S   0  0  0  0  0  1  0  0  0  0  0  0
  191.0870  175.7750  135.9850 C   0  0  0  0  0  1  0  0  0  0  0  0
  1 21  1  1  0  0  0
  1 20  1  0  0  0  0
  1 19  1  0  0  0  0
  2 17  1  0  0  0  0
  4  9  1  1  0  0  0
  4 12  1  0  0  0  0
  5 11  1  1  0  0  0
  5 18  1  0  0  0  0
  6  9  1  0  0  0  0
  7  2  1  6  0  0  0
  7  5  1  0  0  0  0
  7  4  1  0  0  0  0
 10 14  1  0  0  0  0
 12  8  1  0  0  0  0
 13 15  1  0  0  0  0
 14  3  1  1  0  0  0
 15 10  1  0  0  0  0
 16  6  1  0  0  0  0
 17  6  2  0  0  0  0
 18 14  1  0  0  0  0
 18  8  1  1  0  0  0
 19 13  1  0  0  0  0
 20 11  1  0  0  0  0
 21 22  1  6  0  0  0
 23 21  1  0  0  0  0
 24 27  1  0  0  0  0
 24 26  1  0  0  0  0
 25 26  2  0  0  0  0
 26 23  1  0  0  0  0
 28 24  1  0  0  0  0
M  END
>  <MODEL>
1

>  <REMARK>
 VINA RESULT:      -7.5      0.000      0.000
  Name = 
  3 active torsions:
  status: ('A' for Active; 'I' for Inactive)
    1  A    between atoms: C_1  and  C_2
    2  A    between atoms: C_2  and  C_3
    3  A    between atoms: C_3  and  C_11
                            x       y       z     vdW  Elec       q    Type
                         _______ _______ _______ _____ _____    ______ ____

>  <TORSDO>
F 3

$$$$
=
 OpenBabel11052413303D

 28 30  0  0  1  0  0  0  0  0999 V2000
  189.1070  178.0860  143.1470 C   0  0  1  0  0  3  0  0  0  0  0  0
  187.3650  178.2130  138.3200 C   0  0  0  0  0  2  0  0  0  0  0  0
  193.1250  176.5160  139.2250 C   0  0  0  0  0  1  0  0  0  0  0  0
  188.4680  176.2260  137.4010 C   0  0  1  0  0  3  0  0  0  0  0  0
  189.1990  176.9420  139.6160 C   0  0  2  0  0  3  0  0  0  0  0  0
  187.2810  177.7910  135.8450 C   0  0  0  0  0  0  0  0  0  0  0  0
  188.6880  177.4580  138.2830 C   0  0  2  0  0  3  0  0  0  0  0  0
  190.6430  175.6300  138.0040 C   0  0  0  0  0  2  0  0  0  0  0  0
  188.2660  176.6450  135.9480 C   0  0  0  0  0  2  0  0  0  0  0  0
  191.9630  177.9470  140.8770 C   0  0  0  0  0  2  0  0  0  0  0  0
  189.0380  177.9050  140.7880 C   0  0  0  0  0  2  0  0  0  0  0  0
  189.3860  175.1530  137.5730 O   0  0  0  0  0  0  0  0  0  0  0  0
  191.6740  177.7190  143.3720 C   0  0  0  0  0  2  0  0  0  0  0  0
  191.8170  177.2350  139.5330 C   0  0  2  0  0  3  0  0  0  0  0  0
  191.9150  176.9810  142.0570 C   0  0  0  0  0  2  0  0  0  0  0  0
  186.7860  178.1330  134.5940 O   0  0  0  0  0  1  0  0  0  0  0  0
  186.9130  178.5240  136.9120 C   0  0  0  0  0  3  0  0  0  0  0  0
  190.5960  176.2820  139.4120 C   0  0  1  0  0  3  0  0  0  0  0  0
  190.5070  178.7080  143.3040 C   0  0  0  0  0  2  0  0  0  0  0  0
  189.0060  177.1480  142.0310 N   0  0  0  0  0  2  0  0  0  0  0  0
  188.4830  177.5340  144.4420 C   0  0  2  0  0  3  0  0  0  0  0  0
  189.3670  176.7170  145.1500 O   0  0  0  0  0  1  0  0  0  0  0  0
  187.0860  176.9080  144.3320 C   0  0  0  0  0  2  0  0  0  0  0  0
  185.2320  178.5430  144.9820 N   0  0  0  0  0  0  0  0  0  0  0  0
  185.8080  178.1380  142.7550 O   0  0  0  0  0  0  0  0  0  0  0  0
  186.0100  177.8840  143.9730 C   0  0  0  0  0  0  0  0  0  0  0  0
  185.7200  178.5230  146.6810 S   0  0  0  0  0  1  0  0  0  0  0  0
  184.0710  179.3360  144.6140 C   0  0  0  0  0  1  0  0  0  0  0  0
  1 19  1  0  0  0  0
  1 21  1  1  0  0  0
  4  9  1  6  0  0  0
  4 12  1  0  0  0  0
  4  7  1  0  0  0  0
  5 11  1  1  0  0  0
  6  9  1  0  0  0  0
  6 17  2  0  0  0  0
  7  2  1  1  0  0  0
  7  5  1  0  0  0  0
 10 15  1  0  0  0  0
 11 20  1  0  0  0  0
 12  8  1  0  0  0  0
 14  3  1  1  0  0  0
 14 10  1  0  0  0  0
 15 13  1  0  0  0  0
 16  6  1  0  0  0  0
 17  2  1  0  0  0  0
 18  8  1  6  0  0  0
 18 14  1  0  0  0  0
 18  5  1  0  0  0  0
 19 13  1  0  0  0  0
 20  1  1  0  0  0  0
 21 22  1  6  0  0  0
 23 21  1  0  0  0  0
 24 27  1  0  0  0  0
 25 26  2  0  0  0  0
 26 23  1  0  0  0  0
 26 24  1  0  0  0  0
 28 24  1  0  0  0  0
M  END
>  <MODEL>
2

>  <REMARK>
 VINA RESULT:      -7.4      3.432      7.434
  Name = 
  3 active torsions:
  status: ('A' for Active; 'I' for Inactive)
    1  A    between atoms: C_1  and  C_2
    2  A    between atoms: C_2  and  C_3
    3  A    between atoms: C_3  and  C_11
                            x       y       z     vdW  Elec       q    Type
                         _______ _______ _______ _____ _____    ______ ____

>  <TORSDO>
F 3

$$$$
=
 OpenBabel11052413303D

 28 30  0  0  1  0  0  0  0  0999 V2000
  190.8220  176.6020  138.3970 C   0  0  1  0  0  3  0  0  0  0  0  0
  191.5390  176.9390  143.4690 C   0  0  0  0  0  2  0  0  0  0  0  0
  186.2880  178.9730  141.1940 C   0  0  0  0  0  1  0  0  0  0  0  0
  189.2870  176.3950  144.2700 C   0  0  1  0  0  3  0  0  0  0  0  0
  189.5200  176.7720  141.8700 C   0  0  2  0  0  3  0  0  0  0  0  0
  190.9880  177.2490  145.9000 C   0  0  0  0  0  0  0  0  0  0  0  0
  190.0580  177.2020  143.2220 C   0  0  2  0  0  3  0  0  0  0  0  0
  187.3690  177.1250  143.1560 C   0  0  0  0  0  2  0  0  0  0  0  0
  189.5170  176.9760  145.6610 C   0  0  0  0  0  2  0  0  0  0  0  0
  188.3160  178.8700  139.7770 C   0  0  0  0  0  2  0  0  0  0  0  0
  190.4340  177.0670  140.6860 C   0  0  0  0  0  2  0  0  0  0  0  0
  187.9230  176.1170  143.9750 O   0  0  0  0  0  0  0  0  0  0  0  0
  188.7150  177.8460  137.5070 C   0  0  0  0  0  2  0  0  0  0  0  0
  187.7710  178.6190  141.1820 C   0  0  2  0  0  3  0  0  0  0  0  0
  187.8720  177.8040  138.7800 C   0  0  0  0  0  2  0  0  0  0  0  0
  191.4090  177.5380  147.1900 O   0  0  0  0  0  1  0  0  0  0  0  0
  191.8870  177.2750  144.9000 C   0  0  0  0  0  3  0  0  0  0  0  0
  188.0250  177.1960  141.7510 C   0  0  1  0  0  3  0  0  0  0  0  0
  190.2210  177.8800  137.7830 C   0  0  0  0  0  2  0  0  0  0  0  0
  190.1250  176.1480  139.5990 N   0  0  0  0  0  2  0  0  0  0  0  0
  191.0920  175.4570  137.4030 C   0  0  2  0  0  3  0  0  0  0  0  0
  190.7860  174.2050  137.9420 O   0  0  0  0  0  1  0  0  0  0  0  0
  192.4490  175.4590  136.6890 C   0  0  0  0  0  2  0  0  0  0  0  0
  194.1380  173.7350  137.5340 N   0  0  0  0  0  0  0  0  0  0  0  0
  194.1030  175.9330  138.3250 O   0  0  0  0  0  0  0  0  0  0  0  0
  193.5970  175.0640  137.5650 C   0  0  0  0  0  0  0  0  0  0  0  0
  193.7330  172.6060  136.2360 S   0  0  0  0  0  1  0  0  0  0  0  0
  195.1190  173.3180  138.5220 C   0  0  0  0  0  1  0  0  0  0  0  0
  1 21  1  6  0  0  0
  1 20  1  0  0  0  0
  2 17  1  0  0  0  0
  4  9  1  1  0  0  0
  5 11  1  6  0  0  0
  5  7  1  0  0  0  0
  6 16  1  0  0  0  0
  7  2  1  6  0  0  0
  7  4  1  0  0  0  0
  8 12  1  0  0  0  0
  9  6  1  0  0  0  0
 10 14  1  0  0  0  0
 12  4  1  0  0  0  0
 13 19  1  0  0  0  0
 13 15  1  0  0  0  0
 14  3  1  6  0  0  0
 14 18  1  0  0  0  0
 15 10  1  0  0  0  0
 17  6  2  0  0  0  0
 18  5  1  0  0  0  0
 18  8  1  1  0  0  0
 19  1  1  0  0  0  0
 20 11  1  0  0  0  0
 21 22  1  1  0  0  0
 23 21  1  0  0  0  0
 23 26  1  0  0  0  0
 24 26  1  0  0  0  0
 24 28  1  0  0  0  0
 26 25  2  0  0  0  0
 27 24  1  0  0  0  0
M  END
>  <MODEL>
3

>  <REMARK>
 VINA RESULT:      -7.3      3.417      6.069
  Name = 
  3 active torsions:
  status: ('A' for Active; 'I' for Inactive)
    1  A    between atoms: C_1  and  C_2
    2  A    between atoms: C_2  and  C_3
    3  A    between atoms: C_3  and  C_11
                            x       y       z     vdW  Elec       q    Type
                         _______ _______ _______ _____ _____    ______ ____

>  <TORSDO>
F 3

$$$$
=
 OpenBabel11052413303D

 28 30  0  0  1  0  0  0  0  0999 V2000
  189.2800  176.9110  142.0640 C   0  0  1  0  0  3  0  0  0  0  0  0
  184.2590  177.8710  141.6020 C   0  0  0  0  0  2  0  0  0  0  0  0
  186.6760  177.9660  147.1730 C   0  0  0  0  0  1  0  0  0  0  0  0
  183.9900  179.6330  143.2860 C   0  0  1  0  0  3  0  0  0  0  0  0
  186.1330  178.4650  143.2740 C   0  0  2  0  0  3  0  0  0  0  0  0
  181.9490  178.6320  142.2320 C   0  0  0  0  0  0  0  0  0  0  0  0
  184.6490  178.2770  143.0190 C   0  0  2  0  0  3  0  0  0  0  0  0
  185.1460  179.5900  145.3140 C   0  0  0  0  0  2  0  0  0  0  0  0
  182.4760  179.4780  143.3730 C   0  0  0  0  0  2  0  0  0  0  0  0
  187.7390  176.6530  145.3640 C   0  0  0  0  0  2  0  0  0  0  0  0
  187.0390  177.4220  142.6280 C   0  0  0  0  0  2  0  0  0  0  0  0
  184.5550  180.4150  144.3320 O   0  0  0  0  0  0  0  0  0  0  0  0
  190.1130  176.6030  144.5110 C   0  0  0  0  0  2  0  0  0  0  0  0
  186.5560  177.5540  145.7100 C   0  0  2  0  0  3  0  0  0  0  0  0
  189.0440  177.4310  145.2210 C   0  0  0  0  0  2  0  0  0  0  0  0
  180.5800  178.5960  142.0080 O   0  0  0  0  0  1  0  0  0  0  0  0
  182.7540  177.8750  141.4650 C   0  0  0  0  0  3  0  0  0  0  0  0
  186.3610  178.7840  144.7820 C   0  0  1  0  0  3  0  0  0  0  0  0
  189.6110  175.9490  143.2210 C   0  0  0  0  0  2  0  0  0  0  0  0
  188.3680  177.9870  142.4410 N   0  0  0  0  0  2  0  0  0  0  0  0
  190.4930  177.4180  141.2620 C   0  0  2  0  0  3  0  0  0  0  0  0
  191.2530  178.3440  141.9800 O   0  0  0  0  0  1  0  0  0  0  0  0
  190.2340  177.8810  139.8230 C   0  0  0  0  0  2  0  0  0  0  0  0
  189.0300  176.9260  137.7800 N   0  0  0  0  0  0  0  0  0  0  0  0
  190.5640  175.6730  139.0180 O   0  0  0  0  0  0  0  0  0  0  0  0
  189.9540  176.7640  138.8660 C   0  0  0  0  0  0  0  0  0  0  0  0
  188.4500  178.5240  137.2930 S   0  0  0  0  0  1  0  0  0  0  0  0
  188.6280  175.7810  136.9800 C   0  0  0  0  0  1  0  0  0  0  0  0
  1 21  1  1  0  0  0
  1 20  1  0  0  0  0
  1 19  1  0  0  0  0
  4  9  1  1  0  0  0
  4 12  1  0  0  0  0
  5 11  1  1  0  0  0
  5 18  1  0  0  0  0
  6  9  1  0  0  0  0
  7  2  1  6  0  0  0
  7  5  1  0  0  0  0
  7  4  1  0  0  0  0
 10 14  1  0  0  0  0
 12  8  1  0  0  0  0
 13 15  1  0  0  0  0
 14  3  1  1  0  0  0
 15 10  1  0  0  0  0
 16  6  1  0  0  0  0
 17  2  1  0  0  0  0
 17  6  2  0  0  0  0
 18  8  1  1  0  0  0
 18 14  1  0  0  0  0
 19 13  1  0  0  0  0
 20 11  1  0  0  0  0
 21 22  1  1  0  0  0
 23 21  1  0  0  0  0
 24 26  1  0  0  0  0
 26 25  2  0  0  0  0
 26 23  1  0  0  0  0
 27 24  1  0  0  0  0
 28 24  1  0  0  0  0
M  END
>  <MODEL>
4

>  <REMARK>
 VINA RESULT:      -7.3      1.630      1.678
  Name = 
  3 active torsions:
  status: ('A' for Active; 'I' for Inactive)
    1  A    between atoms: C_1  and  C_2
    2  A    between atoms: C_2  and  C_3
    3  A    between atoms: C_3  and  C_11
                            x       y       z     vdW  Elec       q    Type
                         _______ _______ _______ _____ _____    ______ ____

>  <TORSDO>
F 3

$$$$
=
 OpenBabel11052413303D

 28 30  0  0  1  0  0  0  0  0999 V2000
  183.5190  178.9020  142.3380 C   0  0  1  0  0  3  0  0  0  0  0  0
  188.3120  178.2570  140.6170 C   0  0  0  0  0  2  0  0  0  0  0  0
  187.3560  177.8510  146.6000 C   0  0  0  0  0  1  0  0  0  0  0  0
  189.0770  176.4640  142.1040 C   0  0  1  0  0  3  0  0  0  0  0  0
  186.9410  177.5020  142.6700 C   0  0  2  0  0  3  0  0  0  0  0  0
  190.7410  177.6160  140.6260 C   0  0  0  0  0  0  0  0  0  0  0  0
  188.3050  177.7860  142.0670 C   0  0  2  0  0  3  0  0  0  0  0  0
  188.4590  176.3770  144.3540 C   0  0  0  0  0  2  0  0  0  0  0  0
  190.5560  176.7070  141.8240 C   0  0  0  0  0  2  0  0  0  0  0  0
  185.8130  179.1520  145.1670 C   0  0  0  0  0  2  0  0  0  0  0  0
  185.8530  178.5090  142.3120 C   0  0  0  0  0  2  0  0  0  0  0  0
  188.8290  175.6190  143.2220 O   0  0  0  0  0  0  0  0  0  0  0  0
  183.3030  179.0860  144.9260 C   0  0  0  0  0  2  0  0  0  0  0  0
  187.0900  178.3130  145.1720 C   0  0  2  0  0  3  0  0  0  0  0  0
  184.5550  178.3020  145.3150 C   0  0  0  0  0  2  0  0  0  0  0  0
  192.0080  177.7410  140.0750 O   0  0  0  0  0  1  0  0  0  0  0  0
  189.7340  178.3470  140.1150 C   0  0  0  0  0  3  0  0  0  0  0  0
  187.1110  177.1250  144.1720 C   0  0  1  0  0  3  0  0  0  0  0  0
  183.4370  179.8070  143.5820 C   0  0  0  0  0  2  0  0  0  0  0  0
  184.5500  177.8710  142.4330 N   0  0  0  0  0  2  0  0  0  0  0  0
  182.1730  178.3480  141.8370 C   0  0  2  0  0  3  0  0  0  0  0  0
  182.3190  177.5520  140.6980 O   0  0  0  0  0  1  0  0  0  0  0  0
  181.0170  179.3460  141.6950 C   0  0  0  0  0  2  0  0  0  0  0  0
  180.0240  179.5680  139.3500 N   0  0  0  0  0  0  0  0  0  0  0  0
  179.1560  178.0850  140.9320 O   0  0  0  0  0  0  0  0  0  0  0  0
  180.0110  178.9670  140.6530 C   0  0  0  0  0  0  0  0  0  0  0  0
  181.4110  180.5050  138.7800 S   0  0  0  0  0  1  0  0  0  0  0  0
  178.9320  179.3300  138.4210 C   0  0  0  0  0  1  0  0  0  0  0  0
  1 21  1  1  0  0  0
  1 20  1  0  0  0  0
  1 19  1  0  0  0  0
  4  9  1  1  0  0  0
  4 12  1  0  0  0  0
  5 11  1  1  0  0  0
  5 18  1  0  0  0  0
  6  9  1  0  0  0  0
  7  2  1  6  0  0  0
  7  4  1  0  0  0  0
  7  5  1  0  0  0  0
 10 14  1  0  0  0  0
 10 15  1  0  0  0  0
 11 20  1  0  0  0  0
 12  8  1  0  0  0  0
 13 15  1  0  0  0  0
 14  3  1  1  0  0  0
 16  6  1  0  0  0  0
 17  2  1  0  0  0  0
 17  6  2  0  0  0  0
 18  8  1  6  0  0  0
 18 14  1  0  0  0  0
 19 13  1  0  0  0  0
 21 22  1  6  0  0  0
 23 21  1  0  0  0  0
 24 26  1  0  0  0  0
 26 25  2  0  0  0  0
 26 23  1  0  0  0  0
 27 24  1  0  0  0  0
 28 24  1  0  0  0  0
M  END
>  <MODEL>
5

>  <REMARK>
 VINA RESULT:      -7.1      3.510      7.649
  Name = 
  3 active torsions:
  status: ('A' for Active; 'I' for Inactive)
    1  A    between atoms: C_1  and  C_2
    2  A    between atoms: C_2  and  C_3
    3  A    between atoms: C_3  and  C_11
                            x       y       z     vdW  Elec       q    Type
                         _______ _______ _______ _____ _____    ______ ____

>  <TORSDO>
F 3

$$$$
=
 OpenBabel11052413303D

 28 30  0  0  1  0  0  0  0  0999 V2000
  182.8410  178.4200  141.1140 C   0  0  1  0  0  3  0  0  0  0  0  0
  187.9510  178.0130  140.8410 C   0  0  0  0  0  2  0  0  0  0  0  0
  185.4650  179.0650  146.2810 C   0  0  0  0  0  1  0  0  0  0  0  0
  188.4080  176.7970  142.9200 C   0  0  1  0  0  3  0  0  0  0  0  0
  186.1350  177.6420  142.6380 C   0  0  2  0  0  3  0  0  0  0  0  0
  190.3260  177.7380  141.6110 C   0  0  0  0  0  0  0  0  0  0  0  0
  187.5890  177.9430  142.3200 C   0  0  2  0  0  3  0  0  0  0  0  0
  187.2200  177.2200  144.8860 C   0  0  0  0  0  2  0  0  0  0  0  0
  189.8890  177.1590  142.9410 C   0  0  0  0  0  2  0  0  0  0  0  0
  184.2770  179.7180  144.2090 C   0  0  0  0  0  2  0  0  0  0  0  0
  185.1180  178.3590  141.7570 C   0  0  0  0  0  2  0  0  0  0  0  0
  187.9270  176.2490  144.1420 O   0  0  0  0  0  0  0  0  0  0  0  0
  181.9320  179.2460  143.4090 C   0  0  0  0  0  2  0  0  0  0  0  0
  185.5580  179.0940  144.7590 C   0  0  2  0  0  3  0  0  0  0  0  0
  183.0840  178.7720  144.2940 C   0  0  0  0  0  2  0  0  0  0  0  0
  191.6840  177.8870  141.3640 O   0  0  0  0  0  1  0  0  0  0  0  0
  189.4460  178.1630  140.6860 C   0  0  0  0  0  3  0  0  0  0  0  0
  185.9230  177.7000  144.1800 C   0  0  1  0  0  3  0  0  0  0  0  0
  182.3710  179.5990  141.9860 C   0  0  0  0  0  2  0  0  0  0  0  0
  183.8740  177.6020  141.7450 N   0  0  0  0  0  2  0  0  0  0  0  0
  181.7160  177.5730  140.4900 C   0  0  2  0  0  3  0  0  0  0  0  0
  182.2090  176.4630  139.8000 O   0  0  0  0  0  1  0  0  0  0  0  0
  180.6450  178.3200  139.6860 C   0  0  0  0  0  2  0  0  0  0  0  0
  180.7010  180.6820  138.7120 N   0  0  0  0  0  0  0  0  0  0  0  0
  182.1290  178.9930  137.9600 O   0  0  0  0  0  0  0  0  0  0  0  0
  181.1960  179.3360  138.7350 C   0  0  0  0  0  0  0  0  0  0  0  0
  179.6860  181.3140  140.0140 S   0  0  0  0  0  1  0  0  0  0  0  0
  181.1110  181.5980  137.6600 C   0  0  0  0  0  1  0  0  0  0  0  0
  1 21  1  1  0  0  0
  1 20  1  0  0  0  0
  1 19  1  0  0  0  0
  4  9  1  1  0  0  0
  4 12  1  0  0  0  0
  5 11  1  6  0  0  0
  5 18  1  0  0  0  0
  6  9  1  0  0  0  0
  7  2  1  6  0  0  0
  7  5  1  0  0  0  0
  7  4  1  0  0  0  0
 10 15  1  0  0  0  0
 10 14  1  0  0  0  0
 12  8  1  0  0  0  0
 13 15  1  0  0  0  0
 14  3  1  1  0  0  0
 16  6  1  0  0  0  0
 17  2  1  0  0  0  0
 17  6  2  0  0  0  0
 18 14  1  0  0  0  0
 18  8  1  1  0  0  0
 19 13  1  0  0  0  0
 20 11  1  0  0  0  0
 21 22  1  6  0  0  0
 23 21  1  0  0  0  0
 24 26  1  0  0  0  0
 24 27  1  0  0  0  0
 25 26  2  0  0  0  0
 26 23  1  0  0  0  0
 28 24  1  0  0  0  0
M  END
>  <MODEL>
6

>  <REMARK>
 VINA RESULT:      -6.9      4.005      7.444
  Name = 
  3 active torsions:
  status: ('A' for Active; 'I' for Inactive)
    1  A    between atoms: C_1  and  C_2
    2  A    between atoms: C_2  and  C_3
    3  A    between atoms: C_3  and  C_11
                            x       y       z     vdW  Elec       q    Type
                         _______ _______ _______ _____ _____    ______ ____

>  <TORSDO>
F 3

$$$$
=
 OpenBabel11052413303D

 28 30  0  0  1  0  0  0  0  0999 V2000
  182.8280  178.5680  141.0110 C   0  0  1  0  0  3  0  0  0  0  0  0
  187.9360  178.0870  140.8430 C   0  0  0  0  0  2  0  0  0  0  0  0
  185.3380  179.0000  146.2560 C   0  0  0  0  0  1  0  0  0  0  0  0
  188.3250  176.7960  142.8910 C   0  0  1  0  0  3  0  0  0  0  0  0
  186.0730  177.6870  142.5840 C   0  0  2  0  0  3  0  0  0  0  0  0
  190.2880  177.7480  141.6580 C   0  0  0  0  0  0  0  0  0  0  0  0
  187.5380  177.9740  142.3100 C   0  0  2  0  0  3  0  0  0  0  0  0
  187.0970  177.1730  144.8410 C   0  0  0  0  0  2  0  0  0  0  0  0
  189.8100  177.1320  142.9580 C   0  0  0  0  0  2  0  0  0  0  0  0
  184.2110  179.7400  144.1800 C   0  0  0  0  0  2  0  0  0  0  0  0
  185.0880  178.4490  141.7040 C   0  0  0  0  0  2  0  0  0  0  0  0
  187.8060  176.2160  144.0820 O   0  0  0  0  0  0  0  0  0  0  0  0
  181.8780  179.3330  143.3110 C   0  0  0  0  0  2  0  0  0  0  0  0
  185.4690  179.0770  144.7390 C   0  0  2  0  0  3  0  0  0  0  0  0
  183.0010  178.8110  144.2050 C   0  0  0  0  0  2  0  0  0  0  0  0
  191.6530  177.8820  141.4480 O   0  0  0  0  0  1  0  0  0  0  0  0
  189.4370  178.2170  140.7280 C   0  0  0  0  0  3  0  0  0  0  0  0
  185.8250  177.6970  144.1220 C   0  0  1  0  0  3  0  0  0  0  0  0
  182.3570  179.7260  141.9110 C   0  0  0  0  0  2  0  0  0  0  0  0
  183.8330  177.7130  141.6370 N   0  0  0  0  0  2  0  0  0  0  0  0
  181.7060  177.7610  140.3330 C   0  0  2  0  0  3  0  0  0  0  0  0
  180.6010  177.5850  141.1700 O   0  0  0  0  0  1  0  0  0  0  0  0
  182.1080  176.4580  139.6320 C   0  0  0  0  0  2  0  0  0  0  0  0
  182.8430  177.0160  137.2490 N   0  0  0  0  0  0  0  0  0  0  0  0
  180.8130  175.9570  137.7070 O   0  0  0  0  0  0  0  0  0  0  0  0
  181.8750  176.4660  138.1540 C   0  0  0  0  0  0  0  0  0  0  0  0
  184.4910  177.3830  137.7730 S   0  0  0  0  0  1  0  0  0  0  0  0
  182.5200  177.1880  135.8420 C   0  0  0  0  0  1  0  0  0  0  0  0
  1 21  1  1  0  0  0
  1 20  1  0  0  0  0
  1 19  1  0  0  0  0
  4  9  1  1  0  0  0
  4 12  1  0  0  0  0
  5 11  1  6  0  0  0
  5 18  1  0  0  0  0
  6  9  1  0  0  0  0
  7  2  1  6  0  0  0
  7  5  1  0  0  0  0
  7  4  1  0  0  0  0
 10 15  1  0  0  0  0
 10 14  1  0  0  0  0
 12  8  1  0  0  0  0
 13 15  1  0  0  0  0
 14  3  1  1  0  0  0
 16  6  1  0  0  0  0
 17  2  1  0  0  0  0
 17  6  2  0  0  0  0
 18 14  1  0  0  0  0
 18  8  1  1  0  0  0
 19 13  1  0  0  0  0
 20 11  1  0  0  0  0
 21 22  1  1  0  0  0
 23 21  1  0  0  0  0
 24 27  1  0  0  0  0
 24 26  1  0  0  0  0
 25 26  2  0  0  0  0
 26 23  1  0  0  0  0
 28 24  1  0  0  0  0
M  END
>  <MODEL>
7

>  <REMARK>
 VINA RESULT:      -6.6      3.256      6.770
  Name = 
  3 active torsions:
  status: ('A' for Active; 'I' for Inactive)
    1  A    between atoms: C_1  and  C_2
    2  A    between atoms: C_2  and  C_3
    3  A    between atoms: C_3  and  C_11
                            x       y       z     vdW  Elec       q    Type
                         _______ _______ _______ _____ _____    ______ ____

>  <TORSDO>
F 3

$$$$
=
 OpenBabel11052413303D

 28 30  0  0  1  0  0  0  0  0999 V2000
  183.6150  179.1010  142.4990 C   0  0  1  0  0  3  0  0  0  0  0  0
  188.3450  178.2580  140.6910 C   0  0  0  0  0  2  0  0  0  0  0  0
  187.4490  177.7410  146.6750 C   0  0  0  0  0  1  0  0  0  0  0  0
  189.0360  176.3890  142.1200 C   0  0  1  0  0  3  0  0  0  0  0  0
  186.9650  177.5190  142.7430 C   0  0  2  0  0  3  0  0  0  0  0  0
  190.7370  177.4940  140.6480 C   0  0  0  0  0  0  0  0  0  0  0  0
  188.3330  177.7490  142.1280 C   0  0  2  0  0  3  0  0  0  0  0  0
  188.4450  176.2740  144.3760 C   0  0  0  0  0  2  0  0  0  0  0  0
  190.5220  176.5630  141.8240 C   0  0  0  0  0  2  0  0  0  0  0  0
  185.9560  179.1570  145.2990 C   0  0  0  0  0  2  0  0  0  0  0  0
  185.9250  178.5890  142.4280 C   0  0  0  0  0  2  0  0  0  0  0  0
  188.7600  175.5280  143.2180 O   0  0  0  0  0  0  0  0  0  0  0  0
  183.4430  179.2260  145.0940 C   0  0  0  0  0  2  0  0  0  0  0  0
  187.1880  178.2540  145.2640 C   0  0  2  0  0  3  0  0  0  0  0  0
  184.6580  178.3690  145.4430 C   0  0  0  0  0  2  0  0  0  0  0  0
  192.0020  177.5680  140.0820 O   0  0  0  0  0  1  0  0  0  0  0  0
  189.7620  178.2890  140.1710 C   0  0  0  0  0  3  0  0  0  0  0  0
  187.1340  177.0940  144.2330 C   0  0  1  0  0  3  0  0  0  0  0  0
  183.5960  179.9750  143.7670 C   0  0  0  0  0  2  0  0  0  0  0  0
  184.5920  178.0160  142.5520 N   0  0  0  0  0  2  0  0  0  0  0  0
  182.2350  178.6290  142.0030 C   0  0  2  0  0  3  0  0  0  0  0  0
  181.4350  178.1490  143.0430 O   0  0  0  0  0  1  0  0  0  0  0  0
  182.2110  177.6990  140.7840 C   0  0  0  0  0  2  0  0  0  0  0  0
  183.5360  177.3260  138.6300 N   0  0  0  0  0  0  0  0  0  0  0  0
  183.1240  179.4610  139.4820 O   0  0  0  0  0  0  0  0  0  0  0  0
  182.9830  178.2160  139.6100 C   0  0  0  0  0  0  0  0  0  0  0  0
  183.0490  175.6280  138.5480 S   0  0  0  0  0  1  0  0  0  0  0  0
  184.4390  177.8280  137.6080 C   0  0  0  0  0  1  0  0  0  0  0  0
  1 21  1  1  0  0  0
  1 20  1  0  0  0  0
  1 19  1  0  0  0  0
  4  9  1  1  0  0  0
  4  7  1  0  0  0  0
  4 12  1  0  0  0  0
  5 11  1  1  0  0  0
  5 18  1  0  0  0  0
  6  9  1  0  0  0  0
  7  2  1  6  0  0  0
  7  5  1  0  0  0  0
 10 15  1  0  0  0  0
 11 20  1  0  0  0  0
 12  8  1  0  0  0  0
 13 15  1  0  0  0  0
 14 10  1  0  0  0  0
 14  3  1  1  0  0  0
 16  6  1  0  0  0  0
 17  6  2  0  0  0  0
 17  2  1  0  0  0  0
 18  8  1  6  0  0  0
 18 14  1  0  0  0  0
 19 13  1  0  0  0  0
 21 22  1  1  0  0  0
 23 21  1  0  0  0  0
 24 26  1  0  0  0  0
 25 26  2  0  0  0  0
 26 23  1  0  0  0  0
 27 24  1  0  0  0  0
 28 24  1  0  0  0  0
M  END
>  <MODEL>
8

>  <REMARK>
 VINA RESULT:      -6.6      3.120      6.714
  Name = 
  3 active torsions:
  status: ('A' for Active; 'I' for Inactive)
    1  A    between atoms: C_1  and  C_2
    2  A    between atoms: C_2  and  C_3
    3  A    between atoms: C_3  and  C_11
                            x       y       z     vdW  Elec       q    Type
                         _______ _______ _______ _____ _____    ______ ____

>  <TORSDO>
F 3

$$$$
=
 OpenBabel11052413303D

 28 30  0  0  1  0  0  0  0  0999 V2000
  182.8410  178.3560  140.8900 C   0  0  1  0  0  3  0  0  0  0  0  0
  187.9590  177.9830  140.7600 C   0  0  0  0  0  2  0  0  0  0  0  0
  185.3120  178.9840  146.1330 C   0  0  0  0  0  1  0  0  0  0  0  0
  188.3640  176.7570  142.8440 C   0  0  1  0  0  3  0  0  0  0  0  0
  186.0950  177.5890  142.5020 C   0  0  2  0  0  3  0  0  0  0  0  0
  190.3130  177.7180  141.5950 C   0  0  0  0  0  0  0  0  0  0  0  0
  187.5550  177.9010  142.2280 C   0  0  2  0  0  3  0  0  0  0  0  0
  187.1180  177.1590  144.7770 C   0  0  0  0  0  2  0  0  0  0  0  0
  189.8420  177.1280  142.9090 C   0  0  0  0  0  2  0  0  0  0  0  0
  184.1800  179.6430  144.0330 C   0  0  0  0  0  2  0  0  0  0  0  0
  185.0990  178.3060  141.5970 C   0  0  0  0  0  2  0  0  0  0  0  0
  187.8530  176.1980  144.0480 O   0  0  0  0  0  0  0  0  0  0  0  0
  181.8610  179.1610  143.1640 C   0  0  0  0  0  2  0  0  0  0  0  0
  185.4490  179.0230  144.6160 C   0  0  2  0  0  3  0  0  0  0  0  0
  182.9910  178.6880  144.0780 C   0  0  0  0  0  2  0  0  0  0  0  0
  191.6760  177.8780  141.3880 O   0  0  0  0  0  1  0  0  0  0  0  0
  189.4560  178.1440  140.6490 C   0  0  0  0  0  3  0  0  0  0  0  0
  185.8390  177.6350  144.0380 C   0  0  1  0  0  3  0  0  0  0  0  0
  182.3390  179.5270  141.7560 C   0  0  0  0  0  2  0  0  0  0  0  0
  183.8610  177.5410  141.5450 N   0  0  0  0  0  2  0  0  0  0  0  0
  181.7390  177.5060  140.2290 C   0  0  2  0  0  3  0  0  0  0  0  0
  180.5250  177.5860  140.9150 O   0  0  0  0  0  1  0  0  0  0  0  0
  182.0980  176.0600  139.8640 C   0  0  0  0  0  2  0  0  0  0  0  0
  180.2910  174.5110  138.9310 N   0  0  0  0  0  0  0  0  0  0  0  0
  181.5240  175.9490  137.5640 O   0  0  0  0  0  0  0  0  0  0  0  0
  181.3030  175.5070  138.7230 C   0  0  0  0  0  0  0  0  0  0  0  0
  179.6790  174.1430  140.5480 S   0  0  0  0  0  1  0  0  0  0  0  0
  179.6660  173.8500  137.7970 C   0  0  0  0  0  1  0  0  0  0  0  0
  1 21  1  1  0  0  0
  1 20  1  0  0  0  0
  1 19  1  0  0  0  0
  4  9  1  1  0  0  0
  4 12  1  0  0  0  0
  5 11  1  6  0  0  0
  5 18  1  0  0  0  0
  6  9  1  0  0  0  0
  7  2  1  6  0  0  0
  7  5  1  0  0  0  0
  7  4  1  0  0  0  0
 10 15  1  0  0  0  0
 10 14  1  0  0  0  0
 12  8  1  0  0  0  0
 13 15  1  0  0  0  0
 14  3  1  1  0  0  0
 16  6  1  0  0  0  0
 17  2  1  0  0  0  0
 17  6  2  0  0  0  0
 18 14  1  0  0  0  0
 18  8  1  1  0  0  0
 19 13  1  0  0  0  0
 20 11  1  0  0  0  0
 21 22  1  1  0  0  0
 23 21  1  0  0  0  0
 24 27  1  0  0  0  0
 25 26  2  0  0  0  0
 26 24  1  0  0  0  0
 26 23  1  0  0  0  0
 28 24  1  0  0  0  0
M  END
>  <MODEL>
9

>  <REMARK>
 VINA RESULT:      -6.6      3.982      7.379
  Name = 
  3 active torsions:
  status: ('A' for Active; 'I' for Inactive)
    1  A    between atoms: C_1  and  C_2
    2  A    between atoms: C_2  and  C_3
    3  A    between atoms: C_3  and  C_11
                            x       y       z     vdW  Elec       q    Type
                         _______ _______ _______ _____ _____    ______ ____

>  <TORSDO>
F 3

$$$$
