=
 OpenBabel11052416223D

 43 47  0  0  1  0  0  0  0  0999 V2000
  184.7350  178.6130  145.4590 C   0  0  0  0  0  0  0  0  0  0  0  0
  183.1300  178.7310  140.6570 C   0  0  0  0  0  0  0  0  0  0  0  0
  185.4200  178.3950  139.1090 C   0  0  0  0  0  0  0  0  0  0  0  0
  183.3780  178.7840  143.4600 C   0  0  0  0  0  0  0  0  0  0  0  0
  185.8720  178.4090  144.6740 C   0  0  0  0  0  3  0  0  0  0  0  0
  184.8380  178.6270  146.8090 F   0  0  0  0  0  0  0  0  0  0  0  0
  184.5260  178.5750  142.6580 C   0  0  0  0  0  0  0  0  0  0  0  0
  183.4890  178.8010  144.8530 C   0  0  0  0  0  3  0  0  0  0  0  0
  185.7700  178.3900  143.2800 C   0  0  0  0  0  3  0  0  0  0  0  0
  185.5010  178.3960  140.4670 N   0  0  0  0  0  0  0  0  0  0  0  0
  184.4030  178.5580  141.2560 C   0  0  0  0  0  0  0  0  0  0  0  0
  182.0100  178.9550  141.4710 C   0  0  0  0  0  3  0  0  0  0  0  0
  183.0280  178.7070  139.2500 C   0  0  0  0  0  0  0  0  0  0  0  0
  184.1850  178.5630  138.4840 C   0  0  0  0  0  3  0  0  0  0  0  0
  182.1330  178.9780  142.8620 C   0  0  0  0  0  3  0  0  0  0  0  0
  186.6500  178.2480  138.2750 C   0  0  2  0  0  3  0  0  0  0  0  0
  186.4150  177.2370  137.1640 C   0  0  0  0  0  1  0  0  0  0  0  0
  187.8300  177.8350  139.1530 C   0  0  0  0  0  2  0  0  0  0  0  0
  189.1050  178.6270  138.8610 C   0  0  2  0  0  3  0  0  0  0  0  0
  188.8480  179.6570  137.9550 O   0  0  0  0  0  1  0  0  0  0  0  0
  190.2340  177.7470  138.3430 C   0  0  0  0  0  2  0  0  0  0  0  0
  190.4180  176.5200  139.2310 C   0  0  1  0  0  3  0  0  0  0  0  0
  190.8470  175.3210  138.3910 C   0  0  0  0  0  2  0  0  0  0  0  0
  188.9470  174.6310  136.9430 C   0  0  0  0  0  1  0  0  0  0  0  0
  190.2540  175.3970  136.9950 C   0  0  0  0  0  2  0  0  0  0  0  0
  191.4330  176.7720  140.3510 C   0  0  2  0  0  3  0  0  0  0  0  0
  190.7690  177.0040  141.6750 C   0  0  0  0  0  0  0  0  0  0  0  0
  190.7280  178.1520  143.8120 C   0  0  0  0  0  3  0  0  0  0  0  0
  189.0020  176.5400  143.2760 C   0  0  0  0  0  3  0  0  0  0  0  0
  189.5640  177.4610  144.1640 C   0  0  0  0  0  3  0  0  0  0  0  0
  189.6040  176.3100  142.0340 C   0  0  0  0  0  3  0  0  0  0  0  0
  191.3300  177.9230  142.5710 C   0  0  0  0  0  3  0  0  0  0  0  0
  192.3010  177.8250  140.0350 O   0  0  0  0  0  0  0  0  0  0  0  0
  193.4580  177.2450  139.7940 O   0  0  0  0  0  1  0  0  0  0  0  0
  181.7790  178.8840  138.5680 N   0  0  0  0  0  2  0  0  0  0  0  0
  180.4860  181.1920  135.9150 C   0  0  0  0  0  3  0  0  0  0  0  0
  180.6610  182.4380  136.5380 C   0  0  0  0  0  0  0  0  0  0  0  0
  181.5610  181.3140  138.4910 C   0  0  0  0  0  3  0  0  0  0  0  0
  180.8450  180.0160  136.5800 C   0  0  0  0  0  3  0  0  0  0  0  0
  181.3730  180.0720  137.8780 C   0  0  0  0  0  0  0  0  0  0  0  0
  181.2020  182.4910  137.8260 C   0  0  0  0  0  3  0  0  0  0  0  0
  180.3120  183.6320  135.9010 O   0  0  0  0  0  0  0  0  0  0  0  0
  180.4610  184.9040  136.5190 C   0  0  0  0  0  1  0  0  0  0  0  0
  1  6  1  0  0  0  0
  2 11  1  0  0  0  0
  2 12  1  0  0  0  0
  3 10  1  0  0  0  0
  4  8  2  0  0  0  0
  5  1  2  0  0  0  0
  7  9  2  0  0  0  0
  7  4  1  0  0  0  0
  8  1  1  0  0  0  0
  9  5  1  0  0  0  0
 10 11  2  0  0  0  0
 11  7  1  0  0  0  0
 12 15  2  0  0  0  0
 13  2  2  0  0  0  0
 14  3  2  0  0  0  0
 14 13  1  0  0  0  0
 15  4  1  0  0  0  0
 16 17  1  6  0  0  0
 16  3  1  0  0  0  0
 16 18  1  0  0  0  0
 19 20  1  6  0  0  0
 19 18  1  0  0  0  0
 21 19  1  0  0  0  0
 22 21  1  6  0  0  0
 22 26  1  0  0  0  0
 23 22  1  0  0  0  0
 24 25  1  0  0  0  0
 25 23  1  0  0  0  0
 26 33  1  6  0  0  0
 26 27  1  0  0  0  0
 27 31  2  0  0  0  0
 27 32  1  0  0  0  0
 28 30  1  0  0  0  0
 29 30  2  0  0  0  0
 31 29  1  0  0  0  0
 32 28  2  0  0  0  0
 34 33  1  0  0  0  0
 35 13  1  0  0  0  0
 36 37  2  0  0  0  0
 36 39  1  0  0  0  0
 37 41  1  0  0  0  0
 39 40  2  0  0  0  0
 40 38  1  0  0  0  0
 40 35  1  0  0  0  0
 41 38  2  0  0  0  0
 42 43  1  0  0  0  0
 42 37  1  0  0  0  0
M  END
>  <MODEL>
1

>  <REMARK>
 VINA RESULT:      -8.3      0.000      0.000
  Name = 
  13 active torsions:
  status: ('A' for Active; 'I' for Inactive)
    1  A    between atoms: N_1  and  C_34
    2  A    between atoms: N_1  and  C_35
    3  A    between atoms: C_2  and  C_6
    4  A    between atoms: C_2  and  C_13
    5  A    between atoms: C_3  and  C_4
    6  A    between atoms: C_3  and  C_12
    7  A    between atoms: C_4  and  C_15
    8  A    between atoms: C_4  and  C_22
    9  A    between atoms: C_6  and  C_12
   10  A    between atoms: C_11  and  C_22
   11  A    between atoms: O_14  and  C_22
   12  A    between atoms: C_15  and  C_42
   13  A    between atoms: C_19  and  O_25
                            x       y       z     vdW  Elec       q    Type
                         _______ _______ _______ _____ _____    ______ ____

>  <TORSDO>
F 13

$$$$
=
 OpenBabel11052416223D

 43 47  0  0  1  0  0  0  0  0999 V2000
  183.8700  179.2710  139.4110 C   0  0  0  0  0  0  0  0  0  0  0  0
  188.5530  177.5640  138.5170 C   0  0  0  0  0  0  0  0  0  0  0  0
  189.7300  177.3000  141.0270 C   0  0  0  0  0  0  0  0  0  0  0  0
  185.9110  178.5180  138.3470 C   0  0  0  0  0  0  0  0  0  0  0  0
  184.4580  179.1010  140.6680 C   0  0  0  0  0  3  0  0  0  0  0  0
  182.5950  179.7180  139.3160 F   0  0  0  0  0  0  0  0  0  0  0  0
  186.5120  178.3400  139.6160 C   0  0  0  0  0  0  0  0  0  0  0  0
  184.5960  178.9820  138.2530 C   0  0  0  0  0  3  0  0  0  0  0  0
  185.7730  178.6380  140.7710 C   0  0  0  0  0  3  0  0  0  0  0  0
  188.4450  177.7300  140.9110 N   0  0  0  0  0  0  0  0  0  0  0  0
  187.8370  177.8720  139.7010 C   0  0  0  0  0  0  0  0  0  0  0  0
  187.9430  177.7670  137.2700 C   0  0  0  0  0  3  0  0  0  0  0  0
  189.8780  177.0930  138.6230 C   0  0  0  0  0  0  0  0  0  0  0  0
  190.4670  176.9870  139.8840 C   0  0  0  0  0  3  0  0  0  0  0  0
  186.6310  178.2360  137.1860 C   0  0  0  0  0  3  0  0  0  0  0  0
  190.3760  177.1880  142.3680 C   0  0  2  0  0  3  0  0  0  0  0  0
  190.4390  175.7320  142.8020 C   0  0  0  0  0  1  0  0  0  0  0  0
  189.6120  178.0310  143.3870 C   0  0  0  0  0  2  0  0  0  0  0  0
  190.5280  178.7940  144.3460 C   0  0  2  0  0  3  0  0  0  0  0  0
  191.8610  178.4330  144.1440 O   0  0  0  0  0  1  0  0  0  0  0  0
  190.1490  178.5870  145.8060 C   0  0  0  0  0  2  0  0  0  0  0  0
  189.3010  177.3280  145.9730 C   0  0  1  0  0  3  0  0  0  0  0  0
  190.1490  176.1940  146.5390 C   0  0  0  0  0  2  0  0  0  0  0  0
  192.3780  175.6210  147.4800 C   0  0  0  0  0  1  0  0  0  0  0  0
  191.3780  176.7360  147.2480 C   0  0  0  0  0  2  0  0  0  0  0  0
  188.0820  177.5760  146.8700 C   0  0  2  0  0  3  0  0  0  0  0  0
  186.8620  177.9380  146.0780 C   0  0  0  0  0  0  0  0  0  0  0  0
  184.6950  179.0230  145.9700 C   0  0  0  0  0  3  0  0  0  0  0  0
  185.5720  177.8870  144.0200 C   0  0  0  0  0  3  0  0  0  0  0  0
  184.5600  178.6280  144.6360 C   0  0  0  0  0  3  0  0  0  0  0  0
  186.7210  177.5400  144.7400 C   0  0  0  0  0  3  0  0  0  0  0  0
  185.8420  178.6780  146.6910 C   0  0  0  0  0  3  0  0  0  0  0  0
  188.3480  178.5420  147.8490 O   0  0  0  0  0  0  0  0  0  0  0  0
  188.3760  177.8710  148.9820 O   0  0  0  0  0  1  0  0  0  0  0  0
  190.6720  176.7680  137.4740 N   0  0  0  0  0  2  0  0  0  0  0  0
  194.0400  175.1690  137.8410 C   0  0  0  0  0  3  0  0  0  0  0  0
  193.7920  173.8980  137.2980 C   0  0  0  0  0  0  0  0  0  0  0  0
  191.4890  174.5420  136.8910 C   0  0  0  0  0  3  0  0  0  0  0  0
  193.0160  176.1170  137.9090 C   0  0  0  0  0  3  0  0  0  0  0  0
  191.7310  175.8030  137.4440 C   0  0  0  0  0  0  0  0  0  0  0  0
  192.5130  173.5930  136.8230 C   0  0  0  0  0  3  0  0  0  0  0  0
  194.7940  172.9270  137.2160 O   0  0  0  0  0  0  0  0  0  0  0  0
  196.1750  173.2360  137.3540 C   0  0  0  0  0  1  0  0  0  0  0  0
  1  5  1  0  0  0  0
  2 13  2  0  0  0  0
  2 11  1  0  0  0  0
  3 16  1  0  0  0  0
  4  7  2  0  0  0  0
  5  9  2  0  0  0  0
  6  1  1  0  0  0  0
  7 11  1  0  0  0  0
  7  9  1  0  0  0  0
  8  4  1  0  0  0  0
  8  1  2  0  0  0  0
 10  3  1  0  0  0  0
 11 10  2  0  0  0  0
 12  2  1  0  0  0  0
 13 14  1  0  0  0  0
 14  3  2  0  0  0  0
 15 12  2  0  0  0  0
 15  4  1  0  0  0  0
 16 17  1  1  0  0  0
 16 18  1  0  0  0  0
 18 19  1  0  0  0  0
 19 20  1  1  0  0  0
 19 21  1  0  0  0  0
 22 21  1  1  0  0  0
 22 23  1  0  0  0  0
 22 26  1  0  0  0  0
 23 25  1  0  0  0  0
 25 24  1  0  0  0  0
 26 33  1  1  0  0  0
 27 32  1  0  0  0  0
 27 26  1  0  0  0  0
 28 32  2  0  0  0  0
 29 30  2  0  0  0  0
 29 31  1  0  0  0  0
 30 28  1  0  0  0  0
 31 27  2  0  0  0  0
 33 34  1  0  0  0  0
 35 13  1  0  0  0  0
 36 39  1  0  0  0  0
 37 36  2  0  0  0  0
 38 40  1  0  0  0  0
 40 35  1  0  0  0  0
 40 39  2  0  0  0  0
 41 38  2  0  0  0  0
 41 37  1  0  0  0  0
 42 37  1  0  0  0  0
 42 43  1  0  0  0  0
M  END
>  <MODEL>
2

>  <REMARK>
 VINA RESULT:      -8.2      3.918      8.921
  Name = 
  13 active torsions:
  status: ('A' for Active; 'I' for Inactive)
    1  A    between atoms: N_1  and  C_34
    2  A    between atoms: N_1  and  C_35
    3  A    between atoms: C_2  and  C_6
    4  A    between atoms: C_2  and  C_13
    5  A    between atoms: C_3  and  C_4
    6  A    between atoms: C_3  and  C_12
    7  A    between atoms: C_4  and  C_15
    8  A    between atoms: C_4  and  C_22
    9  A    between atoms: C_6  and  C_12
   10  A    between atoms: C_11  and  C_22
   11  A    between atoms: O_14  and  C_22
   12  A    between atoms: C_15  and  C_42
   13  A    between atoms: C_19  and  O_25
                            x       y       z     vdW  Elec       q    Type
                         _______ _______ _______ _____ _____    ______ ____

>  <TORSDO>
F 13

$$$$
=
 OpenBabel11052416223D

 43 47  0  0  1  0  0  0  0  0999 V2000
  187.9470  177.5570  147.8580 C   0  0  0  0  0  0  0  0  0  0  0  0
  188.9950  177.7070  142.9070 C   0  0  0  0  0  0  0  0  0  0  0  0
  186.6200  178.4840  141.6760 C   0  0  0  0  0  0  0  0  0  0  0  0
  189.0440  177.4110  145.7050 C   0  0  0  0  0  0  0  0  0  0  0  0
  186.7700  177.9810  147.2350 C   0  0  0  0  0  3  0  0  0  0  0  0
  187.9880  177.4230  149.2060 F   0  0  0  0  0  0  0  0  0  0  0  0
  187.8570  177.8430  145.0660 C   0  0  0  0  0  0  0  0  0  0  0  0
  189.0820  177.2720  147.0950 C   0  0  0  0  0  3  0  0  0  0  0  0
  186.7240  178.1240  145.8450 C   0  0  0  0  0  3  0  0  0  0  0  0
  186.6870  178.3600  143.0290 N   0  0  0  0  0  0  0  0  0  0  0  0
  187.8300  177.9820  143.6650 C   0  0  0  0  0  0  0  0  0  0  0  0
  190.1530  177.2620  143.5600 C   0  0  0  0  0  3  0  0  0  0  0  0
  188.9480  177.8550  141.5040 C   0  0  0  0  0  0  0  0  0  0  0  0
  187.7470  178.2210  140.8960 C   0  0  0  0  0  3  0  0  0  0  0  0
  190.1790  177.1190  144.9480 C   0  0  0  0  0  3  0  0  0  0  0  0
  185.3410  178.8680  141.0100 C   0  0  2  0  0  3  0  0  0  0  0  0
  184.1550  178.4120  141.8450 C   0  0  0  0  0  1  0  0  0  0  0  0
  185.2840  178.2730  139.6040 C   0  0  0  0  0  2  0  0  0  0  0  0
  184.4130  179.0820  138.6420 C   0  0  2  0  0  3  0  0  0  0  0  0
  184.1470  180.3480  139.1640 O   0  0  0  0  0  1  0  0  0  0  0  0
  183.1070  178.3750  138.3020 C   0  0  0  0  0  2  0  0  0  0  0  0
  183.1840  176.8920  138.6560 C   0  0  1  0  0  3  0  0  0  0  0  0
  182.0250  176.5090  139.5700 C   0  0  0  0  0  2  0  0  0  0  0  0
  179.9820  177.7030  140.3310 C   0  0  0  0  0  1  0  0  0  0  0  0
  180.7380  177.1810  139.1260 C   0  0  0  0  0  2  0  0  0  0  0  0
  183.1870  176.0060  137.4060 C   0  0  2  0  0  3  0  0  0  0  0  0
  184.4210  175.1590  137.3160 C   0  0  0  0  0  0  0  0  0  0  0  0
  185.4920  173.0020  137.6070 C   0  0  0  0  0  3  0  0  0  0  0  0
  186.7820  174.8900  136.8080 C   0  0  0  0  0  3  0  0  0  0  0  0
  186.7060  173.5420  137.1710 C   0  0  0  0  0  3  0  0  0  0  0  0
  185.6420  175.6980  136.8820 C   0  0  0  0  0  3  0  0  0  0  0  0
  184.3530  173.8080  137.6810 C   0  0  0  0  0  3  0  0  0  0  0  0
  183.0120  176.7590  136.2380 O   0  0  0  0  0  0  0  0  0  0  0  0
  182.0700  176.1250  135.5700 O   0  0  0  0  0  1  0  0  0  0  0  0
  190.0800  177.5880  140.6650 N   0  0  0  0  0  2  0  0  0  0  0  0
  189.3860  177.9760  137.0050 C   0  0  0  0  0  3  0  0  0  0  0  0
  189.8750  176.7560  136.5100 C   0  0  0  0  0  0  0  0  0  0  0  0
  190.4990  176.1140  138.7650 C   0  0  0  0  0  3  0  0  0  0  0  0
  189.4570  178.2610  138.3710 C   0  0  0  0  0  3  0  0  0  0  0  0
  190.0250  177.3340  139.2570 C   0  0  0  0  0  0  0  0  0  0  0  0
  190.4280  175.8290  137.3980 C   0  0  0  0  0  3  0  0  0  0  0  0
  189.8200  176.4410  135.1500 O   0  0  0  0  0  0  0  0  0  0  0  0
  190.4820  175.3110  134.5960 C   0  0  0  0  0  1  0  0  0  0  0  0
  1  6  1  0  0  0  0
  2 12  1  0  0  0  0
  2 11  1  0  0  0  0
  3 10  1  0  0  0  0
  4  8  1  0  0  0  0
  5  1  1  0  0  0  0
  7  4  2  0  0  0  0
  7  9  1  0  0  0  0
  8  1  2  0  0  0  0
  9  5  2  0  0  0  0
 10 11  2  0  0  0  0
 11  7  1  0  0  0  0
 12 15  2  0  0  0  0
 13  2  2  0  0  0  0
 14 13  1  0  0  0  0
 14  3  2  0  0  0  0
 15  4  1  0  0  0  0
 16  3  1  0  0  0  0
 16 17  1  1  0  0  0
 18 16  1  0  0  0  0
 19 20  1  1  0  0  0
 19 18  1  0  0  0  0
 21 19  1  0  0  0  0
 22 21  1  6  0  0  0
 22 23  1  0  0  0  0
 25 23  1  0  0  0  0
 25 24  1  0  0  0  0
 26 33  1  6  0  0  0
 26 22  1  0  0  0  0
 27 26  1  0  0  0  0
 27 32  1  0  0  0  0
 28 32  2  0  0  0  0
 29 31  1  0  0  0  0
 29 30  2  0  0  0  0
 30 28  1  0  0  0  0
 31 27  2  0  0  0  0
 34 33  1  0  0  0  0
 35 13  1  0  0  0  0
 36 39  1  0  0  0  0
 37 36  2  0  0  0  0
 37 41  1  0  0  0  0
 38 40  1  0  0  0  0
 39 40  2  0  0  0  0
 40 35  1  0  0  0  0
 41 38  2  0  0  0  0
 42 37  1  0  0  0  0
 43 42  1  0  0  0  0
M  END
>  <MODEL>
3

>  <REMARK>
 VINA RESULT:      -8.1      3.095      7.865
  Name = 
  13 active torsions:
  status: ('A' for Active; 'I' for Inactive)
    1  A    between atoms: N_1  and  C_34
    2  A    between atoms: N_1  and  C_35
    3  A    between atoms: C_2  and  C_6
    4  A    between atoms: C_2  and  C_13
    5  A    between atoms: C_3  and  C_4
    6  A    between atoms: C_3  and  C_12
    7  A    between atoms: C_4  and  C_15
    8  A    between atoms: C_4  and  C_22
    9  A    between atoms: C_6  and  C_12
   10  A    between atoms: C_11  and  C_22
   11  A    between atoms: O_14  and  C_22
   12  A    between atoms: C_15  and  C_42
   13  A    between atoms: C_19  and  O_25
                            x       y       z     vdW  Elec       q    Type
                         _______ _______ _______ _____ _____    ______ ____

>  <TORSDO>
F 13

$$$$
=
 OpenBabel11052416223D

 43 47  0  0  1  0  0  0  0  0999 V2000
  187.7920  177.5590  147.5770 C   0  0  0  0  0  0  0  0  0  0  0  0
  185.9420  178.5940  142.9780 C   0  0  0  0  0  0  0  0  0  0  0  0
  187.9720  177.9110  141.1990 C   0  0  0  0  0  0  0  0  0  0  0  0
  186.3850  178.2680  145.7380 C   0  0  0  0  0  0  0  0  0  0  0  0
  188.7910  177.1850  146.6740 C   0  0  0  0  0  3  0  0  0  0  0  0
  187.9870  177.3950  148.9070 F   0  0  0  0  0  0  0  0  0  0  0  0
  187.3910  177.8890  144.8170 C   0  0  0  0  0  0  0  0  0  0  0  0
  186.5910  178.1010  147.1100 C   0  0  0  0  0  3  0  0  0  0  0  0
  188.5930  177.3490  145.3000 C   0  0  0  0  0  3  0  0  0  0  0  0
  188.1420  177.7380  142.5370 N   0  0  0  0  0  0  0  0  0  0  0  0
  187.1720  178.0610  143.4370 C   0  0  0  0  0  0  0  0  0  0  0  0
  184.9680  178.9800  143.9110 C   0  0  0  0  0  3  0  0  0  0  0  0
  185.7410  178.7550  141.5910 C   0  0  0  0  0  0  0  0  0  0  0  0
  186.7740  178.4330  140.7100 C   0  0  0  0  0  3  0  0  0  0  0  0
  185.1860  178.8150  145.2800 C   0  0  0  0  0  3  0  0  0  0  0  0
  189.0690  177.5760  140.2440 C   0  0  2  0  0  3  0  0  0  0  0  0
  190.3560  177.2880  141.0010 C   0  0  0  0  0  1  0  0  0  0  0  0
  189.2620  178.7190  139.2480 C   0  0  0  0  0  2  0  0  0  0  0  0
  188.9900  178.3090  137.8000 C   0  0  2  0  0  3  0  0  0  0  0  0
  187.8270  178.9160  137.3270 O   0  0  0  0  0  1  0  0  0  0  0  0
  188.8960  176.7990  137.6280 C   0  0  0  0  0  2  0  0  0  0  0  0
  189.3550  176.3820  136.2330 C   0  0  1  0  0  3  0  0  0  0  0  0
  190.7670  175.8080  136.2930 C   0  0  0  0  0  2  0  0  0  0  0  0
  192.5050  176.3520  137.9850 C   0  0  0  0  0  1  0  0  0  0  0  0
  191.2100  175.6060  137.7320 C   0  0  0  0  0  2  0  0  0  0  0  0
  188.3980  175.3670  135.5970 C   0  0  2  0  0  3  0  0  0  0  0  0
  186.9610  175.7490  135.7850 C   0  0  0  0  0  0  0  0  0  0  0  0
  184.8560  175.4310  136.9480 C   0  0  0  0  0  3  0  0  0  0  0  0
  185.0220  177.0860  135.1880 C   0  0  0  0  0  3  0  0  0  0  0  0
  184.2680  176.4280  136.1630 C   0  0  0  0  0  3  0  0  0  0  0  0
  186.3660  176.7460  134.9970 C   0  0  0  0  0  3  0  0  0  0  0  0
  186.1990  175.0910  136.7590 C   0  0  0  0  0  3  0  0  0  0  0  0
  188.6360  174.0680  136.0650 O   0  0  0  0  0  0  0  0  0  0  0  0
  188.6620  173.3210  134.9810 O   0  0  0  0  0  1  0  0  0  0  0  0
  184.5290  179.2950  141.0480 N   0  0  0  0  0  2  0  0  0  0  0  0
  181.0380  177.9370  141.0800 C   0  0  0  0  0  3  0  0  0  0  0  0
  181.1200  176.9680  140.0660 C   0  0  0  0  0  0  0  0  0  0  0  0
  183.4460  177.5610  139.7130 C   0  0  0  0  0  3  0  0  0  0  0  0
  182.1540  178.7120  141.4040 C   0  0  0  0  0  3  0  0  0  0  0  0
  183.3610  178.5360  140.7130 C   0  0  0  0  0  0  0  0  0  0  0  0
  182.3290  176.7850  139.3880 C   0  0  0  0  0  3  0  0  0  0  0  0
  180.0220  176.1770  139.7170 O   0  0  0  0  0  0  0  0  0  0  0  0
  179.1080  175.6650  140.6790 C   0  0  0  0  0  1  0  0  0  0  0  0
  1  6  1  0  0  0  0
  2 11  1  0  0  0  0
  2 12  1  0  0  0  0
  3 10  1  0  0  0  0
  4  8  2  0  0  0  0
  5  1  2  0  0  0  0
  7  9  2  0  0  0  0
  7  4  1  0  0  0  0
  8  1  1  0  0  0  0
  9  5  1  0  0  0  0
 10 11  2  0  0  0  0
 11  7  1  0  0  0  0
 12 15  2  0  0  0  0
 13  2  2  0  0  0  0
 14  3  2  0  0  0  0
 14 13  1  0  0  0  0
 15  4  1  0  0  0  0
 16 17  1  1  0  0  0
 16  3  1  0  0  0  0
 18 16  1  0  0  0  0
 19 20  1  1  0  0  0
 19 18  1  0  0  0  0
 21 19  1  0  0  0  0
 22 23  1  1  0  0  0
 22 21  1  0  0  0  0
 23 25  1  0  0  0  0
 25 24  1  0  0  0  0
 26 27  1  0  0  0  0
 26 33  1  1  0  0  0
 26 22  1  0  0  0  0
 27 32  1  0  0  0  0
 29 30  2  0  0  0  0
 30 28  1  0  0  0  0
 31 29  1  0  0  0  0
 31 27  2  0  0  0  0
 32 28  2  0  0  0  0
 34 33  1  0  0  0  0
 35 13  1  0  0  0  0
 36 39  1  0  0  0  0
 37 36  2  0  0  0  0
 38 40  1  0  0  0  0
 40 35  1  0  0  0  0
 40 39  2  0  0  0  0
 41 38  2  0  0  0  0
 41 37  1  0  0  0  0
 42 37  1  0  0  0  0
 42 43  1  0  0  0  0
M  END
>  <MODEL>
4

>  <REMARK>
 VINA RESULT:      -8.0      3.270      5.356
  Name = 
  13 active torsions:
  status: ('A' for Active; 'I' for Inactive)
    1  A    between atoms: N_1  and  C_34
    2  A    between atoms: N_1  and  C_35
    3  A    between atoms: C_2  and  C_6
    4  A    between atoms: C_2  and  C_13
    5  A    between atoms: C_3  and  C_4
    6  A    between atoms: C_3  and  C_12
    7  A    between atoms: C_4  and  C_15
    8  A    between atoms: C_4  and  C_22
    9  A    between atoms: C_6  and  C_12
   10  A    between atoms: C_11  and  C_22
   11  A    between atoms: O_14  and  C_22
   12  A    between atoms: C_15  and  C_42
   13  A    between atoms: C_19  and  O_25
                            x       y       z     vdW  Elec       q    Type
                         _______ _______ _______ _____ _____    ______ ____

>  <TORSDO>
F 13

$$$$
=
 OpenBabel11052416223D

 43 47  0  0  1  0  0  0  0  0999 V2000
  191.3580  176.4850  147.3010 C   0  0  0  0  0  0  0  0  0  0  0  0
  187.2550  177.8620  144.6710 C   0  0  0  0  0  0  0  0  0  0  0  0
  188.0770  177.9340  142.0120 C   0  0  0  0  0  0  0  0  0  0  0  0
  189.1290  177.1790  146.6570 C   0  0  0  0  0  0  0  0  0  0  0  0
  191.7510  176.4890  145.9600 C   0  0  0  0  0  3  0  0  0  0  0  0
  192.2460  176.1450  148.2650 F   0  0  0  0  0  0  0  0  0  0  0  0
  189.5190  177.1820  145.2960 C   0  0  0  0  0  0  0  0  0  0  0  0
  190.0490  176.8300  147.6490 C   0  0  0  0  0  3  0  0  0  0  0  0
  190.8370  176.8360  144.9610 C   0  0  0  0  0  3  0  0  0  0  0  0
  188.9490  177.5790  142.9930 N   0  0  0  0  0  0  0  0  0  0  0  0
  188.5840  177.5330  144.3040 C   0  0  0  0  0  0  0  0  0  0  0  0
  186.8970  177.8710  146.0270 C   0  0  0  0  0  3  0  0  0  0  0  0
  186.3320  178.2080  143.6620 C   0  0  0  0  0  0  0  0  0  0  0  0
  186.7610  178.2650  142.3350 C   0  0  0  0  0  3  0  0  0  0  0  0
  187.8260  177.5280  147.0120 C   0  0  0  0  0  3  0  0  0  0  0  0
  188.5220  178.0050  140.5880 C   0  0  2  0  0  3  0  0  0  0  0  0
  187.3440  178.3290  139.6840 C   0  0  0  0  0  1  0  0  0  0  0  0
  189.1810  176.6880  140.1810 C   0  0  0  0  0  2  0  0  0  0  0  0
  190.5640  176.8750  139.5550 C   0  0  2  0  0  3  0  0  0  0  0  0
  191.3550  177.7090  140.3470 O   0  0  0  0  0  1  0  0  0  0  0  0
  190.4940  177.4200  138.1350 C   0  0  0  0  0  2  0  0  0  0  0  0
  191.0460  176.4050  137.1370 C   0  0  1  0  0  3  0  0  0  0  0  0
  192.2150  175.6430  137.7520 C   0  0  0  0  0  2  0  0  0  0  0  0
  193.4770  175.8250  135.6180 C   0  0  0  0  0  1  0  0  0  0  0  0
  193.5300  176.0580  137.1150 C   0  0  0  0  0  2  0  0  0  0  0  0
  189.9660  175.4260  136.6620 C   0  0  2  0  0  3  0  0  0  0  0  0
  188.6340  176.0920  136.4900 C   0  0  0  0  0  0  0  0  0  0  0  0
  186.2640  176.1690  136.9960 C   0  0  0  0  0  3  0  0  0  0  0  0
  187.2380  177.8320  135.5300 C   0  0  0  0  0  3  0  0  0  0  0  0
  186.1250  177.3020  136.1890 C   0  0  0  0  0  3  0  0  0  0  0  0
  188.4910  177.2270  135.6780 C   0  0  0  0  0  3  0  0  0  0  0  0
  187.5150  175.5640  137.1460 C   0  0  0  0  0  3  0  0  0  0  0  0
  189.8650  174.3160  137.5110 O   0  0  0  0  0  0  0  0  0  0  0  0
  190.0050  173.2740  136.7190 O   0  0  0  0  0  1  0  0  0  0  0  0
  184.9730  178.5630  143.9520 N   0  0  0  0  0  2  0  0  0  0  0  0
  181.5600  178.9000  142.4450 C   0  0  0  0  0  3  0  0  0  0  0  0
  181.8110  178.4940  141.1240 C   0  0  0  0  0  0  0  0  0  0  0  0
  184.1450  178.1520  141.6930 C   0  0  0  0  0  3  0  0  0  0  0  0
  182.5980  178.9330  143.3810 C   0  0  0  0  0  3  0  0  0  0  0  0
  183.8990  178.5690  143.0040 C   0  0  0  0  0  0  0  0  0  0  0  0
  183.1070  178.1200  140.7560 C   0  0  0  0  0  3  0  0  0  0  0  0
  180.7970  178.4520  140.1640 O   0  0  0  0  0  0  0  0  0  0  0  0
  180.8720  179.1630  138.9350 C   0  0  0  0  0  1  0  0  0  0  0  0
  1  8  1  0  0  0  0
  1  6  1  0  0  0  0
  2 12  1  0  0  0  0
  3 14  2  0  0  0  0
  3 10  1  0  0  0  0
  4 15  1  0  0  0  0
  4  8  2  0  0  0  0
  5  1  2  0  0  0  0
  7  4  1  0  0  0  0
  9  7  2  0  0  0  0
  9  5  1  0  0  0  0
 10 11  2  0  0  0  0
 11  2  1  0  0  0  0
 11  7  1  0  0  0  0
 12 15  2  0  0  0  0
 13 35  1  0  0  0  0
 13  2  2  0  0  0  0
 14 13  1  0  0  0  0
 16 17  1  6  0  0  0
 16  3  1  0  0  0  0
 18 16  1  0  0  0  0
 19 18  1  0  0  0  0
 19 20  1  1  0  0  0
 21 19  1  0  0  0  0
 22 23  1  1  0  0  0
 22 21  1  0  0  0  0
 24 25  1  0  0  0  0
 25 23  1  0  0  0  0
 26 22  1  0  0  0  0
 26 33  1  1  0  0  0
 27 26  1  0  0  0  0
 27 32  1  0  0  0  0
 28 32  2  0  0  0  0
 29 31  1  0  0  0  0
 29 30  2  0  0  0  0
 30 28  1  0  0  0  0
 31 27  2  0  0  0  0
 34 33  1  0  0  0  0
 36 39  1  0  0  0  0
 37 36  2  0  0  0  0
 38 40  1  0  0  0  0
 40 39  2  0  0  0  0
 40 35  1  0  0  0  0
 41 37  1  0  0  0  0
 41 38  2  0  0  0  0
 42 37  1  0  0  0  0
 43 42  1  0  0  0  0
M  END
>  <MODEL>
5

>  <REMARK>
 VINA RESULT:      -8.0      2.808      5.746
  Name = 
  13 active torsions:
  status: ('A' for Active; 'I' for Inactive)
    1  A    between atoms: N_1  and  C_34
    2  A    between atoms: N_1  and  C_35
    3  A    between atoms: C_2  and  C_6
    4  A    between atoms: C_2  and  C_13
    5  A    between atoms: C_3  and  C_4
    6  A    between atoms: C_3  and  C_12
    7  A    between atoms: C_4  and  C_15
    8  A    between atoms: C_4  and  C_22
    9  A    between atoms: C_6  and  C_12
   10  A    between atoms: C_11  and  C_22
   11  A    between atoms: O_14  and  C_22
   12  A    between atoms: C_15  and  C_42
   13  A    between atoms: C_19  and  O_25
                            x       y       z     vdW  Elec       q    Type
                         _______ _______ _______ _____ _____    ______ ____

>  <TORSDO>
F 13

$$$$
=
 OpenBabel11052416223D

 43 47  0  0  1  0  0  0  0  0999 V2000
  188.0430  177.6310  147.7740 C   0  0  0  0  0  0  0  0  0  0  0  0
  185.8470  178.5520  143.3060 C   0  0  0  0  0  0  0  0  0  0  0  0
  187.7130  177.7660  141.3940 C   0  0  0  0  0  0  0  0  0  0  0  0
  186.5050  178.3090  146.0310 C   0  0  0  0  0  0  0  0  0  0  0  0
  188.9580  177.2060  146.8080 C   0  0  0  0  0  3  0  0  0  0  0  0
  188.3420  177.5070  149.0900 F   0  0  0  0  0  0  0  0  0  0  0  0
  187.4260  177.8780  145.0460 C   0  0  0  0  0  0  0  0  0  0  0  0
  186.8190  178.1820  147.3870 C   0  0  0  0  0  3  0  0  0  0  0  0
  188.6530  177.3280  145.4490 C   0  0  0  0  0  3  0  0  0  0  0  0
  187.9870  177.6350  142.7200 N   0  0  0  0  0  0  0  0  0  0  0  0
  187.1000  178.0090  143.6830 C   0  0  0  0  0  0  0  0  0  0  0  0
  184.9590  178.9900  144.2990 C   0  0  0  0  0  3  0  0  0  0  0  0
  185.5380  178.6710  141.9340 C   0  0  0  0  0  0  0  0  0  0  0  0
  186.4900  178.2970  140.9850 C   0  0  0  0  0  3  0  0  0  0  0  0
  185.2840  178.8660  145.6510 C   0  0  0  0  0  3  0  0  0  0  0  0
  188.7230  177.3770  140.3660 C   0  0  2  0  0  3  0  0  0  0  0  0
  190.0840  177.9540  140.7200 C   0  0  0  0  0  1  0  0  0  0  0  0
  188.2700  177.8450  138.9840 C   0  0  0  0  0  2  0  0  0  0  0  0
  189.4050  178.4360  138.1470 C   0  0  2  0  0  3  0  0  0  0  0  0
  189.0580  179.7000  137.6700 O   0  0  0  0  0  1  0  0  0  0  0  0
  189.8060  177.5340  136.9870 C   0  0  0  0  0  2  0  0  0  0  0  0
  188.6600  176.6030  136.6020 C   0  0  1  0  0  3  0  0  0  0  0  0
  188.1110  176.9820  135.2300 C   0  0  0  0  0  2  0  0  0  0  0  0
  185.9060  177.3230  136.3280 C   0  0  0  0  0  1  0  0  0  0  0  0
  186.9150  177.9100  135.3620 C   0  0  0  0  0  2  0  0  0  0  0  0
  189.0920  175.1320  136.6110 C   0  0  2  0  0  3  0  0  0  0  0  0
  187.9560  174.2070  136.2890 C   0  0  0  0  0  0  0  0  0  0  0  0
  185.8920  173.1290  136.9680 C   0  0  0  0  0  3  0  0  0  0  0  0
  186.8160  172.6890  134.7730 C   0  0  0  0  0  3  0  0  0  0  0  0
  185.8210  172.4790  135.7320 C   0  0  0  0  0  3  0  0  0  0  0  0
  187.8840  173.5500  135.0520 C   0  0  0  0  0  3  0  0  0  0  0  0
  186.9580  173.9900  137.2470 C   0  0  0  0  0  3  0  0  0  0  0  0
  189.6970  174.7780  137.8230 O   0  0  0  0  0  0  0  0  0  0  0  0
  190.4710  173.7550  137.5250 O   0  0  0  0  0  1  0  0  0  0  0  0
  184.2960  179.2190  141.4720 N   0  0  0  0  0  2  0  0  0  0  0  0
  182.5680  178.9950  138.1550 C   0  0  0  0  0  3  0  0  0  0  0  0
  181.9650  177.7300  138.2540 C   0  0  0  0  0  0  0  0  0  0  0  0
  182.9210  177.4690  140.4690 C   0  0  0  0  0  3  0  0  0  0  0  0
  183.3430  179.4890  139.2080 C   0  0  0  0  0  3  0  0  0  0  0  0
  183.5320  178.7220  140.3660 C   0  0  0  0  0  0  0  0  0  0  0  0
  182.1450  176.9740  139.4160 C   0  0  0  0  0  3  0  0  0  0  0  0
  181.1850  177.2060  137.2200 O   0  0  0  0  0  0  0  0  0  0  0  0
  181.7500  176.6380  136.0450 C   0  0  0  0  0  1  0  0  0  0  0  0
  1  6  1  0  0  0  0
  2 11  1  0  0  0  0
  2 12  1  0  0  0  0
  3 10  1  0  0  0  0
  4  8  2  0  0  0  0
  5  1  2  0  0  0  0
  7  9  2  0  0  0  0
  7  4  1  0  0  0  0
  8  1  1  0  0  0  0
  9  5  1  0  0  0  0
 10 11  2  0  0  0  0
 11  7  1  0  0  0  0
 12 15  2  0  0  0  0
 13  2  2  0  0  0  0
 14  3  2  0  0  0  0
 14 13  1  0  0  0  0
 15  4  1  0  0  0  0
 16 17  1  1  0  0  0
 16  3  1  0  0  0  0
 18 16  1  0  0  0  0
 19 20  1  6  0  0  0
 19 18  1  0  0  0  0
 21 19  1  0  0  0  0
 22 23  1  6  0  0  0
 22 26  1  0  0  0  0
 22 21  1  0  0  0  0
 23 25  1  0  0  0  0
 25 24  1  0  0  0  0
 26 33  1  1  0  0  0
 27 26  1  0  0  0  0
 27 32  1  0  0  0  0
 28 32  2  0  0  0  0
 29 31  1  0  0  0  0
 29 30  2  0  0  0  0
 30 28  1  0  0  0  0
 31 27  2  0  0  0  0
 34 33  1  0  0  0  0
 35 13  1  0  0  0  0
 36 37  2  0  0  0  0
 36 39  1  0  0  0  0
 37 41  1  0  0  0  0
 39 40  2  0  0  0  0
 40 38  1  0  0  0  0
 40 35  1  0  0  0  0
 41 38  2  0  0  0  0
 42 37  1  0  0  0  0
 43 42  1  0  0  0  0
M  END
>  <MODEL>
6

>  <REMARK>
 VINA RESULT:      -7.9      2.679      5.093
  Name = 
  13 active torsions:
  status: ('A' for Active; 'I' for Inactive)
    1  A    between atoms: N_1  and  C_34
    2  A    between atoms: N_1  and  C_35
    3  A    between atoms: C_2  and  C_6
    4  A    between atoms: C_2  and  C_13
    5  A    between atoms: C_3  and  C_4
    6  A    between atoms: C_3  and  C_12
    7  A    between atoms: C_4  and  C_15
    8  A    between atoms: C_4  and  C_22
    9  A    between atoms: C_6  and  C_12
   10  A    between atoms: C_11  and  C_22
   11  A    between atoms: O_14  and  C_22
   12  A    between atoms: C_15  and  C_42
   13  A    between atoms: C_19  and  O_25
                            x       y       z     vdW  Elec       q    Type
                         _______ _______ _______ _____ _____    ______ ____

>  <TORSDO>
F 13

$$$$
=
 OpenBabel11052416223D

 43 47  0  0  1  0  0  0  0  0999 V2000
  191.2640  176.5970  146.5670 C   0  0  0  0  0  0  0  0  0  0  0  0
  186.7620  177.8750  144.6320 C   0  0  0  0  0  0  0  0  0  0  0  0
  187.2120  178.2460  141.9090 C   0  0  0  0  0  0  0  0  0  0  0  0
  188.9270  177.1680  146.2850 C   0  0  0  0  0  0  0  0  0  0  0  0
  191.4710  176.7510  145.1940 C   0  0  0  0  0  3  0  0  0  0  0  0
  192.2940  176.2440  147.3720 F   0  0  0  0  0  0  0  0  0  0  0  0
  189.1290  177.3220  144.8920 C   0  0  0  0  0  0  0  0  0  0  0  0
  189.9940  176.8060  147.1120 C   0  0  0  0  0  3  0  0  0  0  0  0
  190.4100  177.1120  144.3590 C   0  0  0  0  0  3  0  0  0  0  0  0
  188.2300  177.8750  142.7310 N   0  0  0  0  0  0  0  0  0  0  0  0
  188.0480  177.6850  144.0670 C   0  0  0  0  0  0  0  0  0  0  0  0
  186.5900  177.7350  146.0170 C   0  0  0  0  0  3  0  0  0  0  0  0
  185.6910  178.2350  143.7870 C   0  0  0  0  0  0  0  0  0  0  0  0
  185.9320  178.4420  142.4280 C   0  0  0  0  0  3  0  0  0  0  0  0
  187.6630  177.3810  146.8360 C   0  0  0  0  0  3  0  0  0  0  0  0
  187.4550  178.4770  140.4540 C   0  0  2  0  0  3  0  0  0  0  0  0
  186.1650  178.2990  139.6690 C   0  0  0  0  0  1  0  0  0  0  0  0
  188.5410  177.5290  139.9490 C   0  0  0  0  0  2  0  0  0  0  0  0
  189.5730  178.2160  139.0540 C   0  0  2  0  0  3  0  0  0  0  0  0
  189.0490  179.3880  138.5090 O   0  0  0  0  0  1  0  0  0  0  0  0
  190.0810  177.3070  137.9430 C   0  0  0  0  0  2  0  0  0  0  0  0
  188.9260  176.5540  137.2870 C   0  0  1  0  0  3  0  0  0  0  0  0
  188.4500  177.3000  136.0440 C   0  0  0  0  0  2  0  0  0  0  0  0
  186.2040  177.4610  134.9910 C   0  0  0  0  0  1  0  0  0  0  0  0
  187.0240  177.7940  136.2210 C   0  0  0  0  0  2  0  0  0  0  0  0
  189.3140  175.1160  136.9250 C   0  0  2  0  0  3  0  0  0  0  0  0
  188.1290  174.2990  136.5060 C   0  0  0  0  0  0  0  0  0  0  0  0
  185.8160  173.6560  136.8500 C   0  0  0  0  0  3  0  0  0  0  0  0
  187.0860  172.6640  135.0430 C   0  0  0  0  0  3  0  0  0  0  0  0
  185.8930  172.7820  135.7610 C   0  0  0  0  0  3  0  0  0  0  0  0
  188.2040  173.4190  135.4150 C   0  0  0  0  0  3  0  0  0  0  0  0
  186.9320  174.4110  137.2230 C   0  0  0  0  0  3  0  0  0  0  0  0
  190.0100  174.4910  137.9670 O   0  0  0  0  0  0  0  0  0  0  0  0
  190.9300  173.7640  137.3670 O   0  0  0  0  0  1  0  0  0  0  0  0
  184.3630  178.4540  144.2820 N   0  0  0  0  0  2  0  0  0  0  0  0
  180.8440  179.1950  143.2310 C   0  0  0  0  0  3  0  0  0  0  0  0
  180.9380  179.0140  141.8410 C   0  0  0  0  0  0  0  0  0  0  0  0
  183.2910  178.4770  142.0890 C   0  0  0  0  0  3  0  0  0  0  0  0
  181.9690  179.0200  144.0410 C   0  0  0  0  0  3  0  0  0  0  0  0
  183.2020  178.6710  143.4710 C   0  0  0  0  0  0  0  0  0  0  0  0
  182.1650  178.6530  141.2780 C   0  0  0  0  0  3  0  0  0  0  0  0
  179.8320  179.1820  141.0040 O   0  0  0  0  0  0  0  0  0  0  0  0
  179.9430  179.2320  139.5870 C   0  0  0  0  0  1  0  0  0  0  0  0
  1  8  1  0  0  0  0
  1  6  1  0  0  0  0
  2 12  1  0  0  0  0
  3 14  2  0  0  0  0
  3 10  1  0  0  0  0
  4 15  1  0  0  0  0
  4  8  2  0  0  0  0
  5  1  2  0  0  0  0
  7  4  1  0  0  0  0
  9  7  2  0  0  0  0
  9  5  1  0  0  0  0
 10 11  2  0  0  0  0
 11  2  1  0  0  0  0
 11  7  1  0  0  0  0
 12 15  2  0  0  0  0
 13 35  1  0  0  0  0
 13  2  2  0  0  0  0
 14 13  1  0  0  0  0
 16 17  1  6  0  0  0
 16  3  1  0  0  0  0
 18 16  1  0  0  0  0
 19 20  1  6  0  0  0
 19 18  1  0  0  0  0
 21 19  1  0  0  0  0
 22 23  1  6  0  0  0
 22 21  1  0  0  0  0
 23 25  1  0  0  0  0
 24 25  1  0  0  0  0
 26 22  1  0  0  0  0
 26 33  1  1  0  0  0
 27 26  1  0  0  0  0
 27 32  1  0  0  0  0
 28 32  2  0  0  0  0
 29 31  1  0  0  0  0
 29 30  2  0  0  0  0
 30 28  1  0  0  0  0
 31 27  2  0  0  0  0
 34 33  1  0  0  0  0
 36 39  1  0  0  0  0
 37 36  2  0  0  0  0
 38 40  1  0  0  0  0
 40 39  2  0  0  0  0
 40 35  1  0  0  0  0
 41 37  1  0  0  0  0
 41 38  2  0  0  0  0
 42 37  1  0  0  0  0
 43 42  1  0  0  0  0
M  END
>  <MODEL>
7

>  <REMARK>
 VINA RESULT:      -7.9      3.003      5.810
  Name = 
  13 active torsions:
  status: ('A' for Active; 'I' for Inactive)
    1  A    between atoms: N_1  and  C_34
    2  A    between atoms: N_1  and  C_35
    3  A    between atoms: C_2  and  C_6
    4  A    between atoms: C_2  and  C_13
    5  A    between atoms: C_3  and  C_4
    6  A    between atoms: C_3  and  C_12
    7  A    between atoms: C_4  and  C_15
    8  A    between atoms: C_4  and  C_22
    9  A    between atoms: C_6  and  C_12
   10  A    between atoms: C_11  and  C_22
   11  A    between atoms: O_14  and  C_22
   12  A    between atoms: C_15  and  C_42
   13  A    between atoms: C_19  and  O_25
                            x       y       z     vdW  Elec       q    Type
                         _______ _______ _______ _____ _____    ______ ____

>  <TORSDO>
F 13

$$$$
=
 OpenBabel11052416223D

 43 47  0  0  1  0  0  0  0  0999 V2000
  180.4730  176.1290  137.3750 C   0  0  0  0  0  0  0  0  0  0  0  0
  184.6450  178.0700  139.4890 C   0  0  0  0  0  0  0  0  0  0  0  0
  184.0280  178.3750  142.1880 C   0  0  0  0  0  0  0  0  0  0  0  0
  182.6840  177.0440  137.7520 C   0  0  0  0  0  0  0  0  0  0  0  0
  180.1860  176.2530  138.7370 C   0  0  0  0  0  3  0  0  0  0  0  0
  179.5430  175.6250  136.5300 F   0  0  0  0  0  0  0  0  0  0  0  0
  182.4010  177.1690  139.1340 C   0  0  0  0  0  0  0  0  0  0  0  0
  181.7200  176.5260  136.8830 C   0  0  0  0  0  3  0  0  0  0  0  0
  181.1440  176.7700  139.6130 C   0  0  0  0  0  3  0  0  0  0  0  0
  183.1130  177.8540  141.3260 N   0  0  0  0  0  0  0  0  0  0  0  0
  183.3790  177.6910  140.0000 C   0  0  0  0  0  0  0  0  0  0  0  0
  184.8960  177.9550  138.1140 C   0  0  0  0  0  3  0  0  0  0  0  0
  185.6130  178.5880  140.3750 C   0  0  0  0  0  0  0  0  0  0  0  0
  185.2850  178.7590  141.7210 C   0  0  0  0  0  3  0  0  0  0  0  0
  183.9240  177.4430  137.2530 C   0  0  0  0  0  3  0  0  0  0  0  0
  183.6900  178.5700  143.6290 C   0  0  2  0  0  3  0  0  0  0  0  0
  182.3490  179.2740  143.7640 C   0  0  0  0  0  1  0  0  0  0  0  0
  184.7980  179.3590  144.3230 C   0  0  0  0  0  2  0  0  0  0  0  0
  184.9780  178.9800  145.7930 C   0  0  2  0  0  3  0  0  0  0  0  0
  185.6780  179.9750  146.4770 O   0  0  0  0  0  1  0  0  0  0  0  0
  185.6770  177.6380  145.9690 C   0  0  0  0  0  2  0  0  0  0  0  0
  187.1900  177.8230  146.0640 C   0  0  1  0  0  3  0  0  0  0  0  0
  187.6720  177.5040  147.4740 C   0  0  0  0  0  2  0  0  0  0  0  0
  189.3190  178.2430  149.1840 C   0  0  0  0  0  1  0  0  0  0  0  0
  188.3720  178.7020  148.0930 C   0  0  0  0  0  2  0  0  0  0  0  0
  187.9350  176.9570  145.0410 C   0  0  2  0  0  3  0  0  0  0  0  0
  189.3420  177.4280  144.8200 C   0  0  0  0  0  0  0  0  0  0  0  0
  190.8730  179.0110  143.8050 C   0  0  0  0  0  3  0  0  0  0  0  0
  191.7360  177.2050  145.1680 C   0  0  0  0  0  3  0  0  0  0  0  0
  191.9560  178.3350  144.3760 C   0  0  0  0  0  3  0  0  0  0  0  0
  190.4310  176.7500  145.3880 C   0  0  0  0  0  3  0  0  0  0  0  0
  189.5690  178.5580  144.0250 C   0  0  0  0  0  3  0  0  0  0  0  0
  187.2390  176.8750  143.8280 O   0  0  0  0  0  0  0  0  0  0  0  0
  187.7880  175.8590  143.1950 O   0  0  0  0  0  1  0  0  0  0  0  0
  186.9140  179.0030  139.9350 N   0  0  0  0  0  2  0  0  0  0  0  0
  190.0870  177.0490  140.3150 C   0  0  0  0  0  3  0  0  0  0  0  0
  190.1890  176.4560  139.0460 C   0  0  0  0  0  0  0  0  0  0  0  0
  188.1220  177.5470  138.3930 C   0  0  0  0  0  3  0  0  0  0  0  0
  189.0080  177.8830  140.6190 C   0  0  0  0  0  3  0  0  0  0  0  0
  188.0130  178.1270  139.6610 C   0  0  0  0  0  0  0  0  0  0  0  0
  189.2020  176.7120  138.0890 C   0  0  0  0  0  3  0  0  0  0  0  0
  191.2540  175.6170  138.7120 O   0  0  0  0  0  0  0  0  0  0  0  0
  192.4870  176.1080  138.2000 C   0  0  0  0  0  1  0  0  0  0  0  0
  1  5  1  0  0  0  0
  2 11  1  0  0  0  0
  2 13  1  0  0  0  0
  3 16  1  0  0  0  0
  4  7  1  0  0  0  0
  5  9  2  0  0  0  0
  6  1  1  0  0  0  0
  7  9  1  0  0  0  0
  7 11  2  0  0  0  0
  8  1  2  0  0  0  0
  8  4  1  0  0  0  0
 10  3  2  0  0  0  0
 11 10  1  0  0  0  0
 12  2  2  0  0  0  0
 13 14  2  0  0  0  0
 14  3  1  0  0  0  0
 15  4  2  0  0  0  0
 15 12  1  0  0  0  0
 16 17  1  6  0  0  0
 16 18  1  0  0  0  0
 18 19  1  0  0  0  0
 19 21  1  0  0  0  0
 19 20  1  1  0  0  0
 22 21  1  1  0  0  0
 22 23  1  0  0  0  0
 23 25  1  0  0  0  0
 25 24  1  0  0  0  0
 26 33  1  6  0  0  0
 26 22  1  0  0  0  0
 27 26  1  0  0  0  0
 27 31  1  0  0  0  0
 28 32  1  0  0  0  0
 28 30  2  0  0  0  0
 29 31  2  0  0  0  0
 30 29  1  0  0  0  0
 32 27  2  0  0  0  0
 34 33  1  0  0  0  0
 35 13  1  0  0  0  0
 36 39  1  0  0  0  0
 37 36  2  0  0  0  0
 38 40  1  0  0  0  0
 40 35  1  0  0  0  0
 40 39  2  0  0  0  0
 41 38  2  0  0  0  0
 41 37  1  0  0  0  0
 42 37  1  0  0  0  0
 43 42  1  0  0  0  0
M  END
>  <MODEL>
8

>  <REMARK>
 VINA RESULT:      -7.9      3.759      7.723
  Name = 
  13 active torsions:
  status: ('A' for Active; 'I' for Inactive)
    1  A    between atoms: N_1  and  C_34
    2  A    between atoms: N_1  and  C_35
    3  A    between atoms: C_2  and  C_6
    4  A    between atoms: C_2  and  C_13
    5  A    between atoms: C_3  and  C_4
    6  A    between atoms: C_3  and  C_12
    7  A    between atoms: C_4  and  C_15
    8  A    between atoms: C_4  and  C_22
    9  A    between atoms: C_6  and  C_12
   10  A    between atoms: C_11  and  C_22
   11  A    between atoms: O_14  and  C_22
   12  A    between atoms: C_15  and  C_42
   13  A    between atoms: C_19  and  O_25
                            x       y       z     vdW  Elec       q    Type
                         _______ _______ _______ _____ _____    ______ ____

>  <TORSDO>
F 13

$$$$
=
 OpenBabel11052416223D

 43 47  0  0  1  0  0  0  0  0999 V2000
  193.9720  174.8730  135.9960 C   0  0  0  0  0  0  0  0  0  0  0  0
  189.8300  177.3030  137.6000 C   0  0  0  0  0  0  0  0  0  0  0  0
  190.0960  177.4610  140.3680 C   0  0  0  0  0  0  0  0  0  0  0  0
  191.8380  176.0130  136.1110 C   0  0  0  0  0  0  0  0  0  0  0  0
  194.1140  174.9890  137.3810 C   0  0  0  0  0  3  0  0  0  0  0  0
  194.9380  174.2650  135.2650 F   0  0  0  0  0  0  0  0  0  0  0  0
  191.9760  176.1370  137.5150 C   0  0  0  0  0  0  0  0  0  0  0  0
  192.8360  175.3830  135.3610 C   0  0  0  0  0  3  0  0  0  0  0  0
  193.1210  175.6180  138.1380 C   0  0  0  0  0  3  0  0  0  0  0  0
  191.0630  176.8700  139.6150 N   0  0  0  0  0  0  0  0  0  0  0  0
  190.9670  176.7740  138.2600 C   0  0  0  0  0  0  0  0  0  0  0  0
  189.7060  177.1510  136.2110 C   0  0  0  0  0  3  0  0  0  0  0  0
  188.8310  177.9410  138.3650 C   0  0  0  0  0  0  0  0  0  0  0  0
  188.9620  177.9930  139.7530 C   0  0  0  0  0  3  0  0  0  0  0  0
  190.7040  176.5150  135.4720 C   0  0  0  0  0  3  0  0  0  0  0  0
  190.2200  177.5190  141.8540 C   0  0  2  0  0  3  0  0  0  0  0  0
  190.6530  176.1680  142.4000 C   0  0  0  0  0  1  0  0  0  0  0  0
  188.8940  177.9610  142.4720 C   0  0  0  0  0  2  0  0  0  0  0  0
  188.5870  177.2680  143.8000 C   0  0  2  0  0  3  0  0  0  0  0  0
  187.7360  176.1790  143.6020 O   0  0  0  0  0  1  0  0  0  0  0  0
  187.9880  178.2160  144.8300 C   0  0  0  0  0  2  0  0  0  0  0  0
  186.9370  177.5030  145.6770 C   0  0  1  0  0  3  0  0  0  0  0  0
  187.5590  177.0050  146.9770 C   0  0  0  0  0  2  0  0  0  0  0  0
  188.6940  178.2490  148.8060 C   0  0  0  0  0  1  0  0  0  0  0  0
  188.7750  177.8350  147.3510 C   0  0  0  0  0  2  0  0  0  0  0  0
  185.7360  178.4080  145.9780 C   0  0  2  0  0  3  0  0  0  0  0  0
  184.8080  178.5240  144.8060 C   0  0  0  0  0  0  0  0  0  0  0  0
  182.5930  179.0060  143.9440 C   0  0  0  0  0  3  0  0  0  0  0  0
  184.3670  178.3710  142.4220 C   0  0  0  0  0  3  0  0  0  0  0  0
  183.0380  178.7440  142.6440 C   0  0  0  0  0  3  0  0  0  0  0  0
  185.2500  178.2580  143.5010 C   0  0  0  0  0  3  0  0  0  0  0  0
  183.4750  178.8950  145.0220 C   0  0  0  0  0  3  0  0  0  0  0  0
  186.1400  179.6730  146.4230 O   0  0  0  0  0  0  0  0  0  0  0  0
  185.6820  179.7560  147.6550 O   0  0  0  0  0  1  0  0  0  0  0  0
  187.6460  178.4940  137.7740 N   0  0  0  0  0  2  0  0  0  0  0  0
  184.0450  177.8630  138.5910 C   0  0  0  0  0  3  0  0  0  0  0  0
  183.8300  176.6470  137.9220 C   0  0  0  0  0  0  0  0  0  0  0  0
  186.1330  176.6790  137.1610 C   0  0  0  0  0  3  0  0  0  0  0  0
  185.2970  178.4810  138.5410 C   0  0  0  0  0  3  0  0  0  0  0  0
  186.3450  177.8970  137.8150 C   0  0  0  0  0  0  0  0  0  0  0  0
  184.8800  176.0600  137.2110 C   0  0  0  0  0  3  0  0  0  0  0  0
  182.5900  176.0030  137.9520 O   0  0  0  0  0  0  0  0  0  0  0  0
  181.3870  176.6710  138.3120 C   0  0  0  0  0  1  0  0  0  0  0  0
  1  5  1  0  0  0  0
  2 11  1  0  0  0  0
  2 13  1  0  0  0  0
  3 16  1  0  0  0  0
  4  7  1  0  0  0  0
  5  9  2  0  0  0  0
  6  1  1  0  0  0  0
  7  9  1  0  0  0  0
  7 11  2  0  0  0  0
  8  1  2  0  0  0  0
  8  4  1  0  0  0  0
 10  3  2  0  0  0  0
 11 10  1  0  0  0  0
 12  2  2  0  0  0  0
 13 14  2  0  0  0  0
 14  3  1  0  0  0  0
 15  4  2  0  0  0  0
 15 12  1  0  0  0  0
 16 17  1  1  0  0  0
 16 18  1  0  0  0  0
 18 19  1  0  0  0  0
 19 20  1  6  0  0  0
 19 21  1  0  0  0  0
 22 21  1  1  0  0  0
 22 26  1  0  0  0  0
 22 23  1  0  0  0  0
 23 25  1  0  0  0  0
 25 24  1  0  0  0  0
 26 33  1  6  0  0  0
 27 32  1  0  0  0  0
 27 26  1  0  0  0  0
 28 32  2  0  0  0  0
 29 30  2  0  0  0  0
 29 31  1  0  0  0  0
 30 28  1  0  0  0  0
 31 27  2  0  0  0  0
 33 34  1  0  0  0  0
 35 40  1  0  0  0  0
 35 13  1  0  0  0  0
 37 42  1  0  0  0  0
 37 36  2  0  0  0  0
 38 41  2  0  0  0  0
 38 40  1  0  0  0  0
 39 36  1  0  0  0  0
 40 39  2  0  0  0  0
 41 37  1  0  0  0  0
 42 43  1  0  0  0  0
M  END
>  <MODEL>
9

>  <REMARK>
 VINA RESULT:      -7.8      4.175      8.501
  Name = 
  13 active torsions:
  status: ('A' for Active; 'I' for Inactive)
    1  A    between atoms: N_1  and  C_34
    2  A    between atoms: N_1  and  C_35
    3  A    between atoms: C_2  and  C_6
    4  A    between atoms: C_2  and  C_13
    5  A    between atoms: C_3  and  C_4
    6  A    between atoms: C_3  and  C_12
    7  A    between atoms: C_4  and  C_15
    8  A    between atoms: C_4  and  C_22
    9  A    between atoms: C_6  and  C_12
   10  A    between atoms: C_11  and  C_22
   11  A    between atoms: O_14  and  C_22
   12  A    between atoms: C_15  and  C_42
   13  A    between atoms: C_19  and  O_25
                            x       y       z     vdW  Elec       q    Type
                         _______ _______ _______ _____ _____    ______ ____

>  <TORSDO>
F 13

$$$$
