=
 OpenBabel11052414373D

 32 37  0  0  1  0  0  0  0  0999 V2000
  189.8640  177.1170  142.8160 C   0  0  0  0  0  0  0  0  0  0  0  0
  188.0660  177.8770  144.3110 C   0  0  0  0  0  0  0  0  0  0  0  0
  191.1020  176.2500  142.6820 C   0  0  0  0  0  2  0  0  0  0  0  0
  189.4760  177.5980  144.1450 N   0  0  0  0  0  0  0  0  0  0  0  0
  187.4380  177.8350  145.5790 C   0  0  0  0  0  0  0  0  0  0  0  0
  183.6350  178.5220  142.3040 C   0  0  0  0  0  2  0  0  0  0  0  0
  187.2880  178.2030  143.1680 C   0  0  0  0  0  0  0  0  0  0  0  0
  183.9320  178.7880  144.7150 N   0  0  0  0  0  0  0  0  0  0  0  0
  185.3250  178.4760  144.5760 C   0  0  0  0  0  0  0  0  0  0  0  0
  186.0780  178.1380  145.6980 C   0  0  0  0  0  3  0  0  0  0  0  0
  187.8840  178.1970  141.8600 N   0  0  0  0  0  2  0  0  0  0  0  0
  189.3060  177.9390  141.6470 C   0  0  2  0  0  3  0  0  0  0  0  0
  185.9240  178.4980  143.3070 C   0  0  0  0  0  0  0  0  0  0  0  0
  189.7180  175.6110  142.7060 C   0  0  0  0  0  2  0  0  0  0  0  0
  183.1410  178.8580  143.6840 C   0  0  0  0  0  3  0  0  0  0  0  0
  185.0970  178.9400  142.1290 C   0  0  0  0  0  2  0  0  0  0  0  0
  188.9880  178.2680  138.0610 C   0  0  0  0  0  0  0  0  0  0  0  0
  191.3760  175.9350  136.3140 C   0  0  0  0  0  1  0  0  0  0  0  0
  188.4870  179.3970  137.8160 O   0  0  0  0  0  0  0  0  0  0  0  0
  191.1510  176.2310  138.7010 C   0  0  0  0  0  3  0  0  0  0  0  0
  189.5740  177.3950  140.2660 C   0  0  0  0  0  0  0  0  0  0  0  0
  189.9840  177.7680  137.2200 O   0  0  0  0  0  0  0  0  0  0  0  0
  190.7330  176.7800  140.0060 C   0  0  0  0  0  3  0  0  0  0  0  0
  188.5020  177.4740  139.2270 C   0  0  1  0  0  3  0  0  0  0  0  0
  187.3310  178.0120  139.7380 F   0  0  0  0  0  0  0  0  0  0  0  0
  190.7950  176.6510  137.4780 C   0  0  0  0  0  0  0  0  0  0  0  0
  190.4280  178.4060  144.9180 C   0  0  0  0  0  3  0  0  0  0  0  0
  190.7490  179.5710  144.2540 O   0  0  0  0  0  0  0  0  0  0  0  0
  191.6070  178.5450  144.2160 O   0  0  0  0  0  0  0  0  0  0  0  0
  188.1540  177.3890  146.8100 C   0  0  0  0  0  2  0  0  0  0  0  0
  187.7250  178.2090  147.9800 C   0  0  0  0  0  3  0  0  0  0  0  0
  188.1770  177.9750  149.0880 O   0  0  0  0  0  0  0  0  0  0  0  0
  1  4  1  0  0  0  0
  2  5  1  0  0  0  0
  3 14  1  0  0  0  0
  3  1  1  0  0  0  0
  4  2  1  0  0  0  0
  4 27  1  0  0  0  0
  5 10  2  0  0  0  0
  5 30  1  0  0  0  0
  6 15  1  0  0  0  0
  7 13  1  0  0  0  0
  7  2  2  0  0  0  0
  9  8  1  0  0  0  0
  9 10  1  0  0  0  0
 11  7  1  0  0  0  0
 12 21  1  6  0  0  0
 12 11  1  0  0  0  0
 12  1  1  0  0  0  0
 13  9  2  0  0  0  0
 14  1  1  0  0  0  0
 15  8  2  0  0  0  0
 16  6  1  0  0  0  0
 16 13  1  0  0  0  0
 17 24  1  0  0  0  0
 18 26  1  0  0  0  0
 19 17  2  0  0  0  0
 20 23  1  0  0  0  0
 22 26  1  0  0  0  0
 22 17  1  0  0  0  0
 23 21  2  0  0  0  0
 24 25  1  1  0  0  0
 24 21  1  0  0  0  0
 26 20  2  0  0  0  0
 28 27  1  0  0  0  0
 29 28  1  0  0  0  0
 29 27  1  0  0  0  0
 30 31  1  0  0  0  0
 31 32  2  0  0  0  0
M  END
>  <MODEL>
1

>  <REMARK>
 VINA RESULT:     -10.2      0.000      0.000
  Name = 
  4 active torsions:
  status: ('A' for Active; 'I' for Inactive)
    1  A    between atoms: N_5  and  C_14
    2  A    between atoms: C_6  and  C_29
    3  A    between atoms: C_13  and  C_29
    4  A    between atoms: C_16  and  C_27
                            x       y       z     vdW  Elec       q    Type
                         _______ _______ _______ _____ _____    ______ ____

>  <TORSDO>
F 4

$$$$
=
 OpenBabel11052414373D

 32 37  0  0  1  0  0  0  0  0999 V2000
  189.5750  177.1470  142.6220 C   0  0  0  0  0  0  0  0  0  0  0  0
  188.1240  177.8000  144.4970 C   0  0  0  0  0  0  0  0  0  0  0  0
  190.7120  176.2510  142.1690 C   0  0  0  0  0  2  0  0  0  0  0  0
  189.4620  177.4840  144.0440 N   0  0  0  0  0  0  0  0  0  0  0  0
  187.7320  177.6350  145.8480 C   0  0  0  0  0  0  0  0  0  0  0  0
  183.4560  178.8610  143.4260 C   0  0  0  0  0  2  0  0  0  0  0  0
  187.1770  178.2910  143.5600 C   0  0  0  0  0  0  0  0  0  0  0  0
  184.1950  178.8290  145.7540 N   0  0  0  0  0  0  0  0  0  0  0  0
  185.5180  178.4780  145.3280 C   0  0  0  0  0  0  0  0  0  0  0  0
  186.4370  177.9780  146.2480 C   0  0  0  0  0  3  0  0  0  0  0  0
  187.5270  178.4140  142.1710 N   0  0  0  0  0  2  0  0  0  0  0  0
  188.8700  178.1230  141.6720 C   0  0  2  0  0  3  0  0  0  0  0  0
  185.8810  178.6240  143.9790 C   0  0  0  0  0  0  0  0  0  0  0  0
  189.3180  175.6710  142.3790 C   0  0  0  0  0  2  0  0  0  0  0  0
  183.2380  179.0530  144.9020 C   0  0  0  0  0  3  0  0  0  0  0  0
  184.8850  179.2350  143.0300 C   0  0  0  0  0  2  0  0  0  0  0  0
  190.3960  176.3750  138.9010 C   0  0  0  0  0  0  0  0  0  0  0  0
  187.9450  176.0270  136.0600 C   0  0  0  0  0  1  0  0  0  0  0  0
  191.3610  175.6990  139.3500 O   0  0  0  0  0  0  0  0  0  0  0  0
  187.5120  177.0420  138.2100 C   0  0  0  0  0  3  0  0  0  0  0  0
  188.8510  177.7350  140.2150 C   0  0  0  0  0  0  0  0  0  0  0  0
  189.6000  175.8350  137.8880 O   0  0  0  0  0  0  0  0  0  0  0  0
  187.6870  177.4670  139.6120 C   0  0  0  0  0  3  0  0  0  0  0  0
  190.1280  177.7400  139.4380 C   0  0  1  0  0  3  0  0  0  0  0  0
  191.1930  178.1870  140.2070 F   0  0  0  0  0  0  0  0  0  0  0  0
  188.3700  176.3490  137.4470 C   0  0  0  0  0  0  0  0  0  0  0  0
  190.5850  178.1540  144.7100 C   0  0  0  0  0  3  0  0  0  0  0  0
  190.7420  179.4450  144.2500 O   0  0  0  0  0  0  0  0  0  0  0  0
  191.5520  178.4870  143.7850 O   0  0  0  0  0  0  0  0  0  0  0  0
  188.6280  177.0180  146.8690 C   0  0  0  0  0  2  0  0  0  0  0  0
  188.2960  177.5400  148.2260 C   0  0  0  0  0  3  0  0  0  0  0  0
  188.9820  178.4150  148.7280 O   0  0  0  0  0  0  0  0  0  0  0  0
  1  4  1  0  0  0  0
  2  5  1  0  0  0  0
  3 14  1  0  0  0  0
  3  1  1  0  0  0  0
  4  2  1  0  0  0  0
  4 27  1  0  0  0  0
  5 10  2  0  0  0  0
  5 30  1  0  0  0  0
  6 15  1  0  0  0  0
  7 13  1  0  0  0  0
  7  2  2  0  0  0  0
  9  8  1  0  0  0  0
  9 10  1  0  0  0  0
 11  7  1  0  0  0  0
 12 21  1  6  0  0  0
 12 11  1  0  0  0  0
 12  1  1  0  0  0  0
 13  9  2  0  0  0  0
 14  1  1  0  0  0  0
 15  8  2  0  0  0  0
 16  6  1  0  0  0  0
 16 13  1  0  0  0  0
 17 19  2  0  0  0  0
 17 24  1  0  0  0  0
 18 26  1  0  0  0  0
 20 23  1  0  0  0  0
 22 17  1  0  0  0  0
 23 21  2  0  0  0  0
 24 25  1  1  0  0  0
 24 21  1  0  0  0  0
 26 22  1  0  0  0  0
 26 20  2  0  0  0  0
 28 27  1  0  0  0  0
 29 28  1  0  0  0  0
 29 27  1  0  0  0  0
 30 31  1  0  0  0  0
 31 32  2  0  0  0  0
M  END
>  <MODEL>
2

>  <REMARK>
 VINA RESULT:      -9.9      1.370      1.821
  Name = 
  4 active torsions:
  status: ('A' for Active; 'I' for Inactive)
    1  A    between atoms: N_5  and  C_14
    2  A    between atoms: C_6  and  C_29
    3  A    between atoms: C_13  and  C_29
    4  A    between atoms: C_16  and  C_27
                            x       y       z     vdW  Elec       q    Type
                         _______ _______ _______ _____ _____    ______ ____

>  <TORSDO>
F 4

$$$$
=
 OpenBabel11052414373D

 32 37  0  0  1  0  0  0  0  0999 V2000
  186.6310  177.8760  144.4580 C   0  0  0  0  0  0  0  0  0  0  0  0
  185.9270  178.5220  142.1920 C   0  0  0  0  0  0  0  0  0  0  0  0
  186.1880  177.3190  145.7980 C   0  0  0  0  0  2  0  0  0  0  0  0
  185.6440  178.5530  143.6120 N   0  0  0  0  0  0  0  0  0  0  0  0
  184.9020  178.6350  141.2220 C   0  0  0  0  0  0  0  0  0  0  0  0
  189.0780  177.6090  138.5440 C   0  0  0  0  0  2  0  0  0  0  0  0
  187.2720  178.3750  141.7600 C   0  0  0  0  0  0  0  0  0  0  0  0
  186.8590  178.5010  138.0440 N   0  0  0  0  0  0  0  0  0  0  0  0
  186.5460  178.5030  139.4430 C   0  0  0  0  0  0  0  0  0  0  0  0
  185.2230  178.6280  139.8610 C   0  0  0  0  0  3  0  0  0  0  0  0
  188.3270  178.2000  142.7200 N   0  0  0  0  0  2  0  0  0  0  0  0
  188.0910  178.2410  144.1620 C   0  0  2  0  0  3  0  0  0  0  0  0
  187.5730  178.3640  140.3910 C   0  0  0  0  0  0  0  0  0  0  0  0
  186.3250  176.3960  144.5930 C   0  0  0  0  0  2  0  0  0  0  0  0
  188.0280  178.1360  137.6050 C   0  0  0  0  0  3  0  0  0  0  0  0
  188.9960  178.3060  139.9040 C   0  0  0  0  0  2  0  0  0  0  0  0
  191.2800  176.5400  144.2020 C   0  0  0  0  0  0  0  0  0  0  0  0
  192.4300  175.9950  147.7480 C   0  0  0  0  0  1  0  0  0  0  0  0
  191.8400  176.7360  143.0900 O   0  0  0  0  0  0  0  0  0  0  0  0
  190.4120  177.1280  147.0550 C   0  0  0  0  0  3  0  0  0  0  0  0
  189.1370  177.4650  144.9210 C   0  0  0  0  0  0  0  0  0  0  0  0
  192.0560  176.5310  145.3630 O   0  0  0  0  0  0  0  0  0  0  0  0
  189.3980  177.7710  146.1970 C   0  0  0  0  0  3  0  0  0  0  0  0
  189.8090  176.3030  144.2630 C   0  0  1  0  0  3  0  0  0  0  0  0
  189.2930  176.0620  142.9990 F   0  0  0  0  0  0  0  0  0  0  0  0
  191.5670  176.5590  146.6790 C   0  0  0  0  0  0  0  0  0  0  0  0
  184.9310  179.7210  144.1410 C   0  0  0  0  0  3  0  0  0  0  0  0
  184.5380  179.5180  145.4480 O   0  0  0  0  0  0  0  0  0  0  0  0
  183.6370  179.3750  144.4690 O   0  0  0  0  0  0  0  0  0  0  0  0
  183.4560  178.6760  141.5880 C   0  0  0  0  0  2  0  0  0  0  0  0
  182.6520  177.9080  140.5940 C   0  0  0  0  0  3  0  0  0  0  0  0
  181.4350  177.9160  140.6570 O   0  0  0  0  0  0  0  0  0  0  0  0
  1 14  1  0  0  0  0
  1  3  1  0  0  0  0
  2  4  1  0  0  0  0
  4 27  1  0  0  0  0
  4  1  1  0  0  0  0
  5 30  1  0  0  0  0
  5  2  2  0  0  0  0
  6 16  1  0  0  0  0
  7  2  1  0  0  0  0
  7 11  1  0  0  0  0
  8  9  1  0  0  0  0
  9 10  2  0  0  0  0
  9 13  1  0  0  0  0
 10  5  1  0  0  0  0
 11 12  1  0  0  0  0
 12  1  1  0  0  0  0
 12 21  1  1  0  0  0
 13  7  2  0  0  0  0
 14  3  1  0  0  0  0
 15  8  2  0  0  0  0
 15  6  1  0  0  0  0
 16 13  1  0  0  0  0
 17 24  1  0  0  0  0
 17 22  1  0  0  0  0
 19 17  2  0  0  0  0
 21 23  2  0  0  0  0
 22 26  1  0  0  0  0
 23 20  1  0  0  0  0
 24 25  1  6  0  0  0
 24 21  1  0  0  0  0
 26 20  2  0  0  0  0
 26 18  1  0  0  0  0
 27 29  1  0  0  0  0
 27 28  1  0  0  0  0
 29 28  1  0  0  0  0
 31 32  2  0  0  0  0
 31 30  1  0  0  0  0
M  END
>  <MODEL>
3

>  <REMARK>
 VINA RESULT:      -9.3      2.827      6.440
  Name = 
  4 active torsions:
  status: ('A' for Active; 'I' for Inactive)
    1  A    between atoms: N_5  and  C_14
    2  A    between atoms: C_6  and  C_29
    3  A    between atoms: C_13  and  C_29
    4  A    between atoms: C_16  and  C_27
                            x       y       z     vdW  Elec       q    Type
                         _______ _______ _______ _____ _____    ______ ____

>  <TORSDO>
F 4

$$$$
=
 OpenBabel11052414373D

 32 37  0  0  1  0  0  0  0  0999 V2000
  188.9840  177.4410  142.0820 C   0  0  0  0  0  0  0  0  0  0  0  0
  189.3910  177.2860  139.6620 C   0  0  0  0  0  0  0  0  0  0  0  0
  187.9660  177.2820  143.1960 C   0  0  0  0  0  2  0  0  0  0  0  0
  188.5100  177.7240  140.7240 N   0  0  0  0  0  0  0  0  0  0  0  0
  188.9100  176.9930  138.3630 C   0  0  0  0  0  0  0  0  0  0  0  0
  193.7820  175.6120  138.2530 C   0  0  0  0  0  2  0  0  0  0  0  0
  190.7790  177.1470  139.9300 C   0  0  0  0  0  0  0  0  0  0  0  0
  192.0630  176.0830  136.5820 N   0  0  0  0  0  0  0  0  0  0  0  0
  191.1630  176.4840  137.6230 C   0  0  0  0  0  0  0  0  0  0  0  0
  189.8000  176.6000  137.3590 C   0  0  0  0  0  3  0  0  0  0  0  0
  191.2890  177.3810  141.2540 N   0  0  0  0  0  2  0  0  0  0  0  0
  190.4400  177.8400  142.3520 C   0  0  2  0  0  3  0  0  0  0  0  0
  191.6550  176.7460  138.9120 C   0  0  0  0  0  0  0  0  0  0  0  0
  188.5750  176.0520  142.5350 C   0  0  0  0  0  2  0  0  0  0  0  0
  193.2860  175.7180  136.8370 C   0  0  0  0  0  3  0  0  0  0  0  0
  193.1410  176.6820  139.1400 C   0  0  0  0  0  2  0  0  0  0  0  0
  190.1990  177.8860  145.9580 C   0  0  0  0  0  0  0  0  0  0  0  0
  192.4650  175.2740  147.4560 C   0  0  0  0  0  1  0  0  0  0  0  0
  189.0970  178.4110  146.2690 O   0  0  0  0  0  0  0  0  0  0  0  0
  192.1290  175.7000  145.1010 C   0  0  0  0  0  3  0  0  0  0  0  0
  191.0000  177.4420  143.6940 C   0  0  0  0  0  0  0  0  0  0  0  0
  190.6740  176.8060  146.7060 O   0  0  0  0  0  0  0  0  0  0  0  0
  191.5720  176.2420  143.8470 C   0  0  0  0  0  3  0  0  0  0  0  0
  190.9890  178.4300  144.8160 C   0  0  1  0  0  3  0  0  0  0  0  0
  190.4900  179.6590  144.4110 F   0  0  0  0  0  0  0  0  0  0  0  0
  191.7500  175.9740  146.3580 C   0  0  0  0  0  0  0  0  0  0  0  0
  187.6960  178.9220  140.4870 C   0  0  0  0  0  3  0  0  0  0  0  0
  186.7200  179.0630  141.4520 O   0  0  0  0  0  0  0  0  0  0  0  0
  186.3850  178.5620  140.2570 O   0  0  0  0  0  0  0  0  0  0  0  0
  187.4560  177.0010  138.0290 C   0  0  0  0  0  2  0  0  0  0  0  0
  187.1940  177.9320  136.8930 C   0  0  0  0  0  3  0  0  0  0  0  0
  187.4110  179.1250  137.0190 O   0  0  0  0  0  0  0  0  0  0  0  0
  1 12  1  0  0  0  0
  1 14  1  0  0  0  0
  1  3  1  0  0  0  0
  2  7  1  0  0  0  0
  2  4  1  0  0  0  0
  4  1  1  0  0  0  0
  5  2  2  0  0  0  0
  6 16  1  0  0  0  0
  7 11  1  0  0  0  0
  8 15  2  0  0  0  0
  8  9  1  0  0  0  0
  9 13  1  0  0  0  0
 10  9  2  0  0  0  0
 10  5  1  0  0  0  0
 11 12  1  0  0  0  0
 12 21  1  1  0  0  0
 13 16  1  0  0  0  0
 13  7  2  0  0  0  0
 14  3  1  0  0  0  0
 15  6  1  0  0  0  0
 17 19  2  0  0  0  0
 17 22  1  0  0  0  0
 20 26  2  0  0  0  0
 21 23  2  0  0  0  0
 21 24  1  0  0  0  0
 23 20  1  0  0  0  0
 24 25  1  6  0  0  0
 24 17  1  0  0  0  0
 26 22  1  0  0  0  0
 26 18  1  0  0  0  0
 27  4  1  0  0  0  0
 27 28  1  0  0  0  0
 29 27  1  0  0  0  0
 29 28  1  0  0  0  0
 30  5  1  0  0  0  0
 31 32  2  0  0  0  0
 31 30  1  0  0  0  0
M  END
>  <MODEL>
4

>  <REMARK>
 VINA RESULT:      -9.2      2.747      7.703
  Name = 
  4 active torsions:
  status: ('A' for Active; 'I' for Inactive)
    1  A    between atoms: N_5  and  C_14
    2  A    between atoms: C_6  and  C_29
    3  A    between atoms: C_13  and  C_29
    4  A    between atoms: C_16  and  C_27
                            x       y       z     vdW  Elec       q    Type
                         _______ _______ _______ _____ _____    ______ ____

>  <TORSDO>
F 4

$$$$
=
 OpenBabel11052414373D

 32 37  0  0  1  0  0  0  0  0999 V2000
  190.5080  177.2380  142.3660 C   0  0  0  0  0  0  0  0  0  0  0  0
  188.3170  177.7380  141.3700 C   0  0  0  0  0  0  0  0  0  0  0  0
  192.0130  177.3770  142.2250 C   0  0  0  0  0  2  0  0  0  0  0  0
  189.6760  177.2850  141.1610 N   0  0  0  0  0  0  0  0  0  0  0  0
  187.5580  178.3340  140.3340 C   0  0  0  0  0  0  0  0  0  0  0  0
  184.6690  178.8260  144.4650 C   0  0  0  0  0  2  0  0  0  0  0  0
  187.7260  177.5790  142.6520 C   0  0  0  0  0  0  0  0  0  0  0  0
  184.3040  178.9670  142.0530 N   0  0  0  0  0  0  0  0  0  0  0  0
  185.6590  178.5570  141.8260 C   0  0  0  0  0  0  0  0  0  0  0  0
  186.2400  178.7330  140.5720 C   0  0  0  0  0  3  0  0  0  0  0  0
  188.4900  177.0310  143.7400 N   0  0  0  0  0  2  0  0  0  0  0  0
  189.8580  176.5450  143.5710 C   0  0  2  0  0  3  0  0  0  0  0  0
  186.4040  177.9910  142.8730 C   0  0  0  0  0  0  0  0  0  0  0  0
  191.1680  178.5770  142.6390 C   0  0  0  0  0  2  0  0  0  0  0  0
  183.8090  179.0590  143.2530 C   0  0  0  0  0  3  0  0  0  0  0  0
  185.7200  177.7490  144.1920 C   0  0  0  0  0  2  0  0  0  0  0  0
  189.9270  177.1790  147.1290 C   0  0  0  0  0  0  0  0  0  0  0  0
  193.0490  175.7270  148.6590 C   0  0  0  0  0  1  0  0  0  0  0  0
  188.7440  177.3830  147.5120 O   0  0  0  0  0  0  0  0  0  0  0  0
  192.3910  175.5840  146.3390 C   0  0  0  0  0  3  0  0  0  0  0  0
  190.6320  176.5970  144.8640 C   0  0  0  0  0  0  0  0  0  0  0  0
  190.7940  176.4590  147.9530 O   0  0  0  0  0  0  0  0  0  0  0  0
  191.5790  175.6850  145.1100 C   0  0  0  0  0  3  0  0  0  0  0  0
  190.3900  177.7210  145.8190 C   0  0  1  0  0  3  0  0  0  0  0  0
  189.4800  178.6360  145.3120 F   0  0  0  0  0  0  0  0  0  0  0  0
  192.0510  175.9530  147.5820 C   0  0  0  0  0  0  0  0  0  0  0  0
  189.9140  176.3110  140.0900 C   0  0  0  0  0  3  0  0  0  0  0  0
  191.2560  176.2260  139.7800 O   0  0  0  0  0  0  0  0  0  0  0  0
  190.4510  176.9440  138.9890 O   0  0  0  0  0  0  0  0  0  0  0  0
  188.1400  178.6430  138.9950 C   0  0  0  0  0  2  0  0  0  0  0  0
  187.2120  178.1960  137.9160 C   0  0  0  0  0  3  0  0  0  0  0  0
  187.0140  178.9100  136.9480 O   0  0  0  0  0  0  0  0  0  0  0  0
  1 14  1  0  0  0  0
  1 12  1  0  0  0  0
  2  7  1  0  0  0  0
  3  1  1  0  0  0  0
  3 14  1  0  0  0  0
  4  2  1  0  0  0  0
  4  1  1  0  0  0  0
  5 10  1  0  0  0  0
  5  2  2  0  0  0  0
  7 13  2  0  0  0  0
  7 11  1  0  0  0  0
  8 15  2  0  0  0  0
  9  8  1  0  0  0  0
  9 13  1  0  0  0  0
 10  9  2  0  0  0  0
 12 11  1  0  0  0  0
 12 21  1  1  0  0  0
 13 16  1  0  0  0  0
 15  6  1  0  0  0  0
 16  6  1  0  0  0  0
 17 19  2  0  0  0  0
 17 22  1  0  0  0  0
 20 26  2  0  0  0  0
 21 23  2  0  0  0  0
 21 24  1  0  0  0  0
 23 20  1  0  0  0  0
 24 25  1  6  0  0  0
 24 17  1  0  0  0  0
 26 22  1  0  0  0  0
 26 18  1  0  0  0  0
 27  4  1  0  0  0  0
 28 27  1  0  0  0  0
 29 28  1  0  0  0  0
 29 27  1  0  0  0  0
 30  5  1  0  0  0  0
 31 30  1  0  0  0  0
 32 31  2  0  0  0  0
M  END
>  <MODEL>
5

>  <REMARK>
 VINA RESULT:      -9.2      2.357      6.335
  Name = 
  4 active torsions:
  status: ('A' for Active; 'I' for Inactive)
    1  A    between atoms: N_5  and  C_14
    2  A    between atoms: C_6  and  C_29
    3  A    between atoms: C_13  and  C_29
    4  A    between atoms: C_16  and  C_27
                            x       y       z     vdW  Elec       q    Type
                         _______ _______ _______ _____ _____    ______ ____

>  <TORSDO>
F 4

$$$$
=
 OpenBabel11052414373D

 32 37  0  0  1  0  0  0  0  0999 V2000
  185.1290  178.8060  144.1590 C   0  0  0  0  0  0  0  0  0  0  0  0
  187.2730  178.0120  145.0640 C   0  0  0  0  0  0  0  0  0  0  0  0
  183.9580  179.7510  144.3540 C   0  0  0  0  0  2  0  0  0  0  0  0
  185.8990  178.3820  145.3310 N   0  0  0  0  0  0  0  0  0  0  0  0
  188.2770  178.0870  146.0590 C   0  0  0  0  0  0  0  0  0  0  0  0
  190.7850  176.9230  141.8160 C   0  0  0  0  0  2  0  0  0  0  0  0
  187.6250  177.5590  143.7640 C   0  0  0  0  0  0  0  0  0  0  0  0
  191.2670  176.8300  144.2090 N   0  0  0  0  0  0  0  0  0  0  0  0
  189.9210  177.2330  144.4940 C   0  0  0  0  0  0  0  0  0  0  0  0
  189.5860  177.6940  145.7650 C   0  0  0  0  0  3  0  0  0  0  0  0
  186.6410  177.5280  142.7160 N   0  0  0  0  0  2  0  0  0  0  0  0
  185.2400  177.8750  142.9450 C   0  0  2  0  0  3  0  0  0  0  0  0
  188.9440  177.1760  143.4870 C   0  0  0  0  0  0  0  0  0  0  0  0
  185.3050  180.2880  143.8850 C   0  0  0  0  0  2  0  0  0  0  0  0
  191.6800  176.6390  142.9900 C   0  0  0  0  0  3  0  0  0  0  0  0
  189.3270  176.6030  142.1480 C   0  0  0  0  0  2  0  0  0  0  0  0
  185.4390  178.6280  139.4150 C   0  0  0  0  0  0  0  0  0  0  0  0
  181.9840  178.9180  137.9400 C   0  0  0  0  0  1  0  0  0  0  0  0
  186.5700  178.2580  139.0010 O   0  0  0  0  0  0  0  0  0  0  0  0
  182.5220  178.3710  140.2310 C   0  0  0  0  0  3  0  0  0  0  0  0
  184.5690  178.3500  141.6810 C   0  0  0  0  0  0  0  0  0  0  0  0
  184.3220  178.4500  138.5960 O   0  0  0  0  0  0  0  0  0  0  0  0
  183.2980  178.0140  141.4350 C   0  0  0  0  0  3  0  0  0  0  0  0
  185.3080  179.2640  140.7580 C   0  0  1  0  0  3  0  0  0  0  0  0
  186.5520  179.6080  141.2650 F   0  0  0  0  0  0  0  0  0  0  0  0
  182.9820  178.5900  138.9900 C   0  0  0  0  0  0  0  0  0  0  0  0
  185.2090  177.6950  146.4300 C   0  0  0  0  0  3  0  0  0  0  0  0
  183.9710  178.2550  146.6700 O   0  0  0  0  0  0  0  0  0  0  0  0
  184.9940  178.5720  147.4720 O   0  0  0  0  0  0  0  0  0  0  0  0
  188.0180  178.6590  147.4130 C   0  0  0  0  0  2  0  0  0  0  0  0
  188.4190  177.6850  148.4690 C   0  0  0  0  0  3  0  0  0  0  0  0
  187.9300  176.5680  148.4840 O   0  0  0  0  0  0  0  0  0  0  0  0
  1  3  1  0  0  0  0
  1  4  1  0  0  0  0
  2  4  1  0  0  0  0
  2  5  1  0  0  0  0
  4 27  1  0  0  0  0
  5 30  1  0  0  0  0
  6 16  1  0  0  0  0
  6 15  1  0  0  0  0
  7  2  2  0  0  0  0
  8  9  1  0  0  0  0
  9 10  1  0  0  0  0
 10  5  2  0  0  0  0
 11 12  1  0  0  0  0
 11  7  1  0  0  0  0
 12 21  1  6  0  0  0
 12  1  1  0  0  0  0
 13  7  1  0  0  0  0
 13  9  2  0  0  0  0
 14  1  1  0  0  0  0
 14  3  1  0  0  0  0
 15  8  2  0  0  0  0
 16 13  1  0  0  0  0
 17 24  1  0  0  0  0
 18 26  1  0  0  0  0
 19 17  2  0  0  0  0
 20 23  1  0  0  0  0
 22 26  1  0  0  0  0
 22 17  1  0  0  0  0
 23 21  2  0  0  0  0
 24 25  1  1  0  0  0
 24 21  1  0  0  0  0
 26 20  2  0  0  0  0
 27 28  1  0  0  0  0
 27 29  1  0  0  0  0
 28 29  1  0  0  0  0
 30 31  1  0  0  0  0
 31 32  2  0  0  0  0
M  END
>  <MODEL>
6

>  <REMARK>
 VINA RESULT:      -9.0      2.625      5.560
  Name = 
  4 active torsions:
  status: ('A' for Active; 'I' for Inactive)
    1  A    between atoms: N_5  and  C_14
    2  A    between atoms: C_6  and  C_29
    3  A    between atoms: C_13  and  C_29
    4  A    between atoms: C_16  and  C_27
                            x       y       z     vdW  Elec       q    Type
                         _______ _______ _______ _____ _____    ______ ____

>  <TORSDO>
F 4

$$$$
=
 OpenBabel11052414373D

 32 37  0  0  1  0  0  0  0  0999 V2000
  186.0700  177.8640  138.0430 C   0  0  0  0  0  0  0  0  0  0  0  0
  188.3530  177.5530  138.9030 C   0  0  0  0  0  0  0  0  0  0  0  0
  185.0930  177.5370  136.9300 C   0  0  0  0  0  2  0  0  0  0  0  0
  187.5070  177.8230  137.7590 N   0  0  0  0  0  0  0  0  0  0  0  0
  189.6370  176.9720  138.7640 C   0  0  0  0  0  0  0  0  0  0  0  0
  188.8570  177.1480  143.7660 C   0  0  0  0  0  2  0  0  0  0  0  0
  187.8810  177.8790  140.2020 C   0  0  0  0  0  0  0  0  0  0  0  0
  190.7990  176.8650  142.3110 N   0  0  0  0  0  0  0  0  0  0  0  0
  189.9710  177.0930  141.1630 C   0  0  0  0  0  0  0  0  0  0  0  0
  190.4310  176.7530  139.8930 C   0  0  0  0  0  3  0  0  0  0  0  0
  186.5590  178.4150  140.3800 N   0  0  0  0  0  2  0  0  0  0  0  0
  185.6780  178.7200  139.2540 C   0  0  2  0  0  3  0  0  0  0  0  0
  188.6900  177.6450  141.3230 C   0  0  0  0  0  0  0  0  0  0  0  0
  185.4490  176.4820  137.9710 C   0  0  0  0  0  2  0  0  0  0  0  0
  190.3240  176.9260  143.5210 C   0  0  0  0  0  3  0  0  0  0  0  0
  188.2570  178.0680  142.7010 C   0  0  0  0  0  2  0  0  0  0  0  0
  182.1970  179.1560  138.3810 C   0  0  0  0  0  0  0  0  0  0  0  0
  179.9850  177.5270  140.9600 C   0  0  0  0  0  1  0  0  0  0  0  0
  182.1310  179.3750  137.1420 O   0  0  0  0  0  0  0  0  0  0  0  0
  182.4010  177.5320  140.9420 C   0  0  0  0  0  3  0  0  0  0  0  0
  184.2250  178.6770  139.6560 C   0  0  0  0  0  0  0  0  0  0  0  0
  181.2180  178.3660  138.9860 O   0  0  0  0  0  0  0  0  0  0  0  0
  183.7920  177.7240  140.4890 C   0  0  0  0  0  3  0  0  0  0  0  0
  183.3020  179.7540  139.1850 C   0  0  1  0  0  3  0  0  0  0  0  0
  183.9750  180.7230  138.4570 F   0  0  0  0  0  0  0  0  0  0  0  0
  181.2720  177.8430  140.2880 C   0  0  0  0  0  0  0  0  0  0  0  0
  188.0490  178.6770  136.6950 C   0  0  0  0  0  3  0  0  0  0  0  0
  188.7360  179.7530  137.2180 O   0  0  0  0  0  0  0  0  0  0  0  0
  187.4890  179.9340  136.7680 O   0  0  0  0  0  0  0  0  0  0  0  0
  190.1590  176.4940  137.4510 C   0  0  0  0  0  2  0  0  0  0  0  0
  189.7670  175.0730  137.2280 C   0  0  0  0  0  3  0  0  0  0  0  0
  190.5040  174.1720  137.5930 O   0  0  0  0  0  0  0  0  0  0  0  0
  1 12  1  0  0  0  0
  2  7  1  0  0  0  0
  3 14  1  0  0  0  0
  3  1  1  0  0  0  0
  4  1  1  0  0  0  0
  4  2  1  0  0  0  0
  5  2  2  0  0  0  0
  5 10  1  0  0  0  0
  7 11  1  0  0  0  0
  7 13  2  0  0  0  0
  8 15  2  0  0  0  0
  9 13  1  0  0  0  0
  9  8  1  0  0  0  0
 10  9  2  0  0  0  0
 12 21  1  1  0  0  0
 12 11  1  0  0  0  0
 13 16  1  0  0  0  0
 14  1  1  0  0  0  0
 15  6  1  0  0  0  0
 16  6  1  0  0  0  0
 17 22  1  0  0  0  0
 17 24  1  0  0  0  0
 19 17  2  0  0  0  0
 21 23  2  0  0  0  0
 22 26  1  0  0  0  0
 23 20  1  0  0  0  0
 24 25  1  6  0  0  0
 24 21  1  0  0  0  0
 26 20  2  0  0  0  0
 26 18  1  0  0  0  0
 27 29  1  0  0  0  0
 27 28  1  0  0  0  0
 27  4  1  0  0  0  0
 29 28  1  0  0  0  0
 30  5  1  0  0  0  0
 31 30  1  0  0  0  0
 31 32  2  0  0  0  0
M  END
>  <MODEL>
7

>  <REMARK>
 VINA RESULT:      -8.5      3.648      7.455
  Name = 
  4 active torsions:
  status: ('A' for Active; 'I' for Inactive)
    1  A    between atoms: N_5  and  C_14
    2  A    between atoms: C_6  and  C_29
    3  A    between atoms: C_13  and  C_29
    4  A    between atoms: C_16  and  C_27
                            x       y       z     vdW  Elec       q    Type
                         _______ _______ _______ _____ _____    ______ ____

>  <TORSDO>
F 4

$$$$
=
 OpenBabel11052414373D

 32 37  0  0  1  0  0  0  0  0999 V2000
  181.9380  178.2000  138.8140 C   0  0  0  0  0  0  0  0  0  0  0  0
  181.5410  178.3950  141.2330 C   0  0  0  0  0  0  0  0  0  0  0  0
  181.4220  178.5330  137.4270 C   0  0  0  0  0  2  0  0  0  0  0  0
  180.9850  178.1200  139.9250 N   0  0  0  0  0  0  0  0  0  0  0  0
  180.7430  178.8710  142.3010 C   0  0  0  0  0  0  0  0  0  0  0  0
  185.4810  179.0420  144.0840 C   0  0  0  0  0  2  0  0  0  0  0  0
  182.9280  178.1790  141.4530 C   0  0  0  0  0  0  0  0  0  0  0  0
  183.2430  179.0980  145.0650 N   0  0  0  0  0  0  0  0  0  0  0  0
  182.6720  178.8650  143.7710 C   0  0  0  0  0  0  0  0  0  0  0  0
  181.3160  179.0970  143.5560 C   0  0  0  0  0  3  0  0  0  0  0  0
  183.7750  177.7510  140.3730 N   0  0  0  0  0  2  0  0  0  0  0  0
  183.2550  177.4460  139.0410 C   0  0  2  0  0  3  0  0  0  0  0  0
  183.4850  178.4170  142.7170 C   0  0  0  0  0  0  0  0  0  0  0  0
  182.0600  179.6170  138.2870 C   0  0  0  0  0  2  0  0  0  0  0  0
  184.5310  179.1420  145.2470 C   0  0  0  0  0  3  0  0  0  0  0  0
  184.9290  178.1080  143.0060 C   0  0  0  0  0  2  0  0  0  0  0  0
  186.6830  178.1720  138.1520 C   0  0  0  0  0  0  0  0  0  0  0  0
  187.3650  177.1220  134.5970 C   0  0  0  0  0  1  0  0  0  0  0  0
  187.3540  178.2490  139.2150 O   0  0  0  0  0  0  0  0  0  0  0  0
  185.2860  176.8480  135.7990 C   0  0  0  0  0  3  0  0  0  0  0  0
  184.3100  177.6170  137.9780 C   0  0  0  0  0  0  0  0  0  0  0  0
  187.2560  177.5760  137.0270 O   0  0  0  0  0  0  0  0  0  0  0  0
  184.3040  176.8250  136.9000 C   0  0  0  0  0  3  0  0  0  0  0  0
  185.3000  178.7300  138.1000 C   0  0  1  0  0  3  0  0  0  0  0  0
  185.0450  179.5230  139.2090 F   0  0  0  0  0  0  0  0  0  0  0  0
  186.5770  177.2070  135.8540 C   0  0  0  0  0  0  0  0  0  0  0  0
  179.8700  177.1700  139.8420 C   0  0  0  0  0  3  0  0  0  0  0  0
  180.1530  176.0060  140.5260 O   0  0  0  0  0  0  0  0  0  0  0  0
  180.2760  176.0230  139.1940 O   0  0  0  0  0  0  0  0  0  0  0  0
  179.3060  179.2340  142.1240 C   0  0  0  0  0  2  0  0  0  0  0  0
  179.1500  180.7170  142.0910 C   0  0  0  0  0  3  0  0  0  0  0  0
  179.6790  181.3660  141.2050 O   0  0  0  0  0  0  0  0  0  0  0  0
  1 12  1  0  0  0  0
  1  4  1  0  0  0  0
  2  7  2  0  0  0  0
  2  5  1  0  0  0  0
  3 14  1  0  0  0  0
  3  1  1  0  0  0  0
  4  2  1  0  0  0  0
  5 10  2  0  0  0  0
  6 15  1  0  0  0  0
  7 13  1  0  0  0  0
  8 15  2  0  0  0  0
  9  8  1  0  0  0  0
 10  9  1  0  0  0  0
 11  7  1  0  0  0  0
 12 21  1  6  0  0  0
 12 11  1  0  0  0  0
 13 16  1  0  0  0  0
 13  9  2  0  0  0  0
 14  1  1  0  0  0  0
 16  6  1  0  0  0  0
 17 19  2  0  0  0  0
 18 26  1  0  0  0  0
 20 26  2  0  0  0  0
 20 23  1  0  0  0  0
 21 24  1  0  0  0  0
 22 17  1  0  0  0  0
 23 21  2  0  0  0  0
 24 17  1  0  0  0  0
 24 25  1  1  0  0  0
 26 22  1  0  0  0  0
 27  4  1  0  0  0  0
 27 28  1  0  0  0  0
 29 27  1  0  0  0  0
 29 28  1  0  0  0  0
 30  5  1  0  0  0  0
 31 30  1  0  0  0  0
 32 31  2  0  0  0  0
M  END
>  <MODEL>
8

>  <REMARK>
 VINA RESULT:      -8.5      4.329      7.178
  Name = 
  4 active torsions:
  status: ('A' for Active; 'I' for Inactive)
    1  A    between atoms: N_5  and  C_14
    2  A    between atoms: C_6  and  C_29
    3  A    between atoms: C_13  and  C_29
    4  A    between atoms: C_16  and  C_27
                            x       y       z     vdW  Elec       q    Type
                         _______ _______ _______ _____ _____    ______ ____

>  <TORSDO>
F 4

$$$$
=
 OpenBabel11052414373D

 32 37  0  0  1  0  0  0  0  0999 V2000
  185.2570  178.6330  144.1000 C   0  0  0  0  0  0  0  0  0  0  0  0
  187.5710  177.8890  144.4740 C   0  0  0  0  0  0  0  0  0  0  0  0
  184.1010  179.4540  144.6390 C   0  0  0  0  0  2  0  0  0  0  0  0
  186.2580  178.1180  145.0390 N   0  0  0  0  0  0  0  0  0  0  0  0
  188.7430  177.9090  145.2690 C   0  0  0  0  0  0  0  0  0  0  0  0
  190.4420  177.4950  140.5150 C   0  0  0  0  0  2  0  0  0  0  0  0
  187.6880  177.6370  143.0810 C   0  0  0  0  0  0  0  0  0  0  0  0
  191.3780  177.1280  142.7410 N   0  0  0  0  0  0  0  0  0  0  0  0
  190.0940  177.3890  143.3230 C   0  0  0  0  0  0  0  0  0  0  0  0
  189.9880  177.6550  144.6860 C   0  0  0  0  0  3  0  0  0  0  0  0
  186.5240  177.6680  142.2380 N   0  0  0  0  0  2  0  0  0  0  0  0
  185.1780  177.8780  142.7670 C   0  0  2  0  0  3  0  0  0  0  0  0
  188.9470  177.3910  142.5140 C   0  0  0  0  0  0  0  0  0  0  0  0
  185.3060  180.1460  144.0110 C   0  0  0  0  0  2  0  0  0  0  0  0
  191.5590  177.1280  141.4530 C   0  0  0  0  0  3  0  0  0  0  0  0
  189.0920  177.0270  141.0610 C   0  0  0  0  0  2  0  0  0  0  0  0
  184.5610  178.8090  139.3290 C   0  0  0  0  0  0  0  0  0  0  0  0
  180.8800  179.3930  138.7700 C   0  0  0  0  0  1  0  0  0  0  0  0
  185.5250  178.3930  138.6340 O   0  0  0  0  0  0  0  0  0  0  0  0
  181.9220  178.6890  140.8330 C   0  0  0  0  0  3  0  0  0  0  0  0
  184.2550  178.4620  141.7280 C   0  0  0  0  0  0  0  0  0  0  0  0
  183.2670  178.7450  138.8070 O   0  0  0  0  0  0  0  0  0  0  0  0
  182.9400  178.2190  141.7930 C   0  0  0  0  0  3  0  0  0  0  0  0
  184.8100  179.3780  140.6850 C   0  0  1  0  0  3  0  0  0  0  0  0
  186.1620  179.6160  140.8810 F   0  0  0  0  0  0  0  0  0  0  0  0
  182.0780  178.9460  139.5270 C   0  0  0  0  0  0  0  0  0  0  0  0
  185.8260  177.2450  146.1370 C   0  0  0  0  0  3  0  0  0  0  0  0
  184.7720  177.8020  146.8320 O   0  0  0  0  0  0  0  0  0  0  0  0
  186.0050  177.8850  147.3460 O   0  0  0  0  0  0  0  0  0  0  0  0
  188.7210  178.2790  146.7140 C   0  0  0  0  0  2  0  0  0  0  0  0
  189.4160  177.2370  147.5230 C   0  0  0  0  0  3  0  0  0  0  0  0
  190.4610  177.5030  148.0930 O   0  0  0  0  0  0  0  0  0  0  0  0
  1  3  1  0  0  0  0
  1  4  1  0  0  0  0
  2  4  1  0  0  0  0
  2  5  1  0  0  0  0
  4 27  1  0  0  0  0
  5 30  1  0  0  0  0
  6 16  1  0  0  0  0
  6 15  1  0  0  0  0
  7  2  2  0  0  0  0
  8  9  1  0  0  0  0
  9 10  1  0  0  0  0
 10  5  2  0  0  0  0
 11 12  1  0  0  0  0
 11  7  1  0  0  0  0
 12 21  1  6  0  0  0
 12  1  1  0  0  0  0
 13  7  1  0  0  0  0
 13  9  2  0  0  0  0
 14  1  1  0  0  0  0
 14  3  1  0  0  0  0
 15  8  2  0  0  0  0
 16 13  1  0  0  0  0
 17 24  1  0  0  0  0
 18 26  1  0  0  0  0
 19 17  2  0  0  0  0
 20 23  1  0  0  0  0
 21 23  2  0  0  0  0
 22 17  1  0  0  0  0
 22 26  1  0  0  0  0
 24 25  1  1  0  0  0
 24 21  1  0  0  0  0
 26 20  2  0  0  0  0
 27 28  1  0  0  0  0
 27 29  1  0  0  0  0
 28 29  1  0  0  0  0
 30 31  1  0  0  0  0
 31 32  2  0  0  0  0
M  END
>  <MODEL>
9

>  <REMARK>
 VINA RESULT:      -8.2      2.280      5.768
  Name = 
  4 active torsions:
  status: ('A' for Active; 'I' for Inactive)
    1  A    between atoms: N_5  and  C_14
    2  A    between atoms: C_6  and  C_29
    3  A    between atoms: C_13  and  C_29
    4  A    between atoms: C_16  and  C_27
                            x       y       z     vdW  Elec       q    Type
                         _______ _______ _______ _____ _____    ______ ____

>  <TORSDO>
F 4

$$$$
