=
 OpenBabel11052412363D

 30 30  0  0  1  0  0  0  0  0999 V2000
  188.2960  177.9250  141.4260 C   0  0  2  0  0  3  0  0  0  0  0  0
  186.8940  178.4610  141.4540 C   0  0  0  0  0  0  0  0  0  0  0  0
  186.3640  178.8440  140.3740 O   0  0  0  0  0  0  0  0  0  0  0  0
  186.1840  178.5280  142.6560 O   0  0  0  0  0  0  0  0  0  0  0  0
  184.8800  179.0860  142.7290 C   0  0  0  0  0  2  0  0  0  0  0  0
  184.2720  178.7590  144.0750 C   0  0  0  0  0  1  0  0  0  0  0  0
  188.9400  177.6860  140.0510 C   0  0  1  0  0  3  0  0  0  0  0  0
  189.0810  178.8780  139.3360 O   0  0  0  0  0  1  0  0  0  0  0  0
  190.3020  176.9820  140.1650 C   0  0  0  0  0  2  0  0  0  0  0  0
  190.7870  176.2200  138.9190 C   0  0  1  0  0  3  0  0  0  0  0  0
  189.6480  175.8960  137.9600 C   0  0  0  0  0  2  0  0  0  0  0  0
  190.5670  175.0620  135.9320 O   0  0  0  0  0  0  0  0  0  0  0  0
  189.7720  173.4720  137.3800 O   0  0  0  0  0  1  0  0  0  0  0  0
  190.0300  174.7930  137.0370 C   0  0  0  0  0  0  0  0  0  0  0  0
  191.8320  176.9180  138.2490 O   0  0  0  0  0  0  0  0  0  0  0  0
  193.8690  175.9440  137.7560 O   0  0  0  0  0  0  0  0  0  0  0  0
  193.7720  177.2450  139.6410 O   0  0  0  0  0  1  0  0  0  0  0  0
  193.1830  176.6770  138.5160 C   0  0  0  0  0  0  0  0  0  0  0  0
  188.6080  176.6230  142.6890 S   0  0  0  0  0  0  0  0  0  0  0  0
  189.7420  177.4620  143.9310 C   0  0  1  0  0  0  0  0  0  0  0  0
  188.9470  178.0920  145.0980 C   0  0  2  0  0  3  0  0  0  0  0  0
  188.6920  177.1050  146.1800 C   0  0  2  0  0  3  0  0  0  0  0  0
  187.6770  177.5160  145.2990 O   0  0  0  0  0  0  0  0  0  0  0  0
  188.5610  177.8020  147.4950 C   0  0  0  0  0  0  0  0  0  0  0  0
  187.3440  178.3360  147.9130 O   0  0  0  0  0  0  0  0  0  0  0  0
  189.5730  177.9110  148.2340 O   0  0  0  0  0  1  0  0  0  0  0  0
  190.6450  176.5390  144.5330 O   0  0  0  0  0  0  0  0  0  0  0  0
  191.5660  176.0370  143.6010 C   0  0  0  0  0  1  0  0  0  0  0  0
  190.5260  178.6360  143.3210 C   0  0  0  0  0  2  0  0  0  0  0  0
  190.8690  179.5980  144.2730 O   0  0  0  0  0  1  0  0  0  0  0  0
  1  2  1  6  0  0  0
  1 19  1  0  0  0  0
  2  4  1  0  0  0  0
  3  2  2  0  0  0  0
  4  5  1  0  0  0  0
  5  6  1  0  0  0  0
  7  8  1  1  0  0  0
  7  9  1  0  0  0  0
  7  1  1  0  0  0  0
 10 11  1  6  0  0  0
 10  9  1  0  0  0  0
 12 14  2  0  0  0  0
 14 13  1  0  0  0  0
 14 11  1  0  0  0  0
 15 18  1  0  0  0  0
 15 10  1  0  0  0  0
 16 18  2  0  0  0  0
 18 17  1  0  0  0  0
 19 20  1  0  0  0  0
 20 29  1  6  0  0  0
 20 27  1  0  0  0  0
 21 20  1  6  0  0  0
 21 23  1  0  0  0  0
 21 22  1  0  0  0  0
 22 24  1  1  0  0  0
 23 22  1  0  0  0  0
 24 25  2  0  0  0  0
 24 26  1  0  0  0  0
 28 27  1  0  0  0  0
 29 30  1  0  0  0  0
M  END
>  <MODEL>
1

>  <REMARK>
 VINA RESULT:      -6.0      0.000      0.000
  Name = 
  16 active torsions:
  status: ('A' for Active; 'I' for Inactive)
    1  A    between atoms: C_1  and  C_4
    2  A    between atoms: C_1  and  C_22
    3  A    between atoms: C_2  and  O_20
    4  A    between atoms: C_2  and  C_22
    5  A    between atoms: C_3  and  C_23
    6  A    between atoms: C_4  and  C_12
    7  A    between atoms: C_7  and  C_23
    8  A    between atoms: O_8  and  C_12
    9  A    between atoms: O_8  and  C_30
   10  A    between atoms: C_9  and  C_12
   11  A    between atoms: C_9  and  C_21
   12  A    between atoms: C_10  and  C_15
   13  A    between atoms: O_11  and  C_23
   14  A    between atoms: C_14  and  O_20
   15  A    between atoms: C_22  and  S_29
   16  A    between atoms: C_23  and  S_29
                            x       y       z     vdW  Elec       q    Type
                         _______ _______ _______ _____ _____    ______ ____

>  <TORSDO>
F 16

$$$$
=
 OpenBabel11052412363D

 30 30  0  0  1  0  0  0  0  0999 V2000
  188.3140  177.6360  141.1500 C   0  0  2  0  0  3  0  0  0  0  0  0
  187.0210  178.3170  141.4960 C   0  0  0  0  0  0  0  0  0  0  0  0
  186.3980  178.9420  140.5950 O   0  0  0  0  0  0  0  0  0  0  0  0
  186.5120  178.2530  142.7960 O   0  0  0  0  0  0  0  0  0  0  0  0
  185.1170  178.2280  143.0570 C   0  0  0  0  0  2  0  0  0  0  0  0
  184.7720  179.3310  144.0340 C   0  0  0  0  0  1  0  0  0  0  0  0
  189.1590  177.0810  142.3080 C   0  0  1  0  0  3  0  0  0  0  0  0
  190.0450  176.0930  141.8700 O   0  0  0  0  0  1  0  0  0  0  0  0
  189.9340  178.1890  143.0410 C   0  0  0  0  0  2  0  0  0  0  0  0
  189.9550  178.1090  144.5770 C   0  0  1  0  0  3  0  0  0  0  0  0
  188.9380  177.1130  145.1190 C   0  0  0  0  0  2  0  0  0  0  0  0
  186.9940  177.8070  146.2990 O   0  0  0  0  0  0  0  0  0  0  0  0
  188.9700  178.0370  147.4370 O   0  0  0  0  0  1  0  0  0  0  0  0
  188.2430  177.6620  146.3140 C   0  0  0  0  0  0  0  0  0  0  0  0
  191.2600  177.8210  145.0710 O   0  0  0  0  0  0  0  0  0  0  0  0
  191.7940  176.2040  146.6330 O   0  0  0  0  0  1  0  0  0  0  0  0
  191.9180  175.5930  144.4270 O   0  0  0  0  0  0  0  0  0  0  0  0
  191.6580  176.5280  145.4240 C   0  0  0  0  0  0  0  0  0  0  0  0
  189.2530  178.4810  139.8110 S   0  0  0  0  0  0  0  0  0  0  0  0
  188.9540  177.4040  138.3010 C   0  0  1  0  0  0  0  0  0  0  0  0
  190.0220  176.2950  138.1670 C   0  0  2  0  0  3  0  0  0  0  0  0
  191.2560  176.8020  137.5120 C   0  0  2  0  0  3  0  0  0  0  0  0
  190.3460  175.9730  136.8350 O   0  0  0  0  0  0  0  0  0  0  0  0
  192.4430  176.0170  137.9680 C   0  0  0  0  0  0  0  0  0  0  0  0
  192.5240  174.6420  137.7620 O   0  0  0  0  0  0  0  0  0  0  0  0
  193.3830  176.6140  138.5530 O   0  0  0  0  0  1  0  0  0  0  0  0
  187.7010  176.7280  138.3710 O   0  0  0  0  0  0  0  0  0  0  0  0
  186.8810  177.0460  137.2770 C   0  0  0  0  0  1  0  0  0  0  0  0
  189.0480  178.1910  136.9820 C   0  0  0  0  0  2  0  0  0  0  0  0
  189.0300  179.5710  137.1860 O   0  0  0  0  0  1  0  0  0  0  0  0
  1 19  1  1  0  0  0
  1  2  1  0  0  0  0
  1  7  1  0  0  0  0
  2  4  1  0  0  0  0
  3  2  2  0  0  0  0
  4  5  1  0  0  0  0
  5  6  1  0  0  0  0
  7  8  1  6  0  0  0
  7  9  1  0  0  0  0
 10  9  1  6  0  0  0
 10 15  1  0  0  0  0
 10 11  1  0  0  0  0
 11 14  1  0  0  0  0
 12 14  2  0  0  0  0
 14 13  1  0  0  0  0
 15 18  1  0  0  0  0
 17 18  2  0  0  0  0
 18 16  1  0  0  0  0
 20 29  1  6  0  0  0
 20 27  1  0  0  0  0
 20 19  1  0  0  0  0
 21 20  1  6  0  0  0
 22 24  1  1  0  0  0
 22 21  1  0  0  0  0
 23 22  1  0  0  0  0
 23 21  1  0  0  0  0
 24 26  1  0  0  0  0
 25 24  2  0  0  0  0
 28 27  1  0  0  0  0
 29 30  1  0  0  0  0
M  END
>  <MODEL>
2

>  <REMARK>
 VINA RESULT:      -5.9      1.693      7.090
  Name = 
  16 active torsions:
  status: ('A' for Active; 'I' for Inactive)
    1  A    between atoms: C_1  and  C_4
    2  A    between atoms: C_1  and  C_22
    3  A    between atoms: C_2  and  O_20
    4  A    between atoms: C_2  and  C_22
    5  A    between atoms: C_3  and  C_23
    6  A    between atoms: C_4  and  C_12
    7  A    between atoms: C_7  and  C_23
    8  A    between atoms: O_8  and  C_12
    9  A    between atoms: O_8  and  C_30
   10  A    between atoms: C_9  and  C_12
   11  A    between atoms: C_9  and  C_21
   12  A    between atoms: C_10  and  C_15
   13  A    between atoms: O_11  and  C_23
   14  A    between atoms: C_14  and  O_20
   15  A    between atoms: C_22  and  S_29
   16  A    between atoms: C_23  and  S_29
                            x       y       z     vdW  Elec       q    Type
                         _______ _______ _______ _____ _____    ______ ____

>  <TORSDO>
F 16

$$$$
=
 OpenBabel11052412363D

 30 30  0  0  1  0  0  0  0  0999 V2000
  188.1080  178.0530  141.3910 C   0  0  2  0  0  3  0  0  0  0  0  0
  186.7320  178.6330  141.5470 C   0  0  0  0  0  0  0  0  0  0  0  0
  186.1190  179.0390  140.5220 O   0  0  0  0  0  0  0  0  0  0  0  0
  186.1350  178.7140  142.8090 O   0  0  0  0  0  0  0  0  0  0  0  0
  184.8740  179.3360  143.0060 C   0  0  0  0  0  2  0  0  0  0  0  0
  184.2030  178.7300  144.2190 C   0  0  0  0  0  1  0  0  0  0  0  0
  188.6350  177.8440  139.9620 C   0  0  1  0  0  3  0  0  0  0  0  0
  188.9110  179.0610  139.3340 O   0  0  0  0  0  1  0  0  0  0  0  0
  189.8830  176.9460  139.9320 C   0  0  0  0  0  2  0  0  0  0  0  0
  190.4530  176.6110  138.5420 C   0  0  1  0  0  3  0  0  0  0  0  0
  191.7330  175.7890  138.6250 C   0  0  0  0  0  2  0  0  0  0  0  0
  193.4870  176.8550  137.4260 O   0  0  0  0  0  0  0  0  0  0  0  0
  193.4540  177.2540  139.6820 O   0  0  0  0  0  1  0  0  0  0  0  0
  192.9320  176.6660  138.5380 C   0  0  0  0  0  0  0  0  0  0  0  0
  189.4870  175.9650  137.7190 O   0  0  0  0  0  0  0  0  0  0  0  0
  188.5490  175.7360  135.6200 O   0  0  0  0  0  0  0  0  0  0  0  0
  189.3470  177.8120  136.1760 O   0  0  0  0  0  1  0  0  0  0  0  0
  189.1030  176.4750  136.4750 C   0  0  0  0  0  0  0  0  0  0  0  0
  188.4720  176.6970  142.5810 S   0  0  0  0  0  0  0  0  0  0  0  0
  189.6990  177.4650  143.7790 C   0  0  1  0  0  0  0  0  0  0  0  0
  188.9900  178.0960  145.0000 C   0  0  2  0  0  3  0  0  0  0  0  0
  188.6990  177.0820  146.0470 C   0  0  2  0  0  3  0  0  0  0  0  0
  187.6890  177.6030  145.2210 O   0  0  0  0  0  0  0  0  0  0  0  0
  188.6610  177.7260  147.3940 C   0  0  0  0  0  0  0  0  0  0  0  0
  187.4990  178.3200  147.8800 O   0  0  0  0  0  0  0  0  0  0  0  0
  189.7040  177.7330  148.0980 O   0  0  0  0  0  1  0  0  0  0  0  0
  190.5970  176.4960  144.3130 O   0  0  0  0  0  0  0  0  0  0  0  0
  191.6310  176.2000  143.4120 C   0  0  0  0  0  1  0  0  0  0  0  0
  190.4950  178.6230  143.1540 C   0  0  0  0  0  2  0  0  0  0  0  0
  190.8280  179.6040  144.0890 O   0  0  0  0  0  1  0  0  0  0  0  0
  1  2  1  6  0  0  0
  1 19  1  0  0  0  0
  2  4  1  0  0  0  0
  3  2  2  0  0  0  0
  4  5  1  0  0  0  0
  5  6  1  0  0  0  0
  7  8  1  1  0  0  0
  7  1  1  0  0  0  0
  9  7  1  0  0  0  0
 10 11  1  1  0  0  0
 10  9  1  0  0  0  0
 12 14  2  0  0  0  0
 14 11  1  0  0  0  0
 14 13  1  0  0  0  0
 15 10  1  0  0  0  0
 16 18  2  0  0  0  0
 17 18  1  0  0  0  0
 18 15  1  0  0  0  0
 19 20  1  0  0  0  0
 20 29  1  6  0  0  0
 20 27  1  0  0  0  0
 21 20  1  6  0  0  0
 21 23  1  0  0  0  0
 21 22  1  0  0  0  0
 22 24  1  1  0  0  0
 23 22  1  0  0  0  0
 24 25  2  0  0  0  0
 24 26  1  0  0  0  0
 28 27  1  0  0  0  0
 29 30  1  0  0  0  0
M  END
>  <MODEL>
3

>  <REMARK>
 VINA RESULT:      -5.9      0.929      2.311
  Name = 
  16 active torsions:
  status: ('A' for Active; 'I' for Inactive)
    1  A    between atoms: C_1  and  C_4
    2  A    between atoms: C_1  and  C_22
    3  A    between atoms: C_2  and  O_20
    4  A    between atoms: C_2  and  C_22
    5  A    between atoms: C_3  and  C_23
    6  A    between atoms: C_4  and  C_12
    7  A    between atoms: C_7  and  C_23
    8  A    between atoms: O_8  and  C_12
    9  A    between atoms: O_8  and  C_30
   10  A    between atoms: C_9  and  C_12
   11  A    between atoms: C_9  and  C_21
   12  A    between atoms: C_10  and  C_15
   13  A    between atoms: O_11  and  C_23
   14  A    between atoms: C_14  and  O_20
   15  A    between atoms: C_22  and  S_29
   16  A    between atoms: C_23  and  S_29
                            x       y       z     vdW  Elec       q    Type
                         _______ _______ _______ _____ _____    ______ ____

>  <TORSDO>
F 16

$$$$
=
 OpenBabel11052412363D

 30 30  0  0  1  0  0  0  0  0999 V2000
  189.0880  177.8790  141.3330 C   0  0  2  0  0  3  0  0  0  0  0  0
  187.6570  178.2890  141.1350 C   0  0  0  0  0  0  0  0  0  0  0  0
  187.2950  178.7180  140.0050 O   0  0  0  0  0  0  0  0  0  0  0  0
  186.7390  178.1890  142.1840 O   0  0  0  0  0  0  0  0  0  0  0  0
  185.6000  179.0330  142.2700 C   0  0  0  0  0  2  0  0  0  0  0  0
  184.3580  178.2310  141.9480 C   0  0  0  0  0  1  0  0  0  0  0  0
  189.9470  177.6600  140.0770 C   0  0  1  0  0  3  0  0  0  0  0  0
  191.3040  177.5620  140.3930 O   0  0  0  0  0  1  0  0  0  0  0  0
  189.5040  176.4200  139.2830 C   0  0  0  0  0  2  0  0  0  0  0  0
  189.2820  176.6150  137.7730 C   0  0  1  0  0  3  0  0  0  0  0  0
  189.3850  178.0760  137.3580 C   0  0  0  0  0  2  0  0  0  0  0  0
  187.7310  177.7440  135.6820 O   0  0  0  0  0  0  0  0  0  0  0  0
  187.5780  179.7170  136.8380 O   0  0  0  0  0  1  0  0  0  0  0  0
  188.1850  178.4940  136.5840 C   0  0  0  0  0  0  0  0  0  0  0  0
  190.1640  175.8040  137.0030 O   0  0  0  0  0  0  0  0  0  0  0  0
  191.7390  174.3350  137.8400 O   0  0  0  0  0  1  0  0  0  0  0  0
  192.4430  176.4750  137.4130 O   0  0  0  0  0  0  0  0  0  0  0  0
  191.4580  175.4920  137.4300 C   0  0  0  0  0  0  0  0  0  0  0  0
  189.3180  176.6470  142.6810 S   0  0  0  0  0  0  0  0  0  0  0  0
  190.1920  177.6150  144.0340 C   0  0  1  0  0  0  0  0  0  0  0  0
  189.2020  178.1150  145.1110 C   0  0  2  0  0  3  0  0  0  0  0  0
  188.8620  177.0400  146.0800 C   0  0  2  0  0  3  0  0  0  0  0  0
  187.9570  177.4560  145.0900 O   0  0  0  0  0  0  0  0  0  0  0  0
  188.5030  177.6320  147.4040 C   0  0  0  0  0  0  0  0  0  0  0  0
  189.4840  177.9960  148.3230 O   0  0  0  0  0  1  0  0  0  0  0  0
  187.2900  177.8010  147.6900 O   0  0  0  0  0  0  0  0  0  0  0  0
  191.1450  176.8150  144.7270 O   0  0  0  0  0  0  0  0  0  0  0  0
  191.6690  175.8070  143.9020 C   0  0  0  0  0  1  0  0  0  0  0  0
  190.8670  178.8930  143.5080 C   0  0  0  0  0  2  0  0  0  0  0  0
  191.9960  179.2410  144.2510 O   0  0  0  0  0  1  0  0  0  0  0  0
  1  2  1  6  0  0  0
  1 19  1  0  0  0  0
  2  4  1  0  0  0  0
  3  2  2  0  0  0  0
  4  5  1  0  0  0  0
  6  5  1  0  0  0  0
  7  8  1  1  0  0  0
  7  1  1  0  0  0  0
  9  7  1  0  0  0  0
 10 11  1  6  0  0  0
 10  9  1  0  0  0  0
 12 14  2  0  0  0  0
 14 13  1  0  0  0  0
 14 11  1  0  0  0  0
 15 18  1  0  0  0  0
 15 10  1  0  0  0  0
 17 18  2  0  0  0  0
 18 16  1  0  0  0  0
 19 20  1  0  0  0  0
 20 29  1  6  0  0  0
 20 27  1  0  0  0  0
 21 20  1  6  0  0  0
 21 22  1  0  0  0  0
 22 24  1  1  0  0  0
 23 21  1  0  0  0  0
 23 22  1  0  0  0  0
 24 26  2  0  0  0  0
 24 25  1  0  0  0  0
 28 27  1  0  0  0  0
 29 30  1  0  0  0  0
M  END
>  <MODEL>
4

>  <REMARK>
 VINA RESULT:      -5.9      1.508      2.190
  Name = 
  16 active torsions:
  status: ('A' for Active; 'I' for Inactive)
    1  A    between atoms: C_1  and  C_4
    2  A    between atoms: C_1  and  C_22
    3  A    between atoms: C_2  and  O_20
    4  A    between atoms: C_2  and  C_22
    5  A    between atoms: C_3  and  C_23
    6  A    between atoms: C_4  and  C_12
    7  A    between atoms: C_7  and  C_23
    8  A    between atoms: O_8  and  C_12
    9  A    between atoms: O_8  and  C_30
   10  A    between atoms: C_9  and  C_12
   11  A    between atoms: C_9  and  C_21
   12  A    between atoms: C_10  and  C_15
   13  A    between atoms: O_11  and  C_23
   14  A    between atoms: C_14  and  O_20
   15  A    between atoms: C_22  and  S_29
   16  A    between atoms: C_23  and  S_29
                            x       y       z     vdW  Elec       q    Type
                         _______ _______ _______ _____ _____    ______ ____

>  <TORSDO>
F 16

$$$$
=
 OpenBabel11052412363D

 30 30  0  0  1  0  0  0  0  0999 V2000
  187.0130  178.1470  143.8310 C   0  0  2  0  0  3  0  0  0  0  0  0
  186.4550  178.2020  145.2250 C   0  0  0  0  0  0  0  0  0  0  0  0
  185.4880  178.9760  145.4670 O   0  0  0  0  0  0  0  0  0  0  0  0
  186.9930  177.4010  146.2360 O   0  0  0  0  0  0  0  0  0  0  0  0
  188.1930  177.7470  146.9110 C   0  0  0  0  0  2  0  0  0  0  0  0
  187.9540  177.7120  148.4050 C   0  0  0  0  0  1  0  0  0  0  0  0
  186.1620  178.7470  142.7000 C   0  0  1  0  0  3  0  0  0  0  0  0
  186.9270  178.9920  141.5570 O   0  0  0  0  0  1  0  0  0  0  0  0
  184.9610  177.8550  142.3440 C   0  0  0  0  0  2  0  0  0  0  0  0
  183.8370  178.5130  141.5250 C   0  0  1  0  0  3  0  0  0  0  0  0
  183.8540  178.0780  140.0660 C   0  0  0  0  0  2  0  0  0  0  0  0
  185.6290  178.6800  138.6030 O   0  0  0  0  0  0  0  0  0  0  0  0
  184.1920  180.3780  139.1590 O   0  0  0  0  0  1  0  0  0  0  0  0
  184.6050  179.0530  139.2300 C   0  0  0  0  0  0  0  0  0  0  0  0
  182.5580  178.2850  142.1090 O   0  0  0  0  0  0  0  0  0  0  0  0
  182.5040  178.8910  144.3380 O   0  0  0  0  0  1  0  0  0  0  0  0
  181.0850  180.0100  142.9260 O   0  0  0  0  0  0  0  0  0  0  0  0
  182.0700  179.0560  143.1670 C   0  0  0  0  0  0  0  0  0  0  0  0
  187.8530  176.5570  143.4400 S   0  0  0  0  0  0  0  0  0  0  0  0
  189.6500  177.0460  143.1920 C   0  0  1  0  0  0  0  0  0  0  0  0
  190.2190  176.4860  141.8680 C   0  0  2  0  0  3  0  0  0  0  0  0
  190.3880  177.5570  140.8510 C   0  0  2  0  0  3  0  0  0  0  0  0
  189.3460  176.6190  140.7710 O   0  0  0  0  0  0  0  0  0  0  0  0
  191.4880  177.2030  139.9050 C   0  0  0  0  0  0  0  0  0  0  0  0
  191.2260  176.5570  138.6990 O   0  0  0  0  0  0  0  0  0  0  0  0
  192.6750  177.4910  140.2100 O   0  0  0  0  0  1  0  0  0  0  0  0
  189.8090  178.4600  143.1140 O   0  0  0  0  0  0  0  0  0  0  0  0
  190.6750  178.9370  144.1100 C   0  0  0  0  0  1  0  0  0  0  0  0
  190.5760  176.4770  144.2810 C   0  0  0  0  0  2  0  0  0  0  0  0
  191.5530  175.6290  143.7570 O   0  0  0  0  0  1  0  0  0  0  0  0
  1 19  1  6  0  0  0
  1  2  1  0  0  0  0
  2  3  2  0  0  0  0
  2  4  1  0  0  0  0
  4  5  1  0  0  0  0
  5  6  1  0  0  0  0
  7  8  1  6  0  0  0
  7  1  1  0  0  0  0
  9  7  1  0  0  0  0
 10 11  1  6  0  0  0
 10 15  1  0  0  0  0
 10  9  1  0  0  0  0
 12 14  2  0  0  0  0
 13 14  1  0  0  0  0
 14 11  1  0  0  0  0
 15 18  1  0  0  0  0
 17 18  2  0  0  0  0
 18 16  1  0  0  0  0
 20 19  1  0  0  0  0
 20 29  1  1  0  0  0
 21 20  1  1  0  0  0
 22 24  1  6  0  0  0
 22 21  1  0  0  0  0
 23 22  1  0  0  0  0
 23 21  1  0  0  0  0
 24 26  1  0  0  0  0
 25 24  2  0  0  0  0
 27 20  1  0  0  0  0
 27 28  1  0  0  0  0
 30 29  1  0  0  0  0
M  END
>  <MODEL>
5

>  <REMARK>
 VINA RESULT:      -5.8      2.242      6.920
  Name = 
  16 active torsions:
  status: ('A' for Active; 'I' for Inactive)
    1  A    between atoms: C_1  and  C_4
    2  A    between atoms: C_1  and  C_22
    3  A    between atoms: C_2  and  O_20
    4  A    between atoms: C_2  and  C_22
    5  A    between atoms: C_3  and  C_23
    6  A    between atoms: C_4  and  C_12
    7  A    between atoms: C_7  and  C_23
    8  A    between atoms: O_8  and  C_12
    9  A    between atoms: O_8  and  C_30
   10  A    between atoms: C_9  and  C_12
   11  A    between atoms: C_9  and  C_21
   12  A    between atoms: C_10  and  C_15
   13  A    between atoms: O_11  and  C_23
   14  A    between atoms: C_14  and  O_20
   15  A    between atoms: C_22  and  S_29
   16  A    between atoms: C_23  and  S_29
                            x       y       z     vdW  Elec       q    Type
                         _______ _______ _______ _____ _____    ______ ____

>  <TORSDO>
F 16

$$$$
=
 OpenBabel11052412363D

 30 30  0  0  1  0  0  0  0  0999 V2000
  189.4790  177.9400  142.6480 C   0  0  2  0  0  3  0  0  0  0  0  0
  190.6870  178.3540  143.4380 C   0  0  0  0  0  0  0  0  0  0  0  0
  190.9840  179.5780  143.5060 O   0  0  0  0  0  0  0  0  0  0  0  0
  191.4660  177.3980  144.0960 O   0  0  0  0  0  0  0  0  0  0  0  0
  191.5100  177.3080  145.5120 C   0  0  0  0  0  2  0  0  0  0  0  0
  191.9200  175.9080  145.9110 C   0  0  0  0  0  1  0  0  0  0  0  0
  188.1190  177.9560  143.3650 C   0  0  1  0  0  3  0  0  0  0  0  0
  187.0740  177.6490  142.4910 O   0  0  0  0  0  1  0  0  0  0  0  0
  188.0900  177.0020  144.5700 C   0  0  0  0  0  2  0  0  0  0  0  0
  187.6090  177.5980  145.9050 C   0  0  1  0  0  3  0  0  0  0  0  0
  186.0960  177.5200  146.0610 C   0  0  0  0  0  2  0  0  0  0  0  0
  185.6320  179.5560  147.1980 O   0  0  0  0  0  1  0  0  0  0  0  0
  184.7840  179.3990  145.0750 O   0  0  0  0  0  0  0  0  0  0  0  0
  185.5010  178.8820  146.1450 C   0  0  0  0  0  0  0  0  0  0  0  0
  188.2650  176.9960  147.0170 O   0  0  0  0  0  0  0  0  0  0  0  0
  187.6400  177.8080  149.0880 O   0  0  0  0  0  1  0  0  0  0  0  0
  189.7730  178.2780  148.3920 O   0  0  0  0  0  0  0  0  0  0  0  0
  188.5250  177.6940  148.1990 C   0  0  0  0  0  0  0  0  0  0  0  0
  189.7820  176.4970  141.5460 S   0  0  0  0  0  0  0  0  0  0  0  0
  189.4410  177.1660  139.8230 C   0  0  1  0  0  0  0  0  0  0  0  0
  190.7490  177.5010  139.0700 C   0  0  2  0  0  3  0  0  0  0  0  0
  191.5710  176.2850  138.8360 C   0  0  2  0  0  3  0  0  0  0  0  0
  191.9170  177.2360  139.8100 O   0  0  0  0  0  0  0  0  0  0  0  0
  192.4100  176.4560  137.6130 C   0  0  0  0  0  0  0  0  0  0  0  0
  193.7150  176.9390  137.6910 O   0  0  0  0  0  1  0  0  0  0  0  0
  191.9240  176.1610  136.4900 O   0  0  0  0  0  0  0  0  0  0  0  0
  188.7600  176.2140  139.0110 O   0  0  0  0  0  0  0  0  0  0  0  0
  188.0780  176.8340  137.9520 C   0  0  0  0  0  1  0  0  0  0  0  0
  188.6570  178.4890  139.8440 C   0  0  0  0  0  2  0  0  0  0  0  0
  189.0890  179.3770  138.8570 O   0  0  0  0  0  1  0  0  0  0  0  0
  1 19  1  1  0  0  0
  1  7  1  0  0  0  0
  1  2  1  0  0  0  0
  2  3  2  0  0  0  0
  2  4  1  0  0  0  0
  4  5  1  0  0  0  0
  5  6  1  0  0  0  0
  7  8  1  6  0  0  0
  7  9  1  0  0  0  0
 10  9  1  6  0  0  0
 10 11  1  0  0  0  0
 10 15  1  0  0  0  0
 11 14  1  0  0  0  0
 13 14  2  0  0  0  0
 14 12  1  0  0  0  0
 15 18  1  0  0  0  0
 18 17  2  0  0  0  0
 18 16  1  0  0  0  0
 20 29  1  1  0  0  0
 20 19  1  0  0  0  0
 21 23  1  0  0  0  0
 21 20  1  1  0  0  0
 22 24  1  6  0  0  0
 22 21  1  0  0  0  0
 22 23  1  0  0  0  0
 24 25  1  0  0  0  0
 26 24  2  0  0  0  0
 27 20  1  0  0  0  0
 28 27  1  0  0  0  0
 30 29  1  0  0  0  0
M  END
>  <MODEL>
6

>  <REMARK>
 VINA RESULT:      -5.7      1.760      8.143
  Name = 
  16 active torsions:
  status: ('A' for Active; 'I' for Inactive)
    1  A    between atoms: C_1  and  C_4
    2  A    between atoms: C_1  and  C_22
    3  A    between atoms: C_2  and  O_20
    4  A    between atoms: C_2  and  C_22
    5  A    between atoms: C_3  and  C_23
    6  A    between atoms: C_4  and  C_12
    7  A    between atoms: C_7  and  C_23
    8  A    between atoms: O_8  and  C_12
    9  A    between atoms: O_8  and  C_30
   10  A    between atoms: C_9  and  C_12
   11  A    between atoms: C_9  and  C_21
   12  A    between atoms: C_10  and  C_15
   13  A    between atoms: O_11  and  C_23
   14  A    between atoms: C_14  and  O_20
   15  A    between atoms: C_22  and  S_29
   16  A    between atoms: C_23  and  S_29
                            x       y       z     vdW  Elec       q    Type
                         _______ _______ _______ _____ _____    ______ ____

>  <TORSDO>
F 16

$$$$
=
 OpenBabel11052412363D

 30 30  0  0  1  0  0  0  0  0999 V2000
  189.6650  177.7370  142.6030 C   0  0  2  0  0  3  0  0  0  0  0  0
  190.8020  177.9690  143.5570 C   0  0  0  0  0  0  0  0  0  0  0  0
  191.3080  179.1220  143.6360 O   0  0  0  0  0  0  0  0  0  0  0  0
  191.2860  176.9250  144.3490 O   0  0  0  0  0  0  0  0  0  0  0  0
  191.6590  177.1210  145.7060 C   0  0  0  0  0  2  0  0  0  0  0  0
  192.0390  175.7900  146.3160 C   0  0  0  0  0  1  0  0  0  0  0  0
  188.2410  178.0120  143.1140 C   0  0  1  0  0  3  0  0  0  0  0  0
  187.3040  177.9550  142.0790 O   0  0  0  0  0  1  0  0  0  0  0  0
  187.8340  177.0450  144.2390 C   0  0  0  0  0  2  0  0  0  0  0  0
  187.4260  177.6850  145.5780 C   0  0  1  0  0  3  0  0  0  0  0  0
  188.6320  178.0950  146.4140 C   0  0  0  0  0  2  0  0  0  0  0  0
  187.3300  177.2630  148.2210 O   0  0  0  0  0  0  0  0  0  0  0  0
  189.3070  178.2610  148.8100 O   0  0  0  0  0  1  0  0  0  0  0  0
  188.3860  177.8410  147.8590 C   0  0  0  0  0  0  0  0  0  0  0  0
  186.5420  178.7850  145.3880 O   0  0  0  0  0  0  0  0  0  0  0  0
  184.5810  178.8940  146.6050 O   0  0  0  0  0  1  0  0  0  0  0  0
  184.4020  178.2580  144.4100 O   0  0  0  0  0  0  0  0  0  0  0  0
  185.1550  178.6590  145.5090 C   0  0  0  0  0  0  0  0  0  0  0  0
  189.8660  176.2240  141.5750 S   0  0  0  0  0  0  0  0  0  0  0  0
  190.2940  176.8900  139.8710 C   0  0  1  0  0  0  0  0  0  0  0  0
  189.0530  177.4720  139.1550 C   0  0  2  0  0  3  0  0  0  0  0  0
  189.4340  178.5040  138.1550 C   0  0  2  0  0  3  0  0  0  0  0  0
  188.8540  178.8470  139.3870 O   0  0  0  0  0  0  0  0  0  0  0  0
  188.4190  178.5620  137.0610 C   0  0  0  0  0  0  0  0  0  0  0  0
  187.1230  179.0120  137.3000 O   0  0  0  0  0  1  0  0  0  0  0  0
  188.7440  178.1920  135.9030 O   0  0  0  0  0  0  0  0  0  0  0  0
  191.2350  177.9570  139.9400 O   0  0  0  0  0  0  0  0  0  0  0  0
  192.5170  177.4930  140.2770 C   0  0  0  0  0  1  0  0  0  0  0  0
  190.8120  175.7990  138.9190 C   0  0  0  0  0  2  0  0  0  0  0  0
  189.8450  175.3960  137.9970 O   0  0  0  0  0  1  0  0  0  0  0  0
  1 19  1  1  0  0  0
  1  7  1  0  0  0  0
  1  2  1  0  0  0  0
  2  3  2  0  0  0  0
  2  4  1  0  0  0  0
  4  5  1  0  0  0  0
  5  6  1  0  0  0  0
  7  8  1  6  0  0  0
  7  9  1  0  0  0  0
 10  9  1  6  0  0  0
 10 11  1  0  0  0  0
 11 14  1  0  0  0  0
 14 12  2  0  0  0  0
 14 13  1  0  0  0  0
 15 18  1  0  0  0  0
 15 10  1  0  0  0  0
 17 18  2  0  0  0  0
 18 16  1  0  0  0  0
 20 29  1  6  0  0  0
 20 27  1  0  0  0  0
 20 19  1  0  0  0  0
 21 23  1  0  0  0  0
 21 20  1  1  0  0  0
 22 24  1  6  0  0  0
 22 21  1  0  0  0  0
 22 23  1  0  0  0  0
 24 25  1  0  0  0  0
 26 24  2  0  0  0  0
 27 28  1  0  0  0  0
 30 29  1  0  0  0  0
M  END
>  <MODEL>
7

>  <REMARK>
 VINA RESULT:      -5.4      1.853      8.155
  Name = 
  16 active torsions:
  status: ('A' for Active; 'I' for Inactive)
    1  A    between atoms: C_1  and  C_4
    2  A    between atoms: C_1  and  C_22
    3  A    between atoms: C_2  and  O_20
    4  A    between atoms: C_2  and  C_22
    5  A    between atoms: C_3  and  C_23
    6  A    between atoms: C_4  and  C_12
    7  A    between atoms: C_7  and  C_23
    8  A    between atoms: O_8  and  C_12
    9  A    between atoms: O_8  and  C_30
   10  A    between atoms: C_9  and  C_12
   11  A    between atoms: C_9  and  C_21
   12  A    between atoms: C_10  and  C_15
   13  A    between atoms: O_11  and  C_23
   14  A    between atoms: C_14  and  O_20
   15  A    between atoms: C_22  and  S_29
   16  A    between atoms: C_23  and  S_29
                            x       y       z     vdW  Elec       q    Type
                         _______ _______ _______ _____ _____    ______ ____

>  <TORSDO>
F 16

$$$$
=
 OpenBabel11052412363D

 30 30  0  0  1  0  0  0  0  0999 V2000
  189.6730  177.7240  141.2820 C   0  0  2  0  0  3  0  0  0  0  0  0
  188.2680  178.0990  140.9040 C   0  0  0  0  0  0  0  0  0  0  0  0
  188.0530  178.5900  139.7620 O   0  0  0  0  0  0  0  0  0  0  0  0
  187.2150  177.8990  141.8000 O   0  0  0  0  0  0  0  0  0  0  0  0
  186.0760  178.7460  141.8230 C   0  0  0  0  0  2  0  0  0  0  0  0
  185.2510  178.4410  143.0540 C   0  0  0  0  0  1  0  0  0  0  0  0
  190.7180  177.6500  140.1570 C   0  0  1  0  0  3  0  0  0  0  0  0
  192.0170  177.5830  140.6660 O   0  0  0  0  0  1  0  0  0  0  0  0
  190.4660  176.4630  139.2120 C   0  0  0  0  0  2  0  0  0  0  0  0
  191.2660  176.4510  137.8980 C   0  0  1  0  0  3  0  0  0  0  0  0
  192.2470  175.2880  137.8300 C   0  0  0  0  0  2  0  0  0  0  0  0
  193.9150  176.7240  136.9320 O   0  0  0  0  0  0  0  0  0  0  0  0
  194.6600  175.1850  138.4570 O   0  0  0  0  0  1  0  0  0  0  0  0
  193.6470  175.7800  137.7170 C   0  0  0  0  0  0  0  0  0  0  0  0
  190.4100  176.4610  136.7600 O   0  0  0  0  0  0  0  0  0  0  0  0
  188.1030  176.5840  136.7590 O   0  0  0  0  0  1  0  0  0  0  0  0
  189.2460  178.5690  136.6620 O   0  0  0  0  0  0  0  0  0  0  0  0
  189.2120  177.1800  136.7320 C   0  0  0  0  0  0  0  0  0  0  0  0
  189.7600  176.3850  142.5410 S   0  0  0  0  0  0  0  0  0  0  0  0
  190.2210  177.2840  144.1260 C   0  0  1  0  0  0  0  0  0  0  0  0
  190.6220  176.3000  145.2480 C   0  0  2  0  0  3  0  0  0  0  0  0
  191.8940  176.7060  145.9020 C   0  0  2  0  0  3  0  0  0  0  0  0
  191.8350  175.6240  145.0080 O   0  0  0  0  0  0  0  0  0  0  0  0
  191.9270  176.2190  147.3140 C   0  0  0  0  0  0  0  0  0  0  0  0
  192.1850  177.0870  148.3720 O   0  0  0  0  0  1  0  0  0  0  0  0
  191.7210  175.0000  147.5470 O   0  0  0  0  0  0  0  0  0  0  0  0
  191.3470  178.1390  143.9420 O   0  0  0  0  0  0  0  0  0  0  0  0
  190.9800  179.4930  143.9960 C   0  0  0  0  0  1  0  0  0  0  0  0
  189.0490  178.0860  144.7160 C   0  0  0  0  0  2  0  0  0  0  0  0
  188.0290  177.2620  145.1940 O   0  0  0  0  0  1  0  0  0  0  0  0
  1  2  1  6  0  0  0
  1 19  1  0  0  0  0
  2  4  1  0  0  0  0
  3  2  2  0  0  0  0
  4  5  1  0  0  0  0
  5  6  1  0  0  0  0
  7  8  1  1  0  0  0
  7  1  1  0  0  0  0
  9  7  1  0  0  0  0
 10 11  1  1  0  0  0
 10  9  1  0  0  0  0
 12 14  2  0  0  0  0
 14 11  1  0  0  0  0
 14 13  1  0  0  0  0
 15 10  1  0  0  0  0
 17 18  2  0  0  0  0
 18 16  1  0  0  0  0
 18 15  1  0  0  0  0
 19 20  1  0  0  0  0
 20 29  1  1  0  0  0
 21 20  1  6  0  0  0
 21 22  1  0  0  0  0
 22 24  1  1  0  0  0
 23 21  1  0  0  0  0
 23 22  1  0  0  0  0
 24 26  2  0  0  0  0
 24 25  1  0  0  0  0
 27 28  1  0  0  0  0
 27 20  1  0  0  0  0
 29 30  1  0  0  0  0
M  END
>  <MODEL>
8

>  <REMARK>
 VINA RESULT:      -5.3      1.776      3.227
  Name = 
  16 active torsions:
  status: ('A' for Active; 'I' for Inactive)
    1  A    between atoms: C_1  and  C_4
    2  A    between atoms: C_1  and  C_22
    3  A    between atoms: C_2  and  O_20
    4  A    between atoms: C_2  and  C_22
    5  A    between atoms: C_3  and  C_23
    6  A    between atoms: C_4  and  C_12
    7  A    between atoms: C_7  and  C_23
    8  A    between atoms: O_8  and  C_12
    9  A    between atoms: O_8  and  C_30
   10  A    between atoms: C_9  and  C_12
   11  A    between atoms: C_9  and  C_21
   12  A    between atoms: C_10  and  C_15
   13  A    between atoms: O_11  and  C_23
   14  A    between atoms: C_14  and  O_20
   15  A    between atoms: C_22  and  S_29
   16  A    between atoms: C_23  and  S_29
                            x       y       z     vdW  Elec       q    Type
                         _______ _______ _______ _____ _____    ______ ____

>  <TORSDO>
F 16

$$$$
=
 OpenBabel11052412363D

 30 30  0  0  1  0  0  0  0  0999 V2000
  188.1830  177.5650  140.8740 C   0  0  2  0  0  3  0  0  0  0  0  0
  186.9720  178.4480  140.9720 C   0  0  0  0  0  0  0  0  0  0  0  0
  186.4490  178.8880  139.9120 O   0  0  0  0  0  0  0  0  0  0  0  0
  186.4270  178.7680  142.2180 O   0  0  0  0  0  0  0  0  0  0  0  0
  185.1390  179.3510  142.3490 C   0  0  0  0  0  2  0  0  0  0  0  0
  184.1070  178.2550  142.4980 C   0  0  0  0  0  1  0  0  0  0  0  0
  188.6720  176.8820  142.1620 C   0  0  1  0  0  3  0  0  0  0  0  0
  189.9910  176.4380  142.0390 O   0  0  0  0  0  1  0  0  0  0  0  0
  188.5430  177.8010  143.3880 C   0  0  0  0  0  2  0  0  0  0  0  0
  188.7750  177.1480  144.7620 C   0  0  1  0  0  3  0  0  0  0  0  0
  189.8130  177.8950  145.5890 C   0  0  0  0  0  2  0  0  0  0  0  0
  191.7000  176.4620  145.3960 O   0  0  0  0  0  1  0  0  0  0  0  0
  191.9220  178.5200  144.4110 O   0  0  0  0  0  0  0  0  0  0  0  0
  191.1900  177.5790  145.1240 C   0  0  0  0  0  0  0  0  0  0  0  0
  187.5580  177.0010  145.4870 O   0  0  0  0  0  0  0  0  0  0  0  0
  186.2280  178.8840  145.6540 O   0  0  0  0  0  0  0  0  0  0  0  0
  187.2750  178.1820  147.5690 O   0  0  0  0  0  1  0  0  0  0  0  0
  186.9890  178.0510  146.2140 C   0  0  0  0  0  0  0  0  0  0  0  0
  189.5000  178.2450  139.7830 S   0  0  0  0  0  0  0  0  0  0  0  0
  189.1770  177.4270  138.1220 C   0  0  1  0  0  0  0  0  0  0  0  0
  190.4560  176.7800  137.5440 C   0  0  2  0  0  3  0  0  0  0  0  0
  190.8990  175.6210  138.3630 C   0  0  2  0  0  3  0  0  0  0  0  0
  191.5700  176.8540  138.4030 O   0  0  0  0  0  0  0  0  0  0  0  0
  191.6440  174.6430  137.5140 C   0  0  0  0  0  0  0  0  0  0  0  0
  190.9730  173.7140  136.7230 O   0  0  0  0  0  0  0  0  0  0  0  0
  192.9020  174.6620  137.5190 O   0  0  0  0  0  1  0  0  0  0  0  0
  188.2240  176.3730  138.2270 O   0  0  0  0  0  0  0  0  0  0  0  0
  187.3230  176.3830  137.1510 C   0  0  0  0  0  1  0  0  0  0  0  0
  188.7290  178.4280  137.0440 C   0  0  0  0  0  2  0  0  0  0  0  0
  189.0460  179.7460  137.3790 O   0  0  0  0  0  1  0  0  0  0  0  0
  1 19  1  1  0  0  0
  1  2  1  0  0  0  0
  1  7  1  0  0  0  0
  2  4  1  0  0  0  0
  3  2  2  0  0  0  0
  4  5  1  0  0  0  0
  5  6  1  0  0  0  0
  7  8  1  6  0  0  0
  7  9  1  0  0  0  0
 10  9  1  6  0  0  0
 10 15  1  0  0  0  0
 10 11  1  0  0  0  0
 13 14  2  0  0  0  0
 14 12  1  0  0  0  0
 14 11  1  0  0  0  0
 15 18  1  0  0  0  0
 16 18  2  0  0  0  0
 18 17  1  0  0  0  0
 20 29  1  6  0  0  0
 20 27  1  0  0  0  0
 20 19  1  0  0  0  0
 21 20  1  1  0  0  0
 21 22  1  0  0  0  0
 21 23  1  0  0  0  0
 22 24  1  6  0  0  0
 22 23  1  0  0  0  0
 24 26  1  0  0  0  0
 25 24  2  0  0  0  0
 28 27  1  0  0  0  0
 29 30  1  0  0  0  0
M  END
>  <MODEL>
9

>  <REMARK>
 VINA RESULT:      -5.3      1.660      7.402
  Name = 
  16 active torsions:
  status: ('A' for Active; 'I' for Inactive)
    1  A    between atoms: C_1  and  C_4
    2  A    between atoms: C_1  and  C_22
    3  A    between atoms: C_2  and  O_20
    4  A    between atoms: C_2  and  C_22
    5  A    between atoms: C_3  and  C_23
    6  A    between atoms: C_4  and  C_12
    7  A    between atoms: C_7  and  C_23
    8  A    between atoms: O_8  and  C_12
    9  A    between atoms: O_8  and  C_30
   10  A    between atoms: C_9  and  C_12
   11  A    between atoms: C_9  and  C_21
   12  A    between atoms: C_10  and  C_15
   13  A    between atoms: O_11  and  C_23
   14  A    between atoms: C_14  and  O_20
   15  A    between atoms: C_22  and  S_29
   16  A    between atoms: C_23  and  S_29
                            x       y       z     vdW  Elec       q    Type
                         _______ _______ _______ _____ _____    ______ ____

>  <TORSDO>
F 16

$$$$
