=
 OpenBabel11052414013D

 34 39  0  0  1  0  0  0  0  0999 V2000
  188.1540  177.1200  137.2530 C   0  0  0  0  0  0  0  0  0  0  0  0
  190.5140  176.6970  137.9250 N   0  0  0  0  0  0  0  0  0  0  0  0
  188.9500  177.8560  139.4910 C   0  0  0  0  0  0  0  0  0  0  0  0
  188.1190  178.4420  142.2720 N   0  0  2  0  0  0  0  0  0  0  0  0
  185.6070  177.0000  136.9280 C   0  0  0  0  0  1  0  0  0  0  0  0
  191.0890  176.4390  136.6140 C   0  0  0  0  0  1  0  0  0  0  0  0
  191.0260  176.8390  140.2620 C   0  0  0  0  0  3  0  0  0  0  0  0
  189.3480  177.5890  138.0500 C   0  0  2  0  0  3  0  0  0  0  0  0
  189.5190  178.1780  141.8870 C   0  0  2  0  0  3  0  0  0  0  0  0
  188.3110  176.5290  136.1500 O   0  0  0  0  0  0  0  0  0  0  0  0
  187.6530  178.5850  139.7170 C   0  0  2  0  0  3  0  0  0  0  0  0
  186.7910  177.4420  137.7180 C   0  0  0  0  0  0  0  0  0  0  0  0
  191.3530  176.4180  139.0470 C   0  0  0  0  0  3  0  0  0  0  0  0
  187.2460  177.3030  141.8980 C   0  0  0  0  0  2  0  0  0  0  0  0
  187.1360  178.5730  141.1700 C   0  0  1  0  0  0  0  0  0  0  0  0
  189.7770  177.5880  140.5090 C   0  0  0  0  0  0  0  0  0  0  0  0
  186.5960  178.0710  138.8380 N   0  0  0  0  0  0  0  0  0  0  0  0
  184.5140  178.2900  143.2890 C   0  0  1  0  0  3  0  0  0  0  0  0
  183.9600  177.6640  142.1420 O   0  0  0  0  0  0  0  0  0  0  0  0
  185.9290  179.4700  141.5150 C   0  0  2  0  0  3  0  0  0  0  0  0
  183.5430  178.6540  141.2340 C   0  0  0  0  0  2  0  0  0  0  0  0
  185.4820  179.4510  142.9860 C   0  0  0  0  0  2  0  0  0  0  0  0
  184.7570  179.2720  140.5410 C   0  0  0  0  0  2  0  0  0  0  0  0
  183.4270  178.7310  144.2540 C   0  0  0  0  0  1  0  0  0  0  0  0
  190.2320  177.4510  143.0250 C   0  0  0  0  0  2  0  0  0  0  0  0
  189.9000  178.1040  144.3520 C   0  0  0  0  0  2  0  0  0  0  0  0
  190.1380  177.1200  145.4890 C   0  0  0  0  0  2  0  0  0  0  0  0
  187.1990  176.7470  144.7900 F   0  0  0  0  0  0  0  0  0  0  0  0
  188.9320  177.0250  146.4180 C   0  0  2  0  0  3  0  0  0  0  0  0
  187.6580  177.6020  145.7760 C   0  0  2  0  0  3  0  0  0  0  0  0
  187.0610  178.8030  147.8660 C   0  0  0  0  0  2  0  0  0  0  0  0
  188.3830  178.3830  148.4510 C   0  0  0  0  0  3  0  0  0  0  0  0
  189.2490  177.6120  147.7760 C   0  0  0  0  0  3  0  0  0  0  0  0
  186.5710  177.7990  146.8270 C   0  0  0  0  0  2  0  0  0  0  0  0
  1 12  1  0  0  0  0
  2  8  1  0  0  0  0
  2 13  1  0  0  0  0
  3 11  1  0  0  0  0
  3 16  2  0  0  0  0
  4 14  1  1  0  0  0
  5 12  1  0  0  0  0
  6  2  1  0  0  0  0
  7 16  1  0  0  0  0
  8  1  1  6  0  0  0
  8  3  1  0  0  0  0
  9  4  1  0  0  0  0
  9 25  1  1  0  0  0
 10  1  2  0  0  0  0
 11 17  1  6  0  0  0
 11 15  1  0  0  0  0
 12 17  2  0  0  0  0
 13  7  2  0  0  0  0
 15 20  1  0  0  0  0
 15 14  1  1  0  0  0
 15  4  1  0  0  0  0
 16  9  1  0  0  0  0
 18 24  1  1  0  0  0
 19 18  1  0  0  0  0
 20 23  1  6  0  0  0
 20 22  1  0  0  0  0
 21 19  1  0  0  0  0
 22 18  1  0  0  0  0
 23 21  1  0  0  0  0
 25 26  1  0  0  0  0
 26 27  1  0  0  0  0
 29 27  1  6  0  0  0
 29 33  1  0  0  0  0
 30 28  1  6  0  0  0
 30 29  1  0  0  0  0
 30 34  1  0  0  0  0
 31 32  1  0  0  0  0
 33 32  2  0  0  0  0
 34 31  1  0  0  0  0
M  END
>  <MODEL>
1

>  <REMARK>
 VINA RESULT:      -8.8      0.000      0.000
  Name = 
  5 active torsions:
  status: ('A' for Active; 'I' for Inactive)
    1  A    between atoms: C_3  and  C_13
    2  A    between atoms: C_3  and  C_17
    3  A    between atoms: C_12  and  C_28
    4  A    between atoms: C_17  and  C_29
    5  A    between atoms: C_18  and  C_29
                            x       y       z     vdW  Elec       q    Type
                         _______ _______ _______ _____ _____    ______ ____

>  <TORSDO>
F 5

$$$$
=
 OpenBabel11052414013D

 34 39  0  0  1  0  0  0  0  0999 V2000
  190.5560  176.4230  136.7230 C   0  0  0  0  0  0  0  0  0  0  0  0
  188.2510  176.9990  135.9800 N   0  0  0  0  0  0  0  0  0  0  0  0
  188.7900  176.8650  138.4160 C   0  0  0  0  0  0  0  0  0  0  0  0
  188.2800  177.7950  141.1810 N   0  0  2  0  0  0  0  0  0  0  0  0
  192.9860  176.4990  137.5580 C   0  0  0  0  0  1  0  0  0  0  0  0
  188.3230  176.5350  134.6040 C   0  0  0  0  0  1  0  0  0  0  0  0
  186.8060  178.0190  137.5980 C   0  0  0  0  0  3  0  0  0  0  0  0
  189.0760  176.3530  137.0150 C   0  0  2  0  0  3  0  0  0  0  0  0
  187.2370  177.7560  140.1380 C   0  0  2  0  0  3  0  0  0  0  0  0
  190.9790  176.3730  135.5350 O   0  0  0  0  0  0  0  0  0  0  0  0
  189.7210  176.4170  139.5110 C   0  0  2  0  0  3  0  0  0  0  0  0
  191.5230  176.4490  137.8370 C   0  0  0  0  0  0  0  0  0  0  0  0
  187.0910  177.7570  136.3290 C   0  0  0  0  0  3  0  0  0  0  0  0
  189.4220  178.6380  140.7530 C   0  0  0  0  0  2  0  0  0  0  0  0
  189.5870  177.1820  140.8420 C   0  0  1  0  0  0  0  0  0  0  0  0
  187.6810  177.5620  138.6960 C   0  0  0  0  0  0  0  0  0  0  0  0
  191.1210  176.4770  139.0730 N   0  0  0  0  0  0  0  0  0  0  0  0
  189.4840  177.8150  144.1640 C   0  0  1  0  0  3  0  0  0  0  0  0
  190.4280  178.7970  143.7650 O   0  0  0  0  0  0  0  0  0  0  0  0
  190.3580  176.6430  142.0650 C   0  0  2  0  0  3  0  0  0  0  0  0
  191.6810  178.1830  143.5860 C   0  0  0  0  0  2  0  0  0  0  0  0
  189.5410  176.5010  143.3600 C   0  0  0  0  0  2  0  0  0  0  0  0
  191.6890  177.3790  142.2870 C   0  0  0  0  0  2  0  0  0  0  0  0
  189.5730  177.5390  145.6560 C   0  0  0  0  0  1  0  0  0  0  0  0
  186.2650  178.9150  140.3450 C   0  0  0  0  0  2  0  0  0  0  0  0
  186.0430  179.1530  141.8250 C   0  0  0  0  0  2  0  0  0  0  0  0
  184.5990  178.8420  142.1900 C   0  0  0  0  0  2  0  0  0  0  0  0
  182.3100  179.0640  144.1850 F   0  0  0  0  0  0  0  0  0  0  0  0
  184.4830  178.2530  143.5930 C   0  0  2  0  0  3  0  0  0  0  0  0
  183.6480  179.1440  144.5290 C   0  0  2  0  0  3  0  0  0  0  0  0
  185.2940  178.8810  146.3690 C   0  0  0  0  0  2  0  0  0  0  0  0
  186.1990  178.1480  145.4150 C   0  0  0  0  0  3  0  0  0  0  0  0
  185.8480  177.9010  144.1450 C   0  0  0  0  0  3  0  0  0  0  0  0
  183.8290  178.7140  145.9800 C   0  0  0  0  0  2  0  0  0  0  0  0
  1 12  1  0  0  0  0
  2 13  1  0  0  0  0
  2  8  1  0  0  0  0
  3 16  2  0  0  0  0
  4 14  1  6  0  0  0
  5 12  1  0  0  0  0
  6  2  1  0  0  0  0
  7 16  1  0  0  0  0
  8  1  1  6  0  0  0
  8  3  1  0  0  0  0
  9 25  1  6  0  0  0
  9  4  1  0  0  0  0
 10  1  2  0  0  0  0
 11  3  1  6  0  0  0
 11 15  1  0  0  0  0
 12 17  2  0  0  0  0
 13  7  2  0  0  0  0
 15 14  1  6  0  0  0
 15  4  1  0  0  0  0
 15 20  1  0  0  0  0
 16  9  1  0  0  0  0
 17 11  1  0  0  0  0
 18 24  1  1  0  0  0
 19 18  1  0  0  0  0
 20 23  1  1  0  0  0
 20 22  1  0  0  0  0
 21 19  1  0  0  0  0
 22 18  1  0  0  0  0
 23 21  1  0  0  0  0
 25 26  1  0  0  0  0
 26 27  1  0  0  0  0
 29 27  1  6  0  0  0
 29 33  1  0  0  0  0
 29 30  1  0  0  0  0
 30 28  1  6  0  0  0
 30 34  1  0  0  0  0
 32 31  1  0  0  0  0
 33 32  2  0  0  0  0
 34 31  1  0  0  0  0
M  END
>  <MODEL>
2

>  <REMARK>
 VINA RESULT:      -8.7      2.098      4.710
  Name = 
  5 active torsions:
  status: ('A' for Active; 'I' for Inactive)
    1  A    between atoms: C_3  and  C_13
    2  A    between atoms: C_3  and  C_17
    3  A    between atoms: C_12  and  C_28
    4  A    between atoms: C_17  and  C_29
    5  A    between atoms: C_18  and  C_29
                            x       y       z     vdW  Elec       q    Type
                         _______ _______ _______ _____ _____    ______ ____

>  <TORSDO>
F 5

$$$$
=
 OpenBabel11052414013D

 34 39  0  0  1  0  0  0  0  0999 V2000
  186.7370  176.6680  137.2170 C   0  0  0  0  0  0  0  0  0  0  0  0
  188.3040  177.7670  138.8080 N   0  0  0  0  0  0  0  0  0  0  0  0
  185.8490  178.2030  138.9590 C   0  0  0  0  0  0  0  0  0  0  0  0
  183.4860  178.8530  140.6220 N   0  0  2  0  0  0  0  0  0  0  0  0
  185.0320  175.1070  136.0910 C   0  0  0  0  0  1  0  0  0  0  0  0
  189.5500  177.5770  138.0830 C   0  0  0  0  0  1  0  0  0  0  0  0
  187.3590  178.6910  140.8080 C   0  0  0  0  0  3  0  0  0  0  0  0
  187.0350  177.8790  138.0680 C   0  0  2  0  0  3  0  0  0  0  0  0
  184.8500  179.3170  140.9420 C   0  0  2  0  0  3  0  0  0  0  0  0
  187.6720  176.0270  136.6630 O   0  0  0  0  0  0  0  0  0  0  0  0
  184.4830  178.1350  138.3300 C   0  0  2  0  0  3  0  0  0  0  0  0
  185.3360  176.2890  136.9460 C   0  0  0  0  0  0  0  0  0  0  0  0
  188.4230  178.2550  140.1460 C   0  0  0  0  0  3  0  0  0  0  0  0
  183.4390  177.3730  140.5420 C   0  0  0  0  0  2  0  0  0  0  0  0
  183.3010  178.1720  139.3180 C   0  0  1  0  0  0  0  0  0  0  0  0
  186.0120  178.6700  140.2040 C   0  0  0  0  0  0  0  0  0  0  0  0
  184.3500  176.9440  137.4820 N   0  0  0  0  0  0  0  0  0  0  0  0
  181.4900  180.7660  138.1180 C   0  0  1  0  0  3  0  0  0  0  0  0
  181.1400  180.8480  139.4910 O   0  0  0  0  0  0  0  0  0  0  0  0
  181.8780  178.3150  138.7380 C   0  0  2  0  0  3  0  0  0  0  0  0
  180.1670  179.8730  139.7770 C   0  0  0  0  0  2  0  0  0  0  0  0
  181.7220  179.3340  137.5970 C   0  0  0  0  0  2  0  0  0  0  0  0
  180.8150  178.4890  139.8320 C   0  0  0  0  0  2  0  0  0  0  0  0
  180.4830  181.5010  137.2490 C   0  0  0  0  0  1  0  0  0  0  0  0
  185.0260  179.3780  142.4580 C   0  0  0  0  0  2  0  0  0  0  0  0
  185.3550  178.0020  143.0020 C   0  0  0  0  0  2  0  0  0  0  0  0
  185.5220  178.0670  144.5130 C   0  0  0  0  0  2  0  0  0  0  0  0
  186.8100  177.9490  147.2690 F   0  0  0  0  0  0  0  0  0  0  0  0
  186.7030  177.2270  144.9890 C   0  0  2  0  0  3  0  0  0  0  0  0
  187.5200  177.9400  146.0810 C   0  0  2  0  0  3  0  0  0  0  0  0
  189.6620  177.3050  144.9960 C   0  0  0  0  0  2  0  0  0  0  0  0
  188.8770  176.7500  143.8380 C   0  0  0  0  0  3  0  0  0  0  0  0
  187.5360  176.7540  143.8170 C   0  0  0  0  0  3  0  0  0  0  0  0
  188.8580  177.2410  146.2920 C   0  0  0  0  0  2  0  0  0  0  0  0
  2 13  1  0  0  0  0
  3 16  2  0  0  0  0
  4 14  1  1  0  0  0
  4  9  1  0  0  0  0
  5 12  1  0  0  0  0
  6  2  1  0  0  0  0
  8  1  1  1  0  0  0
  8  2  1  0  0  0  0
  8  3  1  0  0  0  0
  9 25  1  1  0  0  0
 10  1  2  0  0  0  0
 11 17  1  1  0  0  0
 11  3  1  0  0  0  0
 11 15  1  0  0  0  0
 12  1  1  0  0  0  0
 12 17  2  0  0  0  0
 13  7  2  0  0  0  0
 15 14  1  1  0  0  0
 15  4  1  0  0  0  0
 16  7  1  0  0  0  0
 16  9  1  0  0  0  0
 18 24  1  6  0  0  0
 18 19  1  0  0  0  0
 19 21  1  0  0  0  0
 20 22  1  6  0  0  0
 20 15  1  0  0  0  0
 20 23  1  0  0  0  0
 21 23  1  0  0  0  0
 22 18  1  0  0  0  0
 25 26  1  0  0  0  0
 26 27  1  0  0  0  0
 29 27  1  6  0  0  0
 29 30  1  0  0  0  0
 30 34  1  0  0  0  0
 30 28  1  1  0  0  0
 31 34  1  0  0  0  0
 32 31  1  0  0  0  0
 33 32  2  0  0  0  0
 33 29  1  0  0  0  0
M  END
>  <MODEL>
3

>  <REMARK>
 VINA RESULT:      -8.4      2.410      4.131
  Name = 
  5 active torsions:
  status: ('A' for Active; 'I' for Inactive)
    1  A    between atoms: C_3  and  C_13
    2  A    between atoms: C_3  and  C_17
    3  A    between atoms: C_12  and  C_28
    4  A    between atoms: C_17  and  C_29
    5  A    between atoms: C_18  and  C_29
                            x       y       z     vdW  Elec       q    Type
                         _______ _______ _______ _____ _____    ______ ____

>  <TORSDO>
F 5

$$$$
=
 OpenBabel11052414013D

 34 39  0  0  1  0  0  0  0  0999 V2000
  189.9910  177.1490  146.6560 C   0  0  0  0  0  0  0  0  0  0  0  0
  187.6990  177.7200  147.4430 N   0  0  0  0  0  0  0  0  0  0  0  0
  188.3000  177.9750  145.0310 C   0  0  0  0  0  0  0  0  0  0  0  0
  187.4630  177.9300  142.1910 N   0  0  2  0  0  0  0  0  0  0  0  0
  192.0560  175.9820  145.6640 C   0  0  0  0  0  1  0  0  0  0  0  0
  187.9610  177.8360  148.8680 C   0  0  0  0  0  1  0  0  0  0  0  0
  185.9820  177.8820  145.7780 C   0  0  0  0  0  3  0  0  0  0  0  0
  188.7690  178.0180  146.4750 C   0  0  2  0  0  3  0  0  0  0  0  0
  186.5600  178.3190  143.2920 C   0  0  2  0  0  3  0  0  0  0  0  0
  190.3440  176.7700  147.8060 O   0  0  0  0  0  0  0  0  0  0  0  0
  189.3600  178.0620  143.9660 C   0  0  2  0  0  3  0  0  0  0  0  0
  190.8370  176.8230  145.4910 C   0  0  0  0  0  0  0  0  0  0  0  0
  186.3250  177.7370  147.0510 C   0  0  0  0  0  3  0  0  0  0  0  0
  187.9920  176.5620  142.4020 C   0  0  0  0  0  2  0  0  0  0  0  0
  188.8880  177.7170  142.5390 C   0  0  1  0  0  0  0  0  0  0  0  0
  186.9990  178.0060  144.7140 C   0  0  0  0  0  0  0  0  0  0  0  0
  190.5140  177.2180  144.2960 N   0  0  0  0  0  0  0  0  0  0  0  0
  188.5190  178.1010  139.1980 C   0  0  1  0  0  3  0  0  0  0  0  0
  188.6810  176.6930  139.2580 O   0  0  0  0  0  0  0  0  0  0  0  0
  189.8610  177.9840  141.3720 C   0  0  2  0  0  3  0  0  0  0  0  0
  190.0470  176.3930  139.4050 C   0  0  0  0  0  2  0  0  0  0  0  0
  189.3260  178.8890  140.2500 C   0  0  0  0  0  2  0  0  0  0  0  0
  190.4980  176.6930  140.8340 C   0  0  0  0  0  2  0  0  0  0  0  0
  188.7950  178.6290  137.8000 C   0  0  0  0  0  1  0  0  0  0  0  0
  185.1350  177.8780  142.9630 C   0  0  0  0  0  2  0  0  0  0  0  0
  184.2150  179.0820  142.9100 C   0  0  0  0  0  2  0  0  0  0  0  0
  182.9660  178.8170  143.7390 C   0  0  0  0  0  2  0  0  0  0  0  0
  180.0890  179.0030  144.7140 F   0  0  0  0  0  0  0  0  0  0  0  0
  181.6920  179.0670  142.9380 C   0  0  2  0  0  3  0  0  0  0  0  0
  180.4730  178.3580  143.5520 C   0  0  2  0  0  3  0  0  0  0  0  0
  179.7190  177.5660  141.3220 C   0  0  0  0  0  2  0  0  0  0  0  0
  180.9910  178.1110  140.7310 C   0  0  0  0  0  3  0  0  0  0  0  0
  181.9050  178.7540  141.4730 C   0  0  0  0  0  3  0  0  0  0  0  0
  179.3080  178.3460  142.5670 C   0  0  0  0  0  2  0  0  0  0  0  0
  1 10  2  0  0  0  0
  2  6  1  0  0  0  0
  4 14  1  1  0  0  0
  4 15  1  0  0  0  0
  4  9  1  0  0  0  0
  7 13  2  0  0  0  0
  8  3  1  6  0  0  0
  8  1  1  0  0  0  0
  8  2  1  0  0  0  0
  9 25  1  6  0  0  0
  9 16  1  0  0  0  0
 11 17  1  1  0  0  0
 11  3  1  0  0  0  0
 12  5  1  0  0  0  0
 12  1  1  0  0  0  0
 13  2  1  0  0  0  0
 15 14  1  1  0  0  0
 15 11  1  0  0  0  0
 16  3  2  0  0  0  0
 16  7  1  0  0  0  0
 17 12  2  0  0  0  0
 18 24  1  6  0  0  0
 18 19  1  0  0  0  0
 18 22  1  0  0  0  0
 19 21  1  0  0  0  0
 20 22  1  6  0  0  0
 20 15  1  0  0  0  0
 21 23  1  0  0  0  0
 23 20  1  0  0  0  0
 26 25  1  0  0  0  0
 26 27  1  0  0  0  0
 29 30  1  0  0  0  0
 29 27  1  1  0  0  0
 30 28  1  1  0  0  0
 31 34  1  0  0  0  0
 32 31  1  0  0  0  0
 32 33  2  0  0  0  0
 33 29  1  0  0  0  0
 34 30  1  0  0  0  0
M  END
>  <MODEL>
4

>  <REMARK>
 VINA RESULT:      -8.4      2.791      7.662
  Name = 
  5 active torsions:
  status: ('A' for Active; 'I' for Inactive)
    1  A    between atoms: C_3  and  C_13
    2  A    between atoms: C_3  and  C_17
    3  A    between atoms: C_12  and  C_28
    4  A    between atoms: C_17  and  C_29
    5  A    between atoms: C_18  and  C_29
                            x       y       z     vdW  Elec       q    Type
                         _______ _______ _______ _____ _____    ______ ____

>  <TORSDO>
F 5

$$$$
=
 OpenBabel11052414013D

 34 39  0  0  1  0  0  0  0  0999 V2000
  186.5540  176.6930  137.0910 C   0  0  0  0  0  0  0  0  0  0  0  0
  188.2600  177.6900  138.6050 N   0  0  0  0  0  0  0  0  0  0  0  0
  185.8410  178.2400  138.9020 C   0  0  0  0  0  0  0  0  0  0  0  0
  183.6100  178.9740  140.7060 N   0  0  2  0  0  0  0  0  0  0  0  0
  184.7150  175.2330  136.0430 C   0  0  0  0  0  1  0  0  0  0  0  0
  189.4520  177.4530  137.8070 C   0  0  0  0  0  1  0  0  0  0  0  0
  187.4750  178.6250  140.6680 C   0  0  0  0  0  3  0  0  0  0  0  0
  186.9580  177.8740  137.9400 C   0  0  2  0  0  3  0  0  0  0  0  0
  185.0100  179.3670  140.9540 C   0  0  2  0  0  3  0  0  0  0  0  0
  187.4240  176.0180  136.4760 O   0  0  0  0  0  0  0  0  0  0  0  0
  184.4400  178.2470  138.3500 C   0  0  2  0  0  3  0  0  0  0  0  0
  185.1230  176.3860  136.8950 C   0  0  0  0  0  0  0  0  0  0  0  0
  188.4770  178.1500  139.9410 C   0  0  0  0  0  3  0  0  0  0  0  0
  183.4860  177.5000  140.6080 C   0  0  0  0  0  2  0  0  0  0  0  0
  183.3180  178.3240  139.4050 C   0  0  1  0  0  0  0  0  0  0  0  0
  186.0960  178.6780  140.1410 C   0  0  0  0  0  0  0  0  0  0  0  0
  184.2010  177.0780  137.4960 N   0  0  0  0  0  0  0  0  0  0  0  0
  181.5750  181.0180  138.3320 C   0  0  1  0  0  3  0  0  0  0  0  0
  181.3090  181.1030  139.7230 O   0  0  0  0  0  0  0  0  0  0  0  0
  181.8740  178.5440  138.9090 C   0  0  2  0  0  3  0  0  0  0  0  0
  180.3060  180.1750  140.0570 C   0  0  0  0  0  2  0  0  0  0  0  0
  181.7040  179.5820  137.7870 C   0  0  0  0  0  2  0  0  0  0  0  0
  180.8850  178.7600  140.0640 C   0  0  0  0  0  2  0  0  0  0  0  0
  180.5590  181.8110  137.5270 C   0  0  0  0  0  1  0  0  0  0  0  0
  185.2740  179.3960  142.4580 C   0  0  0  0  0  2  0  0  0  0  0  0
  184.0000  179.0820  143.2170 C   0  0  0  0  0  2  0  0  0  0  0  0
  184.3220  178.2520  144.4510 C   0  0  0  0  0  2  0  0  0  0  0  0
  186.9830  177.0610  143.5730 F   0  0  0  0  0  0  0  0  0  0  0  0
  185.7270  178.5390  144.9760 C   0  0  2  0  0  3  0  0  0  0  0  0
  186.6400  177.3040  144.8910 C   0  0  2  0  0  3  0  0  0  0  0  0
  187.5190  177.7070  147.1790 C   0  0  0  0  0  2  0  0  0  0  0  0
  186.5120  178.8150  147.3380 C   0  0  0  0  0  3  0  0  0  0  0  0
  185.6710  179.1630  146.3530 C   0  0  0  0  0  3  0  0  0  0  0  0
  187.9060  177.5170  145.7160 C   0  0  0  0  0  2  0  0  0  0  0  0
  2 13  1  0  0  0  0
  3 16  2  0  0  0  0
  4 14  1  1  0  0  0
  4  9  1  0  0  0  0
  5 12  1  0  0  0  0
  6  2  1  0  0  0  0
  8  1  1  1  0  0  0
  8  2  1  0  0  0  0
  8  3  1  0  0  0  0
  9 25  1  1  0  0  0
 10  1  2  0  0  0  0
 11 17  1  1  0  0  0
 11  3  1  0  0  0  0
 11 15  1  0  0  0  0
 12  1  1  0  0  0  0
 12 17  2  0  0  0  0
 13  7  2  0  0  0  0
 15 14  1  1  0  0  0
 15  4  1  0  0  0  0
 16  7  1  0  0  0  0
 16  9  1  0  0  0  0
 18 24  1  6  0  0  0
 18 19  1  0  0  0  0
 19 21  1  0  0  0  0
 20 22  1  6  0  0  0
 20 15  1  0  0  0  0
 20 23  1  0  0  0  0
 21 23  1  0  0  0  0
 22 18  1  0  0  0  0
 25 26  1  0  0  0  0
 26 27  1  0  0  0  0
 29 27  1  1  0  0  0
 29 33  1  0  0  0  0
 30 28  1  6  0  0  0
 30 29  1  0  0  0  0
 30 34  1  0  0  0  0
 31 32  1  0  0  0  0
 33 32  2  0  0  0  0
 34 31  1  0  0  0  0
M  END
>  <MODEL>
5

>  <REMARK>
 VINA RESULT:      -8.3      2.338      4.038
  Name = 
  5 active torsions:
  status: ('A' for Active; 'I' for Inactive)
    1  A    between atoms: C_3  and  C_13
    2  A    between atoms: C_3  and  C_17
    3  A    between atoms: C_12  and  C_28
    4  A    between atoms: C_17  and  C_29
    5  A    between atoms: C_18  and  C_29
                            x       y       z     vdW  Elec       q    Type
                         _______ _______ _______ _____ _____    ______ ____

>  <TORSDO>
F 5

$$$$
=
 OpenBabel11052414013D

 34 39  0  0  1  0  0  0  0  0999 V2000
  180.0260  178.8740  141.0760 C   0  0  0  0  0  0  0  0  0  0  0  0
  181.1880  178.8310  143.2770 N   0  0  0  0  0  0  0  0  0  0  0  0
  182.4520  178.3400  141.1780 C   0  0  0  0  0  0  0  0  0  0  0  0
  185.0040  178.4200  139.6770 N   0  0  2  0  0  0  0  0  0  0  0  0
  179.0970  179.5370  138.7720 C   0  0  0  0  0  1  0  0  0  0  0  0
  180.0320  178.7330  144.1530 C   0  0  0  0  0  1  0  0  0  0  0  0
  183.5830  178.9500  143.2500 C   0  0  0  0  0  3  0  0  0  0  0  0
  181.1260  178.2710  141.9160 C   0  0  2  0  0  3  0  0  0  0  0  0
  184.9350  178.2820  141.1450 C   0  0  2  0  0  3  0  0  0  0  0  0
  178.9360  179.2270  141.6030 O   0  0  0  0  0  0  0  0  0  0  0  0
  182.4400  177.9820  139.7160 C   0  0  2  0  0  3  0  0  0  0  0  0
  180.1860  178.9600  139.6110 C   0  0  0  0  0  0  0  0  0  0  0  0
  182.4430  179.0810  143.9150 C   0  0  0  0  0  3  0  0  0  0  0  0
  184.3180  179.6570  139.2330 C   0  0  0  0  0  2  0  0  0  0  0  0
  183.7200  178.3490  138.9390 C   0  0  1  0  0  0  0  0  0  0  0  0
  183.6040  178.5650  141.8240 C   0  0  0  0  0  0  0  0  0  0  0  0
  181.2880  178.5830  139.0340 N   0  0  0  0  0  0  0  0  0  0  0  0
  183.3490  175.3220  137.4720 C   0  0  1  0  0  3  0  0  0  0  0  0
  184.7200  175.2440  137.8330 O   0  0  0  0  0  0  0  0  0  0  0  0
  183.8610  177.8290  137.4930 C   0  0  2  0  0  3  0  0  0  0  0  0
  185.4820  175.9700  136.9000 C   0  0  0  0  0  2  0  0  0  0  0  0
  182.8650  176.7320  137.0790 C   0  0  0  0  0  2  0  0  0  0  0  0
  185.3120  177.4700  137.1400 C   0  0  0  0  0  2  0  0  0  0  0  0
  183.0060  174.3120  136.3910 C   0  0  0  0  0  1  0  0  0  0  0  0
  186.1280  178.9930  141.7810 C   0  0  0  0  0  2  0  0  0  0  0  0
  187.2480  178.0040  142.0420 C   0  0  0  0  0  2  0  0  0  0  0  0
  186.9660  177.2280  143.3200 C   0  0  0  0  0  2  0  0  0  0  0  0
  189.8210  177.2240  144.3780 F   0  0  0  0  0  0  0  0  0  0  0  0
  187.5400  177.9300  144.5470 C   0  0  2  0  0  3  0  0  0  0  0  0
  188.6970  177.1390  145.1810 C   0  0  2  0  0  3  0  0  0  0  0  0
  187.7970  177.5100  147.4650 C   0  0  0  0  0  2  0  0  0  0  0  0
  186.5760  178.1410  146.8500 C   0  0  0  0  0  3  0  0  0  0  0  0
  186.4420  178.2920  145.5240 C   0  0  0  0  0  3  0  0  0  0  0  0
  189.0190  177.6810  146.5690 C   0  0  0  0  0  2  0  0  0  0  0  0
  1 10  2  0  0  0  0
  2 13  1  0  0  0  0
  2  6  1  0  0  0  0
  3 16  2  0  0  0  0
  3  8  1  0  0  0  0
  4 14  1  1  0  0  0
  4  9  1  0  0  0  0
  5 12  1  0  0  0  0
  7 13  2  0  0  0  0
  8  1  1  6  0  0  0
  8  2  1  0  0  0  0
  9 25  1  1  0  0  0
  9 16  1  0  0  0  0
 11 17  1  6  0  0  0
 11  3  1  0  0  0  0
 12  1  1  0  0  0  0
 15 14  1  6  0  0  0
 15  4  1  0  0  0  0
 15 11  1  0  0  0  0
 16  7  1  0  0  0  0
 17 12  2  0  0  0  0
 18 24  1  6  0  0  0
 18 19  1  0  0  0  0
 20 22  1  1  0  0  0
 20 15  1  0  0  0  0
 21 23  1  0  0  0  0
 21 19  1  0  0  0  0
 22 18  1  0  0  0  0
 23 20  1  0  0  0  0
 25 26  1  0  0  0  0
 26 27  1  0  0  0  0
 29 27  1  6  0  0  0
 29 30  1  0  0  0  0
 29 33  1  0  0  0  0
 30 28  1  6  0  0  0
 30 34  1  0  0  0  0
 32 31  1  0  0  0  0
 33 32  2  0  0  0  0
 34 31  1  0  0  0  0
M  END
>  <MODEL>
6

>  <REMARK>
 VINA RESULT:      -8.3      2.820      6.538
  Name = 
  5 active torsions:
  status: ('A' for Active; 'I' for Inactive)
    1  A    between atoms: C_3  and  C_13
    2  A    between atoms: C_3  and  C_17
    3  A    between atoms: C_12  and  C_28
    4  A    between atoms: C_17  and  C_29
    5  A    between atoms: C_18  and  C_29
                            x       y       z     vdW  Elec       q    Type
                         _______ _______ _______ _____ _____    ______ ____

>  <TORSDO>
F 5

$$$$
=
 OpenBabel11052414013D

 34 39  0  0  1  0  0  0  0  0999 V2000
  189.9890  177.1280  146.5830 C   0  0  0  0  0  0  0  0  0  0  0  0
  187.6950  177.7100  147.3530 N   0  0  0  0  0  0  0  0  0  0  0  0
  188.3150  177.9600  144.9460 C   0  0  0  0  0  0  0  0  0  0  0  0
  187.4980  177.9180  142.0990 N   0  0  2  0  0  0  0  0  0  0  0  0
  192.0560  175.9490  145.6080 C   0  0  0  0  0  1  0  0  0  0  0  0
  187.9470  177.8260  148.7800 C   0  0  0  0  0  1  0  0  0  0  0  0
  185.9910  177.8800  145.6760 C   0  0  0  0  0  3  0  0  0  0  0  0
  188.7730  178.0020  146.3930 C   0  0  2  0  0  3  0  0  0  0  0  0
  186.5890  178.3120  143.1930 C   0  0  2  0  0  3  0  0  0  0  0  0
  190.3320  176.7480  147.7370 O   0  0  0  0  0  0  0  0  0  0  0  0
  189.3820  178.0420  143.8880 C   0  0  2  0  0  3  0  0  0  0  0  0
  190.8430  176.7960  145.4260 C   0  0  0  0  0  0  0  0  0  0  0  0
  186.3230  177.7350  146.9520 C   0  0  0  0  0  3  0  0  0  0  0  0
  188.0190  176.5470  142.3160 C   0  0  0  0  0  2  0  0  0  0  0  0
  188.9200  177.6980  142.4580 C   0  0  1  0  0  0  0  0  0  0  0  0
  187.0160  177.9980  144.6190 C   0  0  0  0  0  0  0  0  0  0  0  0
  190.5300  177.1920  144.2280 N   0  0  0  0  0  0  0  0  0  0  0  0
  188.5740  178.1080  139.1180 C   0  0  1  0  0  3  0  0  0  0  0  0
  188.7170  176.6960  139.1700 O   0  0  0  0  0  0  0  0  0  0  0  0
  189.9030  177.9590  141.2980 C   0  0  2  0  0  3  0  0  0  0  0  0
  190.0790  176.3780  139.3220 C   0  0  0  0  0  2  0  0  0  0  0  0
  189.3850  178.8770  140.1790 C   0  0  0  0  0  2  0  0  0  0  0  0
  190.5250  176.6630  140.7560 C   0  0  0  0  0  2  0  0  0  0  0  0
  188.8650  178.6400  137.7250 C   0  0  0  0  0  1  0  0  0  0  0  0
  185.1650  177.8780  142.8550 C   0  0  0  0  0  2  0  0  0  0  0  0
  184.3640  179.0620  142.3480 C   0  0  0  0  0  2  0  0  0  0  0  0
  183.0310  178.5860  141.7890 C   0  0  0  0  0  2  0  0  0  0  0  0
  181.7850  176.5220  139.9310 F   0  0  0  0  0  0  0  0  0  0  0  0
  183.0440  178.5300  140.2650 C   0  0  2  0  0  3  0  0  0  0  0  0
  183.0340  177.0850  139.7370 C   0  0  2  0  0  3  0  0  0  0  0  0
  184.7910  177.6060  138.0620 C   0  0  0  0  0  2  0  0  0  0  0  0
  184.9310  178.9730  138.6770 C   0  0  0  0  0  3  0  0  0  0  0  0
  184.1670  179.3750  139.7030 C   0  0  0  0  0  3  0  0  0  0  0  0
  183.3820  177.0540  138.2530 C   0  0  0  0  0  2  0  0  0  0  0  0
  1 10  2  0  0  0  0
  2  6  1  0  0  0  0
  4 14  1  1  0  0  0
  4 15  1  0  0  0  0
  4  9  1  0  0  0  0
  7 13  2  0  0  0  0
  8  3  1  6  0  0  0
  8  1  1  0  0  0  0
  8  2  1  0  0  0  0
  9 25  1  6  0  0  0
  9 16  1  0  0  0  0
 11 17  1  1  0  0  0
 11  3  1  0  0  0  0
 12  5  1  0  0  0  0
 12  1  1  0  0  0  0
 13  2  1  0  0  0  0
 15 14  1  1  0  0  0
 15 11  1  0  0  0  0
 16  3  2  0  0  0  0
 16  7  1  0  0  0  0
 17 12  2  0  0  0  0
 18 24  1  6  0  0  0
 18 19  1  0  0  0  0
 18 22  1  0  0  0  0
 19 21  1  0  0  0  0
 20 22  1  6  0  0  0
 20 15  1  0  0  0  0
 21 23  1  0  0  0  0
 23 20  1  0  0  0  0
 26 25  1  0  0  0  0
 27 26  1  0  0  0  0
 29 27  1  1  0  0  0
 30 28  1  6  0  0  0
 30 29  1  0  0  0  0
 31 34  1  0  0  0  0
 31 32  1  0  0  0  0
 32 33  2  0  0  0  0
 33 29  1  0  0  0  0
 34 30  1  0  0  0  0
M  END
>  <MODEL>
7

>  <REMARK>
 VINA RESULT:      -8.3      2.550      7.687
  Name = 
  5 active torsions:
  status: ('A' for Active; 'I' for Inactive)
    1  A    between atoms: C_3  and  C_13
    2  A    between atoms: C_3  and  C_17
    3  A    between atoms: C_12  and  C_28
    4  A    between atoms: C_17  and  C_29
    5  A    between atoms: C_18  and  C_29
                            x       y       z     vdW  Elec       q    Type
                         _______ _______ _______ _____ _____    ______ ____

>  <TORSDO>
F 5

$$$$
=
 OpenBabel11052414013D

 34 39  0  0  1  0  0  0  0  0999 V2000
  185.9960  178.2830  142.4650 C   0  0  0  0  0  0  0  0  0  0  0  0
  185.5450  178.5180  140.0280 N   0  0  0  0  0  0  0  0  0  0  0  0
  187.8940  178.3520  140.8620 C   0  0  0  0  0  0  0  0  0  0  0  0
  190.6940  177.5030  140.4030 N   0  0  2  0  0  0  0  0  0  0  0  0
  186.5170  177.3870  144.8180 C   0  0  0  0  0  1  0  0  0  0  0  0
  184.1750  179.0000  140.0870 C   0  0  0  0  0  1  0  0  0  0  0  0
  187.3240  177.9410  138.5290 C   0  0  0  0  0  3  0  0  0  0  0  0
  186.4730  178.8120  141.1340 C   0  0  2  0  0  3  0  0  0  0  0  0
  189.7910  177.9270  139.3150 C   0  0  2  0  0  3  0  0  0  0  0  0
  184.7650  178.2520  142.7400 O   0  0  0  0  0  0  0  0  0  0  0  0
  188.8670  178.4220  142.0090 C   0  0  2  0  0  3  0  0  0  0  0  0
  186.9790  177.8920  143.4940 C   0  0  0  0  0  0  0  0  0  0  0  0
  186.0310  178.1580  138.7330 C   0  0  0  0  0  3  0  0  0  0  0  0
  190.1180  176.3590  141.1490 C   0  0  0  0  0  2  0  0  0  0  0  0
  190.1980  177.6770  141.7890 C   0  0  1  0  0  0  0  0  0  0  0  0
  188.3060  178.0370  139.6270 C   0  0  0  0  0  0  0  0  0  0  0  0
  188.2550  177.9360  143.2520 N   0  0  0  0  0  0  0  0  0  0  0  0
  190.8490  176.3640  144.8390 C   0  0  1  0  0  3  0  0  0  0  0  0
  190.0370  177.4630  145.2220 O   0  0  0  0  0  0  0  0  0  0  0  0
  191.3190  177.8780  142.8310 C   0  0  2  0  0  3  0  0  0  0  0  0
  190.8130  178.6370  145.1980 C   0  0  0  0  0  2  0  0  0  0  0  0
  191.7410  176.6190  143.6080 C   0  0  0  0  0  2  0  0  0  0  0  0
  191.0510  179.0760  143.7540 C   0  0  0  0  0  2  0  0  0  0  0  0
  191.6740  175.8540  146.0070 C   0  0  0  0  0  1  0  0  0  0  0  0
  190.1090  177.1340  138.0490 C   0  0  0  0  0  2  0  0  0  0  0  0
  191.5640  176.7070  138.0520 C   0  0  0  0  0  2  0  0  0  0  0  0
  191.6640  175.2020  137.8480 C   0  0  0  0  0  2  0  0  0  0  0  0
  194.3050  173.7720  138.3440 F   0  0  0  0  0  0  0  0  0  0  0  0
  192.7630  174.8370  136.8550 C   0  0  2  0  0  3  0  0  0  0  0  0
  194.1590  174.8600  137.5010 C   0  0  2  0  0  3  0  0  0  0  0  0
  195.1210  176.0670  135.5550 C   0  0  0  0  0  2  0  0  0  0  0  0
  193.7320  176.1990  134.9890 C   0  0  0  0  0  3  0  0  0  0  0  0
  192.6590  175.6780  135.6010 C   0  0  0  0  0  3  0  0  0  0  0  0
  195.2450  174.8240  136.4310 C   0  0  0  0  0  2  0  0  0  0  0  0
  1 10  2  0  0  0  0
  1 12  1  0  0  0  0
  2  6  1  0  0  0  0
  2  8  1  0  0  0  0
  4 14  1  6  0  0  0
  4 15  1  0  0  0  0
  7 13  2  0  0  0  0
  7 16  1  0  0  0  0
  8  3  1  6  0  0  0
  8  1  1  0  0  0  0
  9 25  1  6  0  0  0
  9 16  1  0  0  0  0
  9  4  1  0  0  0  0
 11  3  1  6  0  0  0
 11 17  1  0  0  0  0
 12  5  1  0  0  0  0
 13  2  1  0  0  0  0
 15 14  1  1  0  0  0
 15 11  1  0  0  0  0
 15 20  1  0  0  0  0
 16  3  2  0  0  0  0
 17 12  2  0  0  0  0
 18 19  1  0  0  0  0
 18 24  1  1  0  0  0
 20 22  1  1  0  0  0
 20 23  1  0  0  0  0
 21 19  1  0  0  0  0
 22 18  1  0  0  0  0
 23 21  1  0  0  0  0
 25 26  1  0  0  0  0
 27 26  1  0  0  0  0
 29 30  1  0  0  0  0
 29 27  1  1  0  0  0
 30 28  1  1  0  0  0
 31 34  1  0  0  0  0
 32 31  1  0  0  0  0
 32 33  2  0  0  0  0
 33 29  1  0  0  0  0
 34 30  1  0  0  0  0
M  END
>  <MODEL>
8

>  <REMARK>
 VINA RESULT:      -8.2      2.805      7.783
  Name = 
  5 active torsions:
  status: ('A' for Active; 'I' for Inactive)
    1  A    between atoms: C_3  and  C_13
    2  A    between atoms: C_3  and  C_17
    3  A    between atoms: C_12  and  C_28
    4  A    between atoms: C_17  and  C_29
    5  A    between atoms: C_18  and  C_29
                            x       y       z     vdW  Elec       q    Type
                         _______ _______ _______ _____ _____    ______ ____

>  <TORSDO>
F 5

$$$$
=
 OpenBabel11052414013D

 34 39  0  0  1  0  0  0  0  0999 V2000
  181.2860  177.2670  137.5340 C   0  0  0  0  0  0  0  0  0  0  0  0
  180.6880  177.5110  139.9390 N   0  0  0  0  0  0  0  0  0  0  0  0
  183.0830  177.5530  139.2280 C   0  0  0  0  0  0  0  0  0  0  0  0
  185.8440  178.5300  139.6740 N   0  0  2  0  0  0  0  0  0  0  0  0
  181.9450  177.6900  135.0850 C   0  0  0  0  0  1  0  0  0  0  0  0
  179.3280  177.0010  139.8970 C   0  0  0  0  0  1  0  0  0  0  0  0
  182.3680  178.4080  141.3960 C   0  0  0  0  0  3  0  0  0  0  0  0
  181.6840  177.0210  138.9700 C   0  0  2  0  0  3  0  0  0  0  0  0
  184.8780  178.3120  140.7680 C   0  0  2  0  0  3  0  0  0  0  0  0
  180.0740  177.2200  137.1870 O   0  0  0  0  0  0  0  0  0  0  0  0
  184.1250  177.2760  138.1770 C   0  0  2  0  0  3  0  0  0  0  0  0
  182.3280  177.4650  136.5080 C   0  0  0  0  0  0  0  0  0  0  0  0
  181.0920  178.1290  141.1630 C   0  0  0  0  0  3  0  0  0  0  0  0
  185.3070  179.4920  138.6820 C   0  0  0  0  0  2  0  0  0  0  0  0
  185.4350  178.0750  138.3230 C   0  0  1  0  0  0  0  0  0  0  0  0
  183.4160  178.1150  140.3980 C   0  0  0  0  0  0  0  0  0  0  0  0
  183.5880  177.4950  136.8290 N   0  0  0  0  0  0  0  0  0  0  0  0
  188.7340  177.5260  138.8380 C   0  0  1  0  0  3  0  0  0  0  0  0
  188.7600  178.9250  138.6040 O   0  0  0  0  0  0  0  0  0  0  0  0
  186.6190  177.6930  137.4090 C   0  0  2  0  0  3  0  0  0  0  0  0
  188.6790  179.1610  137.2200 C   0  0  0  0  0  2  0  0  0  0  0  0
  187.6680  176.7570  138.0320 C   0  0  0  0  0  2  0  0  0  0  0  0
  187.2510  178.9180  136.7310 C   0  0  0  0  0  2  0  0  0  0  0  0
  190.1080  176.9080  138.6430 C   0  0  0  0  0  1  0  0  0  0  0  0
  185.1130  179.3460  141.8680 C   0  0  0  0  0  2  0  0  0  0  0  0
  186.0590  178.7910  142.9140 C   0  0  0  0  0  2  0  0  0  0  0  0
  185.2840  178.4150  144.1680 C   0  0  0  0  0  2  0  0  0  0  0  0
  185.2720  178.5220  147.2110 F   0  0  0  0  0  0  0  0  0  0  0  0
  186.1520  177.6500  145.1630 C   0  0  2  0  0  3  0  0  0  0  0  0
  186.4210  178.4600  146.4420 C   0  0  2  0  0  3  0  0  0  0  0  0
  188.8230  177.8310  146.4230 C   0  0  0  0  0  2  0  0  0  0  0  0
  188.6100  177.1740  145.0850 C   0  0  0  0  0  3  0  0  0  0  0  0
  187.4070  177.1300  144.4950 C   0  0  0  0  0  3  0  0  0  0  0  0
  187.5430  177.8230  147.2540 C   0  0  0  0  0  2  0  0  0  0  0  0
  2 13  1  0  0  0  0
  3 16  2  0  0  0  0
  4 14  1  6  0  0  0
  4  9  1  0  0  0  0
  5 12  1  0  0  0  0
  6  2  1  0  0  0  0
  8  1  1  6  0  0  0
  8  3  1  0  0  0  0
  8  2  1  0  0  0  0
  9 25  1  1  0  0  0
 10  1  2  0  0  0  0
 11 17  1  6  0  0  0
 11 15  1  0  0  0  0
 11  3  1  0  0  0  0
 12 17  2  0  0  0  0
 12  1  1  0  0  0  0
 13  7  2  0  0  0  0
 15 14  1  6  0  0  0
 15  4  1  0  0  0  0
 16  9  1  0  0  0  0
 16  7  1  0  0  0  0
 18 24  1  6  0  0  0
 19 18  1  0  0  0  0
 20 23  1  1  0  0  0
 20 22  1  0  0  0  0
 20 15  1  0  0  0  0
 21 19  1  0  0  0  0
 22 18  1  0  0  0  0
 23 21  1  0  0  0  0
 25 26  1  0  0  0  0
 26 27  1  0  0  0  0
 29 27  1  6  0  0  0
 29 30  1  0  0  0  0
 30 28  1  1  0  0  0
 30 34  1  0  0  0  0
 31 34  1  0  0  0  0
 32 31  1  0  0  0  0
 33 32  2  0  0  0  0
 33 29  1  0  0  0  0
M  END
>  <MODEL>
9

>  <REMARK>
 VINA RESULT:      -8.2      2.679      6.034
  Name = 
  5 active torsions:
  status: ('A' for Active; 'I' for Inactive)
    1  A    between atoms: C_3  and  C_13
    2  A    between atoms: C_3  and  C_17
    3  A    between atoms: C_12  and  C_28
    4  A    between atoms: C_17  and  C_29
    5  A    between atoms: C_18  and  C_29
                            x       y       z     vdW  Elec       q    Type
                         _______ _______ _______ _____ _____    ______ ____

>  <TORSDO>
F 5

$$$$
