=
 OpenBabel11052414463D

 32 33  0  0  1  0  0  0  0  0999 V2000
  184.3660  178.6750  145.0790 C   0  0  0  0  0  0  0  0  0  0  0  0
  183.6060  179.1250  145.9760 O   0  0  0  0  0  0  0  0  0  0  0  0
  185.9750  177.5880  143.0500 C   0  0  0  0  0  3  0  0  0  0  0  0
  185.7540  178.2270  145.4420 C   0  0  0  0  0  2  0  0  0  0  0  0
  184.6380  178.1350  142.7690 C   0  0  0  0  0  0  0  0  0  0  0  0
  183.9050  178.6190  143.7250 N   0  0  0  0  0  0  0  0  0  0  0  0
  186.4840  177.5970  144.2850 C   0  0  0  0  0  0  0  0  0  0  0  0
  184.0940  178.0840  141.3820 C   0  0  0  0  0  2  0  0  0  0  0  0
  184.3380  179.9770  139.4800 O   0  0  0  0  0  0  0  0  0  0  0  0
  186.2080  179.7050  141.0370 O   0  0  0  0  0  0  0  0  0  0  0  0
  185.1510  178.9760  140.2520 S   0  0  0  0  0  0  0  0  0  0  0  0
  185.8990  177.8740  139.1450 N   0  0  0  0  0  2  0  0  0  0  0  0
  185.5660  178.3080  137.7890 C   0  0  2  0  0  3  0  0  0  0  0  0
  184.7680  177.2440  137.0400 C   0  0  0  0  0  2  0  0  0  0  0  0
  185.4860  176.0500  137.0010 O   0  0  0  0  0  1  0  0  0  0  0  0
  186.7090  178.7400  137.0770 O   0  0  0  0  0  0  0  0  0  0  0  0
  187.8590  178.2250  137.6970 C   0  0  0  0  0  3  0  0  0  0  0  0
  188.7920  177.6710  136.6390 C   0  0  0  0  0  2  0  0  0  0  0  0
  189.0650  179.0260  137.2520 C   0  0  0  0  0  2  0  0  0  0  0  0
  187.8440  177.0220  144.5260 C   0  0  0  0  0  2  0  0  0  0  0  0
  188.9570  178.0720  144.4760 C   0  0  1  0  0  3  0  0  0  0  0  0
  189.6400  178.1230  145.6970 O   0  0  0  0  0  0  0  0  0  0  0  0
  189.3570  176.9840  146.2940 O   0  0  0  0  0  0  0  0  0  0  0  0
  189.9590  177.0790  147.5500 C   0  0  0  0  0  2  0  0  0  0  0  0
  187.8420  177.7790  148.6180 C   0  0  0  0  0  1  0  0  0  0  0  0
  189.2810  178.1680  148.3540 C   0  0  0  0  0  2  0  0  0  0  0  0
  189.9260  177.8020  143.3330 C   0  0  0  0  0  2  0  0  0  0  0  0
  189.4210  178.4290  142.0460 C   0  0  0  0  0  2  0  0  0  0  0  0
  189.0440  177.3500  141.0480 C   0  0  0  0  0  2  0  0  0  0  0  0
  190.2720  176.5620  140.6340 C   0  0  0  0  0  2  0  0  0  0  0  0
  191.9120  176.4740  138.4670 S   0  0  0  0  0  1  0  0  0  0  0  0
  191.1870  177.4460  139.8150 C   0  0  0  0  0  2  0  0  0  0  0  0
  1  4  1  0  0  0  0
  1  2  2  0  0  0  0
  3  7  2  0  0  0  0
  5  3  1  0  0  0  0
  5  6  2  0  0  0  0
  6  1  1  0  0  0  0
  7 20  1  0  0  0  0
  7  4  1  0  0  0  0
  8  5  1  0  0  0  0
  9 11  2  0  0  0  0
 11 10  2  0  0  0  0
 11  8  1  0  0  0  0
 12 11  1  0  0  0  0
 13 14  1  6  0  0  0
 13 12  1  0  0  0  0
 15 14  1  0  0  0  0
 16 17  1  0  0  0  0
 16 13  1  0  0  0  0
 18 19  1  0  0  0  0
 18 17  1  0  0  0  0
 19 17  1  0  0  0  0
 21 27  1  6  0  0  0
 21 20  1  0  0  0  0
 21 22  1  0  0  0  0
 22 23  1  0  0  0  0
 23 24  1  0  0  0  0
 24 26  1  0  0  0  0
 26 25  1  0  0  0  0
 28 27  1  0  0  0  0
 29 28  1  0  0  0  0
 30 29  1  0  0  0  0
 31 32  1  0  0  0  0
 32 30  1  0  0  0  0
M  END
>  <MODEL>
1

>  <REMARK>
 VINA RESULT:      -6.2      0.000      0.000
  Name = 
  18 active torsions:
  status: ('A' for Active; 'I' for Inactive)
    1  A    between atoms: C_1  and  O_30
    2  A    between atoms: N_2  and  C_5
    3  A    between atoms: N_2  and  S_27
    4  A    between atoms: C_5  and  C_14
    5  A    between atoms: C_5  and  O_30
    6  A    between atoms: C_6  and  C_17
    7  A    between atoms: C_6  and  C_31
    8  A    between atoms: C_7  and  C_26
    9  A    between atoms: C_7  and  C_31
   10  A    between atoms: O_9  and  C_31
   11  A    between atoms: O_9  and  O_32
   12  A    between atoms: C_12  and  C_28
   13  A    between atoms: C_12  and  O_32
   14  A    between atoms: C_16  and  C_20
   15  A    between atoms: C_16  and  S_27
   16  A    between atoms: C_17  and  C_29
   17  A    between atoms: C_18  and  C_25
   18  A    between atoms: C_18  and  C_29
                            x       y       z     vdW  Elec       q    Type
                         _______ _______ _______ _____ _____    ______ ____

>  <TORSDO>
F 18

$$$$
=
 OpenBabel11052414463D

 32 33  0  0  1  0  0  0  0  0999 V2000
  184.6970  178.9000  144.5830 C   0  0  0  0  0  0  0  0  0  0  0  0
  183.8480  179.2330  145.4500 O   0  0  0  0  0  0  0  0  0  0  0  0
  186.5040  178.0980  142.5870 C   0  0  0  0  0  3  0  0  0  0  0  0
  185.9350  178.1590  145.0060 C   0  0  0  0  0  2  0  0  0  0  0  0
  185.3140  178.9050  142.2750 C   0  0  0  0  0  0  0  0  0  0  0  0
  184.4840  179.2520  143.2110 N   0  0  0  0  0  0  0  0  0  0  0  0
  186.7800  177.7230  143.8390 C   0  0  0  0  0  0  0  0  0  0  0  0
  185.0250  179.2840  140.8630 C   0  0  0  0  0  2  0  0  0  0  0  0
  183.8480  177.9690  138.8270 O   0  0  0  0  0  0  0  0  0  0  0  0
  183.3730  177.1790  141.0950 O   0  0  0  0  0  0  0  0  0  0  0  0
  183.6020  178.4000  140.2460 S   0  0  0  0  0  0  0  0  0  0  0  0
  182.2030  179.4200  140.2970 N   0  0  0  0  0  2  0  0  0  0  0  0
  181.0420  178.5720  140.5620 C   0  0  2  0  0  3  0  0  0  0  0  0
  180.3250  178.1830  139.2710 C   0  0  0  0  0  2  0  0  0  0  0  0
  179.8370  176.8800  139.3740 O   0  0  0  0  0  1  0  0  0  0  0  0
  180.1750  179.1470  141.5190 O   0  0  0  0  0  0  0  0  0  0  0  0
  180.0050  178.2490  142.5850 C   0  0  0  0  0  3  0  0  0  0  0  0
  180.8770  178.6800  143.7470 C   0  0  0  0  0  2  0  0  0  0  0  0
  179.3950  178.9820  143.7620 C   0  0  0  0  0  2  0  0  0  0  0  0
  187.9970  176.8940  144.1080 C   0  0  0  0  0  2  0  0  0  0  0  0
  189.2860  177.7190  144.1550 C   0  0  1  0  0  3  0  0  0  0  0  0
  189.5900  178.0810  145.4740 O   0  0  0  0  0  0  0  0  0  0  0  0
  189.8970  176.9490  146.0750 O   0  0  0  0  0  0  0  0  0  0  0  0
  189.8030  177.2330  147.4390 C   0  0  0  0  0  2  0  0  0  0  0  0
  187.8270  178.3760  148.3870 C   0  0  0  0  0  1  0  0  0  0  0  0
  188.3700  177.0520  147.8940 C   0  0  0  0  0  2  0  0  0  0  0  0
  190.4510  176.9680  143.5260 C   0  0  0  0  0  2  0  0  0  0  0  0
  190.0070  176.2610  142.2580 C   0  0  0  0  0  2  0  0  0  0  0  0
  190.4650  177.0360  141.0360 C   0  0  0  0  0  2  0  0  0  0  0  0
  189.2850  177.3400  140.1330 C   0  0  0  0  0  2  0  0  0  0  0  0
  188.9940  178.6020  137.7420 S   0  0  0  0  0  1  0  0  0  0  0  0
  189.7160  177.2330  138.6860 C   0  0  0  0  0  2  0  0  0  0  0  0
  1  4  1  0  0  0  0
  1  2  2  0  0  0  0
  3  7  2  0  0  0  0
  5  3  1  0  0  0  0
  5  6  2  0  0  0  0
  6  1  1  0  0  0  0
  7 20  1  0  0  0  0
  7  4  1  0  0  0  0
  8  5  1  0  0  0  0
  9 11  2  0  0  0  0
 11 12  1  0  0  0  0
 11  8  1  0  0  0  0
 11 10  2  0  0  0  0
 12 13  1  0  0  0  0
 13 14  1  6  0  0  0
 13 16  1  0  0  0  0
 14 15  1  0  0  0  0
 16 17  1  0  0  0  0
 17 18  1  0  0  0  0
 17 19  1  0  0  0  0
 18 19  1  0  0  0  0
 20 21  1  0  0  0  0
 21 27  1  1  0  0  0
 21 22  1  0  0  0  0
 22 23  1  0  0  0  0
 23 24  1  0  0  0  0
 24 26  1  0  0  0  0
 26 25  1  0  0  0  0
 28 27  1  0  0  0  0
 29 28  1  0  0  0  0
 30 29  1  0  0  0  0
 31 32  1  0  0  0  0
 32 30  1  0  0  0  0
M  END
>  <MODEL>
2

>  <REMARK>
 VINA RESULT:      -6.0      2.534      4.210
  Name = 
  18 active torsions:
  status: ('A' for Active; 'I' for Inactive)
    1  A    between atoms: C_1  and  O_30
    2  A    between atoms: N_2  and  C_5
    3  A    between atoms: N_2  and  S_27
    4  A    between atoms: C_5  and  C_14
    5  A    between atoms: C_5  and  O_30
    6  A    between atoms: C_6  and  C_17
    7  A    between atoms: C_6  and  C_31
    8  A    between atoms: C_7  and  C_26
    9  A    between atoms: C_7  and  C_31
   10  A    between atoms: O_9  and  C_31
   11  A    between atoms: O_9  and  O_32
   12  A    between atoms: C_12  and  C_28
   13  A    between atoms: C_12  and  O_32
   14  A    between atoms: C_16  and  C_20
   15  A    between atoms: C_16  and  S_27
   16  A    between atoms: C_17  and  C_29
   17  A    between atoms: C_18  and  C_25
   18  A    between atoms: C_18  and  C_29
                            x       y       z     vdW  Elec       q    Type
                         _______ _______ _______ _____ _____    ______ ____

>  <TORSDO>
F 18

$$$$
=
 OpenBabel11052414463D

 32 33  0  0  1  0  0  0  0  0999 V2000
  186.5920  178.7650  141.0410 C   0  0  0  0  0  0  0  0  0  0  0  0
  185.6070  179.3760  140.5510 O   0  0  0  0  0  0  0  0  0  0  0  0
  188.7880  177.3240  142.0370 C   0  0  0  0  0  3  0  0  0  0  0  0
  186.5050  178.2200  142.4390 C   0  0  0  0  0  2  0  0  0  0  0  0
  188.8210  177.9700  140.7140 C   0  0  0  0  0  0  0  0  0  0  0  0
  187.7890  178.6180  140.2680 N   0  0  0  0  0  0  0  0  0  0  0  0
  187.7130  177.4080  142.8240 C   0  0  0  0  0  0  0  0  0  0  0  0
  190.0300  177.8330  139.8530 C   0  0  0  0  0  2  0  0  0  0  0  0
  190.3100  177.4060  137.2080 O   0  0  0  0  0  0  0  0  0  0  0  0
  190.2780  175.4380  138.6630 O   0  0  0  0  0  0  0  0  0  0  0  0
  189.6870  176.8030  138.4360 S   0  0  0  0  0  0  0  0  0  0  0  0
  187.9760  176.6690  138.2000 N   0  0  0  0  0  2  0  0  0  0  0  0
  187.7260  176.6290  136.7600 C   0  0  2  0  0  3  0  0  0  0  0  0
  186.8460  177.7930  136.3110 C   0  0  0  0  0  2  0  0  0  0  0  0
  187.0420  178.8890  137.1520 O   0  0  0  0  0  1  0  0  0  0  0  0
  187.2280  175.3730  136.3450 O   0  0  0  0  0  0  0  0  0  0  0  0
  187.9770  174.9220  135.2450 C   0  0  0  0  0  3  0  0  0  0  0  0
  189.0470  173.9640  135.7280 C   0  0  0  0  0  2  0  0  0  0  0  0
  187.7850  173.4270  135.0920 C   0  0  0  0  0  2  0  0  0  0  0  0
  187.7210  176.7280  144.1580 C   0  0  0  0  0  2  0  0  0  0  0  0
  187.1460  177.5990  145.2780 C   0  0  1  0  0  3  0  0  0  0  0  0
  185.8240  177.2290  145.5590 O   0  0  0  0  0  0  0  0  0  0  0  0
  185.3420  178.2160  146.2860 O   0  0  0  0  0  0  0  0  0  0  0  0
  184.8830  179.1520  145.3570 C   0  0  0  0  0  2  0  0  0  0  0  0
  183.1930  178.9560  143.5640 C   0  0  0  0  0  1  0  0  0  0  0  0
  183.4220  178.8930  145.0590 C   0  0  0  0  0  2  0  0  0  0  0  0
  188.0000  177.5220  146.5360 C   0  0  0  0  0  2  0  0  0  0  0  0
  189.4540  177.8120  146.2120 C   0  0  0  0  0  2  0  0  0  0  0  0
  190.3660  177.0190  147.1300 C   0  0  0  0  0  2  0  0  0  0  0  0
  191.5550  176.4810  146.3570 C   0  0  0  0  0  2  0  0  0  0  0  0
  191.6080  175.7530  143.7370 S   0  0  0  0  0  1  0  0  0  0  0  0
  191.5690  177.0830  144.9690 C   0  0  0  0  0  2  0  0  0  0  0  0
  1  4  1  0  0  0  0
  2  1  2  0  0  0  0
  3  7  2  0  0  0  0
  4  7  1  0  0  0  0
  5  3  1  0  0  0  0
  6  5  2  0  0  0  0
  6  1  1  0  0  0  0
  7 20  1  0  0  0  0
  8  5  1  0  0  0  0
  9 11  2  0  0  0  0
 11 10  2  0  0  0  0
 11  8  1  0  0  0  0
 12 11  1  0  0  0  0
 13 14  1  1  0  0  0
 13 12  1  0  0  0  0
 14 15  1  0  0  0  0
 16 13  1  0  0  0  0
 17 18  1  0  0  0  0
 17 16  1  0  0  0  0
 19 17  1  0  0  0  0
 19 18  1  0  0  0  0
 21 20  1  6  0  0  0
 21 22  1  0  0  0  0
 21 27  1  0  0  0  0
 22 23  1  0  0  0  0
 24 23  1  0  0  0  0
 25 26  1  0  0  0  0
 26 24  1  0  0  0  0
 28 27  1  0  0  0  0
 28 29  1  0  0  0  0
 30 29  1  0  0  0  0
 31 32  1  0  0  0  0
 32 30  1  0  0  0  0
M  END
>  <MODEL>
3

>  <REMARK>
 VINA RESULT:      -6.0      2.452      4.740
  Name = 
  18 active torsions:
  status: ('A' for Active; 'I' for Inactive)
    1  A    between atoms: C_1  and  O_30
    2  A    between atoms: N_2  and  C_5
    3  A    between atoms: N_2  and  S_27
    4  A    between atoms: C_5  and  C_14
    5  A    between atoms: C_5  and  O_30
    6  A    between atoms: C_6  and  C_17
    7  A    between atoms: C_6  and  C_31
    8  A    between atoms: C_7  and  C_26
    9  A    between atoms: C_7  and  C_31
   10  A    between atoms: O_9  and  C_31
   11  A    between atoms: O_9  and  O_32
   12  A    between atoms: C_12  and  C_28
   13  A    between atoms: C_12  and  O_32
   14  A    between atoms: C_16  and  C_20
   15  A    between atoms: C_16  and  S_27
   16  A    between atoms: C_17  and  C_29
   17  A    between atoms: C_18  and  C_25
   18  A    between atoms: C_18  and  C_29
                            x       y       z     vdW  Elec       q    Type
                         _______ _______ _______ _____ _____    ______ ____

>  <TORSDO>
F 18

$$$$
=
 OpenBabel11052414463D

 32 33  0  0  1  0  0  0  0  0999 V2000
  191.7720  177.2340  140.1370 C   0  0  0  0  0  0  0  0  0  0  0  0
  192.9890  177.1500  139.8250 O   0  0  0  0  0  0  0  0  0  0  0  0
  189.0430  177.5080  140.7450 C   0  0  0  0  0  3  0  0  0  0  0  0
  191.3940  177.5730  141.5520 C   0  0  0  0  0  2  0  0  0  0  0  0
  189.5020  177.0900  139.4100 C   0  0  0  0  0  0  0  0  0  0  0  0
  190.7680  176.9850  139.1470 N   0  0  0  0  0  0  0  0  0  0  0  0
  189.9100  177.7630  141.7280 C   0  0  0  0  0  0  0  0  0  0  0  0
  188.5050  176.8380  138.3300 C   0  0  0  0  0  2  0  0  0  0  0  0
  189.0040  179.4340  137.8070 O   0  0  0  0  0  0  0  0  0  0  0  0
  189.3840  177.8320  135.9950 O   0  0  0  0  0  0  0  0  0  0  0  0
  188.4900  178.1810  137.1540 S   0  0  0  0  0  0  0  0  0  0  0  0
  186.8760  178.4550  136.5870 N   0  0  0  0  0  2  0  0  0  0  0  0
  186.0270  177.3960  137.1300 C   0  0  2  0  0  3  0  0  0  0  0  0
  185.8160  176.2720  136.1180 C   0  0  0  0  0  2  0  0  0  0  0  0
  184.9010  175.3470  136.6200 O   0  0  0  0  0  1  0  0  0  0  0  0
  184.8130  177.9050  137.6470 O   0  0  0  0  0  0  0  0  0  0  0  0
  185.0230  178.3430  138.9650 C   0  0  0  0  0  3  0  0  0  0  0  0
  184.1090  179.5160  139.2540 C   0  0  0  0  0  2  0  0  0  0  0  0
  183.7530  178.1390  139.7660 C   0  0  0  0  0  2  0  0  0  0  0  0
  189.3990  178.1940  143.0680 C   0  0  0  0  0  2  0  0  0  0  0  0
  188.5790  177.1110  143.7730 C   0  0  1  0  0  3  0  0  0  0  0  0
  189.2410  176.6640  144.9240 O   0  0  0  0  0  0  0  0  0  0  0  0
  189.2340  177.6960  145.7430 O   0  0  0  0  0  0  0  0  0  0  0  0
  189.6720  177.1840  146.9660 C   0  0  0  0  0  2  0  0  0  0  0  0
  187.5170  178.1600  147.6830 C   0  0  0  0  0  1  0  0  0  0  0  0
  188.4900  177.0200  147.8970 C   0  0  0  0  0  2  0  0  0  0  0  0
  187.1820  177.6070  144.1200 C   0  0  0  0  0  2  0  0  0  0  0  0
  186.4220  177.9810  142.8610 C   0  0  0  0  0  2  0  0  0  0  0  0
  184.9680  178.2680  143.1910 C   0  0  0  0  0  2  0  0  0  0  0  0
  184.8000  178.4950  144.6820 C   0  0  0  0  0  2  0  0  0  0  0  0
  182.4230  178.9890  143.4570 S   0  0  0  0  0  1  0  0  0  0  0  0
  183.4440  179.1100  144.9500 C   0  0  0  0  0  2  0  0  0  0  0  0
  1  4  1  0  0  0  0
  2  1  2  0  0  0  0
  3  7  2  0  0  0  0
  4  7  1  0  0  0  0
  5  3  1  0  0  0  0
  6  5  2  0  0  0  0
  6  1  1  0  0  0  0
  7 20  1  0  0  0  0
  8  5  1  0  0  0  0
 10 11  2  0  0  0  0
 11  9  2  0  0  0  0
 11  8  1  0  0  0  0
 12 13  1  0  0  0  0
 12 11  1  0  0  0  0
 13 14  1  6  0  0  0
 13 16  1  0  0  0  0
 14 15  1  0  0  0  0
 16 17  1  0  0  0  0
 17 18  1  0  0  0  0
 17 19  1  0  0  0  0
 18 19  1  0  0  0  0
 21 20  1  1  0  0  0
 21 27  1  0  0  0  0
 21 22  1  0  0  0  0
 22 23  1  0  0  0  0
 23 24  1  0  0  0  0
 24 26  1  0  0  0  0
 25 26  1  0  0  0  0
 28 29  1  0  0  0  0
 28 27  1  0  0  0  0
 29 30  1  0  0  0  0
 30 32  1  0  0  0  0
 31 32  1  0  0  0  0
M  END
>  <MODEL>
4

>  <REMARK>
 VINA RESULT:      -5.9      2.493      5.374
  Name = 
  18 active torsions:
  status: ('A' for Active; 'I' for Inactive)
    1  A    between atoms: C_1  and  O_30
    2  A    between atoms: N_2  and  C_5
    3  A    between atoms: N_2  and  S_27
    4  A    between atoms: C_5  and  C_14
    5  A    between atoms: C_5  and  O_30
    6  A    between atoms: C_6  and  C_17
    7  A    between atoms: C_6  and  C_31
    8  A    between atoms: C_7  and  C_26
    9  A    between atoms: C_7  and  C_31
   10  A    between atoms: O_9  and  C_31
   11  A    between atoms: O_9  and  O_32
   12  A    between atoms: C_12  and  C_28
   13  A    between atoms: C_12  and  O_32
   14  A    between atoms: C_16  and  C_20
   15  A    between atoms: C_16  and  S_27
   16  A    between atoms: C_17  and  C_29
   17  A    between atoms: C_18  and  C_25
   18  A    between atoms: C_18  and  C_29
                            x       y       z     vdW  Elec       q    Type
                         _______ _______ _______ _____ _____    ______ ____

>  <TORSDO>
F 18

$$$$
=
 OpenBabel11052414463D

 32 33  0  0  1  0  0  0  0  0999 V2000
  189.7400  176.0920  142.4540 C   0  0  0  0  0  0  0  0  0  0  0  0
  190.6450  175.2980  142.8230 O   0  0  0  0  0  0  0  0  0  0  0  0
  187.8030  177.9570  141.6410 C   0  0  0  0  0  3  0  0  0  0  0  0
  188.4510  176.1520  143.2240 C   0  0  0  0  0  2  0  0  0  0  0  0
  189.0560  177.7650  140.8930 C   0  0  0  0  0  0  0  0  0  0  0  0
  189.9440  176.9080  141.2960 N   0  0  0  0  0  0  0  0  0  0  0  0
  187.5310  177.2400  142.7350 C   0  0  0  0  0  0  0  0  0  0  0  0
  189.3360  178.6010  139.6920 C   0  0  0  0  0  2  0  0  0  0  0  0
  190.1070  177.5300  137.3420 O   0  0  0  0  0  0  0  0  0  0  0  0
  188.3120  176.3920  138.5580 O   0  0  0  0  0  0  0  0  0  0  0  0
  188.8870  177.7350  138.1960 S   0  0  0  0  0  0  0  0  0  0  0  0
  187.7170  178.6530  137.3080 N   0  0  0  0  0  2  0  0  0  0  0  0
  186.3990  178.0840  137.5850 C   0  0  2  0  0  3  0  0  0  0  0  0
  185.7830  177.4620  136.3340 C   0  0  0  0  0  2  0  0  0  0  0  0
  186.7890  176.9690  135.5040 O   0  0  0  0  0  1  0  0  0  0  0  0
  185.5420  179.0160  138.2130 O   0  0  0  0  0  0  0  0  0  0  0  0
  184.6260  178.3250  139.0240 C   0  0  0  0  0  3  0  0  0  0  0  0
  184.6140  178.9460  140.4060 C   0  0  0  0  0  2  0  0  0  0  0  0
  183.5080  179.2660  139.4250 C   0  0  0  0  0  2  0  0  0  0  0  0
  186.2480  177.4750  143.4700 C   0  0  0  0  0  2  0  0  0  0  0  0
  186.4110  178.3940  144.6830 C   0  0  1  0  0  3  0  0  0  0  0  0
  185.3030  179.2410  144.8100 O   0  0  0  0  0  0  0  0  0  0  0  0
  184.4680  178.5940  145.5980 O   0  0  0  0  0  0  0  0  0  0  0  0
  183.1990  179.0100  145.1930 C   0  0  0  0  0  2  0  0  0  0  0  0
  181.8420  178.9560  143.1270 C   0  0  0  0  0  1  0  0  0  0  0  0
  183.2070  179.2720  143.7010 C   0  0  0  0  0  2  0  0  0  0  0  0
  186.6220  177.5960  145.9620 C   0  0  0  0  0  2  0  0  0  0  0  0
  187.7790  178.1680  146.7620 C   0  0  0  0  0  2  0  0  0  0  0  0
  188.4030  177.0890  147.6280 C   0  0  0  0  0  2  0  0  0  0  0  0
  189.8630  177.4040  147.8930 C   0  0  0  0  0  2  0  0  0  0  0  0
  191.4820  177.0280  145.7400 S   0  0  0  0  0  1  0  0  0  0  0  0
  190.7330  176.3490  147.2450 C   0  0  0  0  0  2  0  0  0  0  0  0
  1  2  2  0  0  0  0
  1  4  1  0  0  0  0
  3  7  2  0  0  0  0
  5  6  2  0  0  0  0
  5  3  1  0  0  0  0
  6  1  1  0  0  0  0
  7  4  1  0  0  0  0
  7 20  1  0  0  0  0
  8  5  1  0  0  0  0
  9 11  2  0  0  0  0
 11 10  2  0  0  0  0
 11  8  1  0  0  0  0
 12 13  1  0  0  0  0
 12 11  1  0  0  0  0
 13 14  1  6  0  0  0
 13 16  1  0  0  0  0
 15 14  1  0  0  0  0
 16 17  1  0  0  0  0
 17 19  1  0  0  0  0
 17 18  1  0  0  0  0
 19 18  1  0  0  0  0
 21 20  1  6  0  0  0
 21 22  1  0  0  0  0
 21 27  1  0  0  0  0
 22 23  1  0  0  0  0
 24 23  1  0  0  0  0
 25 26  1  0  0  0  0
 26 24  1  0  0  0  0
 27 28  1  0  0  0  0
 28 29  1  0  0  0  0
 29 30  1  0  0  0  0
 31 32  1  0  0  0  0
 32 30  1  0  0  0  0
M  END
>  <MODEL>
5

>  <REMARK>
 VINA RESULT:      -5.9      2.479      5.349
  Name = 
  18 active torsions:
  status: ('A' for Active; 'I' for Inactive)
    1  A    between atoms: C_1  and  O_30
    2  A    between atoms: N_2  and  C_5
    3  A    between atoms: N_2  and  S_27
    4  A    between atoms: C_5  and  C_14
    5  A    between atoms: C_5  and  O_30
    6  A    between atoms: C_6  and  C_17
    7  A    between atoms: C_6  and  C_31
    8  A    between atoms: C_7  and  C_26
    9  A    between atoms: C_7  and  C_31
   10  A    between atoms: O_9  and  C_31
   11  A    between atoms: O_9  and  O_32
   12  A    between atoms: C_12  and  C_28
   13  A    between atoms: C_12  and  O_32
   14  A    between atoms: C_16  and  C_20
   15  A    between atoms: C_16  and  S_27
   16  A    between atoms: C_17  and  C_29
   17  A    between atoms: C_18  and  C_25
   18  A    between atoms: C_18  and  C_29
                            x       y       z     vdW  Elec       q    Type
                         _______ _______ _______ _____ _____    ______ ____

>  <TORSDO>
F 18

$$$$
=
 OpenBabel11052414463D

 32 33  0  0  1  0  0  0  0  0999 V2000
  189.6220  176.0930  142.5820 C   0  0  0  0  0  0  0  0  0  0  0  0
  190.5690  175.3020  142.8300 O   0  0  0  0  0  0  0  0  0  0  0  0
  187.5870  177.9510  142.0360 C   0  0  0  0  0  3  0  0  0  0  0  0
  188.3980  176.0770  143.4550 C   0  0  0  0  0  2  0  0  0  0  0  0
  188.7790  177.8340  141.1810 C   0  0  0  0  0  0  0  0  0  0  0  0
  189.7140  176.9780  141.4610 N   0  0  0  0  0  0  0  0  0  0  0  0
  187.4190  177.1680  143.1050 C   0  0  0  0  0  0  0  0  0  0  0  0
  188.9430  178.7430  140.0110 C   0  0  0  0  0  2  0  0  0  0  0  0
  186.4940  178.5110  138.9120 O   0  0  0  0  0  0  0  0  0  0  0  0
  188.3680  178.9280  137.3940 O   0  0  0  0  0  0  0  0  0  0  0  0
  187.9390  178.1990  138.6380 S   0  0  0  0  0  0  0  0  0  0  0  0
  188.1200  176.4920  138.4110 N   0  0  0  0  0  2  0  0  0  0  0  0
  189.2860  176.2760  137.5560 C   0  0  2  0  0  3  0  0  0  0  0  0
  188.9870  175.2760  136.4420 C   0  0  0  0  0  2  0  0  0  0  0  0
  189.3840  173.9970  136.8330 O   0  0  0  0  0  1  0  0  0  0  0  0
  190.4360  175.9370  138.3050 O   0  0  0  0  0  0  0  0  0  0  0  0
  191.5580  176.5590  137.7320 C   0  0  0  0  0  3  0  0  0  0  0  0
  192.6030  176.7900  138.8040 C   0  0  0  0  0  2  0  0  0  0  0  0
  192.7510  175.6320  137.8440 C   0  0  0  0  0  2  0  0  0  0  0  0
  186.1960  177.3280  143.9520 C   0  0  0  0  0  2  0  0  0  0  0  0
  185.9590  178.7750  144.3940 C   0  0  1  0  0  3  0  0  0  0  0  0
  184.7580  179.2610  143.8610 O   0  0  0  0  0  0  0  0  0  0  0  0
  183.8930  179.1910  144.8520 O   0  0  0  0  0  0  0  0  0  0  0  0
  182.6700  178.9110  144.2380 C   0  0  0  0  0  2  0  0  0  0  0  0
  181.4940  178.7770  142.0680 C   0  0  0  0  0  1  0  0  0  0  0  0
  182.8450  178.9270  142.7340 C   0  0  0  0  0  2  0  0  0  0  0  0
  185.9590  178.9000  145.9110 C   0  0  0  0  0  2  0  0  0  0  0  0
  186.6780  177.7230  146.5440 C   0  0  0  0  0  2  0  0  0  0  0  0
  187.4420  178.1730  147.7750 C   0  0  0  0  0  2  0  0  0  0  0  0
  188.6860  177.3250  147.9640 C   0  0  0  0  0  2  0  0  0  0  0  0
  191.1540  176.6800  147.0230 S   0  0  0  0  0  1  0  0  0  0  0  0
  189.4920  177.3180  146.6830 C   0  0  0  0  0  2  0  0  0  0  0  0
  1  2  2  0  0  0  0
  1  4  1  0  0  0  0
  3  7  2  0  0  0  0
  5  6  2  0  0  0  0
  5  3  1  0  0  0  0
  6  1  1  0  0  0  0
  7  4  1  0  0  0  0
  7 20  1  0  0  0  0
  8  5  1  0  0  0  0
 10 11  2  0  0  0  0
 11  9  2  0  0  0  0
 11  8  1  0  0  0  0
 12 11  1  0  0  0  0
 13 14  1  6  0  0  0
 13 16  1  0  0  0  0
 13 12  1  0  0  0  0
 14 15  1  0  0  0  0
 17 19  1  0  0  0  0
 17 16  1  0  0  0  0
 17 18  1  0  0  0  0
 19 18  1  0  0  0  0
 21 20  1  1  0  0  0
 21 27  1  0  0  0  0
 22 21  1  0  0  0  0
 22 23  1  0  0  0  0
 24 23  1  0  0  0  0
 25 26  1  0  0  0  0
 26 24  1  0  0  0  0
 27 28  1  0  0  0  0
 28 29  1  0  0  0  0
 29 30  1  0  0  0  0
 32 31  1  0  0  0  0
 32 30  1  0  0  0  0
M  END
>  <MODEL>
6

>  <REMARK>
 VINA RESULT:      -5.8      2.799      5.577
  Name = 
  18 active torsions:
  status: ('A' for Active; 'I' for Inactive)
    1  A    between atoms: C_1  and  O_30
    2  A    between atoms: N_2  and  C_5
    3  A    between atoms: N_2  and  S_27
    4  A    between atoms: C_5  and  C_14
    5  A    between atoms: C_5  and  O_30
    6  A    between atoms: C_6  and  C_17
    7  A    between atoms: C_6  and  C_31
    8  A    between atoms: C_7  and  C_26
    9  A    between atoms: C_7  and  C_31
   10  A    between atoms: O_9  and  C_31
   11  A    between atoms: O_9  and  O_32
   12  A    between atoms: C_12  and  C_28
   13  A    between atoms: C_12  and  O_32
   14  A    between atoms: C_16  and  C_20
   15  A    between atoms: C_16  and  S_27
   16  A    between atoms: C_17  and  C_29
   17  A    between atoms: C_18  and  C_25
   18  A    between atoms: C_18  and  C_29
                            x       y       z     vdW  Elec       q    Type
                         _______ _______ _______ _____ _____    ______ ____

>  <TORSDO>
F 18

$$$$
=
 OpenBabel11052414463D

 32 33  0  0  1  0  0  0  0  0999 V2000
  186.0170  178.9670  141.1870 C   0  0  0  0  0  0  0  0  0  0  0  0
  185.0020  179.5990  140.7950 O   0  0  0  0  0  0  0  0  0  0  0  0
  188.2760  177.4870  141.9610 C   0  0  0  0  0  3  0  0  0  0  0  0
  186.0080  178.3210  142.5440 C   0  0  0  0  0  2  0  0  0  0  0  0
  188.2330  178.2270  140.6890 C   0  0  0  0  0  0  0  0  0  0  0  0
  187.1730  178.8920  140.3450 N   0  0  0  0  0  0  0  0  0  0  0  0
  187.2420  177.4990  142.8070 C   0  0  0  0  0  0  0  0  0  0  0  0
  189.3960  178.1690  139.7590 C   0  0  0  0  0  2  0  0  0  0  0  0
  187.4060  177.9250  137.9590 O   0  0  0  0  0  0  0  0  0  0  0  0
  189.0350  179.7160  137.5930 O   0  0  0  0  0  0  0  0  0  0  0  0
  188.8590  178.2960  138.0610 S   0  0  0  0  0  0  0  0  0  0  0  0
  189.7910  177.2300  137.0630 N   0  0  0  0  0  2  0  0  0  0  0  0
  189.7600  175.9040  137.6760 C   0  0  2  0  0  3  0  0  0  0  0  0
  191.1550  175.2880  137.7500 C   0  0  0  0  0  2  0  0  0  0  0  0
  192.0960  176.1770  137.2300 O   0  0  0  0  0  1  0  0  0  0  0  0
  188.8170  175.0540  137.0540 O   0  0  0  0  0  0  0  0  0  0  0  0
  189.4420  173.8420  136.7180 C   0  0  0  0  0  3  0  0  0  0  0  0
  188.4410  172.7110  136.8470 C   0  0  0  0  0  2  0  0  0  0  0  0
  188.7800  173.2660  135.4830 C   0  0  0  0  0  2  0  0  0  0  0  0
  187.3260  176.7240  144.0850 C   0  0  0  0  0  2  0  0  0  0  0  0
  187.5660  177.6120  145.3090 C   0  0  1  0  0  3  0  0  0  0  0  0
  186.4460  177.6000  146.1510 O   0  0  0  0  0  0  0  0  0  0  0  0
  185.9420  178.8140  146.0630 O   0  0  0  0  0  0  0  0  0  0  0  0
  184.5600  178.6250  146.0150 C   0  0  0  0  0  2  0  0  0  0  0  0
  182.7670  178.6480  144.3130 C   0  0  0  0  0  1  0  0  0  0  0  0
  183.9880  179.3770  144.8320 C   0  0  0  0  0  2  0  0  0  0  0  0
  188.8110  177.1830  146.0730 C   0  0  0  0  0  2  0  0  0  0  0  0
  189.8760  178.2630  146.0030 C   0  0  0  0  0  2  0  0  0  0  0  0
  190.9460  177.8820  144.9960 C   0  0  0  0  0  2  0  0  0  0  0  0
  191.1870  176.3840  145.0230 C   0  0  0  0  0  2  0  0  0  0  0  0
  191.6910  177.2620  142.4990 S   0  0  0  0  0  1  0  0  0  0  0  0
  191.3410  175.8710  143.6080 C   0  0  0  0  0  2  0  0  0  0  0  0
  1  4  1  0  0  0  0
  2  1  2  0  0  0  0
  3  7  2  0  0  0  0
  4  7  1  0  0  0  0
  5  3  1  0  0  0  0
  6  5  2  0  0  0  0
  6  1  1  0  0  0  0
  7 20  1  0  0  0  0
  8  5  1  0  0  0  0
  9 11  2  0  0  0  0
 10 11  2  0  0  0  0
 11  8  1  0  0  0  0
 12 13  1  0  0  0  0
 12 11  1  0  0  0  0
 13 14  1  6  0  0  0
 15 14  1  0  0  0  0
 16 13  1  0  0  0  0
 17 18  1  0  0  0  0
 17 16  1  0  0  0  0
 19 17  1  0  0  0  0
 19 18  1  0  0  0  0
 21 20  1  6  0  0  0
 21 27  1  0  0  0  0
 21 22  1  0  0  0  0
 23 22  1  0  0  0  0
 24 23  1  0  0  0  0
 25 26  1  0  0  0  0
 26 24  1  0  0  0  0
 28 27  1  0  0  0  0
 29 30  1  0  0  0  0
 29 28  1  0  0  0  0
 31 32  1  0  0  0  0
 32 30  1  0  0  0  0
M  END
>  <MODEL>
7

>  <REMARK>
 VINA RESULT:      -5.7      2.750      4.583
  Name = 
  18 active torsions:
  status: ('A' for Active; 'I' for Inactive)
    1  A    between atoms: C_1  and  O_30
    2  A    between atoms: N_2  and  C_5
    3  A    between atoms: N_2  and  S_27
    4  A    between atoms: C_5  and  C_14
    5  A    between atoms: C_5  and  O_30
    6  A    between atoms: C_6  and  C_17
    7  A    between atoms: C_6  and  C_31
    8  A    between atoms: C_7  and  C_26
    9  A    between atoms: C_7  and  C_31
   10  A    between atoms: O_9  and  C_31
   11  A    between atoms: O_9  and  O_32
   12  A    between atoms: C_12  and  C_28
   13  A    between atoms: C_12  and  O_32
   14  A    between atoms: C_16  and  C_20
   15  A    between atoms: C_16  and  S_27
   16  A    between atoms: C_17  and  C_29
   17  A    between atoms: C_18  and  C_25
   18  A    between atoms: C_18  and  C_29
                            x       y       z     vdW  Elec       q    Type
                         _______ _______ _______ _____ _____    ______ ____

>  <TORSDO>
F 18

$$$$
=
 OpenBabel11052414463D

 32 33  0  0  1  0  0  0  0  0999 V2000
  185.8890  178.8550  141.1570 C   0  0  0  0  0  0  0  0  0  0  0  0
  184.8070  179.4170  140.8440 O   0  0  0  0  0  0  0  0  0  0  0  0
  188.2920  177.5300  141.7560 C   0  0  0  0  0  3  0  0  0  0  0  0
  186.0220  178.2070  142.5070 C   0  0  0  0  0  2  0  0  0  0  0  0
  188.1070  178.2680  140.4960 C   0  0  0  0  0  0  0  0  0  0  0  0
  186.9830  178.8600  140.2340 N   0  0  0  0  0  0  0  0  0  0  0  0
  187.3240  177.4700  142.6740 C   0  0  0  0  0  0  0  0  0  0  0  0
  189.2020  178.2910  139.4840 C   0  0  0  0  0  2  0  0  0  0  0  0
  189.7890  177.5610  136.9570 O   0  0  0  0  0  0  0  0  0  0  0  0
  188.1210  176.2250  138.1510 O   0  0  0  0  0  0  0  0  0  0  0  0
  188.6420  177.6180  137.9270 S   0  0  0  0  0  0  0  0  0  0  0  0
  187.3880  178.6150  137.2680 N   0  0  0  0  0  2  0  0  0  0  0  0
  186.4690  177.7480  136.5320 C   0  0  2  0  0  3  0  0  0  0  0  0
  186.6660  177.8750  135.0230 C   0  0  0  0  0  2  0  0  0  0  0  0
  187.7120  177.0520  134.6090 O   0  0  0  0  0  1  0  0  0  0  0  0
  185.1270  177.9420  136.9290 O   0  0  0  0  0  0  0  0  0  0  0  0
  184.6650  176.7810  137.5710 C   0  0  0  0  0  3  0  0  0  0  0  0
  183.6350  177.1620  138.6140 C   0  0  0  0  0  2  0  0  0  0  0  0
  183.1880  176.6060  137.2810 C   0  0  0  0  0  2  0  0  0  0  0  0
  187.5530  176.7000  143.9370 C   0  0  0  0  0  2  0  0  0  0  0  0
  187.6370  177.5940  145.1770 C   0  0  1  0  0  3  0  0  0  0  0  0
  186.4550  177.5100  145.9250 O   0  0  0  0  0  0  0  0  0  0  0  0
  185.9910  178.7420  145.9660 O   0  0  0  0  0  0  0  0  0  0  0  0
  184.6030  178.6030  145.9070 C   0  0  0  0  0  2  0  0  0  0  0  0
  182.7040  178.8620  144.3460 C   0  0  0  0  0  1  0  0  0  0  0  0
  184.0650  179.3980  144.7360 C   0  0  0  0  0  2  0  0  0  0  0  0
  188.8400  177.2380  146.0400 C   0  0  0  0  0  2  0  0  0  0  0  0
  190.0850  177.9440  145.5350 C   0  0  0  0  0  2  0  0  0  0  0  0
  191.2010  176.9410  145.3030 C   0  0  0  0  0  2  0  0  0  0  0  0
  191.3040  176.5990  143.8280 C   0  0  0  0  0  2  0  0  0  0  0  0
  192.0660  177.4730  141.3690 S   0  0  0  0  0  1  0  0  0  0  0  0
  191.4420  177.8730  143.0230 C   0  0  0  0  0  2  0  0  0  0  0  0
  1  4  1  0  0  0  0
  2  1  2  0  0  0  0
  3  7  2  0  0  0  0
  4  7  1  0  0  0  0
  5  3  1  0  0  0  0
  6  5  2  0  0  0  0
  6  1  1  0  0  0  0
  7 20  1  0  0  0  0
  8  5  1  0  0  0  0
  9 11  2  0  0  0  0
 11 10  2  0  0  0  0
 11  8  1  0  0  0  0
 12 11  1  0  0  0  0
 13 14  1  6  0  0  0
 13 16  1  0  0  0  0
 13 12  1  0  0  0  0
 15 14  1  0  0  0  0
 16 17  1  0  0  0  0
 17 18  1  0  0  0  0
 19 17  1  0  0  0  0
 19 18  1  0  0  0  0
 21 20  1  6  0  0  0
 21 22  1  0  0  0  0
 21 27  1  0  0  0  0
 22 23  1  0  0  0  0
 24 23  1  0  0  0  0
 25 26  1  0  0  0  0
 26 24  1  0  0  0  0
 28 27  1  0  0  0  0
 29 28  1  0  0  0  0
 30 29  1  0  0  0  0
 31 32  1  0  0  0  0
 32 30  1  0  0  0  0
M  END
>  <MODEL>
8

>  <REMARK>
 VINA RESULT:      -5.7      2.208      4.181
  Name = 
  18 active torsions:
  status: ('A' for Active; 'I' for Inactive)
    1  A    between atoms: C_1  and  O_30
    2  A    between atoms: N_2  and  C_5
    3  A    between atoms: N_2  and  S_27
    4  A    between atoms: C_5  and  C_14
    5  A    between atoms: C_5  and  O_30
    6  A    between atoms: C_6  and  C_17
    7  A    between atoms: C_6  and  C_31
    8  A    between atoms: C_7  and  C_26
    9  A    between atoms: C_7  and  C_31
   10  A    between atoms: O_9  and  C_31
   11  A    between atoms: O_9  and  O_32
   12  A    between atoms: C_12  and  C_28
   13  A    between atoms: C_12  and  O_32
   14  A    between atoms: C_16  and  C_20
   15  A    between atoms: C_16  and  S_27
   16  A    between atoms: C_17  and  C_29
   17  A    between atoms: C_18  and  C_25
   18  A    between atoms: C_18  and  C_29
                            x       y       z     vdW  Elec       q    Type
                         _______ _______ _______ _____ _____    ______ ____

>  <TORSDO>
F 18

$$$$
=
 OpenBabel11052414463D

 32 33  0  0  1  0  0  0  0  0999 V2000
  188.8620  177.5200  140.0520 C   0  0  0  0  0  0  0  0  0  0  0  0
  189.4520  177.3030  138.9610 O   0  0  0  0  0  0  0  0  0  0  0  0
  187.5330  177.8800  142.5010 C   0  0  0  0  0  3  0  0  0  0  0  0
  187.6600  178.4210  140.0780 C   0  0  0  0  0  2  0  0  0  0  0  0
  188.7700  177.0880  142.4000 C   0  0  0  0  0  0  0  0  0  0  0  0
  189.3590  176.9230  141.2550 N   0  0  0  0  0  0  0  0  0  0  0  0
  186.9970  178.4710  141.4290 C   0  0  0  0  0  0  0  0  0  0  0  0
  189.3240  176.4230  143.6130 C   0  0  0  0  0  2  0  0  0  0  0  0
  191.7670  177.3210  142.9160 O   0  0  0  0  0  0  0  0  0  0  0  0
  190.5780  178.5530  144.6660 O   0  0  0  0  0  0  0  0  0  0  0  0
  190.8610  177.1840  144.1080 S   0  0  0  0  0  0  0  0  0  0  0  0
  191.6440  176.2120  145.3090 N   0  0  0  0  0  2  0  0  0  0  0  0
  191.2990  176.7590  146.6210 C   0  0  2  0  0  3  0  0  0  0  0  0
  192.0570  176.0500  147.7410 C   0  0  0  0  0  2  0  0  0  0  0  0
  193.0680  175.2550  147.2010 O   0  0  0  0  0  1  0  0  0  0  0  0
  189.9010  176.7820  146.8330 O   0  0  0  0  0  0  0  0  0  0  0  0
  189.6270  177.4960  148.0110 C   0  0  0  0  0  3  0  0  0  0  0  0
  188.5820  178.5540  147.7230 C   0  0  0  0  0  2  0  0  0  0  0  0
  188.1820  177.2670  148.4070 C   0  0  0  0  0  2  0  0  0  0  0  0
  185.7330  179.2580  141.5770 C   0  0  0  0  0  2  0  0  0  0  0  0
  184.4830  178.3770  141.6520 C   0  0  1  0  0  3  0  0  0  0  0  0
  183.5960  178.8660  142.6200 O   0  0  0  0  0  0  0  0  0  0  0  0
  183.9360  178.2530  143.7350 O   0  0  0  0  0  0  0  0  0  0  0  0
  183.8320  179.2300  144.7260 C   0  0  0  0  0  2  0  0  0  0  0  0
  185.0830  178.2540  146.6230 C   0  0  0  0  0  1  0  0  0  0  0  0
  185.1230  179.2870  145.5170 C   0  0  0  0  0  2  0  0  0  0  0  0
  183.7930  178.2720  140.3000 C   0  0  0  0  0  2  0  0  0  0  0  0
  182.3350  177.8860  140.4750 C   0  0  0  0  0  2  0  0  0  0  0  0
  182.0570  176.5590  139.7920 C   0  0  0  0  0  2  0  0  0  0  0  0
  181.4960  176.7890  138.4010 C   0  0  0  0  0  2  0  0  0  0  0  0
  183.7260  176.7490  136.8450 S   0  0  0  0  0  1  0  0  0  0  0  0
  182.2240  175.9060  137.4100 C   0  0  0  0  0  2  0  0  0  0  0  0
  1  4  1  0  0  0  0
  1  6  1  0  0  0  0
  2  1  2  0  0  0  0
  4  7  1  0  0  0  0
  5  3  1  0  0  0  0
  5  8  1  0  0  0  0
  6  5  2  0  0  0  0
  7 20  1  0  0  0  0
  7  3  2  0  0  0  0
  8 11  1  0  0  0  0
  9 11  2  0  0  0  0
 11 10  2  0  0  0  0
 11 12  1  0  0  0  0
 12 13  1  0  0  0  0
 13 16  1  0  0  0  0
 13 14  1  1  0  0  0
 15 14  1  0  0  0  0
 16 17  1  0  0  0  0
 17 19  1  0  0  0  0
 18 17  1  0  0  0  0
 18 19  1  0  0  0  0
 20 21  1  0  0  0  0
 21 27  1  6  0  0  0
 21 22  1  0  0  0  0
 22 23  1  0  0  0  0
 23 24  1  0  0  0  0
 24 26  1  0  0  0  0
 26 25  1  0  0  0  0
 27 28  1  0  0  0  0
 29 28  1  0  0  0  0
 30 29  1  0  0  0  0
 31 32  1  0  0  0  0
 32 30  1  0  0  0  0
M  END
>  <MODEL>
9

>  <REMARK>
 VINA RESULT:      -5.6      2.905      7.961
  Name = 
  18 active torsions:
  status: ('A' for Active; 'I' for Inactive)
    1  A    between atoms: C_1  and  O_30
    2  A    between atoms: N_2  and  C_5
    3  A    between atoms: N_2  and  S_27
    4  A    between atoms: C_5  and  C_14
    5  A    between atoms: C_5  and  O_30
    6  A    between atoms: C_6  and  C_17
    7  A    between atoms: C_6  and  C_31
    8  A    between atoms: C_7  and  C_26
    9  A    between atoms: C_7  and  C_31
   10  A    between atoms: O_9  and  C_31
   11  A    between atoms: O_9  and  O_32
   12  A    between atoms: C_12  and  C_28
   13  A    between atoms: C_12  and  O_32
   14  A    between atoms: C_16  and  C_20
   15  A    between atoms: C_16  and  S_27
   16  A    between atoms: C_17  and  C_29
   17  A    between atoms: C_18  and  C_25
   18  A    between atoms: C_18  and  C_29
                            x       y       z     vdW  Elec       q    Type
                         _______ _______ _______ _____ _____    ______ ____

>  <TORSDO>
F 18

$$$$
