=
 OpenBabel11052414113D

 34 38  0  0  1  0  0  0  0  0999 V2000
  189.8020  177.2680  137.3040 C   0  0  2  0  0  3  0  0  0  0  0  0
  187.7690  175.9660  137.0550 C   0  0  0  0  0  2  0  0  0  0  0  0
  188.0540  177.2100  139.0400 C   0  0  1  0  0  3  0  0  0  0  0  0
  186.7860  178.5520  140.7500 N   0  0  0  0  0  0  0  0  0  0  0  0
  189.1180  177.5280  134.8610 C   0  0  0  0  0  2  0  0  0  0  0  0
  188.1010  176.4240  134.5940 C   0  0  0  0  0  2  0  0  0  0  0  0
  186.1300  178.5440  138.4990 O   0  0  0  0  0  0  0  0  0  0  0  0
  188.3490  177.1930  137.5950 N   0  0  1  0  0  0  0  0  0  0  0  0
  190.1740  177.0250  135.8360 C   0  0  0  0  0  2  0  0  0  0  0  0
  189.2940  177.5040  139.9000 C   0  0  1  0  0  3  0  0  0  0  0  0
  190.6510  176.3740  138.2310 C   0  0  0  0  0  2  0  0  0  0  0  0
  187.0900  176.2770  135.7280 C   0  0  0  0  0  2  0  0  0  0  0  0
  187.7770  178.1940  141.7230 C   0  0  0  0  0  3  0  0  0  0  0  0
  188.9540  177.6460  141.3760 C   0  0  0  0  0  0  0  0  0  0  0  0
  186.9470  178.1590  139.3800 C   0  0  0  0  0  0  0  0  0  0  0  0
  190.2720  176.4460  139.6530 N   0  0  0  0  0  2  0  0  0  0  0  0
  191.6180  178.2390  144.0190 C   0  0  0  0  0  0  0  0  0  0  0  0
  191.8400  176.9410  144.4840 C   0  0  0  0  0  3  0  0  0  0  0  0
  189.9620  177.4030  142.4410 C   0  0  0  0  0  0  0  0  0  0  0  0
  191.1260  175.8720  143.9370 C   0  0  0  0  0  3  0  0  0  0  0  0
  190.6830  178.4680  143.0050 C   0  0  0  0  0  3  0  0  0  0  0  0
  190.1910  176.1030  142.9240 C   0  0  0  0  0  3  0  0  0  0  0  0
  192.3090  179.2760  144.5500 F   0  0  0  0  0  0  0  0  0  0  0  0
  185.6400  179.3440  141.1720 C   0  0  0  0  0  2  0  0  0  0  0  0
  184.8550  178.5890  142.2270 C   0  0  0  0  0  2  0  0  0  0  0  0
  185.3140  179.0200  143.6070 C   0  0  0  0  0  2  0  0  0  0  0  0
  185.2270  177.8550  144.5810 C   0  0  0  0  0  2  0  0  0  0  0  0
  184.8140  178.5660  147.3070 O   0  0  0  0  0  0  0  0  0  0  0  0
  186.2820  177.9440  145.5830 N   0  0  0  0  0  0  0  0  0  0  0  0
  185.9970  178.3420  146.9350 C   0  0  0  0  0  0  0  0  0  0  0  0
  188.2530  177.5580  147.5870 C   0  0  0  0  0  2  0  0  0  0  0  0
  188.5890  177.5220  146.1220 C   0  0  0  0  0  3  0  0  0  0  0  0
  187.6350  177.6630  145.1990 C   0  0  0  0  0  3  0  0  0  0  0  0
  187.1320  178.5530  147.8880 C   0  0  0  0  0  2  0  0  0  0  0  0
  1  9  1  6  0  0  0
  1  8  1  0  0  0  0
  1 11  1  0  0  0  0
  3 15  1  6  0  0  0
  3 10  1  0  0  0  0
  4 24  1  0  0  0  0
  4 13  1  0  0  0  0
  5  9  1  0  0  0  0
  6  5  1  0  0  0  0
  6 12  1  0  0  0  0
  7 15  2  0  0  0  0
  8  2  1  1  0  0  0
  8  3  1  0  0  0  0
 10 16  1  1  0  0  0
 10 14  1  0  0  0  0
 11 16  1  0  0  0  0
 12  2  1  0  0  0  0
 14 13  2  0  0  0  0
 14 19  1  0  0  0  0
 15  4  1  0  0  0  0
 17 18  1  0  0  0  0
 17 23  1  0  0  0  0
 19 22  2  0  0  0  0
 19 21  1  0  0  0  0
 20 18  2  0  0  0  0
 21 17  2  0  0  0  0
 22 20  1  0  0  0  0
 24 25  1  0  0  0  0
 25 26  1  0  0  0  0
 26 27  1  0  0  0  0
 27 29  1  0  0  0  0
 29 30  1  0  0  0  0
 30 28  2  0  0  0  0
 30 34  1  0  0  0  0
 31 34  1  0  0  0  0
 32 31  1  0  0  0  0
 33 29  1  0  0  0  0
 33 32  2  0  0  0  0
M  END
>  <MODEL>
1

>  <REMARK>
 VINA RESULT:      -9.0      0.000      0.000
  Name = 
  6 active torsions:
  status: ('A' for Active; 'I' for Inactive)
    1  A    between atoms: C_3  and  N_13
    2  A    between atoms: C_3  and  C_17
    3  A    between atoms: N_5  and  C_18
    4  A    between atoms: C_12  and  C_28
    5  A    between atoms: C_17  and  C_29
    6  A    between atoms: C_18  and  C_29
                            x       y       z     vdW  Elec       q    Type
                         _______ _______ _______ _____ _____    ______ ____

>  <TORSDO>
F 6

$$$$
=
 OpenBabel11052414113D

 34 38  0  0  1  0  0  0  0  0999 V2000
  181.4370  178.0430  140.3300 C   0  0  2  0  0  3  0  0  0  0  0  0
  182.0100  180.0270  139.0540 C   0  0  0  0  0  2  0  0  0  0  0  0
  183.7100  178.9930  140.3210 C   0  0  1  0  0  3  0  0  0  0  0  0
  186.1730  178.4740  140.3040 N   0  0  0  0  0  0  0  0  0  0  0  0
  180.1740  177.8270  138.1250 C   0  0  0  0  0  2  0  0  0  0  0  0
  180.1970  179.2160  137.4940 C   0  0  0  0  0  2  0  0  0  0  0  0
  184.9370  178.5100  138.3120 O   0  0  0  0  0  0  0  0  0  0  0  0
  182.4870  178.7340  139.5410 N   0  0  1  0  0  0  0  0  0  0  0  0
  180.0700  177.9560  139.6390 C   0  0  0  0  0  2  0  0  0  0  0  0
  183.6960  178.3100  141.7000 C   0  0  1  0  0  3  0  0  0  0  0  0
  181.2840  178.6040  141.7580 C   0  0  0  0  0  2  0  0  0  0  0  0
  181.5660  179.8810  137.6060 C   0  0  0  0  0  2  0  0  0  0  0  0
  186.1590  178.4960  141.7380 C   0  0  0  0  0  3  0  0  0  0  0  0
  185.0140  178.4760  142.4420 C   0  0  0  0  0  0  0  0  0  0  0  0
  184.9500  178.6190  139.5690 C   0  0  0  0  0  0  0  0  0  0  0  0
  182.5620  178.8440  142.4520 N   0  0  0  0  0  2  0  0  0  0  0  0
  186.2810  177.7380  145.9460 C   0  0  0  0  0  0  0  0  0  0  0  0
  185.2650  178.2890  146.7300 C   0  0  0  0  0  3  0  0  0  0  0  0
  185.0960  178.3980  143.9240 C   0  0  0  0  0  0  0  0  0  0  0  0
  184.1650  178.8970  146.1190 C   0  0  0  0  0  3  0  0  0  0  0  0
  186.1980  177.7960  144.5510 C   0  0  0  0  0  3  0  0  0  0  0  0
  184.0830  178.9540  144.7250 C   0  0  0  0  0  3  0  0  0  0  0  0
  187.3480  177.1500  146.5370 F   0  0  0  0  0  0  0  0  0  0  0  0
  187.4400  178.2680  139.6170 C   0  0  0  0  0  2  0  0  0  0  0  0
  188.5890  178.4790  140.5840 C   0  0  0  0  0  2  0  0  0  0  0  0
  189.8460  177.8400  140.0270 C   0  0  0  0  0  2  0  0  0  0  0  0
  190.2200  176.6110  140.8410 C   0  0  0  0  0  2  0  0  0  0  0  0
  188.6310  175.6530  143.0000 O   0  0  0  0  0  0  0  0  0  0  0  0
  190.4220  176.9660  142.2410 N   0  0  0  0  0  0  0  0  0  0  0  0
  189.5550  176.4640  143.2720 C   0  0  0  0  0  0  0  0  0  0  0  0
  191.1970  177.2340  144.9580 C   0  0  0  0  0  2  0  0  0  0  0  0
  191.8390  178.0400  143.8620 C   0  0  0  0  0  3  0  0  0  0  0  0
  191.4870  177.8620  142.5870 C   0  0  0  0  0  3  0  0  0  0  0  0
  189.7180  176.9670  144.6720 C   0  0  0  0  0  2  0  0  0  0  0  0
  1  9  1  6  0  0  0
  1 11  1  0  0  0  0
  3 15  1  6  0  0  0
  3 10  1  0  0  0  0
  4 13  1  0  0  0  0
  5  9  1  0  0  0  0
  6 12  1  0  0  0  0
  6  5  1  0  0  0  0
  7 15  2  0  0  0  0
  8  2  1  1  0  0  0
  8  3  1  0  0  0  0
  8  1  1  0  0  0  0
 10 14  1  1  0  0  0
 10 16  1  0  0  0  0
 11 16  1  0  0  0  0
 12  2  1  0  0  0  0
 13 14  2  0  0  0  0
 14 19  1  0  0  0  0
 15  4  1  0  0  0  0
 17 23  1  0  0  0  0
 17 18  1  0  0  0  0
 19 21  1  0  0  0  0
 19 22  2  0  0  0  0
 20 18  2  0  0  0  0
 21 17  2  0  0  0  0
 22 20  1  0  0  0  0
 24  4  1  0  0  0  0
 24 25  1  0  0  0  0
 26 25  1  0  0  0  0
 26 27  1  0  0  0  0
 27 29  1  0  0  0  0
 28 30  2  0  0  0  0
 29 33  1  0  0  0  0
 29 30  1  0  0  0  0
 30 34  1  0  0  0  0
 32 31  1  0  0  0  0
 33 32  2  0  0  0  0
 34 31  1  0  0  0  0
M  END
>  <MODEL>
2

>  <REMARK>
 VINA RESULT:      -8.7      3.159      6.230
  Name = 
  6 active torsions:
  status: ('A' for Active; 'I' for Inactive)
    1  A    between atoms: C_3  and  N_13
    2  A    between atoms: C_3  and  C_17
    3  A    between atoms: N_5  and  C_18
    4  A    between atoms: C_12  and  C_28
    5  A    between atoms: C_17  and  C_29
    6  A    between atoms: C_18  and  C_29
                            x       y       z     vdW  Elec       q    Type
                         _______ _______ _______ _____ _____    ______ ____

>  <TORSDO>
F 6

$$$$
=
 OpenBabel11052414113D

 34 38  0  0  1  0  0  0  0  0999 V2000
  186.6270  177.2230  137.4380 C   0  0  2  0  0  3  0  0  0  0  0  0
  188.4430  178.7860  137.0490 C   0  0  0  0  0  2  0  0  0  0  0  0
  187.9260  178.2200  139.2800 C   0  0  1  0  0  3  0  0  0  0  0  0
  188.9800  177.8140  141.5290 N   0  0  0  0  0  0  0  0  0  0  0  0
  187.8590  176.3440  135.3850 C   0  0  0  0  0  2  0  0  0  0  0  0
  188.7290  177.4970  134.8960 C   0  0  0  0  0  2  0  0  0  0  0  0
  190.1020  177.2380  139.5520 O   0  0  0  0  0  0  0  0  0  0  0  0
  187.9540  177.7040  137.8990 N   0  0  1  0  0  0  0  0  0  0  0  0
  186.5520  176.8910  135.9420 C   0  0  0  0  0  2  0  0  0  0  0  0
  186.5880  177.9550  139.9900 C   0  0  1  0  0  3  0  0  0  0  0  0
  185.4700  178.1590  137.8420 C   0  0  0  0  0  2  0  0  0  0  0  0
  189.4330  178.2200  136.0410 C   0  0  0  0  0  2  0  0  0  0  0  0
  187.7580  178.2400  142.1460 C   0  0  0  0  0  3  0  0  0  0  0  0
  186.6150  178.3760  141.4520 C   0  0  0  0  0  0  0  0  0  0  0  0
  189.0640  177.6980  140.1020 C   0  0  0  0  0  0  0  0  0  0  0  0
  185.5370  178.6350  139.2340 N   0  0  0  0  0  2  0  0  0  0  0  0
  182.9490  178.6620  142.4060 C   0  0  0  0  0  0  0  0  0  0  0  0
  183.0320  179.3470  143.6200 C   0  0  0  0  0  3  0  0  0  0  0  0
  185.3740  178.7220  142.1930 C   0  0  0  0  0  0  0  0  0  0  0  0
  184.2790  179.7180  144.1270 C   0  0  0  0  0  3  0  0  0  0  0  0
  184.1140  178.3490  141.6990 C   0  0  0  0  0  3  0  0  0  0  0  0
  185.4430  179.4060  143.4200 C   0  0  0  0  0  3  0  0  0  0  0  0
  181.7410  178.2990  141.9140 F   0  0  0  0  0  0  0  0  0  0  0  0
  190.1140  177.4720  142.3760 C   0  0  0  0  0  2  0  0  0  0  0  0
  190.4540  178.6440  143.2760 C   0  0  0  0  0  2  0  0  0  0  0  0
  190.9050  178.1300  144.6290 C   0  0  0  0  0  2  0  0  0  0  0  0
  190.1220  176.8830  145.0090 C   0  0  0  0  0  2  0  0  0  0  0  0
  190.6140  177.1230  147.8030 O   0  0  0  0  0  0  0  0  0  0  0  0
  189.1060  177.1990  146.0050 N   0  0  0  0  0  0  0  0  0  0  0  0
  189.4280  177.2720  147.4050 C   0  0  0  0  0  0  0  0  0  0  0  0
  187.2370  178.3540  147.8010 C   0  0  0  0  0  2  0  0  0  0  0  0
  186.8440  177.9050  146.4210 C   0  0  0  0  0  3  0  0  0  0  0  0
  187.7520  177.4060  145.5800 C   0  0  0  0  0  3  0  0  0  0  0  0
  188.3250  177.4610  148.3990 C   0  0  0  0  0  2  0  0  0  0  0  0
  1  9  1  6  0  0  0
  1 11  1  0  0  0  0
  1  8  1  0  0  0  0
  3 10  1  0  0  0  0
  3 15  1  1  0  0  0
  4 13  1  0  0  0  0
  4 24  1  0  0  0  0
  5  9  1  0  0  0  0
  6  5  1  0  0  0  0
  6 12  1  0  0  0  0
  7 15  2  0  0  0  0
  8  2  1  6  0  0  0
  8  3  1  0  0  0  0
 10 16  1  6  0  0  0
 10 14  1  0  0  0  0
 11 16  1  0  0  0  0
 12  2  1  0  0  0  0
 14 13  2  0  0  0  0
 14 19  1  0  0  0  0
 15  4  1  0  0  0  0
 17 18  1  0  0  0  0
 18 20  2  0  0  0  0
 19 22  2  0  0  0  0
 21 19  1  0  0  0  0
 21 17  2  0  0  0  0
 22 20  1  0  0  0  0
 23 17  1  0  0  0  0
 24 25  1  0  0  0  0
 25 26  1  0  0  0  0
 26 27  1  0  0  0  0
 27 29  1  0  0  0  0
 29 30  1  0  0  0  0
 30 28  2  0  0  0  0
 30 34  1  0  0  0  0
 31 34  1  0  0  0  0
 32 31  1  0  0  0  0
 33 29  1  0  0  0  0
 33 32  2  0  0  0  0
M  END
>  <MODEL>
3

>  <REMARK>
 VINA RESULT:      -8.6      2.615      4.774
  Name = 
  6 active torsions:
  status: ('A' for Active; 'I' for Inactive)
    1  A    between atoms: C_3  and  N_13
    2  A    between atoms: C_3  and  C_17
    3  A    between atoms: N_5  and  C_18
    4  A    between atoms: C_12  and  C_28
    5  A    between atoms: C_17  and  C_29
    6  A    between atoms: C_18  and  C_29
                            x       y       z     vdW  Elec       q    Type
                         _______ _______ _______ _____ _____    ______ ____

>  <TORSDO>
F 6

$$$$
=
 OpenBabel11052414113D

 34 38  0  0  1  0  0  0  0  0999 V2000
  182.9940  179.6770  139.2300 C   0  0  2  0  0  3  0  0  0  0  0  0
  181.5190  177.9490  140.0850 C   0  0  0  0  0  2  0  0  0  0  0  0
  183.4920  178.4200  141.2890 C   0  0  1  0  0  3  0  0  0  0  0  0
  184.4160  178.5520  143.6270 N   0  0  0  0  0  0  0  0  0  0  0  0
  180.6280  180.5480  138.8500 C   0  0  0  0  0  2  0  0  0  0  0  0
  179.7100  179.3390  139.0020 C   0  0  0  0  0  2  0  0  0  0  0  0
  182.1890  179.1300  143.1790 O   0  0  0  0  0  0  0  0  0  0  0  0
  182.4460  179.0200  140.4430 N   0  0  1  0  0  0  0  0  0  0  0  0
  181.9390  180.1150  138.2070 C   0  0  0  0  0  2  0  0  0  0  0  0
  184.9150  178.7850  140.8330 C   0  0  1  0  0  3  0  0  0  0  0  0
  184.1010  178.8520  138.5430 C   0  0  0  0  0  2  0  0  0  0  0  0
  180.0920  178.4670  140.1950 C   0  0  0  0  0  2  0  0  0  0  0  0
  185.7110  178.2260  143.1020 C   0  0  0  0  0  3  0  0  0  0  0  0
  185.9810  178.2670  141.7860 C   0  0  0  0  0  0  0  0  0  0  0  0
  183.3090  178.7540  142.7380 C   0  0  0  0  0  0  0  0  0  0  0  0
  185.0920  178.2800  139.4720 N   0  0  0  0  0  2  0  0  0  0  0  0
  189.5200  176.8950  141.6330 C   0  0  0  0  0  0  0  0  0  0  0  0
  190.0030  177.5050  140.4730 C   0  0  0  0  0  3  0  0  0  0  0  0
  187.3760  178.0130  141.3420 C   0  0  0  0  0  0  0  0  0  0  0  0
  189.1790  178.3650  139.7420 C   0  0  0  0  0  3  0  0  0  0  0  0
  188.2130  177.1450  142.0620 C   0  0  0  0  0  3  0  0  0  0  0  0
  187.8730  178.6150  140.1730 C   0  0  0  0  0  3  0  0  0  0  0  0
  190.3160  176.0600  142.3410 F   0  0  0  0  0  0  0  0  0  0  0  0
  184.2600  178.7070  145.0660 C   0  0  0  0  0  2  0  0  0  0  0  0
  185.3880  179.5570  145.6160 C   0  0  0  0  0  2  0  0  0  0  0  0
  185.9270  178.9250  146.8850 C   0  0  0  0  0  2  0  0  0  0  0  0
  186.4200  177.5140  146.6050 C   0  0  0  0  0  2  0  0  0  0  0  0
  187.9330  177.3840  149.0130 O   0  0  0  0  0  0  0  0  0  0  0  0
  187.8750  177.4570  146.6670 N   0  0  0  0  0  0  0  0  0  0  0  0
  188.5690  177.4260  147.9270 C   0  0  0  0  0  0  0  0  0  0  0  0
  190.6330  176.7890  146.7160 C   0  0  0  0  0  2  0  0  0  0  0  0
  189.9350  177.2040  145.4500 C   0  0  0  0  0  3  0  0  0  0  0  0
  188.6270  177.4700  145.4460 C   0  0  0  0  0  3  0  0  0  0  0  0
  190.0630  177.5100  147.9390 C   0  0  0  0  0  2  0  0  0  0  0  0
  1  9  1  6  0  0  0
  1  8  1  0  0  0  0
  2 12  1  0  0  0  0
  3 15  1  1  0  0  0
  4 24  1  0  0  0  0
  5  6  1  0  0  0  0
  6 12  1  0  0  0  0
  8  2  1  6  0  0  0
  8  3  1  0  0  0  0
  9  5  1  0  0  0  0
 10 16  1  6  0  0  0
 10  3  1  0  0  0  0
 10 14  1  0  0  0  0
 11  1  1  0  0  0  0
 11 16  1  0  0  0  0
 13  4  1  0  0  0  0
 14 13  2  0  0  0  0
 15  7  2  0  0  0  0
 15  4  1  0  0  0  0
 17 21  1  0  0  0  0
 17 23  1  0  0  0  0
 18 17  2  0  0  0  0
 19 14  1  0  0  0  0
 19 21  2  0  0  0  0
 20 22  2  0  0  0  0
 20 18  1  0  0  0  0
 22 19  1  0  0  0  0
 24 25  1  0  0  0  0
 25 26  1  0  0  0  0
 27 29  1  0  0  0  0
 27 26  1  0  0  0  0
 29 30  1  0  0  0  0
 30 34  1  0  0  0  0
 30 28  2  0  0  0  0
 31 34  1  0  0  0  0
 32 31  1  0  0  0  0
 33 32  2  0  0  0  0
 33 29  1  0  0  0  0
M  END
>  <MODEL>
4

>  <REMARK>
 VINA RESULT:      -8.2      2.943      5.245
  Name = 
  6 active torsions:
  status: ('A' for Active; 'I' for Inactive)
    1  A    between atoms: C_3  and  N_13
    2  A    between atoms: C_3  and  C_17
    3  A    between atoms: N_5  and  C_18
    4  A    between atoms: C_12  and  C_28
    5  A    between atoms: C_17  and  C_29
    6  A    between atoms: C_18  and  C_29
                            x       y       z     vdW  Elec       q    Type
                         _______ _______ _______ _____ _____    ______ ____

>  <TORSDO>
F 6

$$$$
=
 OpenBabel11052414113D

 34 38  0  0  1  0  0  0  0  0999 V2000
  189.0320  178.5570  139.4490 C   0  0  2  0  0  3  0  0  0  0  0  0
  187.0820  177.3070  138.7250 C   0  0  0  0  0  2  0  0  0  0  0  0
  187.1200  178.1170  140.9400 C   0  0  1  0  0  3  0  0  0  0  0  0
  185.6380  179.0600  142.7430 N   0  0  0  0  0  0  0  0  0  0  0  0
  188.5900  179.3070  137.0520 C   0  0  0  0  0  2  0  0  0  0  0  0
  187.6450  178.2670  136.4590 C   0  0  0  0  0  2  0  0  0  0  0  0
  185.2140  179.5080  140.4820 O   0  0  0  0  0  0  0  0  0  0  0  0
  187.5600  178.4040  139.5630 N   0  0  1  0  0  0  0  0  0  0  0  0
  189.5590  178.6280  138.0110 C   0  0  0  0  0  2  0  0  0  0  0  0
  188.2550  178.2460  141.9700 C   0  0  1  0  0  3  0  0  0  0  0  0
  189.8140  177.5030  140.2590 C   0  0  0  0  0  2  0  0  0  0  0  0
  186.5310  177.8750  137.4250 C   0  0  0  0  0  2  0  0  0  0  0  0
  186.5380  178.5230  143.7230 C   0  0  0  0  0  3  0  0  0  0  0  0
  187.7630  178.0750  143.3990 C   0  0  0  0  0  0  0  0  0  0  0  0
  185.9510  178.9610  141.3470 C   0  0  0  0  0  0  0  0  0  0  0  0
  189.2910  177.2750  141.6170 N   0  0  0  0  0  2  0  0  0  0  0  0
  189.0380  177.0620  146.8310 C   0  0  0  0  0  0  0  0  0  0  0  0
  190.3700  176.7530  146.5520 C   0  0  0  0  0  3  0  0  0  0  0  0
  188.6660  177.6310  144.4930 C   0  0  0  0  0  0  0  0  0  0  0  0
  190.8560  176.8770  145.2480 C   0  0  0  0  0  3  0  0  0  0  0  0
  188.1900  177.4950  145.8070 C   0  0  0  0  0  3  0  0  0  0  0  0
  190.0090  177.3110  144.2250 C   0  0  0  0  0  3  0  0  0  0  0  0
  188.5650  176.9390  148.0940 F   0  0  0  0  0  0  0  0  0  0  0  0
  184.4280  179.7320  143.1940 C   0  0  0  0  0  2  0  0  0  0  0  0
  183.8970  179.0510  144.4410 C   0  0  0  0  0  2  0  0  0  0  0  0
  182.5240  178.4730  144.1570 C   0  0  0  0  0  2  0  0  0  0  0  0
  181.7560  179.3780  143.2060 C   0  0  0  0  0  2  0  0  0  0  0  0
  179.0890  178.3830  143.1390 O   0  0  0  0  0  0  0  0  0  0  0  0
  181.1880  178.6040  142.1090 N   0  0  0  0  0  0  0  0  0  0  0  0
  179.8390  178.1090  142.1640 C   0  0  0  0  0  0  0  0  0  0  0  0
  179.9790  177.6070  139.7430 C   0  0  0  0  0  2  0  0  0  0  0  0
  181.4670  177.7900  139.8620 C   0  0  0  0  0  3  0  0  0  0  0  0
  182.0060  178.3030  140.9710 C   0  0  0  0  0  3  0  0  0  0  0  0
  179.3490  177.2020  141.0780 C   0  0  0  0  0  2  0  0  0  0  0  0
  1  9  1  6  0  0  0
  1  8  1  0  0  0  0
  1 11  1  0  0  0  0
  3 15  1  1  0  0  0
  3 10  1  0  0  0  0
  4 24  1  0  0  0  0
  4 13  1  0  0  0  0
  5  9  1  0  0  0  0
  6  5  1  0  0  0  0
  6 12  1  0  0  0  0
  7 15  2  0  0  0  0
  8  2  1  6  0  0  0
  8  3  1  0  0  0  0
 10 16  1  6  0  0  0
 10 14  1  0  0  0  0
 11 16  1  0  0  0  0
 12  2  1  0  0  0  0
 14 13  2  0  0  0  0
 14 19  1  0  0  0  0
 15  4  1  0  0  0  0
 17 23  1  0  0  0  0
 18 17  1  0  0  0  0
 19 21  1  0  0  0  0
 20 18  2  0  0  0  0
 21 17  2  0  0  0  0
 22 19  2  0  0  0  0
 22 20  1  0  0  0  0
 24 25  1  0  0  0  0
 26 25  1  0  0  0  0
 27 26  1  0  0  0  0
 29 30  1  0  0  0  0
 29 27  1  0  0  0  0
 30 28  2  0  0  0  0
 31 32  1  0  0  0  0
 31 34  1  0  0  0  0
 32 33  2  0  0  0  0
 33 29  1  0  0  0  0
 34 30  1  0  0  0  0
M  END
>  <MODEL>
5

>  <REMARK>
 VINA RESULT:      -8.1      3.030      4.676
  Name = 
  6 active torsions:
  status: ('A' for Active; 'I' for Inactive)
    1  A    between atoms: C_3  and  N_13
    2  A    between atoms: C_3  and  C_17
    3  A    between atoms: N_5  and  C_18
    4  A    between atoms: C_12  and  C_28
    5  A    between atoms: C_17  and  C_29
    6  A    between atoms: C_18  and  C_29
                            x       y       z     vdW  Elec       q    Type
                         _______ _______ _______ _____ _____    ______ ____

>  <TORSDO>
F 6

$$$$
=
 OpenBabel11052414113D

 34 38  0  0  1  0  0  0  0  0999 V2000
  188.8380  177.8720  144.7100 C   0  0  2  0  0  3  0  0  0  0  0  0
  189.6100  175.8840  143.5500 C   0  0  0  0  0  2  0  0  0  0  0  0
  188.1350  177.3300  142.4110 C   0  0  1  0  0  3  0  0  0  0  0  0
  187.6190  178.2570  140.1290 N   0  0  0  0  0  0  0  0  0  0  0  0
  191.2940  177.6180  145.3490 C   0  0  0  0  0  2  0  0  0  0  0  0
  191.6780  176.1920  144.9680 C   0  0  0  0  0  2  0  0  0  0  0  0
  189.8250  177.7850  140.7650 O   0  0  0  0  0  0  0  0  0  0  0  0
  189.2250  177.2860  143.4020 N   0  0  1  0  0  0  0  0  0  0  0  0
  189.8520  177.6450  145.8380 C   0  0  0  0  0  2  0  0  0  0  0  0
  186.9250  178.1510  142.8890 C   0  0  1  0  0  3  0  0  0  0  0  0
  187.4240  177.4570  145.1640 C   0  0  0  0  0  2  0  0  0  0  0  0
  191.1290  175.7870  143.6020 C   0  0  0  0  0  2  0  0  0  0  0  0
  186.2480  178.3950  140.5260 C   0  0  0  0  0  3  0  0  0  0  0  0
  185.8620  178.2980  141.8100 C   0  0  0  0  0  0  0  0  0  0  0  0
  188.6040  177.8230  141.0770 C   0  0  0  0  0  0  0  0  0  0  0  0
  186.4060  177.5190  144.1010 N   0  0  0  0  0  2  0  0  0  0  0  0
  182.0930  178.6440  141.4870 C   0  0  0  0  0  0  0  0  0  0  0  0
  181.7360  179.0060  142.7870 C   0  0  0  0  0  3  0  0  0  0  0  0
  184.4370  178.5550  142.1420 C   0  0  0  0  0  0  0  0  0  0  0  0
  182.7200  179.1400  143.7690 C   0  0  0  0  0  3  0  0  0  0  0  0
  183.4360  178.4170  141.1670 C   0  0  0  0  0  3  0  0  0  0  0  0
  184.0620  178.9140  143.4490 C   0  0  0  0  0  3  0  0  0  0  0  0
  181.1390  178.5110  140.5350 F   0  0  0  0  0  0  0  0  0  0  0  0
  187.9920  178.5980  138.7640 C   0  0  0  0  0  2  0  0  0  0  0  0
  187.8210  177.3870  137.8670 C   0  0  0  0  0  2  0  0  0  0  0  0
  189.1630  177.0000  137.2760 C   0  0  0  0  0  2  0  0  0  0  0  0
  189.5580  175.6030  137.7300 C   0  0  0  0  0  2  0  0  0  0  0  0
  190.9250  173.4050  136.5450 O   0  0  0  0  0  0  0  0  0  0  0  0
  191.0070  175.4450  137.7030 N   0  0  0  0  0  0  0  0  0  0  0  0
  191.6220  174.2880  137.1120 C   0  0  0  0  0  0  0  0  0  0  0  0
  193.7980  175.4670  137.1900 C   0  0  0  0  0  2  0  0  0  0  0  0
  193.1510  176.4530  138.1220 C   0  0  0  0  0  3  0  0  0  0  0  0
  191.8300  176.4490  138.3130 C   0  0  0  0  0  3  0  0  0  0  0  0
  193.1020  174.1050  137.2340 C   0  0  0  0  0  2  0  0  0  0  0  0
  1 11  1  1  0  0  0
  1  9  1  0  0  0  0
  2 12  1  0  0  0  0
  3 15  1  6  0  0  0
  3 10  1  0  0  0  0
  3  8  1  0  0  0  0
  4 13  1  0  0  0  0
  4 15  1  0  0  0  0
  5  9  1  0  0  0  0
  6  5  1  0  0  0  0
  7 15  2  0  0  0  0
  8  2  1  1  0  0  0
  8  1  1  0  0  0  0
 10 14  1  6  0  0  0
 10 16  1  0  0  0  0
 12  6  1  0  0  0  0
 13 14  2  0  0  0  0
 14 19  1  0  0  0  0
 16 11  1  0  0  0  0
 17 18  1  0  0  0  0
 18 20  2  0  0  0  0
 19 22  2  0  0  0  0
 21 17  2  0  0  0  0
 21 19  1  0  0  0  0
 22 20  1  0  0  0  0
 23 17  1  0  0  0  0
 24  4  1  0  0  0  0
 25 24  1  0  0  0  0
 26 27  1  0  0  0  0
 26 25  1  0  0  0  0
 28 30  2  0  0  0  0
 29 27  1  0  0  0  0
 29 33  1  0  0  0  0
 30 34  1  0  0  0  0
 30 29  1  0  0  0  0
 31 34  1  0  0  0  0
 31 32  1  0  0  0  0
 32 33  2  0  0  0  0
M  END
>  <MODEL>
6

>  <REMARK>
 VINA RESULT:      -7.8      3.090      8.271
  Name = 
  6 active torsions:
  status: ('A' for Active; 'I' for Inactive)
    1  A    between atoms: C_3  and  N_13
    2  A    between atoms: C_3  and  C_17
    3  A    between atoms: N_5  and  C_18
    4  A    between atoms: C_12  and  C_28
    5  A    between atoms: C_17  and  C_29
    6  A    between atoms: C_18  and  C_29
                            x       y       z     vdW  Elec       q    Type
                         _______ _______ _______ _____ _____    ______ ____

>  <TORSDO>
F 6

$$$$
=
 OpenBabel11052414113D

 34 38  0  0  1  0  0  0  0  0999 V2000
  188.8540  177.8550  144.7680 C   0  0  2  0  0  3  0  0  0  0  0  0
  189.6000  175.8770  143.5760 C   0  0  0  0  0  2  0  0  0  0  0  0
  188.0990  177.3310  142.4810 C   0  0  1  0  0  3  0  0  0  0  0  0
  187.5330  178.2760  140.2180 N   0  0  0  0  0  0  0  0  0  0  0  0
  191.3230  177.5970  145.3500 C   0  0  0  0  0  2  0  0  0  0  0  0
  191.6980  176.1740  144.9490 C   0  0  0  0  0  2  0  0  0  0  0  0
  189.7530  177.8000  140.8020 O   0  0  0  0  0  0  0  0  0  0  0  0
  189.2110  177.2790  143.4480 N   0  0  1  0  0  0  0  0  0  0  0  0
  189.8930  177.6200  145.8720 C   0  0  0  0  0  2  0  0  0  0  0  0
  186.9010  178.1480  142.9920 C   0  0  1  0  0  3  0  0  0  0  0  0
  187.4500  177.4370  145.2500 C   0  0  0  0  0  2  0  0  0  0  0  0
  191.1190  175.7800  143.5940 C   0  0  0  0  0  2  0  0  0  0  0  0
  186.1710  178.4100  140.6480 C   0  0  0  0  0  3  0  0  0  0  0  0
  185.8140  178.3030  141.9390 C   0  0  0  0  0  0  0  0  0  0  0  0
  188.5380  177.8340  141.1410 C   0  0  0  0  0  0  0  0  0  0  0  0
  186.4080  177.5070  144.2110 N   0  0  0  0  0  2  0  0  0  0  0  0
  182.0360  178.6280  141.7090 C   0  0  0  0  0  0  0  0  0  0  0  0
  181.7100  179.0030  143.0140 C   0  0  0  0  0  3  0  0  0  0  0  0
  184.3960  178.5580  142.3050 C   0  0  0  0  0  0  0  0  0  0  0  0
  182.7190  179.1540  143.9680 C   0  0  0  0  0  3  0  0  0  0  0  0
  183.3710  178.4030  141.3580 C   0  0  0  0  0  3  0  0  0  0  0  0
  184.0530  178.9300  143.6170 C   0  0  0  0  0  3  0  0  0  0  0  0
  181.0590  178.4790  140.7840 F   0  0  0  0  0  0  0  0  0  0  0  0
  187.8750  178.6280  138.8480 C   0  0  0  0  0  2  0  0  0  0  0  0
  187.6470  177.4350  137.9400 C   0  0  0  0  0  2  0  0  0  0  0  0
  186.9340  177.8860  136.6800 C   0  0  0  0  0  2  0  0  0  0  0  0
  186.2020  176.7170  136.0390 C   0  0  0  0  0  2  0  0  0  0  0  0
  185.5540  174.1170  136.9990 O   0  0  0  0  0  0  0  0  0  0  0  0
  184.9990  176.3890  136.7960 N   0  0  0  0  0  0  0  0  0  0  0  0
  184.7280  175.0420  137.2190 C   0  0  0  0  0  0  0  0  0  0  0  0
  182.9620  175.9220  138.7150 C   0  0  0  0  0  2  0  0  0  0  0  0
  183.0600  177.2160  137.9550 C   0  0  0  0  0  3  0  0  0  0  0  0
  184.0540  177.4260  137.0890 C   0  0  0  0  0  3  0  0  0  0  0  0
  183.4150  174.7310  137.8690 C   0  0  0  0  0  2  0  0  0  0  0  0
  1 11  1  1  0  0  0
  1  9  1  0  0  0  0
  2 12  1  0  0  0  0
  3 15  1  6  0  0  0
  3 10  1  0  0  0  0
  3  8  1  0  0  0  0
  4 13  1  0  0  0  0
  4 15  1  0  0  0  0
  5  9  1  0  0  0  0
  6  5  1  0  0  0  0
  7 15  2  0  0  0  0
  8  2  1  1  0  0  0
  8  1  1  0  0  0  0
 10 14  1  6  0  0  0
 10 16  1  0  0  0  0
 12  6  1  0  0  0  0
 13 14  2  0  0  0  0
 14 19  1  0  0  0  0
 16 11  1  0  0  0  0
 17 18  1  0  0  0  0
 18 20  2  0  0  0  0
 19 22  2  0  0  0  0
 21 17  2  0  0  0  0
 21 19  1  0  0  0  0
 22 20  1  0  0  0  0
 23 17  1  0  0  0  0
 24  4  1  0  0  0  0
 25 24  1  0  0  0  0
 26 25  1  0  0  0  0
 27 26  1  0  0  0  0
 27 29  1  0  0  0  0
 28 30  2  0  0  0  0
 29 33  1  0  0  0  0
 29 30  1  0  0  0  0
 30 34  1  0  0  0  0
 32 31  1  0  0  0  0
 33 32  2  0  0  0  0
 34 31  1  0  0  0  0
M  END
>  <MODEL>
7

>  <REMARK>
 VINA RESULT:      -7.8      3.183      8.000
  Name = 
  6 active torsions:
  status: ('A' for Active; 'I' for Inactive)
    1  A    between atoms: C_3  and  N_13
    2  A    between atoms: C_3  and  C_17
    3  A    between atoms: N_5  and  C_18
    4  A    between atoms: C_12  and  C_28
    5  A    between atoms: C_17  and  C_29
    6  A    between atoms: C_18  and  C_29
                            x       y       z     vdW  Elec       q    Type
                         _______ _______ _______ _____ _____    ______ ____

>  <TORSDO>
F 6

$$$$
=
 OpenBabel11052414113D

 34 38  0  0  1  0  0  0  0  0999 V2000
  188.8280  177.8920  144.7270 C   0  0  2  0  0  3  0  0  0  0  0  0
  189.5730  175.9080  143.5440 C   0  0  0  0  0  2  0  0  0  0  0  0
  188.0590  177.3490  142.4500 C   0  0  1  0  0  3  0  0  0  0  0  0
  187.4730  178.2760  140.1840 N   0  0  0  0  0  0  0  0  0  0  0  0
  191.3030  177.6470  145.2930 C   0  0  0  0  0  2  0  0  0  0  0  0
  191.6800  176.2220  144.9000 C   0  0  0  0  0  2  0  0  0  0  0  0
  189.6980  177.8120  140.7550 O   0  0  0  0  0  0  0  0  0  0  0  0
  189.1780  177.3080  143.4080 N   0  0  1  0  0  0  0  0  0  0  0  0
  189.8760  177.6680  145.8250 C   0  0  0  0  0  2  0  0  0  0  0  0
  186.8610  178.1660  142.9640 C   0  0  1  0  0  3  0  0  0  0  0  0
  187.4290  177.4720  145.2230 C   0  0  0  0  0  2  0  0  0  0  0  0
  191.0920  175.8160  143.5510 C   0  0  0  0  0  2  0  0  0  0  0  0
  186.1130  178.4080  140.6230 C   0  0  0  0  0  3  0  0  0  0  0  0
  185.7660  178.3090  141.9170 C   0  0  0  0  0  0  0  0  0  0  0  0
  188.4860  177.8450  141.1030 C   0  0  0  0  0  0  0  0  0  0  0  0
  186.3800  177.5310  144.1900 N   0  0  0  0  0  2  0  0  0  0  0  0
  181.9870  178.6280  141.7100 C   0  0  0  0  0  0  0  0  0  0  0  0
  181.6680  179.0020  143.0170 C   0  0  0  0  0  3  0  0  0  0  0  0
  184.3500  178.5620  142.2920 C   0  0  0  0  0  0  0  0  0  0  0  0
  182.6820  179.1540  143.9650 C   0  0  0  0  0  3  0  0  0  0  0  0
  183.3200  178.4060  141.3500 C   0  0  0  0  0  3  0  0  0  0  0  0
  184.0150  178.9320  143.6060 C   0  0  0  0  0  3  0  0  0  0  0  0
  181.0040  178.4790  140.7900 F   0  0  0  0  0  0  0  0  0  0  0  0
  187.8040  178.6190  138.8090 C   0  0  0  0  0  2  0  0  0  0  0  0
  186.7260  178.1020  137.8770 C   0  0  0  0  0  2  0  0  0  0  0  0
  187.3600  177.2570  136.7880 C   0  0  0  0  0  2  0  0  0  0  0  0
  188.2490  176.1860  137.4000 C   0  0  0  0  0  2  0  0  0  0  0  0
  190.7020  175.5610  138.7020 O   0  0  0  0  0  0  0  0  0  0  0  0
  189.5520  176.1670  136.7470 N   0  0  0  0  0  0  0  0  0  0  0  0
  190.7520  175.8720  137.4820 C   0  0  0  0  0  0  0  0  0  0  0  0
  191.9440  175.6010  135.3290 C   0  0  0  0  0  2  0  0  0  0  0  0
  190.7680  176.2700  134.6730 C   0  0  0  0  0  3  0  0  0  0  0  0
  189.6390  176.4850  135.3510 C   0  0  0  0  0  3  0  0  0  0  0  0
  192.0780  176.0030  136.7990 C   0  0  0  0  0  2  0  0  0  0  0  0
  1 11  1  1  0  0  0
  1  9  1  0  0  0  0
  2 12  1  0  0  0  0
  3 15  1  6  0  0  0
  3 10  1  0  0  0  0
  3  8  1  0  0  0  0
  4 13  1  0  0  0  0
  4 15  1  0  0  0  0
  5  9  1  0  0  0  0
  6  5  1  0  0  0  0
  7 15  2  0  0  0  0
  8  2  1  1  0  0  0
  8  1  1  0  0  0  0
 10 14  1  6  0  0  0
 10 16  1  0  0  0  0
 12  6  1  0  0  0  0
 13 14  2  0  0  0  0
 14 19  1  0  0  0  0
 16 11  1  0  0  0  0
 17 18  1  0  0  0  0
 18 20  2  0  0  0  0
 19 22  2  0  0  0  0
 21 17  2  0  0  0  0
 21 19  1  0  0  0  0
 22 20  1  0  0  0  0
 23 17  1  0  0  0  0
 24  4  1  0  0  0  0
 25 24  1  0  0  0  0
 26 27  1  0  0  0  0
 26 25  1  0  0  0  0
 29 27  1  0  0  0  0
 29 30  1  0  0  0  0
 30 28  2  0  0  0  0
 31 34  1  0  0  0  0
 32 31  1  0  0  0  0
 32 33  2  0  0  0  0
 33 29  1  0  0  0  0
 34 30  1  0  0  0  0
M  END
>  <MODEL>
8

>  <REMARK>
 VINA RESULT:      -7.8      2.992      8.260
  Name = 
  6 active torsions:
  status: ('A' for Active; 'I' for Inactive)
    1  A    between atoms: C_3  and  N_13
    2  A    between atoms: C_3  and  C_17
    3  A    between atoms: N_5  and  C_18
    4  A    between atoms: C_12  and  C_28
    5  A    between atoms: C_17  and  C_29
    6  A    between atoms: C_18  and  C_29
                            x       y       z     vdW  Elec       q    Type
                         _______ _______ _______ _____ _____    ______ ____

>  <TORSDO>
F 6

$$$$
=
 OpenBabel11052414113D

 34 38  0  0  1  0  0  0  0  0999 V2000
  187.5580  177.1950  138.0540 C   0  0  2  0  0  3  0  0  0  0  0  0
  188.9280  178.6490  139.4330 C   0  0  0  0  0  2  0  0  0  0  0  0
  186.6310  178.4800  139.9420 C   0  0  1  0  0  3  0  0  0  0  0  0
  185.0140  178.4560  141.8700 N   0  0  0  0  0  0  0  0  0  0  0  0
  189.7700  175.9630  138.3590 C   0  0  0  0  0  2  0  0  0  0  0  0
  190.7610  177.0060  138.8660 C   0  0  0  0  0  2  0  0  0  0  0  0
  187.1590  177.5360  142.0880 O   0  0  0  0  0  0  0  0  0  0  0  0
  187.7890  177.7340  139.4180 N   0  0  1  0  0  0  0  0  0  0  0  0
  188.8040  176.6120  137.3760 C   0  0  0  0  0  2  0  0  0  0  0  0
  185.3850  178.3550  139.0480 C   0  0  1  0  0  3  0  0  0  0  0  0
  186.8550  178.1990  137.1180 C   0  0  0  0  0  2  0  0  0  0  0  0
  190.1570  177.9080  139.9400 C   0  0  0  0  0  2  0  0  0  0  0  0
  184.0110  178.9950  140.9980 C   0  0  0  0  0  3  0  0  0  0  0  0
  184.1630  179.0210  139.6620 C   0  0  0  0  0  0  0  0  0  0  0  0
  186.3010  178.0950  141.3510 C   0  0  0  0  0  0  0  0  0  0  0  0
  185.7200  178.9070  137.7350 N   0  0  0  0  0  2  0  0  0  0  0  0
  181.6260  181.3170  138.0130 C   0  0  0  0  0  0  0  0  0  0  0  0
  180.9100  180.4160  137.2220 C   0  0  0  0  0  3  0  0  0  0  0  0
  183.0300  179.5030  138.8300 C   0  0  0  0  0  0  0  0  0  0  0  0
  181.2500  179.0610  137.2270 C   0  0  0  0  0  3  0  0  0  0  0  0
  182.6820  180.8630  138.8100 C   0  0  0  0  0  3  0  0  0  0  0  0
  182.3050  178.6080  138.0240 C   0  0  0  0  0  3  0  0  0  0  0  0
  181.2990  182.6310  138.0070 F   0  0  0  0  0  0  0  0  0  0  0  0
  184.6880  178.2520  143.2740 C   0  0  0  0  0  2  0  0  0  0  0  0
  185.1240  179.4590  144.0820 C   0  0  0  0  0  2  0  0  0  0  0  0
  185.5860  179.0100  145.4550 C   0  0  0  0  0  2  0  0  0  0  0  0
  186.3350  177.6900  145.3560 C   0  0  0  0  0  2  0  0  0  0  0  0
  188.9710  176.7640  144.8080 O   0  0  0  0  0  0  0  0  0  0  0  0
  187.4150  177.6380  146.3340 N   0  0  0  0  0  0  0  0  0  0  0  0
  188.7130  177.1260  145.9870 C   0  0  0  0  0  0  0  0  0  0  0  0
  189.5960  178.0810  148.0940 C   0  0  0  0  0  2  0  0  0  0  0  0
  188.1680  178.2450  148.5370 C   0  0  0  0  0  3  0  0  0  0  0  0
  187.1620  178.0730  147.6760 C   0  0  0  0  0  3  0  0  0  0  0  0
  189.7440  176.9640  147.0600 C   0  0  0  0  0  2  0  0  0  0  0  0
  1 11  1  6  0  0  0
  1  8  1  0  0  0  0
  2 12  1  0  0  0  0
  3 15  1  1  0  0  0
  4 24  1  0  0  0  0
  5  6  1  0  0  0  0
  6 12  1  0  0  0  0
  8  2  1  6  0  0  0
  8  3  1  0  0  0  0
  9  1  1  0  0  0  0
  9  5  1  0  0  0  0
 10 16  1  6  0  0  0
 10 14  1  0  0  0  0
 10  3  1  0  0  0  0
 11 16  1  0  0  0  0
 13  4  1  0  0  0  0
 14 13  2  0  0  0  0
 15  4  1  0  0  0  0
 15  7  2  0  0  0  0
 17 21  1  0  0  0  0
 18 20  1  0  0  0  0
 18 17  2  0  0  0  0
 19 14  1  0  0  0  0
 20 22  2  0  0  0  0
 21 19  2  0  0  0  0
 22 19  1  0  0  0  0
 23 17  1  0  0  0  0
 24 25  1  0  0  0  0
 25 26  1  0  0  0  0
 27 26  1  0  0  0  0
 27 29  1  0  0  0  0
 28 30  2  0  0  0  0
 29 33  1  0  0  0  0
 30 29  1  0  0  0  0
 30 34  1  0  0  0  0
 31 32  1  0  0  0  0
 33 32  2  0  0  0  0
 34 31  1  0  0  0  0
M  END
>  <MODEL>
9

>  <REMARK>
 VINA RESULT:      -7.7      3.546      5.988
  Name = 
  6 active torsions:
  status: ('A' for Active; 'I' for Inactive)
    1  A    between atoms: C_3  and  N_13
    2  A    between atoms: C_3  and  C_17
    3  A    between atoms: N_5  and  C_18
    4  A    between atoms: C_12  and  C_28
    5  A    between atoms: C_17  and  C_29
    6  A    between atoms: C_18  and  C_29
                            x       y       z     vdW  Elec       q    Type
                         _______ _______ _______ _____ _____    ______ ____

>  <TORSDO>
F 6

$$$$
