=
 OpenBabel11052416523D

 32 35  0  0  1  0  0  0  0  0999 V2000
  187.4690  177.8640  142.0730 C   0  0  0  0  0  0  0  0  0  0  0  0
  186.2630  178.0580  146.7640 N   0  0  0  0  0  0  0  0  0  0  0  0
  185.0000  178.4370  146.4410 C   0  0  0  0  0  3  0  0  0  0  0  0
  185.7930  178.5230  140.3720 C   0  0  0  0  0  0  0  0  0  0  0  0
  184.3440  178.4830  139.9560 C   0  0  2  0  0  3  0  0  0  0  0  0
  181.6390  178.6260  139.3500 C   0  0  0  0  0  2  0  0  0  0  0  0
  187.1980  177.8190  145.8070 C   0  0  0  0  0  3  0  0  0  0  0  0
  187.8380  177.7070  143.4440 C   0  0  0  0  0  0  0  0  0  0  0  0
  186.8850  177.9600  144.4440 C   0  0  0  0  0  0  0  0  0  0  0  0
  185.2530  178.5070  142.7390 C   0  0  0  0  0  0  0  0  0  0  0  0
  182.5300  179.6310  138.6090 C   0  0  0  0  0  2  0  0  0  0  0  0
  183.9440  179.7490  139.1950 C   0  0  0  0  0  2  0  0  0  0  0  0
  184.6390  178.5910  145.1040 C   0  0  0  0  0  3  0  0  0  0  0  0
  185.5830  178.3530  144.0930 C   0  0  0  0  0  0  0  0  0  0  0  0
  183.8640  178.9580  142.3750 C   0  0  0  0  0  2  0  0  0  0  0  0
  188.2910  177.5810  141.0910 N   0  0  0  0  0  0  0  0  0  0  0  0
  186.6540  178.7710  139.4830 O   0  0  0  0  0  0  0  0  0  0  0  0
  181.9390  178.6250  140.8460 C   0  0  0  0  0  2  0  0  0  0  0  0
  186.1920  178.2970  141.7560 N   0  0  0  0  0  0  0  0  0  0  0  0
  183.3910  178.2190  141.1380 C   0  0  1  0  0  3  0  0  0  0  0  0
  189.6570  177.0790  141.1420 C   0  0  0  0  0  2  0  0  0  0  0  0
  189.7310  178.4490  139.2180 F   0  0  0  0  0  0  0  0  0  0  0  0
  190.3560  177.3830  139.8340 C   0  0  0  0  0  2  0  0  0  0  0  0
  189.2290  177.3320  143.8770 C   0  0  0  0  0  2  0  0  0  0  0  0
  190.0250  178.5320  144.0630 N   0  0  0  0  0  2  0  0  0  0  0  0
  191.3780  178.0940  144.3550 C   0  0  0  0  0  2  0  0  0  0  0  0
  191.3950  176.5970  144.6020 C   0  0  0  0  0  2  0  0  0  0  0  0
  191.8610  176.3080  146.0190 C   0  0  0  0  0  2  0  0  0  0  0  0
  190.0920  177.1550  147.6150 C   0  0  0  0  0  0  0  0  0  0  0  0
  191.3360  177.3120  146.9320 N   0  0  0  0  0  2  0  0  0  0  0  0
  189.6290  178.2120  148.5510 C   0  0  0  0  0  1  0  0  0  0  0  0
  189.3800  176.1320  147.4280 O   0  0  0  0  0  0  0  0  0  0  0  0
  1  8  1  0  0  0  0
  3  2  1  0  0  0  0
  4 19  1  0  0  0  0
  5 12  1  1  0  0  0
  5  4  1  0  0  0  0
  5 20  1  0  0  0  0
  6 18  1  0  0  0  0
  7  2  2  0  0  0  0
  8 24  1  0  0  0  0
  8  9  2  0  0  0  0
  9  7  1  0  0  0  0
 10 14  2  0  0  0  0
 11 12  1  0  0  0  0
 11  6  1  0  0  0  0
 13  3  2  0  0  0  0
 14  9  1  0  0  0  0
 14 13  1  0  0  0  0
 15 10  1  0  0  0  0
 16 21  1  0  0  0  0
 16  1  2  0  0  0  0
 17  4  2  0  0  0  0
 19  1  1  0  0  0  0
 19 10  1  0  0  0  0
 20 18  1  6  0  0  0
 20 15  1  0  0  0  0
 22 23  1  0  0  0  0
 23 21  1  0  0  0  0
 24 25  1  0  0  0  0
 25 26  1  0  0  0  0
 26 27  1  0  0  0  0
 27 28  1  0  0  0  0
 28 30  1  0  0  0  0
 29 31  1  0  0  0  0
 30 29  1  0  0  0  0
 32 29  2  0  0  0  0
M  END
>  <MODEL>
1

>  <REMARK>
 VINA RESULT:      -8.6      0.000      0.000
  Name = 
  8 active torsions:
  status: ('A' for Active; 'I' for Inactive)
    1  A    between atoms: C_2  and  C_12
    2  A    between atoms: C_2  and  C_24
    3  A    between atoms: C_8  and  C_23
    4  A    between atoms: C_8  and  N_28
    5  A    between atoms: C_9  and  C_14
    6  A    between atoms: C_9  and  N_21
    7  A    between atoms: N_10  and  C_24
    8  A    between atoms: C_12  and  N_21
                            x       y       z     vdW  Elec       q    Type
                         _______ _______ _______ _____ _____    ______ ____

>  <TORSDO>
F 8

$$$$
=
 OpenBabel11052416523D

 32 35  0  0  1  0  0  0  0  0999 V2000
  187.4680  178.0060  142.4690 C   0  0  0  0  0  0  0  0  0  0  0  0
  183.5810  179.0290  145.1780 N   0  0  0  0  0  0  0  0  0  0  0  0
  184.2370  178.6360  146.2990 C   0  0  0  0  0  3  0  0  0  0  0  0
  189.4630  177.0160  143.5550 C   0  0  0  0  0  0  0  0  0  0  0  0
  190.3610  177.0130  144.7660 C   0  0  2  0  0  3  0  0  0  0  0  0
  191.8350  176.8390  147.1120 C   0  0  0  0  0  2  0  0  0  0  0  0
  184.1740  178.9840  143.9560 C   0  0  0  0  0  3  0  0  0  0  0  0
  186.1230  178.4810  142.5600 C   0  0  0  0  0  0  0  0  0  0  0  0
  185.4940  178.5240  143.8140 C   0  0  0  0  0  0  0  0  0  0  0  0
  187.5030  177.6410  144.8430 C   0  0  0  0  0  0  0  0  0  0  0  0
  191.9770  175.6460  146.1590 C   0  0  0  0  0  2  0  0  0  0  0  0
  190.9190  175.6160  145.0460 C   0  0  0  0  0  2  0  0  0  0  0  0
  185.5480  178.1710  146.2120 C   0  0  0  0  0  3  0  0  0  0  0  0
  186.1880  178.1110  144.9640 C   0  0  0  0  0  0  0  0  0  0  0  0
  188.2250  177.1720  146.0770 C   0  0  0  0  0  2  0  0  0  0  0  0
  188.1330  178.0010  141.3390 N   0  0  0  0  0  0  0  0  0  0  0  0
  189.9160  176.5210  142.4860 O   0  0  0  0  0  0  0  0  0  0  0  0
  190.3670  177.1970  147.3270 C   0  0  0  0  0  2  0  0  0  0  0  0
  188.1120  177.5620  143.6130 N   0  0  0  0  0  0  0  0  0  0  0  0
  189.6790  177.6010  146.0160 C   0  0  1  0  0  3  0  0  0  0  0  0
  187.7150  178.4420  140.0150 C   0  0  0  0  0  2  0  0  0  0  0  0
  190.0290  178.0270  139.7720 F   0  0  0  0  0  0  0  0  0  0  0  0
  188.8980  178.4020  139.0730 C   0  0  0  0  0  2  0  0  0  0  0  0
  185.3210  178.8930  141.3560 C   0  0  0  0  0  2  0  0  0  0  0  0
  184.3260  177.8780  141.0590 N   0  0  0  0  0  2  0  0  0  0  0  0
  183.6520  178.2970  139.8430 C   0  0  0  0  0  2  0  0  0  0  0  0
  182.1630  178.0290  139.9590 C   0  0  0  0  0  2  0  0  0  0  0  0
  181.5010  179.1150  140.7890 C   0  0  0  0  0  2  0  0  0  0  0  0
  180.3210  179.3440  143.0140 C   0  0  0  0  0  0  0  0  0  0  0  0
  180.9880  178.5540  142.0300 N   0  0  0  0  0  2  0  0  0  0  0  0
  179.8020  178.6980  144.2480 C   0  0  0  0  0  1  0  0  0  0  0  0
  180.1710  180.5850  142.8510 O   0  0  0  0  0  0  0  0  0  0  0  0
  1  8  1  0  0  0  0
  1 19  1  0  0  0  0
  2  3  1  0  0  0  0
  4 19  1  0  0  0  0
  4  5  1  0  0  0  0
  5 12  1  1  0  0  0
  5 20  1  0  0  0  0
  6 18  1  0  0  0  0
  7  2  2  0  0  0  0
  8  9  2  0  0  0  0
  9  7  1  0  0  0  0
  9 14  1  0  0  0  0
 10 14  2  0  0  0  0
 10 15  1  0  0  0  0
 11  6  1  0  0  0  0
 12 11  1  0  0  0  0
 13  3  2  0  0  0  0
 14 13  1  0  0  0  0
 16  1  2  0  0  0  0
 17  4  2  0  0  0  0
 19 10  1  0  0  0  0
 20 15  1  1  0  0  0
 20 18  1  0  0  0  0
 21 16  1  0  0  0  0
 23 22  1  0  0  0  0
 23 21  1  0  0  0  0
 24  8  1  0  0  0  0
 25 24  1  0  0  0  0
 26 27  1  0  0  0  0
 26 25  1  0  0  0  0
 27 28  1  0  0  0  0
 28 30  1  0  0  0  0
 29 31  1  0  0  0  0
 30 29  1  0  0  0  0
 32 29  2  0  0  0  0
M  END
>  <MODEL>
2

>  <REMARK>
 VINA RESULT:      -8.2      2.363      7.319
  Name = 
  8 active torsions:
  status: ('A' for Active; 'I' for Inactive)
    1  A    between atoms: C_2  and  C_12
    2  A    between atoms: C_2  and  C_24
    3  A    between atoms: C_8  and  C_23
    4  A    between atoms: C_8  and  N_28
    5  A    between atoms: C_9  and  C_14
    6  A    between atoms: C_9  and  N_21
    7  A    between atoms: N_10  and  C_24
    8  A    between atoms: C_12  and  N_21
                            x       y       z     vdW  Elec       q    Type
                         _______ _______ _______ _____ _____    ______ ____

>  <TORSDO>
F 8

$$$$
=
 OpenBabel11052416523D

 32 35  0  0  1  0  0  0  0  0999 V2000
  186.8810  178.1420  142.2690 C   0  0  0  0  0  0  0  0  0  0  0  0
  182.1460  178.9090  142.9690 N   0  0  0  0  0  0  0  0  0  0  0  0
  182.3050  178.7780  144.3110 C   0  0  0  0  0  3  0  0  0  0  0  0
  188.3170  177.6310  144.2220 C   0  0  0  0  0  0  0  0  0  0  0  0
  188.6250  177.9320  145.6670 C   0  0  2  0  0  3  0  0  0  0  0  0
  188.9940  178.3090  148.3930 C   0  0  0  0  0  2  0  0  0  0  0  0
  183.1960  178.7910  142.1150 C   0  0  0  0  0  3  0  0  0  0  0  0
  185.5860  178.4110  141.7280 C   0  0  0  0  0  0  0  0  0  0  0  0
  184.4890  178.5260  142.5980 C   0  0  0  0  0  0  0  0  0  0  0  0
  185.9520  178.1130  144.4850 C   0  0  0  0  0  0  0  0  0  0  0  0
  189.6220  177.0330  147.8160 C   0  0  0  0  0  2  0  0  0  0  0  0
  189.1320  176.6900  146.4020 C   0  0  0  0  0  2  0  0  0  0  0  0
  183.5670  178.5150  144.8400 C   0  0  0  0  0  3  0  0  0  0  0  0
  184.6720  178.3860  143.9830 C   0  0  0  0  0  0  0  0  0  0  0  0
  186.1310  177.9340  145.9680 C   0  0  0  0  0  2  0  0  0  0  0  0
  187.9540  178.0880  141.5180 N   0  0  0  0  0  0  0  0  0  0  0  0
  189.2150  177.0710  143.5340 O   0  0  0  0  0  0  0  0  0  0  0  0
  187.5450  178.4610  147.9370 C   0  0  0  0  0  2  0  0  0  0  0  0
  187.0240  177.9630  143.6350 N   0  0  0  0  0  0  0  0  0  0  0  0
  187.4350  178.5710  146.4090 C   0  0  1  0  0  3  0  0  0  0  0  0
  188.0910  178.2750  140.0810 C   0  0  0  0  0  2  0  0  0  0  0  0
  189.6760  178.1240  138.3340 F   0  0  0  0  0  0  0  0  0  0  0  0
  189.4070  177.6900  139.6180 C   0  0  0  0  0  2  0  0  0  0  0  0
  185.3270  178.5260  140.2510 C   0  0  0  0  0  2  0  0  0  0  0  0
  184.7100  179.8070  139.9590 N   0  0  0  0  0  2  0  0  0  0  0  0
  183.9550  179.6380  138.7300 C   0  0  0  0  0  2  0  0  0  0  0  0
  183.5210  178.1910  138.5860 C   0  0  0  0  0  2  0  0  0  0  0  0
  183.8000  177.7010  137.1760 C   0  0  0  0  0  2  0  0  0  0  0  0
  186.2190  176.9720  137.0490 C   0  0  0  0  0  0  0  0  0  0  0  0
  184.8300  176.6730  137.1990 N   0  0  0  0  0  2  0  0  0  0  0  0
  187.2170  175.8730  137.1060 C   0  0  0  0  0  1  0  0  0  0  0  0
  186.6060  178.1570  136.8640 O   0  0  0  0  0  0  0  0  0  0  0  0
  1 19  1  0  0  0  0
  2  3  1  0  0  0  0
  3 13  2  0  0  0  0
  4  5  1  0  0  0  0
  5 12  1  1  0  0  0
  5 20  1  0  0  0  0
  7  9  1  0  0  0  0
  7  2  2  0  0  0  0
  8  1  1  0  0  0  0
  8  9  2  0  0  0  0
  9 14  1  0  0  0  0
 10 15  1  0  0  0  0
 11  6  1  0  0  0  0
 12 11  1  0  0  0  0
 14 10  2  0  0  0  0
 14 13  1  0  0  0  0
 16  1  2  0  0  0  0
 17  4  2  0  0  0  0
 18  6  1  0  0  0  0
 19  4  1  0  0  0  0
 19 10  1  0  0  0  0
 20 15  1  6  0  0  0
 20 18  1  0  0  0  0
 21 16  1  0  0  0  0
 22 23  1  0  0  0  0
 23 21  1  0  0  0  0
 24  8  1  0  0  0  0
 25 24  1  0  0  0  0
 26 25  1  0  0  0  0
 27 26  1  0  0  0  0
 28 30  1  0  0  0  0
 28 27  1  0  0  0  0
 29 31  1  0  0  0  0
 29 30  1  0  0  0  0
 32 29  2  0  0  0  0
M  END
>  <MODEL>
3

>  <REMARK>
 VINA RESULT:      -8.2      2.194      7.207
  Name = 
  8 active torsions:
  status: ('A' for Active; 'I' for Inactive)
    1  A    between atoms: C_2  and  C_12
    2  A    between atoms: C_2  and  C_24
    3  A    between atoms: C_8  and  C_23
    4  A    between atoms: C_8  and  N_28
    5  A    between atoms: C_9  and  C_14
    6  A    between atoms: C_9  and  N_21
    7  A    between atoms: N_10  and  C_24
    8  A    between atoms: C_12  and  N_21
                            x       y       z     vdW  Elec       q    Type
                         _______ _______ _______ _____ _____    ______ ____

>  <TORSDO>
F 8

$$$$
=
 OpenBabel11052416523D

 32 35  0  0  1  0  0  0  0  0999 V2000
  186.5510  178.2790  141.2570 C   0  0  0  0  0  0  0  0  0  0  0  0
  183.0730  179.0840  144.5370 N   0  0  0  0  0  0  0  0  0  0  0  0
  183.9090  178.7120  145.5400 C   0  0  0  0  0  3  0  0  0  0  0  0
  188.7320  177.3790  142.0140 C   0  0  0  0  0  0  0  0  0  0  0  0
  189.8010  177.4080  143.0760 C   0  0  2  0  0  3  0  0  0  0  0  0
  191.6190  177.2840  145.1710 C   0  0  0  0  0  2  0  0  0  0  0  0
  183.4760  179.0800  143.2390 C   0  0  0  0  0  3  0  0  0  0  0  0
  185.2140  178.6860  141.5570 C   0  0  0  0  0  0  0  0  0  0  0  0
  184.7810  178.6860  142.8930 C   0  0  0  0  0  0  0  0  0  0  0  0
  186.9600  177.8930  143.5930 C   0  0  0  0  0  0  0  0  0  0  0  0
  191.6710  176.1080  144.1870 C   0  0  0  0  0  2  0  0  0  0  0  0
  190.4600  176.0380  143.2450 C   0  0  0  0  0  2  0  0  0  0  0  0
  185.2120  178.3130  145.2490 C   0  0  0  0  0  3  0  0  0  0  0  0
  185.6580  178.2970  143.9180 C   0  0  0  0  0  0  0  0  0  0  0  0
  187.8830  177.4490  144.6960 C   0  0  0  0  0  2  0  0  0  0  0  0
  187.0370  178.3180  140.0400 N   0  0  0  0  0  0  0  0  0  0  0  0
  189.0400  176.9160  140.8810 O   0  0  0  0  0  0  0  0  0  0  0  0
  190.1850  177.5670  145.6100 C   0  0  0  0  0  2  0  0  0  0  0  0
  187.3800  177.8560  142.2830 N   0  0  0  0  0  0  0  0  0  0  0  0
  189.2880  177.9500  144.4250 C   0  0  1  0  0  3  0  0  0  0  0  0
  186.4040  178.7510  138.8020 C   0  0  0  0  0  2  0  0  0  0  0  0
  187.1570  178.8750  136.5660 F   0  0  0  0  0  0  0  0  0  0  0  0
  187.0190  178.0110  137.6350 C   0  0  0  0  0  2  0  0  0  0  0  0
  184.2210  179.0700  140.4950 C   0  0  0  0  0  2  0  0  0  0  0  0
  183.6160  177.8750  139.9340 N   0  0  0  0  0  2  0  0  0  0  0  0
  182.1840  177.9960  140.1380 C   0  0  0  0  0  2  0  0  0  0  0  0
  181.7560  179.4390  139.9500 C   0  0  0  0  0  2  0  0  0  0  0  0
  180.2850  179.5960  140.2950 C   0  0  0  0  0  2  0  0  0  0  0  0
  179.8530  179.5730  142.7870 C   0  0  0  0  0  0  0  0  0  0  0  0
  179.9860  178.8970  141.5360 N   0  0  0  0  0  2  0  0  0  0  0  0
  179.5240  178.7970  144.0110 C   0  0  0  0  0  1  0  0  0  0  0  0
  180.0160  180.8200  142.8660 O   0  0  0  0  0  0  0  0  0  0  0  0
  1  8  1  0  0  0  0
  1 19  1  0  0  0  0
  2  3  1  0  0  0  0
  4 19  1  0  0  0  0
  4  5  1  0  0  0  0
  5 12  1  1  0  0  0
  5 20  1  0  0  0  0
  6 18  1  0  0  0  0
  7  2  2  0  0  0  0
  8  9  2  0  0  0  0
  9  7  1  0  0  0  0
  9 14  1  0  0  0  0
 10 14  2  0  0  0  0
 10 15  1  0  0  0  0
 11  6  1  0  0  0  0
 12 11  1  0  0  0  0
 13  3  2  0  0  0  0
 14 13  1  0  0  0  0
 16  1  2  0  0  0  0
 17  4  2  0  0  0  0
 19 10  1  0  0  0  0
 20 15  1  1  0  0  0
 20 18  1  0  0  0  0
 21 16  1  0  0  0  0
 22 23  1  0  0  0  0
 23 21  1  0  0  0  0
 24  8  1  0  0  0  0
 25 26  1  0  0  0  0
 25 24  1  0  0  0  0
 27 26  1  0  0  0  0
 27 28  1  0  0  0  0
 28 30  1  0  0  0  0
 29 32  2  0  0  0  0
 29 31  1  0  0  0  0
 30 29  1  0  0  0  0
M  END
>  <MODEL>
4

>  <REMARK>
 VINA RESULT:      -8.1      2.602      7.350
  Name = 
  8 active torsions:
  status: ('A' for Active; 'I' for Inactive)
    1  A    between atoms: C_2  and  C_12
    2  A    between atoms: C_2  and  C_24
    3  A    between atoms: C_8  and  C_23
    4  A    between atoms: C_8  and  N_28
    5  A    between atoms: C_9  and  C_14
    6  A    between atoms: C_9  and  N_21
    7  A    between atoms: N_10  and  C_24
    8  A    between atoms: C_12  and  N_21
                            x       y       z     vdW  Elec       q    Type
                         _______ _______ _______ _____ _____    ______ ____

>  <TORSDO>
F 8

$$$$
=
 OpenBabel11052416523D

 32 35  0  0  1  0  0  0  0  0999 V2000
  187.7670  177.8890  142.8220 C   0  0  0  0  0  0  0  0  0  0  0  0
  183.8550  179.0030  145.4600 N   0  0  0  0  0  0  0  0  0  0  0  0
  184.4910  178.6200  146.5960 C   0  0  0  0  0  3  0  0  0  0  0  0
  189.7350  176.8940  143.9510 C   0  0  0  0  0  0  0  0  0  0  0  0
  190.6160  176.9000  145.1750 C   0  0  2  0  0  3  0  0  0  0  0  0
  192.0550  176.7460  147.5440 C   0  0  0  0  0  2  0  0  0  0  0  0
  184.4640  178.9310  144.2470 C   0  0  0  0  0  3  0  0  0  0  0  0
  186.4270  178.3810  142.8870 C   0  0  0  0  0  0  0  0  0  0  0  0
  185.7810  178.4530  144.1320 C   0  0  0  0  0  0  0  0  0  0  0  0
  187.7640  177.5620  145.2020 C   0  0  0  0  0  0  0  0  0  0  0  0
  192.1950  175.5360  146.6120 C   0  0  0  0  0  2  0  0  0  0  0  0
  191.1530  175.5010  145.4850 C   0  0  0  0  0  2  0  0  0  0  0  0
  185.7980  178.1380  146.5350 C   0  0  0  0  0  3  0  0  0  0  0  0
  186.4530  178.0510  145.2970 C   0  0  0  0  0  0  0  0  0  0  0  0
  188.4640  177.1050  146.4530 C   0  0  0  0  0  2  0  0  0  0  0  0
  188.4470  177.8580  141.7020 N   0  0  0  0  0  0  0  0  0  0  0  0
  190.1950  176.3750  142.8970 O   0  0  0  0  0  0  0  0  0  0  0  0
  190.5890  177.1250  147.7330 C   0  0  0  0  0  2  0  0  0  0  0  0
  188.3890  177.4560  143.9820 N   0  0  0  0  0  0  0  0  0  0  0  0
  189.9230  177.5160  146.4060 C   0  0  1  0  0  3  0  0  0  0  0  0
  188.0530  178.2830  140.3660 C   0  0  0  0  0  2  0  0  0  0  0  0
  189.0740  179.0830  138.3910 F   0  0  0  0  0  0  0  0  0  0  0  0
  189.2440  178.1970  139.4370 C   0  0  0  0  0  2  0  0  0  0  0  0
  185.6460  178.7830  141.6650 C   0  0  0  0  0  2  0  0  0  0  0  0
  184.5260  177.8780  141.4790 N   0  0  0  0  0  2  0  0  0  0  0  0
  183.5660  178.5680  140.6360 C   0  0  0  0  0  2  0  0  0  0  0  0
  182.9090  177.5830  139.6880 C   0  0  0  0  0  2  0  0  0  0  0  0
  183.1350  178.0130  138.2490 C   0  0  0  0  0  2  0  0  0  0  0  0
  185.5710  177.8270  137.5950 C   0  0  0  0  0  0  0  0  0  0  0  0
  184.2540  177.2790  137.6790 N   0  0  0  0  0  2  0  0  0  0  0  0
  186.6710  177.0110  137.0200 C   0  0  0  0  0  1  0  0  0  0  0  0
  185.8080  178.9970  137.9980 O   0  0  0  0  0  0  0  0  0  0  0  0
  1  8  1  0  0  0  0
  1 19  1  0  0  0  0
  2  3  1  0  0  0  0
  4 19  1  0  0  0  0
  4  5  1  0  0  0  0
  5 12  1  1  0  0  0
  5 20  1  0  0  0  0
  6 18  1  0  0  0  0
  7  2  2  0  0  0  0
  8  9  2  0  0  0  0
  9  7  1  0  0  0  0
  9 14  1  0  0  0  0
 10 14  2  0  0  0  0
 10 15  1  0  0  0  0
 11  6  1  0  0  0  0
 12 11  1  0  0  0  0
 13  3  2  0  0  0  0
 14 13  1  0  0  0  0
 16  1  2  0  0  0  0
 17  4  2  0  0  0  0
 19 10  1  0  0  0  0
 20 15  1  1  0  0  0
 20 18  1  0  0  0  0
 21 16  1  0  0  0  0
 22 23  1  0  0  0  0
 23 21  1  0  0  0  0
 24  8  1  0  0  0  0
 25 24  1  0  0  0  0
 26 25  1  0  0  0  0
 27 26  1  0  0  0  0
 28 27  1  0  0  0  0
 29 30  1  0  0  0  0
 29 32  2  0  0  0  0
 30 28  1  0  0  0  0
 31 29  1  0  0  0  0
M  END
>  <MODEL>
5

>  <REMARK>
 VINA RESULT:      -8.0      1.889      7.441
  Name = 
  8 active torsions:
  status: ('A' for Active; 'I' for Inactive)
    1  A    between atoms: C_2  and  C_12
    2  A    between atoms: C_2  and  C_24
    3  A    between atoms: C_8  and  C_23
    4  A    between atoms: C_8  and  N_28
    5  A    between atoms: C_9  and  C_14
    6  A    between atoms: C_9  and  N_21
    7  A    between atoms: N_10  and  C_24
    8  A    between atoms: C_12  and  N_21
                            x       y       z     vdW  Elec       q    Type
                         _______ _______ _______ _____ _____    ______ ____

>  <TORSDO>
F 8

$$$$
=
 OpenBabel11052416523D

 32 35  0  0  1  0  0  0  0  0999 V2000
  184.1250  178.6100  143.1340 C   0  0  0  0  0  0  0  0  0  0  0  0
  186.9680  178.5200  139.2090 N   0  0  0  0  0  0  0  0  0  0  0  0
  188.0690  178.3640  139.9890 C   0  0  0  0  0  3  0  0  0  0  0  0
  185.1700  178.4930  145.3780 C   0  0  0  0  0  0  0  0  0  0  0  0
  186.2500  177.8750  146.2290 C   0  0  2  0  0  3  0  0  0  0  0  0
  188.4070  176.9290  147.6990 C   0  0  0  0  0  2  0  0  0  0  0  0
  185.7260  178.6230  139.7490 C   0  0  0  0  0  3  0  0  0  0  0  0
  184.2610  178.6680  141.7130 C   0  0  0  0  0  0  0  0  0  0  0  0
  185.5400  178.5720  141.1410 C   0  0  0  0  0  0  0  0  0  0  0  0
  186.5050  178.3690  143.3540 C   0  0  0  0  0  0  0  0  0  0  0  0
  187.7130  178.1680  148.2770 C   0  0  0  0  0  2  0  0  0  0  0  0
  186.7530  178.8520  147.2930 C   0  0  0  0  0  2  0  0  0  0  0  0
  187.9380  178.3080  141.3750 C   0  0  0  0  0  3  0  0  0  0  0  0
  186.6680  178.4130  141.9630 C   0  0  0  0  0  0  0  0  0  0  0  0
  187.7240  178.2290  144.2260 C   0  0  0  0  0  2  0  0  0  0  0  0
  182.9560  178.6290  143.7260 N   0  0  0  0  0  0  0  0  0  0  0  0
  184.1850  179.0180  145.9670 O   0  0  0  0  0  0  0  0  0  0  0  0
  188.7010  177.1090  146.2120 C   0  0  0  0  0  2  0  0  0  0  0  0
  185.2600  178.4990  143.9220 N   0  0  0  0  0  0  0  0  0  0  0  0
  187.4170  177.3120  145.3950 C   0  0  1  0  0  3  0  0  0  0  0  0
  181.6230  178.7000  143.1440 C   0  0  0  0  0  2  0  0  0  0  0  0
  180.0170  177.4210  144.3150 F   0  0  0  0  0  0  0  0  0  0  0  0
  180.5880  178.6770  144.2470 C   0  0  0  0  0  2  0  0  0  0  0  0
  183.0920  178.8820  140.7910 C   0  0  0  0  0  2  0  0  0  0  0  0
  182.7390  177.6300  140.1470 N   0  0  0  0  0  2  0  0  0  0  0  0
  181.9090  177.9660  139.0050 C   0  0  0  0  0  2  0  0  0  0  0  0
  182.0690  179.4350  138.6640 C   0  0  0  0  0  2  0  0  0  0  0  0
  180.8190  179.9490  137.9710 C   0  0  0  0  0  2  0  0  0  0  0  0
  180.6750  182.4430  137.5750 C   0  0  0  0  0  0  0  0  0  0  0  0
  181.1300  181.1430  137.1990 N   0  0  0  0  0  2  0  0  0  0  0  0
  181.0510  183.6210  136.7500 C   0  0  0  0  0  1  0  0  0  0  0  0
  179.9540  182.6020  138.5960 O   0  0  0  0  0  0  0  0  0  0  0  0
  1 16  2  0  0  0  0
  1 19  1  0  0  0  0
  2  7  2  0  0  0  0
  2  3  1  0  0  0  0
  3 13  2  0  0  0  0
  4 17  2  0  0  0  0
  4  5  1  0  0  0  0
  5 12  1  1  0  0  0
  6 11  1  0  0  0  0
  7  9  1  0  0  0  0
  8  1  1  0  0  0  0
  9  8  2  0  0  0  0
  9 14  1  0  0  0  0
 10 19  1  0  0  0  0
 10 15  1  0  0  0  0
 12 11  1  0  0  0  0
 13 14  1  0  0  0  0
 14 10  2  0  0  0  0
 18  6  1  0  0  0  0
 19  4  1  0  0  0  0
 20 15  1  6  0  0  0
 20 18  1  0  0  0  0
 20  5  1  0  0  0  0
 21 16  1  0  0  0  0
 21 23  1  0  0  0  0
 23 22  1  0  0  0  0
 24  8  1  0  0  0  0
 25 24  1  0  0  0  0
 26 25  1  0  0  0  0
 27 26  1  0  0  0  0
 28 27  1  0  0  0  0
 29 32  2  0  0  0  0
 30 29  1  0  0  0  0
 30 28  1  0  0  0  0
 31 29  1  0  0  0  0
M  END
>  <MODEL>
6

>  <REMARK>
 VINA RESULT:      -8.0      3.532      8.991
  Name = 
  8 active torsions:
  status: ('A' for Active; 'I' for Inactive)
    1  A    between atoms: C_2  and  C_12
    2  A    between atoms: C_2  and  C_24
    3  A    between atoms: C_8  and  C_23
    4  A    between atoms: C_8  and  N_28
    5  A    between atoms: C_9  and  C_14
    6  A    between atoms: C_9  and  N_21
    7  A    between atoms: N_10  and  C_24
    8  A    between atoms: C_12  and  N_21
                            x       y       z     vdW  Elec       q    Type
                         _______ _______ _______ _____ _____    ______ ____

>  <TORSDO>
F 8

$$$$
=
 OpenBabel11052416523D

 32 35  0  0  1  0  0  0  0  0999 V2000
  184.0150  178.6820  142.9150 C   0  0  0  0  0  0  0  0  0  0  0  0
  186.9070  178.4430  139.0310 N   0  0  0  0  0  0  0  0  0  0  0  0
  187.9920  178.2740  139.8290 C   0  0  0  0  0  3  0  0  0  0  0  0
  185.0260  178.5820  145.1740 C   0  0  0  0  0  0  0  0  0  0  0  0
  186.0790  177.9540  146.0520 C   0  0  2  0  0  3  0  0  0  0  0  0
  188.1910  176.9820  147.5690 C   0  0  0  0  0  2  0  0  0  0  0  0
  185.6600  178.5880  139.5520 C   0  0  0  0  0  3  0  0  0  0  0  0
  184.1710  178.7080  141.4940 C   0  0  0  0  0  0  0  0  0  0  0  0
  185.4550  178.5690  140.9420 C   0  0  0  0  0  0  0  0  0  0  0  0
  186.3850  178.3850  143.1720 C   0  0  0  0  0  0  0  0  0  0  0  0
  187.5220  178.2490  148.1140 C   0  0  0  0  0  2  0  0  0  0  0  0
  186.5920  178.9380  147.1040 C   0  0  0  0  0  2  0  0  0  0  0  0
  187.8420  178.2490  141.2140 C   0  0  0  0  0  3  0  0  0  0  0  0
  186.5670  178.3970  141.7820 C   0  0  0  0  0  0  0  0  0  0  0  0
  187.5880  178.2300  144.0640 C   0  0  0  0  0  2  0  0  0  0  0  0
  182.8380  178.7410  143.4900 N   0  0  0  0  0  0  0  0  0  0  0  0
  184.0470  179.1430  145.7400 O   0  0  0  0  0  0  0  0  0  0  0  0
  188.5100  177.1250  146.0830 C   0  0  0  0  0  2  0  0  0  0  0  0
  185.1350  178.5570  143.7200 N   0  0  0  0  0  0  0  0  0  0  0  0
  187.2420  177.3450  145.2450 C   0  0  1  0  0  3  0  0  0  0  0  0
  181.5160  178.8340  142.8880 C   0  0  0  0  0  2  0  0  0  0  0  0
  180.0560  177.4700  144.1500 F   0  0  0  0  0  0  0  0  0  0  0  0
  180.4620  178.7790  143.9720 C   0  0  0  0  0  2  0  0  0  0  0  0
  183.0210  178.9340  140.5520 C   0  0  0  0  0  2  0  0  0  0  0  0
  182.5950  177.6670  139.9860 N   0  0  0  0  0  2  0  0  0  0  0  0
  181.8220  177.9790  138.7970 C   0  0  0  0  0  2  0  0  0  0  0  0
  181.3120  176.6990  138.1620 C   0  0  0  0  0  2  0  0  0  0  0  0
  179.9420  176.3500  138.7190 C   0  0  0  0  0  2  0  0  0  0  0  0
  179.4730  174.9750  140.7880 C   0  0  0  0  0  0  0  0  0  0  0  0
  180.0110  175.1070  139.4720 N   0  0  0  0  0  2  0  0  0  0  0  0
  179.5590  173.6670  141.4890 C   0  0  0  0  0  1  0  0  0  0  0  0
  178.9310  175.9560  141.3640 O   0  0  0  0  0  0  0  0  0  0  0  0
  1 16  2  0  0  0  0
  1 19  1  0  0  0  0
  2  7  2  0  0  0  0
  2  3  1  0  0  0  0
  3 13  2  0  0  0  0
  4 17  2  0  0  0  0
  4  5  1  0  0  0  0
  5 12  1  1  0  0  0
  6 11  1  0  0  0  0
  7  9  1  0  0  0  0
  8  1  1  0  0  0  0
  9  8  2  0  0  0  0
  9 14  1  0  0  0  0
 10 19  1  0  0  0  0
 10 15  1  0  0  0  0
 12 11  1  0  0  0  0
 13 14  1  0  0  0  0
 14 10  2  0  0  0  0
 18  6  1  0  0  0  0
 19  4  1  0  0  0  0
 20 15  1  6  0  0  0
 20  5  1  0  0  0  0
 20 18  1  0  0  0  0
 21 16  1  0  0  0  0
 21 23  1  0  0  0  0
 23 22  1  0  0  0  0
 24  8  1  0  0  0  0
 25 24  1  0  0  0  0
 26 25  1  0  0  0  0
 27 28  1  0  0  0  0
 27 26  1  0  0  0  0
 28 30  1  0  0  0  0
 29 32  2  0  0  0  0
 29 31  1  0  0  0  0
 30 29  1  0  0  0  0
M  END
>  <MODEL>
7

>  <REMARK>
 VINA RESULT:      -8.0      3.694      8.614
  Name = 
  8 active torsions:
  status: ('A' for Active; 'I' for Inactive)
    1  A    between atoms: C_2  and  C_12
    2  A    between atoms: C_2  and  C_24
    3  A    between atoms: C_8  and  C_23
    4  A    between atoms: C_8  and  N_28
    5  A    between atoms: C_9  and  C_14
    6  A    between atoms: C_9  and  N_21
    7  A    between atoms: N_10  and  C_24
    8  A    between atoms: C_12  and  N_21
                            x       y       z     vdW  Elec       q    Type
                         _______ _______ _______ _____ _____    ______ ____

>  <TORSDO>
F 8

$$$$
=
 OpenBabel11052416523D

 32 35  0  0  1  0  0  0  0  0999 V2000
  186.8900  178.0500  142.3460 C   0  0  0  0  0  0  0  0  0  0  0  0
  182.1830  179.0060  142.9990 N   0  0  0  0  0  0  0  0  0  0  0  0
  182.3350  178.9180  144.3460 C   0  0  0  0  0  3  0  0  0  0  0  0
  188.3030  177.5610  144.3210 C   0  0  0  0  0  0  0  0  0  0  0  0
  188.6170  177.9030  145.7550 C   0  0  2  0  0  3  0  0  0  0  0  0
  188.9930  178.3660  148.4670 C   0  0  0  0  0  2  0  0  0  0  0  0
  183.2300  178.8200  142.1540 C   0  0  0  0  0  3  0  0  0  0  0  0
  185.6060  178.3430  141.7910 C   0  0  0  0  0  0  0  0  0  0  0  0
  184.5120  178.5280  142.6510 C   0  0  0  0  0  0  0  0  0  0  0  0
  185.9560  178.1340  144.5570 C   0  0  0  0  0  0  0  0  0  0  0  0
  189.5770  177.0500  147.9400 C   0  0  0  0  0  2  0  0  0  0  0  0
  189.0790  176.6720  146.5370 C   0  0  0  0  0  2  0  0  0  0  0  0
  183.5850  178.6300  144.8890 C   0  0  0  0  0  3  0  0  0  0  0  0
  184.6870  178.4330  144.0410 C   0  0  0  0  0  0  0  0  0  0  0  0
  186.1250  178.0030  146.0470 C   0  0  0  0  0  2  0  0  0  0  0  0
  187.9630  177.9300  141.6020 N   0  0  0  0  0  0  0  0  0  0  0  0
  189.1820  176.9450  143.6570 O   0  0  0  0  0  0  0  0  0  0  0  0
  187.5510  178.5520  148.0000 C   0  0  0  0  0  2  0  0  0  0  0  0
  187.0240  177.9160  143.7180 N   0  0  0  0  0  0  0  0  0  0  0  0
  187.4490  178.6100  146.4700 C   0  0  1  0  0  3  0  0  0  0  0  0
  188.1090  178.0600  140.1590 C   0  0  0  0  0  2  0  0  0  0  0  0
  190.3490  177.5630  140.7260 F   0  0  0  0  0  0  0  0  0  0  0  0
  189.4100  177.4210  139.7230 C   0  0  0  0  0  2  0  0  0  0  0  0
  185.3560  178.4130  140.3090 C   0  0  0  0  0  2  0  0  0  0  0  0
  184.9300  179.7530  139.9460 N   0  0  0  0  0  2  0  0  0  0  0  0
  184.1240  179.6250  138.7450 C   0  0  0  0  0  2  0  0  0  0  0  0
  183.8180  178.1630  138.4820 C   0  0  0  0  0  2  0  0  0  0  0  0
  182.3870  178.0090  137.9960 C   0  0  0  0  0  2  0  0  0  0  0  0
  180.8620  176.9560  139.7160 C   0  0  0  0  0  0  0  0  0  0  0  0
  181.4650  178.1040  139.1180 N   0  0  0  0  0  2  0  0  0  0  0  0
  179.9470  177.1260  140.8750 C   0  0  0  0  0  1  0  0  0  0  0  0
  181.0930  175.8000  139.2700 O   0  0  0  0  0  0  0  0  0  0  0  0
  1 19  1  0  0  0  0
  2  3  1  0  0  0  0
  3 13  2  0  0  0  0
  4  5  1  0  0  0  0
  5 20  1  0  0  0  0
  5 12  1  1  0  0  0
  7  9  1  0  0  0  0
  7  2  2  0  0  0  0
  8  1  1  0  0  0  0
  8  9  2  0  0  0  0
  9 14  1  0  0  0  0
 10 15  1  0  0  0  0
 11  6  1  0  0  0  0
 12 11  1  0  0  0  0
 14 10  2  0  0  0  0
 14 13  1  0  0  0  0
 16  1  2  0  0  0  0
 17  4  2  0  0  0  0
 18  6  1  0  0  0  0
 19  4  1  0  0  0  0
 19 10  1  0  0  0  0
 20 15  1  1  0  0  0
 20 18  1  0  0  0  0
 21 16  1  0  0  0  0
 23 21  1  0  0  0  0
 23 22  1  0  0  0  0
 24  8  1  0  0  0  0
 25 24  1  0  0  0  0
 26 25  1  0  0  0  0
 27 26  1  0  0  0  0
 28 27  1  0  0  0  0
 28 30  1  0  0  0  0
 29 31  1  0  0  0  0
 30 29  1  0  0  0  0
 32 29  2  0  0  0  0
M  END
>  <MODEL>
8

>  <REMARK>
 VINA RESULT:      -7.9      2.254      7.376
  Name = 
  8 active torsions:
  status: ('A' for Active; 'I' for Inactive)
    1  A    between atoms: C_2  and  C_12
    2  A    between atoms: C_2  and  C_24
    3  A    between atoms: C_8  and  C_23
    4  A    between atoms: C_8  and  N_28
    5  A    between atoms: C_9  and  C_14
    6  A    between atoms: C_9  and  N_21
    7  A    between atoms: N_10  and  C_24
    8  A    between atoms: C_12  and  N_21
                            x       y       z     vdW  Elec       q    Type
                         _______ _______ _______ _____ _____    ______ ____

>  <TORSDO>
F 8

$$$$
=
 OpenBabel11052416523D

 32 35  0  0  1  0  0  0  0  0999 V2000
  189.8060  177.0030  142.3560 C   0  0  0  0  0  0  0  0  0  0  0  0
  185.2410  178.4650  143.0810 N   0  0  0  0  0  0  0  0  0  0  0  0
  185.4050  178.3680  144.4260 C   0  0  0  0  0  3  0  0  0  0  0  0
  191.1910  176.3740  144.3110 C   0  0  0  0  0  0  0  0  0  0  0  0
  191.5650  176.6870  145.7380 C   0  0  2  0  0  3  0  0  0  0  0  0
  192.0340  177.1190  148.4400 C   0  0  0  0  0  2  0  0  0  0  0  0
  186.2480  178.1640  142.2200 C   0  0  0  0  0  3  0  0  0  0  0  0
  188.5520  177.4310  141.8200 C   0  0  0  0  0  0  0  0  0  0  0  0
  187.4990  177.7370  142.6980 C   0  0  0  0  0  0  0  0  0  0  0  0
  188.9240  177.1980  144.5820 C   0  0  0  0  0  0  0  0  0  0  0  0
  192.4640  175.7440  147.9120 C   0  0  0  0  0  2  0  0  0  0  0  0
  191.9040  175.4160  146.5200 C   0  0  0  0  0  2  0  0  0  0  0  0
  186.6270  177.9490  144.9500 C   0  0  0  0  0  3  0  0  0  0  0  0
  187.6860  177.6300  144.0850 C   0  0  0  0  0  0  0  0  0  0  0  0
  189.1030  177.0570  146.0700 C   0  0  0  0  0  2  0  0  0  0  0  0
  190.8460  176.7660  141.5950 N   0  0  0  0  0  0  0  0  0  0  0  0
  191.9870  175.6630  143.6370 O   0  0  0  0  0  0  0  0  0  0  0  0
  190.6140  177.4570  147.9960 C   0  0  0  0  0  2  0  0  0  0  0  0
  189.9470  176.8620  143.7270 N   0  0  0  0  0  0  0  0  0  0  0  0
  190.4920  177.5190  146.4670 C   0  0  1  0  0  3  0  0  0  0  0  0
  190.9810  176.8720  140.1490 C   0  0  0  0  0  2  0  0  0  0  0  0
  193.2510  177.1240  140.7560 F   0  0  0  0  0  0  0  0  0  0  0  0
  192.3160  177.4990  139.8110 C   0  0  0  0  0  2  0  0  0  0  0  0
  188.2850  177.5210  140.3430 C   0  0  0  0  0  2  0  0  0  0  0  0
  188.5830  178.8610  139.8710 N   0  0  0  0  0  2  0  0  0  0  0  0
  188.5190  178.8180  138.4210 C   0  0  0  0  0  2  0  0  0  0  0  0
  187.7100  177.6140  137.9760 C   0  0  0  0  0  2  0  0  0  0  0  0
  186.4310  178.0690  137.2940 C   0  0  0  0  0  2  0  0  0  0  0  0
  184.5660  178.5290  138.9400 C   0  0  0  0  0  0  0  0  0  0  0  0
  185.2740  177.6450  138.0700 N   0  0  0  0  0  2  0  0  0  0  0  0
  183.3790  178.0330  139.6840 C   0  0  0  0  0  1  0  0  0  0  0  0
  184.9390  179.7230  139.0880 O   0  0  0  0  0  0  0  0  0  0  0  0
  1 19  1  0  0  0  0
  2  3  1  0  0  0  0
  3 13  2  0  0  0  0
  4  5  1  0  0  0  0
  5 20  1  0  0  0  0
  5 12  1  1  0  0  0
  7  9  1  0  0  0  0
  7  2  2  0  0  0  0
  8  1  1  0  0  0  0
  8  9  2  0  0  0  0
  9 14  1  0  0  0  0
 10 15  1  0  0  0  0
 11  6  1  0  0  0  0
 12 11  1  0  0  0  0
 14 10  2  0  0  0  0
 14 13  1  0  0  0  0
 16  1  2  0  0  0  0
 17  4  2  0  0  0  0
 18  6  1  0  0  0  0
 19  4  1  0  0  0  0
 19 10  1  0  0  0  0
 20 15  1  1  0  0  0
 20 18  1  0  0  0  0
 21 16  1  0  0  0  0
 23 21  1  0  0  0  0
 23 22  1  0  0  0  0
 24  8  1  0  0  0  0
 25 24  1  0  0  0  0
 26 25  1  0  0  0  0
 27 26  1  0  0  0  0
 28 27  1  0  0  0  0
 28 30  1  0  0  0  0
 29 32  2  0  0  0  0
 29 31  1  0  0  0  0
 30 29  1  0  0  0  0
M  END
>  <MODEL>
9

>  <REMARK>
 VINA RESULT:      -7.9      2.034      7.471
  Name = 
  8 active torsions:
  status: ('A' for Active; 'I' for Inactive)
    1  A    between atoms: C_2  and  C_12
    2  A    between atoms: C_2  and  C_24
    3  A    between atoms: C_8  and  C_23
    4  A    between atoms: C_8  and  N_28
    5  A    between atoms: C_9  and  C_14
    6  A    between atoms: C_9  and  N_21
    7  A    between atoms: N_10  and  C_24
    8  A    between atoms: C_12  and  N_21
                            x       y       z     vdW  Elec       q    Type
                         _______ _______ _______ _____ _____    ______ ____

>  <TORSDO>
F 8

$$$$
