=
 OpenBabel11052417033D

 32 37  0  0  1  0  0  0  0  0999 V2000
  189.2080  177.3320  142.3350 C   0  0  0  0  0  0  0  0  0  0  0  0
  189.9890  177.4740  137.6810 C   0  0  1  0  0  3  0  0  0  0  0  0
  186.3390  178.2440  137.8360 C   0  0  0  0  0  2  0  0  0  0  0  0
  189.3160  175.0000  137.4120 C   0  0  1  0  0  3  0  0  0  0  0  0
  188.1510  174.2770  136.7980 C   0  0  0  0  0  0  0  0  0  0  0  0
  190.5460  177.1500  139.8990 C   0  0  0  0  0  0  0  0  0  0  0  0
  188.6870  179.3500  138.4580 O   0  0  0  0  0  1  0  0  0  0  0  0
  185.9460  172.9570  135.6820 C   0  0  0  0  0  3  0  0  0  0  0  0
  188.5700  177.7370  141.1500 C   0  0  0  0  0  3  0  0  0  0  0  0
  186.8410  177.1590  136.9080 C   0  0  2  0  0  3  0  0  0  0  0  0
  188.7790  177.9560  138.5650 C   0  0  1  0  0  0  0  0  0  0  0  0
  187.4020  177.2610  138.3320 C   0  0  1  0  0  3  0  0  0  0  0  0
  188.9150  176.7350  135.4680 C   0  0  2  0  0  3  0  0  0  0  0  0
  186.2580  172.7770  137.0300 C   0  0  0  0  0  3  0  0  0  0  0  0
  190.5280  176.8240  142.2800 C   0  0  0  0  0  3  0  0  0  0  0  0
  189.2560  177.6110  139.9370 C   0  0  0  0  0  0  0  0  0  0  0  0
  187.3650  173.4260  137.5870 C   0  0  0  0  0  3  0  0  0  0  0  0
  191.2050  176.7320  141.0510 C   0  0  0  0  0  3  0  0  0  0  0  0
  187.7730  177.7150  135.8280 C   0  0  1  0  0  3  0  0  0  0  0  0
  188.4150  175.5640  134.7410 N   0  0  0  0  0  2  0  0  0  0  0  0
  191.0780  177.1250  138.5920 N   0  0  0  0  0  2  0  0  0  0  0  0
  190.4090  174.1390  137.5260 O   0  0  0  0  0  1  0  0  0  0  0  0
  186.7220  173.8140  134.8960 C   0  0  0  0  0  3  0  0  0  0  0  0
  189.7470  176.3090  136.7000 C   0  0  1  0  0  3  0  0  0  0  0  0
  187.7980  174.4990  135.4600 C   0  0  0  0  0  0  0  0  0  0  0  0
  185.6940  177.6540  134.5940 O   0  0  0  0  0  1  0  0  0  0  0  0
  186.9890  178.1760  134.5940 C   0  0  0  0  0  2  0  0  0  0  0  0
  189.0730  177.2970  144.7330 C   0  0  0  0  0  3  0  0  0  0  0  0
  188.5100  177.4740  143.5810 N   0  0  0  0  0  0  0  0  0  0  0  0
  188.3100  177.5030  145.9720 C   0  0  0  0  0  0  0  0  0  0  0  0
  187.1510  177.9890  145.9160 O   0  0  0  0  0  0  0  0  0  0  0  0
  188.8660  177.1430  147.2340 N   0  0  0  0  0  1  0  0  0  0  0  0
  1 29  1  0  0  0  0
  2 11  1  0  0  0  0
  2 21  1  1  0  0  0
  4 22  1  6  0  0  0
  5  4  1  0  0  0  0
  5 17  1  0  0  0  0
  6 16  2  0  0  0  0
  6 18  1  0  0  0  0
  8 14  1  0  0  0  0
  9  1  2  0  0  0  0
 10  3  1  1  0  0  0
 10 12  1  0  0  0  0
 11  7  1  6  0  0  0
 11 16  1  0  0  0  0
 12  3  1  1  0  0  0
 12 11  1  0  0  0  0
 13 20  1  1  0  0  0
 13 19  1  0  0  0  0
 13 24  1  0  0  0  0
 14 17  2  0  0  0  0
 15  1  1  0  0  0  0
 16  9  1  0  0  0  0
 18 15  2  0  0  0  0
 19 27  1  6  0  0  0
 19 10  1  0  0  0  0
 20 25  1  0  0  0  0
 21  6  1  0  0  0  0
 23 25  1  0  0  0  0
 23  8  2  0  0  0  0
 24  4  1  0  0  0  0
 24  2  1  0  0  0  0
 25  5  2  0  0  0  0
 27 26  1  0  0  0  0
 28 30  1  0  0  0  0
 29 28  2  0  0  0  0
 30 32  1  0  0  0  0
 31 30  2  0  0  0  0
M  END
>  <MODEL>
1

>  <REMARK>
 VINA RESULT:      -7.3      0.000      0.000
  Name = 
  3 active torsions:
  status: ('A' for Active; 'I' for Inactive)
    1  A    between atoms: C_1  and  C_10
    2  A    between atoms: C_2  and  N_24
    3  A    between atoms: C_25  and  C_26
                            x       y       z     vdW  Elec       q    Type
                         _______ _______ _______ _____ _____    ______ ____

>  <TORSDO>
F 3

$$$$
=
 OpenBabel11052417033D

 32 37  0  0  1  0  0  0  0  0999 V2000
  188.8430  177.0990  142.5080 C   0  0  0  0  0  0  0  0  0  0  0  0
  190.1580  177.4410  137.9870 C   0  0  1  0  0  3  0  0  0  0  0  0
  186.4940  178.1090  137.7370 C   0  0  0  0  0  2  0  0  0  0  0  0
  189.5970  174.9620  137.5540 C   0  0  1  0  0  3  0  0  0  0  0  0
  188.5340  174.2330  136.7810 C   0  0  0  0  0  0  0  0  0  0  0  0
  190.4610  177.0460  140.2420 C   0  0  0  0  0  0  0  0  0  0  0  0
  188.7180  179.2510  138.6710 O   0  0  0  0  0  1  0  0  0  0  0  0
  186.5160  172.9010  135.3660 C   0  0  0  0  0  3  0  0  0  0  0  0
  188.3360  177.5330  141.2720 C   0  0  0  0  0  3  0  0  0  0  0  0
  187.1330  177.0740  136.8370 C   0  0  2  0  0  3  0  0  0  0  0  0
  188.8390  177.8570  138.7390 C   0  0  1  0  0  0  0  0  0  0  0  0
  187.5210  177.1350  138.3200 C   0  0  1  0  0  3  0  0  0  0  0  0
  189.3730  176.7600  135.6380 C   0  0  2  0  0  3  0  0  0  0  0  0
  186.6740  172.6760  136.7350 C   0  0  0  0  0  3  0  0  0  0  0  0
  190.1760  176.6290  142.5910 C   0  0  0  0  0  3  0  0  0  0  0  0
  189.1630  177.4710  140.1440 C   0  0  0  0  0  0  0  0  0  0  0  0
  187.6880  173.3330  137.4410 C   0  0  0  0  0  3  0  0  0  0  0  0
  190.9940  176.6010  141.4490 C   0  0  0  0  0  3  0  0  0  0  0  0
  188.1680  177.6950  135.8950 C   0  0  1  0  0  3  0  0  0  0  0  0
  188.9980  175.6050  134.8160 N   0  0  0  0  0  2  0  0  0  0  0  0
  191.1440  177.0850  139.0070 N   0  0  0  0  0  2  0  0  0  0  0  0
  190.6940  174.1260  137.7650 O   0  0  0  0  0  1  0  0  0  0  0  0
  187.3530  173.8070  134.7080 C   0  0  0  0  0  3  0  0  0  0  0  0
  190.0680  176.3080  136.9440 C   0  0  1  0  0  3  0  0  0  0  0  0
  188.3340  174.4980  135.4200 C   0  0  0  0  0  0  0  0  0  0  0  0
  186.1290  178.0950  134.6590 O   0  0  0  0  0  1  0  0  0  0  0  0
  187.5200  178.1830  134.5940 C   0  0  0  0  0  2  0  0  0  0  0  0
  186.9120  177.8750  143.7090 C   0  0  0  0  0  3  0  0  0  0  0  0
  188.0010  177.1750  143.6670 N   0  0  0  0  0  0  0  0  0  0  0  0
  186.0730  177.8710  144.9160 C   0  0  0  0  0  0  0  0  0  0  0  0
  186.4810  177.2940  145.9570 O   0  0  0  0  0  0  0  0  0  0  0  0
  184.8080  178.5280  144.9210 N   0  0  0  0  0  1  0  0  0  0  0  0
  1 15  1  0  0  0  0
  1 29  1  0  0  0  0
  2 11  1  0  0  0  0
  2 21  1  1  0  0  0
  4 22  1  6  0  0  0
  5 17  1  0  0  0  0
  5  4  1  0  0  0  0
  6 18  1  0  0  0  0
  8 14  1  0  0  0  0
  9  1  2  0  0  0  0
 10  3  1  1  0  0  0
 10 12  1  0  0  0  0
 11  7  1  6  0  0  0
 11 16  1  0  0  0  0
 12  3  1  1  0  0  0
 12 11  1  0  0  0  0
 13 20  1  1  0  0  0
 13 19  1  0  0  0  0
 13 24  1  0  0  0  0
 14 17  2  0  0  0  0
 16  6  2  0  0  0  0
 16  9  1  0  0  0  0
 18 15  2  0  0  0  0
 19 27  1  6  0  0  0
 19 10  1  0  0  0  0
 20 25  1  0  0  0  0
 21  6  1  0  0  0  0
 23  8  2  0  0  0  0
 23 25  1  0  0  0  0
 24  4  1  0  0  0  0
 24  2  1  0  0  0  0
 25  5  2  0  0  0  0
 27 26  1  0  0  0  0
 28 30  1  0  0  0  0
 29 28  2  0  0  0  0
 30 32  1  0  0  0  0
 30 31  2  0  0  0  0
M  END
>  <MODEL>
2

>  <REMARK>
 VINA RESULT:      -6.9      1.051      1.152
  Name = 
  3 active torsions:
  status: ('A' for Active; 'I' for Inactive)
    1  A    between atoms: C_1  and  C_10
    2  A    between atoms: C_2  and  N_24
    3  A    between atoms: C_25  and  C_26
                            x       y       z     vdW  Elec       q    Type
                         _______ _______ _______ _____ _____    ______ ____

>  <TORSDO>
F 3

$$$$
=
 OpenBabel11052417033D

 32 37  0  0  1  0  0  0  0  0999 V2000
  189.5320  177.5190  141.3340 C   0  0  0  0  0  0  0  0  0  0  0  0
  188.8310  177.1580  136.6800 C   0  0  1  0  0  3  0  0  0  0  0  0
  185.4200  178.1070  137.8640 C   0  0  0  0  0  2  0  0  0  0  0  0
  188.0760  174.7030  136.9040 C   0  0  1  0  0  3  0  0  0  0  0  0
  186.7690  173.9760  136.7610 C   0  0  0  0  0  0  0  0  0  0  0  0
  190.0450  177.0320  138.6400 C   0  0  0  0  0  0  0  0  0  0  0  0
  187.8590  179.1610  137.6090 O   0  0  0  0  0  1  0  0  0  0  0  0
  184.3090  172.6550  136.5280 C   0  0  0  0  0  3  0  0  0  0  0  0
  188.5640  177.8320  140.3660 C   0  0  0  0  0  3  0  0  0  0  0  0
  185.5940  176.9120  136.9520 C   0  0  2  0  0  3  0  0  0  0  0  0
  187.9620  177.7810  137.8350 C   0  0  1  0  0  0  0  0  0  0  0  0
  186.5720  177.1310  138.1130 C   0  0  1  0  0  3  0  0  0  0  0  0
  187.1130  176.2510  134.9990 C   0  0  2  0  0  3  0  0  0  0  0  0
  185.0220  172.5960  137.7260 C   0  0  0  0  0  3  0  0  0  0  0  0
  190.7640  176.9480  140.9320 C   0  0  0  0  0  3  0  0  0  0  0  0
  188.8370  177.5540  139.0220 C   0  0  0  0  0  0  0  0  0  0  0  0
  186.2560  173.2470  137.8410 C   0  0  0  0  0  3  0  0  0  0  0  0
  191.0240  176.7010  139.5730 C   0  0  0  0  0  3  0  0  0  0  0  0
  186.1520  177.3140  135.5830 C   0  0  1  0  0  3  0  0  0  0  0  0
  186.3970  175.0370  134.5940 N   0  0  0  0  0  2  0  0  0  0  0  0
  190.1440  176.8520  137.2440 N   0  0  0  0  0  2  0  0  0  0  0  0
  189.1390  173.8080  136.7700 O   0  0  0  0  0  1  0  0  0  0  0  0
  184.8140  173.3920  135.4520 C   0  0  0  0  0  3  0  0  0  0  0  0
  188.2810  175.9130  135.9540 C   0  0  1  0  0  3  0  0  0  0  0  0
  186.0200  174.0800  135.5800 C   0  0  0  0  0  0  0  0  0  0  0  0
  183.8180  177.1050  134.9860 O   0  0  0  0  0  1  0  0  0  0  0  0
  185.0290  177.6850  134.6070 C   0  0  0  0  0  2  0  0  0  0  0  0
  188.3410  177.2160  143.3990 C   0  0  0  0  0  3  0  0  0  0  0  0
  189.2580  177.8180  142.7110 N   0  0  0  0  0  0  0  0  0  0  0  0
  188.1450  177.5400  144.8180 C   0  0  0  0  0  0  0  0  0  0  0  0
  187.0360  177.9930  145.2060 O   0  0  0  0  0  0  0  0  0  0  0  0
  189.1930  177.3330  145.7620 N   0  0  0  0  0  1  0  0  0  0  0  0
  1 29  1  0  0  0  0
  2 21  1  1  0  0  0
  2 11  1  0  0  0  0
  4 22  1  6  0  0  0
  5  4  1  0  0  0  0
  5 17  1  0  0  0  0
  6 16  2  0  0  0  0
  6 18  1  0  0  0  0
  8 14  1  0  0  0  0
  9  1  2  0  0  0  0
 10  3  1  1  0  0  0
 10 12  1  0  0  0  0
 11  7  1  6  0  0  0
 11 12  1  0  0  0  0
 11 16  1  0  0  0  0
 12  3  1  1  0  0  0
 13 20  1  1  0  0  0
 13 19  1  0  0  0  0
 13 24  1  0  0  0  0
 14 17  2  0  0  0  0
 15  1  1  0  0  0  0
 16  9  1  0  0  0  0
 18 15  2  0  0  0  0
 19 27  1  6  0  0  0
 19 10  1  0  0  0  0
 20 25  1  0  0  0  0
 21  6  1  0  0  0  0
 23 25  1  0  0  0  0
 23  8  2  0  0  0  0
 24  2  1  0  0  0  0
 24  4  1  0  0  0  0
 25  5  2  0  0  0  0
 27 26  1  0  0  0  0
 28 30  1  0  0  0  0
 29 28  2  0  0  0  0
 30 31  2  0  0  0  0
 30 32  1  0  0  0  0
M  END
>  <MODEL>
3

>  <REMARK>
 VINA RESULT:      -6.8      1.286      1.481
  Name = 
  3 active torsions:
  status: ('A' for Active; 'I' for Inactive)
    1  A    between atoms: C_1  and  C_10
    2  A    between atoms: C_2  and  N_24
    3  A    between atoms: C_25  and  C_26
                            x       y       z     vdW  Elec       q    Type
                         _______ _______ _______ _____ _____    ______ ____

>  <TORSDO>
F 3

$$$$
=
 OpenBabel11052417033D

 32 37  0  0  1  0  0  0  0  0999 V2000
  184.6010  178.7600  142.7180 C   0  0  0  0  0  0  0  0  0  0  0  0
  180.5230  178.1440  140.4210 C   0  0  1  0  0  3  0  0  0  0  0  0
  182.9880  177.8490  137.6320 C   0  0  0  0  0  2  0  0  0  0  0  0
  180.3770  180.6530  139.8450 C   0  0  1  0  0  3  0  0  0  0  0  0
  180.5110  181.4630  138.5860 C   0  0  0  0  0  0  0  0  0  0  0  0
  181.8610  178.5760  142.2530 C   0  0  0  0  0  0  0  0  0  0  0  0
  182.1890  176.5140  139.8010 O   0  0  0  0  0  1  0  0  0  0  0  0
  180.8070  182.9510  136.2310 C   0  0  0  0  0  3  0  0  0  0  0  0
  184.1270  178.3430  141.4630 C   0  0  0  0  0  3  0  0  0  0  0  0
  181.8060  178.7850  137.4960 C   0  0  2  0  0  3  0  0  0  0  0  0
  182.0190  177.8900  140.0050 C   0  0  1  0  0  0  0  0  0  0  0  0
  182.5830  178.7290  138.8170 C   0  0  1  0  0  3  0  0  0  0  0  0
  179.3550  178.8290  138.2380 C   0  0  2  0  0  3  0  0  0  0  0  0
  181.6390  183.2010  137.3230 C   0  0  0  0  0  3  0  0  0  0  0  0
  183.6770  179.0930  143.7380 C   0  0  0  0  0  3  0  0  0  0  0  0
  182.7450  178.2830  141.2480 C   0  0  0  0  0  0  0  0  0  0  0  0
  181.4860  182.4660  138.5040 C   0  0  0  0  0  3  0  0  0  0  0  0
  182.2940  179.0010  143.5060 C   0  0  0  0  0  3  0  0  0  0  0  0
  180.4720  178.0310  137.5250 C   0  0  1  0  0  3  0  0  0  0  0  0
  178.9310  179.9900  137.4490 N   0  0  0  0  0  2  0  0  0  0  0  0
  180.5140  178.4280  141.8550 N   0  0  0  0  0  2  0  0  0  0  0  0
  179.6750  181.3770  140.8080 O   0  0  0  0  0  1  0  0  0  0  0  0
  179.8410  181.9430  136.3070 C   0  0  0  0  0  3  0  0  0  0  0  0
  179.7440  179.2470  139.6750 C   0  0  1  0  0  3  0  0  0  0  0  0
  179.7180  181.1780  137.4660 C   0  0  0  0  0  0  0  0  0  0  0  0
  180.6720  178.3450  135.1350 O   0  0  0  0  0  1  0  0  0  0  0  0
  180.0580  177.5720  136.1220 C   0  0  0  0  0  2  0  0  0  0  0  0
  186.7660  177.7520  142.9790 C   0  0  0  0  0  3  0  0  0  0  0  0
  186.0170  178.8070  142.9430 N   0  0  0  0  0  0  0  0  0  0  0  0
  188.2180  177.8770  143.1700 C   0  0  0  0  0  0  0  0  0  0  0  0
  188.9400  178.2660  142.2160 O   0  0  0  0  0  0  0  0  0  0  0  0
  188.8120  177.5760  144.4300 N   0  0  0  0  0  1  0  0  0  0  0  0
  1 29  1  0  0  0  0
  1 15  1  0  0  0  0
  2 21  1  1  0  0  0
  4 22  1  1  0  0  0
  5  4  1  0  0  0  0
  6 18  1  0  0  0  0
  8 23  2  0  0  0  0
  8 14  1  0  0  0  0
  9  1  2  0  0  0  0
 10 19  1  0  0  0  0
 10  3  1  6  0  0  0
 10 12  1  0  0  0  0
 11  7  1  6  0  0  0
 11  2  1  0  0  0  0
 11 16  1  0  0  0  0
 12  3  1  6  0  0  0
 12 11  1  0  0  0  0
 13 20  1  6  0  0  0
 13 24  1  0  0  0  0
 14 17  2  0  0  0  0
 16  9  1  0  0  0  0
 16  6  2  0  0  0  0
 17  5  1  0  0  0  0
 18 15  2  0  0  0  0
 19 27  1  6  0  0  0
 19 13  1  0  0  0  0
 20 25  1  0  0  0  0
 21  6  1  0  0  0  0
 23 25  1  0  0  0  0
 24  4  1  0  0  0  0
 24  2  1  0  0  0  0
 25  5  2  0  0  0  0
 26 27  1  0  0  0  0
 28 30  1  0  0  0  0
 29 28  2  0  0  0  0
 30 32  1  0  0  0  0
 31 30  2  0  0  0  0
M  END
>  <MODEL>
4

>  <REMARK>
 VINA RESULT:      -6.5      6.072      8.359
  Name = 
  3 active torsions:
  status: ('A' for Active; 'I' for Inactive)
    1  A    between atoms: C_1  and  C_10
    2  A    between atoms: C_2  and  N_24
    3  A    between atoms: C_25  and  C_26
                            x       y       z     vdW  Elec       q    Type
                         _______ _______ _______ _____ _____    ______ ____

>  <TORSDO>
F 3

$$$$
=
 OpenBabel11052417033D

 32 37  0  0  1  0  0  0  0  0999 V2000
  184.5460  178.2520  142.1110 C   0  0  0  0  0  0  0  0  0  0  0  0
  182.1420  177.9540  138.0600 C   0  0  1  0  0  3  0  0  0  0  0  0
  180.5160  175.2660  140.0770 C   0  0  0  0  0  2  0  0  0  0  0  0
  183.7280  176.1310  137.1600 C   0  0  1  0  0  3  0  0  0  0  0  0
  183.6060  174.6590  136.8850 C   0  0  0  0  0  0  0  0  0  0  0  0
  183.7700  178.7600  139.4850 C   0  0  0  0  0  0  0  0  0  0  0  0
  180.7010  177.9270  139.9940 O   0  0  0  0  0  1  0  0  0  0  0  0
  183.3620  171.9060  136.4210 C   0  0  0  0  0  3  0  0  0  0  0  0
  183.3920  177.6450  141.5890 C   0  0  0  0  0  3  0  0  0  0  0  0
  181.0130  174.9620  138.6790 C   0  0  2  0  0  3  0  0  0  0  0  0
  181.8780  177.3560  139.4910 C   0  0  1  0  0  0  0  0  0  0  0  0
  181.8780  175.8030  139.6280 C   0  0  1  0  0  3  0  0  0  0  0  0
  181.1910  176.1980  136.4440 C   0  0  2  0  0  3  0  0  0  0  0  0
  184.3310  172.3820  137.3060 C   0  0  0  0  0  3  0  0  0  0  0  0
  185.3140  179.1140  141.2920 C   0  0  0  0  0  3  0  0  0  0  0  0
  183.0390  177.8980  140.2580 C   0  0  0  0  0  0  0  0  0  0  0  0
  184.4620  173.7570  137.5310 C   0  0  0  0  0  3  0  0  0  0  0  0
  184.9240  179.3720  139.9660 C   0  0  0  0  0  3  0  0  0  0  0  0
  180.2740  175.7820  137.6180 C   0  0  1  0  0  3  0  0  0  0  0  0
  181.5610  175.0480  135.6110 N   0  0  0  0  0  2  0  0  0  0  0  0
  183.2410  178.9100  138.1850 N   0  0  0  0  0  2  0  0  0  0  0  0
  184.7950  176.6670  136.4380 O   0  0  0  0  0  1  0  0  0  0  0  0
  182.5000  172.8040  135.7850 C   0  0  0  0  0  3  0  0  0  0  0  0
  182.4470  176.9700  136.9110 C   0  0  1  0  0  3  0  0  0  0  0  0
  182.5970  174.1710  136.0430 C   0  0  0  0  0  0  0  0  0  0  0  0
  179.0760  173.6940  137.3820 O   0  0  0  0  0  1  0  0  0  0  0  0
  179.0030  175.0670  137.1410 C   0  0  0  0  0  2  0  0  0  0  0  0
  185.1560  178.9480  144.3280 C   0  0  0  0  0  3  0  0  0  0  0  0
  184.9010  178.0050  143.4790 N   0  0  0  0  0  0  0  0  0  0  0  0
  185.4690  178.6250  145.7270 C   0  0  0  0  0  0  0  0  0  0  0  0
  184.5660  178.6960  146.6000 O   0  0  0  0  0  0  0  0  0  0  0  0
  186.7830  178.2180  146.1010 N   0  0  0  0  0  1  0  0  0  0  0  0
  1 29  1  0  0  0  0
  2 21  1  1  0  0  0
  2 11  1  0  0  0  0
  4 22  1  6  0  0  0
  5  4  1  0  0  0  0
  5 17  1  0  0  0  0
  6 18  2  0  0  0  0
  6 16  1  0  0  0  0
  8 14  1  0  0  0  0
  9  1  1  0  0  0  0
 10 12  1  0  0  0  0
 10  3  1  1  0  0  0
 11 12  1  0  0  0  0
 11  7  1  1  0  0  0
 11 16  1  0  0  0  0
 12  3  1  1  0  0  0
 13 20  1  1  0  0  0
 13 24  1  0  0  0  0
 13 19  1  0  0  0  0
 14 17  2  0  0  0  0
 15  1  2  0  0  0  0
 16  9  2  0  0  0  0
 18 15  1  0  0  0  0
 19 27  1  6  0  0  0
 19 10  1  0  0  0  0
 20 25  1  0  0  0  0
 21  6  1  0  0  0  0
 23 25  1  0  0  0  0
 23  8  2  0  0  0  0
 24  4  1  0  0  0  0
 24  2  1  0  0  0  0
 25  5  2  0  0  0  0
 27 26  1  0  0  0  0
 28 30  1  0  0  0  0
 29 28  2  0  0  0  0
 30 32  1  0  0  0  0
 30 31  2  0  0  0  0
M  END
>  <MODEL>
5

>  <REMARK>
 VINA RESULT:      -6.4      4.765      6.059
  Name = 
  3 active torsions:
  status: ('A' for Active; 'I' for Inactive)
    1  A    between atoms: C_1  and  C_10
    2  A    between atoms: C_2  and  N_24
    3  A    between atoms: C_25  and  C_26
                            x       y       z     vdW  Elec       q    Type
                         _______ _______ _______ _____ _____    ______ ____

>  <TORSDO>
F 3

$$$$
=
 OpenBabel11052417033D

 32 37  0  0  1  0  0  0  0  0999 V2000
  186.6350  178.1700  142.1280 C   0  0  0  0  0  0  0  0  0  0  0  0
  186.0920  178.3200  137.4410 C   0  0  1  0  0  3  0  0  0  0  0  0
  182.5790  177.7530  138.5690 C   0  0  0  0  0  2  0  0  0  0  0  0
  186.3020  175.7570  137.2550 C   0  0  1  0  0  3  0  0  0  0  0  0
  185.3550  174.6340  136.9360 C   0  0  0  0  0  0  0  0  0  0  0  0
  187.2770  178.3380  139.4230 C   0  0  0  0  0  0  0  0  0  0  0  0
  184.4530  179.6520  138.6050 O   0  0  0  0  0  1  0  0  0  0  0  0
  183.5580  172.5580  136.3760 C   0  0  0  0  0  3  0  0  0  0  0  0
  185.6150  178.2560  141.1670 C   0  0  0  0  0  3  0  0  0  0  0  0
  183.1780  176.8660  137.4990 C   0  0  2  0  0  3  0  0  0  0  0  0
  185.0610  178.3900  138.6280 C   0  0  1  0  0  0  0  0  0  0  0  0
  184.0120  177.2400  138.7310 C   0  0  1  0  0  3  0  0  0  0  0  0
  184.8230  177.1250  135.5540 C   0  0  2  0  0  3  0  0  0  0  0  0
  184.2490  172.5760  137.5890 C   0  0  0  0  0  3  0  0  0  0  0  0
  187.9890  178.1610  141.7120 C   0  0  0  0  0  3  0  0  0  0  0  0
  185.9640  178.3140  139.8130 C   0  0  0  0  0  0  0  0  0  0  0  0
  185.1550  173.6060  137.8650 C   0  0  0  0  0  3  0  0  0  0  0  0
  188.3150  178.2460  140.3470 C   0  0  0  0  0  3  0  0  0  0  0  0
  183.5410  177.6550  136.2380 C   0  0  1  0  0  3  0  0  0  0  0  0
  184.6050  175.8140  134.9340 N   0  0  0  0  0  2  0  0  0  0  0  0
  187.4290  178.4310  138.0230 N   0  0  0  0  0  2  0  0  0  0  0  0
  187.6190  175.3470  137.0460 O   0  0  0  0  0  1  0  0  0  0  0  0
  183.7490  173.5900  135.4520 C   0  0  0  0  0  3  0  0  0  0  0  0
  186.0380  177.0910  136.5100 C   0  0  1  0  0  3  0  0  0  0  0  0
  184.6150  174.6420  135.7450 C   0  0  0  0  0  0  0  0  0  0  0  0
  181.4440  176.7050  135.4950 O   0  0  0  0  0  1  0  0  0  0  0  0
  182.3550  177.7390  135.2690 C   0  0  0  0  0  2  0  0  0  0  0  0
  185.2810  178.7830  144.0150 C   0  0  0  0  0  3  0  0  0  0  0  0
  186.2780  178.1250  143.5170 N   0  0  0  0  0  0  0  0  0  0  0  0
  184.9440  178.6550  145.4400 C   0  0  0  0  0  0  0  0  0  0  0  0
  183.8040  179.0040  145.8440 O   0  0  0  0  0  0  0  0  0  0  0  0
  185.8900  178.1270  146.3650 N   0  0  0  0  0  1  0  0  0  0  0  0
  1 29  1  0  0  0  0
  2 21  1  1  0  0  0
  2 11  1  0  0  0  0
  4 22  1  6  0  0  0
  5  4  1  0  0  0  0
  5 17  1  0  0  0  0
  6 16  2  0  0  0  0
  6 18  1  0  0  0  0
  8 14  1  0  0  0  0
  9  1  2  0  0  0  0
 10  3  1  1  0  0  0
 10 12  1  0  0  0  0
 11  7  1  6  0  0  0
 11 12  1  0  0  0  0
 11 16  1  0  0  0  0
 12  3  1  1  0  0  0
 13 20  1  1  0  0  0
 13 19  1  0  0  0  0
 13 24  1  0  0  0  0
 14 17  2  0  0  0  0
 15  1  1  0  0  0  0
 16  9  1  0  0  0  0
 18 15  2  0  0  0  0
 19 27  1  6  0  0  0
 19 10  1  0  0  0  0
 20 25  1  0  0  0  0
 21  6  1  0  0  0  0
 23 25  1  0  0  0  0
 23  8  2  0  0  0  0
 24  4  1  0  0  0  0
 24  2  1  0  0  0  0
 25  5  2  0  0  0  0
 27 26  1  0  0  0  0
 28 30  1  0  0  0  0
 29 28  2  0  0  0  0
 30 31  2  0  0  0  0
 30 32  1  0  0  0  0
M  END
>  <MODEL>
6

>  <REMARK>
 VINA RESULT:      -6.3      2.857      3.491
  Name = 
  3 active torsions:
  status: ('A' for Active; 'I' for Inactive)
    1  A    between atoms: C_1  and  C_10
    2  A    between atoms: C_2  and  N_24
    3  A    between atoms: C_25  and  C_26
                            x       y       z     vdW  Elec       q    Type
                         _______ _______ _______ _____ _____    ______ ____

>  <TORSDO>
F 3

$$$$
=
 OpenBabel11052417033D

 32 37  0  0  1  0  0  0  0  0999 V2000
  189.4750  177.5600  140.2300 C   0  0  0  0  0  0  0  0  0  0  0  0
  187.2980  177.4830  136.0420 C   0  0  1  0  0  3  0  0  0  0  0  0
  184.3970  177.7980  138.3720 C   0  0  0  0  0  2  0  0  0  0  0  0
  186.9550  174.9320  136.1780 C   0  0  1  0  0  3  0  0  0  0  0  0
  185.7700  174.0280  136.3700 C   0  0  0  0  0  0  0  0  0  0  0  0
  189.1060  177.3830  137.4750 C   0  0  0  0  0  0  0  0  0  0  0  0
  186.4680  179.2300  137.4840 O   0  0  0  0  0  1  0  0  0  0  0  0
  183.5470  172.3700  136.7720 C   0  0  0  0  0  3  0  0  0  0  0  0
  188.2080  177.8010  139.6730 C   0  0  0  0  0  3  0  0  0  0  0  0
  184.3930  176.7240  137.3060 C   0  0  2  0  0  3  0  0  0  0  0  0
  186.8010  177.8680  137.4850 C   0  0  1  0  0  0  0  0  0  0  0  0
  185.6720  176.9920  138.1100 C   0  0  1  0  0  3  0  0  0  0  0  0
  185.2330  176.4670  134.9010 C   0  0  2  0  0  3  0  0  0  0  0  0
  184.6240  172.3210  137.6590 C   0  0  0  0  0  3  0  0  0  0  0  0
  190.5580  177.2200  139.3830 C   0  0  0  0  0  3  0  0  0  0  0  0
  188.0450  177.6800  138.2890 C   0  0  0  0  0  0  0  0  0  0  0  0
  185.7390  173.1410  137.4540 C   0  0  0  0  0  3  0  0  0  0  0  0
  190.3730  177.1290  137.9930 C   0  0  0  0  0  3  0  0  0  0  0  0
  184.4080  177.3180  135.8940 C   0  0  1  0  0  3  0  0  0  0  0  0
  184.5690  175.1950  134.5940 N   0  0  0  0  0  2  0  0  0  0  0  0
  188.7500  177.3360  136.1100 N   0  0  0  0  0  2  0  0  0  0  0  0
  188.0070  174.2240  135.5950 O   0  0  0  0  0  1  0  0  0  0  0  0
  183.5710  173.2620  135.6960 C   0  0  0  0  0  3  0  0  0  0  0  0
  186.6850  176.2330  135.3780 C   0  0  1  0  0  3  0  0  0  0  0  0
  184.6610  174.1130  135.5170 C   0  0  0  0  0  0  0  0  0  0  0  0
  182.0430  176.8560  136.1050 O   0  0  0  0  0  1  0  0  0  0  0  0
  182.9870  177.5920  135.3870 C   0  0  0  0  0  2  0  0  0  0  0  0
  188.6590  177.7230  142.4840 C   0  0  0  0  0  3  0  0  0  0  0  0
  189.6470  177.6980  141.6480 N   0  0  0  0  0  0  0  0  0  0  0  0
  188.9100  177.8210  143.9280 C   0  0  0  0  0  0  0  0  0  0  0  0
  189.8500  178.5450  144.3490 O   0  0  0  0  0  0  0  0  0  0  0  0
  188.0910  177.1160  144.8570 N   0  0  0  0  0  1  0  0  0  0  0  0
  1 29  1  0  0  0  0
  2 21  1  1  0  0  0
  2 11  1  0  0  0  0
  4 22  1  6  0  0  0
  4  5  1  0  0  0  0
  5 17  1  0  0  0  0
  6 18  2  0  0  0  0
  6 16  1  0  0  0  0
  8 14  1  0  0  0  0
  9  1  1  0  0  0  0
 10 12  1  0  0  0  0
 10  3  1  1  0  0  0
 11  7  1  1  0  0  0
 11 12  1  0  0  0  0
 11 16  1  0  0  0  0
 12  3  1  1  0  0  0
 13 20  1  1  0  0  0
 13 24  1  0  0  0  0
 13 19  1  0  0  0  0
 15  1  2  0  0  0  0
 16  9  2  0  0  0  0
 17 14  2  0  0  0  0
 18 15  1  0  0  0  0
 19 27  1  6  0  0  0
 19 10  1  0  0  0  0
 20 25  1  0  0  0  0
 21  6  1  0  0  0  0
 23  8  2  0  0  0  0
 24  2  1  0  0  0  0
 24  4  1  0  0  0  0
 25 23  1  0  0  0  0
 25  5  2  0  0  0  0
 27 26  1  0  0  0  0
 28 30  1  0  0  0  0
 29 28  2  0  0  0  0
 30 31  2  0  0  0  0
 30 32  1  0  0  0  0
M  END
>  <MODEL>
7

>  <REMARK>
 VINA RESULT:      -6.1      2.116      2.834
  Name = 
  3 active torsions:
  status: ('A' for Active; 'I' for Inactive)
    1  A    between atoms: C_1  and  C_10
    2  A    between atoms: C_2  and  N_24
    3  A    between atoms: C_25  and  C_26
                            x       y       z     vdW  Elec       q    Type
                         _______ _______ _______ _____ _____    ______ ____

>  <TORSDO>
F 3

$$$$
=
 OpenBabel11052417033D

 32 37  0  0  1  0  0  0  0  0999 V2000
  182.6110  175.8930  138.1330 C   0  0  0  0  0  0  0  0  0  0  0  0
  186.2870  176.4910  135.2330 C   0  0  1  0  0  3  0  0  0  0  0  0
  187.2300  173.3230  136.9680 C   0  0  0  0  0  2  0  0  0  0  0  0
  187.6260  177.7280  137.0560 C   0  0  1  0  0  3  0  0  0  0  0  0
  188.8360  177.4060  137.8870 C   0  0  0  0  0  0  0  0  0  0  0  0
  184.2830  177.0530  136.2310 C   0  0  0  0  0  0  0  0  0  0  0  0
  185.4450  174.2310  135.2040 O   0  0  0  0  0  1  0  0  0  0  0  0
  191.0690  176.7630  139.4520 C   0  0  0  0  0  3  0  0  0  0  0  0
  183.7260  175.1870  137.6530 C   0  0  0  0  0  3  0  0  0  0  0  0
  188.2220  174.4630  136.8910 C   0  0  2  0  0  3  0  0  0  0  0  0
  185.8030  175.2600  136.0850 C   0  0  1  0  0  0  0  0  0  0  0  0
  186.7520  174.7560  137.2150 C   0  0  1  0  0  3  0  0  0  0  0  0
  188.8480  176.2920  135.2130 C   0  0  2  0  0  3  0  0  0  0  0  0
  189.8540  177.0750  140.0640 C   0  0  0  0  0  3  0  0  0  0  0  0
  182.3490  177.1980  137.6500 C   0  0  0  0  0  3  0  0  0  0  0  0
  184.5640  175.8040  136.7160 C   0  0  0  0  0  0  0  0  0  0  0  0
  188.7410  177.4070  139.2850 C   0  0  0  0  0  3  0  0  0  0  0  0
  183.1910  177.7860  136.6900 C   0  0  0  0  0  3  0  0  0  0  0  0
  188.6180  174.7800  135.4460 C   0  0  1  0  0  3  0  0  0  0  0  0
  190.0670  176.7640  135.8790 N   0  0  0  0  0  2  0  0  0  0  0  0
  185.2230  177.4920  135.2730 N   0  0  0  0  0  2  0  0  0  0  0  0
  187.4260  179.1080  137.0160 O   0  0  0  0  0  1  0  0  0  0  0  0
  191.1640  176.7510  138.0580 C   0  0  0  0  0  3  0  0  0  0  0  0
  187.6280  177.1510  135.6160 C   0  0  1  0  0  3  0  0  0  0  0  0
  190.0430  177.0360  137.2780 C   0  0  0  0  0  0  0  0  0  0  0  0
  190.5420  173.4610  136.0830 O   0  0  0  0  0  1  0  0  0  0  0  0
  189.8110  173.9310  134.9910 C   0  0  0  0  0  2  0  0  0  0  0  0
  180.5880  175.7330  139.4180 C   0  0  0  0  0  3  0  0  0  0  0  0
  181.7440  175.2570  139.0820 N   0  0  0  0  0  0  0  0  0  0  0  0
  179.7300  175.0050  140.3640 C   0  0  0  0  0  0  0  0  0  0  0  0
  179.6780  173.7490  140.3170 O   0  0  0  0  0  0  0  0  0  0  0  0
  178.9700  175.7080  141.3430 N   0  0  0  0  0  1  0  0  0  0  0  0
  1 29  1  0  0  0  0
  2 21  1  1  0  0  0
  2 24  1  0  0  0  0
  2 11  1  0  0  0  0
  4 22  1  6  0  0  0
  4  5  1  0  0  0  0
  5 17  1  0  0  0  0
  6 18  2  0  0  0  0
  6 16  1  0  0  0  0
  8 14  1  0  0  0  0
  9  1  1  0  0  0  0
 10  3  1  6  0  0  0
 10 12  1  0  0  0  0
 11  7  1  6  0  0  0
 11 16  1  0  0  0  0
 11 12  1  0  0  0  0
 12  3  1  6  0  0  0
 13 19  1  0  0  0  0
 13 24  1  0  0  0  0
 13 20  1  1  0  0  0
 15  1  2  0  0  0  0
 16  9  2  0  0  0  0
 17 14  2  0  0  0  0
 18 15  1  0  0  0  0
 19 27  1  1  0  0  0
 19 10  1  0  0  0  0
 20 25  1  0  0  0  0
 21  6  1  0  0  0  0
 23  8  2  0  0  0  0
 24  4  1  0  0  0  0
 25  5  2  0  0  0  0
 25 23  1  0  0  0  0
 27 26  1  0  0  0  0
 28 30  1  0  0  0  0
 29 28  2  0  0  0  0
 30 32  1  0  0  0  0
 31 30  2  0  0  0  0
M  END
>  <MODEL>
8

>  <REMARK>
 VINA RESULT:      -5.7      3.884      6.581
  Name = 
  3 active torsions:
  status: ('A' for Active; 'I' for Inactive)
    1  A    between atoms: C_1  and  C_10
    2  A    between atoms: C_2  and  N_24
    3  A    between atoms: C_25  and  C_26
                            x       y       z     vdW  Elec       q    Type
                         _______ _______ _______ _____ _____    ______ ____

>  <TORSDO>
F 3

$$$$
=
 OpenBabel11052417033D

 32 37  0  0  1  0  0  0  0  0999 V2000
  182.8220  175.5670  136.9140 C   0  0  0  0  0  0  0  0  0  0  0  0
  187.0720  176.4350  135.0530 C   0  0  1  0  0  3  0  0  0  0  0  0
  187.7640  173.3660  137.0630 C   0  0  0  0  0  2  0  0  0  0  0  0
  187.7910  177.7900  137.1250 C   0  0  1  0  0  3  0  0  0  0  0  0
  188.7620  177.5730  138.2510 C   0  0  0  0  0  0  0  0  0  0  0  0
  184.8400  176.8420  135.4790 C   0  0  0  0  0  0  0  0  0  0  0  0
  186.4390  174.1140  134.8710 O   0  0  0  0  0  1  0  0  0  0  0  0
  190.5510  177.1240  140.3600 C   0  0  0  0  0  3  0  0  0  0  0  0
  184.0740  174.9490  136.7610 C   0  0  0  0  0  3  0  0  0  0  0  0
  188.6540  174.5820  137.2140 C   0  0  2  0  0  3  0  0  0  0  0  0
  186.4760  175.1760  135.7850 C   0  0  1  0  0  0  0  0  0  0  0  0
  187.1320  174.7590  137.1370 C   0  0  1  0  0  3  0  0  0  0  0  0
  189.5570  176.4420  135.7040 C   0  0  2  0  0  3  0  0  0  0  0  0
  189.1980  177.3420  140.6260 C   0  0  0  0  0  3  0  0  0  0  0  0
  182.5970  176.8430  136.3420 C   0  0  0  0  0  3  0  0  0  0  0  0
  185.0780  175.6230  136.0560 C   0  0  0  0  0  0  0  0  0  0  0  0
  188.3050  177.5770  139.5750 C   0  0  0  0  0  3  0  0  0  0  0  0
  183.6140  177.4880  135.6180 C   0  0  0  0  0  3  0  0  0  0  0  0
  189.3880  174.9190  135.9130 C   0  0  1  0  0  3  0  0  0  0  0  0
  190.5190  177.0160  136.6510 N   0  0  0  0  0  2  0  0  0  0  0  0
  185.9610  177.3470  134.7870 N   0  0  0  0  0  2  0  0  0  0  0  0
  187.5040  179.1490  136.9940 O   0  0  0  0  0  1  0  0  0  0  0  0
  191.0070  177.1090  139.0390 C   0  0  0  0  0  3  0  0  0  0  0  0
  188.2120  177.2040  135.7510 C   0  0  1  0  0  3  0  0  0  0  0  0
  190.1110  177.2960  137.9870 C   0  0  0  0  0  0  0  0  0  0  0  0
  191.1710  173.7600  137.0650 O   0  0  0  0  0  1  0  0  0  0  0  0
  190.7190  174.1640  135.8080 C   0  0  0  0  0  2  0  0  0  0  0  0
  181.1660  173.8410  137.1420 C   0  0  0  0  0  3  0  0  0  0  0  0
  181.7870  174.8700  137.6230 N   0  0  0  0  0  0  0  0  0  0  0  0
  180.1470  173.1480  137.9420 C   0  0  0  0  0  0  0  0  0  0  0  0
  179.7520  172.0050  137.5940 O   0  0  0  0  0  0  0  0  0  0  0  0
  179.6120  173.7520  139.1170 N   0  0  0  0  0  1  0  0  0  0  0  0
  1 29  1  0  0  0  0
  2 21  1  1  0  0  0
  2 24  1  0  0  0  0
  2 11  1  0  0  0  0
  4 22  1  6  0  0  0
  4  5  1  0  0  0  0
  5 17  1  0  0  0  0
  6 18  2  0  0  0  0
  6 16  1  0  0  0  0
  8 14  1  0  0  0  0
  9  1  1  0  0  0  0
 10  3  1  6  0  0  0
 11  7  1  6  0  0  0
 11 16  1  0  0  0  0
 11 12  1  0  0  0  0
 12  3  1  6  0  0  0
 12 10  1  0  0  0  0
 13 24  1  0  0  0  0
 13 19  1  0  0  0  0
 13 20  1  1  0  0  0
 15  1  2  0  0  0  0
 16  9  2  0  0  0  0
 17 14  2  0  0  0  0
 18 15  1  0  0  0  0
 19 27  1  1  0  0  0
 19 10  1  0  0  0  0
 20 25  1  0  0  0  0
 21  6  1  0  0  0  0
 23  8  2  0  0  0  0
 24  4  1  0  0  0  0
 25  5  2  0  0  0  0
 25 23  1  0  0  0  0
 27 26  1  0  0  0  0
 28 29  2  0  0  0  0
 28 30  1  0  0  0  0
 30 32  1  0  0  0  0
 31 30  2  0  0  0  0
M  END
>  <MODEL>
9

>  <REMARK>
 VINA RESULT:      -5.4      3.596      7.096
  Name = 
  3 active torsions:
  status: ('A' for Active; 'I' for Inactive)
    1  A    between atoms: C_1  and  C_10
    2  A    between atoms: C_2  and  N_24
    3  A    between atoms: C_25  and  C_26
                            x       y       z     vdW  Elec       q    Type
                         _______ _______ _______ _____ _____    ______ ____

>  <TORSDO>
F 3

$$$$
