=
 OpenBabel11052412403D

 25 29  0  0  1  0  0  0  0  0999 V2000
  187.3120  177.9790  145.8670 C   0  0  0  0  0  0  0  0  0  0  0  0
  188.5670  177.4030  145.6680 C   0  0  0  0  0  0  0  0  0  0  0  0
  187.8720  178.6060  148.1190 C   0  0  0  0  0  3  0  0  0  0  0  0
  186.2070  178.1070  145.0630 C   0  0  1  0  0  3  0  0  0  0  0  0
  183.7260  178.6790  143.9800 C   0  0  0  0  0  3  0  0  0  0  0  0
  189.1020  178.0380  147.9380 N   0  0  0  0  0  0  0  0  0  0  0  0
  185.2630  178.7720  145.8180 C   0  0  0  0  0  0  0  0  0  0  0  0
  184.0050  179.0740  145.3020 C   0  0  0  0  0  3  0  0  0  0  0  0
  190.8020  176.8560  146.5930 C   0  0  0  0  0  0  0  0  0  0  0  0
  191.5790  176.7330  147.5770 O   0  0  0  0  0  0  0  0  0  0  0  0
  188.9250  176.6780  144.3960 C   0  0  0  0  0  2  0  0  0  0  0  0
  184.6950  178.0000  143.2120 C   0  0  0  0  0  3  0  0  0  0  0  0
  186.9700  178.5720  147.0620 C   0  0  0  0  0  0  0  0  0  0  0  0
  185.7120  179.0700  147.0590 N   0  0  0  0  0  0  0  0  0  0  0  0
  191.2090  176.4040  145.2990 N   0  0  0  0  0  2  0  0  0  0  0  0
  185.9600  177.7040  143.7510 C   0  0  0  0  0  3  0  0  0  0  0  0
  190.4300  176.7350  144.1040 C   0  0  2  0  0  3  0  0  0  0  0  0
  189.4670  177.4450  146.7560 C   0  0  0  0  0  0  0  0  0  0  0  0
  190.8120  178.1170  143.5870 C   0  0  0  0  0  2  0  0  0  0  0  0
  189.9480  177.9050  139.8740 N   0  0  0  0  0  0  0  0  0  0  0  0
  189.7410  177.6830  138.4130 C   0  0  0  0  0  2  0  0  0  0  0  0
  189.0260  178.6990  139.0120 C   0  0  0  0  0  2  0  0  0  0  0  0
  190.2110  178.3580  142.2830 N   0  0  0  0  0  2  0  0  0  0  0  0
  190.5550  177.5970  141.1230 C   0  0  0  0  0  0  0  0  0  0  0  0
  191.3890  176.6560  141.1970 O   0  0  0  0  0  0  0  0  0  0  0  0
  1 13  1  0  0  0  0
  2  1  2  0  0  0  0
  2 18  1  0  0  0  0
  4 16  1  6  0  0  0
  4  7  1  0  0  0  0
  4  1  1  0  0  0  0
  5  8  2  0  0  0  0
  6  3  1  0  0  0  0
  7 14  2  0  0  0  0
  8  7  1  0  0  0  0
  9 18  1  0  0  0  0
  9 10  2  0  0  0  0
 11  2  1  0  0  0  0
 12 16  2  0  0  0  0
 12  5  1  0  0  0  0
 13  3  2  0  0  0  0
 14 13  1  0  0  0  0
 15  9  1  0  0  0  0
 17 19  1  1  0  0  0
 17 11  1  0  0  0  0
 17 15  1  0  0  0  0
 18  6  2  0  0  0  0
 20 24  1  0  0  0  0
 21 22  1  0  0  0  0
 21 20  1  0  0  0  0
 22 20  1  0  0  0  0
 23 19  1  0  0  0  0
 24 25  2  0  0  0  0
 24 23  1  0  0  0  0
M  END
>  <MODEL>
1

>  <REMARK>
 VINA RESULT:      -9.8      0.000      0.000
  Name = 
  2 active torsions:
  status: ('A' for Active; 'I' for Inactive)
    1  A    between atoms: C_6  and  N_15
    2  A    between atoms: C_6  and  C_23
                            x       y       z     vdW  Elec       q    Type
                         _______ _______ _______ _____ _____    ______ ____

>  <TORSDO>
F 2

$$$$
=
 OpenBabel11052412403D

 25 29  0  0  1  0  0  0  0  0999 V2000
  187.5490  177.6020  145.0250 C   0  0  0  0  0  0  0  0  0  0  0  0
  188.5580  176.9710  144.2970 C   0  0  0  0  0  0  0  0  0  0  0  0
  188.9560  177.7760  146.9670 C   0  0  0  0  0  3  0  0  0  0  0  0
  186.2590  177.9560  144.7180 C   0  0  0  0  0  0  0  0  0  0  0  0
  183.6610  178.9060  144.7270 C   0  0  0  0  0  3  0  0  0  0  0  0
  189.9490  177.1540  146.2660 N   0  0  0  0  0  0  0  0  0  0  0  0
  185.7490  178.5520  145.8530 C   0  0  0  0  0  0  0  0  0  0  0  0
  184.4440  179.0390  145.8900 C   0  0  0  0  0  3  0  0  0  0  0  0
  190.8760  176.0940  144.2380 C   0  0  0  0  0  0  0  0  0  0  0  0
  191.9280  175.7380  144.8340 O   0  0  0  0  0  0  0  0  0  0  0  0
  188.3360  176.4550  142.8980 C   0  0  0  0  0  2  0  0  0  0  0  0
  184.1890  178.2970  143.5690 C   0  0  0  0  0  3  0  0  0  0  0  0
  187.7410  178.0010  146.3300 C   0  0  2  0  0  3  0  0  0  0  0  0
  186.6460  178.5910  146.8640 N   0  0  0  0  0  0  0  0  0  0  0  0
  190.7290  175.8450  142.8370 N   0  0  0  0  0  2  0  0  0  0  0  0
  185.5080  177.8120  143.5520 C   0  0  0  0  0  3  0  0  0  0  0  0
  189.6300  176.4420  142.0750 C   0  0  2  0  0  3  0  0  0  0  0  0
  189.7830  176.7500  144.9650 C   0  0  0  0  0  0  0  0  0  0  0  0
  189.9910  177.8580  141.6430 C   0  0  0  0  0  2  0  0  0  0  0  0
  188.6180  178.4460  138.1290 N   0  0  0  0  0  0  0  0  0  0  0  0
  187.9130  178.7060  136.8410 C   0  0  0  0  0  2  0  0  0  0  0  0
  189.2440  178.3500  136.7790 C   0  0  0  0  0  2  0  0  0  0  0  0
  189.8810  177.9940  140.1980 N   0  0  0  0  0  2  0  0  0  0  0  0
  188.6610  178.3570  139.5480 C   0  0  0  0  0  0  0  0  0  0  0  0
  187.6240  178.6010  140.2210 O   0  0  0  0  0  0  0  0  0  0  0  0
  1 13  1  0  0  0  0
  2 18  2  0  0  0  0
  2  1  1  0  0  0  0
  4  1  2  0  0  0  0
  4  7  1  0  0  0  0
  5  8  2  0  0  0  0
  6  3  2  0  0  0  0
  7  8  1  0  0  0  0
  7 14  2  0  0  0  0
  9 10  2  0  0  0  0
  9 18  1  0  0  0  0
 11  2  1  0  0  0  0
 12  5  1  0  0  0  0
 13 14  1  0  0  0  0
 13  3  1  1  0  0  0
 15  9  1  0  0  0  0
 16 12  2  0  0  0  0
 16  4  1  0  0  0  0
 17 19  1  1  0  0  0
 17 15  1  0  0  0  0
 17 11  1  0  0  0  0
 18  6  1  0  0  0  0
 20 24  1  0  0  0  0
 21 20  1  0  0  0  0
 22 21  1  0  0  0  0
 22 20  1  0  0  0  0
 23 19  1  0  0  0  0
 24 23  1  0  0  0  0
 24 25  2  0  0  0  0
M  END
>  <MODEL>
2

>  <REMARK>
 VINA RESULT:      -9.8      1.621      1.998
  Name = 
  2 active torsions:
  status: ('A' for Active; 'I' for Inactive)
    1  A    between atoms: C_6  and  N_15
    2  A    between atoms: C_6  and  C_23
                            x       y       z     vdW  Elec       q    Type
                         _______ _______ _______ _____ _____    ______ ____

>  <TORSDO>
F 2

$$$$
=
 OpenBabel11052412403D

 25 29  0  0  1  0  0  0  0  0999 V2000
  185.8880  178.1120  144.9210 C   0  0  0  0  0  0  0  0  0  0  0  0
  187.1550  177.5330  144.9920 C   0  0  0  0  0  0  0  0  0  0  0  0
  185.9820  178.7810  147.2280 C   0  0  0  0  0  3  0  0  0  0  0  0
  184.9690  178.2240  143.9080 C   0  0  0  0  0  0  0  0  0  0  0  0
  182.7600  178.7750  142.3340 C   0  0  0  0  0  3  0  0  0  0  0  0
  187.2210  178.2110  147.3110 N   0  0  0  0  0  0  0  0  0  0  0  0
  183.8940  178.9030  144.4440 C   0  0  0  0  0  0  0  0  0  0  0  0
  182.7670  179.1940  143.6780 C   0  0  0  0  0  2  0  0  0  0  0  0
  189.1540  177.0050  146.3600 C   0  0  0  0  0  0  0  0  0  0  0  0
  189.7150  176.9010  147.4840 O   0  0  0  0  0  0  0  0  0  0  0  0
  187.7610  176.7850  143.8320 C   0  0  0  0  0  2  0  0  0  0  0  0
  183.8630  178.0810  141.7910 C   0  0  0  0  0  3  0  0  0  0  0  0
  185.3120  178.7270  146.0110 C   0  0  0  0  0  0  0  0  0  0  0  0
  184.0820  179.2240  145.7440 N   0  0  0  0  0  0  0  0  0  0  0  0
  189.8130  176.5290  145.1840 N   0  0  0  0  0  2  0  0  0  0  0  0
  184.9910  177.7970  142.5810 C   0  0  0  0  0  3  0  0  0  0  0  0
  189.2940  176.8370  143.8500 C   0  0  2  0  0  3  0  0  0  0  0  0
  187.8150  177.5970  146.2390 C   0  0  0  0  0  0  0  0  0  0  0  0
  189.7770  178.2090  143.3960 C   0  0  0  0  0  2  0  0  0  0  0  0
  189.7260  177.8470  139.5950 N   0  0  0  0  0  0  0  0  0  0  0  0
  189.8280  177.5610  138.1350 C   0  0  0  0  0  2  0  0  0  0  0  0
  189.0590  178.6380  138.5220 C   0  0  0  0  0  2  0  0  0  0  0  0
  189.4870  178.4110  141.9830 N   0  0  0  0  0  2  0  0  0  0  0  0
  190.0300  177.5760  140.9580 C   0  0  0  0  0  0  0  0  0  0  0  0
  190.7740  176.6020  141.2510 O   0  0  0  0  0  0  0  0  0  0  0  0
  1  2  2  0  0  0  0
  1 13  1  0  0  0  0
  2 18  1  0  0  0  0
  3  6  1  0  0  0  0
  4  7  1  0  0  0  0
  4  1  1  0  0  0  0
  5  8  1  0  0  0  0
  7 14  2  0  0  0  0
  8  7  1  0  0  0  0
  9 10  2  0  0  0  0
 11 17  1  0  0  0  0
 11  2  1  0  0  0  0
 12  5  2  0  0  0  0
 12 16  1  0  0  0  0
 13  3  2  0  0  0  0
 14 13  1  0  0  0  0
 15  9  1  0  0  0  0
 16  4  2  0  0  0  0
 17 19  1  1  0  0  0
 17 15  1  0  0  0  0
 18  9  1  0  0  0  0
 18  6  2  0  0  0  0
 20 24  1  0  0  0  0
 21 22  1  0  0  0  0
 21 20  1  0  0  0  0
 22 20  1  0  0  0  0
 23 19  1  0  0  0  0
 24 25  2  0  0  0  0
 24 23  1  0  0  0  0
M  END
>  <MODEL>
3

>  <REMARK>
 VINA RESULT:      -9.8      1.103      1.534
  Name = 
  2 active torsions:
  status: ('A' for Active; 'I' for Inactive)
    1  A    between atoms: C_6  and  N_15
    2  A    between atoms: C_6  and  C_23
                            x       y       z     vdW  Elec       q    Type
                         _______ _______ _______ _____ _____    ______ ____

>  <TORSDO>
F 2

$$$$
=
 OpenBabel11052412403D

 25 29  0  0  1  0  0  0  0  0999 V2000
  188.4290  177.6660  144.1460 C   0  0  0  0  0  0  0  0  0  0  0  0
  188.3910  178.0260  142.7990 C   0  0  0  0  0  0  0  0  0  0  0  0
  186.0340  177.7780  144.3220 C   0  0  0  0  0  3  0  0  0  0  0  0
  189.4590  177.3790  145.0070 C   0  0  1  0  0  3  0  0  0  0  0  0
  191.0360  176.7070  147.1790 C   0  0  0  0  0  3  0  0  0  0  0  0
  185.9850  178.1380  143.0050 N   0  0  0  0  0  0  0  0  0  0  0  0
  188.8710  177.0920  146.2210 C   0  0  0  0  0  0  0  0  0  0  0  0
  189.6370  176.7520  147.3340 C   0  0  0  0  0  3  0  0  0  0  0  0
  187.0260  178.6430  140.8240 C   0  0  0  0  0  0  0  0  0  0  0  0
  185.9320  179.0170  140.3230 O   0  0  0  0  0  0  0  0  0  0  0  0
  189.6450  178.2490  141.9930 C   0  0  0  0  0  2  0  0  0  0  0  0
  191.6310  177.0000  145.9340 C   0  0  0  0  0  3  0  0  0  0  0  0
  187.2780  177.5390  144.8930 C   0  0  0  0  0  0  0  0  0  0  0  0
  187.5220  177.1860  146.1770 N   0  0  0  0  0  0  0  0  0  0  0  0
  188.2050  178.6000  140.0160 N   0  0  0  0  0  2  0  0  0  0  0  0
  190.8400  177.3410  144.8230 C   0  0  0  0  0  3  0  0  0  0  0  0
  189.4300  177.9610  140.5010 C   0  0  2  0  0  3  0  0  0  0  0  0
  187.1160  178.2670  142.2400 C   0  0  0  0  0  0  0  0  0  0  0  0
  189.3770  176.4570  140.2600 C   0  0  0  0  0  2  0  0  0  0  0  0
  191.7630  175.1920  137.5600 N   0  0  0  0  0  0  0  0  0  0  0  0
  192.5430  174.6940  136.3910 C   0  0  0  0  0  2  0  0  0  0  0  0
  193.2130  174.8470  137.5860 C   0  0  0  0  0  2  0  0  0  0  0  0
  190.5730  176.0110  139.5580 N   0  0  0  0  0  2  0  0  0  0  0  0
  190.5630  175.6470  138.1760 C   0  0  0  0  0  0  0  0  0  0  0  0
  189.5050  175.7260  137.4980 O   0  0  0  0  0  0  0  0  0  0  0  0
  1 13  2  0  0  0  0
  1  4  1  0  0  0  0
  2  1  1  0  0  0  0
  3 13  1  0  0  0  0
  4 16  1  6  0  0  0
  4  7  1  0  0  0  0
  5  8  2  0  0  0  0
  6  3  2  0  0  0  0
  7  8  1  0  0  0  0
  9 18  1  0  0  0  0
 10  9  2  0  0  0  0
 11  2  1  0  0  0  0
 12  5  1  0  0  0  0
 13 14  1  0  0  0  0
 14  7  2  0  0  0  0
 15 17  1  0  0  0  0
 15  9  1  0  0  0  0
 16 12  2  0  0  0  0
 17 19  1  1  0  0  0
 17 11  1  0  0  0  0
 18  2  2  0  0  0  0
 18  6  1  0  0  0  0
 20 22  1  0  0  0  0
 20 24  1  0  0  0  0
 21 20  1  0  0  0  0
 21 22  1  0  0  0  0
 23 19  1  0  0  0  0
 24 23  1  0  0  0  0
 25 24  2  0  0  0  0
M  END
>  <MODEL>
4

>  <REMARK>
 VINA RESULT:      -8.5      2.825      5.139
  Name = 
  2 active torsions:
  status: ('A' for Active; 'I' for Inactive)
    1  A    between atoms: C_6  and  N_15
    2  A    between atoms: C_6  and  C_23
                            x       y       z     vdW  Elec       q    Type
                         _______ _______ _______ _____ _____    ______ ____

>  <TORSDO>
F 2

$$$$
=
 OpenBabel11052412403D

 25 29  0  0  1  0  0  0  0  0999 V2000
  190.1310  177.0720  143.5790 C   0  0  0  0  0  0  0  0  0  0  0  0
  190.1110  177.3480  144.9470 C   0  0  0  0  0  0  0  0  0  0  0  0
  191.7940  175.3610  143.8720 C   0  0  0  0  0  3  0  0  0  0  0  0
  189.4530  177.6040  142.5100 C   0  0  0  0  0  0  0  0  0  0  0  0
  188.4420  178.2220  140.0100 C   0  0  0  0  0  3  0  0  0  0  0  0
  191.7880  175.6280  145.2110 N   0  0  0  0  0  0  0  0  0  0  0  0
  189.8990  176.9180  141.3990 C   0  0  0  0  0  0  0  0  0  0  0  0
  189.4100  177.2070  140.1270 C   0  0  0  0  0  2  0  0  0  0  0  0
  190.9910  176.8420  147.2080 C   0  0  0  0  0  0  0  0  0  0  0  0
  191.8540  176.3030  147.9510 O   0  0  0  0  0  0  0  0  0  0  0  0
  189.2840  178.4660  145.5280 C   0  0  0  0  0  2  0  0  0  0  0  0
  187.9890  178.9190  141.1510 C   0  0  0  0  0  3  0  0  0  0  0  0
  190.9490  176.0990  143.0500 C   0  0  0  0  0  0  0  0  0  0  0  0
  190.8250  175.9820  141.7080 N   0  0  0  0  0  0  0  0  0  0  0  0
  190.0170  177.7260  147.7680 N   0  0  0  0  0  2  0  0  0  0  0  0
  188.4950  178.6130  142.4260 C   0  0  0  0  0  3  0  0  0  0  0  0
  188.8720  178.1850  146.9780 C   0  0  2  0  0  3  0  0  0  0  0  0
  190.9800  176.5900  145.7620 C   0  0  0  0  0  0  0  0  0  0  0  0
  187.7520  177.1520  147.0150 C   0  0  0  0  0  2  0  0  0  0  0  0
  184.7520  178.6030  145.1500 N   0  0  0  0  0  0  0  0  0  0  0  0
  183.5460  179.2690  144.5810 C   0  0  0  0  0  2  0  0  0  0  0  0
  184.1860  178.3320  143.7980 C   0  0  0  0  0  2  0  0  0  0  0  0
  186.7580  177.4410  145.9910 N   0  0  0  0  0  2  0  0  0  0  0  0
  185.7070  178.3900  146.1840 C   0  0  0  0  0  0  0  0  0  0  0  0
  185.6180  179.0400  147.2590 O   0  0  0  0  0  0  0  0  0  0  0  0
  1  2  2  0  0  0  0
  2 11  1  0  0  0  0
  2 18  1  0  0  0  0
  3  6  1  0  0  0  0
  4  1  1  0  0  0  0
  5  8  1  0  0  0  0
  5 12  2  0  0  0  0
  6 18  2  0  0  0  0
  7 14  2  0  0  0  0
  7  4  1  0  0  0  0
  8  7  1  0  0  0  0
  9 15  1  0  0  0  0
  9 10  2  0  0  0  0
 11 17  1  0  0  0  0
 12 16  1  0  0  0  0
 13  1  1  0  0  0  0
 13  3  2  0  0  0  0
 14 13  1  0  0  0  0
 16  4  2  0  0  0  0
 17 19  1  6  0  0  0
 17 15  1  0  0  0  0
 18  9  1  0  0  0  0
 20 24  1  0  0  0  0
 21 20  1  0  0  0  0
 22 21  1  0  0  0  0
 22 20  1  0  0  0  0
 23 24  1  0  0  0  0
 23 19  1  0  0  0  0
 24 25  2  0  0  0  0
M  END
>  <MODEL>
5

>  <REMARK>
 VINA RESULT:      -8.5      1.949      5.493
  Name = 
  2 active torsions:
  status: ('A' for Active; 'I' for Inactive)
    1  A    between atoms: C_6  and  N_15
    2  A    between atoms: C_6  and  C_23
                            x       y       z     vdW  Elec       q    Type
                         _______ _______ _______ _____ _____    ______ ____

>  <TORSDO>
F 2

$$$$
=
 OpenBabel11052412403D

 25 29  0  0  1  0  0  0  0  0999 V2000
  187.0430  177.9610  142.8380 C   0  0  0  0  0  0  0  0  0  0  0  0
  186.2700  177.9100  143.9990 C   0  0  0  0  0  0  0  0  0  0  0  0
  185.5740  179.5810  141.8400 C   0  0  0  0  0  3  0  0  0  0  0  0
  188.1880  177.3100  142.4520 C   0  0  0  0  0  0  0  0  0  0  0  0
  190.4200  176.3680  141.1150 C   0  0  0  0  0  3  0  0  0  0  0  0
  184.8060  179.5340  142.9690 N   0  0  0  0  0  0  0  0  0  0  0  0
  188.4800  177.7770  141.1860 C   0  0  0  0  0  0  0  0  0  0  0  0
  189.5960  177.3210  140.4870 C   0  0  0  0  0  2  0  0  0  0  0  0
  184.2780  178.7140  145.2370 C   0  0  0  0  0  0  0  0  0  0  0  0
  183.1660  179.3060  145.2550 O   0  0  0  0  0  0  0  0  0  0  0  0
  186.5770  176.9580  145.1270 C   0  0  0  0  0  2  0  0  0  0  0  0
  190.1160  175.8950  142.4090 C   0  0  0  0  0  3  0  0  0  0  0  0
  186.7090  178.7790  141.7830 C   0  0  0  0  0  0  0  0  0  0  0  0
  187.5790  178.6860  140.7500 N   0  0  0  0  0  0  0  0  0  0  0  0
  184.7270  177.9990  146.3910 N   0  0  0  0  0  2  0  0  0  0  0  0
  188.9850  176.3680  143.0990 C   0  0  0  0  0  3  0  0  0  0  0  0
  186.0990  177.4960  146.4820 C   0  0  2  0  0  3  0  0  0  0  0  0
  185.1200  178.7300  144.0340 C   0  0  0  0  0  0  0  0  0  0  0  0
  187.0360  178.5940  146.9690 C   0  0  0  0  0  2  0  0  0  0  0  0
  190.4290  176.8620  147.2340 N   0  0  0  0  0  0  0  0  0  0  0  0
  191.6760  176.0810  147.4770 C   0  0  0  0  0  2  0  0  0  0  0  0
  191.7260  177.0850  146.5340 C   0  0  0  0  0  2  0  0  0  0  0  0
  188.4250  178.2150  146.7510 N   0  0  0  0  0  2  0  0  0  0  0  0
  189.0600  177.1620  147.4800 C   0  0  0  0  0  0  0  0  0  0  0  0
  188.4190  176.4970  148.3360 O   0  0  0  0  0  0  0  0  0  0  0  0
  1  2  2  0  0  0  0
  2 18  1  0  0  0  0
  2 11  1  0  0  0  0
  3  6  1  0  0  0  0
  4  1  1  0  0  0  0
  4 16  2  0  0  0  0
  5 12  2  0  0  0  0
  6 18  2  0  0  0  0
  7  4  1  0  0  0  0
  8  5  1  0  0  0  0
  8  7  1  0  0  0  0
  9 10  2  0  0  0  0
  9 15  1  0  0  0  0
 11 17  1  0  0  0  0
 12 16  1  0  0  0  0
 13  3  2  0  0  0  0
 13  1  1  0  0  0  0
 14  7  2  0  0  0  0
 14 13  1  0  0  0  0
 15 17  1  0  0  0  0
 17 19  1  6  0  0  0
 18  9  1  0  0  0  0
 20 21  1  0  0  0  0
 20 24  1  0  0  0  0
 22 20  1  0  0  0  0
 22 21  1  0  0  0  0
 23 19  1  0  0  0  0
 23 24  1  0  0  0  0
 24 25  2  0  0  0  0
M  END
>  <MODEL>
6

>  <REMARK>
 VINA RESULT:      -8.4      2.575      6.272
  Name = 
  2 active torsions:
  status: ('A' for Active; 'I' for Inactive)
    1  A    between atoms: C_6  and  N_15
    2  A    between atoms: C_6  and  C_23
                            x       y       z     vdW  Elec       q    Type
                         _______ _______ _______ _____ _____    ______ ____

>  <TORSDO>
F 2

$$$$
=
 OpenBabel11052412403D

 25 29  0  0  1  0  0  0  0  0999 V2000
  189.4800  177.6380  144.0000 C   0  0  0  0  0  0  0  0  0  0  0  0
  189.7340  177.3510  142.6580 C   0  0  0  0  0  0  0  0  0  0  0  0
  191.7560  178.3250  144.3610 C   0  0  0  0  0  3  0  0  0  0  0  0
  188.3530  177.5420  144.7770 C   0  0  0  0  0  0  0  0  0  0  0  0
  186.4890  177.5890  146.8220 C   0  0  0  0  0  3  0  0  0  0  0  0
  192.0170  178.0400  143.0510 N   0  0  0  0  0  0  0  0  0  0  0  0
  188.7220  177.9730  146.0350 C   0  0  0  0  0  0  0  0  0  0  0  0
  187.8080  178.0070  147.0860 C   0  0  0  0  0  3  0  0  0  0  0  0
  191.3660  177.2790  140.7940 C   0  0  0  0  0  0  0  0  0  0  0  0
  192.5550  177.3060  140.3790 O   0  0  0  0  0  0  0  0  0  0  0  0
  188.6890  176.7460  141.7560 C   0  0  0  0  0  2  0  0  0  0  0  0
  186.1180  177.1500  145.5330 C   0  0  0  0  0  3  0  0  0  0  0  0
  190.4650  178.1190  144.8340 C   0  0  2  0  0  3  0  0  0  0  0  0
  190.0240  178.3340  146.0960 N   0  0  0  0  0  0  0  0  0  0  0  0
  190.3020  176.9510  139.8960 N   0  0  0  0  0  2  0  0  0  0  0  0
  187.0560  177.1230  144.4860 C   0  0  0  0  0  3  0  0  0  0  0  0
  188.9020  177.1320  140.2860 C   0  0  2  0  0  3  0  0  0  0  0  0
  191.0520  177.5630  142.2000 C   0  0  0  0  0  0  0  0  0  0  0  0
  188.4670  178.5740  140.0540 C   0  0  0  0  0  2  0  0  0  0  0  0
  184.6650  178.8700  139.8640 N   0  0  0  0  0  0  0  0  0  0  0  0
  183.1850  179.0090  139.9790 C   0  0  0  0  0  2  0  0  0  0  0  0
  183.7050  178.7400  138.7310 C   0  0  0  0  0  2  0  0  0  0  0  0
  187.0990  178.6210  139.5580 N   0  0  0  0  0  2  0  0  0  0  0  0
  185.9780  178.8640  140.4120 C   0  0  0  0  0  0  0  0  0  0  0  0
  186.1430  179.0750  141.6430 O   0  0  0  0  0  0  0  0  0  0  0  0
  1  4  2  0  0  0  0
  1 13  1  0  0  0  0
  2  1  1  0  0  0  0
  4  7  1  0  0  0  0
  5  8  2  0  0  0  0
  6  3  2  0  0  0  0
  7 14  2  0  0  0  0
  7  8  1  0  0  0  0
  9 18  1  0  0  0  0
 10  9  2  0  0  0  0
 11  2  1  0  0  0  0
 12  5  1  0  0  0  0
 13  3  1  1  0  0  0
 13 14  1  0  0  0  0
 15 17  1  0  0  0  0
 15  9  1  0  0  0  0
 16  4  1  0  0  0  0
 16 12  2  0  0  0  0
 17 19  1  1  0  0  0
 17 11  1  0  0  0  0
 18  2  2  0  0  0  0
 18  6  1  0  0  0  0
 20 21  1  0  0  0  0
 20 24  1  0  0  0  0
 22 20  1  0  0  0  0
 22 21  1  0  0  0  0
 23 19  1  0  0  0  0
 23 24  1  0  0  0  0
 24 25  2  0  0  0  0
M  END
>  <MODEL>
7

>  <REMARK>
 VINA RESULT:      -8.2      2.486      4.659
  Name = 
  2 active torsions:
  status: ('A' for Active; 'I' for Inactive)
    1  A    between atoms: C_6  and  N_15
    2  A    between atoms: C_6  and  C_23
                            x       y       z     vdW  Elec       q    Type
                         _______ _______ _______ _____ _____    ______ ____

>  <TORSDO>
F 2

$$$$
=
 OpenBabel11052412403D

 25 29  0  0  1  0  0  0  0  0999 V2000
  188.4520  177.6770  144.0270 C   0  0  0  0  0  0  0  0  0  0  0  0
  188.4160  178.0400  142.6800 C   0  0  0  0  0  0  0  0  0  0  0  0
  186.0550  177.7540  144.1910 C   0  0  0  0  0  3  0  0  0  0  0  0
  189.4830  177.4020  144.8910 C   0  0  1  0  0  3  0  0  0  0  0  0
  191.0580  176.7460  147.0690 C   0  0  0  0  0  3  0  0  0  0  0  0
  186.0070  178.1170  142.8750 N   0  0  0  0  0  0  0  0  0  0  0  0
  188.8930  177.1030  146.1020 C   0  0  0  0  0  0  0  0  0  0  0  0
  189.6580  176.7700  147.2180 C   0  0  0  0  0  3  0  0  0  0  0  0
  187.0510  178.6440  140.7000 C   0  0  0  0  0  0  0  0  0  0  0  0
  185.9540  179.0030  140.1950 O   0  0  0  0  0  0  0  0  0  0  0  0
  189.6700  178.2840  141.8810 C   0  0  0  0  0  2  0  0  0  0  0  0
  191.6560  177.0510  145.8280 C   0  0  0  0  0  3  0  0  0  0  0  0
  187.3000  177.5310  144.7680 C   0  0  0  0  0  0  0  0  0  0  0  0
  187.5430  177.1770  146.0510 N   0  0  0  0  0  0  0  0  0  0  0  0
  188.2350  178.6200  139.8980 N   0  0  0  0  0  2  0  0  0  0  0  0
  190.8650  177.3850  144.7140 C   0  0  0  0  0  3  0  0  0  0  0  0
  189.4670  177.9970  140.3870 C   0  0  2  0  0  3  0  0  0  0  0  0
  187.1410  178.2640  142.1160 C   0  0  0  0  0  0  0  0  0  0  0  0
  189.4370  176.4940  140.1410 C   0  0  0  0  0  2  0  0  0  0  0  0
  189.8560  175.3750  136.5150 N   0  0  0  0  0  0  0  0  0  0  0  0
  190.1980  174.8880  135.1470 C   0  0  0  0  0  2  0  0  0  0  0  0
  188.9520  175.4490  135.3320 C   0  0  0  0  0  2  0  0  0  0  0  0
  189.1860  176.2110  138.7350 N   0  0  0  0  0  2  0  0  0  0  0  0
  190.1590  175.5970  137.8870 C   0  0  0  0  0  0  0  0  0  0  0  0
  191.2800  175.2490  138.3440 O   0  0  0  0  0  0  0  0  0  0  0  0
  1 13  2  0  0  0  0
  1  4  1  0  0  0  0
  2  1  1  0  0  0  0
  3 13  1  0  0  0  0
  4 16  1  6  0  0  0
  4  7  1  0  0  0  0
  5  8  2  0  0  0  0
  6  3  2  0  0  0  0
  7  8  1  0  0  0  0
  9 18  1  0  0  0  0
 10  9  2  0  0  0  0
 11  2  1  0  0  0  0
 12  5  1  0  0  0  0
 13 14  1  0  0  0  0
 14  7  2  0  0  0  0
 15 17  1  0  0  0  0
 15  9  1  0  0  0  0
 16 12  2  0  0  0  0
 17 19  1  1  0  0  0
 17 11  1  0  0  0  0
 18  2  2  0  0  0  0
 18  6  1  0  0  0  0
 20 24  1  0  0  0  0
 21 22  1  0  0  0  0
 21 20  1  0  0  0  0
 22 20  1  0  0  0  0
 23 19  1  0  0  0  0
 24 25  2  0  0  0  0
 24 23  1  0  0  0  0
M  END
>  <MODEL>
8

>  <REMARK>
 VINA RESULT:      -8.2      2.763      5.135
  Name = 
  2 active torsions:
  status: ('A' for Active; 'I' for Inactive)
    1  A    between atoms: C_6  and  N_15
    2  A    between atoms: C_6  and  C_23
                            x       y       z     vdW  Elec       q    Type
                         _______ _______ _______ _____ _____    ______ ____

>  <TORSDO>
F 2

$$$$
=
 OpenBabel11052412403D

 25 29  0  0  1  0  0  0  0  0999 V2000
  187.5010  177.7990  142.8400 C   0  0  0  0  0  0  0  0  0  0  0  0
  186.2600  178.3930  143.0720 C   0  0  0  0  0  0  0  0  0  0  0  0
  187.6100  176.9690  145.0930 C   0  0  0  0  0  3  0  0  0  0  0  0
  188.3170  177.7440  141.7370 C   0  0  0  0  0  0  0  0  0  0  0  0
  190.3520  177.2680  139.9230 C   0  0  0  0  0  3  0  0  0  0  0  0
  186.3990  177.5530  145.3340 N   0  0  0  0  0  0  0  0  0  0  0  0
  189.4210  177.0100  142.1180 C   0  0  0  0  0  0  0  0  0  0  0  0
  190.4630  176.7540  141.2290 C   0  0  0  0  0  2  0  0  0  0  0  0
  184.4140  178.8570  144.6600 C   0  0  0  0  0  0  0  0  0  0  0  0
  183.9650  178.8910  145.8370 O   0  0  0  0  0  0  0  0  0  0  0  0
  185.5650  179.2330  142.0310 C   0  0  0  0  0  2  0  0  0  0  0  0
  189.2190  178.0180  139.5390 C   0  0  0  0  0  3  0  0  0  0  0  0
  188.1620  177.0980  143.8230 C   0  0  0  0  0  0  0  0  0  0  0  0
  189.3490  176.6000  143.4050 N   0  0  0  0  0  0  0  0  0  0  0  0
  183.6580  179.4270  143.5890 N   0  0  0  0  0  2  0  0  0  0  0  0
  188.1780  178.2650  140.4510 C   0  0  0  0  0  3  0  0  0  0  0  0
  184.0400  179.2060  142.1930 C   0  0  2  0  0  3  0  0  0  0  0  0
  185.7200  178.2530  144.3690 C   0  0  0  0  0  0  0  0  0  0  0  0
  183.4830  177.8780  141.6930 C   0  0  0  0  0  2  0  0  0  0  0  0
  183.4490  176.6640  138.0730 N   0  0  0  0  0  0  0  0  0  0  0  0
  183.2850  176.0840  136.7090 C   0  0  0  0  0  2  0  0  0  0  0  0
  184.3510  176.9330  136.9170 C   0  0  0  0  0  2  0  0  0  0  0  0
  183.8140  177.6810  140.2890 N   0  0  0  0  0  2  0  0  0  0  0  0
  183.0520  176.8320  139.4290 C   0  0  0  0  0  0  0  0  0  0  0  0
  182.0310  176.2320  139.8600 O   0  0  0  0  0  0  0  0  0  0  0  0
  1  2  2  0  0  0  0
  1 13  1  0  0  0  0
  2 18  1  0  0  0  0
  3  6  1  0  0  0  0
  4  7  1  0  0  0  0
  4  1  1  0  0  0  0
  5  8  1  0  0  0  0
  7 14  2  0  0  0  0
  8  7  1  0  0  0  0
  9 10  2  0  0  0  0
 11 17  1  0  0  0  0
 11  2  1  0  0  0  0
 12  5  2  0  0  0  0
 12 16  1  0  0  0  0
 13  3  2  0  0  0  0
 14 13  1  0  0  0  0
 15  9  1  0  0  0  0
 16  4  2  0  0  0  0
 17 19  1  1  0  0  0
 17 15  1  0  0  0  0
 18  9  1  0  0  0  0
 18  6  2  0  0  0  0
 20 24  1  0  0  0  0
 21 22  1  0  0  0  0
 21 20  1  0  0  0  0
 22 20  1  0  0  0  0
 23 19  1  0  0  0  0
 24 25  2  0  0  0  0
 24 23  1  0  0  0  0
M  END
>  <MODEL>
9

>  <REMARK>
 VINA RESULT:      -7.7      3.964      6.243
  Name = 
  2 active torsions:
  status: ('A' for Active; 'I' for Inactive)
    1  A    between atoms: C_6  and  N_15
    2  A    between atoms: C_6  and  C_23
                            x       y       z     vdW  Elec       q    Type
                         _______ _______ _______ _____ _____    ______ ____

>  <TORSDO>
F 2

$$$$
