=
 OpenBabel11052414273D

 32 38  0  0  1  0  0  0  0  0999 V2000
  189.9690  177.2560  141.5300 C   0  0  1  0  0  3  0  0  0  0  0  0
  187.6750  177.7210  142.5510 C   0  0  0  0  0  0  0  0  0  0  0  0
  191.3590  177.6640  141.9410 C   0  0  0  0  0  3  0  0  0  0  0  0
  189.0130  177.3330  142.7070 C   0  0  0  0  0  0  0  0  0  0  0  0
  186.8200  177.7370  143.6720 C   0  0  0  0  0  0  0  0  0  0  0  0
  183.8400  179.3360  139.7540 C   0  0  0  0  0  2  0  0  0  0  0  0
  187.1850  178.0700  141.1670 C   0  0  2  0  0  3  0  0  0  0  0  0
  183.6310  178.8570  142.0930 O   0  0  0  0  0  0  0  0  0  0  0  0
  184.8670  178.1850  142.1350 C   0  0  2  0  0  3  0  0  0  0  0  0
  189.4930  177.0130  143.9860 C   0  0  0  0  0  0  0  0  0  0  0  0
  185.4090  178.2500  143.5580 C   0  0  0  0  0  2  0  0  0  0  0  0
  188.6540  177.0330  145.0520 N   0  0  0  0  0  0  0  0  0  0  0  0
  190.9390  176.6380  144.1640 C   0  0  0  0  0  2  0  0  0  0  0  0
  188.2760  178.8560  140.4440 C   0  0  0  0  0  2  0  0  0  0  0  0
  189.5230  177.9800  140.2400 C   0  0  2  0  0  3  0  0  0  0  0  0
  185.8650  178.8430  141.1650 C   0  0  2  0  0  3  0  0  0  0  0  0
  187.3430  177.3760  144.9310 C   0  0  0  0  0  0  0  0  0  0  0  0
  191.8100  177.3730  143.1720 C   0  0  0  0  0  3  0  0  0  0  0  0
  183.0600  178.5940  140.8350 C   0  0  0  0  0  2  0  0  0  0  0  0
  185.2760  178.8260  139.7510 C   0  0  0  0  0  2  0  0  0  0  0  0
  187.9160  176.3290  137.0290 C   0  0  2  0  0  3  0  0  0  0  0  0
  191.2430  175.8000  135.9850 C   0  0  0  0  0  1  0  0  0  0  0  0
  186.5020  175.7860  137.0850 C   0  0  0  0  0  1  0  0  0  0  0  0
  191.0340  175.2750  138.4710 C   0  0  0  0  0  2  0  0  0  0  0  0
  189.3070  176.9730  139.0960 C   0  0  2  0  0  3  0  0  0  0  0  0
  188.9130  175.1680  137.0340 C   0  0  0  0  0  2  0  0  0  0  0  0
  190.5850  176.7220  138.2860 C   0  0  2  0  0  3  0  0  0  0  0  0
  188.1300  177.3430  138.1660 C   0  0  1  0  0  3  0  0  0  0  0  0
  188.2940  178.7320  137.5670 C   0  0  0  0  0  1  0  0  0  0  0  0
  190.3410  175.6850  137.1950 C   0  0  2  0  0  0  0  0  0  0  0  0
  186.4960  177.4140  146.1600 C   0  0  0  0  0  2  0  0  0  0  0  0
  187.1410  178.1550  147.1500 O   0  0  0  0  0  1  0  0  0  0  0  0
  1  3  1  1  0  0  0
  1  4  1  0  0  0  0
  2  4  2  0  0  0  0
  2  5  1  0  0  0  0
  3 18  2  0  0  0  0
  4 10  1  0  0  0  0
  5 17  2  0  0  0  0
  6 19  1  0  0  0  0
  7 14  1  1  0  0  0
  7  2  1  0  0  0  0
  8  9  1  0  0  0  0
  9 11  1  1  0  0  0
 10 13  1  0  0  0  0
 10 12  2  0  0  0  0
 11  5  1  0  0  0  0
 15 14  1  1  0  0  0
 15  1  1  0  0  0  0
 16 20  1  6  0  0  0
 16  7  1  0  0  0  0
 16  9  1  0  0  0  0
 17 12  1  0  0  0  0
 17 31  1  0  0  0  0
 18 13  1  0  0  0  0
 19  8  1  0  0  0  0
 20  6  1  0  0  0  0
 21 26  1  0  0  0  0
 21 23  1  1  0  0  0
 21 28  1  0  0  0  0
 25 15  1  1  0  0  0
 26 30  1  0  0  0  0
 27 24  1  1  0  0  0
 27 25  1  0  0  0  0
 28 29  1  6  0  0  0
 28 25  1  0  0  0  0
 30 22  1  6  0  0  0
 30 27  1  0  0  0  0
 30 24  1  0  0  0  0
 31 32  1  0  0  0  0
M  END
>  <MODEL>
1

>  <REMARK>
 VINA RESULT:      -9.4      0.000      0.000
  Name = 
  2 active torsions:
  status: ('A' for Active; 'I' for Inactive)
    1  A    between atoms: C_13  and  CA_29
    2  A    between atoms: C_16  and  C_27
                            x       y       z     vdW  Elec       q    Type
                         _______ _______ _______ _____ _____    ______ ____

>  <TORSDO>
F 2

$$$$
=
 OpenBabel11052414273D

 32 38  0  0  1  0  0  0  0  0999 V2000
  187.8490  177.7950  139.7060 C   0  0  1  0  0  3  0  0  0  0  0  0
  187.7660  177.7230  142.2560 C   0  0  0  0  0  0  0  0  0  0  0  0
  188.8700  178.3400  138.7430 C   0  0  0  0  0  3  0  0  0  0  0  0
  188.4740  177.5270  141.0620 C   0  0  0  0  0  0  0  0  0  0  0  0
  188.3820  177.4200  143.4880 C   0  0  0  0  0  0  0  0  0  0  0  0
  183.6850  179.1630  144.7890 C   0  0  0  0  0  2  0  0  0  0  0  0
  186.3420  178.2160  142.1750 C   0  0  2  0  0  3  0  0  0  0  0  0
  185.6360  178.2770  145.8640 O   0  0  0  0  0  0  0  0  0  0  0  0
  186.1740  177.8080  144.6510 C   0  0  2  0  0  3  0  0  0  0  0  0
  189.8020  177.0780  141.1150 C   0  0  0  0  0  0  0  0  0  0  0  0
  187.6890  177.7190  144.7910 C   0  0  0  0  0  2  0  0  0  0  0  0
  190.3770  176.7910  142.3100 N   0  0  0  0  0  0  0  0  0  0  0  0
  190.5800  176.9080  139.8380 C   0  0  0  0  0  2  0  0  0  0  0  0
  186.2510  179.2700  141.0750 C   0  0  0  0  0  2  0  0  0  0  0  0
  186.5580  178.6450  139.7040 C   0  0  2  0  0  3  0  0  0  0  0  0
  185.8110  178.7630  143.5010 C   0  0  2  0  0  3  0  0  0  0  0  0
  189.7080  176.9420  143.4860 C   0  0  0  0  0  0  0  0  0  0  0  0
  190.1460  177.9240  138.8060 C   0  0  0  0  0  3  0  0  0  0  0  0
  184.2390  178.1400  145.7760 C   0  0  0  0  0  2  0  0  0  0  0  0
  184.2860  178.8890  143.4150 C   0  0  0  0  0  2  0  0  0  0  0  0
  182.8030  177.5820  139.0840 C   0  0  2  0  0  3  0  0  0  0  0  0
  183.8430  176.8870  135.7860 C   0  0  0  0  0  1  0  0  0  0  0  0
  181.9300  177.1690  140.2510 C   0  0  0  0  0  1  0  0  0  0  0  0
  185.6090  176.0650  137.4300 C   0  0  0  0  0  2  0  0  0  0  0  0
  185.3630  177.8190  139.1960 C   0  0  2  0  0  3  0  0  0  0  0  0
  183.2060  176.3420  138.2810 C   0  0  0  0  0  2  0  0  0  0  0  0
  185.4300  177.5590  137.6850 C   0  0  2  0  0  3  0  0  0  0  0  0
  183.9920  178.4150  139.5900 C   0  0  1  0  0  3  0  0  0  0  0  0
  183.8360  179.8490  139.1060 C   0  0  0  0  0  1  0  0  0  0  0  0
  184.2560  176.7000  137.2300 C   0  0  2  0  0  0  0  0  0  0  0  0
  190.4260  176.6440  144.7610 C   0  0  0  0  0  2  0  0  0  0  0  0
  191.6020  177.3920  144.8230 O   0  0  0  0  0  1  0  0  0  0  0  0
  1  3  1  6  0  0  0
  1  4  1  0  0  0  0
  2  5  1  0  0  0  0
  3 18  2  0  0  0  0
  4 10  1  0  0  0  0
  4  2  2  0  0  0  0
  5 11  1  0  0  0  0
  6 19  1  0  0  0  0
  7 14  1  6  0  0  0
  7  2  1  0  0  0  0
  7 16  1  0  0  0  0
  9 11  1  1  0  0  0
  9  8  1  0  0  0  0
 10 12  2  0  0  0  0
 12 17  1  0  0  0  0
 13 10  1  0  0  0  0
 15  1  1  0  0  0  0
 15 14  1  1  0  0  0
 16 20  1  6  0  0  0
 16  9  1  0  0  0  0
 17  5  2  0  0  0  0
 17 31  1  0  0  0  0
 18 13  1  0  0  0  0
 19  8  1  0  0  0  0
 20  6  1  0  0  0  0
 21 28  1  0  0  0  0
 21 23  1  1  0  0  0
 25 28  1  0  0  0  0
 25 15  1  6  0  0  0
 26 21  1  0  0  0  0
 27 24  1  1  0  0  0
 27 25  1  0  0  0  0
 28 29  1  6  0  0  0
 30 22  1  6  0  0  0
 30 24  1  0  0  0  0
 30 27  1  0  0  0  0
 30 26  1  0  0  0  0
 31 32  1  0  0  0  0
M  END
>  <MODEL>
2

>  <REMARK>
 VINA RESULT:      -8.5      1.891      4.245
  Name = 
  2 active torsions:
  status: ('A' for Active; 'I' for Inactive)
    1  A    between atoms: C_13  and  CA_29
    2  A    between atoms: C_16  and  C_27
                            x       y       z     vdW  Elec       q    Type
                         _______ _______ _______ _____ _____    ______ ____

>  <TORSDO>
F 2

$$$$
=
 OpenBabel11052414273D

 32 38  0  0  1  0  0  0  0  0999 V2000
  186.2570  178.1470  138.5960 C   0  0  1  0  0  3  0  0  0  0  0  0
  187.2570  178.0170  140.9420 C   0  0  0  0  0  0  0  0  0  0  0  0
  186.7150  178.8380  137.3390 C   0  0  0  0  0  3  0  0  0  0  0  0
  187.4180  177.9370  139.5510 C   0  0  0  0  0  0  0  0  0  0  0  0
  188.3610  177.7730  141.7840 C   0  0  0  0  0  0  0  0  0  0  0  0
  184.4790  178.8680  145.0280 C   0  0  0  0  0  2  0  0  0  0  0  0
  185.8860  178.3230  141.4910 C   0  0  2  0  0  3  0  0  0  0  0  0
  186.7850  178.2230  145.1360 O   0  0  0  0  0  0  0  0  0  0  0  0
  186.8140  177.8500  143.7790 C   0  0  2  0  0  3  0  0  0  0  0  0
  188.6860  177.6630  139.0190 C   0  0  0  0  0  0  0  0  0  0  0  0
  188.2490  177.9550  143.2750 C   0  0  0  0  0  2  0  0  0  0  0  0
  189.7360  177.4310  139.8470 N   0  0  0  0  0  0  0  0  0  0  0  0
  188.8720  177.6190  137.5270 C   0  0  0  0  0  2  0  0  0  0  0  0
  185.2270  179.3770  140.6040 C   0  0  0  0  0  2  0  0  0  0  0  0
  184.9990  178.8220  139.1880 C   0  0  2  0  0  3  0  0  0  0  0  0
  185.9000  178.7720  142.9530 C   0  0  2  0  0  3  0  0  0  0  0  0
  189.6090  177.4710  141.2010 C   0  0  0  0  0  0  0  0  0  0  0  0
  187.9380  178.5890  136.8410 C   0  0  0  0  0  3  0  0  0  0  0  0
  185.5040  177.9080  145.6230 C   0  0  0  0  0  2  0  0  0  0  0  0
  184.4770  178.7010  143.5130 C   0  0  0  0  0  2  0  0  0  0  0  0
  181.2790  177.5470  139.5750 C   0  0  2  0  0  3  0  0  0  0  0  0
  181.8180  175.9190  136.4930 C   0  0  0  0  0  1  0  0  0  0  0  0
  180.6390  177.4860  140.9470 C   0  0  0  0  0  1  0  0  0  0  0  0
  183.8810  175.6620  137.9680 C   0  0  0  0  0  2  0  0  0  0  0  0
  183.7990  177.8590  139.1610 C   0  0  2  0  0  3  0  0  0  0  0  0
  181.6340  176.1330  139.1100 C   0  0  0  0  0  2  0  0  0  0  0  0
  183.6400  177.1600  137.8050 C   0  0  2  0  0  3  0  0  0  0  0  0
  182.4720  178.5180  139.6000 C   0  0  1  0  0  3  0  0  0  0  0  0
  182.1370  179.7380  138.7540 C   0  0  0  0  0  1  0  0  0  0  0  0
  182.4710  176.1810  137.8340 C   0  0  2  0  0  0  0  0  0  0  0  0
  190.8220  177.2450  142.0410 C   0  0  0  0  0  2  0  0  0  0  0  0
  191.9680  177.5030  141.2890 O   0  0  0  0  0  1  0  0  0  0  0  0
  1  3  1  6  0  0  0
  1 15  1  0  0  0  0
  1  4  1  0  0  0  0
  2  7  1  0  0  0  0
  2  5  1  0  0  0  0
  4  2  2  0  0  0  0
  5 11  1  0  0  0  0
  6 19  1  0  0  0  0
  7 14  1  6  0  0  0
  7 16  1  0  0  0  0
  8 19  1  0  0  0  0
  9 11  1  6  0  0  0
  9  8  1  0  0  0  0
 10  4  1  0  0  0  0
 10 12  2  0  0  0  0
 12 17  1  0  0  0  0
 13 10  1  0  0  0  0
 15 14  1  1  0  0  0
 16 20  1  1  0  0  0
 16  9  1  0  0  0  0
 17  5  2  0  0  0  0
 17 31  1  0  0  0  0
 18  3  2  0  0  0  0
 18 13  1  0  0  0  0
 20  6  1  0  0  0  0
 21 28  1  0  0  0  0
 21 23  1  1  0  0  0
 25 15  1  6  0  0  0
 25 28  1  0  0  0  0
 26 21  1  0  0  0  0
 27 30  1  0  0  0  0
 27 24  1  1  0  0  0
 27 25  1  0  0  0  0
 28 29  1  6  0  0  0
 30 22  1  6  0  0  0
 30 24  1  0  0  0  0
 30 26  1  0  0  0  0
 32 31  1  0  0  0  0
M  END
>  <MODEL>
3

>  <REMARK>
 VINA RESULT:      -8.2      2.492      5.665
  Name = 
  2 active torsions:
  status: ('A' for Active; 'I' for Inactive)
    1  A    between atoms: C_13  and  CA_29
    2  A    between atoms: C_16  and  C_27
                            x       y       z     vdW  Elec       q    Type
                         _______ _______ _______ _____ _____    ______ ____

>  <TORSDO>
F 2

$$$$
=
 OpenBabel11052414273D

 32 38  0  0  1  0  0  0  0  0999 V2000
  181.0650  178.7120  140.8550 C   0  0  1  0  0  3  0  0  0  0  0  0
  183.5390  178.6240  141.4790 C   0  0  0  0  0  0  0  0  0  0  0  0
  179.8490  178.0500  141.4460 C   0  0  0  0  0  3  0  0  0  0  0  0
  182.1970  178.7630  141.8630 C   0  0  0  0  0  0  0  0  0  0  0  0
  184.5540  178.7190  142.4520 C   0  0  0  0  0  0  0  0  0  0  0  0
  187.0860  177.8180  138.0280 C   0  0  0  0  0  2  0  0  0  0  0  0
  183.8500  178.4180  140.0170 C   0  0  2  0  0  3  0  0  0  0  0  0
  187.5880  178.2390  140.3340 O   0  0  0  0  0  0  0  0  0  0  0  0
  186.2800  178.6800  140.6080 C   0  0  2  0  0  3  0  0  0  0  0  0
  181.8850  178.9460  143.2180 C   0  0  0  0  0  0  0  0  0  0  0  0
  185.9950  178.4680  142.0910 C   0  0  0  0  0  2  0  0  0  0  0  0
  182.8770  179.0350  144.1400 N   0  0  0  0  0  0  0  0  0  0  0  0
  180.4450  179.0520  143.6410 C   0  0  0  0  0  2  0  0  0  0  0  0
  182.8040  177.4780  139.4210 C   0  0  0  0  0  2  0  0  0  0  0  0
  181.4110  178.1260  139.4670 C   0  0  2  0  0  3  0  0  0  0  0  0
  185.2630  177.8920  139.7630 C   0  0  2  0  0  3  0  0  0  0  0  0
  184.1900  178.9340  143.7970 C   0  0  0  0  0  0  0  0  0  0  0  0
  179.5610  178.2100  142.7490 C   0  0  0  0  0  3  0  0  0  0  0  0
  187.8940  178.6460  139.0230 C   0  0  0  0  0  2  0  0  0  0  0  0
  185.6040  178.0650  138.2790 C   0  0  0  0  0  2  0  0  0  0  0  0
  180.1800  179.8520  136.1320 C   0  0  2  0  0  3  0  0  0  0  0  0
  179.8320  182.7580  138.1000 C   0  0  0  0  0  1  0  0  0  0  0  0
  180.5710  179.2680  134.7890 C   0  0  0  0  0  1  0  0  0  0  0  0
  181.9990  181.5640  138.7140 C   0  0  0  0  0  2  0  0  0  0  0  0
  181.2650  179.1970  138.3710 C   0  0  2  0  0  3  0  0  0  0  0  0
  180.9940  181.1210  136.3980 C   0  0  0  0  0  2  0  0  0  0  0  0
  180.8660  180.5660  138.9380 C   0  0  2  0  0  3  0  0  0  0  0  0
  180.3160  178.7790  137.2250 C   0  0  1  0  0  3  0  0  0  0  0  0
  178.9310  178.4150  137.7400 C   0  0  0  0  0  1  0  0  0  0  0  0
  180.7790  181.6070  137.8290 C   0  0  2  0  0  0  0  0  0  0  0  0
  185.2190  179.0020  144.8770 C   0  0  0  0  0  2  0  0  0  0  0  0
  184.5910  179.0110  146.1230 O   0  0  0  0  0  1  0  0  0  0  0  0
  1  3  1  1  0  0  0
  1  4  1  0  0  0  0
  2  4  2  0  0  0  0
  2  5  1  0  0  0  0
  3 18  2  0  0  0  0
  4 10  1  0  0  0  0
  5 17  2  0  0  0  0
  6 20  1  0  0  0  0
  6 19  1  0  0  0  0
  7 14  1  1  0  0  0
  7  2  1  0  0  0  0
  8  9  1  0  0  0  0
  9 11  1  1  0  0  0
 10 13  1  0  0  0  0
 10 12  2  0  0  0  0
 11  5  1  0  0  0  0
 15 14  1  1  0  0  0
 15  1  1  0  0  0  0
 16 20  1  6  0  0  0
 16  7  1  0  0  0  0
 16  9  1  0  0  0  0
 17 12  1  0  0  0  0
 17 31  1  0  0  0  0
 18 13  1  0  0  0  0
 19  8  1  0  0  0  0
 21 23  1  6  0  0  0
 21 26  1  0  0  0  0
 21 28  1  0  0  0  0
 25 27  1  0  0  0  0
 25 15  1  1  0  0  0
 26 30  1  0  0  0  0
 27 24  1  1  0  0  0
 28 29  1  1  0  0  0
 28 25  1  0  0  0  0
 30 22  1  1  0  0  0
 30 24  1  0  0  0  0
 30 27  1  0  0  0  0
 31 32  1  0  0  0  0
M  END
>  <MODEL>
4

>  <REMARK>
 VINA RESULT:      -8.1      3.317      7.623
  Name = 
  2 active torsions:
  status: ('A' for Active; 'I' for Inactive)
    1  A    between atoms: C_13  and  CA_29
    2  A    between atoms: C_16  and  C_27
                            x       y       z     vdW  Elec       q    Type
                         _______ _______ _______ _____ _____    ______ ____

>  <TORSDO>
F 2

$$$$
=
 OpenBabel11052414273D

 32 38  0  0  1  0  0  0  0  0999 V2000
  186.6090  177.9130  137.7520 C   0  0  1  0  0  3  0  0  0  0  0  0
  187.6710  177.9110  140.0740 C   0  0  0  0  0  0  0  0  0  0  0  0
  186.9680  178.6280  136.4760 C   0  0  0  0  0  3  0  0  0  0  0  0
  187.8060  177.8280  138.6800 C   0  0  0  0  0  0  0  0  0  0  0  0
  188.8120  177.7870  140.8920 C   0  0  0  0  0  0  0  0  0  0  0  0
  184.9180  178.5430  144.2160 C   0  0  0  0  0  2  0  0  0  0  0  0
  186.2890  178.0900  140.6520 C   0  0  2  0  0  3  0  0  0  0  0  0
  187.2780  178.1260  144.2760 O   0  0  0  0  0  0  0  0  0  0  0  0
  187.3120  177.7390  142.9220 C   0  0  2  0  0  3  0  0  0  0  0  0
  189.0820  177.6720  138.1200 C   0  0  0  0  0  0  0  0  0  0  0  0
  188.7170  177.9770  142.3830 C   0  0  0  0  0  2  0  0  0  0  0  0
  190.1690  177.5540  138.9250 N   0  0  0  0  0  0  0  0  0  0  0  0
  189.2370  177.6260  136.6250 C   0  0  0  0  0  2  0  0  0  0  0  0
  185.5100  179.0630  139.7700 C   0  0  0  0  0  2  0  0  0  0  0  0
  185.3050  178.4700  138.3670 C   0  0  2  0  0  3  0  0  0  0  0  0
  186.2940  178.5580  142.1080 C   0  0  2  0  0  3  0  0  0  0  0  0
  190.0690  177.5990  140.2820 C   0  0  0  0  0  0  0  0  0  0  0  0
  188.1970  178.4920  135.9510 C   0  0  0  0  0  3  0  0  0  0  0  0
  186.0450  177.6940  144.7970 C   0  0  0  0  0  2  0  0  0  0  0  0
  184.8970  178.3560  142.7040 C   0  0  0  0  0  2  0  0  0  0  0  0
  181.7310  176.8500  138.8390 C   0  0  2  0  0  3  0  0  0  0  0  0
  182.3860  175.2090  135.7860 C   0  0  0  0  0  1  0  0  0  0  0  0
  181.1190  176.7600  140.2210 C   0  0  0  0  0  1  0  0  0  0  0  0
  184.4840  175.1880  137.2350 C   0  0  0  0  0  2  0  0  0  0  0  0
  184.2040  177.3950  138.3790 C   0  0  2  0  0  3  0  0  0  0  0  0
  182.2170  175.4660  138.4000 C   0  0  0  0  0  2  0  0  0  0  0  0
  184.0960  176.6510  137.0410 C   0  0  2  0  0  3  0  0  0  0  0  0
  182.8250  177.9320  138.8230 C   0  0  1  0  0  3  0  0  0  0  0  0
  182.3620  179.0940  137.9560 C   0  0  0  0  0  1  0  0  0  0  0  0
  183.0290  175.5650  137.1100 C   0  0  2  0  0  0  0  0  0  0  0  0
  191.3180  177.5030  141.0940 C   0  0  0  0  0  2  0  0  0  0  0  0
  192.4180  177.3570  140.2490 O   0  0  0  0  0  1  0  0  0  0  0  0
  1  3  1  6  0  0  0
  1 15  1  0  0  0  0
  1  4  1  0  0  0  0
  2  7  1  0  0  0  0
  2  5  1  0  0  0  0
  4  2  2  0  0  0  0
  5 11  1  0  0  0  0
  6 19  1  0  0  0  0
  7 14  1  6  0  0  0
  7 16  1  0  0  0  0
  8 19  1  0  0  0  0
  9 11  1  6  0  0  0
  9  8  1  0  0  0  0
 10  4  1  0  0  0  0
 10 12  2  0  0  0  0
 12 17  1  0  0  0  0
 13 10  1  0  0  0  0
 15 14  1  1  0  0  0
 16 20  1  1  0  0  0
 16  9  1  0  0  0  0
 17  5  2  0  0  0  0
 17 31  1  0  0  0  0
 18  3  2  0  0  0  0
 18 13  1  0  0  0  0
 20  6  1  0  0  0  0
 21 23  1  1  0  0  0
 25 15  1  6  0  0  0
 25 28  1  0  0  0  0
 26 21  1  0  0  0  0
 27 30  1  0  0  0  0
 27 24  1  1  0  0  0
 27 25  1  0  0  0  0
 28 29  1  6  0  0  0
 28 21  1  0  0  0  0
 30 22  1  6  0  0  0
 30 24  1  0  0  0  0
 30 26  1  0  0  0  0
 32 31  1  0  0  0  0
M  END
>  <MODEL>
5

>  <REMARK>
 VINA RESULT:      -7.9      2.730      5.685
  Name = 
  2 active torsions:
  status: ('A' for Active; 'I' for Inactive)
    1  A    between atoms: C_13  and  CA_29
    2  A    between atoms: C_16  and  C_27
                            x       y       z     vdW  Elec       q    Type
                         _______ _______ _______ _____ _____    ______ ____

>  <TORSDO>
F 2

$$$$
=
 OpenBabel11052414273D

 32 38  0  0  1  0  0  0  0  0999 V2000
  183.3140  178.8720  140.3020 C   0  0  1  0  0  3  0  0  0  0  0  0
  185.5960  178.2790  139.3220 C   0  0  0  0  0  0  0  0  0  0  0  0
  182.6370  178.4900  141.5920 C   0  0  0  0  0  3  0  0  0  0  0  0
  184.8180  178.7030  140.4090 C   0  0  0  0  0  0  0  0  0  0  0  0
  186.9950  178.1760  139.4660 C   0  0  0  0  0  0  0  0  0  0  0  0
  186.0860  176.6850  134.5940 C   0  0  0  0  0  2  0  0  0  0  0  0
  184.9040  177.9860  138.0140 C   0  0  2  0  0  3  0  0  0  0  0  0
  187.9600  177.0340  136.0480 O   0  0  0  0  0  0  0  0  0  0  0  0
  187.1860  177.7440  136.9850 C   0  0  2  0  0  3  0  0  0  0  0  0
  185.4400  178.9710  141.6380 C   0  0  0  0  0  0  0  0  0  0  0  0
  187.8460  177.6230  138.3530 C   0  0  0  0  0  2  0  0  0  0  0  0
  186.7880  178.8670  141.7560 N   0  0  0  0  0  0  0  0  0  0  0  0
  184.6050  179.3840  142.8190 C   0  0  0  0  0  2  0  0  0  0  0  0
  183.5840  177.2760  138.3060 C   0  0  0  0  0  2  0  0  0  0  0  0
  182.6360  178.2020  139.0850 C   0  0  2  0  0  3  0  0  0  0  0  0
  185.7580  177.1710  137.0420 C   0  0  2  0  0  3  0  0  0  0  0  0
  187.5750  178.4870  140.7130 C   0  0  0  0  0  0  0  0  0  0  0  0
  183.2420  178.7310  142.7670 C   0  0  0  0  0  3  0  0  0  0  0  0
  187.4510  177.3440  134.7740 C   0  0  0  0  0  2  0  0  0  0  0  0
  185.1340  177.2420  135.6450 C   0  0  0  0  0  2  0  0  0  0  0  0
  180.3930  179.7330  136.2150 C   0  0  2  0  0  3  0  0  0  0  0  0
  179.6830  182.2990  138.5290 C   0  0  0  0  0  1  0  0  0  0  0  0
  180.6610  179.3680  134.7690 C   0  0  0  0  0  1  0  0  0  0  0  0
  182.1610  181.7100  138.6390 C   0  0  0  0  0  2  0  0  0  0  0  0
  182.0140  179.2600  138.1570 C   0  0  2  0  0  3  0  0  0  0  0  0
  180.8860  181.1570  136.4850 C   0  0  0  0  0  2  0  0  0  0  0  0
  181.3890  180.4270  138.9330 C   0  0  2  0  0  3  0  0  0  0  0  0
  181.0070  178.6710  137.1430 C   0  0  1  0  0  3  0  0  0  0  0  0
  179.8860  177.9080  137.8340 C   0  0  0  0  0  1  0  0  0  0  0  0
  180.8270  181.4730  137.9780 C   0  0  2  0  0  0  0  0  0  0  0  0
  189.0460  178.3570  140.9370 C   0  0  0  0  0  2  0  0  0  0  0  0
  189.2960  178.1350  142.2910 O   0  0  0  0  0  1  0  0  0  0  0  0
  1  4  1  0  0  0  0
  1  3  1  1  0  0  0
  2  5  2  0  0  0  0
  2  4  1  0  0  0  0
  3 18  2  0  0  0  0
  4 10  2  0  0  0  0
  5 17  1  0  0  0  0
  6 19  1  0  0  0  0
  6 20  1  0  0  0  0
  7 14  1  1  0  0  0
  7  2  1  0  0  0  0
  8  9  1  0  0  0  0
  9 16  1  0  0  0  0
  9 11  1  1  0  0  0
 10 12  1  0  0  0  0
 10 13  1  0  0  0  0
 11  5  1  0  0  0  0
 15 14  1  6  0  0  0
 15  1  1  0  0  0  0
 16 20  1  6  0  0  0
 16  7  1  0  0  0  0
 17 31  1  0  0  0  0
 17 12  2  0  0  0  0
 18 13  1  0  0  0  0
 19  8  1  0  0  0  0
 21 23  1  6  0  0  0
 21 26  1  0  0  0  0
 21 28  1  0  0  0  0
 25 27  1  0  0  0  0
 25 15  1  1  0  0  0
 26 30  1  0  0  0  0
 27 24  1  6  0  0  0
 28 29  1  1  0  0  0
 28 25  1  0  0  0  0
 30 22  1  1  0  0  0
 30 24  1  0  0  0  0
 30 27  1  0  0  0  0
 31 32  1  0  0  0  0
M  END
>  <MODEL>
6

>  <REMARK>
 VINA RESULT:      -7.5      3.260      7.327
  Name = 
  2 active torsions:
  status: ('A' for Active; 'I' for Inactive)
    1  A    between atoms: C_13  and  CA_29
    2  A    between atoms: C_16  and  C_27
                            x       y       z     vdW  Elec       q    Type
                         _______ _______ _______ _____ _____    ______ ____

>  <TORSDO>
F 2

$$$$
=
 OpenBabel11052414273D

 32 38  0  0  1  0  0  0  0  0999 V2000
  189.8630  177.0890  139.9230 C   0  0  1  0  0  3  0  0  0  0  0  0
  188.0390  177.7630  141.5770 C   0  0  0  0  0  0  0  0  0  0  0  0
  191.3040  177.5040  139.7830 C   0  0  0  0  0  3  0  0  0  0  0  0
  189.3570  177.3560  141.3290 C   0  0  0  0  0  0  0  0  0  0  0  0
  187.6100  177.9580  142.9070 C   0  0  0  0  0  0  0  0  0  0  0  0
  183.4620  179.1070  140.0320 C   0  0  0  0  0  2  0  0  0  0  0  0
  187.1060  177.9370  140.4040 C   0  0  2  0  0  3  0  0  0  0  0  0
  184.0590  178.9570  142.3480 O   0  0  0  0  0  0  0  0  0  0  0  0
  185.2480  178.2570  142.0670 C   0  0  2  0  0  3  0  0  0  0  0  0
  190.2440  177.1970  142.4040 C   0  0  0  0  0  0  0  0  0  0  0  0
  186.2350  178.4970  143.2020 C   0  0  0  0  0  2  0  0  0  0  0  0
  189.8120  177.3900  143.6760 N   0  0  0  0  0  0  0  0  0  0  0  0
  191.6710  176.8030  142.1390 C   0  0  0  0  0  2  0  0  0  0  0  0
  187.8790  178.5810  139.2560 C   0  0  0  0  0  2  0  0  0  0  0  0
  188.9980  177.6450  138.7690 C   0  0  2  0  0  3  0  0  0  0  0  0
  185.8510  178.7440  140.7370 C   0  0  2  0  0  3  0  0  0  0  0  0
  188.5310  177.7550  143.9550 C   0  0  0  0  0  0  0  0  0  0  0  0
  192.1470  177.3680  140.8200 C   0  0  0  0  0  3  0  0  0  0  0  0
  183.1030  178.5440  141.4040 C   0  0  0  0  0  2  0  0  0  0  0  0
  184.8210  178.5550  139.6190 C   0  0  0  0  0  2  0  0  0  0  0  0
  186.5260  175.7090  136.3700 C   0  0  2  0  0  3  0  0  0  0  0  0
  189.4430  174.5890  134.7350 C   0  0  0  0  0  1  0  0  0  0  0  0
  185.1260  175.3700  136.8400 C   0  0  0  0  0  1  0  0  0  0  0  0
  189.7950  174.5130  137.2590 C   0  0  0  0  0  2  0  0  0  0  0  0
  188.4250  176.5000  137.9160 C   0  0  2  0  0  3  0  0  0  0  0  0
  187.3890  174.4450  136.3750 C   0  0  0  0  0  2  0  0  0  0  0  0
  189.4430  175.9550  136.9060 C   0  0  2  0  0  3  0  0  0  0  0  0
  187.0950  176.8600  137.2160 C   0  0  1  0  0  3  0  0  0  0  0  0
  187.2310  178.0990  136.3420 C   0  0  0  0  0  1  0  0  0  0  0  0
  188.8530  174.7930  136.1140 C   0  0  2  0  0  0  0  0  0  0  0  0
  188.1470  177.9870  145.3790 C   0  0  0  0  0  2  0  0  0  0  0  0
  187.9200  176.7640  146.0090 O   0  0  0  0  0  1  0  0  0  0  0  0
  1  3  1  1  0  0  0
  1  4  1  0  0  0  0
  2  5  1  0  0  0  0
  3 18  2  0  0  0  0
  4  2  2  0  0  0  0
  4 10  1  0  0  0  0
  5 11  1  0  0  0  0
  5 17  2  0  0  0  0
  6 19  1  0  0  0  0
  7 14  1  6  0  0  0
  7 16  1  0  0  0  0
  7  2  1  0  0  0  0
  9  8  1  0  0  0  0
  9 11  1  1  0  0  0
 10 12  2  0  0  0  0
 12 17  1  0  0  0  0
 13 10  1  0  0  0  0
 15 14  1  1  0  0  0
 15  1  1  0  0  0  0
 16 20  1  6  0  0  0
 16  9  1  0  0  0  0
 17 31  1  0  0  0  0
 18 13  1  0  0  0  0
 19  8  1  0  0  0  0
 20  6  1  0  0  0  0
 21 26  1  0  0  0  0
 21 23  1  1  0  0  0
 21 28  1  0  0  0  0
 25 15  1  6  0  0  0
 27 24  1  1  0  0  0
 27 25  1  0  0  0  0
 28 29  1  6  0  0  0
 28 25  1  0  0  0  0
 30 22  1  6  0  0  0
 30 26  1  0  0  0  0
 30 27  1  0  0  0  0
 30 24  1  0  0  0  0
 31 32  1  0  0  0  0
M  END
>  <MODEL>
7

>  <REMARK>
 VINA RESULT:      -7.5      1.221      1.574
  Name = 
  2 active torsions:
  status: ('A' for Active; 'I' for Inactive)
    1  A    between atoms: C_13  and  CA_29
    2  A    between atoms: C_16  and  C_27
                            x       y       z     vdW  Elec       q    Type
                         _______ _______ _______ _____ _____    ______ ____

>  <TORSDO>
F 2

$$$$
=
 OpenBabel11052414273D

 32 38  0  0  1  0  0  0  0  0999 V2000
  184.3810  178.6950  142.8740 C   0  0  1  0  0  3  0  0  0  0  0  0
  183.5380  178.1530  140.5250 C   0  0  0  0  0  0  0  0  0  0  0  0
  183.9090  179.6740  143.9160 C   0  0  0  0  0  3  0  0  0  0  0  0
  183.2750  178.3840  141.8830 C   0  0  0  0  0  0  0  0  0  0  0  0
  182.4760  177.8280  139.6560 C   0  0  0  0  0  0  0  0  0  0  0  0
  186.6640  177.8780  136.6150 C   0  0  0  0  0  2  0  0  0  0  0  0
  184.9680  178.2180  140.0500 C   0  0  2  0  0  3  0  0  0  0  0  0
  184.3180  177.4200  136.4370 O   0  0  0  0  0  0  0  0  0  0  0  0
  184.1570  177.3480  137.8340 C   0  0  2  0  0  3  0  0  0  0  0  0
  181.9510  178.3370  142.3460 C   0  0  0  0  0  0  0  0  0  0  0  0
  182.7090  177.6790  138.1760 C   0  0  0  0  0  2  0  0  0  0  0  0
  180.9430  178.0230  141.4930 N   0  0  0  0  0  0  0  0  0  0  0  0
  181.6590  178.6280  143.7920 C   0  0  0  0  0  2  0  0  0  0  0  0
  185.6670  179.3780  140.7560 C   0  0  0  0  0  2  0  0  0  0  0  0
  185.7390  179.1200  142.2700 C   0  0  2  0  0  3  0  0  0  0  0  0
  185.1000  178.3450  138.5310 C   0  0  2  0  0  3  0  0  0  0  0  0
  181.1670  177.7630  140.1760 C   0  0  0  0  0  0  0  0  0  0  0  0
  182.6360  179.6400  144.3440 C   0  0  0  0  0  3  0  0  0  0  0  0
  185.5910  176.9020  136.1410 C   0  0  0  0  0  2  0  0  0  0  0  0
  186.5450  178.0370  138.1260 C   0  0  0  0  0  2  0  0  0  0  0  0
  189.1760  177.1830  142.0510 C   0  0  2  0  0  3  0  0  0  0  0  0
  189.1420  177.3030  145.5760 C   0  0  0  0  0  1  0  0  0  0  0  0
  189.5130  176.3780  140.8120 C   0  0  0  0  0  1  0  0  0  0  0  0
  186.8050  176.7530  144.7160 C   0  0  0  0  0  2  0  0  0  0  0  0
  186.8310  178.0880  142.6010 C   0  0  2  0  0  3  0  0  0  0  0  0
  188.8020  176.2360  143.1930 C   0  0  0  0  0  2  0  0  0  0  0  0
  187.2040  178.0860  144.0890 C   0  0  2  0  0  3  0  0  0  0  0  0
  188.0920  178.2220  141.7180 C   0  0  1  0  0  3  0  0  0  0  0  0
  188.6980  179.6160  141.8000 C   0  0  0  0  0  1  0  0  0  0  0  0
  188.2520  177.0190  144.3830 C   0  0  2  0  0  0  0  0  0  0  0  0
  179.9980  177.4660  139.2960 C   0  0  0  0  0  2  0  0  0  0  0  0
  179.6940  176.1060  139.3640 O   0  0  0  0  0  1  0  0  0  0  0  0
  1  3  1  1  0  0  0
  2  4  1  0  0  0  0
  3 18  2  0  0  0  0
  4 10  2  0  0  0  0
  4  1  1  0  0  0  0
  5 17  1  0  0  0  0
  5  2  2  0  0  0  0
  6 20  1  0  0  0  0
  7  2  1  0  0  0  0
  7 14  1  1  0  0  0
  8  9  1  0  0  0  0
  9 11  1  6  0  0  0
  9 16  1  0  0  0  0
 10 13  1  0  0  0  0
 11  5  1  0  0  0  0
 12 10  1  0  0  0  0
 13 18  1  0  0  0  0
 15 14  1  6  0  0  0
 15  1  1  0  0  0  0
 16 20  1  1  0  0  0
 16  7  1  0  0  0  0
 17 12  2  0  0  0  0
 19  8  1  0  0  0  0
 19  6  1  0  0  0  0
 21 23  1  6  0  0  0
 21 26  1  0  0  0  0
 25 15  1  1  0  0  0
 25 27  1  0  0  0  0
 26 30  1  0  0  0  0
 27 30  1  0  0  0  0
 27 24  1  1  0  0  0
 28 29  1  1  0  0  0
 28 21  1  0  0  0  0
 28 25  1  0  0  0  0
 30 24  1  0  0  0  0
 30 22  1  1  0  0  0
 31 32  1  0  0  0  0
 31 17  1  0  0  0  0
M  END
>  <MODEL>
8

>  <REMARK>
 VINA RESULT:      -7.2      3.305      6.538
  Name = 
  2 active torsions:
  status: ('A' for Active; 'I' for Inactive)
    1  A    between atoms: C_13  and  CA_29
    2  A    between atoms: C_16  and  C_27
                            x       y       z     vdW  Elec       q    Type
                         _______ _______ _______ _____ _____    ______ ____

>  <TORSDO>
F 2

$$$$
=
 OpenBabel11052414273D

 32 38  0  0  1  0  0  0  0  0999 V2000
  186.2700  178.0430  140.5450 C   0  0  1  0  0  3  0  0  0  0  0  0
  184.7700  178.3060  142.5940 C   0  0  0  0  0  0  0  0  0  0  0  0
  187.6130  178.6280  140.1940 C   0  0  0  0  0  3  0  0  0  0  0  0
  186.0400  178.0800  142.0440 C   0  0  0  0  0  0  0  0  0  0  0  0
  184.6050  178.2900  143.9940 C   0  0  0  0  0  0  0  0  0  0  0  0
  179.8790  179.3160  142.1500 C   0  0  0  0  0  2  0  0  0  0  0  0
  183.6080  178.5170  141.6550 C   0  0  2  0  0  3  0  0  0  0  0  0
  180.9430  178.9520  144.2660 O   0  0  0  0  0  0  0  0  0  0  0  0
  182.1040  178.4270  143.6680 C   0  0  2  0  0  3  0  0  0  0  0  0
  187.1360  177.8900  142.8990 C   0  0  0  0  0  0  0  0  0  0  0  0
  183.2780  178.6330  144.6180 C   0  0  0  0  0  2  0  0  0  0  0  0
  186.9560  177.8770  144.2440 N   0  0  0  0  0  0  0  0  0  0  0  0
  188.5080  177.6900  142.3140 C   0  0  0  0  0  2  0  0  0  0  0  0
  184.0750  179.3780  140.4830 C   0  0  0  0  0  2  0  0  0  0  0  0
  185.1460  178.6370  139.6660 C   0  0  2  0  0  3  0  0  0  0  0  0
  182.3830  179.1350  142.3310 C   0  0  2  0  0  3  0  0  0  0  0  0
  185.7320  178.0630  144.8090 C   0  0  0  0  0  0  0  0  0  0  0  0
  188.6570  178.4610  141.0230 C   0  0  0  0  0  3  0  0  0  0  0  0
  179.8540  178.5540  143.4720 C   0  0  0  0  0  2  0  0  0  0  0  0
  181.1670  178.9710  141.4130 C   0  0  0  0  0  2  0  0  0  0  0  0
  182.3530  176.6140  137.7370 C   0  0  2  0  0  3  0  0  0  0  0  0
  184.6870  176.4660  135.0960 C   0  0  0  0  0  1  0  0  0  0  0  0
  181.2680  175.8950  138.5130 C   0  0  0  0  0  1  0  0  0  0  0  0
  185.8780  176.0580  137.3130 C   0  0  0  0  0  2  0  0  0  0  0  0
  184.5100  177.5480  138.7840 C   0  0  2  0  0  3  0  0  0  0  0  0
  183.3590  175.5940  137.1950 C   0  0  0  0  0  2  0  0  0  0  0  0
  185.2010  177.4210  137.4200 C   0  0  2  0  0  3  0  0  0  0  0  0
  182.9830  177.7090  138.6150 C   0  0  1  0  0  3  0  0  0  0  0  0
  182.6140  179.0720  138.0480 C   0  0  0  0  0  1  0  0  0  0  0  0
  184.5730  176.3020  136.5970 C   0  0  2  0  0  0  0  0  0  0  0  0
  185.6270  178.0760  146.2990 C   0  0  0  0  0  2  0  0  0  0  0  0
  185.6810  179.3910  146.7610 O   0  0  0  0  0  1  0  0  0  0  0  0
  1  3  1  1  0  0  0
  1  4  1  0  0  0  0
  2  5  1  0  0  0  0
  3 18  2  0  0  0  0
  4  2  2  0  0  0  0
  4 10  1  0  0  0  0
  5 11  1  0  0  0  0
  5 17  2  0  0  0  0
  6 19  1  0  0  0  0
  7 14  1  6  0  0  0
  7 16  1  0  0  0  0
  7  2  1  0  0  0  0
  9  8  1  0  0  0  0
  9 11  1  1  0  0  0
 10 12  2  0  0  0  0
 12 17  1  0  0  0  0
 13 10  1  0  0  0  0
 15 14  1  1  0  0  0
 15  1  1  0  0  0  0
 16 20  1  6  0  0  0
 16  9  1  0  0  0  0
 17 31  1  0  0  0  0
 18 13  1  0  0  0  0
 19  8  1  0  0  0  0
 20  6  1  0  0  0  0
 21 23  1  1  0  0  0
 21 28  1  0  0  0  0
 25 15  1  6  0  0  0
 26 21  1  0  0  0  0
 27 24  1  1  0  0  0
 27 25  1  0  0  0  0
 28 29  1  6  0  0  0
 28 25  1  0  0  0  0
 30 22  1  6  0  0  0
 30 26  1  0  0  0  0
 30 24  1  0  0  0  0
 30 27  1  0  0  0  0
 31 32  1  0  0  0  0
M  END
>  <MODEL>
9

>  <REMARK>
 VINA RESULT:      -7.1      2.454      4.206
  Name = 
  2 active torsions:
  status: ('A' for Active; 'I' for Inactive)
    1  A    between atoms: C_13  and  CA_29
    2  A    between atoms: C_16  and  C_27
                            x       y       z     vdW  Elec       q    Type
                         _______ _______ _______ _____ _____    ______ ____

>  <TORSDO>
F 2

$$$$
