=
 OpenBabel11052416383D

 43 48  0  0  1  0  0  0  0  0999 V2000
  189.4430  176.5490  137.7350 C   0  0  2  0  0  3  0  0  0  0  0  0
  194.5090  174.3600  135.8020 C   0  0  0  0  0  0  0  0  0  0  0  0
  193.0120  176.8410  139.7870 C   0  0  2  0  0  3  0  0  0  0  0  0
  190.5160  176.7860  140.1600 C   0  0  2  0  0  3  0  0  0  0  0  0
  193.0660  173.7160  137.5030 C   0  0  0  0  0  2  0  0  0  0  0  0
  195.0570  175.5220  136.6220 C   0  0  0  0  0  2  0  0  0  0  0  0
  194.3220  174.4980  134.5930 O   0  0  0  0  0  0  0  0  0  0  0  0
  193.4590  176.1800  138.4970 C   0  0  2  0  0  3  0  0  0  0  0  0
  194.0050  173.1780  136.4970 C   0  0  0  0  0  2  0  0  0  0  0  0
  193.9810  176.5170  137.1000 C   0  0  0  0  0  2  0  0  0  0  0  0
  191.7350  177.6470  139.7830 C   0  0  2  0  0  3  0  0  0  0  0  0
  192.2880  177.1360  138.4590 C   0  0  1  0  0  3  0  0  0  0  0  0
  190.8030  174.2550  137.3100 C   0  0  0  0  0  2  0  0  0  0  0  0
  189.7290  175.3660  137.0890 C   0  0  0  0  0  2  0  0  0  0  0  0
  189.5170  176.8680  139.1250 O   0  0  0  0  0  0  0  0  0  0  0  0
  191.7560  173.1490  137.3820 O   0  0  0  0  0  0  0  0  0  0  0  0
  185.9660  178.2560  137.5820 C   0  0  0  0  0  2  0  0  0  0  0  0
  185.3060  177.3260  136.5880 C   0  0  1  0  0  3  0  0  0  0  0  0
  187.5870  176.2950  136.0070 C   0  0  0  0  0  2  0  0  0  0  0  0
  187.2570  177.6530  138.1090 C   0  0  0  0  0  2  0  0  0  0  0  0
  188.3100  177.2460  137.0140 C   0  0  1  0  0  3  0  0  0  0  0  0
  186.2210  176.8300  135.4730 C   0  0  0  0  0  2  0  0  0  0  0  0
  183.0890  176.3030  136.9150 C   0  0  0  0  0  1  0  0  0  0  0  0
  184.5830  176.1860  137.2640 C   0  0  0  0  0  2  0  0  0  0  0  0
  189.9020  177.2570  141.5370 C   0  0  1  0  0  3  0  0  0  0  0  0
  188.4350  177.5040  141.6270 C   0  0  0  0  0  1  0  0  0  0  0  0
  190.4980  176.8350  142.8500 C   0  0  0  0  0  2  0  0  0  0  0  0
  190.3050  177.8150  143.9660 C   0  0  2  0  0  3  0  0  0  0  0  0
  191.2520  178.9660  143.9270 C   0  0  0  0  0  1  0  0  0  0  0  0
  190.4240  177.1050  145.3150 C   0  0  0  0  0  2  0  0  0  0  0  0
  189.1970  177.5450  146.1540 C   0  0  2  0  0  3  0  0  0  0  0  0
  186.8920  178.1020  148.2620 C   0  0  0  0  0  3  0  0  0  0  0  0
  185.9280  178.5320  144.8380 C   0  0  0  0  0  0  0  0  0  0  0  0
  186.8140  178.2640  145.7070 C   0  0  0  0  0  0  0  0  0  0  0  0
  189.3320  177.6310  147.7010 C   0  0  0  0  0  2  0  0  0  0  0  0
  187.9050  177.3100  145.3900 C   0  0  0  0  0  2  0  0  0  0  0  0
  184.8970  178.8290  143.9810 C   0  0  0  0  0  3  0  0  0  0  0  0
  186.6920  178.9640  147.0440 C   0  0  0  0  0  2  0  0  0  0  0  0
  188.0740  177.5110  148.5340 C   0  0  0  0  0  3  0  0  0  0  0  0
  184.5070  178.0560  142.7250 C   0  0  0  0  0  2  0  0  0  0  0  0
  184.1090  178.9520  140.3790 C   0  0  0  0  0  2  0  0  0  0  0  0
  183.5030  178.6230  141.7310 C   0  0  0  0  0  3  0  0  0  0  0  0
  183.3920  177.6490  140.5510 C   0  0  0  0  0  2  0  0  0  0  0  0
  1 14  1  1  0  0  0
  1 15  1  0  0  0  0
  2  9  1  0  0  0  0
  2  6  1  0  0  0  0
  4 25  1  0  0  0  0
  6 10  1  0  0  0  0
  7  2  2  0  0  0  0
  8  3  1  0  0  0  0
  9  5  1  0  0  0  0
 10  8  1  0  0  0  0
 11  3  1  0  0  0  0
 11  4  1  0  0  0  0
 12  8  1  0  0  0  0
 12 11  1  0  0  0  0
 12  3  1  0  0  0  0
 13 16  1  0  0  0  0
 14 13  1  0  0  0  0
 15  4  1  0  0  0  0
 16  5  1  0  0  0  0
 17 20  1  0  0  0  0
 18 24  1  0  0  0  0
 18 17  1  0  0  0  0
 19 21  1  0  0  0  0
 21  1  1  0  0  0  0
 21 20  1  0  0  0  0
 22 19  1  0  0  0  0
 22 18  1  0  0  0  0
 23 24  1  0  0  0  0
 25 26  1  0  0  0  0
 25 27  1  0  0  0  0
 27 28  1  0  0  0  0
 28 30  1  0  0  0  0
 29 28  1  0  0  0  0
 30 31  1  0  0  0  0
 31 35  1  0  0  0  0
 32 39  2  0  0  0  0
 33 34  2  0  0  0  0
 34 38  1  0  0  0  0
 35 39  1  0  0  0  0
 36 34  1  0  0  0  0
 36 31  1  0  0  0  0
 37 33  2  0  0  0  0
 38 32  1  0  0  0  0
 40 37  1  0  0  0  0
 41 43  1  0  0  0  0
 41 42  1  0  0  0  0
 42 40  1  0  0  0  0
 43 42  1  0  0  0  0
M  END
>  <MODEL>
1

>  <REMARK>
 VINA RESULT:      -8.4      0.000      0.000
  Name = 
  9 active torsions:
  status: ('A' for Active; 'I' for Inactive)
    1  A    between atoms: C_1  and  C_35
    2  A    between atoms: C_2  and  C_6
    3  A    between atoms: C_2  and  C_13
    4  A    between atoms: C_3  and  C_4
    5  A    between atoms: C_3  and  C_12
    6  A    between atoms: C_6  and  C_12
    7  A    between atoms: C_19  and  C_37
    8  A    between atoms: C_29  and  C_36
    9  A    between atoms: C_36  and  C_40
                            x       y       z     vdW  Elec       q    Type
                         _______ _______ _______ _____ _____    ______ ____

>  <TORSDO>
F 9

$$$$
=
 OpenBabel11052416383D

 43 48  0  0  1  0  0  0  0  0999 V2000
  191.2040  176.7910  138.8870 C   0  0  2  0  0  3  0  0  0  0  0  0
  195.8850  173.7030  137.2280 C   0  0  0  0  0  0  0  0  0  0  0  0
  191.0750  173.6950  136.1600 C   0  0  2  0  0  3  0  0  0  0  0  0
  189.8730  175.8220  136.7950 C   0  0  2  0  0  3  0  0  0  0  0  0
  194.5950  175.3040  136.1490 C   0  0  0  0  0  2  0  0  0  0  0  0
  194.8200  172.6280  137.0400 C   0  0  0  0  0  2  0  0  0  0  0  0
  196.5230  173.7540  138.2780 O   0  0  0  0  0  0  0  0  0  0  0  0
  192.5260  173.6520  136.5970 C   0  0  2  0  0  3  0  0  0  0  0  0
  195.9760  174.7880  136.2540 C   0  0  0  0  0  2  0  0  0  0  0  0
  193.4450  172.9960  137.6300 C   0  0  0  0  0  2  0  0  0  0  0  0
  190.0590  174.3220  137.0850 C   0  0  2  0  0  3  0  0  0  0  0  0
  191.4790  174.1070  137.5890 C   0  0  1  0  0  3  0  0  0  0  0  0
  193.4830  176.8980  137.4420 C   0  0  0  0  0  2  0  0  0  0  0  0
  192.4980  177.1830  138.6190 C   0  0  0  0  0  2  0  0  0  0  0  0
  190.1100  176.5880  137.9920 O   0  0  0  0  0  0  0  0  0  0  0  0
  194.5160  176.7070  136.4260 O   0  0  0  0  0  0  0  0  0  0  0  0
  191.8840  177.8440  142.5550 C   0  0  0  0  0  2  0  0  0  0  0  0
  190.9060  176.9130  143.2370 C   0  0  1  0  0  3  0  0  0  0  0  0
  189.8050  176.3780  140.9770 C   0  0  0  0  0  2  0  0  0  0  0  0
  192.0940  177.4350  141.1070 C   0  0  0  0  0  2  0  0  0  0  0  0
  190.7890  177.3390  140.2340 C   0  0  1  0  0  3  0  0  0  0  0  0
  189.5930  176.7070  142.4880 C   0  0  0  0  0  2  0  0  0  0  0  0
  191.8590  175.6540  145.1270 C   0  0  0  0  0  1  0  0  0  0  0  0
  191.5400  175.5990  143.6230 C   0  0  0  0  0  2  0  0  0  0  0  0
  188.4180  176.1120  136.2520 C   0  0  1  0  0  3  0  0  0  0  0  0
  187.9860  175.4830  134.9720 C   0  0  0  0  0  1  0  0  0  0  0  0
  187.2680  176.3740  137.1830 C   0  0  0  0  0  2  0  0  0  0  0  0
  187.0030  177.8240  137.4530 C   0  0  2  0  0  3  0  0  0  0  0  0
  187.6300  178.7450  136.4630 C   0  0  0  0  0  1  0  0  0  0  0  0
  187.4750  178.1910  138.8600 C   0  0  0  0  0  2  0  0  0  0  0  0
  186.2000  178.3490  139.7260 C   0  0  2  0  0  3  0  0  0  0  0  0
  183.4360  179.0520  141.1180 C   0  0  0  0  0  3  0  0  0  0  0  0
  185.9830  177.8800  143.3500 C   0  0  0  0  0  0  0  0  0  0  0  0
  185.5930  178.1600  142.1750 C   0  0  0  0  0  0  0  0  0  0  0  0
  184.8540  178.6970  139.0310 C   0  0  0  0  0  2  0  0  0  0  0  0
  186.5590  178.6660  141.1690 C   0  0  0  0  0  2  0  0  0  0  0  0
  186.3070  177.6130  144.6570 C   0  0  0  0  0  3  0  0  0  0  0  0
  184.1240  177.9460  141.8740 C   0  0  0  0  0  2  0  0  0  0  0  0
  183.7800  179.3760  139.8540 C   0  0  0  0  0  3  0  0  0  0  0  0
  187.5740  178.0490  145.3870 C   0  0  0  0  0  2  0  0  0  0  0  0
  189.5560  177.6940  146.9400 C   0  0  0  0  0  2  0  0  0  0  0  0
  188.2410  177.1460  146.4150 C   0  0  0  0  0  3  0  0  0  0  0  0
  188.3120  177.9040  147.7460 C   0  0  0  0  0  2  0  0  0  0  0  0
  1 14  1  6  0  0  0
  1 21  1  0  0  0  0
  2  7  2  0  0  0  0
  3  8  1  0  0  0  0
  3 11  1  0  0  0  0
  3 12  1  0  0  0  0
  4 11  1  0  0  0  0
  4 15  1  0  0  0  0
  5  9  1  0  0  0  0
  5 16  1  0  0  0  0
  6  2  1  0  0  0  0
  6 10  1  0  0  0  0
  8 12  1  0  0  0  0
  8 10  1  0  0  0  0
  9  2  1  0  0  0  0
 11 12  1  0  0  0  0
 13 14  1  0  0  0  0
 15  1  1  0  0  0  0
 16 13  1  0  0  0  0
 17 18  1  0  0  0  0
 18 24  1  0  0  0  0
 19 22  1  0  0  0  0
 20 17  1  0  0  0  0
 21 19  1  0  0  0  0
 21 20  1  0  0  0  0
 22 18  1  0  0  0  0
 24 23  1  0  0  0  0
 25  4  1  0  0  0  0
 25 27  1  0  0  0  0
 26 25  1  0  0  0  0
 27 28  1  0  0  0  0
 28 30  1  0  0  0  0
 29 28  1  0  0  0  0
 30 31  1  0  0  0  0
 31 36  1  0  0  0  0
 32 38  1  0  0  0  0
 33 37  2  0  0  0  0
 34 33  2  0  0  0  0
 35 31  1  0  0  0  0
 35 39  1  0  0  0  0
 36 34  1  0  0  0  0
 37 40  1  0  0  0  0
 38 34  1  0  0  0  0
 39 32  2  0  0  0  0
 40 42  1  0  0  0  0
 41 43  1  0  0  0  0
 42 41  1  0  0  0  0
 42 43  1  0  0  0  0
M  END
>  <MODEL>
2

>  <REMARK>
 VINA RESULT:      -8.0      1.529      6.097
  Name = 
  9 active torsions:
  status: ('A' for Active; 'I' for Inactive)
    1  A    between atoms: C_1  and  C_35
    2  A    between atoms: C_2  and  C_6
    3  A    between atoms: C_2  and  C_13
    4  A    between atoms: C_3  and  C_4
    5  A    between atoms: C_3  and  C_12
    6  A    between atoms: C_6  and  C_12
    7  A    between atoms: C_19  and  C_37
    8  A    between atoms: C_29  and  C_36
    9  A    between atoms: C_36  and  C_40
                            x       y       z     vdW  Elec       q    Type
                         _______ _______ _______ _____ _____    ______ ____

>  <TORSDO>
F 9

$$$$
=
 OpenBabel11052416383D

 43 48  0  0  1  0  0  0  0  0999 V2000
  186.8570  177.6510  137.8830 C   0  0  2  0  0  3  0  0  0  0  0  0
  189.9970  173.1880  135.7830 C   0  0  0  0  0  0  0  0  0  0  0  0
  185.2110  174.3120  136.1010 C   0  0  2  0  0  3  0  0  0  0  0  0
  184.7510  176.7590  136.5220 C   0  0  2  0  0  3  0  0  0  0  0  0
  188.7930  174.8850  134.7520 C   0  0  0  0  0  2  0  0  0  0  0  0
  188.7290  172.4260  136.1490 C   0  0  0  0  0  2  0  0  0  0  0  0
  190.9360  173.2310  136.5760 O   0  0  0  0  0  0  0  0  0  0  0  0
  186.6830  173.9480  136.1230 C   0  0  2  0  0  3  0  0  0  0  0  0
  189.9940  174.0380  134.5940 C   0  0  0  0  0  2  0  0  0  0  0  0
  187.7260  173.2410  136.9890 C   0  0  0  0  0  2  0  0  0  0  0  0
  184.7020  175.3300  137.0940 C   0  0  2  0  0  3  0  0  0  0  0  0
  186.1310  174.8210  137.2270 C   0  0  1  0  0  3  0  0  0  0  0  0
  188.5170  176.9050  135.8890 C   0  0  0  0  0  2  0  0  0  0  0  0
  188.0470  177.6300  137.1880 C   0  0  0  0  0  2  0  0  0  0  0  0
  185.5160  177.6120  137.3940 O   0  0  0  0  0  0  0  0  0  0  0  0
  189.1030  176.2820  134.7030 O   0  0  0  0  0  0  0  0  0  0  0  0
  188.6820  178.7060  141.1360 C   0  0  0  0  0  2  0  0  0  0  0  0
  187.5530  178.4580  142.1130 C   0  0  1  0  0  3  0  0  0  0  0  0
  185.8890  178.2350  140.1670 C   0  0  0  0  0  2  0  0  0  0  0  0
  188.3800  178.0650  139.7930 C   0  0  0  0  0  2  0  0  0  0  0  0
  187.0240  178.4990  139.1250 C   0  0  1  0  0  3  0  0  0  0  0  0
  186.1660  178.8160  141.5900 C   0  0  0  0  0  2  0  0  0  0  0  0
  189.0310  176.7780  143.1430 C   0  0  0  0  0  1  0  0  0  0  0  0
  187.5900  177.0620  142.6880 C   0  0  0  0  0  2  0  0  0  0  0  0
  183.2930  177.3410  136.3450 C   0  0  1  0  0  3  0  0  0  0  0  0
  182.7950  177.6340  134.9710 C   0  0  0  0  0  1  0  0  0  0  0  0
  182.1860  176.9950  137.2990 C   0  0  0  0  0  2  0  0  0  0  0  0
  181.9820  177.9870  138.4030 C   0  0  2  0  0  3  0  0  0  0  0  0
  182.6810  179.2860  138.1830 C   0  0  0  0  0  1  0  0  0  0  0  0
  182.4290  177.3890  139.7370 C   0  0  0  0  0  2  0  0  0  0  0  0
  181.6820  178.1730  140.8450 C   0  0  2  0  0  3  0  0  0  0  0  0
  179.9230  180.0650  142.6890 C   0  0  0  0  0  3  0  0  0  0  0  0
  182.9130  178.8270  144.2290 C   0  0  0  0  0  0  0  0  0  0  0  0
  182.1260  178.8760  143.2340 C   0  0  0  0  0  0  0  0  0  0  0  0
  180.2540  178.7160  140.5530 C   0  0  0  0  0  2  0  0  0  0  0  0
  182.6590  178.7510  141.8550 C   0  0  0  0  0  2  0  0  0  0  0  0
  183.6990  178.8490  145.3550 C   0  0  0  0  0  3  0  0  0  0  0  0
  180.6530  179.0570  143.5370 C   0  0  0  0  0  2  0  0  0  0  0  0
  179.7620  179.8990  141.3600 C   0  0  0  0  0  3  0  0  0  0  0  0
  185.2100  179.0510  145.4060 C   0  0  0  0  0  2  0  0  0  0  0  0
  186.6640  177.1330  146.2240 C   0  0  0  0  0  2  0  0  0  0  0  0
  186.0430  178.4810  146.5450 C   0  0  0  0  0  3  0  0  0  0  0  0
  187.4960  178.3680  146.0670 C   0  0  0  0  0  2  0  0  0  0  0  0
  1 14  1  6  0  0  0
  1 21  1  0  0  0  0
  2  6  1  0  0  0  0
  2  7  2  0  0  0  0
  3  8  1  0  0  0  0
  3 11  1  0  0  0  0
  3 12  1  0  0  0  0
  4 11  1  0  0  0  0
  4 15  1  0  0  0  0
  6 10  1  0  0  0  0
  8 10  1  0  0  0  0
  8 12  1  0  0  0  0
  9  5  1  0  0  0  0
  9  2  1  0  0  0  0
 11 12  1  0  0  0  0
 13 14  1  0  0  0  0
 15  1  1  0  0  0  0
 16  5  1  0  0  0  0
 16 13  1  0  0  0  0
 17 18  1  0  0  0  0
 18 24  1  0  0  0  0
 19 22  1  0  0  0  0
 20 17  1  0  0  0  0
 21 20  1  0  0  0  0
 21 19  1  0  0  0  0
 22 18  1  0  0  0  0
 24 23  1  0  0  0  0
 25  4  1  0  0  0  0
 25 27  1  0  0  0  0
 26 25  1  0  0  0  0
 27 28  1  0  0  0  0
 28 30  1  0  0  0  0
 29 28  1  0  0  0  0
 30 31  1  0  0  0  0
 31 36  1  0  0  0  0
 32 38  1  0  0  0  0
 33 37  2  0  0  0  0
 34 38  1  0  0  0  0
 34 33  2  0  0  0  0
 35 31  1  0  0  0  0
 35 39  1  0  0  0  0
 36 34  1  0  0  0  0
 37 40  1  0  0  0  0
 39 32  2  0  0  0  0
 40 42  1  0  0  0  0
 41 42  1  0  0  0  0
 43 41  1  0  0  0  0
 43 42  1  0  0  0  0
M  END
>  <MODEL>
3

>  <REMARK>
 VINA RESULT:      -7.9      2.746      6.886
  Name = 
  9 active torsions:
  status: ('A' for Active; 'I' for Inactive)
    1  A    between atoms: C_1  and  C_35
    2  A    between atoms: C_2  and  C_6
    3  A    between atoms: C_2  and  C_13
    4  A    between atoms: C_3  and  C_4
    5  A    between atoms: C_3  and  C_12
    6  A    between atoms: C_6  and  C_12
    7  A    between atoms: C_19  and  C_37
    8  A    between atoms: C_29  and  C_36
    9  A    between atoms: C_36  and  C_40
                            x       y       z     vdW  Elec       q    Type
                         _______ _______ _______ _____ _____    ______ ____

>  <TORSDO>
F 9

$$$$
=
 OpenBabel11052416383D

 43 48  0  0  1  0  0  0  0  0999 V2000
  190.2990  176.2790  139.1720 C   0  0  2  0  0  3  0  0  0  0  0  0
  195.3190  173.8450  137.4190 C   0  0  0  0  0  0  0  0  0  0  0  0
  190.6980  174.0510  135.7210 C   0  0  2  0  0  3  0  0  0  0  0  0
  189.3090  175.9020  136.7310 C   0  0  2  0  0  3  0  0  0  0  0  0
  194.0960  175.6600  136.6410 C   0  0  0  0  0  2  0  0  0  0  0  0
  194.3490  172.8460  136.7990 C   0  0  0  0  0  2  0  0  0  0  0  0
  195.8100  173.6160  138.5230 O   0  0  0  0  0  0  0  0  0  0  0  0
  192.0800  173.9140  136.3300 C   0  0  2  0  0  3  0  0  0  0  0  0
  195.4770  175.1580  136.7970 C   0  0  0  0  0  2  0  0  0  0  0  0
  192.8890  173.0150  137.2660 C   0  0  0  0  0  2  0  0  0  0  0  0
  189.5370  174.3830  136.6280 C   0  0  2  0  0  3  0  0  0  0  0  0
  190.8890  174.0610  137.2500 C   0  0  1  0  0  3  0  0  0  0  0  0
  192.7390  176.8180  138.1470 C   0  0  0  0  0  2  0  0  0  0  0  0
  191.5940  176.7520  139.2060 C   0  0  0  0  0  2  0  0  0  0  0  0
  189.3450  176.3120  138.1110 O   0  0  0  0  0  0  0  0  0  0  0  0
  193.9050  176.9310  137.2730 O   0  0  0  0  0  0  0  0  0  0  0  0
  188.6930  178.3310  142.0420 C   0  0  0  0  0  2  0  0  0  0  0  0
  189.7060  178.0290  143.1240 C   0  0  1  0  0  3  0  0  0  0  0  0
  190.7190  176.1580  141.6830 C   0  0  0  0  0  2  0  0  0  0  0  0
  189.2260  177.9280  140.6780 C   0  0  0  0  0  2  0  0  0  0  0  0
  189.6820  176.4290  140.5460 C   0  0  1  0  0  3  0  0  0  0  0  0
  190.2560  176.6060  143.1050 C   0  0  0  0  0  2  0  0  0  0  0  0
  191.7630  178.6680  144.3210 C   0  0  0  0  0  1  0  0  0  0  0  0
  190.8140  179.0540  143.1730 C   0  0  0  0  0  2  0  0  0  0  0  0
  187.9240  176.3050  136.0870 C   0  0  1  0  0  3  0  0  0  0  0  0
  187.5920  175.8140  134.7200 C   0  0  0  0  0  1  0  0  0  0  0  0
  186.7020  176.5370  136.9290 C   0  0  0  0  0  2  0  0  0  0  0  0
  186.4070  177.9770  137.2190 C   0  0  2  0  0  3  0  0  0  0  0  0
  187.1570  178.9310  136.3530 C   0  0  0  0  0  1  0  0  0  0  0  0
  186.6990  178.2870  138.6880 C   0  0  0  0  0  2  0  0  0  0  0  0
  185.3270  178.5150  139.3710 C   0  0  2  0  0  3  0  0  0  0  0  0
  182.4220  179.3390  140.3480 C   0  0  0  0  0  3  0  0  0  0  0  0
  184.6380  178.2800  142.9580 C   0  0  0  0  0  0  0  0  0  0  0  0
  184.4070  178.4900  141.7270 C   0  0  0  0  0  0  0  0  0  0  0  0
  184.0880  178.8350  138.4870 C   0  0  0  0  0  2  0  0  0  0  0  0
  185.5050  178.9190  140.8250 C   0  0  0  0  0  2  0  0  0  0  0  0
  184.7870  178.0930  144.3100 C   0  0  0  0  0  3  0  0  0  0  0  0
  182.9850  178.2750  141.2540 C   0  0  0  0  0  2  0  0  0  0  0  0
  182.9320  179.5780  139.1220 C   0  0  0  0  0  3  0  0  0  0  0  0
  185.9580  178.5590  145.1690 C   0  0  0  0  0  2  0  0  0  0  0  0
  188.1850  178.2010  146.3450 C   0  0  0  0  0  2  0  0  0  0  0  0
  186.9240  177.5610  145.7920 C   0  0  0  0  0  3  0  0  0  0  0  0
  187.0600  177.8910  147.2840 C   0  0  0  0  0  2  0  0  0  0  0  0
  1 14  1  6  0  0  0
  1 21  1  0  0  0  0
  2  7  2  0  0  0  0
  3  8  1  0  0  0  0
  3 11  1  0  0  0  0
  3 12  1  0  0  0  0
  4 15  1  0  0  0  0
  5  9  1  0  0  0  0
  5 16  1  0  0  0  0
  6 10  1  0  0  0  0
  6  2  1  0  0  0  0
  8 12  1  0  0  0  0
  8 10  1  0  0  0  0
  9  2  1  0  0  0  0
 11  4  1  0  0  0  0
 11 12  1  0  0  0  0
 13 14  1  0  0  0  0
 15  1  1  0  0  0  0
 16 13  1  0  0  0  0
 17 18  1  0  0  0  0
 18 24  1  0  0  0  0
 19 22  1  0  0  0  0
 20 17  1  0  0  0  0
 21 20  1  0  0  0  0
 21 19  1  0  0  0  0
 22 18  1  0  0  0  0
 24 23  1  0  0  0  0
 25  4  1  0  0  0  0
 25 27  1  0  0  0  0
 26 25  1  0  0  0  0
 27 28  1  0  0  0  0
 28 30  1  0  0  0  0
 29 28  1  0  0  0  0
 30 31  1  0  0  0  0
 31 36  1  0  0  0  0
 32 38  1  0  0  0  0
 33 37  2  0  0  0  0
 34 33  2  0  0  0  0
 35 39  1  0  0  0  0
 35 31  1  0  0  0  0
 36 34  1  0  0  0  0
 37 40  1  0  0  0  0
 38 34  1  0  0  0  0
 39 32  2  0  0  0  0
 40 42  1  0  0  0  0
 41 43  1  0  0  0  0
 42 41  1  0  0  0  0
 42 43  1  0  0  0  0
M  END
>  <MODEL>
4

>  <REMARK>
 VINA RESULT:      -7.9      1.465      6.109
  Name = 
  9 active torsions:
  status: ('A' for Active; 'I' for Inactive)
    1  A    between atoms: C_1  and  C_35
    2  A    between atoms: C_2  and  C_6
    3  A    between atoms: C_2  and  C_13
    4  A    between atoms: C_3  and  C_4
    5  A    between atoms: C_3  and  C_12
    6  A    between atoms: C_6  and  C_12
    7  A    between atoms: C_19  and  C_37
    8  A    between atoms: C_29  and  C_36
    9  A    between atoms: C_36  and  C_40
                            x       y       z     vdW  Elec       q    Type
                         _______ _______ _______ _____ _____    ______ ____

>  <TORSDO>
F 9

$$$$
=
 OpenBabel11052416383D

 43 48  0  0  1  0  0  0  0  0999 V2000
  184.3840  176.8330  136.5090 C   0  0  2  0  0  3  0  0  0  0  0  0
  180.3520  172.7280  135.4680 C   0  0  0  0  0  0  0  0  0  0  0  0
  181.4290  175.7720  139.1890 C   0  0  2  0  0  3  0  0  0  0  0  0
  182.9050  177.7150  138.5390 C   0  0  2  0  0  3  0  0  0  0  0  0
  180.2440  175.0450  135.5760 C   0  0  0  0  0  2  0  0  0  0  0  0
  180.4270  172.5980  136.9850 C   0  0  0  0  0  2  0  0  0  0  0  0
  181.0240  171.9830  134.7560 O   0  0  0  0  0  0  0  0  0  0  0  0
  181.1970  174.7730  138.0720 C   0  0  2  0  0  3  0  0  0  0  0  0
  179.6570  173.8760  134.8890 C   0  0  0  0  0  2  0  0  0  0  0  0
  181.6000  173.3670  137.6240 C   0  0  0  0  0  2  0  0  0  0  0  0
  182.7970  176.3980  139.3280 C   0  0  2  0  0  3  0  0  0  0  0  0
  182.6040  175.2610  138.3330 C   0  0  1  0  0  3  0  0  0  0  0  0
  182.1640  176.2750  135.0770 C   0  0  0  0  0  2  0  0  0  0  0  0
  183.6760  176.5290  135.3660 C   0  0  0  0  0  2  0  0  0  0  0  0
  184.0130  177.6490  137.6210 O   0  0  0  0  0  0  0  0  0  0  0  0
  180.7910  175.9980  134.6580 O   0  0  0  0  0  0  0  0  0  0  0  0
  188.0690  175.6840  136.8660 C   0  0  0  0  0  2  0  0  0  0  0  0
  188.6670  176.9960  137.3230 C   0  0  1  0  0  3  0  0  0  0  0  0
  186.5090  178.2310  136.6720 C   0  0  0  0  0  2  0  0  0  0  0  0
  186.5530  175.7230  136.9560 C   0  0  0  0  0  2  0  0  0  0  0  0
  185.8590  176.8980  136.1760 C   0  0  1  0  0  3  0  0  0  0  0  0
  188.0700  178.2340  136.6620 C   0  0  0  0  0  2  0  0  0  0  0  0
  189.1550  178.5460  139.1750 C   0  0  0  0  0  1  0  0  0  0  0  0
  188.6860  177.1220  138.8280 C   0  0  0  0  0  2  0  0  0  0  0  0
  183.0920  178.9410  139.5180 C   0  0  1  0  0  3  0  0  0  0  0  0
  182.4690  180.2480  139.1660 C   0  0  0  0  0  1  0  0  0  0  0  0
  183.2330  178.7490  141.0010 C   0  0  0  0  0  2  0  0  0  0  0  0
  184.6420  178.8040  141.5060 C   0  0  2  0  0  3  0  0  0  0  0  0
  185.6540  179.0580  140.4410 C   0  0  0  0  0  1  0  0  0  0  0  0
  184.9900  177.5070  142.2370 C   0  0  0  0  0  2  0  0  0  0  0  0
  185.3410  177.9030  143.6940 C   0  0  2  0  0  3  0  0  0  0  0  0
  185.6820  179.1190  146.6050 C   0  0  0  0  0  3  0  0  0  0  0  0
  188.5810  177.4420  145.3320 C   0  0  0  0  0  0  0  0  0  0  0  0
  187.3730  177.8080  145.1970 C   0  0  0  0  0  0  0  0  0  0  0  0
  184.2340  178.5170  144.5970 C   0  0  0  0  0  2  0  0  0  0  0  0
  186.8360  178.1250  143.8500 C   0  0  0  0  0  2  0  0  0  0  0  0
  189.8900  177.1020  145.5730 C   0  0  0  0  0  3  0  0  0  0  0  0
  186.5400  177.8910  146.4590 C   0  0  0  0  0  2  0  0  0  0  0  0
  184.6630  179.3850  145.7600 C   0  0  0  0  0  3  0  0  0  0  0  0
  191.0650  177.2710  144.6160 C   0  0  0  0  0  2  0  0  0  0  0  0
  191.7940  177.5090  142.1910 C   0  0  0  0  0  2  0  0  0  0  0  0
  190.9130  178.0380  143.3100 C   0  0  0  0  0  3  0  0  0  0  0  0
  190.3610  177.0770  142.2500 C   0  0  0  0  0  2  0  0  0  0  0  0
  1 14  1  6  0  0  0
  1 15  1  0  0  0  0
  2  6  1  0  0  0  0
  3 11  1  0  0  0  0
  4 11  1  0  0  0  0
  4 25  1  0  0  0  0
  6 10  1  0  0  0  0
  7  2  2  0  0  0  0
  8 12  1  0  0  0  0
  8  3  1  0  0  0  0
  9  2  1  0  0  0  0
  9  5  1  0  0  0  0
 10  8  1  0  0  0  0
 12  3  1  0  0  0  0
 12 11  1  0  0  0  0
 13 14  1  0  0  0  0
 15  4  1  0  0  0  0
 16 13  1  0  0  0  0
 16  5  1  0  0  0  0
 17 20  1  0  0  0  0
 17 18  1  0  0  0  0
 18 24  1  0  0  0  0
 21  1  1  0  0  0  0
 21 19  1  0  0  0  0
 21 20  1  0  0  0  0
 22 19  1  0  0  0  0
 22 18  1  0  0  0  0
 24 23  1  0  0  0  0
 25 27  1  0  0  0  0
 26 25  1  0  0  0  0
 27 28  1  0  0  0  0
 28 30  1  0  0  0  0
 29 28  1  0  0  0  0
 30 31  1  0  0  0  0
 31 36  1  0  0  0  0
 31 35  1  0  0  0  0
 33 37  2  0  0  0  0
 34 33  2  0  0  0  0
 34 38  1  0  0  0  0
 35 39  1  0  0  0  0
 36 34  1  0  0  0  0
 38 32  1  0  0  0  0
 39 32  2  0  0  0  0
 40 37  1  0  0  0  0
 41 43  1  0  0  0  0
 41 42  1  0  0  0  0
 42 40  1  0  0  0  0
 43 42  1  0  0  0  0
M  END
>  <MODEL>
5

>  <REMARK>
 VINA RESULT:      -7.6      3.514      8.000
  Name = 
  9 active torsions:
  status: ('A' for Active; 'I' for Inactive)
    1  A    between atoms: C_1  and  C_35
    2  A    between atoms: C_2  and  C_6
    3  A    between atoms: C_2  and  C_13
    4  A    between atoms: C_3  and  C_4
    5  A    between atoms: C_3  and  C_12
    6  A    between atoms: C_6  and  C_12
    7  A    between atoms: C_19  and  C_37
    8  A    between atoms: C_29  and  C_36
    9  A    between atoms: C_36  and  C_40
                            x       y       z     vdW  Elec       q    Type
                         _______ _______ _______ _____ _____    ______ ____

>  <TORSDO>
F 9

$$$$
=
 OpenBabel11052416383D

 43 48  0  0  1  0  0  0  0  0999 V2000
  184.2680  176.6590  137.3110 C   0  0  2  0  0  3  0  0  0  0  0  0
  180.1480  179.3740  140.4500 C   0  0  0  0  0  0  0  0  0  0  0  0
  185.0590  179.0100  140.6100 C   0  0  2  0  0  3  0  0  0  0  0  0
  186.1060  178.2060  138.4580 C   0  0  2  0  0  3  0  0  0  0  0  0
  181.7500  180.1460  138.9560 C   0  0  0  0  0  2  0  0  0  0  0  0
  181.1830  179.1730  141.5510 C   0  0  0  0  0  2  0  0  0  0  0  0
  179.2390  178.5580  140.3090 O   0  0  0  0  0  0  0  0  0  0  0  0
  183.5430  179.0070  140.5980 C   0  0  2  0  0  3  0  0  0  0  0  0
  180.3790  180.4070  139.4420 C   0  0  0  0  0  2  0  0  0  0  0  0
  182.3450  178.2390  141.1590 C   0  0  0  0  0  2  0  0  0  0  0  0
  185.7910  177.8780  139.9280 C   0  0  2  0  0  3  0  0  0  0  0  0
  184.2790  177.7910  140.0840 C   0  0  1  0  0  3  0  0  0  0  0  0
  182.5030  178.7020  137.2830 C   0  0  0  0  0  2  0  0  0  0  0  0
  183.1200  177.3150  136.9220 C   0  0  0  0  0  2  0  0  0  0  0  0
  185.5650  177.1850  137.5990 O   0  0  0  0  0  0  0  0  0  0  0  0
  181.7970  179.9570  137.5370 O   0  0  0  0  0  0  0  0  0  0  0  0
  184.5320  172.7930  137.4040 C   0  0  0  0  0  2  0  0  0  0  0  0
  185.7620  172.6340  136.5370 C   0  0  1  0  0  3  0  0  0  0  0  0
  185.5810  175.0880  135.7940 C   0  0  0  0  0  2  0  0  0  0  0  0
  184.3610  174.2400  137.8350 C   0  0  0  0  0  2  0  0  0  0  0  0
  184.3000  175.2910  136.6670 C   0  0  1  0  0  3  0  0  0  0  0  0
  185.8490  173.6090  135.3680 C   0  0  0  0  0  2  0  0  0  0  0  0
  188.2190  172.6840  136.3670 C   0  0  0  0  0  1  0  0  0  0  0  0
  187.0360  172.6210  137.3480 C   0  0  0  0  0  2  0  0  0  0  0  0
  187.6650  178.3270  138.2320 C   0  0  1  0  0  3  0  0  0  0  0  0
  188.1750  178.6370  136.8670 C   0  0  0  0  0  1  0  0  0  0  0  0
  188.5820  178.8170  139.3160 C   0  0  0  0  0  2  0  0  0  0  0  0
  189.5610  177.7990  139.8130 C   0  0  2  0  0  3  0  0  0  0  0  0
  190.3230  177.1170  138.7270 C   0  0  0  0  0  1  0  0  0  0  0  0
  188.8440  176.7510  140.6650 C   0  0  0  0  0  2  0  0  0  0  0  0
  189.4220  176.8780  142.0980 C   0  0  2  0  0  3  0  0  0  0  0  0
  190.9220  176.7000  144.8880 C   0  0  0  0  0  3  0  0  0  0  0  0
  187.6330  178.1150  145.0410 C   0  0  0  0  0  0  0  0  0  0  0  0
  188.5900  177.6250  144.3670 C   0  0  0  0  0  0  0  0  0  0  0  0
  190.9080  176.4970  142.3490 C   0  0  0  0  0  2  0  0  0  0  0  0
  188.3120  176.8460  143.1350 C   0  0  0  0  0  2  0  0  0  0  0  0
  186.6570  178.6250  145.8620 C   0  0  0  0  0  3  0  0  0  0  0  0
  189.9900  177.8840  144.8810 C   0  0  0  0  0  2  0  0  0  0  0  0
  191.3130  176.0910  143.7500 C   0  0  0  0  0  3  0  0  0  0  0  0
  185.1770  178.2560  145.8530 C   0  0  0  0  0  2  0  0  0  0  0  0
  183.0360  179.0030  144.7020 C   0  0  0  0  0  2  0  0  0  0  0  0
  184.3660  178.2840  144.5650 C   0  0  0  0  0  3  0  0  0  0  0  0
  184.2030  179.7460  144.1310 C   0  0  0  0  0  2  0  0  0  0  0  0
  1 14  1  6  0  0  0
  1 15  1  0  0  0  0
  2  6  1  0  0  0  0
  4 11  1  0  0  0  0
  5  9  1  0  0  0  0
  7  2  2  0  0  0  0
  8  3  1  0  0  0  0
  8 10  1  0  0  0  0
  9  2  1  0  0  0  0
 10  6  1  0  0  0  0
 11 12  1  0  0  0  0
 11  3  1  0  0  0  0
 12  8  1  0  0  0  0
 12  3  1  0  0  0  0
 13 16  1  0  0  0  0
 14 13  1  0  0  0  0
 15  4  1  0  0  0  0
 16  5  1  0  0  0  0
 17 20  1  0  0  0  0
 18 24  1  0  0  0  0
 18 17  1  0  0  0  0
 19 21  1  0  0  0  0
 21  1  1  0  0  0  0
 21 20  1  0  0  0  0
 22 19  1  0  0  0  0
 22 18  1  0  0  0  0
 23 24  1  0  0  0  0
 25  4  1  0  0  0  0
 25 27  1  0  0  0  0
 26 25  1  0  0  0  0
 27 28  1  0  0  0  0
 28 30  1  0  0  0  0
 29 28  1  0  0  0  0
 30 31  1  0  0  0  0
 31 35  1  0  0  0  0
 31 36  1  0  0  0  0
 33 37  2  0  0  0  0
 34 38  1  0  0  0  0
 34 33  2  0  0  0  0
 35 39  1  0  0  0  0
 36 34  1  0  0  0  0
 38 32  1  0  0  0  0
 39 32  2  0  0  0  0
 40 37  1  0  0  0  0
 42 41  1  0  0  0  0
 42 40  1  0  0  0  0
 43 42  1  0  0  0  0
 43 41  1  0  0  0  0
M  END
>  <MODEL>
6

>  <REMARK>
 VINA RESULT:      -7.5      3.083      7.591
  Name = 
  9 active torsions:
  status: ('A' for Active; 'I' for Inactive)
    1  A    between atoms: C_1  and  C_35
    2  A    between atoms: C_2  and  C_6
    3  A    between atoms: C_2  and  C_13
    4  A    between atoms: C_3  and  C_4
    5  A    between atoms: C_3  and  C_12
    6  A    between atoms: C_6  and  C_12
    7  A    between atoms: C_19  and  C_37
    8  A    between atoms: C_29  and  C_36
    9  A    between atoms: C_36  and  C_40
                            x       y       z     vdW  Elec       q    Type
                         _______ _______ _______ _____ _____    ______ ____

>  <TORSDO>
F 9

$$$$
=
 OpenBabel11052416383D

 43 48  0  0  1  0  0  0  0  0999 V2000
  182.6580  178.6730  139.6800 C   0  0  2  0  0  3  0  0  0  0  0  0
  180.1760  182.7280  136.2740 C   0  0  0  0  0  0  0  0  0  0  0  0
  179.2720  180.7960  140.7150 C   0  0  2  0  0  3  0  0  0  0  0  0
  181.2420  179.5920  141.7380 C   0  0  2  0  0  3  0  0  0  0  0  0
  181.4080  182.8650  138.2380 C   0  0  0  0  0  2  0  0  0  0  0  0
  178.9310  182.2550  137.0150 C   0  0  0  0  0  2  0  0  0  0  0  0
  180.4560  182.2470  135.1770 O   0  0  0  0  0  0  0  0  0  0  0  0
  179.5140  181.2850  139.3000 C   0  0  2  0  0  3  0  0  0  0  0  0
  181.1360  183.5800  136.9740 C   0  0  0  0  0  2  0  0  0  0  0  0
  179.1440  180.9770  137.8490 C   0  0  0  0  0  2  0  0  0  0  0  0
  179.8370  179.4560  141.1240 C   0  0  2  0  0  3  0  0  0  0  0  0
  179.9140  179.8720  139.6610 C   0  0  1  0  0  3  0  0  0  0  0  0
  182.9500  181.1750  138.7070 C   0  0  0  0  0  2  0  0  0  0  0  0
  183.2160  179.6470  138.8790 C   0  0  0  0  0  2  0  0  0  0  0  0
  182.1750  178.7630  141.0210 O   0  0  0  0  0  0  0  0  0  0  0  0
  182.8040  182.6020  138.4240 O   0  0  0  0  0  0  0  0  0  0  0  0
  184.6210  176.2430  137.3850 C   0  0  0  0  0  2  0  0  0  0  0  0
  183.5700  175.1630  137.2560 C   0  0  1  0  0  3  0  0  0  0  0  0
  182.2240  176.2130  139.1770 C   0  0  0  0  0  2  0  0  0  0  0  0
  184.0210  177.5110  137.9690 C   0  0  0  0  0  2  0  0  0  0  0  0
  183.2930  177.3400  139.3520 C   0  0  1  0  0  3  0  0  0  0  0  0
  182.7630  174.9010  138.5240 C   0  0  0  0  0  2  0  0  0  0  0  0
  183.5730  175.5710  134.8260 C   0  0  0  0  0  1  0  0  0  0  0  0
  182.6740  175.3780  136.0590 C   0  0  0  0  0  2  0  0  0  0  0  0
  181.2280  179.1880  143.2650 C   0  0  1  0  0  3  0  0  0  0  0  0
  179.9400  179.2370  144.0130 C   0  0  0  0  0  1  0  0  0  0  0  0
  182.1780  178.1640  143.8170 C   0  0  0  0  0  2  0  0  0  0  0  0
  183.5850  178.6480  143.9910 C   0  0  2  0  0  3  0  0  0  0  0  0
  183.7160  180.1330  143.9860 C   0  0  0  0  0  1  0  0  0  0  0  0
  184.4830  178.0550  142.9050 C   0  0  0  0  0  2  0  0  0  0  0  0
  185.8710  177.8270  143.5560 C   0  0  2  0  0  3  0  0  0  0  0  0
  188.5310  177.7150  145.2830 C   0  0  0  0  0  3  0  0  0  0  0  0
  188.9830  177.0630  141.7880 C   0  0  0  0  0  0  0  0  0  0  0  0
  188.2210  177.3200  142.7710 C   0  0  0  0  0  0  0  0  0  0  0  0
  185.9950  177.8750  145.1050 C   0  0  0  0  0  2  0  0  0  0  0  0
  186.9890  178.1210  142.5690 C   0  0  0  0  0  2  0  0  0  0  0  0
  189.8930  176.7950  140.7950 C   0  0  0  0  0  3  0  0  0  0  0  0
  188.6360  176.7660  144.1180 C   0  0  0  0  0  2  0  0  0  0  0  0
  187.3460  178.2040  145.7030 C   0  0  0  0  0  3  0  0  0  0  0  0
  189.9850  177.4810  139.4360 C   0  0  0  0  0  2  0  0  0  0  0  0
  189.0500  178.9640  137.5930 C   0  0  0  0  0  2  0  0  0  0  0  0
  189.0710  178.6450  139.0780 C   0  0  0  0  0  3  0  0  0  0  0  0
  187.9560  178.1180  138.1670 C   0  0  0  0  0  2  0  0  0  0  0  0
  1 14  1  1  0  0  0
  1 15  1  0  0  0  0
  2  9  1  0  0  0  0
  2  6  1  0  0  0  0
  3 11  1  0  0  0  0
  4 25  1  0  0  0  0
  5 16  1  0  0  0  0
  6 10  1  0  0  0  0
  7  2  2  0  0  0  0
  8 12  1  0  0  0  0
  8  3  1  0  0  0  0
  9  5  1  0  0  0  0
 10  8  1  0  0  0  0
 11  4  1  0  0  0  0
 12  3  1  0  0  0  0
 12 11  1  0  0  0  0
 13 14  1  0  0  0  0
 15  4  1  0  0  0  0
 16 13  1  0  0  0  0
 17 20  1  0  0  0  0
 18 17  1  0  0  0  0
 18 22  1  0  0  0  0
 19 21  1  0  0  0  0
 20 21  1  0  0  0  0
 21  1  1  0  0  0  0
 22 19  1  0  0  0  0
 23 24  1  0  0  0  0
 24 18  1  0  0  0  0
 25 27  1  0  0  0  0
 25 26  1  0  0  0  0
 27 28  1  0  0  0  0
 29 28  1  0  0  0  0
 30 31  1  0  0  0  0
 30 28  1  0  0  0  0
 31 35  1  0  0  0  0
 32 39  2  0  0  0  0
 33 34  2  0  0  0  0
 34 38  1  0  0  0  0
 35 39  1  0  0  0  0
 36 34  1  0  0  0  0
 36 31  1  0  0  0  0
 37 33  2  0  0  0  0
 38 32  1  0  0  0  0
 40 37  1  0  0  0  0
 41 43  1  0  0  0  0
 41 42  1  0  0  0  0
 42 40  1  0  0  0  0
 43 42  1  0  0  0  0
M  END
>  <MODEL>
7

>  <REMARK>
 VINA RESULT:      -7.4      4.117      9.232
  Name = 
  9 active torsions:
  status: ('A' for Active; 'I' for Inactive)
    1  A    between atoms: C_1  and  C_35
    2  A    between atoms: C_2  and  C_6
    3  A    between atoms: C_2  and  C_13
    4  A    between atoms: C_3  and  C_4
    5  A    between atoms: C_3  and  C_12
    6  A    between atoms: C_6  and  C_12
    7  A    between atoms: C_19  and  C_37
    8  A    between atoms: C_29  and  C_36
    9  A    between atoms: C_36  and  C_40
                            x       y       z     vdW  Elec       q    Type
                         _______ _______ _______ _____ _____    ______ ____

>  <TORSDO>
F 9

$$$$
=
 OpenBabel11052416383D

 43 48  0  0  1  0  0  0  0  0999 V2000
  187.4130  176.8360  137.4070 C   0  0  2  0  0  3  0  0  0  0  0  0
  192.4940  174.4200  135.8130 C   0  0  0  0  0  0  0  0  0  0  0  0
  190.9910  177.4980  139.3540 C   0  0  2  0  0  3  0  0  0  0  0  0
  188.4980  177.4770  139.7520 C   0  0  2  0  0  3  0  0  0  0  0  0
  191.0700  174.0450  137.6090 C   0  0  0  0  0  2  0  0  0  0  0  0
  193.0330  175.7060  136.4290 C   0  0  0  0  0  2  0  0  0  0  0  0
  192.2980  174.3570  134.6010 O   0  0  0  0  0  0  0  0  0  0  0  0
  191.4380  176.6420  138.1860 C   0  0  2  0  0  3  0  0  0  0  0  0
  192.0100  173.3610  136.6970 C   0  0  0  0  0  2  0  0  0  0  0  0
  191.9470  176.7530  136.7480 C   0  0  0  0  0  2  0  0  0  0  0  0
  189.7040  178.2780  139.2300 C   0  0  2  0  0  3  0  0  0  0  0  0
  190.2550  177.5660  138.0020 C   0  0  1  0  0  3  0  0  0  0  0  0
  188.7990  174.5190  137.3490 C   0  0  0  0  0  2  0  0  0  0  0  0
  187.7100  175.5660  136.9590 C   0  0  0  0  0  2  0  0  0  0  0  0
  187.4920  177.3780  138.7260 O   0  0  0  0  0  0  0  0  0  0  0  0
  189.7670  173.4510  137.5930 O   0  0  0  0  0  0  0  0  0  0  0  0
  183.7760  178.0980  136.9570 C   0  0  0  0  0  2  0  0  0  0  0  0
  183.3240  177.1020  135.9120 C   0  0  1  0  0  3  0  0  0  0  0  0
  185.7570  176.3680  135.5270 C   0  0  0  0  0  2  0  0  0  0  0  0
  185.0820  177.6550  137.5920 C   0  0  0  0  0  2  0  0  0  0  0  0
  186.2670  177.3930  136.5920 C   0  0  1  0  0  3  0  0  0  0  0  0
  184.3840  176.7350  134.8790 C   0  0  0  0  0  2  0  0  0  0  0  0
  181.3960  176.3110  137.2260 C   0  0  0  0  0  1  0  0  0  0  0  0
  182.6940  175.8750  136.5250 C   0  0  0  0  0  2  0  0  0  0  0  0
  187.8870  178.1580  141.0390 C   0  0  1  0  0  3  0  0  0  0  0  0
  186.4150  178.3830  141.1080 C   0  0  0  0  0  1  0  0  0  0  0  0
  188.5070  177.9770  142.3950 C   0  0  0  0  0  2  0  0  0  0  0  0
  189.9190  177.4760  142.3730 C   0  0  2  0  0  3  0  0  0  0  0  0
  190.0520  176.0370  142.7420 C   0  0  0  0  0  1  0  0  0  0  0  0
  190.7910  178.3210  143.3010 C   0  0  0  0  0  2  0  0  0  0  0  0
  190.5190  177.8180  144.7420 C   0  0  2  0  0  3  0  0  0  0  0  0
  190.3170  176.3740  147.5600 C   0  0  0  0  0  3  0  0  0  0  0  0
  187.4140  178.2590  146.6290 C   0  0  0  0  0  0  0  0  0  0  0  0
  188.5950  177.8610  146.3830 C   0  0  0  0  0  0  0  0  0  0  0  0
  191.6550  177.0890  145.5140 C   0  0  0  0  0  2  0  0  0  0  0  0
  189.0290  177.6390  144.9820 C   0  0  0  0  0  2  0  0  0  0  0  0
  186.1400  178.6260  146.9870 C   0  0  0  0  0  3  0  0  0  0  0  0
  189.5030  177.6420  147.5740 C   0  0  0  0  0  2  0  0  0  0  0  0
  191.2660  176.1430  146.6300 C   0  0  0  0  0  3  0  0  0  0  0  0
  184.8990  178.5820  146.1020 C   0  0  0  0  0  2  0  0  0  0  0  0
  183.7060  178.4030  143.8630 C   0  0  0  0  0  2  0  0  0  0  0  0
  185.0060  178.7020  144.5880 C   0  0  0  0  0  3  0  0  0  0  0  0
  184.0740  179.8300  144.1280 C   0  0  0  0  0  2  0  0  0  0  0  0
  1 14  1  1  0  0  0
  1 15  1  0  0  0  0
  2  6  1  0  0  0  0
  2  9  1  0  0  0  0
  4 25  1  0  0  0  0
  6 10  1  0  0  0  0
  7  2  2  0  0  0  0
  8  3  1  0  0  0  0
  9  5  1  0  0  0  0
 10  8  1  0  0  0  0
 11  3  1  0  0  0  0
 11  4  1  0  0  0  0
 12  8  1  0  0  0  0
 12 11  1  0  0  0  0
 12  3  1  0  0  0  0
 13 16  1  0  0  0  0
 14 13  1  0  0  0  0
 15  4  1  0  0  0  0
 16  5  1  0  0  0  0
 17 20  1  0  0  0  0
 18 24  1  0  0  0  0
 18 17  1  0  0  0  0
 19 21  1  0  0  0  0
 21  1  1  0  0  0  0
 21 20  1  0  0  0  0
 22 19  1  0  0  0  0
 22 18  1  0  0  0  0
 24 23  1  0  0  0  0
 25 26  1  0  0  0  0
 25 27  1  0  0  0  0
 28 27  1  0  0  0  0
 28 29  1  0  0  0  0
 28 30  1  0  0  0  0
 30 31  1  0  0  0  0
 31 36  1  0  0  0  0
 31 35  1  0  0  0  0
 32 38  1  0  0  0  0
 33 37  2  0  0  0  0
 34 33  2  0  0  0  0
 34 38  1  0  0  0  0
 35 39  1  0  0  0  0
 36 34  1  0  0  0  0
 39 32  2  0  0  0  0
 40 37  1  0  0  0  0
 41 43  1  0  0  0  0
 41 42  1  0  0  0  0
 42 40  1  0  0  0  0
 43 42  1  0  0  0  0
M  END
>  <MODEL>
8

>  <REMARK>
 VINA RESULT:      -7.4      1.466      2.495
  Name = 
  9 active torsions:
  status: ('A' for Active; 'I' for Inactive)
    1  A    between atoms: C_1  and  C_35
    2  A    between atoms: C_2  and  C_6
    3  A    between atoms: C_2  and  C_13
    4  A    between atoms: C_3  and  C_4
    5  A    between atoms: C_3  and  C_12
    6  A    between atoms: C_6  and  C_12
    7  A    between atoms: C_19  and  C_37
    8  A    between atoms: C_29  and  C_36
    9  A    between atoms: C_36  and  C_40
                            x       y       z     vdW  Elec       q    Type
                         _______ _______ _______ _____ _____    ______ ____

>  <TORSDO>
F 9

$$$$
=
 OpenBabel11052416383D

 43 48  0  0  1  0  0  0  0  0999 V2000
  181.8670  178.1510  140.0030 C   0  0  2  0  0  3  0  0  0  0  0  0
  185.2920  176.3620  135.6140 C   0  0  0  0  0  0  0  0  0  0  0  0
  185.9740  178.5610  139.9700 C   0  0  2  0  0  3  0  0  0  0  0  0
  184.0210  178.3400  141.5550 C   0  0  2  0  0  3  0  0  0  0  0  0
  184.9400  175.5550  137.7620 C   0  0  0  0  0  2  0  0  0  0  0  0
  186.1500  177.5160  136.1210 C   0  0  0  0  0  2  0  0  0  0  0  0
  184.5110  176.5440  134.6820 O   0  0  0  0  0  0  0  0  0  0  0  0
  185.7170  177.9880  138.5900 C   0  0  2  0  0  3  0  0  0  0  0  0
  185.2480  175.1210  136.3840 C   0  0  0  0  0  2  0  0  0  0  0  0
  185.4420  178.4210  137.1490 C   0  0  0  0  0  2  0  0  0  0  0  0
  184.8520  179.2890  140.6720 C   0  0  2  0  0  3  0  0  0  0  0  0
  184.6650  178.8740  139.2190 C   0  0  1  0  0  3  0  0  0  0  0  0
  182.8820  175.9650  138.7850 C   0  0  0  0  0  2  0  0  0  0  0  0
  181.8160  177.0180  139.2190 C   0  0  0  0  0  2  0  0  0  0  0  0
  182.6330  178.4100  141.1810 O   0  0  0  0  0  0  0  0  0  0  0  0
  183.7690  174.9160  138.2850 O   0  0  0  0  0  0  0  0  0  0  0  0
  178.9310  180.0450  138.3260 C   0  0  0  0  0  2  0  0  0  0  0  0
  178.9340  181.2790  139.2010 C   0  0  1  0  0  3  0  0  0  0  0  0
  180.4930  180.1110  140.8780 C   0  0  0  0  0  2  0  0  0  0  0  0
  180.2030  179.2400  138.5270 C   0  0  0  0  0  2  0  0  0  0  0  0
  180.5060  178.8120  140.0090 C   0  0  1  0  0  3  0  0  0  0  0  0
  179.2380  181.0170  140.6730 C   0  0  0  0  0  2  0  0  0  0  0  0
  179.3590  182.6370  137.1900 C   0  0  0  0  0  1  0  0  0  0  0  0
  179.8060  182.3770  138.6390 C   0  0  0  0  0  2  0  0  0  0  0  0
  184.1850  178.7090  143.0830 C   0  0  1  0  0  3  0  0  0  0  0  0
  182.9900  178.6510  143.9710 C   0  0  0  0  0  1  0  0  0  0  0  0
  185.4670  178.4510  143.8220 C   0  0  0  0  0  2  0  0  0  0  0  0
  185.3110  178.2890  145.3030 C   0  0  2  0  0  3  0  0  0  0  0  0
  185.9460  179.3780  146.0980 C   0  0  0  0  0  1  0  0  0  0  0  0
  185.8780  176.9390  145.7460 C   0  0  0  0  0  2  0  0  0  0  0  0
  187.2400  177.2360  146.4240 C   0  0  2  0  0  3  0  0  0  0  0  0
  189.7350  178.1950  148.1340 C   0  0  0  0  0  3  0  0  0  0  0  0
  190.5260  177.0850  144.8190 C   0  0  0  0  0  0  0  0  0  0  0  0
  189.6750  177.2850  145.7400 C   0  0  0  0  0  0  0  0  0  0  0  0
  187.2680  177.5930  147.9370 C   0  0  0  0  0  2  0  0  0  0  0  0
  188.2790  177.6530  145.3970 C   0  0  0  0  0  2  0  0  0  0  0  0
  191.5230  176.9130  143.8910 C   0  0  0  0  0  3  0  0  0  0  0  0
  190.1590  177.1230  147.1650 C   0  0  0  0  0  2  0  0  0  0  0  0
  188.4410  178.3940  148.4590 C   0  0  0  0  0  3  0  0  0  0  0  0
  191.4870  177.3420  142.4280 C   0  0  0  0  0  2  0  0  0  0  0  0
  189.2100  177.5060  141.3070 C   0  0  0  0  0  2  0  0  0  0  0  0
  190.5010  176.7200  141.4490 C   0  0  0  0  0  3  0  0  0  0  0  0
  190.2910  177.7010  140.2890 C   0  0  0  0  0  2  0  0  0  0  0  0
  1 14  1  1  0  0  0
  1 21  1  0  0  0  0
  1 15  1  0  0  0  0
  2  6  1  0  0  0  0
  2  9  1  0  0  0  0
  3 11  1  0  0  0  0
  4 25  1  0  0  0  0
  5 16  1  0  0  0  0
  6 10  1  0  0  0  0
  7  2  2  0  0  0  0
  8 12  1  0  0  0  0
  8  3  1  0  0  0  0
  9  5  1  0  0  0  0
 10  8  1  0  0  0  0
 11  4  1  0  0  0  0
 12  3  1  0  0  0  0
 12 11  1  0  0  0  0
 13 14  1  0  0  0  0
 15  4  1  0  0  0  0
 16 13  1  0  0  0  0
 17 20  1  0  0  0  0
 17 18  1  0  0  0  0
 18 22  1  0  0  0  0
 20 21  1  0  0  0  0
 21 19  1  0  0  0  0
 22 19  1  0  0  0  0
 23 24  1  0  0  0  0
 24 18  1  0  0  0  0
 25 27  1  0  0  0  0
 25 26  1  0  0  0  0
 27 28  1  0  0  0  0
 28 30  1  0  0  0  0
 28 29  1  0  0  0  0
 30 31  1  0  0  0  0
 31 35  1  0  0  0  0
 32 39  2  0  0  0  0
 33 34  2  0  0  0  0
 34 38  1  0  0  0  0
 35 39  1  0  0  0  0
 36 34  1  0  0  0  0
 36 31  1  0  0  0  0
 37 33  2  0  0  0  0
 38 32  1  0  0  0  0
 40 37  1  0  0  0  0
 41 42  1  0  0  0  0
 42 40  1  0  0  0  0
 43 41  1  0  0  0  0
 43 42  1  0  0  0  0
M  END
>  <MODEL>
9

>  <REMARK>
 VINA RESULT:      -7.3      3.476      7.012
  Name = 
  9 active torsions:
  status: ('A' for Active; 'I' for Inactive)
    1  A    between atoms: C_1  and  C_35
    2  A    between atoms: C_2  and  C_6
    3  A    between atoms: C_2  and  C_13
    4  A    between atoms: C_3  and  C_4
    5  A    between atoms: C_3  and  C_12
    6  A    between atoms: C_6  and  C_12
    7  A    between atoms: C_19  and  C_37
    8  A    between atoms: C_29  and  C_36
    9  A    between atoms: C_36  and  C_40
                            x       y       z     vdW  Elec       q    Type
                         _______ _______ _______ _____ _____    ______ ____

>  <TORSDO>
F 9

$$$$
