=
 OpenBabel11052416193D

 43 47  0  0  1  0  0  0  0  0999 V2000
  191.2820  176.6960  146.9100 C   0  0  0  0  0  0  0  0  0  0  0  0
  186.9000  177.8910  144.6600 C   0  0  0  0  0  0  0  0  0  0  0  0
  187.4780  178.3290  141.9350 C   0  0  0  0  0  0  0  0  0  0  0  0
  188.9540  177.1820  146.4500 C   0  0  0  0  0  0  0  0  0  0  0  0
  191.5960  176.9040  145.5650 C   0  0  0  0  0  3  0  0  0  0  0  0
  192.2830  176.3520  147.8100 O   0  0  0  0  0  1  0  0  0  0  0  0
  189.2600  177.3970  145.0840 C   0  0  0  0  0  0  0  0  0  0  0  0
  189.9650  176.8340  147.3510 C   0  0  0  0  0  3  0  0  0  0  0  0
  190.5930  177.2520  144.6560 C   0  0  0  0  0  3  0  0  0  0  0  0
  188.5000  177.9710  142.8270 C   0  0  0  0  0  3  0  0  0  0  0  0
  188.2300  177.7500  144.1860 C   0  0  0  0  0  0  0  0  0  0  0  0
  186.6250  177.6710  146.0190 C   0  0  0  0  0  3  0  0  0  0  0  0
  185.8720  178.2530  143.7670 C   0  0  0  0  0  0  0  0  0  0  0  0
  186.1720  178.4740  142.4180 C   0  0  0  0  0  3  0  0  0  0  0  0
  187.6430  177.3180  146.9040 C   0  0  0  0  0  3  0  0  0  0  0  0
  187.7440  178.5880  140.4740 C   0  0  2  0  0  3  0  0  0  0  0  0
  186.5610  178.4470  139.7460 O   0  0  0  0  0  1  0  0  0  0  0  0
  188.7960  177.6880  139.8950 C   0  0  0  0  0  3  0  0  0  0  0  0
  189.4420  177.9710  138.7650 C   0  0  0  0  0  0  0  0  0  0  0  0
  189.1790  179.1470  138.0680 O   0  0  0  0  0  1  0  0  0  0  0  0
  190.4620  177.0060  138.2310 C   0  0  0  0  0  2  0  0  0  0  0  0
  190.1390  176.4600  136.9040 N   0  0  0  0  0  0  0  0  0  0  0  0
  191.3560  176.0100  136.2350 C   0  0  0  0  0  2  0  0  0  0  0  0
  193.2430  174.4150  137.4310 S   0  0  0  0  0  1  0  0  0  0  0  0
  192.5350  176.0720  137.1940 C   0  0  0  0  0  2  0  0  0  0  0  0
  189.2230  175.3310  137.0190 C   0  0  0  0  0  2  0  0  0  0  0  0
  187.8820  175.7090  136.4770 C   0  0  0  0  0  0  0  0  0  0  0  0
  187.8050  176.6680  135.6610 O   0  0  0  0  0  0  0  0  0  0  0  0
  186.6610  174.9930  136.8970 C   0  0  0  0  0  0  0  0  0  0  0  0
  184.3080  175.0000  137.3590 N   0  0  0  0  0  0  0  0  0  0  0  0
  185.5310  172.9610  137.5910 C   0  0  0  0  0  3  0  0  0  0  0  0
  184.3340  173.6730  137.6630 C   0  0  0  0  0  3  0  0  0  0  0  0
  186.6970  173.6260  137.2060 C   0  0  0  0  0  3  0  0  0  0  0  0
  185.4340  175.6660  136.9820 C   0  0  0  0  0  3  0  0  0  0  0  0
  184.4500  178.4030  144.2210 C   0  0  0  0  0  2  0  0  0  0  0  0
  182.7800  178.3470  140.7250 C   0  0  0  0  0  2  0  0  0  0  0  0
  181.5660  179.2050  141.1340 C   0  0  2  0  0  3  0  0  0  0  0  0
  182.1170  179.0380  143.6090 C   0  0  0  0  0  2  0  0  0  0  0  0
  183.5720  177.8310  141.9310 C   0  0  0  0  0  2  0  0  0  0  0  0
  183.5440  178.8420  143.0790 C   0  0  2  0  0  3  0  0  0  0  0  0
  181.0270  178.8870  142.5360 C   0  0  0  0  0  2  0  0  0  0  0  0
  180.5600  179.2580  140.1450 O   0  0  0  0  0  0  0  0  0  0  0  0
  181.1090  178.8540  138.9170 C   0  0  0  0  0  1  0  0  0  0  0  0
  1  8  1  0  0  0  0
  1  6  1  0  0  0  0
  2 12  1  0  0  0  0
  3 14  2  0  0  0  0
  3 10  1  0  0  0  0
  4 15  1  0  0  0  0
  4  8  2  0  0  0  0
  5  1  2  0  0  0  0
  7  4  1  0  0  0  0
  9  7  2  0  0  0  0
  9  5  1  0  0  0  0
 10 11  2  0  0  0  0
 11  2  1  0  0  0  0
 11  7  1  0  0  0  0
 12 15  2  0  0  0  0
 13 35  1  0  0  0  0
 13  2  2  0  0  0  0
 14 13  1  0  0  0  0
 16 17  1  6  0  0  0
 16  3  1  0  0  0  0
 18 16  1  0  0  0  0
 19 18  2  0  0  0  0
 20 19  1  0  0  0  0
 21 19  1  0  0  0  0
 22 26  1  0  0  0  0
 22 21  1  0  0  0  0
 23 22  1  0  0  0  0
 23 25  1  0  0  0  0
 25 24  1  0  0  0  0
 27 29  1  0  0  0  0
 27 26  1  0  0  0  0
 28 27  2  0  0  0  0
 29 34  2  0  0  0  0
 29 33  1  0  0  0  0
 30 32  2  0  0  0  0
 31 32  1  0  0  0  0
 33 31  2  0  0  0  0
 34 30  1  0  0  0  0
 36 37  1  0  0  0  0
 36 39  1  0  0  0  0
 37 42  1  6  0  0  0
 37 41  1  0  0  0  0
 39 40  1  0  0  0  0
 40 38  1  0  0  0  0
 40 35  1  1  0  0  0
 41 38  1  0  0  0  0
 43 42  1  0  0  0  0
M  END
>  <MODEL>
1

>  <REMARK>
 VINA RESULT:      -9.9      0.000      0.000
  Name = 
  12 active torsions:
  status: ('A' for Active; 'I' for Inactive)
    1  A    between atoms: C_1  and  C_34
    2  A    between atoms: C_1  and  C_35
    3  A    between atoms: C_2  and  C_6
    4  A    between atoms: C_2  and  C_13
    5  A    between atoms: C_3  and  N_4
    6  A    between atoms: C_3  and  C_12
    7  A    between atoms: N_4  and  C_15
    8  A    between atoms: N_4  and  C_22
    9  A    between atoms: C_11  and  C_14
   10  A    between atoms: C_14  and  C_22
   11  A    between atoms: C_15  and  C_42
   12  A    between atoms: C_19  and  O_25
                            x       y       z     vdW  Elec       q    Type
                         _______ _______ _______ _____ _____    ______ ____

>  <TORSDO>
F 12

$$$$
=
 OpenBabel11052416193D

 43 47  0  0  1  0  0  0  0  0999 V2000
  184.7970  178.6730  145.6730 C   0  0  0  0  0  0  0  0  0  0  0  0
  182.7150  178.8540  141.0550 C   0  0  0  0  0  0  0  0  0  0  0  0
  184.7990  178.4220  139.2050 C   0  0  0  0  0  0  0  0  0  0  0  0
  183.2500  178.8640  143.8190 C   0  0  0  0  0  0  0  0  0  0  0  0
  185.8480  178.4540  144.7790 C   0  0  0  0  0  3  0  0  0  0  0  0
  185.0420  178.6880  147.0400 O   0  0  0  0  0  1  0  0  0  0  0  0
  184.3080  178.6450  142.9030 C   0  0  0  0  0  0  0  0  0  0  0  0
  183.5020  178.8780  145.1940 C   0  0  0  0  0  3  0  0  0  0  0  0
  185.6070  178.4390  143.4030 C   0  0  0  0  0  3  0  0  0  0  0  0
  185.0640  178.4240  140.5840 C   0  0  0  0  0  3  0  0  0  0  0  0
  184.0390  178.6370  141.5170 C   0  0  0  0  0  0  0  0  0  0  0  0
  181.6860  179.0680  141.9860 C   0  0  0  0  0  3  0  0  0  0  0  0
  182.4470  178.8570  139.6720 C   0  0  0  0  0  0  0  0  0  0  0  0
  183.4900  178.6470  138.7630 C   0  0  0  0  0  3  0  0  0  0  0  0
  181.9520  179.0710  143.3550 C   0  0  0  0  0  3  0  0  0  0  0  0
  185.8850  178.2110  138.1810 C   0  0  2  0  0  3  0  0  0  0  0  0
  185.5820  177.1000  137.3930 O   0  0  0  0  0  1  0  0  0  0  0  0
  187.2450  178.0350  138.7890 C   0  0  0  0  0  3  0  0  0  0  0  0
  188.3500  178.5320  138.2350 C   0  0  0  0  0  0  0  0  0  0  0  0
  188.2880  179.2680  137.0550 O   0  0  0  0  0  1  0  0  0  0  0  0
  189.6820  178.2890  138.8860 C   0  0  0  0  0  2  0  0  0  0  0  0
  189.7730  177.0150  139.6140 N   0  0  0  0  0  0  0  0  0  0  0  0
  190.4520  176.0150  138.7950 C   0  0  0  0  0  2  0  0  0  0  0  0
  193.0610  176.2200  137.9650 S   0  0  0  0  0  1  0  0  0  0  0  0
  191.3200  176.6970  137.7490 C   0  0  0  0  0  2  0  0  0  0  0  0
  190.5150  177.1820  140.8590 C   0  0  0  0  0  2  0  0  0  0  0  0
  189.5910  177.0330  142.0240 C   0  0  0  0  0  0  0  0  0  0  0  0
  188.3500  176.9490  141.8090 O   0  0  0  0  0  0  0  0  0  0  0  0
  190.1070  177.0000  143.4070 C   0  0  0  0  0  0  0  0  0  0  0  0
  191.7620  176.2800  144.9860 N   0  0  0  0  0  0  0  0  0  0  0  0
  189.9530  177.6460  145.7400 C   0  0  0  0  0  3  0  0  0  0  0  0
  191.1240  176.9330  145.9960 C   0  0  0  0  0  3  0  0  0  0  0  0
  189.4460  177.6780  144.4400 C   0  0  0  0  0  3  0  0  0  0  0  0
  191.2830  176.2990  143.7110 C   0  0  0  0  0  3  0  0  0  0  0  0
  181.0610  179.0710  139.1380 C   0  0  0  0  0  2  0  0  0  0  0  0
  179.8030  180.8230  135.9190 C   0  0  0  0  0  2  0  0  0  0  0  0
  180.6710  182.0850  136.0960 C   0  0  2  0  0  3  0  0  0  0  0  0
  181.3270  181.4590  138.4700 C   0  0  0  0  0  2  0  0  0  0  0  0
  179.7430  179.9640  137.1870 C   0  0  0  0  0  2  0  0  0  0  0  0
  181.0610  180.0350  137.9600 C   0  0  2  0  0  3  0  0  0  0  0  0
  180.7790  182.5620  137.5520 C   0  0  0  0  0  2  0  0  0  0  0  0
  180.3470  183.1180  135.1900 O   0  0  0  0  0  0  0  0  0  0  0  0
  180.9030  184.3210  135.6560 C   0  0  0  0  0  1  0  0  0  0  0  0
  1  6  1  0  0  0  0
  2 11  1  0  0  0  0
  2 12  1  0  0  0  0
  3 10  1  0  0  0  0
  4  8  2  0  0  0  0
  5  1  2  0  0  0  0
  7  9  2  0  0  0  0
  7  4  1  0  0  0  0
  8  1  1  0  0  0  0
  9  5  1  0  0  0  0
 10 11  2  0  0  0  0
 11  7  1  0  0  0  0
 12 15  2  0  0  0  0
 13  2  2  0  0  0  0
 14  3  2  0  0  0  0
 14 13  1  0  0  0  0
 15  4  1  0  0  0  0
 16 17  1  1  0  0  0
 16 18  1  0  0  0  0
 16  3  1  0  0  0  0
 19 18  2  0  0  0  0
 19 21  1  0  0  0  0
 20 19  1  0  0  0  0
 21 22  1  0  0  0  0
 22 26  1  0  0  0  0
 23 22  1  0  0  0  0
 25 24  1  0  0  0  0
 25 23  1  0  0  0  0
 26 27  1  0  0  0  0
 27 29  1  0  0  0  0
 28 27  2  0  0  0  0
 29 34  2  0  0  0  0
 29 33  1  0  0  0  0
 30 32  2  0  0  0  0
 31 32  1  0  0  0  0
 33 31  2  0  0  0  0
 34 30  1  0  0  0  0
 35 13  1  0  0  0  0
 36 37  1  0  0  0  0
 36 39  1  0  0  0  0
 37 42  1  6  0  0  0
 37 41  1  0  0  0  0
 39 40  1  0  0  0  0
 40 38  1  0  0  0  0
 40 35  1  1  0  0  0
 41 38  1  0  0  0  0
 42 43  1  0  0  0  0
M  END
>  <MODEL>
2

>  <REMARK>
 VINA RESULT:      -9.9      2.868      6.033
  Name = 
  12 active torsions:
  status: ('A' for Active; 'I' for Inactive)
    1  A    between atoms: C_1  and  C_34
    2  A    between atoms: C_1  and  C_35
    3  A    between atoms: C_2  and  C_6
    4  A    between atoms: C_2  and  C_13
    5  A    between atoms: C_3  and  N_4
    6  A    between atoms: C_3  and  C_12
    7  A    between atoms: N_4  and  C_15
    8  A    between atoms: N_4  and  C_22
    9  A    between atoms: C_11  and  C_14
   10  A    between atoms: C_14  and  C_22
   11  A    between atoms: C_15  and  C_42
   12  A    between atoms: C_19  and  O_25
                            x       y       z     vdW  Elec       q    Type
                         _______ _______ _______ _____ _____    ______ ____

>  <TORSDO>
F 12

$$$$
=
 OpenBabel11052416193D

 43 47  0  0  1  0  0  0  0  0999 V2000
  191.3380  176.5920  146.6840 C   0  0  0  0  0  0  0  0  0  0  0  0
  186.8760  177.9060  144.6700 C   0  0  0  0  0  0  0  0  0  0  0  0
  187.3300  178.3820  141.9280 C   0  0  0  0  0  0  0  0  0  0  0  0
  189.0000  177.1280  146.3450 C   0  0  0  0  0  0  0  0  0  0  0  0
  191.5910  176.8190  145.3290 C   0  0  0  0  0  3  0  0  0  0  0  0
  192.3740  176.2140  147.5280 O   0  0  0  0  0  1  0  0  0  0  0  0
  189.2440  177.3620  144.9700 C   0  0  0  0  0  0  0  0  0  0  0  0
  190.0460  176.7470  147.1910 C   0  0  0  0  0  3  0  0  0  0  0  0
  190.5520  177.2010  144.4760 C   0  0  0  0  0  3  0  0  0  0  0  0
  188.3870  177.9900  142.7630 C   0  0  0  0  0  3  0  0  0  0  0  0
  188.1790  177.7500  144.1290 C   0  0  0  0  0  0  0  0  0  0  0  0
  186.6630  177.6660  146.0360 C   0  0  0  0  0  3  0  0  0  0  0  0
  185.8140  178.3030  143.8340 C   0  0  0  0  0  0  0  0  0  0  0  0
  186.0520  178.5420  142.4760 C   0  0  0  0  0  3  0  0  0  0  0  0
  187.7160  177.2800  146.8650 C   0  0  0  0  0  3  0  0  0  0  0  0
  187.5300  178.6630  140.4600 C   0  0  2  0  0  3  0  0  0  0  0  0
  186.3170  178.5270  139.7830 O   0  0  0  0  0  1  0  0  0  0  0  0
  188.5580  177.7740  139.8220 C   0  0  0  0  0  3  0  0  0  0  0  0
  189.2800  178.1510  138.7680 C   0  0  0  0  0  0  0  0  0  0  0  0
  189.1240  179.4180  138.2130 O   0  0  0  0  0  1  0  0  0  0  0  0
  190.2700  177.1950  138.1650 C   0  0  0  0  0  2  0  0  0  0  0  0
  189.7350  176.3970  137.0520 N   0  0  0  0  0  0  0  0  0  0  0  0
  188.8450  177.2140  136.2310 C   0  0  0  0  0  2  0  0  0  0  0  0
  187.4570  174.9940  137.0550 S   0  0  0  0  0  1  0  0  0  0  0  0
  187.4910  176.5360  136.0930 C   0  0  0  0  0  2  0  0  0  0  0  0
  190.8160  175.8930  136.2120 C   0  0  0  0  0  2  0  0  0  0  0  0
  191.5850  174.8460  136.9490 C   0  0  0  0  0  0  0  0  0  0  0  0
  190.9520  174.0000  137.6400 O   0  0  0  0  0  0  0  0  0  0  0  0
  193.0600  174.8020  136.8940 C   0  0  0  0  0  0  0  0  0  0  0  0
  195.1410  173.9220  137.6970 N   0  0  0  0  0  0  0  0  0  0  0  0
  195.1640  175.5200  135.9220 C   0  0  0  0  0  3  0  0  0  0  0  0
  195.8390  174.6760  136.8050 C   0  0  0  0  0  3  0  0  0  0  0  0
  193.7700  175.5810  135.9690 C   0  0  0  0  0  3  0  0  0  0  0  0
  193.7810  173.9670  137.7590 C   0  0  0  0  0  3  0  0  0  0  0  0
  184.4170  178.4700  144.3590 C   0  0  0  0  0  2  0  0  0  0  0  0
  182.6770  178.4500  140.8970 C   0  0  0  0  0  2  0  0  0  0  0  0
  181.4110  179.1920  141.3700 C   0  0  2  0  0  3  0  0  0  0  0  0
  182.0290  178.9510  143.8230 C   0  0  0  0  0  2  0  0  0  0  0  0
  183.5330  177.9400  142.0610 C   0  0  0  0  0  2  0  0  0  0  0  0
  183.4550  178.8910  143.2570 C   0  0  2  0  0  3  0  0  0  0  0  0
  180.9300  178.7670  142.7660 C   0  0  0  0  0  2  0  0  0  0  0  0
  180.3810  179.2130  140.4050 O   0  0  0  0  0  0  0  0  0  0  0  0
  180.8670  179.8240  139.2370 C   0  0  0  0  0  1  0  0  0  0  0  0
  1  8  1  0  0  0  0
  1  6  1  0  0  0  0
  2 12  1  0  0  0  0
  3 14  2  0  0  0  0
  3 10  1  0  0  0  0
  4 15  1  0  0  0  0
  4  8  2  0  0  0  0
  5  1  2  0  0  0  0
  7  4  1  0  0  0  0
  9  7  2  0  0  0  0
  9  5  1  0  0  0  0
 10 11  2  0  0  0  0
 11  2  1  0  0  0  0
 11  7  1  0  0  0  0
 12 15  2  0  0  0  0
 13 35  1  0  0  0  0
 13  2  2  0  0  0  0
 14 13  1  0  0  0  0
 16 17  1  6  0  0  0
 16  3  1  0  0  0  0
 18 16  1  0  0  0  0
 19 18  2  0  0  0  0
 20 19  1  0  0  0  0
 21 19  1  0  0  0  0
 22 21  1  0  0  0  0
 23 22  1  0  0  0  0
 25 23  1  0  0  0  0
 25 24  1  0  0  0  0
 26 27  1  0  0  0  0
 26 22  1  0  0  0  0
 27 28  2  0  0  0  0
 29 27  1  0  0  0  0
 29 34  1  0  0  0  0
 30 34  2  0  0  0  0
 31 33  1  0  0  0  0
 31 32  2  0  0  0  0
 32 30  1  0  0  0  0
 33 29  2  0  0  0  0
 36 37  1  0  0  0  0
 36 39  1  0  0  0  0
 37 42  1  6  0  0  0
 37 41  1  0  0  0  0
 39 40  1  0  0  0  0
 40 38  1  0  0  0  0
 40 35  1  1  0  0  0
 41 38  1  0  0  0  0
 43 42  1  0  0  0  0
M  END
>  <MODEL>
3

>  <REMARK>
 VINA RESULT:      -9.2      1.868      3.842
  Name = 
  12 active torsions:
  status: ('A' for Active; 'I' for Inactive)
    1  A    between atoms: C_1  and  C_34
    2  A    between atoms: C_1  and  C_35
    3  A    between atoms: C_2  and  C_6
    4  A    between atoms: C_2  and  C_13
    5  A    between atoms: C_3  and  N_4
    6  A    between atoms: C_3  and  C_12
    7  A    between atoms: N_4  and  C_15
    8  A    between atoms: N_4  and  C_22
    9  A    between atoms: C_11  and  C_14
   10  A    between atoms: C_14  and  C_22
   11  A    between atoms: C_15  and  C_42
   12  A    between atoms: C_19  and  O_25
                            x       y       z     vdW  Elec       q    Type
                         _______ _______ _______ _____ _____    ______ ____

>  <TORSDO>
F 12

$$$$
=
 OpenBabel11052416193D

 43 47  0  0  1  0  0  0  0  0999 V2000
  191.2010  176.5160  146.8890 C   0  0  0  0  0  0  0  0  0  0  0  0
  189.1400  177.8930  142.4680 C   0  0  0  0  0  0  0  0  0  0  0  0
  186.4110  178.4010  142.9650 C   0  0  0  0  0  0  0  0  0  0  0  0
  190.8380  177.0840  144.5630 C   0  0  0  0  0  0  0  0  0  0  0  0
  189.8550  176.7640  147.1640 C   0  0  0  0  0  3  0  0  0  0  0  0
  192.0540  176.1100  147.9080 O   0  0  0  0  0  1  0  0  0  0  0  0
  189.4700  177.3360  144.8290 C   0  0  0  0  0  0  0  0  0  0  0  0
  191.6920  176.6760  145.5910 C   0  0  0  0  0  3  0  0  0  0  0  0
  188.9930  177.1710  146.1420 C   0  0  0  0  0  3  0  0  0  0  0  0
  187.2600  178.0010  144.0100 C   0  0  0  0  0  3  0  0  0  0  0  0
  188.6190  177.7440  143.7800 C   0  0  0  0  0  0  0  0  0  0  0  0
  190.5000  177.6370  142.2320 C   0  0  0  0  0  3  0  0  0  0  0  0
  188.2890  178.2910  141.4170 C   0  0  0  0  0  0  0  0  0  0  0  0
  186.9360  178.5340  141.6740 C   0  0  0  0  0  3  0  0  0  0  0  0
  191.3410  177.2380  143.2710 C   0  0  0  0  0  3  0  0  0  0  0  0
  184.9430  178.6670  143.1830 C   0  0  2  0  0  3  0  0  0  0  0  0
  184.5130  178.0220  144.3440 O   0  0  0  0  0  1  0  0  0  0  0  0
  184.0860  178.2390  142.0280 C   0  0  0  0  0  3  0  0  0  0  0  0
  182.7870  178.5220  141.9530 C   0  0  0  0  0  0  0  0  0  0  0  0
  182.1590  179.2610  142.9520 O   0  0  0  0  0  1  0  0  0  0  0  0
  181.9860  178.0330  140.7790 C   0  0  0  0  0  2  0  0  0  0  0  0
  182.7630  177.8870  139.5390 N   0  0  0  0  0  0  0  0  0  0  0  0
  182.7880  176.4870  139.1240 C   0  0  0  0  0  2  0  0  0  0  0  0
  180.5370  175.1780  138.2570 S   0  0  0  0  0  1  0  0  0  0  0  0
  181.9250  176.2910  137.8880 C   0  0  0  0  0  2  0  0  0  0  0  0
  182.1780  178.6830  138.4660 C   0  0  0  0  0  2  0  0  0  0  0  0
  182.4310  180.1340  138.7160 C   0  0  0  0  0  0  0  0  0  0  0  0
  183.6090  180.5130  138.9660 O   0  0  0  0  0  0  0  0  0  0  0  0
  181.3270  181.1150  138.6940 C   0  0  0  0  0  0  0  0  0  0  0  0
  179.2810  181.9560  139.6190 N   0  0  0  0  0  0  0  0  0  0  0  0
  180.2500  183.0690  137.7410 C   0  0  0  0  0  3  0  0  0  0  0  0
  179.2410  182.9560  138.6970 C   0  0  0  0  0  3  0  0  0  0  0  0
  181.2960  182.1430  137.7420 C   0  0  0  0  0  3  0  0  0  0  0  0
  180.2910  181.0430  139.6370 C   0  0  0  0  0  3  0  0  0  0  0  0
  188.7980  178.4720  140.0170 C   0  0  0  0  0  2  0  0  0  0  0  0
  186.9780  176.5890  137.1610 C   0  0  0  0  0  2  0  0  0  0  0  0
  187.9830  175.4200  137.0990 C   0  0  2  0  0  3  0  0  0  0  0  0
  189.6550  176.6070  138.5990 C   0  0  0  0  0  2  0  0  0  0  0  0
  187.5060  177.7790  137.9700 C   0  0  0  0  0  2  0  0  0  0  0  0
  188.3940  177.3080  139.1230 C   0  0  2  0  0  3  0  0  0  0  0  0
  189.4460  175.8520  137.2780 C   0  0  0  0  0  2  0  0  0  0  0  0
  187.7800  174.5670  135.9920 O   0  0  0  0  0  0  0  0  0  0  0  0
  188.4410  175.1070  134.8770 C   0  0  0  0  0  1  0  0  0  0  0  0
  1  5  1  0  0  0  0
  1  6  1  0  0  0  0
  2 11  1  0  0  0  0
  3 16  1  0  0  0  0
  3 10  1  0  0  0  0
  4  7  2  0  0  0  0
  4  8  1  0  0  0  0
  7  9  1  0  0  0  0
  8  1  2  0  0  0  0
  9  5  2  0  0  0  0
 11 10  2  0  0  0  0
 11  7  1  0  0  0  0
 12  2  1  0  0  0  0
 12 15  2  0  0  0  0
 13 14  1  0  0  0  0
 13  2  2  0  0  0  0
 14  3  2  0  0  0  0
 15  4  1  0  0  0  0
 16 17  1  1  0  0  0
 18 16  1  0  0  0  0
 19 18  2  0  0  0  0
 19 20  1  0  0  0  0
 21 19  1  0  0  0  0
 22 21  1  0  0  0  0
 23 22  1  0  0  0  0
 25 24  1  0  0  0  0
 25 23  1  0  0  0  0
 26 27  1  0  0  0  0
 26 22  1  0  0  0  0
 27 28  2  0  0  0  0
 29 27  1  0  0  0  0
 29 34  1  0  0  0  0
 30 34  2  0  0  0  0
 31 33  1  0  0  0  0
 31 32  2  0  0  0  0
 32 30  1  0  0  0  0
 33 29  2  0  0  0  0
 35 13  1  0  0  0  0
 36 39  1  0  0  0  0
 37 42  1  6  0  0  0
 37 36  1  0  0  0  0
 37 41  1  0  0  0  0
 38 40  1  0  0  0  0
 39 40  1  0  0  0  0
 40 35  1  6  0  0  0
 41 38  1  0  0  0  0
 43 42  1  0  0  0  0
M  END
>  <MODEL>
4

>  <REMARK>
 VINA RESULT:      -9.1      3.125      6.998
  Name = 
  12 active torsions:
  status: ('A' for Active; 'I' for Inactive)
    1  A    between atoms: C_1  and  C_34
    2  A    between atoms: C_1  and  C_35
    3  A    between atoms: C_2  and  C_6
    4  A    between atoms: C_2  and  C_13
    5  A    between atoms: C_3  and  N_4
    6  A    between atoms: C_3  and  C_12
    7  A    between atoms: N_4  and  C_15
    8  A    between atoms: N_4  and  C_22
    9  A    between atoms: C_11  and  C_14
   10  A    between atoms: C_14  and  C_22
   11  A    between atoms: C_15  and  C_42
   12  A    between atoms: C_19  and  O_25
                            x       y       z     vdW  Elec       q    Type
                         _______ _______ _______ _____ _____    ______ ____

>  <TORSDO>
F 12

$$$$
=
 OpenBabel11052416193D

 43 47  0  0  1  0  0  0  0  0999 V2000
  193.9790  175.5650  137.0010 C   0  0  0  0  0  0  0  0  0  0  0  0
  190.2610  177.5360  139.8270 C   0  0  0  0  0  0  0  0  0  0  0  0
  187.9260  177.4900  138.2460 C   0  0  0  0  0  0  0  0  0  0  0  0
  192.6910  176.5560  138.7970 C   0  0  0  0  0  0  0  0  0  0  0  0
  192.8370  175.5270  136.1980 C   0  0  0  0  0  3  0  0  0  0  0  0
  195.1890  175.0920  136.5100 O   0  0  0  0  0  1  0  0  0  0  0  0
  191.5270  176.5250  137.9910 C   0  0  0  0  0  0  0  0  0  0  0  0
  193.9060  176.0780  138.2980 C   0  0  0  0  0  3  0  0  0  0  0  0
  191.6180  176.0040  136.6870 C   0  0  0  0  0  3  0  0  0  0  0  0
  189.1380  176.9980  137.7350 C   0  0  0  0  0  3  0  0  0  0  0  0
  190.3080  177.0140  138.5080 C   0  0  0  0  0  0  0  0  0  0  0  0
  191.4290  177.5530  140.6040 C   0  0  0  0  0  3  0  0  0  0  0  0
  189.0470  178.0340  140.3400 C   0  0  0  0  0  0  0  0  0  0  0  0
  187.8960  178.0120  139.5450 C   0  0  0  0  0  3  0  0  0  0  0  0
  192.6330  177.0660  140.0930 C   0  0  0  0  0  3  0  0  0  0  0  0
  186.6580  177.5000  137.4300 C   0  0  2  0  0  3  0  0  0  0  0  0
  186.7620  178.4440  136.4070 O   0  0  0  0  0  1  0  0  0  0  0  0
  185.4310  177.7830  138.2470 C   0  0  0  0  0  3  0  0  0  0  0  0
  184.2350  177.2810  137.9440 C   0  0  0  0  0  0  0  0  0  0  0  0
  184.0710  176.4410  136.8470 O   0  0  0  0  0  1  0  0  0  0  0  0
  183.0450  177.6330  138.7920 C   0  0  0  0  0  2  0  0  0  0  0  0
  183.2650  178.7740  139.6930 N   0  0  0  0  0  0  0  0  0  0  0  0
  182.1950  179.7550  139.5330 C   0  0  0  0  0  2  0  0  0  0  0  0
  179.6970  180.5860  140.3080 S   0  0  0  0  0  1  0  0  0  0  0  0
  180.9140  179.2430  140.1710 C   0  0  0  0  0  2  0  0  0  0  0  0
  183.2930  178.3350  141.0840 C   0  0  0  0  0  2  0  0  0  0  0  0
  184.4640  178.9440  141.7850 C   0  0  0  0  0  0  0  0  0  0  0  0
  185.3110  179.5880  141.1060 O   0  0  0  0  0  0  0  0  0  0  0  0
  184.6470  178.7870  143.2410 C   0  0  0  0  0  0  0  0  0  0  0  0
  183.7990  179.0070  145.4740 N   0  0  0  0  0  0  0  0  0  0  0  0
  185.9820  178.0950  145.1450 C   0  0  0  0  0  3  0  0  0  0  0  0
  184.9450  178.4860  145.9920 C   0  0  0  0  0  3  0  0  0  0  0  0
  185.8290  178.2460  143.7650 C   0  0  0  0  0  3  0  0  0  0  0  0
  183.6310  179.1640  144.1310 C   0  0  0  0  0  3  0  0  0  0  0  0
  188.9470  178.5850  141.7320 C   0  0  0  0  0  2  0  0  0  0  0  0
  191.6410  178.1680  144.4860 C   0  0  0  0  0  2  0  0  0  0  0  0
  191.2750  176.7080  144.8230 C   0  0  2  0  0  3  0  0  0  0  0  0
  189.1330  176.7940  143.4580 C   0  0  0  0  0  2  0  0  0  0  0  0
  190.5730  178.8630  143.6350 C   0  0  0  0  0  2  0  0  0  0  0  0
  189.9010  177.8740  142.6820 C   0  0  2  0  0  3  0  0  0  0  0  0
  189.7650  176.4300  144.8100 C   0  0  0  0  0  2  0  0  0  0  0  0
  191.9260  176.2200  145.9760 O   0  0  0  0  0  0  0  0  0  0  0  0
  191.2980  176.7550  147.1120 C   0  0  0  0  0  1  0  0  0  0  0  0
  1  8  1  0  0  0  0
  2 13  1  0  0  0  0
  2 12  1  0  0  0  0
  3 14  1  0  0  0  0
  4 15  1  0  0  0  0
  5  9  1  0  0  0  0
  5  1  2  0  0  0  0
  6  1  1  0  0  0  0
  7 11  1  0  0  0  0
  7  4  1  0  0  0  0
  8  4  2  0  0  0  0
  9  7  2  0  0  0  0
 10  3  2  0  0  0  0
 10 11  1  0  0  0  0
 11  2  2  0  0  0  0
 13 35  1  0  0  0  0
 14 13  2  0  0  0  0
 15 12  2  0  0  0  0
 16 17  1  6  0  0  0
 16  3  1  0  0  0  0
 16 18  1  0  0  0  0
 19 18  2  0  0  0  0
 19 21  1  0  0  0  0
 20 19  1  0  0  0  0
 21 22  1  0  0  0  0
 22 26  1  0  0  0  0
 23 22  1  0  0  0  0
 23 25  1  0  0  0  0
 25 24  1  0  0  0  0
 26 27  1  0  0  0  0
 27 29  1  0  0  0  0
 28 27  2  0  0  0  0
 29 33  2  0  0  0  0
 29 34  1  0  0  0  0
 30 32  1  0  0  0  0
 31 32  2  0  0  0  0
 33 31  1  0  0  0  0
 34 30  2  0  0  0  0
 36 37  1  0  0  0  0
 37 42  1  1  0  0  0
 38 41  1  0  0  0  0
 39 36  1  0  0  0  0
 40 35  1  6  0  0  0
 40 38  1  0  0  0  0
 40 39  1  0  0  0  0
 41 37  1  0  0  0  0
 42 43  1  0  0  0  0
M  END
>  <MODEL>
5

>  <REMARK>
 VINA RESULT:      -8.7      3.403      8.395
  Name = 
  12 active torsions:
  status: ('A' for Active; 'I' for Inactive)
    1  A    between atoms: C_1  and  C_34
    2  A    between atoms: C_1  and  C_35
    3  A    between atoms: C_2  and  C_6
    4  A    between atoms: C_2  and  C_13
    5  A    between atoms: C_3  and  N_4
    6  A    between atoms: C_3  and  C_12
    7  A    between atoms: N_4  and  C_15
    8  A    between atoms: N_4  and  C_22
    9  A    between atoms: C_11  and  C_14
   10  A    between atoms: C_14  and  C_22
   11  A    between atoms: C_15  and  C_42
   12  A    between atoms: C_19  and  O_25
                            x       y       z     vdW  Elec       q    Type
                         _______ _______ _______ _____ _____    ______ ____

>  <TORSDO>
F 12

$$$$
=
 OpenBabel11052416193D

 43 47  0  0  1  0  0  0  0  0999 V2000
  191.3640  176.6990  147.0220 C   0  0  0  0  0  0  0  0  0  0  0  0
  187.0330  177.8780  144.6660 C   0  0  0  0  0  0  0  0  0  0  0  0
  187.6240  178.0480  141.9140 C   0  0  0  0  0  0  0  0  0  0  0  0
  189.0580  177.2430  146.5160 C   0  0  0  0  0  0  0  0  0  0  0  0
  191.6840  176.7740  145.6640 C   0  0  0  0  0  3  0  0  0  0  0  0
  192.3500  176.3930  147.9510 O   0  0  0  0  0  1  0  0  0  0  0  0
  189.3710  177.3230  145.1370 C   0  0  0  0  0  0  0  0  0  0  0  0
  190.0540  176.9330  147.4470 C   0  0  0  0  0  3  0  0  0  0  0  0
  190.6950  177.0830  144.7260 C   0  0  0  0  0  3  0  0  0  0  0  0
  188.6320  177.7270  142.8370 C   0  0  0  0  0  3  0  0  0  0  0  0
  188.3560  177.6390  144.2090 C   0  0  0  0  0  0  0  0  0  0  0  0
  186.7520  177.7910  146.0390 C   0  0  0  0  0  3  0  0  0  0  0  0
  186.0210  178.2050  143.7420 C   0  0  0  0  0  0  0  0  0  0  0  0
  186.3270  178.2920  142.3800 C   0  0  0  0  0  3  0  0  0  0  0  0
  187.7550  177.4750  146.9540 C   0  0  0  0  0  3  0  0  0  0  0  0
  187.8990  178.1650  140.4360 C   0  0  2  0  0  3  0  0  0  0  0  0
  188.6870  179.2910  140.1900 O   0  0  0  0  0  1  0  0  0  0  0  0
  186.6510  178.2390  139.6070 C   0  0  0  0  0  3  0  0  0  0  0  0
  186.5950  177.7960  138.3520 C   0  0  0  0  0  0  0  0  0  0  0  0
  187.7070  177.2140  137.7500 O   0  0  0  0  0  1  0  0  0  0  0  0
  185.3170  177.9310  137.5720 C   0  0  0  0  0  2  0  0  0  0  0  0
  184.5310  176.6910  137.4840 N   0  0  0  0  0  0  0  0  0  0  0  0
  183.1060  177.0030  137.4140 C   0  0  0  0  0  2  0  0  0  0  0  0
  180.9090  177.1270  135.7740 S   0  0  0  0  0  1  0  0  0  0  0  0
  182.7060  177.3040  135.9780 C   0  0  0  0  0  2  0  0  0  0  0  0
  184.9030  175.9280  136.2980 C   0  0  0  0  0  2  0  0  0  0  0  0
  185.2260  174.5200  136.6820 C   0  0  0  0  0  0  0  0  0  0  0  0
  186.3220  174.2850  137.2630 O   0  0  0  0  0  0  0  0  0  0  0  0
  184.2970  173.4140  136.3760 C   0  0  0  0  0  0  0  0  0  0  0  0
  183.3720  171.2710  136.9260 N   0  0  0  0  0  0  0  0  0  0  0  0
  182.5670  172.4230  134.9940 C   0  0  0  0  0  3  0  0  0  0  0  0
  182.5440  171.3190  135.8460 C   0  0  0  0  0  3  0  0  0  0  0  0
  183.4470  173.4730  135.2640 C   0  0  0  0  0  3  0  0  0  0  0  0
  184.2380  172.2850  137.2050 C   0  0  0  0  0  3  0  0  0  0  0  0
  184.6070  178.4550  144.1790 C   0  0  0  0  0  2  0  0  0  0  0  0
  183.0050  178.3770  140.6510 C   0  0  0  0  0  2  0  0  0  0  0  0
  181.8020  179.2690  141.0220 C   0  0  2  0  0  3  0  0  0  0  0  0
  182.3010  179.1310  143.5100 C   0  0  0  0  0  2  0  0  0  0  0  0
  183.7610  177.8640  141.8820 C   0  0  0  0  0  2  0  0  0  0  0  0
  183.7340  178.8950  143.0120 C   0  0  2  0  0  3  0  0  0  0  0  0
  181.2290  178.9860  142.4190 C   0  0  0  0  0  2  0  0  0  0  0  0
  180.8170  179.3270  140.0120 O   0  0  0  0  0  0  0  0  0  0  0  0
  181.3050  180.1010  138.9470 C   0  0  0  0  0  1  0  0  0  0  0  0
  1  8  1  0  0  0  0
  1  6  1  0  0  0  0
  2 12  1  0  0  0  0
  3 14  2  0  0  0  0
  3 10  1  0  0  0  0
  4 15  1  0  0  0  0
  4  8  2  0  0  0  0
  5  1  2  0  0  0  0
  7  4  1  0  0  0  0
  9  7  2  0  0  0  0
  9  5  1  0  0  0  0
 10 11  2  0  0  0  0
 11  2  1  0  0  0  0
 11  7  1  0  0  0  0
 12 15  2  0  0  0  0
 13 35  1  0  0  0  0
 13  2  2  0  0  0  0
 14 13  1  0  0  0  0
 16 17  1  1  0  0  0
 16  3  1  0  0  0  0
 18 16  1  0  0  0  0
 19 18  2  0  0  0  0
 20 19  1  0  0  0  0
 21 19  1  0  0  0  0
 22 21  1  0  0  0  0
 23 22  1  0  0  0  0
 24 25  1  0  0  0  0
 25 23  1  0  0  0  0
 26 27  1  0  0  0  0
 26 22  1  0  0  0  0
 27 28  2  0  0  0  0
 29 27  1  0  0  0  0
 29 34  1  0  0  0  0
 30 34  2  0  0  0  0
 31 33  1  0  0  0  0
 31 32  2  0  0  0  0
 32 30  1  0  0  0  0
 33 29  2  0  0  0  0
 36 37  1  0  0  0  0
 36 39  1  0  0  0  0
 37 42  1  6  0  0  0
 37 41  1  0  0  0  0
 39 40  1  0  0  0  0
 40 38  1  0  0  0  0
 40 35  1  1  0  0  0
 41 38  1  0  0  0  0
 43 42  1  0  0  0  0
M  END
>  <MODEL>
6

>  <REMARK>
 VINA RESULT:      -8.7      2.789      3.532
  Name = 
  12 active torsions:
  status: ('A' for Active; 'I' for Inactive)
    1  A    between atoms: C_1  and  C_34
    2  A    between atoms: C_1  and  C_35
    3  A    between atoms: C_2  and  C_6
    4  A    between atoms: C_2  and  C_13
    5  A    between atoms: C_3  and  N_4
    6  A    between atoms: C_3  and  C_12
    7  A    between atoms: N_4  and  C_15
    8  A    between atoms: N_4  and  C_22
    9  A    between atoms: C_11  and  C_14
   10  A    between atoms: C_14  and  C_22
   11  A    between atoms: C_15  and  C_42
   12  A    between atoms: C_19  and  O_25
                            x       y       z     vdW  Elec       q    Type
                         _______ _______ _______ _____ _____    ______ ____

>  <TORSDO>
F 12

$$$$
=
 OpenBabel11052416193D

 43 47  0  0  1  0  0  0  0  0999 V2000
  190.6720  176.7580  146.5860 C   0  0  0  0  0  0  0  0  0  0  0  0
  189.1570  177.8600  141.8770 C   0  0  0  0  0  0  0  0  0  0  0  0
  186.4400  178.5980  142.0470 C   0  0  0  0  0  0  0  0  0  0  0  0
  190.5780  177.1320  144.1950 C   0  0  0  0  0  0  0  0  0  0  0  0
  189.3290  177.1220  146.7000 C   0  0  0  0  0  3  0  0  0  0  0  0
  191.3890  176.3900  147.7170 O   0  0  0  0  0  1  0  0  0  0  0  0
  189.2150  177.5020  144.2980 C   0  0  0  0  0  0  0  0  0  0  0  0
  191.2960  176.7630  145.3370 C   0  0  0  0  0  3  0  0  0  0  0  0
  188.6030  177.4920  145.5650 C   0  0  0  0  0  3  0  0  0  0  0  0
  187.1510  178.2390  143.2030 C   0  0  0  0  0  3  0  0  0  0  0  0
  188.5030  177.8690  143.1360 C   0  0  0  0  0  0  0  0  0  0  0  0
  190.5090  177.4910  141.8040 C   0  0  0  0  0  3  0  0  0  0  0  0
  188.4440  178.2170  140.7140 C   0  0  0  0  0  0  0  0  0  0  0  0
  187.0960  178.5750  140.8100 C   0  0  0  0  0  3  0  0  0  0  0  0
  191.2130  177.1320  142.9540 C   0  0  0  0  0  3  0  0  0  0  0  0
  184.9840  178.9840  142.0910 C   0  0  2  0  0  3  0  0  0  0  0  0
  184.4670  178.7370  143.3640 O   0  0  0  0  0  1  0  0  0  0  0  0
  184.1510  178.2670  141.0680 C   0  0  0  0  0  3  0  0  0  0  0  0
  183.7880  178.8280  139.9160 C   0  0  0  0  0  0  0  0  0  0  0  0
  184.1900  180.1210  139.5940 O   0  0  0  0  0  1  0  0  0  0  0  0
  182.9280  178.0590  138.9530 C   0  0  0  0  0  2  0  0  0  0  0  0
  181.7960  178.8250  138.4120 N   0  0  0  0  0  0  0  0  0  0  0  0
  181.5550  178.4510  137.0210 C   0  0  0  0  0  2  0  0  0  0  0  0
  182.2040  176.4810  135.2240 S   0  0  0  0  0  1  0  0  0  0  0  0
  181.5880  176.9380  136.8720 C   0  0  0  0  0  2  0  0  0  0  0  0
  180.5840  178.5690  139.1830 C   0  0  0  0  0  2  0  0  0  0  0  0
  180.3420  179.6950  140.1350 C   0  0  0  0  0  0  0  0  0  0  0  0
  180.4300  180.8800  139.7110 O   0  0  0  0  0  0  0  0  0  0  0  0
  180.0230  179.4380  141.5540 C   0  0  0  0  0  0  0  0  0  0  0  0
  179.0240  180.1450  143.6160 N   0  0  0  0  0  0  0  0  0  0  0  0
  180.0770  178.0040  143.5100 C   0  0  0  0  0  3  0  0  0  0  0  0
  179.3840  178.9820  144.2240 C   0  0  0  0  0  3  0  0  0  0  0  0
  180.3950  178.2360  142.1700 C   0  0  0  0  0  3  0  0  0  0  0  0
  179.3260  180.3910  142.3110 C   0  0  0  0  0  3  0  0  0  0  0  0
  189.0970  178.2320  139.3630 C   0  0  0  0  0  2  0  0  0  0  0  0
  186.9980  177.2410  136.2610 C   0  0  0  0  0  2  0  0  0  0  0  0
  187.4620  175.7700  136.2390 C   0  0  2  0  0  3  0  0  0  0  0  0
  189.2970  176.1890  137.9470 C   0  0  0  0  0  2  0  0  0  0  0  0
  187.8620  178.1200  137.1720 C   0  0  0  0  0  2  0  0  0  0  0  0
  188.3650  177.3290  138.3800 C   0  0  2  0  0  3  0  0  0  0  0  0
  188.9490  175.5860  136.5770 C   0  0  0  0  0  2  0  0  0  0  0  0
  187.0600  175.0730  135.0800 O   0  0  0  0  0  0  0  0  0  0  0  0
  185.6770  174.8370  135.1500 C   0  0  0  0  0  1  0  0  0  0  0  0
  1  5  1  0  0  0  0
  1  6  1  0  0  0  0
  2 11  1  0  0  0  0
  3 16  1  0  0  0  0
  3 10  1  0  0  0  0
  4  7  2  0  0  0  0
  4  8  1  0  0  0  0
  7  9  1  0  0  0  0
  8  1  2  0  0  0  0
  9  5  2  0  0  0  0
 11 10  2  0  0  0  0
 11  7  1  0  0  0  0
 12  2  1  0  0  0  0
 12 15  2  0  0  0  0
 13 14  1  0  0  0  0
 13  2  2  0  0  0  0
 14  3  2  0  0  0  0
 15  4  1  0  0  0  0
 16 17  1  1  0  0  0
 18 16  1  0  0  0  0
 19 18  2  0  0  0  0
 20 19  1  0  0  0  0
 21 19  1  0  0  0  0
 22 21  1  0  0  0  0
 22 26  1  0  0  0  0
 23 22  1  0  0  0  0
 24 25  1  0  0  0  0
 25 23  1  0  0  0  0
 26 27  1  0  0  0  0
 27 29  1  0  0  0  0
 28 27  2  0  0  0  0
 29 33  2  0  0  0  0
 29 34  1  0  0  0  0
 30 32  1  0  0  0  0
 31 32  2  0  0  0  0
 33 31  1  0  0  0  0
 34 30  2  0  0  0  0
 35 13  1  0  0  0  0
 36 39  1  0  0  0  0
 37 42  1  6  0  0  0
 37 36  1  0  0  0  0
 37 41  1  0  0  0  0
 38 40  1  0  0  0  0
 39 40  1  0  0  0  0
 40 35  1  1  0  0  0
 41 38  1  0  0  0  0
 42 43  1  0  0  0  0
M  END
>  <MODEL>
7

>  <REMARK>
 VINA RESULT:      -8.6      2.908      7.009
  Name = 
  12 active torsions:
  status: ('A' for Active; 'I' for Inactive)
    1  A    between atoms: C_1  and  C_34
    2  A    between atoms: C_1  and  C_35
    3  A    between atoms: C_2  and  C_6
    4  A    between atoms: C_2  and  C_13
    5  A    between atoms: C_3  and  N_4
    6  A    between atoms: C_3  and  C_12
    7  A    between atoms: N_4  and  C_15
    8  A    between atoms: N_4  and  C_22
    9  A    between atoms: C_11  and  C_14
   10  A    between atoms: C_14  and  C_22
   11  A    between atoms: C_15  and  C_42
   12  A    between atoms: C_19  and  O_25
                            x       y       z     vdW  Elec       q    Type
                         _______ _______ _______ _____ _____    ______ ____

>  <TORSDO>
F 12

$$$$
=
 OpenBabel11052416193D

 43 47  0  0  1  0  0  0  0  0999 V2000
  191.1570  176.7300  146.8160 C   0  0  0  0  0  0  0  0  0  0  0  0
  187.3670  177.9270  143.6710 C   0  0  0  0  0  0  0  0  0  0  0  0
  188.4510  177.9640  141.0680 C   0  0  0  0  0  0  0  0  0  0  0  0
  189.0010  177.3140  145.8800 C   0  0  0  0  0  0  0  0  0  0  0  0
  191.7200  176.7380  145.5380 C   0  0  0  0  0  3  0  0  0  0  0  0
  191.9480  176.4360  147.9200 O   0  0  0  0  0  1  0  0  0  0  0  0
  189.5610  177.3280  144.5790 C   0  0  0  0  0  0  0  0  0  0  0  0
  189.8020  177.0170  146.9870 C   0  0  0  0  0  3  0  0  0  0  0  0
  190.9280  177.0350  144.4250 C   0  0  0  0  0  3  0  0  0  0  0  0
  189.2640  177.6550  142.1700 C   0  0  0  0  0  3  0  0  0  0  0  0
  188.7410  177.6320  143.4710 C   0  0  0  0  0  0  0  0  0  0  0  0
  186.8390  177.9060  144.9710 C   0  0  0  0  0  3  0  0  0  0  0  0
  186.5500  178.2420  142.5670 C   0  0  0  0  0  0  0  0  0  0  0  0
  187.1000  178.2630  141.2810 C   0  0  0  0  0  3  0  0  0  0  0  0
  187.6500  177.6000  146.0650 C   0  0  0  0  0  3  0  0  0  0  0  0
  188.9920  178.0110  139.6610 C   0  0  2  0  0  3  0  0  0  0  0  0
  189.0600  179.3360  139.2260 O   0  0  0  0  0  1  0  0  0  0  0  0
  188.1810  177.2070  138.6880 C   0  0  0  0  0  3  0  0  0  0  0  0
  188.3530  177.2880  137.3700 C   0  0  0  0  0  0  0  0  0  0  0  0
  189.3240  178.1240  136.8270 O   0  0  0  0  0  1  0  0  0  0  0  0
  187.4810  176.4740  136.4550 C   0  0  0  0  0  2  0  0  0  0  0  0
  187.8630  175.0570  136.3630 N   0  0  0  0  0  0  0  0  0  0  0  0
  186.9580  174.3500  135.4620 C   0  0  0  0  0  2  0  0  0  0  0  0
  185.6720  172.9980  137.4750 S   0  0  0  0  0  1  0  0  0  0  0  0
  186.6990  172.9430  135.9770 C   0  0  0  0  0  2  0  0  0  0  0  0
  189.2260  174.9210  135.8600 C   0  0  0  0  0  2  0  0  0  0  0  0
  190.0850  174.2670  136.8930 C   0  0  0  0  0  0  0  0  0  0  0  0
  189.5810  173.3690  137.6230 O   0  0  0  0  0  0  0  0  0  0  0  0
  191.4930  174.6680  137.0780 C   0  0  0  0  0  0  0  0  0  0  0  0
  193.8290  174.1280  137.0160 N   0  0  0  0  0  0  0  0  0  0  0  0
  193.1640  176.3400  137.6250 C   0  0  0  0  0  3  0  0  0  0  0  0
  194.1620  175.3920  137.3940 C   0  0  0  0  0  3  0  0  0  0  0  0
  191.8260  175.9730  137.4650 C   0  0  0  0  0  3  0  0  0  0  0  0
  192.5300  173.7510  136.8550 C   0  0  0  0  0  3  0  0  0  0  0  0
  185.0900  178.5490  142.7290 C   0  0  0  0  0  2  0  0  0  0  0  0
  182.0130  177.8920  140.4680 C   0  0  0  0  0  2  0  0  0  0  0  0
  182.7500  178.1660  139.1420 C   0  0  2  0  0  3  0  0  0  0  0  0
  184.7860  179.1250  140.3220 C   0  0  0  0  0  2  0  0  0  0  0  0
  182.8020  178.3670  141.6920 C   0  0  0  0  0  2  0  0  0  0  0  0
  184.3080  178.2200  141.4650 C   0  0  2  0  0  3  0  0  0  0  0  0
  183.7410  179.3370  139.2160 C   0  0  0  0  0  2  0  0  0  0  0  0
  181.8890  178.2300  138.0250 O   0  0  0  0  0  0  0  0  0  0  0  0
  182.6130  177.8840  136.8730 C   0  0  0  0  0  1  0  0  0  0  0  0
  1  8  1  0  0  0  0
  1  6  1  0  0  0  0
  2 12  1  0  0  0  0
  3 14  2  0  0  0  0
  3 10  1  0  0  0  0
  4 15  1  0  0  0  0
  4  8  2  0  0  0  0
  5  1  2  0  0  0  0
  7  4  1  0  0  0  0
  9  7  2  0  0  0  0
  9  5  1  0  0  0  0
 10 11  2  0  0  0  0
 11  2  1  0  0  0  0
 11  7  1  0  0  0  0
 12 15  2  0  0  0  0
 13 35  1  0  0  0  0
 13  2  2  0  0  0  0
 14 13  1  0  0  0  0
 16 17  1  6  0  0  0
 16  3  1  0  0  0  0
 18 16  1  0  0  0  0
 19 18  2  0  0  0  0
 20 19  1  0  0  0  0
 21 19  1  0  0  0  0
 22 21  1  0  0  0  0
 23 25  1  0  0  0  0
 23 22  1  0  0  0  0
 25 24  1  0  0  0  0
 26 22  1  0  0  0  0
 26 27  1  0  0  0  0
 27 29  1  0  0  0  0
 27 28  2  0  0  0  0
 29 33  1  0  0  0  0
 30 32  2  0  0  0  0
 32 31  1  0  0  0  0
 33 31  2  0  0  0  0
 34 30  1  0  0  0  0
 34 29  2  0  0  0  0
 36 39  1  0  0  0  0
 37 42  1  6  0  0  0
 37 41  1  0  0  0  0
 37 36  1  0  0  0  0
 38 40  1  0  0  0  0
 40 39  1  0  0  0  0
 40 35  1  1  0  0  0
 41 38  1  0  0  0  0
 43 42  1  0  0  0  0
M  END
>  <MODEL>
8

>  <REMARK>
 VINA RESULT:      -8.6      1.999      3.858
  Name = 
  12 active torsions:
  status: ('A' for Active; 'I' for Inactive)
    1  A    between atoms: C_1  and  C_34
    2  A    between atoms: C_1  and  C_35
    3  A    between atoms: C_2  and  C_6
    4  A    between atoms: C_2  and  C_13
    5  A    between atoms: C_3  and  N_4
    6  A    between atoms: C_3  and  C_12
    7  A    between atoms: N_4  and  C_15
    8  A    between atoms: N_4  and  C_22
    9  A    between atoms: C_11  and  C_14
   10  A    between atoms: C_14  and  C_22
   11  A    between atoms: C_15  and  C_42
   12  A    between atoms: C_19  and  O_25
                            x       y       z     vdW  Elec       q    Type
                         _______ _______ _______ _____ _____    ______ ____

>  <TORSDO>
F 12

$$$$
=
 OpenBabel11052416193D

 43 47  0  0  1  0  0  0  0  0999 V2000
  184.7920  178.7910  145.3510 C   0  0  0  0  0  0  0  0  0  0  0  0
  182.0220  178.6790  141.1080 C   0  0  0  0  0  0  0  0  0  0  0  0
  183.7720  177.9760  139.0120 C   0  0  0  0  0  0  0  0  0  0  0  0
  182.9830  178.9020  143.7450 C   0  0  0  0  0  0  0  0  0  0  0  0
  185.6810  178.4380  144.3330 C   0  0  0  0  0  3  0  0  0  0  0  0
  185.2480  178.9120  146.6580 O   0  0  0  0  0  1  0  0  0  0  0  0
  183.8750  178.5470  142.7030 C   0  0  0  0  0  0  0  0  0  0  0  0
  183.4470  179.0220  145.0580 C   0  0  0  0  0  3  0  0  0  0  0  0
  185.2270  178.3160  143.0170 C   0  0  0  0  0  3  0  0  0  0  0  0
  184.2490  178.0830  140.3280 C   0  0  0  0  0  3  0  0  0  0  0  0
  183.3930  178.4330  141.3820 C   0  0  0  0  0  0  0  0  0  0  0  0
  181.1600  179.0290  142.1600 C   0  0  0  0  0  3  0  0  0  0  0  0
  181.5410  178.5750  139.7870 C   0  0  0  0  0  0  0  0  0  0  0  0
  182.4200  178.2320  138.7550 C   0  0  0  0  0  3  0  0  0  0  0  0
  181.6380  179.1380  143.4660 C   0  0  0  0  0  3  0  0  0  0  0  0
  184.6750  177.6180  137.8590 C   0  0  2  0  0  3  0  0  0  0  0  0
  184.6290  176.2410  137.6320 O   0  0  0  0  0  1  0  0  0  0  0  0
  186.1000  178.0410  138.0700 C   0  0  0  0  0  3  0  0  0  0  0  0
  186.9500  178.2300  137.0620 C   0  0  0  0  0  0  0  0  0  0  0  0
  186.5420  178.0590  135.7420 O   0  0  0  0  0  1  0  0  0  0  0  0
  188.3710  178.6240  137.3530 C   0  0  0  0  0  2  0  0  0  0  0  0
  189.2960  177.4890  137.4840 N   0  0  0  0  0  0  0  0  0  0  0  0
  189.8260  177.1180  136.1740 C   0  0  0  0  0  2  0  0  0  0  0  0
  188.2080  174.9860  136.7840 S   0  0  0  0  0  1  0  0  0  0  0  0
  189.7030  175.6170  135.9660 C   0  0  0  0  0  2  0  0  0  0  0  0
  190.4110  177.8300  138.3600 C   0  0  0  0  0  2  0  0  0  0  0  0
  190.4960  176.8440  139.4800 C   0  0  0  0  0  0  0  0  0  0  0  0
  190.7290  175.6340  139.2080 O   0  0  0  0  0  0  0  0  0  0  0  0
  190.2940  177.2630  140.8810 C   0  0  0  0  0  0  0  0  0  0  0  0
  188.8180  177.7930  142.6950 N   0  0  0  0  0  0  0  0  0  0  0  0
  191.1770  177.8870  143.0530 C   0  0  0  0  0  3  0  0  0  0  0  0
  189.8720  178.0300  143.5230 C   0  0  0  0  0  3  0  0  0  0  0  0
  191.3860  177.5010  141.7270 C   0  0  0  0  0  3  0  0  0  0  0  0
  189.0000  177.4170  141.3990 C   0  0  0  0  0  3  0  0  0  0  0  0
  180.0980  178.8160  139.4530 C   0  0  0  0  0  2  0  0  0  0  0  0
  180.5320  182.4430  138.1600 C   0  0  0  0  0  2  0  0  0  0  0  0
  180.1610  182.1180  136.6990 C   0  0  2  0  0  3  0  0  0  0  0  0
  180.2640  179.6100  137.0940 C   0  0  0  0  0  2  0  0  0  0  0  0
  180.8110  181.1870  138.9920 C   0  0  0  0  0  2  0  0  0  0  0  0
  179.9330  180.0210  138.5360 C   0  0  2  0  0  3  0  0  0  0  0  0
  180.7190  180.7760  136.2030 C   0  0  0  0  0  2  0  0  0  0  0  0
  180.4010  183.1880  135.8100 O   0  0  0  0  0  0  0  0  0  0  0  0
  181.1760  184.1590  136.4660 C   0  0  0  0  0  1  0  0  0  0  0  0
  1  6  1  0  0  0  0
  2 11  1  0  0  0  0
  2 12  1  0  0  0  0
  3 10  1  0  0  0  0
  4  8  2  0  0  0  0
  5  1  2  0  0  0  0
  7  9  2  0  0  0  0
  7  4  1  0  0  0  0
  8  1  1  0  0  0  0
  9  5  1  0  0  0  0
 10 11  2  0  0  0  0
 11  7  1  0  0  0  0
 12 15  2  0  0  0  0
 13  2  2  0  0  0  0
 14  3  2  0  0  0  0
 14 13  1  0  0  0  0
 15  4  1  0  0  0  0
 16 17  1  1  0  0  0
 16 18  1  0  0  0  0
 16  3  1  0  0  0  0
 19 21  1  0  0  0  0
 19 18  2  0  0  0  0
 20 19  1  0  0  0  0
 21 22  1  0  0  0  0
 22 26  1  0  0  0  0
 23 22  1  0  0  0  0
 25 23  1  0  0  0  0
 25 24  1  0  0  0  0
 26 27  1  0  0  0  0
 27 29  1  0  0  0  0
 28 27  2  0  0  0  0
 29 34  2  0  0  0  0
 29 33  1  0  0  0  0
 30 32  2  0  0  0  0
 31 32  1  0  0  0  0
 33 31  2  0  0  0  0
 34 30  1  0  0  0  0
 35 13  1  0  0  0  0
 36 39  1  0  0  0  0
 37 42  1  6  0  0  0
 37 36  1  0  0  0  0
 38 40  1  0  0  0  0
 40 39  1  0  0  0  0
 40 35  1  1  0  0  0
 41 37  1  0  0  0  0
 41 38  1  0  0  0  0
 42 43  1  0  0  0  0
M  END
>  <MODEL>
9

>  <REMARK>
 VINA RESULT:      -8.5      2.896      5.756
  Name = 
  12 active torsions:
  status: ('A' for Active; 'I' for Inactive)
    1  A    between atoms: C_1  and  C_34
    2  A    between atoms: C_1  and  C_35
    3  A    between atoms: C_2  and  C_6
    4  A    between atoms: C_2  and  C_13
    5  A    between atoms: C_3  and  N_4
    6  A    between atoms: C_3  and  C_12
    7  A    between atoms: N_4  and  C_15
    8  A    between atoms: N_4  and  C_22
    9  A    between atoms: C_11  and  C_14
   10  A    between atoms: C_14  and  C_22
   11  A    between atoms: C_15  and  C_42
   12  A    between atoms: C_19  and  O_25
                            x       y       z     vdW  Elec       q    Type
                         _______ _______ _______ _____ _____    ______ ____

>  <TORSDO>
F 12

$$$$
