=
 OpenBabel11052414253D

 34 38  0  0  1  0  0  0  0  0999 V2000
  189.6670  177.2160  146.5710 C   0  0  0  0  0  0  0  0  0  0  0  0
  191.2280  176.2280  144.9900 C   0  0  0  0  0  0  0  0  0  0  0  0
  189.1260  177.3190  144.1860 C   0  0  0  0  0  0  0  0  0  0  0  0
  188.4950  177.4330  141.7810 C   0  0  0  0  0  0  0  0  0  0  0  0
  190.5460  176.9250  147.6150 C   0  0  0  0  0  3  0  0  0  0  0  0
  192.0920  175.9350  146.0500 C   0  0  0  0  0  3  0  0  0  0  0  0
  190.8270  177.9260  142.4360 C   0  0  0  0  0  2  0  0  0  0  0  0
  190.0220  176.9310  145.2250 C   0  0  0  0  0  0  0  0  0  0  0  0
  191.2610  177.4500  141.0540 C   0  0  0  0  0  2  0  0  0  0  0  0
  188.8530  177.1960  140.3480 C   0  0  0  0  0  2  0  0  0  0  0  0
  191.7640  176.3000  147.3540 C   0  0  0  0  0  3  0  0  0  0  0  0
  187.8220  177.7510  144.5200 C   0  0  0  0  0  0  0  0  0  0  0  0
  188.4210  177.7590  146.8730 C   0  0  0  0  0  3  0  0  0  0  0  0
  191.5360  175.7160  143.7740 F   0  0  0  0  0  0  0  0  0  0  0  0
  187.2360  177.7190  142.1020 C   0  0  0  0  0  3  0  0  0  0  0  0
  186.8510  177.9600  143.4650 N   0  0  0  0  0  0  0  0  0  0  0  0
  190.2030  177.8340  140.0230 C   0  0  2  0  0  3  0  0  0  0  0  0
  189.5170  177.3730  142.7950 N   0  0  0  0  0  0  0  0  0  0  0  0
  187.5000  178.0020  145.8610 C   0  0  0  0  0  3  0  0  0  0  0  0
  183.2170  178.6860  142.8990 C   0  0  0  0  0  0  0  0  0  0  0  0
  182.7870  178.9740  144.1970 C   0  0  0  0  0  3  0  0  0  0  0  0
  185.4790  178.3280  143.7170 C   0  0  0  0  0  0  0  0  0  0  0  0
  183.6950  178.9330  145.2570 C   0  0  0  0  0  3  0  0  0  0  0  0
  184.5550  178.3600  142.6610 C   0  0  0  0  0  3  0  0  0  0  0  0
  185.0330  178.6070  145.0190 C   0  0  0  0  0  3  0  0  0  0  0  0
  182.0790  178.7300  141.5710 Cl  0  0  0  0  0  0  0  0  0  0  0  0
  190.6530  177.4920  138.6050 C   0  0  0  0  0  2  0  0  0  0  0  0
  189.4900  177.0700  137.7150 C   0  0  0  0  0  2  0  0  0  0  0  0
  189.1360  179.4380  137.5430 O   0  0  0  0  0  1  0  0  0  0  0  0
  189.0430  178.2330  136.8430 C   0  0  2  0  0  3  0  0  0  0  0  0
  187.6970  178.0180  136.2830 N   0  0  0  0  0  2  0  0  0  0  0  0
  185.8710  178.1740  137.9980 C   0  0  0  0  0  1  0  0  0  0  0  0
  186.7520  177.2790  137.1380 C   0  0  0  0  0  3  0  0  0  0  0  0
  185.9380  176.2670  136.3540 C   0  0  0  0  0  1  0  0  0  0  0  0
  1 13  1  0  0  0  0
  1  5  2  0  0  0  0
  2  8  2  0  0  0  0
  2  6  1  0  0  0  0
  3 12  2  0  0  0  0
  3  8  1  0  0  0  0
  4 15  2  0  0  0  0
  4 18  1  0  0  0  0
  6 11  2  0  0  0  0
  7 18  1  0  0  0  0
  8  1  1  0  0  0  0
  9  7  1  0  0  0  0
 10  4  1  0  0  0  0
 11  5  1  0  0  0  0
 12 19  1  0  0  0  0
 14  2  1  0  0  0  0
 15 16  1  0  0  0  0
 16 22  1  0  0  0  0
 16 12  1  0  0  0  0
 17 27  1  6  0  0  0
 17 10  1  0  0  0  0
 17  9  1  0  0  0  0
 18  3  1  0  0  0  0
 19 13  2  0  0  0  0
 20 21  1  0  0  0  0
 21 23  2  0  0  0  0
 22 25  2  0  0  0  0
 24 20  2  0  0  0  0
 24 22  1  0  0  0  0
 25 23  1  0  0  0  0
 26 20  1  0  0  0  0
 28 27  1  0  0  0  0
 30 29  1  1  0  0  0
 30 28  1  0  0  0  0
 31 30  1  0  0  0  0
 31 33  1  0  0  0  0
 33 32  1  0  0  0  0
 34 33  1  0  0  0  0
M  END
>  <MODEL>
1

>  <REMARK>
 VINA RESULT:     -10.4      0.000      0.000
  Name = 
  6 active torsions:
  status: ('A' for Active; 'I' for Inactive)
    1  A    between atoms: C_3  and  C_13
    2  A    between atoms: C_3  and  C_29
    3  A    between atoms: C_12  and  N_28
    4  A    between atoms: C_13  and  C_33
    5  A    between atoms: C_20  and  N_22
    6  A    between atoms: N_22  and  C_33
                            x       y       z     vdW  Elec       q    Type
                         _______ _______ _______ _____ _____    ______ ____

>  <TORSDO>
F 6

$$$$
=
 OpenBabel11052414253D

 34 38  0  0  1  0  0  0  0  0999 V2000
  189.6460  177.2890  146.6630 C   0  0  0  0  0  0  0  0  0  0  0  0
  191.2710  176.2330  145.1940 C   0  0  0  0  0  0  0  0  0  0  0  0
  189.2110  177.2950  144.2540 C   0  0  0  0  0  0  0  0  0  0  0  0
  188.6860  177.3120  141.8210 C   0  0  0  0  0  0  0  0  0  0  0  0
  190.4770  177.0380  147.7550 C   0  0  0  0  0  3  0  0  0  0  0  0
  192.0860  175.9820  146.3020 C   0  0  0  0  0  3  0  0  0  0  0  0
  190.9900  177.8260  142.5570 C   0  0  0  0  0  2  0  0  0  0  0  0
  190.0590  176.9480  145.3460 C   0  0  0  0  0  0  0  0  0  0  0  0
  191.4820  177.2920  141.2150 C   0  0  0  0  0  2  0  0  0  0  0  0
  189.1050  177.0150  140.4160 C   0  0  0  0  0  2  0  0  0  0  0  0
  191.7030  176.4010  147.5740 C   0  0  0  0  0  3  0  0  0  0  0  0
  187.8960  177.7430  144.5120 C   0  0  0  0  0  0  0  0  0  0  0  0
  188.3910  177.8470  146.8870 C   0  0  0  0  0  3  0  0  0  0  0  0
  191.6300  175.6710  144.0140 F   0  0  0  0  0  0  0  0  0  0  0  0
  187.4160  177.6140  142.0740 C   0  0  0  0  0  3  0  0  0  0  0  0
  186.9730  177.9120  143.4080 N   0  0  0  0  0  0  0  0  0  0  0  0
  190.4710  177.6370  140.1240 C   0  0  2  0  0  3  0  0  0  0  0  0
  189.6620  177.2920  142.8800 N   0  0  0  0  0  0  0  0  0  0  0  0
  187.5160  178.0510  145.8260 C   0  0  0  0  0  3  0  0  0  0  0  0
  183.3730  178.6370  142.6500 C   0  0  0  0  0  0  0  0  0  0  0  0
  182.8840  178.9650  143.9170 C   0  0  0  0  0  3  0  0  0  0  0  0
  185.5930  178.2930  143.5840 C   0  0  0  0  0  0  0  0  0  0  0  0
  183.7420  178.9520  145.0200 C   0  0  0  0  0  3  0  0  0  0  0  0
  184.7190  178.2980  142.4850 C   0  0  0  0  0  3  0  0  0  0  0  0
  185.0880  178.6130  144.8550 C   0  0  0  0  0  3  0  0  0  0  0  0
  182.2990  178.6460  141.2690 Cl  0  0  0  0  0  0  0  0  0  0  0  0
  190.9820  177.2350  138.7430 C   0  0  0  0  0  2  0  0  0  0  0  0
  189.8500  177.0480  137.7390 C   0  0  0  0  0  2  0  0  0  0  0  0
  188.5650  175.1000  137.1770 O   0  0  0  0  0  1  0  0  0  0  0  0
  189.8580  175.6300  137.1920 C   0  0  2  0  0  3  0  0  0  0  0  0
  190.8060  174.7630  137.9160 N   0  0  0  0  0  2  0  0  0  0  0  0
  191.6400  174.2960  135.5950 C   0  0  0  0  0  1  0  0  0  0  0  0
  191.8240  174.0900  137.0920 C   0  0  0  0  0  3  0  0  0  0  0  0
  193.2360  174.4200  137.5400 C   0  0  0  0  0  1  0  0  0  0  0  0
  1 13  1  0  0  0  0
  1  5  2  0  0  0  0
  2  8  2  0  0  0  0
  2  6  1  0  0  0  0
  3 12  2  0  0  0  0
  3  8  1  0  0  0  0
  4 15  2  0  0  0  0
  4 18  1  0  0  0  0
  6 11  2  0  0  0  0
  7 18  1  0  0  0  0
  8  1  1  0  0  0  0
  9  7  1  0  0  0  0
 10  4  1  0  0  0  0
 11  5  1  0  0  0  0
 12 19  1  0  0  0  0
 14  2  1  0  0  0  0
 15 16  1  0  0  0  0
 16 22  1  0  0  0  0
 16 12  1  0  0  0  0
 17 27  1  6  0  0  0
 17 10  1  0  0  0  0
 17  9  1  0  0  0  0
 18  3  1  0  0  0  0
 19 13  2  0  0  0  0
 20 21  1  0  0  0  0
 21 23  2  0  0  0  0
 22 25  2  0  0  0  0
 24 20  2  0  0  0  0
 24 22  1  0  0  0  0
 25 23  1  0  0  0  0
 26 20  1  0  0  0  0
 28 27  1  0  0  0  0
 30 29  1  1  0  0  0
 30 28  1  0  0  0  0
 30 31  1  0  0  0  0
 32 33  1  0  0  0  0
 33 34  1  0  0  0  0
 33 31  1  0  0  0  0
M  END
>  <MODEL>
2

>  <REMARK>
 VINA RESULT:     -10.3      1.673      2.423
  Name = 
  6 active torsions:
  status: ('A' for Active; 'I' for Inactive)
    1  A    between atoms: C_3  and  C_13
    2  A    between atoms: C_3  and  C_29
    3  A    between atoms: C_12  and  N_28
    4  A    between atoms: C_13  and  C_33
    5  A    between atoms: C_20  and  N_22
    6  A    between atoms: N_22  and  C_33
                            x       y       z     vdW  Elec       q    Type
                         _______ _______ _______ _____ _____    ______ ____

>  <TORSDO>
F 6

$$$$
=
 OpenBabel11052414253D

 34 38  0  0  1  0  0  0  0  0999 V2000
  190.6980  176.5830  143.5540 C   0  0  0  0  0  0  0  0  0  0  0  0
  189.4010  177.6590  145.3070 C   0  0  0  0  0  0  0  0  0  0  0  0
  188.5650  177.6200  142.9500 C   0  0  0  0  0  0  0  0  0  0  0  0
  186.4220  178.6800  142.2560 C   0  0  0  0  0  0  0  0  0  0  0  0
  191.6300  176.1660  144.5050 C   0  0  0  0  0  3  0  0  0  0  0  0
  190.3500  177.2410  146.2440 C   0  0  0  0  0  3  0  0  0  0  0  0
  186.4830  177.3390  144.3330 C   0  0  0  0  0  2  0  0  0  0  0  0
  189.5270  177.2840  143.9470 C   0  0  0  0  0  0  0  0  0  0  0  0
  185.3390  178.2000  144.8600 C   0  0  0  0  0  2  0  0  0  0  0  0
  185.1530  179.3750  142.6350 C   0  0  0  0  0  2  0  0  0  0  0  0
  191.4490  176.4800  145.8510 C   0  0  0  0  0  3  0  0  0  0  0  0
  188.8990  177.4680  141.5850 C   0  0  0  0  0  0  0  0  0  0  0  0
  190.9520  176.3310  142.2090 C   0  0  0  0  0  3  0  0  0  0  0  0
  188.4410  178.5170  145.7300 F   0  0  0  0  0  0  0  0  0  0  0  0
  186.7940  178.6470  140.9790 C   0  0  0  0  0  3  0  0  0  0  0  0
  188.0020  177.9860  140.5720 N   0  0  0  0  0  0  0  0  0  0  0  0
  184.4100  178.5800  143.7090 C   0  0  2  0  0  3  0  0  0  0  0  0
  187.2170  178.0350  143.2700 N   0  0  0  0  0  0  0  0  0  0  0  0
  190.0740  176.7890  141.2340 C   0  0  0  0  0  3  0  0  0  0  0  0
  188.0990  176.8260  137.0080 C   0  0  0  0  0  0  0  0  0  0  0  0
  188.7980  177.8690  136.3960 C   0  0  0  0  0  3  0  0  0  0  0  0
  188.2960  177.9420  139.1600 C   0  0  0  0  0  0  0  0  0  0  0  0
  189.2420  178.9520  137.1590 C   0  0  0  0  0  3  0  0  0  0  0  0
  187.8450  176.8640  138.3820 C   0  0  0  0  0  3  0  0  0  0  0  0
  188.9880  178.9900  138.5330 C   0  0  0  0  0  3  0  0  0  0  0  0
  187.5370  175.4720  136.0530 Cl  0  0  0  0  0  0  0  0  0  0  0  0
  183.1820  179.3350  144.2090 C   0  0  0  0  0  2  0  0  0  0  0  0
  181.8790  178.6920  143.7460 C   0  0  0  0  0  2  0  0  0  0  0  0
  180.4500  180.2470  142.6050 O   0  0  0  0  0  1  0  0  0  0  0  0
  181.4420  179.2820  142.4150 C   0  0  2  0  0  3  0  0  0  0  0  0
  181.0280  178.2400  141.4580 N   0  0  0  0  0  2  0  0  0  0  0  0
  182.0680  179.5440  139.5830 C   0  0  0  0  0  1  0  0  0  0  0  0
  181.7880  178.1810  140.1980 C   0  0  0  0  0  3  0  0  0  0  0  0
  183.0510  177.3480  140.3280 C   0  0  0  0  0  1  0  0  0  0  0  0
  1  8  1  0  0  0  0
  1  5  2  0  0  0  0
  2 14  1  0  0  0  0
  2  6  1  0  0  0  0
  3 18  1  0  0  0  0
  3  8  1  0  0  0  0
  4 10  1  0  0  0  0
  4 18  1  0  0  0  0
  5 11  1  0  0  0  0
  7  9  1  0  0  0  0
  8  2  2  0  0  0  0
 10 17  1  0  0  0  0
 11  6  2  0  0  0  0
 12  3  2  0  0  0  0
 13  1  1  0  0  0  0
 15  4  2  0  0  0  0
 16 15  1  0  0  0  0
 16 12  1  0  0  0  0
 17 27  1  1  0  0  0
 17  9  1  0  0  0  0
 18  7  1  0  0  0  0
 19 12  1  0  0  0  0
 19 13  2  0  0  0  0
 20 24  1  0  0  0  0
 21 20  2  0  0  0  0
 21 23  1  0  0  0  0
 22 16  1  0  0  0  0
 23 25  2  0  0  0  0
 24 22  2  0  0  0  0
 25 22  1  0  0  0  0
 26 20  1  0  0  0  0
 28 27  1  0  0  0  0
 30 29  1  1  0  0  0
 30 28  1  0  0  0  0
 31 30  1  0  0  0  0
 32 33  1  0  0  0  0
 33 34  1  0  0  0  0
 33 31  1  0  0  0  0
M  END
>  <MODEL>
3

>  <REMARK>
 VINA RESULT:     -10.2      3.009      6.118
  Name = 
  6 active torsions:
  status: ('A' for Active; 'I' for Inactive)
    1  A    between atoms: C_3  and  C_13
    2  A    between atoms: C_3  and  C_29
    3  A    between atoms: C_12  and  N_28
    4  A    between atoms: C_13  and  C_33
    5  A    between atoms: C_20  and  N_22
    6  A    between atoms: N_22  and  C_33
                            x       y       z     vdW  Elec       q    Type
                         _______ _______ _______ _____ _____    ______ ____

>  <TORSDO>
F 6

$$$$
=
 OpenBabel11052414253D

 34 38  0  0  1  0  0  0  0  0999 V2000
  189.9540  177.1200  146.6940 C   0  0  0  0  0  0  0  0  0  0  0  0
  191.4860  176.0360  145.1470 C   0  0  0  0  0  0  0  0  0  0  0  0
  189.4160  177.1630  144.3060 C   0  0  0  0  0  0  0  0  0  0  0  0
  188.7890  177.2180  141.8980 C   0  0  0  0  0  0  0  0  0  0  0  0
  190.8240  176.8370  147.7470 C   0  0  0  0  0  3  0  0  0  0  0  0
  192.3400  175.7530  146.2160 C   0  0  0  0  0  3  0  0  0  0  0  0
  191.1350  177.6630  142.5390 C   0  0  0  0  0  2  0  0  0  0  0  0
  190.3000  176.7820  145.3580 C   0  0  0  0  0  0  0  0  0  0  0  0
  191.5540  177.1290  141.1730 C   0  0  0  0  0  2  0  0  0  0  0  0
  189.1390  176.9240  140.4740 C   0  0  0  0  0  2  0  0  0  0  0  0
  192.0230  176.1690  147.5070 C   0  0  0  0  0  3  0  0  0  0  0  0
  188.1260  177.6430  144.6250 C   0  0  0  0  0  0  0  0  0  0  0  0
  188.7250  177.7090  146.9770 C   0  0  0  0  0  3  0  0  0  0  0  0
  191.7780  175.4770  143.9470 F   0  0  0  0  0  0  0  0  0  0  0  0
  187.5390  177.5510  142.2090 C   0  0  0  0  0  3  0  0  0  0  0  0
  187.1610  177.8460  143.5620 N   0  0  0  0  0  0  0  0  0  0  0  0
  190.5070  177.5120  140.1290 C   0  0  2  0  0  3  0  0  0  0  0  0
  189.8080  177.1610  142.9140 N   0  0  0  0  0  0  0  0  0  0  0  0
  187.8120  177.9470  145.9560 C   0  0  0  0  0  3  0  0  0  0  0  0
  183.5420  178.6300  142.9780 C   0  0  0  0  0  0  0  0  0  0  0  0
  183.1290  179.0020  144.2600 C   0  0  0  0  0  3  0  0  0  0  0  0
  185.8010  178.2630  143.8010 C   0  0  0  0  0  0  0  0  0  0  0  0
  184.0440  179.0000  145.3150 C   0  0  0  0  0  3  0  0  0  0  0  0
  184.8690  178.2580  142.7510 C   0  0  0  0  0  3  0  0  0  0  0  0
  185.3720  178.6270  145.0880 C   0  0  0  0  0  3  0  0  0  0  0  0
  182.3950  178.6260  141.6570 Cl  0  0  0  0  0  0  0  0  0  0  0  0
  190.9470  177.1100  138.7240 C   0  0  0  0  0  2  0  0  0  0  0  0
  192.1590  176.1860  138.7390 C   0  0  0  0  0  2  0  0  0  0  0  0
  192.3050  176.0460  136.3460 O   0  0  0  0  0  1  0  0  0  0  0  0
  193.0090  176.4090  137.4970 C   0  0  2  0  0  3  0  0  0  0  0  0
  194.3120  175.7250  137.5910 N   0  0  0  0  0  2  0  0  0  0  0  0
  195.7640  175.3150  135.5840 C   0  0  0  0  0  1  0  0  0  0  0  0
  194.6430  174.8120  136.4830 C   0  0  0  0  0  3  0  0  0  0  0  0
  194.8940  173.3940  136.9620 C   0  0  0  0  0  1  0  0  0  0  0  0
  1 13  1  0  0  0  0
  1  5  2  0  0  0  0
  2  8  2  0  0  0  0
  2  6  1  0  0  0  0
  3 12  2  0  0  0  0
  3  8  1  0  0  0  0
  4 15  2  0  0  0  0
  4 18  1  0  0  0  0
  6 11  2  0  0  0  0
  7 18  1  0  0  0  0
  8  1  1  0  0  0  0
  9  7  1  0  0  0  0
 10  4  1  0  0  0  0
 11  5  1  0  0  0  0
 12 19  1  0  0  0  0
 14  2  1  0  0  0  0
 15 16  1  0  0  0  0
 16 22  1  0  0  0  0
 16 12  1  0  0  0  0
 17 27  1  6  0  0  0
 17 10  1  0  0  0  0
 17  9  1  0  0  0  0
 18  3  1  0  0  0  0
 19 13  2  0  0  0  0
 20 21  1  0  0  0  0
 21 23  2  0  0  0  0
 22 25  2  0  0  0  0
 24 20  2  0  0  0  0
 24 22  1  0  0  0  0
 25 23  1  0  0  0  0
 26 20  1  0  0  0  0
 27 28  1  0  0  0  0
 30 29  1  6  0  0  0
 30 31  1  0  0  0  0
 30 28  1  0  0  0  0
 32 33  1  0  0  0  0
 33 34  1  0  0  0  0
 33 31  1  0  0  0  0
M  END
>  <MODEL>
4

>  <REMARK>
 VINA RESULT:      -9.8      2.391      3.322
  Name = 
  6 active torsions:
  status: ('A' for Active; 'I' for Inactive)
    1  A    between atoms: C_3  and  C_13
    2  A    between atoms: C_3  and  C_29
    3  A    between atoms: C_12  and  N_28
    4  A    between atoms: C_13  and  C_33
    5  A    between atoms: C_20  and  N_22
    6  A    between atoms: N_22  and  C_33
                            x       y       z     vdW  Elec       q    Type
                         _______ _______ _______ _____ _____    ______ ____

>  <TORSDO>
F 6

$$$$
=
 OpenBabel11052414253D

 34 38  0  0  1  0  0  0  0  0999 V2000
  187.1080  178.3150  147.1790 C   0  0  0  0  0  0  0  0  0  0  0  0
  189.1660  177.2720  146.4110 C   0  0  0  0  0  0  0  0  0  0  0  0
  187.4200  177.9940  144.7730 C   0  0  0  0  0  0  0  0  0  0  0  0
  187.6530  177.6710  142.3160 C   0  0  0  0  0  0  0  0  0  0  0  0
  187.5850  178.2830  148.4900 C   0  0  0  0  0  3  0  0  0  0  0  0
  189.6240  177.2390  147.7320 C   0  0  0  0  0  3  0  0  0  0  0  0
  189.5880  178.5080  143.6070 C   0  0  0  0  0  2  0  0  0  0  0  0
  187.9190  177.8680  146.1020 C   0  0  0  0  0  0  0  0  0  0  0  0
  190.4960  177.8750  142.5560 C   0  0  0  0  0  2  0  0  0  0  0  0
  188.4950  177.2580  141.1500 C   0  0  0  0  0  2  0  0  0  0  0  0
  188.8480  177.7610  148.7650 C   0  0  0  0  0  3  0  0  0  0  0  0
  186.0610  178.3270  144.5720 C   0  0  0  0  0  0  0  0  0  0  0  0
  185.8100  178.7590  146.9480 C   0  0  0  0  0  3  0  0  0  0  0  0
  189.9010  176.6170  145.4790 F   0  0  0  0  0  0  0  0  0  0  0  0
  186.3480  177.8640  142.1440 C   0  0  0  0  0  3  0  0  0  0  0  0
  185.5050  178.2670  143.2350 N   0  0  0  0  0  0  0  0  0  0  0  0
  189.8410  177.9810  141.1810 C   0  0  2  0  0  3  0  0  0  0  0  0
  188.2630  177.8770  143.6040 N   0  0  0  0  0  0  0  0  0  0  0  0
  185.2840  178.7440  145.6610 C   0  0  0  0  0  3  0  0  0  0  0  0
  182.2920  178.6480  141.3410 C   0  0  0  0  0  0  0  0  0  0  0  0
  181.3950  178.9350  142.3730 C   0  0  0  0  0  3  0  0  0  0  0  0
  184.1140  178.5180  142.9470 C   0  0  0  0  0  0  0  0  0  0  0  0
  181.8500  179.0080  143.6910 C   0  0  0  0  0  3  0  0  0  0  0  0
  183.6430  178.4350  141.6270 C   0  0  0  0  0  3  0  0  0  0  0  0
  183.2010  178.7960  143.9780 C   0  0  0  0  0  3  0  0  0  0  0  0
  181.7220  178.5480  139.6890 Cl  0  0  0  0  0  0  0  0  0  0  0  0
  190.7690  177.4780  140.0800 C   0  0  0  0  0  2  0  0  0  0  0  0
  190.0970  176.4440  139.1840 C   0  0  0  0  0  2  0  0  0  0  0  0
  189.8020  178.4820  137.9500 O   0  0  0  0  0  1  0  0  0  0  0  0
  189.5390  177.1100  137.9360 C   0  0  2  0  0  3  0  0  0  0  0  0
  188.1050  176.8210  137.7500 N   0  0  0  0  0  2  0  0  0  0  0  0
  187.0760  177.8670  135.7130 C   0  0  0  0  0  1  0  0  0  0  0  0
  187.2870  177.9250  137.2200 C   0  0  0  0  0  3  0  0  0  0  0  0
  185.9760  178.0800  137.9700 C   0  0  0  0  0  1  0  0  0  0  0  0
  1  5  2  0  0  0  0
  2  6  1  0  0  0  0
  3  8  1  0  0  0  0
  4 18  1  0  0  0  0
  5 11  1  0  0  0  0
  6 11  2  0  0  0  0
  8  2  2  0  0  0  0
  8  1  1  0  0  0  0
  9  7  1  0  0  0  0
 10 17  1  0  0  0  0
 10  4  1  0  0  0  0
 12  3  2  0  0  0  0
 12 19  1  0  0  0  0
 13  1  1  0  0  0  0
 14  2  1  0  0  0  0
 15  4  2  0  0  0  0
 15 16  1  0  0  0  0
 16 12  1  0  0  0  0
 17 27  1  6  0  0  0
 17  9  1  0  0  0  0
 18  7  1  0  0  0  0
 18  3  1  0  0  0  0
 19 13  2  0  0  0  0
 20 24  2  0  0  0  0
 20 21  1  0  0  0  0
 21 23  2  0  0  0  0
 22 16  1  0  0  0  0
 22 25  2  0  0  0  0
 23 25  1  0  0  0  0
 24 22  1  0  0  0  0
 26 20  1  0  0  0  0
 28 27  1  0  0  0  0
 30 29  1  1  0  0  0
 30 28  1  0  0  0  0
 31 30  1  0  0  0  0
 32 33  1  0  0  0  0
 33 31  1  0  0  0  0
 33 34  1  0  0  0  0
M  END
>  <MODEL>
5

>  <REMARK>
 VINA RESULT:      -9.6      1.410      2.110
  Name = 
  6 active torsions:
  status: ('A' for Active; 'I' for Inactive)
    1  A    between atoms: C_3  and  C_13
    2  A    between atoms: C_3  and  C_29
    3  A    between atoms: C_12  and  N_28
    4  A    between atoms: C_13  and  C_33
    5  A    between atoms: C_20  and  N_22
    6  A    between atoms: N_22  and  C_33
                            x       y       z     vdW  Elec       q    Type
                         _______ _______ _______ _____ _____    ______ ____

>  <TORSDO>
F 6

$$$$
=
 OpenBabel11052414253D

 34 38  0  0  1  0  0  0  0  0999 V2000
  186.6960  178.2570  137.9480 C   0  0  0  0  0  0  0  0  0  0  0  0
  189.0950  178.3130  138.3430 C   0  0  0  0  0  0  0  0  0  0  0  0
  187.4980  178.0840  140.2550 C   0  0  0  0  0  0  0  0  0  0  0  0
  188.2380  177.9350  142.6260 C   0  0  0  0  0  0  0  0  0  0  0  0
  186.9250  178.2940  136.5720 C   0  0  0  0  0  3  0  0  0  0  0  0
  189.3050  178.3590  136.9610 C   0  0  0  0  0  3  0  0  0  0  0  0
  189.4350  176.6190  140.9080 C   0  0  0  0  0  2  0  0  0  0  0  0
  187.7820  178.2000  138.8620 C   0  0  0  0  0  0  0  0  0  0  0  0
  190.6780  176.6970  141.7890 C   0  0  0  0  0  2  0  0  0  0  0  0
  189.3530  177.8220  143.6170 C   0  0  0  0  0  2  0  0  0  0  0  0
  188.2280  178.3280  136.0780 C   0  0  0  0  0  3  0  0  0  0  0  0
  186.1730  178.2690  140.7090 C   0  0  0  0  0  0  0  0  0  0  0  0
  185.3850  178.3140  138.4120 C   0  0  0  0  0  3  0  0  0  0  0  0
  190.1720  178.4960  139.1450 F   0  0  0  0  0  0  0  0  0  0  0  0
  187.0130  178.2310  143.0500 C   0  0  0  0  0  3  0  0  0  0  0  0
  185.9140  178.3430  142.1330 N   0  0  0  0  0  0  0  0  0  0  0  0
  190.2690  176.6520  143.2600 C   0  0  2  0  0  3  0  0  0  0  0  0
  188.4950  177.6990  141.2280 N   0  0  0  0  0  0  0  0  0  0  0  0
  185.1270  178.3420  139.7780 C   0  0  0  0  0  3  0  0  0  0  0  0
  182.2070  178.8490  142.3730 C   0  0  0  0  0  0  0  0  0  0  0  0
  182.0420  179.0380  143.7470 C   0  0  0  0  0  3  0  0  0  0  0  0
  184.6060  178.6030  142.6850 C   0  0  0  0  0  0  0  0  0  0  0  0
  183.1520  179.0040  144.5940 C   0  0  0  0  0  3  0  0  0  0  0  0
  183.4820  178.6280  141.8450 C   0  0  0  0  0  3  0  0  0  0  0  0
  184.4270  178.7820  144.0660 C   0  0  0  0  0  3  0  0  0  0  0  0
  180.8160  178.8860  141.3120 Cl  0  0  0  0  0  0  0  0  0  0  0  0
  191.4880  176.5990  144.1770 C   0  0  0  0  0  2  0  0  0  0  0  0
  191.3710  177.5630  145.3510 C   0  0  0  0  0  2  0  0  0  0  0  0
  192.0550  175.6260  146.5920 O   0  0  0  0  0  1  0  0  0  0  0  0
  191.2930  176.7940  146.6610 C   0  0  2  0  0  3  0  0  0  0  0  0
  189.9000  176.5270  147.0620 N   0  0  0  0  0  2  0  0  0  0  0  0
  187.6150  177.5040  146.7070 C   0  0  0  0  0  1  0  0  0  0  0  0
  189.0340  177.7090  147.2170 C   0  0  0  0  0  3  0  0  0  0  0  0
  189.0540  178.2530  148.6340 C   0  0  0  0  0  1  0  0  0  0  0  0
  1 13  2  0  0  0  0
  1  8  1  0  0  0  0
  2  8  1  0  0  0  0
  2 14  1  0  0  0  0
  3 12  1  0  0  0  0
  3 18  1  0  0  0  0
  4 15  2  0  0  0  0
  4 10  1  0  0  0  0
  5  1  1  0  0  0  0
  6  2  2  0  0  0  0
  7 18  1  0  0  0  0
  7  9  1  0  0  0  0
  8  3  2  0  0  0  0
  9 17  1  0  0  0  0
 11  5  2  0  0  0  0
 11  6  1  0  0  0  0
 12 16  1  0  0  0  0
 13 19  1  0  0  0  0
 16 22  1  0  0  0  0
 16 15  1  0  0  0  0
 17 10  1  0  0  0  0
 17 27  1  1  0  0  0
 18  4  1  0  0  0  0
 19 12  2  0  0  0  0
 20 21  1  0  0  0  0
 21 23  2  0  0  0  0
 22 25  2  0  0  0  0
 24 20  2  0  0  0  0
 24 22  1  0  0  0  0
 25 23  1  0  0  0  0
 26 20  1  0  0  0  0
 27 28  1  0  0  0  0
 28 30  1  0  0  0  0
 30 29  1  6  0  0  0
 30 31  1  0  0  0  0
 31 33  1  0  0  0  0
 32 33  1  0  0  0  0
 33 34  1  0  0  0  0
M  END
>  <MODEL>
6

>  <REMARK>
 VINA RESULT:      -9.5      2.483      6.814
  Name = 
  6 active torsions:
  status: ('A' for Active; 'I' for Inactive)
    1  A    between atoms: C_3  and  C_13
    2  A    between atoms: C_3  and  C_29
    3  A    between atoms: C_12  and  N_28
    4  A    between atoms: C_13  and  C_33
    5  A    between atoms: C_20  and  N_22
    6  A    between atoms: N_22  and  C_33
                            x       y       z     vdW  Elec       q    Type
                         _______ _______ _______ _____ _____    ______ ____

>  <TORSDO>
F 6

$$$$
=
 OpenBabel11052414253D

 34 38  0  0  1  0  0  0  0  0999 V2000
  187.1580  178.3390  147.1350 C   0  0  0  0  0  0  0  0  0  0  0  0
  189.2480  177.2850  146.4760 C   0  0  0  0  0  0  0  0  0  0  0  0
  187.5830  177.9930  144.7490 C   0  0  0  0  0  0  0  0  0  0  0  0
  187.9320  177.6440  142.3090 C   0  0  0  0  0  0  0  0  0  0  0  0
  187.5730  178.3190  148.4670 C   0  0  0  0  0  3  0  0  0  0  0  0
  189.6430  177.2660  147.8170 C   0  0  0  0  0  3  0  0  0  0  0  0
  189.8050  178.4920  143.6830 C   0  0  0  0  0  2  0  0  0  0  0  0
  188.0190  177.8800  146.1020 C   0  0  0  0  0  0  0  0  0  0  0  0
  190.7600  177.8480  142.6830 C   0  0  0  0  0  2  0  0  0  0  0  0
  188.8270  177.2180  141.1900 C   0  0  0  0  0  2  0  0  0  0  0  0
  188.8200  177.7990  148.8070 C   0  0  0  0  0  3  0  0  0  0  0  0
  186.2360  178.3260  144.4810 C   0  0  0  0  0  0  0  0  0  0  0  0
  185.8730  178.7830  146.8380 C   0  0  0  0  0  3  0  0  0  0  0  0
  190.0250  176.6200  145.5870 F   0  0  0  0  0  0  0  0  0  0  0  0
  186.6370  177.8380  142.0740 C   0  0  0  0  0  3  0  0  0  0  0  0
  185.7440  178.2530  143.1200 N   0  0  0  0  0  0  0  0  0  0  0  0
  190.1710  177.9400  141.2770 C   0  0  2  0  0  3  0  0  0  0  0  0
  188.4810  177.8630  143.6230 N   0  0  0  0  0  0  0  0  0  0  0  0
  185.4090  178.7550  145.5280 C   0  0  0  0  0  3  0  0  0  0  0  0
  182.6200  178.5980  141.0760 C   0  0  0  0  0  0  0  0  0  0  0  0
  181.6800  178.9180  142.0590 C   0  0  0  0  0  3  0  0  0  0  0  0
  184.3680  178.5030  142.7640 C   0  0  0  0  0  0  0  0  0  0  0  0
  182.0760  179.0250  143.3940 C   0  0  0  0  0  3  0  0  0  0  0  0
  183.9560  178.3870  141.4270 C   0  0  0  0  0  3  0  0  0  0  0  0
  183.4120  178.8140  143.7450 C   0  0  0  0  0  3  0  0  0  0  0  0
  182.1230  178.4570  139.4040 Cl  0  0  0  0  0  0  0  0  0  0  0  0
  191.1500  177.4240  140.2260 C   0  0  0  0  0  2  0  0  0  0  0  0
  190.5170  176.3860  139.3070 C   0  0  0  0  0  2  0  0  0  0  0  0
  189.2180  177.1730  137.4470 O   0  0  0  0  0  1  0  0  0  0  0  0
  190.5180  176.8830  137.8690 C   0  0  2  0  0  3  0  0  0  0  0  0
  191.2010  175.9430  136.9610 N   0  0  0  0  0  2  0  0  0  0  0  0
  192.8420  174.0630  137.2300 C   0  0  0  0  0  1  0  0  0  0  0  0
  192.5700  175.5560  137.3430 C   0  0  0  0  0  3  0  0  0  0  0  0
  193.6220  176.3800  136.6220 C   0  0  0  0  0  1  0  0  0  0  0  0
  1  5  2  0  0  0  0
  2  6  1  0  0  0  0
  3  8  1  0  0  0  0
  4 18  1  0  0  0  0
  5 11  1  0  0  0  0
  6 11  2  0  0  0  0
  8  2  2  0  0  0  0
  8  1  1  0  0  0  0
  9  7  1  0  0  0  0
 10 17  1  0  0  0  0
 10  4  1  0  0  0  0
 12  3  2  0  0  0  0
 12 19  1  0  0  0  0
 13  1  1  0  0  0  0
 14  2  1  0  0  0  0
 15  4  2  0  0  0  0
 15 16  1  0  0  0  0
 16 12  1  0  0  0  0
 17 27  1  6  0  0  0
 17  9  1  0  0  0  0
 18  7  1  0  0  0  0
 18  3  1  0  0  0  0
 19 13  2  0  0  0  0
 20 24  2  0  0  0  0
 20 21  1  0  0  0  0
 21 23  2  0  0  0  0
 22 16  1  0  0  0  0
 22 25  2  0  0  0  0
 23 25  1  0  0  0  0
 24 22  1  0  0  0  0
 26 20  1  0  0  0  0
 28 27  1  0  0  0  0
 30 29  1  6  0  0  0
 30 28  1  0  0  0  0
 31 33  1  0  0  0  0
 31 30  1  0  0  0  0
 32 33  1  0  0  0  0
 34 33  1  0  0  0  0
M  END
>  <MODEL>
7

>  <REMARK>
 VINA RESULT:      -9.5      2.004      3.063
  Name = 
  6 active torsions:
  status: ('A' for Active; 'I' for Inactive)
    1  A    between atoms: C_3  and  C_13
    2  A    between atoms: C_3  and  C_29
    3  A    between atoms: C_12  and  N_28
    4  A    between atoms: C_13  and  C_33
    5  A    between atoms: C_20  and  N_22
    6  A    between atoms: N_22  and  C_33
                            x       y       z     vdW  Elec       q    Type
                         _______ _______ _______ _____ _____    ______ ____

>  <TORSDO>
F 6

$$$$
=
 OpenBabel11052414253D

 34 38  0  0  1  0  0  0  0  0999 V2000
  190.5320  176.7540  145.7140 C   0  0  0  0  0  0  0  0  0  0  0  0
  188.5380  178.0010  146.3320 C   0  0  0  0  0  0  0  0  0  0  0  0
  189.0150  177.4740  143.9330 C   0  0  0  0  0  0  0  0  0  0  0  0
  187.5350  178.2000  142.0680 C   0  0  0  0  0  0  0  0  0  0  0  0
  190.8470  176.5950  147.0640 C   0  0  0  0  0  3  0  0  0  0  0  0
  188.8750  177.8410  147.6790 C   0  0  0  0  0  3  0  0  0  0  0  0
  186.5160  177.2560  144.1130 C   0  0  0  0  0  2  0  0  0  0  0  0
  189.3330  177.4060  145.3210 C   0  0  0  0  0  0  0  0  0  0  0  0
  185.2740  178.0910  143.8160 C   0  0  0  0  0  2  0  0  0  0  0  0
  186.2580  178.8350  141.6160 C   0  0  0  0  0  2  0  0  0  0  0  0
  190.0110  177.1230  148.0470 C   0  0  0  0  0  3  0  0  0  0  0  0
  189.9940  177.1150  142.9800 C   0  0  0  0  0  0  0  0  0  0  0  0
  191.4310  176.2930  144.7560 C   0  0  0  0  0  3  0  0  0  0  0  0
  187.5080  178.8320  146.0390 F   0  0  0  0  0  0  0  0  0  0  0  0
  188.5040  177.9770  141.1840 C   0  0  0  0  0  3  0  0  0  0  0  0
  189.7430  177.3650  141.5740 N   0  0  0  0  0  0  0  0  0  0  0  0
  185.0630  178.1790  142.3060 C   0  0  2  0  0  3  0  0  0  0  0  0
  187.6970  177.8170  143.4470 N   0  0  0  0  0  0  0  0  0  0  0  0
  191.1750  176.4920  143.4040 C   0  0  0  0  0  3  0  0  0  0  0  0
  191.2400  176.2430  138.3250 C   0  0  0  0  0  0  0  0  0  0  0  0
  192.5710  176.6360  138.4840 C   0  0  0  0  0  3  0  0  0  0  0  0
  190.7130  177.0990  140.5400 C   0  0  0  0  0  0  0  0  0  0  0  0
  192.9760  177.2650  139.6630 C   0  0  0  0  0  3  0  0  0  0  0  0
  190.3150  176.4780  139.3460 C   0  0  0  0  0  3  0  0  0  0  0  0
  192.0510  177.5000  140.6840 C   0  0  0  0  0  3  0  0  0  0  0  0
  190.7290  175.4600  136.8460 Cl  0  0  0  0  0  0  0  0  0  0  0  0
  183.7600  178.8970  141.9650 C   0  0  0  0  0  2  0  0  0  0  0  0
  182.8760  178.0780  141.0320 C   0  0  0  0  0  2  0  0  0  0  0  0
  181.6900  179.5430  139.5440 O   0  0  0  0  0  1  0  0  0  0  0  0
  181.5840  178.8250  140.7380 C   0  0  2  0  0  3  0  0  0  0  0  0
  181.1710  179.6800  141.8660 N   0  0  0  0  0  2  0  0  0  0  0  0
  178.9310  178.5560  141.7450 C   0  0  0  0  0  1  0  0  0  0  0  0
  179.9810  179.2360  142.6110 C   0  0  0  0  0  3  0  0  0  0  0  0
  180.3420  178.4000  143.8260 C   0  0  0  0  0  1  0  0  0  0  0  0
  1  5  2  0  0  0  0
  2  6  1  0  0  0  0
  3  8  1  0  0  0  0
  4 18  1  0  0  0  0
  5 11  1  0  0  0  0
  6 11  2  0  0  0  0
  8  1  1  0  0  0  0
  8  2  2  0  0  0  0
  9  7  1  0  0  0  0
 10  4  1  0  0  0  0
 10 17  1  0  0  0  0
 12 19  1  0  0  0  0
 12  3  2  0  0  0  0
 13  1  1  0  0  0  0
 14  2  1  0  0  0  0
 15 16  1  0  0  0  0
 15  4  2  0  0  0  0
 16 12  1  0  0  0  0
 17 27  1  1  0  0  0
 17  9  1  0  0  0  0
 18  3  1  0  0  0  0
 18  7  1  0  0  0  0
 19 13  2  0  0  0  0
 20 21  2  0  0  0  0
 20 24  1  0  0  0  0
 21 23  1  0  0  0  0
 22 25  1  0  0  0  0
 22 16  1  0  0  0  0
 23 25  2  0  0  0  0
 24 22  2  0  0  0  0
 26 20  1  0  0  0  0
 28 27  1  0  0  0  0
 30 29  1  6  0  0  0
 30 28  1  0  0  0  0
 30 31  1  0  0  0  0
 31 33  1  0  0  0  0
 32 33  1  0  0  0  0
 33 34  1  0  0  0  0
M  END
>  <MODEL>
8

>  <REMARK>
 VINA RESULT:      -9.5      3.162      6.434
  Name = 
  6 active torsions:
  status: ('A' for Active; 'I' for Inactive)
    1  A    between atoms: C_3  and  C_13
    2  A    between atoms: C_3  and  C_29
    3  A    between atoms: C_12  and  N_28
    4  A    between atoms: C_13  and  C_33
    5  A    between atoms: C_20  and  N_22
    6  A    between atoms: N_22  and  C_33
                            x       y       z     vdW  Elec       q    Type
                         _______ _______ _______ _____ _____    ______ ____

>  <TORSDO>
F 6

$$$$
=
 OpenBabel11052414253D

 34 38  0  0  1  0  0  0  0  0999 V2000
  185.5650  178.2920  139.4100 C   0  0  0  0  0  0  0  0  0  0  0  0
  187.6070  178.6040  140.6940 C   0  0  0  0  0  0  0  0  0  0  0  0
  185.3930  178.4460  141.8470 C   0  0  0  0  0  0  0  0  0  0  0  0
  185.1380  178.6250  144.3160 C   0  0  0  0  0  0  0  0  0  0  0  0
  186.3210  178.1970  138.2400 C   0  0  0  0  0  3  0  0  0  0  0  0
  188.3460  178.5170  139.5100 C   0  0  0  0  0  3  0  0  0  0  0  0
  186.9670  177.2400  143.3950 C   0  0  0  0  0  2  0  0  0  0  0  0
  186.2020  178.4320  140.6730 C   0  0  0  0  0  0  0  0  0  0  0  0
  187.7550  177.5260  144.6700 C   0  0  0  0  0  2  0  0  0  0  0  0
  185.7710  178.7220  145.6680 C   0  0  0  0  0  2  0  0  0  0  0  0
  187.7100  178.2920  138.2910 C   0  0  0  0  0  3  0  0  0  0  0  0
  183.9900  178.5600  141.7210 C   0  0  0  0  0  0  0  0  0  0  0  0
  184.1770  178.2820  139.3160 C   0  0  0  0  0  3  0  0  0  0  0  0
  188.2700  178.9700  141.8180 F   0  0  0  0  0  0  0  0  0  0  0  0
  183.8340  178.8560  144.1870 C   0  0  0  0  0  3  0  0  0  0  0  0
  183.1850  178.7670  142.9080 N   0  0  0  0  0  0  0  0  0  0  0  0
  186.7990  177.6060  145.8570 C   0  0  2  0  0  3  0  0  0  0  0  0
  185.9370  178.2610  143.1740 N   0  0  0  0  0  0  0  0  0  0  0  0
  183.3980  178.4370  140.4570 C   0  0  0  0  0  3  0  0  0  0  0  0
  179.7620  179.6200  141.6380 C   0  0  0  0  0  0  0  0  0  0  0  0
  178.9700  179.3020  142.7440 C   0  0  0  0  0  3  0  0  0  0  0  0
  181.7570  178.9690  142.8680 C   0  0  0  0  0  0  0  0  0  0  0  0
  179.5640  178.8120  143.9090 C   0  0  0  0  0  3  0  0  0  0  0  0
  181.1480  179.4500  141.6980 C   0  0  0  0  0  3  0  0  0  0  0  0
  180.9500  178.6410  143.9690 C   0  0  0  0  0  3  0  0  0  0  0  0
  179.0200  180.2280  140.1750 Cl  0  0  0  0  0  0  0  0  0  0  0  0
  187.5550  177.7630  147.1730 C   0  0  0  0  0  2  0  0  0  0  0  0
  188.5700  176.6490  147.3940 C   0  0  0  0  0  2  0  0  0  0  0  0
  189.8200  178.2580  148.6620 O   0  0  0  0  0  1  0  0  0  0  0  0
  189.9360  177.2340  147.7190 C   0  0  2  0  0  3  0  0  0  0  0  0
  190.6520  177.6720  146.5070 N   0  0  0  0  0  2  0  0  0  0  0  0
  192.0500  175.6390  146.9710 C   0  0  0  0  0  1  0  0  0  0  0  0
  191.6820  176.7500  145.9980 C   0  0  0  0  0  3  0  0  0  0  0  0
  191.3380  176.2080  144.6220 C   0  0  0  0  0  1  0  0  0  0  0  0
  1  8  1  0  0  0  0
  2 14  1  0  0  0  0
  3 18  1  0  0  0  0
  4 10  1  0  0  0  0
  5 11  2  0  0  0  0
  5  1  1  0  0  0  0
  6  2  2  0  0  0  0
  7  9  1  0  0  0  0
  8  2  1  0  0  0  0
  8  3  2  0  0  0  0
  9 17  1  0  0  0  0
 10 17  1  0  0  0  0
 11  6  1  0  0  0  0
 12  3  1  0  0  0  0
 12 16  1  0  0  0  0
 13  1  2  0  0  0  0
 13 19  1  0  0  0  0
 15  4  2  0  0  0  0
 16 15  1  0  0  0  0
 17 27  1  1  0  0  0
 18  7  1  0  0  0  0
 18  4  1  0  0  0  0
 19 12  2  0  0  0  0
 20 24  2  0  0  0  0
 20 21  1  0  0  0  0
 21 23  2  0  0  0  0
 22 16  1  0  0  0  0
 22 25  2  0  0  0  0
 23 25  1  0  0  0  0
 24 22  1  0  0  0  0
 26 20  1  0  0  0  0
 27 28  1  0  0  0  0
 28 30  1  0  0  0  0
 30 29  1  1  0  0  0
 31 30  1  0  0  0  0
 33 31  1  0  0  0  0
 33 32  1  0  0  0  0
 34 33  1  0  0  0  0
M  END
>  <MODEL>
9

>  <REMARK>
 VINA RESULT:      -9.3      2.991      7.220
  Name = 
  6 active torsions:
  status: ('A' for Active; 'I' for Inactive)
    1  A    between atoms: C_3  and  C_13
    2  A    between atoms: C_3  and  C_29
    3  A    between atoms: C_12  and  N_28
    4  A    between atoms: C_13  and  C_33
    5  A    between atoms: C_20  and  N_22
    6  A    between atoms: N_22  and  C_33
                            x       y       z     vdW  Elec       q    Type
                         _______ _______ _______ _____ _____    ______ ____

>  <TORSDO>
F 6

$$$$
