=
 OpenBabel11052414273D

 32 37  0  0  1  0  0  0  0  0999 V2000
  182.4330  178.7170  138.1240 C   0  0  1  0  0  3  0  0  0  0  0  0
  182.0330  178.8120  140.4810 C   0  0  1  0  0  3  0  0  0  0  0  0
  181.9570  178.2680  136.7310 C   0  0  0  0  0  2  0  0  0  0  0  0
  181.4720  178.3870  139.1950 N   0  0  1  0  0  0  0  0  0  0  0  0
  181.0480  178.5010  141.6010 C   0  0  1  0  0  3  0  0  0  0  0  0
  185.6280  178.4530  143.8110 C   0  0  0  0  0  3  0  0  0  0  0  0
  183.3570  178.0950  140.7640 C   0  0  1  0  0  3  0  0  0  0  0  0
  183.3700  179.0390  144.4640 C   0  0  0  0  0  3  0  0  0  0  0  0
  182.9250  178.7880  143.1630 C   0  0  0  0  0  0  0  0  0  0  0  0
  180.2260  179.1650  139.0210 C   0  0  2  0  0  3  0  0  0  0  0  0
  181.5670  178.9440  142.8530 O   0  0  0  0  0  0  0  0  0  0  0  0
  179.2590  178.7680  139.9760 O   0  0  0  0  0  0  0  0  0  0  0  0
  179.6220  179.0430  137.6180 C   0  0  0  0  0  2  0  0  0  0  0  0
  184.3450  178.4980  139.7650 N   0  0  0  0  0  2  0  0  0  0  0  0
  183.8580  178.1870  138.4180 C   0  0  1  0  0  3  0  0  0  0  0  0
  183.8450  178.3960  142.1640 C   0  0  0  0  0  0  0  0  0  0  0  0
  179.6940  179.1390  141.2740 C   0  0  2  0  0  3  0  0  0  0  0  0
  180.2620  177.5950  136.7270 S   0  0  0  0  0  0  0  0  0  0  0  0
  184.7190  178.8730  144.7870 C   0  0  0  0  0  3  0  0  0  0  0  0
  185.1910  178.2090  142.5060 C   0  0  0  0  0  3  0  0  0  0  0  0
  185.6000  175.1660  136.7650 C   0  0  0  0  0  0  0  0  0  0  0  0
  186.6760  174.8510  135.9990 F   0  0  0  0  0  0  0  0  0  0  0  0
  183.6520  174.4800  137.9620 N   0  0  0  0  0  0  0  0  0  0  0  0
  184.2410  176.8020  137.9470 C   0  0  0  0  0  0  0  0  0  0  0  0
  184.7190  174.1620  137.1840 C   0  0  0  0  0  0  0  0  0  0  0  0
  183.3990  175.7590  138.3410 C   0  0  0  0  0  3  0  0  0  0  0  0
  185.3620  176.4970  137.1410 C   0  0  0  0  0  0  0  0  0  0  0  0
  186.3180  177.5420  136.6770 C   0  0  0  0  0  1  0  0  0  0  0  0
  183.9020  171.9520  137.2680 O   0  0  0  0  0  1  0  0  0  0  0  0
  184.9620  172.7380  136.8200 C   0  0  0  0  0  2  0  0  0  0  0  0
  179.6770  180.6560  141.4780 C   0  0  0  0  0  2  0  0  0  0  0  0
  179.6650  180.9500  142.8410 O   0  0  0  0  0  1  0  0  0  0  0  0
  1  3  1  6  0  0  0
  1 15  1  0  0  0  0
  1  4  1  0  0  0  0
  2  7  1  0  0  0  0
  2  5  1  0  0  0  0
  4  2  1  0  0  0  0
  5 11  1  0  0  0  0
  6 19  1  0  0  0  0
  7 16  1  0  0  0  0
  8 19  2  0  0  0  0
  9  8  1  0  0  0  0
 10  4  1  0  0  0  0
 10 12  1  0  0  0  0
 11  9  1  0  0  0  0
 12 17  1  0  0  0  0
 13 10  1  0  0  0  0
 14  7  1  0  0  0  0
 15 14  1  0  0  0  0
 16 20  1  0  0  0  0
 16  9  2  0  0  0  0
 17 31  1  0  0  0  0
 17  5  1  0  0  0  0
 18  3  1  0  0  0  0
 18 13  1  0  0  0  0
 20  6  2  0  0  0  0
 21 27  2  0  0  0  0
 21 25  1  0  0  0  0
 22 21  1  0  0  0  0
 23 26  1  0  0  0  0
 24 26  2  0  0  0  0
 24 15  1  0  0  0  0
 25 23  2  0  0  0  0
 27 24  1  0  0  0  0
 28 27  1  0  0  0  0
 30 25  1  0  0  0  0
 30 29  1  0  0  0  0
 31 32  1  0  0  0  0
M  END
>  <MODEL>
1

>  <REMARK>
 VINA RESULT:      -7.3      0.000      0.000
  Name = 
  3 active torsions:
  status: ('A' for Active; 'I' for Inactive)
    1  A    between atoms: C_13  and  C_29
    2  A    between atoms: C_16  and  C_27
    3  A    between atoms: CA_19  and  C_26
                            x       y       z     vdW  Elec       q    Type
                         _______ _______ _______ _____ _____    ______ ____

>  <TORSDO>
F 3

$$$$
=
 OpenBabel11052414273D

 32 37  0  0  1  0  0  0  0  0999 V2000
  187.2840  178.9810  141.0760 C   0  0  1  0  0  3  0  0  0  0  0  0
  187.3760  178.1150  143.3040 C   0  0  1  0  0  3  0  0  0  0  0  0
  186.5530  179.0420  139.7230 C   0  0  0  0  0  2  0  0  0  0  0  0
  186.5830  178.1460  142.0710 N   0  0  1  0  0  0  0  0  0  0  0  0
  186.6610  177.2750  144.3550 C   0  0  1  0  0  3  0  0  0  0  0  0
  191.5960  176.9730  145.5480 C   0  0  0  0  0  3  0  0  0  0  0  0
  188.7650  177.5200  143.0470 C   0  0  1  0  0  3  0  0  0  0  0  0
  189.4960  176.9700  146.7540 C   0  0  0  0  0  3  0  0  0  0  0  0
  188.8040  177.1810  145.5580 C   0  0  0  0  0  0  0  0  0  0  0  0
  185.2910  178.7650  142.4380 C   0  0  2  0  0  3  0  0  0  0  0  0
  187.4050  177.2680  145.5720 O   0  0  0  0  0  0  0  0  0  0  0  0
  184.5630  177.9130  143.3040 O   0  0  0  0  0  0  0  0  0  0  0  0
  184.4170  179.1130  141.2300 C   0  0  0  0  0  2  0  0  0  0  0  0
  189.5030  178.3980  142.1410 N   0  0  0  0  0  2  0  0  0  0  0  0
  188.7640  178.5670  140.8860 C   0  0  1  0  0  3  0  0  0  0  0  0
  189.5160  177.3230  144.3450 C   0  0  0  0  0  0  0  0  0  0  0  0
  185.2390  177.8110  144.5470 C   0  0  2  0  0  3  0  0  0  0  0  0
  184.9310  178.2110  139.7380 S   0  0  0  0  0  0  0  0  0  0  0  0
  190.8890  176.8670  146.7490 C   0  0  0  0  0  3  0  0  0  0  0  0
  190.9110  177.1930  144.3490 C   0  0  0  0  0  3  0  0  0  0  0  0
  190.5830  176.0140  138.6340 C   0  0  0  0  0  0  0  0  0  0  0  0
  191.8050  175.4560  138.4370 F   0  0  0  0  0  0  0  0  0  0  0  0
  188.2800  176.1960  138.0330 N   0  0  0  0  0  0  0  0  0  0  0  0
  189.1100  177.5280  139.8420 C   0  0  0  0  0  0  0  0  0  0  0  0
  189.5030  175.6440  137.8240 C   0  0  0  0  0  0  0  0  0  0  0  0
  188.0680  177.1170  139.0070 C   0  0  0  0  0  3  0  0  0  0  0  0
  190.3930  176.9660  139.6470 C   0  0  0  0  0  0  0  0  0  0  0  0
  191.5640  177.3390  140.4920 C   0  0  0  0  0  1  0  0  0  0  0  0
  189.8730  173.3670  137.3350 O   0  0  0  0  0  1  0  0  0  0  0  0
  189.6720  174.6190  136.7560 C   0  0  0  0  0  2  0  0  0  0  0  0
  185.1890  179.1190  145.3410 C   0  0  0  0  0  2  0  0  0  0  0  0
  184.5390  178.9090  146.5570 O   0  0  0  0  0  1  0  0  0  0  0  0
  1  3  1  6  0  0  0
  1  4  1  0  0  0  0
  2  5  1  0  0  0  0
  3 18  1  0  0  0  0
  4 10  1  0  0  0  0
  4  2  1  0  0  0  0
  5 17  1  0  0  0  0
  5 11  1  0  0  0  0
  6 19  1  0  0  0  0
  7  2  1  0  0  0  0
  7 16  1  0  0  0  0
  9 11  1  0  0  0  0
  9  8  1  0  0  0  0
 10 12  1  0  0  0  0
 12 17  1  0  0  0  0
 13 10  1  0  0  0  0
 14  7  1  0  0  0  0
 15  1  1  0  0  0  0
 15 14  1  0  0  0  0
 16 20  1  0  0  0  0
 16  9  2  0  0  0  0
 17 31  1  0  0  0  0
 18 13  1  0  0  0  0
 19  8  2  0  0  0  0
 20  6  2  0  0  0  0
 21 27  1  0  0  0  0
 22 21  1  0  0  0  0
 23 26  2  0  0  0  0
 24 15  1  0  0  0  0
 25 23  1  0  0  0  0
 25 21  2  0  0  0  0
 26 24  1  0  0  0  0
 27 24  2  0  0  0  0
 27 28  1  0  0  0  0
 30 29  1  0  0  0  0
 30 25  1  0  0  0  0
 31 32  1  0  0  0  0
M  END
>  <MODEL>
2

>  <REMARK>
 VINA RESULT:      -7.0      4.387      5.986
  Name = 
  3 active torsions:
  status: ('A' for Active; 'I' for Inactive)
    1  A    between atoms: C_13  and  C_29
    2  A    between atoms: C_16  and  C_27
    3  A    between atoms: CA_19  and  C_26
                            x       y       z     vdW  Elec       q    Type
                         _______ _______ _______ _____ _____    ______ ____

>  <TORSDO>
F 3

$$$$
=
 OpenBabel11052414273D

 32 37  0  0  1  0  0  0  0  0999 V2000
  185.1740  179.3810  142.6830 C   0  0  1  0  0  3  0  0  0  0  0  0
  187.1780  178.0740  142.6670 C   0  0  1  0  0  3  0  0  0  0  0  0
  183.7450  179.5820  143.2170 C   0  0  0  0  0  2  0  0  0  0  0  0
  185.8480  178.2060  143.2690 N   0  0  1  0  0  0  0  0  0  0  0  0
  187.9020  176.8780  143.2730 C   0  0  1  0  0  3  0  0  0  0  0  0
  189.9120  177.4360  138.6350 C   0  0  0  0  0  3  0  0  0  0  0  0
  187.0770  177.8840  141.1510 C   0  0  1  0  0  3  0  0  0  0  0  0
  190.6840  176.6830  140.8030 C   0  0  0  0  0  3  0  0  0  0  0  0
  189.4420  176.9990  141.3600 C   0  0  0  0  0  0  0  0  0  0  0  0
  186.0780  178.4160  144.7150 C   0  0  2  0  0  3  0  0  0  0  0  0
  189.2120  176.7620  142.7220 O   0  0  0  0  0  0  0  0  0  0  0  0
  186.6170  177.2470  145.3040 O   0  0  0  0  0  0  0  0  0  0  0  0
  184.8150  178.8230  145.4800 C   0  0  0  0  0  2  0  0  0  0  0  0
  186.5050  179.0890  140.5520 N   0  0  0  0  0  2  0  0  0  0  0  0
  185.1890  179.3670  141.1340 C   0  0  1  0  0  3  0  0  0  0  0  0
  188.4310  177.5710  140.5540 C   0  0  0  0  0  0  0  0  0  0  0  0
  187.9230  177.0200  144.7980 C   0  0  2  0  0  3  0  0  0  0  0  0
  183.3020  178.4250  144.5540 S   0  0  0  0  0  0  0  0  0  0  0  0
  190.9200  176.9020  139.4440 C   0  0  0  0  0  3  0  0  0  0  0  0
  188.6700  177.7620  139.1860 C   0  0  0  0  0  3  0  0  0  0  0  0
  182.2590  178.5650  138.7540 C   0  0  0  0  0  0  0  0  0  0  0  0
  181.5280  179.1130  137.7490 F   0  0  0  0  0  0  0  0  0  0  0  0
  182.7190  176.7190  140.1960 N   0  0  0  0  0  0  0  0  0  0  0  0
  184.0520  178.7000  140.3940 C   0  0  0  0  0  0  0  0  0  0  0  0
  181.9770  177.2680  139.1990 C   0  0  0  0  0  0  0  0  0  0  0  0
  183.7300  177.3990  140.7930 C   0  0  0  0  0  3  0  0  0  0  0  0
  183.2970  179.2930  139.3550 C   0  0  0  0  0  0  0  0  0  0  0  0
  183.5700  180.6720  138.8590 C   0  0  0  0  0  1  0  0  0  0  0  0
  180.8920  175.1760  139.0950 O   0  0  0  0  0  1  0  0  0  0  0  0
  180.8960  176.4650  138.5630 C   0  0  0  0  0  2  0  0  0  0  0  0
  188.9240  178.0670  145.2930 C   0  0  0  0  0  2  0  0  0  0  0  0
  189.2060  177.8510  146.6420 O   0  0  0  0  0  1  0  0  0  0  0  0
  1  3  1  6  0  0  0
  1  4  1  0  0  0  0
  2  4  1  0  0  0  0
  2  5  1  0  0  0  0
  3 18  1  0  0  0  0
  4 10  1  0  0  0  0
  5 17  1  0  0  0  0
  6 20  2  0  0  0  0
  6 19  1  0  0  0  0
  7  2  1  0  0  0  0
  8  9  1  0  0  0  0
  9 11  1  0  0  0  0
 10 12  1  0  0  0  0
 10 13  1  0  0  0  0
 11  5  1  0  0  0  0
 14 15  1  0  0  0  0
 14  7  1  0  0  0  0
 15  1  1  0  0  0  0
 16  7  1  0  0  0  0
 16  9  2  0  0  0  0
 17 31  1  0  0  0  0
 17 12  1  0  0  0  0
 18 13  1  0  0  0  0
 19  8  2  0  0  0  0
 20 16  1  0  0  0  0
 21 25  2  0  0  0  0
 21 27  1  0  0  0  0
 22 21  1  0  0  0  0
 23 26  2  0  0  0  0
 24 26  1  0  0  0  0
 24 15  1  0  0  0  0
 25 23  1  0  0  0  0
 27 24  2  0  0  0  0
 28 27  1  0  0  0  0
 30 29  1  0  0  0  0
 30 25  1  0  0  0  0
 31 32  1  0  0  0  0
M  END
>  <MODEL>
3

>  <REMARK>
 VINA RESULT:      -7.0      4.062      6.648
  Name = 
  3 active torsions:
  status: ('A' for Active; 'I' for Inactive)
    1  A    between atoms: C_13  and  C_29
    2  A    between atoms: C_16  and  C_27
    3  A    between atoms: CA_19  and  C_26
                            x       y       z     vdW  Elec       q    Type
                         _______ _______ _______ _____ _____    ______ ____

>  <TORSDO>
F 3

$$$$
=
 OpenBabel11052414273D

 32 37  0  0  1  0  0  0  0  0999 V2000
  187.4570  178.6950  139.5620 C   0  0  1  0  0  3  0  0  0  0  0  0
  187.1540  178.2010  141.8840 C   0  0  1  0  0  3  0  0  0  0  0  0
  186.9370  178.5760  138.1190 C   0  0  0  0  0  2  0  0  0  0  0  0
  186.5540  178.0760  140.5520 N   0  0  1  0  0  0  0  0  0  0  0  0
  186.2280  177.5880  142.9270 C   0  0  1  0  0  3  0  0  0  0  0  0
  190.8970  177.2010  144.9060 C   0  0  0  0  0  3  0  0  0  0  0  0
  188.5120  177.4930  141.9400 C   0  0  1  0  0  3  0  0  0  0  0  0
  188.6510  177.5160  145.7560 C   0  0  0  0  0  3  0  0  0  0  0  0
  188.1600  177.5690  144.4490 C   0  0  0  0  0  0  0  0  0  0  0  0
  185.2760  178.8210  140.6140 C   0  0  2  0  0  3  0  0  0  0  0  0
  186.7860  177.7370  144.2310 O   0  0  0  0  0  0  0  0  0  0  0  0
  184.3640  178.1650  141.4760 O   0  0  0  0  0  0  0  0  0  0  0  0
  184.6180  179.0160  139.2450 C   0  0  0  0  0  2  0  0  0  0  0  0
  189.4430  178.1670  141.0370 N   0  0  0  0  0  2  0  0  0  0  0  0
  188.9100  178.1700  139.6710 C   0  0  1  0  0  3  0  0  0  0  0  0
  189.0490  177.4680  143.3540 C   0  0  0  0  0  0  0  0  0  0  0  0
  184.8420  178.2290  142.8100 C   0  0  2  0  0  3  0  0  0  0  0  0
  185.2670  177.8530  138.0080 S   0  0  0  0  0  0  0  0  0  0  0  0
  190.0180  177.3340  145.9840 C   0  0  0  0  0  3  0  0  0  0  0  0
  190.4140  177.2600  143.5950 C   0  0  0  0  0  3  0  0  0  0  0  0
  190.8700  175.2880  138.0150 C   0  0  0  0  0  0  0  0  0  0  0  0
  192.1150  174.7480  137.9560 F   0  0  0  0  0  0  0  0  0  0  0  0
  188.5780  175.2550  137.3490 N   0  0  0  0  0  0  0  0  0  0  0  0
  189.3170  176.9570  138.8660 C   0  0  0  0  0  0  0  0  0  0  0  0
  189.8250  174.7210  137.2780 C   0  0  0  0  0  0  0  0  0  0  0  0
  188.3110  176.3450  138.1130 C   0  0  0  0  0  3  0  0  0  0  0  0
  190.6230  176.4170  138.8110 C   0  0  0  0  0  0  0  0  0  0  0  0
  191.7590  176.9970  139.5830 C   0  0  0  0  0  1  0  0  0  0  0  0
  188.8870  172.7480  136.3880 O   0  0  0  0  0  1  0  0  0  0  0  0
  190.0540  173.5080  136.4430 C   0  0  0  0  0  2  0  0  0  0  0  0
  184.7850  179.6500  143.3760 C   0  0  0  0  0  2  0  0  0  0  0  0
  183.7310  179.7550  144.2840 O   0  0  0  0  0  1  0  0  0  0  0  0
  1  3  1  6  0  0  0
  1 15  1  0  0  0  0
  1  4  1  0  0  0  0
  2  7  1  0  0  0  0
  2  5  1  0  0  0  0
  4 10  1  0  0  0  0
  4  2  1  0  0  0  0
  5 11  1  0  0  0  0
  6 19  1  0  0  0  0
  7 16  1  0  0  0  0
  8 19  2  0  0  0  0
  9  8  1  0  0  0  0
 10 12  1  0  0  0  0
 11  9  1  0  0  0  0
 12 17  1  0  0  0  0
 13 10  1  0  0  0  0
 14  7  1  0  0  0  0
 15 14  1  0  0  0  0
 16 20  1  0  0  0  0
 16  9  2  0  0  0  0
 17  5  1  0  0  0  0
 17 31  1  0  0  0  0
 18  3  1  0  0  0  0
 18 13  1  0  0  0  0
 20  6  2  0  0  0  0
 21 27  1  0  0  0  0
 22 21  1  0  0  0  0
 23 26  2  0  0  0  0
 24 15  1  0  0  0  0
 25 23  1  0  0  0  0
 25 21  2  0  0  0  0
 26 24  1  0  0  0  0
 27 24  2  0  0  0  0
 27 28  1  0  0  0  0
 29 30  1  0  0  0  0
 30 25  1  0  0  0  0
 31 32  1  0  0  0  0
M  END
>  <MODEL>
4

>  <REMARK>
 VINA RESULT:      -7.0      4.021      5.351
  Name = 
  3 active torsions:
  status: ('A' for Active; 'I' for Inactive)
    1  A    between atoms: C_13  and  C_29
    2  A    between atoms: C_16  and  C_27
    3  A    between atoms: CA_19  and  C_26
                            x       y       z     vdW  Elec       q    Type
                         _______ _______ _______ _____ _____    ______ ____

>  <TORSDO>
F 3

$$$$
=
 OpenBabel11052414273D

 32 37  0  0  1  0  0  0  0  0999 V2000
  184.9570  177.5610  138.5620 C   0  0  1  0  0  3  0  0  0  0  0  0
  185.8300  178.1950  140.6970 C   0  0  1  0  0  3  0  0  0  0  0  0
  185.0030  177.7090  137.0310 C   0  0  0  0  0  2  0  0  0  0  0  0
  185.9840  178.3680  139.2490 N   0  0  1  0  0  0  0  0  0  0  0  0
  186.8960  179.0030  141.4280 C   0  0  1  0  0  3  0  0  0  0  0  0
  183.0160  178.6570  144.6990 C   0  0  0  0  0  3  0  0  0  0  0  0
  184.4450  178.6590  141.1590 C   0  0  1  0  0  3  0  0  0  0  0  0
  185.4310  178.7710  144.8460 C   0  0  0  0  0  3  0  0  0  0  0  0
  185.5210  178.7500  143.4510 C   0  0  0  0  0  0  0  0  0  0  0  0
  187.3350  177.8590  138.9240 C   0  0  2  0  0  3  0  0  0  0  0  0
  186.7790  178.8130  142.8370 O   0  0  0  0  0  0  0  0  0  0  0  0
  188.3270  178.6980  139.4860 O   0  0  0  0  0  0  0  0  0  0  0  0
  187.5900  177.7250  137.4190 C   0  0  0  0  0  2  0  0  0  0  0  0
  183.4270  177.7970  140.5620 N   0  0  0  0  0  2  0  0  0  0  0  0
  183.5290  177.8300  139.1000 C   0  0  1  0  0  3  0  0  0  0  0  0
  184.3480  178.6500  142.6690 C   0  0  0  0  0  0  0  0  0  0  0  0
  188.2790  178.6080  140.9010 C   0  0  2  0  0  3  0  0  0  0  0  0
  186.4120  178.7050  136.4410 S   0  0  0  0  0  0  0  0  0  0  0  0
  184.1810  178.7230  145.4680 C   0  0  0  0  0  3  0  0  0  0  0  0
  183.0990  178.6280  143.3030 C   0  0  0  0  0  3  0  0  0  0  0  0
  180.9910  179.8160  136.9770 C   0  0  0  0  0  0  0  0  0  0  0  0
  180.0130  179.6380  136.0520 F   0  0  0  0  0  0  0  0  0  0  0  0
  182.2840  181.2780  138.3520 N   0  0  0  0  0  0  0  0  0  0  0  0
  182.6960  178.9200  138.4640 C   0  0  0  0  0  0  0  0  0  0  0  0
  181.3140  181.1050  137.4180 C   0  0  0  0  0  0  0  0  0  0  0  0
  182.9710  180.2280  138.8720 C   0  0  0  0  0  3  0  0  0  0  0  0
  181.6870  178.7140  137.4950 C   0  0  0  0  0  0  0  0  0  0  0  0
  181.3210  177.3540  137.0040 C   0  0  0  0  0  1  0  0  0  0  0  0
  181.1800  183.4590  137.3630 O   0  0  0  0  0  1  0  0  0  0  0  0
  180.5750  182.2910  136.9020 C   0  0  0  0  0  2  0  0  0  0  0  0
  188.7510  177.2430  141.4090 C   0  0  0  0  0  2  0  0  0  0  0  0
  190.0860  177.0440  141.0590 O   0  0  0  0  0  1  0  0  0  0  0  0
  1  3  1  6  0  0  0
  1 15  1  0  0  0  0
  1  4  1  0  0  0  0
  2  7  1  0  0  0  0
  2  5  1  0  0  0  0
  4  2  1  0  0  0  0
  5 11  1  0  0  0  0
  6 19  1  0  0  0  0
  7 16  1  0  0  0  0
  8 19  2  0  0  0  0
  9  8  1  0  0  0  0
 10  4  1  0  0  0  0
 10 12  1  0  0  0  0
 11  9  1  0  0  0  0
 12 17  1  0  0  0  0
 13 10  1  0  0  0  0
 14  7  1  0  0  0  0
 15 14  1  0  0  0  0
 16 20  1  0  0  0  0
 16  9  2  0  0  0  0
 17 31  1  0  0  0  0
 17  5  1  0  0  0  0
 18  3  1  0  0  0  0
 18 13  1  0  0  0  0
 20  6  2  0  0  0  0
 21 25  2  0  0  0  0
 21 27  1  0  0  0  0
 22 21  1  0  0  0  0
 23 26  2  0  0  0  0
 24 26  1  0  0  0  0
 24 15  1  0  0  0  0
 25 23  1  0  0  0  0
 27 24  2  0  0  0  0
 28 27  1  0  0  0  0
 30 29  1  0  0  0  0
 30 25  1  0  0  0  0
 32 31  1  0  0  0  0
M  END
>  <MODEL>
5

>  <REMARK>
 VINA RESULT:      -6.9      3.596      6.171
  Name = 
  3 active torsions:
  status: ('A' for Active; 'I' for Inactive)
    1  A    between atoms: C_13  and  C_29
    2  A    between atoms: C_16  and  C_27
    3  A    between atoms: CA_19  and  C_26
                            x       y       z     vdW  Elec       q    Type
                         _______ _______ _______ _____ _____    ______ ____

>  <TORSDO>
F 3

$$$$
=
 OpenBabel11052414273D

 32 37  0  0  1  0  0  0  0  0999 V2000
  184.4140  179.3170  140.6760 C   0  0  1  0  0  3  0  0  0  0  0  0
  185.8620  178.5170  142.4040 C   0  0  1  0  0  3  0  0  0  0  0  0
  183.0140  179.3220  140.0370 C   0  0  0  0  0  2  0  0  0  0  0  0
  184.4860  178.4930  141.8980 N   0  0  1  0  0  0  0  0  0  0  0  0
  185.9560  177.6890  143.6800 C   0  0  1  0  0  3  0  0  0  0  0  0
  190.6210  177.5450  141.6580 C   0  0  0  0  0  3  0  0  0  0  0  0
  186.8360  177.9500  141.3660 C   0  0  1  0  0  3  0  0  0  0  0  0
  189.6720  177.5230  143.8870 C   0  0  0  0  0  3  0  0  0  0  0  0
  188.3920  177.6830  143.3480 C   0  0  0  0  0  0  0  0  0  0  0  0
  183.6530  179.0890  142.9660 C   0  0  2  0  0  3  0  0  0  0  0  0
  187.2820  177.7350  144.2020 O   0  0  0  0  0  0  0  0  0  0  0  0
  183.6260  178.2440  144.1010 O   0  0  0  0  0  0  0  0  0  0  0  0
  182.2150  179.3810  142.5260 C   0  0  0  0  0  2  0  0  0  0  0  0
  186.8470  178.8210  140.1920 N   0  0  0  0  0  2  0  0  0  0  0  0
  185.4960  178.9360  139.6350 C   0  0  1  0  0  3  0  0  0  0  0  0
  188.2240  177.8080  141.9500 C   0  0  0  0  0  0  0  0  0  0  0  0
  184.9170  178.1930  144.6870 C   0  0  2  0  0  3  0  0  0  0  0  0
  181.7600  178.4510  141.0330 S   0  0  0  0  0  0  0  0  0  0  0  0
  190.7840  177.4550  143.0440 C   0  0  0  0  0  3  0  0  0  0  0  0
  189.3440  177.7140  141.1130 C   0  0  0  0  0  3  0  0  0  0  0  0
  185.4690  176.6880  136.4980 C   0  0  0  0  0  0  0  0  0  0  0  0
  186.1200  176.5020  135.3210 F   0  0  0  0  0  0  0  0  0  0  0  0
  183.7520  176.0430  138.0250 N   0  0  0  0  0  0  0  0  0  0  0  0
  185.1820  177.8770  138.6010 C   0  0  0  0  0  0  0  0  0  0  0  0
  184.3920  175.8630  136.8410 C   0  0  0  0  0  0  0  0  0  0  0  0
  184.1180  177.0200  138.8940 C   0  0  0  0  0  3  0  0  0  0  0  0
  185.8670  177.7070  137.3760 C   0  0  0  0  0  0  0  0  0  0  0  0
  187.0170  178.5690  136.9800 C   0  0  0  0  0  1  0  0  0  0  0  0
  184.8630  173.6970  136.0340 O   0  0  0  0  0  1  0  0  0  0  0  0
  183.9640  174.7580  135.9390 C   0  0  0  0  0  2  0  0  0  0  0  0
  185.3070  179.5220  145.3410 C   0  0  0  0  0  2  0  0  0  0  0  0
  185.3180  179.3800  146.7280 O   0  0  0  0  0  1  0  0  0  0  0  0
  1  3  1  6  0  0  0
  1  4  1  0  0  0  0
  2  5  1  0  0  0  0
  3 18  1  0  0  0  0
  4  2  1  0  0  0  0
  4 10  1  0  0  0  0
  5 11  1  0  0  0  0
  5 17  1  0  0  0  0
  6 19  1  0  0  0  0
  7 16  1  0  0  0  0
  7  2  1  0  0  0  0
  9  8  1  0  0  0  0
  9 11  1  0  0  0  0
 10 12  1  0  0  0  0
 12 17  1  0  0  0  0
 13 10  1  0  0  0  0
 14  7  1  0  0  0  0
 15 14  1  0  0  0  0
 15  1  1  0  0  0  0
 16  9  2  0  0  0  0
 17 31  1  0  0  0  0
 18 13  1  0  0  0  0
 19  8  2  0  0  0  0
 20  6  2  0  0  0  0
 20 16  1  0  0  0  0
 21 25  2  0  0  0  0
 21 27  1  0  0  0  0
 22 21  1  0  0  0  0
 23 26  2  0  0  0  0
 24 26  1  0  0  0  0
 24 15  1  0  0  0  0
 25 23  1  0  0  0  0
 27 24  2  0  0  0  0
 28 27  1  0  0  0  0
 30 29  1  0  0  0  0
 30 25  1  0  0  0  0
 31 32  1  0  0  0  0
M  END
>  <MODEL>
6

>  <REMARK>
 VINA RESULT:      -6.0      2.829      4.390
  Name = 
  3 active torsions:
  status: ('A' for Active; 'I' for Inactive)
    1  A    between atoms: C_13  and  C_29
    2  A    between atoms: C_16  and  C_27
    3  A    between atoms: CA_19  and  C_26
                            x       y       z     vdW  Elec       q    Type
                         _______ _______ _______ _____ _____    ______ ____

>  <TORSDO>
F 3

$$$$
=
 OpenBabel11052414273D

 32 37  0  0  1  0  0  0  0  0999 V2000
  184.6390  177.7680  136.4440 C   0  0  1  0  0  3  0  0  0  0  0  0
  183.5180  177.6470  138.5530 C   0  0  1  0  0  3  0  0  0  0  0  0
  184.9460  177.1170  135.0840 C   0  0  0  0  0  2  0  0  0  0  0  0
  183.7110  176.9700  137.2680 N   0  0  1  0  0  0  0  0  0  0  0  0
  182.5450  176.8510  139.4140 C   0  0  1  0  0  3  0  0  0  0  0  0
  185.4730  179.3810  142.7150 C   0  0  0  0  0  3  0  0  0  0  0  0
  184.8470  177.7910  139.3010 C   0  0  1  0  0  3  0  0  0  0  0  0
  183.1760  178.6180  142.6330 C   0  0  0  0  0  3  0  0  0  0  0  0
  183.3730  178.1490  141.3320 C   0  0  0  0  0  0  0  0  0  0  0  0
  182.3760  176.9210  136.6320 C   0  0  2  0  0  3  0  0  0  0  0  0
  182.3200  177.5200  140.6540 O   0  0  0  0  0  0  0  0  0  0  0  0
  181.5150  176.0630  137.3580 O   0  0  0  0  0  0  0  0  0  0  0  0
  182.4130  176.4710  135.1690 C   0  0  0  0  0  2  0  0  0  0  0  0
  185.7360  178.6660  138.5390 N   0  0  0  0  0  2  0  0  0  0  0  0
  185.9470  178.1240  137.1930 C   0  0  1  0  0  3  0  0  0  0  0  0
  184.6250  178.3260  140.6990 C   0  0  0  0  0  0  0  0  0  0  0  0
  181.2470  176.6250  138.6320 C   0  0  2  0  0  3  0  0  0  0  0  0
  183.9640  175.6150  134.7620 S   0  0  0  0  0  0  0  0  0  0  0  0
  184.2230  179.2330  143.3230 C   0  0  0  0  0  3  0  0  0  0  0  0
  185.6760  178.9220  141.4100 C   0  0  0  0  0  3  0  0  0  0  0  0
  189.4750  176.5970  136.8620 C   0  0  0  0  0  0  0  0  0  0  0  0
  190.7770  176.9560  136.7090 F   0  0  0  0  0  0  0  0  0  0  0  0
  187.8250  174.8900  137.1070 N   0  0  0  0  0  0  0  0  0  0  0  0
  187.1260  177.1810  137.1050 C   0  0  0  0  0  0  0  0  0  0  0  0
  189.1260  175.2440  136.9420 C   0  0  0  0  0  0  0  0  0  0  0  0
  186.8370  175.8160  137.1860 C   0  0  0  0  0  3  0  0  0  0  0  0
  188.4740  177.5760  136.9370 C   0  0  0  0  0  0  0  0  0  0  0  0
  188.8790  179.0080  136.8470 C   0  0  0  0  0  1  0  0  0  0  0  0
  191.0430  174.3300  137.9670 O   0  0  0  0  0  1  0  0  0  0  0  0
  190.1720  174.1850  136.8880 C   0  0  0  0  0  2  0  0  0  0  0  0
  180.3730  177.8790  138.5380 C   0  0  0  0  0  2  0  0  0  0  0  0
  179.0510  177.5580  138.8470 O   0  0  0  0  0  1  0  0  0  0  0  0
  1  3  1  6  0  0  0
  1 15  1  0  0  0  0
  1  4  1  0  0  0  0
  2  7  1  0  0  0  0
  2  5  1  0  0  0  0
  4  2  1  0  0  0  0
  5 11  1  0  0  0  0
  6 19  1  0  0  0  0
  7 16  1  0  0  0  0
  8 19  2  0  0  0  0
  9  8  1  0  0  0  0
 10  4  1  0  0  0  0
 10 12  1  0  0  0  0
 11  9  1  0  0  0  0
 12 17  1  0  0  0  0
 13 10  1  0  0  0  0
 14  7  1  0  0  0  0
 15 14  1  0  0  0  0
 16  9  2  0  0  0  0
 16 20  1  0  0  0  0
 17  5  1  0  0  0  0
 18  3  1  0  0  0  0
 18 13  1  0  0  0  0
 20  6  2  0  0  0  0
 21 27  2  0  0  0  0
 21 25  1  0  0  0  0
 22 21  1  0  0  0  0
 23 26  1  0  0  0  0
 24 26  2  0  0  0  0
 24 15  1  0  0  0  0
 25 23  2  0  0  0  0
 27 24  1  0  0  0  0
 28 27  1  0  0  0  0
 30 25  1  0  0  0  0
 30 29  1  0  0  0  0
 31 17  1  0  0  0  0
 31 32  1  0  0  0  0
M  END
>  <MODEL>
7

>  <REMARK>
 VINA RESULT:      -5.8      2.831      3.668
  Name = 
  3 active torsions:
  status: ('A' for Active; 'I' for Inactive)
    1  A    between atoms: C_13  and  C_29
    2  A    between atoms: C_16  and  C_27
    3  A    between atoms: CA_19  and  C_26
                            x       y       z     vdW  Elec       q    Type
                         _______ _______ _______ _____ _____    ______ ____

>  <TORSDO>
F 3

$$$$
=
 OpenBabel11052414273D

 32 37  0  0  1  0  0  0  0  0999 V2000
  187.1480  178.7870  139.2210 C   0  0  1  0  0  3  0  0  0  0  0  0
  187.3460  178.2930  141.5540 C   0  0  1  0  0  3  0  0  0  0  0  0
  186.3920  178.5780  137.8970 C   0  0  0  0  0  2  0  0  0  0  0  0
  186.5330  178.0690  140.3550 N   0  0  1  0  0  0  0  0  0  0  0  0
  186.7180  177.5780  142.7430 C   0  0  1  0  0  3  0  0  0  0  0  0
  191.6810  177.8480  143.8250 C   0  0  0  0  0  3  0  0  0  0  0  0
  188.7730  177.7740  141.3530 C   0  0  1  0  0  3  0  0  0  0  0  0
  189.6070  177.8730  145.0770 C   0  0  0  0  0  3  0  0  0  0  0  0
  188.8810  177.8390  143.8840 C   0  0  0  0  0  0  0  0  0  0  0  0
  185.2010  178.6360  140.6580 C   0  0  2  0  0  3  0  0  0  0  0  0
  187.4810  177.8200  143.9240 O   0  0  0  0  0  0  0  0  0  0  0  0
  184.5590  177.8780  141.6660 O   0  0  0  0  0  0  0  0  0  0  0  0
  184.2820  178.7210  139.4360 C   0  0  0  0  0  2  0  0  0  0  0  0
  189.4240  178.5520  140.3000 N   0  0  0  0  0  2  0  0  0  0  0  0
  188.6530  178.4640  139.0560 C   0  0  1  0  0  3  0  0  0  0  0  0
  189.5600  177.8420  142.6430 C   0  0  0  0  0  0  0  0  0  0  0  0
  185.2610  178.0250  142.8900 C   0  0  2  0  0  3  0  0  0  0  0  0
  184.8420  177.6370  138.0890 S   0  0  0  0  0  0  0  0  0  0  0  0
  191.0040  177.8780  145.0480 C   0  0  0  0  0  3  0  0  0  0  0  0
  190.9610  177.8220  142.6270 C   0  0  0  0  0  3  0  0  0  0  0  0
  189.6190  176.2100  136.0760 C   0  0  0  0  0  0  0  0  0  0  0  0
  189.8040  176.2510  134.7310 F   0  0  0  0  0  0  0  0  0  0  0  0
  189.6280  174.9750  138.1190 N   0  0  0  0  0  0  0  0  0  0  0  0
  189.0650  177.3030  138.1770 C   0  0  0  0  0  0  0  0  0  0  0  0
  189.8010  175.0090  136.7720 C   0  0  0  0  0  0  0  0  0  0  0  0
  189.2660  176.0790  138.8210 C   0  0  0  0  0  3  0  0  0  0  0  0
  189.2430  177.3660  136.7760 C   0  0  0  0  0  0  0  0  0  0  0  0
  189.0560  178.6280  136.0040 C   0  0  0  0  0  1  0  0  0  0  0  0
  191.4710  173.3630  136.5240 O   0  0  0  0  0  1  0  0  0  0  0  0
  190.2230  173.7730  136.0560 C   0  0  0  0  0  2  0  0  0  0  0  0
  185.1190  179.4350  143.4710 C   0  0  0  0  0  2  0  0  0  0  0  0
  184.5220  179.3690  144.7300 O   0  0  0  0  0  1  0  0  0  0  0  0
  1  3  1  6  0  0  0
  1  4  1  0  0  0  0
  2  5  1  0  0  0  0
  3 18  1  0  0  0  0
  4 10  1  0  0  0  0
  4  2  1  0  0  0  0
  5 17  1  0  0  0  0
  5 11  1  0  0  0  0
  6 19  1  0  0  0  0
  7  2  1  0  0  0  0
  7 16  1  0  0  0  0
  9 11  1  0  0  0  0
  9  8  1  0  0  0  0
 10 12  1  0  0  0  0
 12 17  1  0  0  0  0
 13 10  1  0  0  0  0
 14  7  1  0  0  0  0
 15  1  1  0  0  0  0
 15 14  1  0  0  0  0
 16  9  2  0  0  0  0
 17 31  1  0  0  0  0
 18 13  1  0  0  0  0
 19  8  2  0  0  0  0
 20 16  1  0  0  0  0
 20  6  2  0  0  0  0
 21 25  2  0  0  0  0
 21 27  1  0  0  0  0
 22 21  1  0  0  0  0
 23 26  2  0  0  0  0
 24 26  1  0  0  0  0
 24 15  1  0  0  0  0
 25 23  1  0  0  0  0
 27 24  2  0  0  0  0
 28 27  1  0  0  0  0
 30 29  1  0  0  0  0
 30 25  1  0  0  0  0
 31 32  1  0  0  0  0
M  END
>  <MODEL>
8

>  <REMARK>
 VINA RESULT:      -5.7      4.026      5.441
  Name = 
  3 active torsions:
  status: ('A' for Active; 'I' for Inactive)
    1  A    between atoms: C_13  and  C_29
    2  A    between atoms: C_16  and  C_27
    3  A    between atoms: CA_19  and  C_26
                            x       y       z     vdW  Elec       q    Type
                         _______ _______ _______ _____ _____    ______ ____

>  <TORSDO>
F 3

$$$$
=
 OpenBabel11052414273D

 32 37  0  0  1  0  0  0  0  0999 V2000
  185.5660  178.6120  138.9210 C   0  0  1  0  0  3  0  0  0  0  0  0
  183.3220  177.8730  139.2960 C   0  0  1  0  0  3  0  0  0  0  0  0
  186.9680  178.3120  138.3630 C   0  0  0  0  0  2  0  0  0  0  0  0
  184.6080  177.5120  138.6930 N   0  0  1  0  0  0  0  0  0  0  0  0
  182.3090  176.7600  139.0540 C   0  0  1  0  0  3  0  0  0  0  0  0
  180.7630  179.0570  143.3200 C   0  0  0  0  0  3  0  0  0  0  0  0
  183.4690  178.0980  140.8040 C   0  0  1  0  0  3  0  0  0  0  0  0
  179.7100  177.9290  141.4530 C   0  0  0  0  0  3  0  0  0  0  0  0
  180.9550  177.7740  140.8390 C   0  0  0  0  0  0  0  0  0  0  0  0
  184.3450  177.3560  137.2450 C   0  0  2  0  0  3  0  0  0  0  0  0
  181.0430  177.1170  139.6050 O   0  0  0  0  0  0  0  0  0  0  0  0
  183.5190  176.2300  137.0120 O   0  0  0  0  0  0  0  0  0  0  0  0
  185.6190  177.2210  136.4050 C   0  0  0  0  0  2  0  0  0  0  0  0
  184.3350  179.2520  141.0350 N   0  0  0  0  0  2  0  0  0  0  0  0
  185.6430  179.0380  140.4080 C   0  0  1  0  0  3  0  0  0  0  0  0
  182.1170  178.2940  141.4550 C   0  0  0  0  0  0  0  0  0  0  0  0
  182.2290  176.4680  137.5520 C   0  0  2  0  0  3  0  0  0  0  0  0
  187.0540  176.7550  137.4180 S   0  0  0  0  0  0  0  0  0  0  0  0
  179.6130  178.5710  142.6910 C   0  0  0  0  0  3  0  0  0  0  0  0
  182.0110  178.9130  142.7080 C   0  0  0  0  0  3  0  0  0  0  0  0
  187.4670  177.4920  143.4360 C   0  0  0  0  0  0  0  0  0  0  0  0
  187.3060  177.2550  144.7640 F   0  0  0  0  0  0  0  0  0  0  0  0
  188.7990  177.3290  141.4630 N   0  0  0  0  0  0  0  0  0  0  0  0
  186.6400  178.3570  141.3180 C   0  0  0  0  0  0  0  0  0  0  0  0
  188.6470  177.1030  142.7930 C   0  0  0  0  0  0  0  0  0  0  0  0
  187.8360  177.9410  140.7270 C   0  0  0  0  0  3  0  0  0  0  0  0
  186.4560  178.1290  142.7010 C   0  0  0  0  0  0  0  0  0  0  0  0
  185.2110  178.5320  143.4170 C   0  0  0  0  0  1  0  0  0  0  0  0
  190.1980  175.3250  142.7960 O   0  0  0  0  0  1  0  0  0  0  0  0
  189.7270  176.4030  143.5440 C   0  0  0  0  0  2  0  0  0  0  0  0
  181.4650  177.5390  136.7700 C   0  0  0  0  0  2  0  0  0  0  0  0
  180.2400  177.0280  136.3420 O   0  0  0  0  0  1  0  0  0  0  0  0
  1  3  1  1  0  0  0
  1 15  1  0  0  0  0
  2  7  1  0  0  0  0
  4  1  1  0  0  0  0
  4  2  1  0  0  0  0
  5  2  1  0  0  0  0
  5 11  1  0  0  0  0
  7 14  1  0  0  0  0
  7 16  1  0  0  0  0
  8 19  1  0  0  0  0
  9  8  2  0  0  0  0
  9 16  1  0  0  0  0
 10  4  1  0  0  0  0
 11  9  1  0  0  0  0
 12 10  1  0  0  0  0
 12 17  1  0  0  0  0
 13 10  1  0  0  0  0
 13 18  1  0  0  0  0
 15 14  1  0  0  0  0
 15 24  1  0  0  0  0
 16 20  2  0  0  0  0
 17  5  1  0  0  0  0
 18  3  1  0  0  0  0
 19  6  2  0  0  0  0
 20  6  1  0  0  0  0
 21 22  1  0  0  0  0
 23 25  2  0  0  0  0
 24 27  1  0  0  0  0
 25 21  1  0  0  0  0
 25 30  1  0  0  0  0
 26 24  2  0  0  0  0
 26 23  1  0  0  0  0
 27 28  1  0  0  0  0
 27 21  2  0  0  0  0
 29 30  1  0  0  0  0
 31 17  1  0  0  0  0
 32 31  1  0  0  0  0
M  END
>  <MODEL>
9

>  <REMARK>
 VINA RESULT:      -5.5      3.387      5.564
  Name = 
  3 active torsions:
  status: ('A' for Active; 'I' for Inactive)
    1  A    between atoms: C_13  and  C_29
    2  A    between atoms: C_16  and  C_27
    3  A    between atoms: CA_19  and  C_26
                            x       y       z     vdW  Elec       q    Type
                         _______ _______ _______ _____ _____    ______ ____

>  <TORSDO>
F 3

$$$$
