=
 OpenBabel11052412453D

 25 29  0  0  1  0  0  0  0  0999 V2000
  189.6180  177.3880  144.0930 C   0  0  0  0  0  0  0  0  0  0  0  0
  189.1430  177.6300  142.7910 C   0  0  0  0  0  0  0  0  0  0  0  0
  191.8050  176.8330  143.1960 C   0  0  0  0  0  3  0  0  0  0  0  0
  188.9290  177.4850  145.3170 C   0  0  0  0  0  0  0  0  0  0  0  0
  187.9090  177.5670  147.9180 C   0  0  0  0  0  3  0  0  0  0  0  0
  191.3360  177.0720  141.9410 N   0  0  0  0  0  0  0  0  0  0  0  0
  189.7320  177.1660  146.4110 C   0  0  0  0  0  0  0  0  0  0  0  0
  189.2470  177.1980  147.7170 C   0  0  0  0  0  3  0  0  0  0  0  0
  189.5950  177.7010  140.4030 C   0  0  0  0  0  0  0  0  0  0  0  0
  190.4750  177.5460  139.2930 N   0  0  0  0  0  1  0  0  0  0  0  0
  187.8280  178.0290  142.5290 C   0  0  0  0  0  3  0  0  0  0  0  0
  187.0870  177.8920  146.8230 C   0  0  0  0  0  3  0  0  0  0  0  0
  190.9410  176.9930  144.2730 C   0  0  0  0  0  0  0  0  0  0  0  0
  191.2860  176.7600  145.9070 S   0  0  0  0  0  0  0  0  0  0  0  0
  188.3090  178.0880  140.1890 N   0  0  0  0  0  0  0  0  0  0  0  0
  187.5940  177.8530  145.5140 C   0  0  0  0  0  3  0  0  0  0  0  0
  187.4250  178.2480  141.2110 C   0  0  0  0  0  0  0  0  0  0  0  0
  190.0460  177.4610  141.7090 C   0  0  0  0  0  0  0  0  0  0  0  0
  186.0370  178.6990  140.9270 C   0  0  0  0  0  2  0  0  0  0  0  0
  185.5390  179.4820  142.0450 N   0  0  0  0  0  2  0  0  0  0  0  0
  184.2020  178.9960  142.3450 C   0  0  1  0  0  3  0  0  0  0  0  0
  183.8030  177.9510  141.3190 C   0  0  0  0  0  1  0  0  0  0  0  0
  184.1840  178.3780  143.7320 C   0  0  0  0  0  3  0  0  0  0  0  0
  183.0650  178.9980  144.5460 C   0  0  0  0  0  2  0  0  0  0  0  0
  184.4950  179.4440  144.7640 C   0  0  0  0  0  2  0  0  0  0  0  0
  1 13  2  0  0  0  0
  1  4  1  0  0  0  0
  2  1  1  0  0  0  0
  3 13  1  0  0  0  0
  4 16  2  0  0  0  0
  4  7  1  0  0  0  0
  6  3  2  0  0  0  0
  7  8  2  0  0  0  0
  8  5  1  0  0  0  0
  9 18  1  0  0  0  0
 10  9  1  0  0  0  0
 11  2  1  0  0  0  0
 12  5  2  0  0  0  0
 13 14  1  0  0  0  0
 14  7  1  0  0  0  0
 15  9  2  0  0  0  0
 15 17  1  0  0  0  0
 16 12  1  0  0  0  0
 17 11  2  0  0  0  0
 18  6  1  0  0  0  0
 18  2  2  0  0  0  0
 19 17  1  0  0  0  0
 19 20  1  0  0  0  0
 20 21  1  0  0  0  0
 21 22  1  6  0  0  0
 21 23  1  0  0  0  0
 23 24  1  0  0  0  0
 23 25  1  0  0  0  0
 24 25  1  0  0  0  0
M  END
>  <MODEL>
1

>  <REMARK>
 VINA RESULT:      -9.6      0.000      0.000
  Name = 
  4 active torsions:
  status: ('A' for Active; 'I' for Inactive)
    1  A    between atoms: C_2  and  C_21
    2  A    between atoms: C_6  and  N_15
    3  A    between atoms: C_6  and  C_23
    4  A    between atoms: N_15  and  C_21
                            x       y       z     vdW  Elec       q    Type
                         _______ _______ _______ _____ _____    ______ ____

>  <TORSDO>
F 4

$$$$
=
 OpenBabel11052412453D

 25 29  0  0  1  0  0  0  0  0999 V2000
  187.4810  177.8200  145.6390 C   0  0  0  0  0  0  0  0  0  0  0  0
  188.8190  177.4350  145.4340 C   0  0  0  0  0  0  0  0  0  0  0  0
  187.8490  177.8410  148.0390 C   0  0  0  0  0  3  0  0  0  0  0  0
  186.4730  178.0520  144.6840 C   0  0  0  0  0  0  0  0  0  0  0  0
  184.2330  178.5980  143.1030 C   0  0  0  0  0  3  0  0  0  0  0  0
  189.1430  177.4700  147.8300 N   0  0  0  0  0  0  0  0  0  0  0  0
  185.2590  178.4210  145.2630 C   0  0  0  0  0  0  0  0  0  0  0  0
  184.1290  178.6980  144.4980 C   0  0  0  0  0  3  0  0  0  0  0  0
  190.9830  176.8850  146.3950 C   0  0  0  0  0  0  0  0  0  0  0  0
  191.8440  176.7100  147.5160 N   0  0  0  0  0  1  0  0  0  0  0  0
  189.3560  177.2190  144.1610 C   0  0  0  0  0  3  0  0  0  0  0  0
  185.4510  178.2270  142.5040 C   0  0  0  0  0  3  0  0  0  0  0  0
  187.0190  178.0160  146.9380 C   0  0  0  0  0  0  0  0  0  0  0  0
  185.3950  178.4700  146.9410 S   0  0  0  0  0  0  0  0  0  0  0  0
  191.4690  176.6850  145.1400 N   0  0  0  0  0  0  0  0  0  0  0  0
  186.5800  177.9510  143.2930 C   0  0  0  0  0  3  0  0  0  0  0  0
  190.6920  176.8360  144.0340 C   0  0  0  0  0  0  0  0  0  0  0  0
  189.6460  177.2640  146.5750 C   0  0  0  0  0  0  0  0  0  0  0  0
  191.2770  176.6310  142.6820 C   0  0  0  0  0  2  0  0  0  0  0  0
  190.2120  176.5270  141.6990 N   0  0  0  0  0  2  0  0  0  0  0  0
  190.5130  177.4780  140.6420 C   0  0  1  0  0  3  0  0  0  0  0  0
  191.9350  177.2600  140.1560 C   0  0  0  0  0  1  0  0  0  0  0  0
  189.5460  177.2790  139.4880 C   0  0  0  0  0  3  0  0  0  0  0  0
  189.1480  178.6290  138.9250 C   0  0  0  0  0  2  0  0  0  0  0  0
  188.2030  177.8850  139.8440 C   0  0  0  0  0  2  0  0  0  0  0  0
  1 13  1  0  0  0  0
  2  1  2  0  0  0  0
  2 18  1  0  0  0  0
  4  7  1  0  0  0  0
  4  1  1  0  0  0  0
  5  8  1  0  0  0  0
  6  3  1  0  0  0  0
  7 14  1  0  0  0  0
  8  7  2  0  0  0  0
  9 18  1  0  0  0  0
  9 10  1  0  0  0  0
 11  2  1  0  0  0  0
 12  5  2  0  0  0  0
 12 16  1  0  0  0  0
 13 14  1  0  0  0  0
 13  3  2  0  0  0  0
 15  9  2  0  0  0  0
 16  4  2  0  0  0  0
 17 11  2  0  0  0  0
 17 15  1  0  0  0  0
 18  6  2  0  0  0  0
 19 17  1  0  0  0  0
 20 19  1  0  0  0  0
 21 22  1  6  0  0  0
 21 20  1  0  0  0  0
 23 25  1  0  0  0  0
 23 21  1  0  0  0  0
 24 23  1  0  0  0  0
 24 25  1  0  0  0  0
M  END
>  <MODEL>
2

>  <REMARK>
 VINA RESULT:      -9.6      2.426      5.730
  Name = 
  4 active torsions:
  status: ('A' for Active; 'I' for Inactive)
    1  A    between atoms: C_2  and  C_21
    2  A    between atoms: C_6  and  N_15
    3  A    between atoms: C_6  and  C_23
    4  A    between atoms: N_15  and  C_21
                            x       y       z     vdW  Elec       q    Type
                         _______ _______ _______ _____ _____    ______ ____

>  <TORSDO>
F 4

$$$$
=
 OpenBabel11052412453D

 25 29  0  0  1  0  0  0  0  0999 V2000
  187.4570  177.8640  145.7240 C   0  0  0  0  0  0  0  0  0  0  0  0
  188.7120  177.3830  145.3050 C   0  0  0  0  0  0  0  0  0  0  0  0
  188.2650  177.9890  148.0110 C   0  0  0  0  0  3  0  0  0  0  0  0
  186.3040  178.1090  144.9560 C   0  0  0  0  0  0  0  0  0  0  0  0
  183.8430  178.7130  143.7760 C   0  0  0  0  0  3  0  0  0  0  0  0
  189.4760  177.5250  147.5940 N   0  0  0  0  0  0  0  0  0  0  0  0
  185.2410  178.5870  145.7210 C   0  0  0  0  0  0  0  0  0  0  0  0
  184.0050  178.8940  145.1570 C   0  0  0  0  0  3  0  0  0  0  0  0
  190.9840  176.7460  145.8890 C   0  0  0  0  0  0  0  0  0  0  0  0
  192.0270  176.5760  146.8440 N   0  0  0  0  0  1  0  0  0  0  0  0
  188.9910  177.0650  143.9720 C   0  0  0  0  0  3  0  0  0  0  0  0
  184.9070  178.2320  142.9910 C   0  0  0  0  0  3  0  0  0  0  0  0
  187.2560  178.1580  147.0700 C   0  0  0  0  0  0  0  0  0  0  0  0
  185.6880  178.7160  147.3390 S   0  0  0  0  0  0  0  0  0  0  0  0
  191.2170  176.4490  144.5820 N   0  0  0  0  0  0  0  0  0  0  0  0
  186.1460  177.9270  143.5780 C   0  0  0  0  0  3  0  0  0  0  0  0
  190.2580  176.5890  143.6290 C   0  0  0  0  0  0  0  0  0  0  0  0
  189.7260  177.2200  146.2840 C   0  0  0  0  0  0  0  0  0  0  0  0
  190.5700  176.2760  142.2090 C   0  0  0  0  0  2  0  0  0  0  0  0
  190.4920  177.4870  141.4120 N   0  0  0  0  0  2  0  0  0  0  0  0
  189.5020  177.2530  140.3740 C   0  0  1  0  0  3  0  0  0  0  0  0
  188.3410  178.2130  140.5580 C   0  0  0  0  0  1  0  0  0  0  0  0
  190.1320  177.4740  139.0100 C   0  0  0  0  0  3  0  0  0  0  0  0
  190.1620  176.1620  138.2500 C   0  0  0  0  0  2  0  0  0  0  0  0
  191.4200  176.6800  138.9140 C   0  0  0  0  0  2  0  0  0  0  0  0
  1 13  1  0  0  0  0
  2  1  2  0  0  0  0
  2 18  1  0  0  0  0
  4  7  1  0  0  0  0
  4  1  1  0  0  0  0
  5  8  1  0  0  0  0
  6  3  1  0  0  0  0
  7 14  1  0  0  0  0
  8  7  2  0  0  0  0
  9 18  1  0  0  0  0
  9 10  1  0  0  0  0
 11  2  1  0  0  0  0
 12 16  1  0  0  0  0
 12  5  2  0  0  0  0
 13 14  1  0  0  0  0
 13  3  2  0  0  0  0
 15  9  2  0  0  0  0
 16  4  2  0  0  0  0
 17 11  2  0  0  0  0
 17 15  1  0  0  0  0
 18  6  2  0  0  0  0
 19 17  1  0  0  0  0
 20 19  1  0  0  0  0
 21 22  1  1  0  0  0
 21 20  1  0  0  0  0
 23 21  1  0  0  0  0
 24 25  1  0  0  0  0
 24 23  1  0  0  0  0
 25 23  1  0  0  0  0
M  END
>  <MODEL>
3

>  <REMARK>
 VINA RESULT:      -9.4      2.368      5.655
  Name = 
  4 active torsions:
  status: ('A' for Active; 'I' for Inactive)
    1  A    between atoms: C_2  and  C_21
    2  A    between atoms: C_6  and  N_15
    3  A    between atoms: C_6  and  C_23
    4  A    between atoms: N_15  and  C_21
                            x       y       z     vdW  Elec       q    Type
                         _______ _______ _______ _____ _____    ______ ____

>  <TORSDO>
F 4

$$$$
=
 OpenBabel11052412453D

 25 29  0  0  1  0  0  0  0  0999 V2000
  186.1130  178.3310  144.3950 C   0  0  0  0  0  0  0  0  0  0  0  0
  186.1790  178.4440  142.9940 C   0  0  0  0  0  0  0  0  0  0  0  0
  183.7980  179.0600  144.3500 C   0  0  0  0  0  3  0  0  0  0  0  0
  187.1180  177.9320  145.2970 C   0  0  0  0  0  0  0  0  0  0  0  0
  188.8360  177.1960  147.3750 C   0  0  0  0  0  3  0  0  0  0  0  0
  183.8710  179.1640  142.9940 N   0  0  0  0  0  0  0  0  0  0  0  0
  186.6850  177.9410  146.6220 C   0  0  0  0  0  0  0  0  0  0  0  0
  187.5210  177.5790  147.6750 C   0  0  0  0  0  3  0  0  0  0  0  0
  185.0560  178.9880  140.9070 C   0  0  0  0  0  0  0  0  0  0  0  0
  183.9050  179.4090  140.1810 N   0  0  0  0  0  1  0  0  0  0  0  0
  187.3370  178.1520  142.2660 C   0  0  0  0  0  3  0  0  0  0  0  0
  189.2880  177.1810  146.0420 C   0  0  0  0  0  3  0  0  0  0  0  0
  184.9240  178.6410  145.0490 C   0  0  0  0  0  0  0  0  0  0  0  0
  185.0780  178.4350  146.7150 S   0  0  0  0  0  0  0  0  0  0  0  0
  186.2020  178.6940  140.2350 N   0  0  0  0  0  0  0  0  0  0  0  0
  188.4290  177.5500  144.9940 C   0  0  0  0  0  3  0  0  0  0  0  0
  187.3300  178.2900  140.8770 C   0  0  0  0  0  0  0  0  0  0  0  0
  185.0150  178.8720  142.3040 C   0  0  0  0  0  0  0  0  0  0  0  0
  188.5490  177.9540  140.0950 C   0  0  0  0  0  2  0  0  0  0  0  0
  189.7330  178.2520  140.8820 N   0  0  0  0  0  2  0  0  0  0  0  0
  190.5350  177.0400  140.9230 C   0  0  1  0  0  3  0  0  0  0  0  0
  190.9760  176.6790  139.5160 C   0  0  0  0  0  1  0  0  0  0  0  0
  191.7570  177.2680  141.7950 C   0  0  0  0  0  3  0  0  0  0  0  0
  191.5550  176.5880  143.1350 C   0  0  0  0  0  2  0  0  0  0  0  0
  191.3660  178.0840  143.0110 C   0  0  0  0  0  2  0  0  0  0  0  0
  1 13  2  0  0  0  0
  1  4  1  0  0  0  0
  2  1  1  0  0  0  0
  3 13  1  0  0  0  0
  4  7  1  0  0  0  0
  5  8  1  0  0  0  0
  6  3  2  0  0  0  0
  7 14  1  0  0  0  0
  7  8  2  0  0  0  0
  9 18  2  0  0  0  0
 10  9  1  0  0  0  0
 11  2  2  0  0  0  0
 12  5  2  0  0  0  0
 13 14  1  0  0  0  0
 15 17  2  0  0  0  0
 15  9  1  0  0  0  0
 16  4  2  0  0  0  0
 16 12  1  0  0  0  0
 17 11  1  0  0  0  0
 18  2  1  0  0  0  0
 18  6  1  0  0  0  0
 19 17  1  0  0  0  0
 19 20  1  0  0  0  0
 20 21  1  0  0  0  0
 21 22  1  6  0  0  0
 21 23  1  0  0  0  0
 23 25  1  0  0  0  0
 23 24  1  0  0  0  0
 25 24  1  0  0  0  0
M  END
>  <MODEL>
4

>  <REMARK>
 VINA RESULT:      -8.9      1.800      5.247
  Name = 
  4 active torsions:
  status: ('A' for Active; 'I' for Inactive)
    1  A    between atoms: C_2  and  C_21
    2  A    between atoms: C_6  and  N_15
    3  A    between atoms: C_6  and  C_23
    4  A    between atoms: N_15  and  C_21
                            x       y       z     vdW  Elec       q    Type
                         _______ _______ _______ _____ _____    ______ ____

>  <TORSDO>
F 4

$$$$
=
 OpenBabel11052412453D

 25 29  0  0  1  0  0  0  0  0999 V2000
  187.2310  177.9220  145.4780 C   0  0  0  0  0  0  0  0  0  0  0  0
  186.3980  178.2620  144.3960 C   0  0  0  0  0  0  0  0  0  0  0  0
  185.3920  178.2980  147.0180 C   0  0  0  0  0  3  0  0  0  0  0  0
  188.5850  177.5380  145.4620 C   0  0  0  0  0  0  0  0  0  0  0  0
  191.2400  176.7470  145.8330 C   0  0  0  0  0  3  0  0  0  0  0  0
  184.5940  178.6240  145.9640 N   0  0  0  0  0  0  0  0  0  0  0  0
  189.0830  177.2750  146.7380 C   0  0  0  0  0  0  0  0  0  0  0  0
  190.4020  176.8790  146.9490 C   0  0  0  0  0  3  0  0  0  0  0  0
  184.2030  178.9560  143.6130 C   0  0  0  0  0  0  0  0  0  0  0  0
  182.8450  179.3110  143.8560 N   0  0  0  0  0  1  0  0  0  0  0  0
  186.8440  178.2630  143.0700 C   0  0  0  0  0  3  0  0  0  0  0  0
  190.7520  177.0090  144.5400 C   0  0  0  0  0  3  0  0  0  0  0  0
  186.7140  177.9460  146.7700 C   0  0  0  0  0  0  0  0  0  0  0  0
  187.8860  177.5050  147.8990 S   0  0  0  0  0  0  0  0  0  0  0  0
  184.6740  178.9430  142.3370 N   0  0  0  0  0  0  0  0  0  0  0  0
  189.4190  177.4070  144.3470 C   0  0  0  0  0  3  0  0  0  0  0  0
  185.9620  178.6150  142.0480 C   0  0  0  0  0  0  0  0  0  0  0  0
  185.0520  178.6170  144.6760 C   0  0  0  0  0  0  0  0  0  0  0  0
  186.4220  178.5900  140.6340 C   0  0  0  0  0  2  0  0  0  0  0  0
  187.8720  178.6440  140.5900 N   0  0  0  0  0  2  0  0  0  0  0  0
  188.3050  177.7120  139.5610 C   0  0  1  0  0  3  0  0  0  0  0  0
  187.6220  178.0570  138.2500 C   0  0  0  0  0  1  0  0  0  0  0  0
  189.8100  177.8060  139.3900 C   0  0  0  0  0  3  0  0  0  0  0  0
  190.4190  176.4230  139.5140 C   0  0  0  0  0  2  0  0  0  0  0  0
  190.4930  177.3880  140.6770 C   0  0  0  0  0  2  0  0  0  0  0  0
  1 13  2  0  0  0  0
  2 18  1  0  0  0  0
  2  1  1  0  0  0  0
  4  1  1  0  0  0  0
  4  7  1  0  0  0  0
  5  8  1  0  0  0  0
  6  3  2  0  0  0  0
  7  8  2  0  0  0  0
  7 14  1  0  0  0  0
  9 10  1  0  0  0  0
  9 18  2  0  0  0  0
 11  2  2  0  0  0  0
 12  5  2  0  0  0  0
 13  3  1  0  0  0  0
 13 14  1  0  0  0  0
 15  9  1  0  0  0  0
 16 12  1  0  0  0  0
 16  4  2  0  0  0  0
 17 15  2  0  0  0  0
 17 11  1  0  0  0  0
 18  6  1  0  0  0  0
 19 17  1  0  0  0  0
 20 19  1  0  0  0  0
 21 22  1  6  0  0  0
 21 20  1  0  0  0  0
 23 24  1  0  0  0  0
 23 21  1  0  0  0  0
 23 25  1  0  0  0  0
 24 25  1  0  0  0  0
M  END
>  <MODEL>
5

>  <REMARK>
 VINA RESULT:      -8.9      1.747      5.131
  Name = 
  4 active torsions:
  status: ('A' for Active; 'I' for Inactive)
    1  A    between atoms: C_2  and  C_21
    2  A    between atoms: C_6  and  N_15
    3  A    between atoms: C_6  and  C_23
    4  A    between atoms: N_15  and  C_21
                            x       y       z     vdW  Elec       q    Type
                         _______ _______ _______ _____ _____    ______ ____

>  <TORSDO>
F 4

$$$$
=
 OpenBabel11052412453D

 25 29  0  0  1  0  0  0  0  0999 V2000
  186.8020  178.2460  142.4250 C   0  0  0  0  0  0  0  0  0  0  0  0
  188.1560  177.8630  142.3910 C   0  0  0  0  0  0  0  0  0  0  0  0
  186.8170  178.5270  140.0140 C   0  0  0  0  0  3  0  0  0  0  0  0
  185.9440  178.3600  143.5360 C   0  0  0  0  0  0  0  0  0  0  0  0
  183.9580  178.6980  145.4740 C   0  0  0  0  0  3  0  0  0  0  0  0
  188.1260  178.1530  139.9920 N   0  0  0  0  0  0  0  0  0  0  0  0
  184.6590  178.7700  143.1810 C   0  0  0  0  0  0  0  0  0  0  0  0
  183.6530  178.9450  144.1280 C   0  0  0  0  0  3  0  0  0  0  0  0
  190.1540  177.4420  141.0730 C   0  0  0  0  0  0  0  0  0  0  0  0
  190.8390  177.3860  139.8250 N   0  0  0  0  0  1  0  0  0  0  0  0
  188.8730  177.5230  143.5430 C   0  0  0  0  0  3  0  0  0  0  0  0
  185.2510  178.2840  145.8470 C   0  0  0  0  0  3  0  0  0  0  0  0
  186.1560  178.5720  141.2350 C   0  0  0  0  0  0  0  0  0  0  0  0
  184.5490  178.9980  141.5170 S   0  0  0  0  0  0  0  0  0  0  0  0
  190.8170  177.1170  142.2160 N   0  0  0  0  0  0  0  0  0  0  0  0
  186.2530  178.1130  144.8770 C   0  0  0  0  0  3  0  0  0  0  0  0
  190.2150  177.1550  143.4340 C   0  0  0  0  0  0  0  0  0  0  0  0
  188.8070  177.8240  141.1310 C   0  0  0  0  0  0  0  0  0  0  0  0
  190.9760  176.7650  144.6510 C   0  0  0  0  0  2  0  0  0  0  0  0
  190.5750  177.6030  145.7670 N   0  0  0  0  0  2  0  0  0  0  0  0
  190.3590  176.7250  146.9050 C   0  0  1  0  0  3  0  0  0  0  0  0
  191.6850  176.1280  147.3410 C   0  0  0  0  0  1  0  0  0  0  0  0
  189.7580  177.5170  148.0530 C   0  0  0  0  0  3  0  0  0  0  0  0
  188.3050  177.1220  148.2310 C   0  0  0  0  0  2  0  0  0  0  0  0
  188.6560  178.4140  147.5250 C   0  0  0  0  0  2  0  0  0  0  0  0
  1  4  1  0  0  0  0
  2  1  1  0  0  0  0
  2 11  1  0  0  0  0
  3 13  1  0  0  0  0
  4 16  1  0  0  0  0
  5 12  1  0  0  0  0
  6  3  2  0  0  0  0
  6 18  1  0  0  0  0
  7  4  2  0  0  0  0
  7  8  1  0  0  0  0
  8  5  2  0  0  0  0
  9 18  1  0  0  0  0
  9 15  2  0  0  0  0
 10  9  1  0  0  0  0
 13 14  1  0  0  0  0
 13  1  2  0  0  0  0
 14  7  1  0  0  0  0
 15 17  1  0  0  0  0
 16 12  2  0  0  0  0
 17 11  2  0  0  0  0
 17 19  1  0  0  0  0
 18  2  2  0  0  0  0
 19 20  1  0  0  0  0
 20 21  1  0  0  0  0
 21 22  1  1  0  0  0
 21 23  1  0  0  0  0
 23 24  1  0  0  0  0
 25 23  1  0  0  0  0
 25 24  1  0  0  0  0
M  END
>  <MODEL>
6

>  <REMARK>
 VINA RESULT:      -8.8      2.118      5.294
  Name = 
  4 active torsions:
  status: ('A' for Active; 'I' for Inactive)
    1  A    between atoms: C_2  and  C_21
    2  A    between atoms: C_6  and  N_15
    3  A    between atoms: C_6  and  C_23
    4  A    between atoms: N_15  and  C_21
                            x       y       z     vdW  Elec       q    Type
                         _______ _______ _______ _____ _____    ______ ____

>  <TORSDO>
F 4

$$$$
=
 OpenBabel11052412453D

 25 29  0  0  1  0  0  0  0  0999 V2000
  186.0080  178.4680  142.7020 C   0  0  0  0  0  0  0  0  0  0  0  0
  187.2000  178.2520  141.9860 C   0  0  0  0  0  0  0  0  0  0  0  0
  184.8560  179.0000  140.6320 C   0  0  0  0  0  3  0  0  0  0  0  0
  185.7780  178.3640  144.0870 C   0  0  0  0  0  0  0  0  0  0  0  0
  184.9420  178.2620  146.7520 C   0  0  0  0  0  3  0  0  0  0  0  0
  186.0140  178.7870  139.9480 N   0  0  0  0  0  0  0  0  0  0  0  0
  184.4600  178.6550  144.4360 C   0  0  0  0  0  0  0  0  0  0  0  0
  184.0190  178.6110  145.7560 C   0  0  0  0  0  3  0  0  0  0  0  0
  188.3480  178.2090  139.8430 C   0  0  0  0  0  0  0  0  0  0  0  0
  188.3560  178.3640  138.4270 N   0  0  0  0  0  1  0  0  0  0  0  0
  188.3970  177.8790  142.6070 C   0  0  0  0  0  3  0  0  0  0  0  0
  186.2760  177.9660  146.4150 C   0  0  0  0  0  3  0  0  0  0  0  0
  184.8560  178.8390  142.0120 C   0  0  0  0  0  0  0  0  0  0  0  0
  183.5580  179.0420  143.0680 S   0  0  0  0  0  0  0  0  0  0  0  0
  189.4910  177.8450  140.4840 N   0  0  0  0  0  0  0  0  0  0  0  0
  186.7020  178.0150  145.0780 C   0  0  0  0  0  3  0  0  0  0  0  0
  189.5420  177.6850  141.8330 C   0  0  0  0  0  0  0  0  0  0  0  0
  187.1730  178.4220  140.5770 C   0  0  0  0  0  0  0  0  0  0  0  0
  190.8100  177.2610  142.4840 C   0  0  0  0  0  2  0  0  0  0  0  0
  190.5160  176.5910  143.7380 N   0  0  0  0  0  2  0  0  0  0  0  0
  191.2200  177.3150  144.7850 C   0  0  1  0  0  3  0  0  0  0  0  0
  191.8030  178.5930  144.2090 C   0  0  0  0  0  1  0  0  0  0  0  0
  190.2530  177.6580  145.9040 C   0  0  0  0  0  3  0  0  0  0  0  0
  190.7900  177.1190  147.2160 C   0  0  0  0  0  2  0  0  0  0  0  0
  189.6850  176.3800  146.4910 C   0  0  0  0  0  2  0  0  0  0  0  0
  1  4  1  0  0  0  0
  2 11  1  0  0  0  0
  2  1  1  0  0  0  0
  3 13  1  0  0  0  0
  4  7  2  0  0  0  0
  4 16  1  0  0  0  0
  6 18  1  0  0  0  0
  6  3  2  0  0  0  0
  7  8  1  0  0  0  0
  8  5  2  0  0  0  0
  9 15  2  0  0  0  0
  9 18  1  0  0  0  0
 10  9  1  0  0  0  0
 12  5  1  0  0  0  0
 13  1  2  0  0  0  0
 13 14  1  0  0  0  0
 14  7  1  0  0  0  0
 15 17  1  0  0  0  0
 16 12  2  0  0  0  0
 17 19  1  0  0  0  0
 17 11  2  0  0  0  0
 18  2  2  0  0  0  0
 19 20  1  0  0  0  0
 20 21  1  0  0  0  0
 21 22  1  6  0  0  0
 21 23  1  0  0  0  0
 23 25  1  0  0  0  0
 23 24  1  0  0  0  0
 25 24  1  0  0  0  0
M  END
>  <MODEL>
7

>  <REMARK>
 VINA RESULT:      -8.8      2.156      5.282
  Name = 
  4 active torsions:
  status: ('A' for Active; 'I' for Inactive)
    1  A    between atoms: C_2  and  C_21
    2  A    between atoms: C_6  and  N_15
    3  A    between atoms: C_6  and  C_23
    4  A    between atoms: N_15  and  C_21
                            x       y       z     vdW  Elec       q    Type
                         _______ _______ _______ _____ _____    ______ ____

>  <TORSDO>
F 4

$$$$
=
 OpenBabel11052412453D

 25 29  0  0  1  0  0  0  0  0999 V2000
  186.9400  177.8380  144.7040 C   0  0  0  0  0  0  0  0  0  0  0  0
  188.0840  177.4560  143.9790 C   0  0  0  0  0  0  0  0  0  0  0  0
  188.1390  177.4930  146.7870 C   0  0  0  0  0  3  0  0  0  0  0  0
  185.6790  178.2340  144.2200 C   0  0  0  0  0  0  0  0  0  0  0  0
  183.0710  179.0630  143.6460 C   0  0  0  0  0  3  0  0  0  0  0  0
  189.2410  177.1270  146.0750 N   0  0  0  0  0  0  0  0  0  0  0  0
  184.7830  178.5430  145.2430 C   0  0  0  0  0  0  0  0  0  0  0  0
  183.4790  178.9570  144.9840 C   0  0  0  0  0  3  0  0  0  0  0  0
  190.4000  176.7170  144.0060 C   0  0  0  0  0  0  0  0  0  0  0  0
  191.5870  176.3570  144.7050 N   0  0  0  0  0  1  0  0  0  0  0  0
  188.1140  177.4190  142.5810 C   0  0  0  0  0  3  0  0  0  0  0  0
  183.9640  178.7560  142.6030 C   0  0  0  0  0  3  0  0  0  0  0  0
  186.9870  177.8500  146.0960 C   0  0  0  0  0  0  0  0  0  0  0  0
  185.5110  178.3370  146.7480 S   0  0  0  0  0  0  0  0  0  0  0  0
  190.3890  176.6950  142.6460 N   0  0  0  0  0  0  0  0  0  0  0  0
  185.2750  178.3390  142.8850 C   0  0  0  0  0  3  0  0  0  0  0  0
  189.2830  177.0270  141.9280 C   0  0  0  0  0  0  0  0  0  0  0  0
  189.2470  177.0980  144.7080 C   0  0  0  0  0  0  0  0  0  0  0  0
  189.3310  177.0120  140.4420 C   0  0  0  0  0  2  0  0  0  0  0  0
  188.7650  178.2440  139.9220 N   0  0  0  0  0  2  0  0  0  0  0  0
  188.8090  178.1560  138.4720 C   0  0  1  0  0  3  0  0  0  0  0  0
  190.0630  177.4110  138.0500 C   0  0  0  0  0  1  0  0  0  0  0  0
  187.5840  177.4140  137.9700 C   0  0  0  0  0  3  0  0  0  0  0  0
  186.8570  178.2700  136.9510 C   0  0  0  0  0  2  0  0  0  0  0  0
  186.3340  178.1730  138.3680 C   0  0  0  0  0  2  0  0  0  0  0  0
  1 13  2  0  0  0  0
  2  1  1  0  0  0  0
  2 18  1  0  0  0  0
  4  1  1  0  0  0  0
  4  7  1  0  0  0  0
  5  8  1  0  0  0  0
  6  3  2  0  0  0  0
  7 14  1  0  0  0  0
  8  7  2  0  0  0  0
  9 10  1  0  0  0  0
  9 18  2  0  0  0  0
 11  2  2  0  0  0  0
 12 16  1  0  0  0  0
 12  5  2  0  0  0  0
 13 14  1  0  0  0  0
 13  3  1  0  0  0  0
 15  9  1  0  0  0  0
 16  4  2  0  0  0  0
 17 11  1  0  0  0  0
 17 15  2  0  0  0  0
 18  6  1  0  0  0  0
 19 17  1  0  0  0  0
 20 19  1  0  0  0  0
 21 22  1  1  0  0  0
 21 20  1  0  0  0  0
 23 25  1  0  0  0  0
 23 21  1  0  0  0  0
 24 23  1  0  0  0  0
 24 25  1  0  0  0  0
M  END
>  <MODEL>
8

>  <REMARK>
 VINA RESULT:      -8.8      2.255      5.058
  Name = 
  4 active torsions:
  status: ('A' for Active; 'I' for Inactive)
    1  A    between atoms: C_2  and  C_21
    2  A    between atoms: C_6  and  N_15
    3  A    between atoms: C_6  and  C_23
    4  A    between atoms: N_15  and  C_21
                            x       y       z     vdW  Elec       q    Type
                         _______ _______ _______ _____ _____    ______ ____

>  <TORSDO>
F 4

$$$$
=
 OpenBabel11052412453D

 25 29  0  0  1  0  0  0  0  0999 V2000
  189.3960  177.3900  144.1820 C   0  0  0  0  0  0  0  0  0  0  0  0
  188.3960  177.6860  145.1280 C   0  0  0  0  0  0  0  0  0  0  0  0
  190.9200  176.7920  145.9760 C   0  0  0  0  0  3  0  0  0  0  0  0
  189.3360  177.4740  142.7780 C   0  0  0  0  0  0  0  0  0  0  0  0
  189.6000  177.5100  139.9960 C   0  0  0  0  0  3  0  0  0  0  0  0
  189.9450  177.0800  146.8820 N   0  0  0  0  0  0  0  0  0  0  0  0
  190.5310  177.0960  142.1670 C   0  0  0  0  0  0  0  0  0  0  0  0
  190.6880  177.1060  140.7830 C   0  0  0  0  0  3  0  0  0  0  0  0
  187.7240  177.8030  147.4610 C   0  0  0  0  0  0  0  0  0  0  0  0
  187.9980  177.6400  148.8490 N   0  0  0  0  0  1  0  0  0  0  0  0
  187.1220  178.1360  144.7640 C   0  0  0  0  0  3  0  0  0  0  0  0
  188.3880  177.8930  140.5990 C   0  0  0  0  0  3  0  0  0  0  0  0
  190.6410  176.9480  144.6230 C   0  0  0  0  0  0  0  0  0  0  0  0
  191.6740  176.6570  143.3230 S   0  0  0  0  0  0  0  0  0  0  0  0
  186.4970  178.2370  147.0670 N   0  0  0  0  0  0  0  0  0  0  0  0
  188.2490  177.8780  141.9960 C   0  0  0  0  0  3  0  0  0  0  0  0
  186.1810  178.4130  145.7560 C   0  0  0  0  0  0  0  0  0  0  0  0
  188.7060  177.5180  146.5020 C   0  0  0  0  0  0  0  0  0  0  0  0
  184.8170  178.8640  145.3750 C   0  0  0  0  0  2  0  0  0  0  0  0
  184.8020  179.2510  143.9760 N   0  0  0  0  0  2  0  0  0  0  0  0
  183.6590  178.5960  143.3620 C   0  0  1  0  0  3  0  0  0  0  0  0
  182.3990  178.9610  144.1260 C   0  0  0  0  0  1  0  0  0  0  0  0
  183.5270  179.0480  141.9190 C   0  0  0  0  0  3  0  0  0  0  0  0
  183.8100  177.8790  140.9960 C   0  0  0  0  0  2  0  0  0  0  0  0
  184.8710  178.9330  141.2280 C   0  0  0  0  0  2  0  0  0  0  0  0
  1 13  1  0  0  0  0
  1  2  2  0  0  0  0
  2 18  1  0  0  0  0
  3  6  1  0  0  0  0
  4  1  1  0  0  0  0
  5 12  2  0  0  0  0
  5  8  1  0  0  0  0
  7  4  1  0  0  0  0
  7 14  1  0  0  0  0
  8  7  2  0  0  0  0
  9 10  1  0  0  0  0
 11  2  1  0  0  0  0
 11 17  2  0  0  0  0
 12 16  1  0  0  0  0
 13  3  2  0  0  0  0
 14 13  1  0  0  0  0
 15  9  2  0  0  0  0
 16  4  2  0  0  0  0
 17 15  1  0  0  0  0
 18  6  2  0  0  0  0
 18  9  1  0  0  0  0
 19 17  1  0  0  0  0
 20 19  1  0  0  0  0
 21 20  1  0  0  0  0
 21 22  1  1  0  0  0
 23 21  1  0  0  0  0
 24 25  1  0  0  0  0
 24 23  1  0  0  0  0
 25 23  1  0  0  0  0
M  END
>  <MODEL>
9

>  <REMARK>
 VINA RESULT:      -8.6      2.348      4.757
  Name = 
  4 active torsions:
  status: ('A' for Active; 'I' for Inactive)
    1  A    between atoms: C_2  and  C_21
    2  A    between atoms: C_6  and  N_15
    3  A    between atoms: C_6  and  C_23
    4  A    between atoms: N_15  and  C_21
                            x       y       z     vdW  Elec       q    Type
                         _______ _______ _______ _____ _____    ______ ____

>  <TORSDO>
F 4

$$$$
