=
 OpenBabel11052416483D

 32 36  0  0  1  0  0  0  0  0999 V2000
  190.1250  177.5800  139.3330 C   0  0  0  0  0  3  0  0  0  0  0  0
  184.8590  178.9540  138.8680 C   0  0  0  0  0  3  0  0  0  0  0  0
  184.7530  178.5980  144.8490 C   0  0  0  0  0  3  0  0  0  0  0  0
  183.3720  178.7980  144.6340 C   0  0  0  0  0  3  0  0  0  0  0  0
  187.0590  177.8660  138.6180 C   0  0  0  0  0  0  0  0  0  0  0  0
  187.1570  178.5430  141.0090 C   0  0  0  0  0  3  0  0  0  0  0  0
  189.2320  178.3780  139.9090 C   0  0  0  0  0  3  0  0  0  0  0  0
  185.6400  178.5040  143.7620 C   0  0  0  0  0  3  0  0  0  0  0  0
  185.7130  178.5760  141.2420 C   0  0  0  0  0  0  0  0  0  0  0  0
  185.1040  178.6050  142.4800 C   0  0  0  0  0  0  0  0  0  0  0  0
  183.5050  178.9120  140.9520 N   0  0  0  0  0  0  0  0  0  0  0  0
  188.7490  176.1310  137.8640 C   0  0  0  0  0  3  0  0  0  0  0  0
  187.7730  178.2390  139.8680 C   0  0  0  0  0  0  0  0  0  0  0  0
  187.5310  176.9490  137.7720 C   0  0  0  0  0  3  0  0  0  0  0  0
  189.8740  176.3630  138.5490 C   0  0  0  0  0  0  0  0  0  0  0  0
  182.8610  178.9080  143.3280 C   0  0  0  0  0  3  0  0  0  0  0  0
  183.7620  178.8040  142.2690 C   0  0  0  0  0  0  0  0  0  0  0  0
  185.8800  178.5520  138.1760 N   0  0  0  0  0  0  0  0  0  0  0  0
  184.6970  178.7750  140.3160 C   0  0  0  0  0  0  0  0  0  0  0  0
  192.0760  175.4980  137.5310 C   0  0  0  0  0  0  0  0  0  0  0  0
  190.9750  175.4450  138.4490 N   0  0  0  0  0  2  0  0  0  0  0  0
  192.1400  176.3780  136.6310 O   0  0  0  0  0  0  0  0  0  0  0  0
  193.1550  174.4820  137.6350 C   0  0  0  0  0  1  0  0  0  0  0  0
  182.2130  179.2120  140.3410 C   0  0  0  0  0  2  0  0  0  0  0  0
  180.5650  177.4570  140.4380 O   0  0  0  0  0  0  0  0  0  0  0  0
  180.3860  176.1220  140.0170 C   0  0  2  0  0  3  0  0  0  0  0  0
  181.1750  178.2210  138.2310 C   0  0  1  0  0  3  0  0  0  0  0  0
  180.4360  177.0130  137.7170 C   0  0  0  0  0  3  0  0  0  0  0  0
  180.0230  176.0490  138.5520 C   0  0  0  0  0  3  0  0  0  0  0  0
  179.3040  175.4640  140.8470 C   0  0  0  0  0  1  0  0  0  0  0  0
  180.3190  179.3250  138.1850 O   0  0  0  0  0  1  0  0  0  0  0  0
  181.6370  177.9660  139.6790 C   0  0  1  0  0  3  0  0  0  0  0  0
  1  7  1  0  0  0  0
  2 19  2  0  0  0  0
  4  3  1  0  0  0  0
  5 13  1  0  0  0  0
  6  9  2  0  0  0  0
  8  3  2  0  0  0  0
  9 10  1  0  0  0  0
 10  8  1  0  0  0  0
 11 17  1  0  0  0  0
 12 15  1  0  0  0  0
 13  7  2  0  0  0  0
 13  6  1  0  0  0  0
 14 12  2  0  0  0  0
 14  5  1  0  0  0  0
 15  1  2  0  0  0  0
 16  4  2  0  0  0  0
 17 10  2  0  0  0  0
 17 16  1  0  0  0  0
 18  5  2  0  0  0  0
 18  2  1  0  0  0  0
 19 11  1  0  0  0  0
 19  9  1  0  0  0  0
 20 23  1  0  0  0  0
 20 21  1  0  0  0  0
 21 15  1  0  0  0  0
 22 20  2  0  0  0  0
 24 11  1  0  0  0  0
 26 25  1  0  0  0  0
 26 30  1  1  0  0  0
 27 31  1  1  0  0  0
 27 32  1  0  0  0  0
 28 27  1  0  0  0  0
 28 29  2  0  0  0  0
 29 26  1  0  0  0  0
 32 24  1  1  0  0  0
 32 25  1  0  0  0  0
M  END
>  <MODEL>
1

>  <REMARK>
 VINA RESULT:      -8.4      0.000      0.000
  Name = 
  3 active torsions:
  status: ('A' for Active; 'I' for Inactive)
    1  A    between atoms: N_10  and  C_24
    2  A    between atoms: N_16  and  C_27
    3  A    between atoms: C_27  and  C_32
                            x       y       z     vdW  Elec       q    Type
                         _______ _______ _______ _____ _____    ______ ____

>  <TORSDO>
F 3

$$$$
=
 OpenBabel11052416483D

 32 36  0  0  1  0  0  0  0  0999 V2000
  184.9760  179.0650  145.0740 C   0  0  0  0  0  3  0  0  0  0  0  0
  184.5320  179.0230  139.6310 C   0  0  0  0  0  3  0  0  0  0  0  0
  179.0260  176.8620  140.5940 C   0  0  0  0  0  3  0  0  0  0  0  0
  179.0510  176.7330  139.1870 C   0  0  0  0  0  3  0  0  0  0  0  0
  185.3060  178.7060  141.9520 C   0  0  0  0  0  0  0  0  0  0  0  0
  182.8430  178.6280  142.2810 C   0  0  0  0  0  3  0  0  0  0  0  0
  184.0970  179.3760  144.1270 C   0  0  0  0  0  3  0  0  0  0  0  0
  180.1500  177.3460  141.2870 C   0  0  0  0  0  3  0  0  0  0  0  0
  182.4980  178.1940  140.9270 C   0  0  0  0  0  0  0  0  0  0  0  0
  181.2770  177.6790  140.5390 C   0  0  0  0  0  0  0  0  0  0  0  0
  182.4810  177.9860  138.6840 N   0  0  0  0  0  0  0  0  0  0  0  0
  186.7290  177.8090  143.8500 C   0  0  0  0  0  3  0  0  0  0  0  0
  184.0650  178.8630  142.7550 C   0  0  0  0  0  0  0  0  0  0  0  0
  186.4450  178.2530  142.4780 C   0  0  0  0  0  3  0  0  0  0  0  0
  186.0980  178.1220  144.9880 C   0  0  0  0  0  0  0  0  0  0  0  0
  180.2000  177.0880  138.4570 C   0  0  0  0  0  3  0  0  0  0  0  0
  181.3020  177.5590  139.1720 C   0  0  0  0  0  0  0  0  0  0  0  0
  185.3980  179.1440  140.5890 N   0  0  0  0  0  0  0  0  0  0  0  0
  183.2200  178.3780  139.7540 C   0  0  0  0  0  0  0  0  0  0  0  0
  187.9340  177.6520  146.7320 C   0  0  0  0  0  0  0  0  0  0  0  0
  186.5870  177.6140  146.2400 N   0  0  0  0  0  2  0  0  0  0  0  0
  188.8780  178.1080  146.0320 O   0  0  0  0  0  0  0  0  0  0  0  0
  188.2240  177.1280  148.0910 C   0  0  0  0  0  1  0  0  0  0  0  0
  182.8510  178.0920  137.2750 C   0  0  0  0  0  2  0  0  0  0  0  0
  183.4500  175.7600  137.1710 O   0  0  0  0  0  0  0  0  0  0  0  0
  184.5930  174.9360  137.2460 C   0  0  2  0  0  3  0  0  0  0  0  0
  184.4090  177.1800  135.4720 C   0  0  1  0  0  3  0  0  0  0  0  0
  185.3060  176.0150  135.1450 C   0  0  0  0  0  3  0  0  0  0  0  0
  185.3630  174.9410  135.9460 C   0  0  0  0  0  3  0  0  0  0  0  0
  184.1810  173.5210  137.5940 C   0  0  0  0  0  1  0  0  0  0  0  0
  183.3190  177.1680  134.5960 O   0  0  0  0  0  1  0  0  0  0  0  0
  183.9230  177.0640  136.9290 C   0  0  1  0  0  3  0  0  0  0  0  0
  2 19  1  0  0  0  0
  2 18  2  0  0  0  0
  3  8  1  0  0  0  0
  4  3  2  0  0  0  0
  5 14  2  0  0  0  0
  5 13  1  0  0  0  0
  6 13  2  0  0  0  0
  7  1  2  0  0  0  0
  9  6  1  0  0  0  0
 10  9  1  0  0  0  0
 10  8  2  0  0  0  0
 11 17  1  0  0  0  0
 11 19  1  0  0  0  0
 12 15  2  0  0  0  0
 13  7  1  0  0  0  0
 14 12  1  0  0  0  0
 15  1  1  0  0  0  0
 15 21  1  0  0  0  0
 16 17  2  0  0  0  0
 16  4  1  0  0  0  0
 17 10  1  0  0  0  0
 18  5  1  0  0  0  0
 19  9  2  0  0  0  0
 20 23  1  0  0  0  0
 21 20  1  0  0  0  0
 22 20  2  0  0  0  0
 24 11  1  0  0  0  0
 25 26  1  0  0  0  0
 26 30  1  6  0  0  0
 27 31  1  6  0  0  0
 27 32  1  0  0  0  0
 28 27  1  0  0  0  0
 28 29  2  0  0  0  0
 29 26  1  0  0  0  0
 32 25  1  0  0  0  0
 32 24  1  6  0  0  0
M  END
>  <MODEL>
2

>  <REMARK>
 VINA RESULT:      -8.1      3.647      6.103
  Name = 
  3 active torsions:
  status: ('A' for Active; 'I' for Inactive)
    1  A    between atoms: N_10  and  C_24
    2  A    between atoms: N_16  and  C_27
    3  A    between atoms: C_27  and  C_32
                            x       y       z     vdW  Elec       q    Type
                         _______ _______ _______ _____ _____    ______ ____

>  <TORSDO>
F 3

$$$$
=
 OpenBabel11052416483D

 32 36  0  0  1  0  0  0  0  0999 V2000
  192.6480  176.5940  139.0710 C   0  0  0  0  0  3  0  0  0  0  0  0
  187.6990  178.8440  139.6030 C   0  0  0  0  0  3  0  0  0  0  0  0
  188.0010  176.9590  145.2830 C   0  0  0  0  0  3  0  0  0  0  0  0
  186.6660  177.4210  145.2940 C   0  0  0  0  0  3  0  0  0  0  0  0
  189.6390  177.5300  138.8280 C   0  0  0  0  0  0  0  0  0  0  0  0
  190.0450  177.5360  141.2810 C   0  0  0  0  0  3  0  0  0  0  0  0
  191.9630  177.3430  139.9290 C   0  0  0  0  0  3  0  0  0  0  0  0
  188.7680  177.0150  144.1060 C   0  0  0  0  0  3  0  0  0  0  0  0
  188.6540  177.7310  141.6900 C   0  0  0  0  0  0  0  0  0  0  0  0
  188.1590  177.5300  142.9630 C   0  0  0  0  0  0  0  0  0  0  0  0
  186.5280  178.4710  141.7620 N   0  0  0  0  0  0  0  0  0  0  0  0
  190.9210  175.8110  137.4730 C   0  0  0  0  0  3  0  0  0  0  0  0
  190.5050  177.4480  140.0340 C   0  0  0  0  0  0  0  0  0  0  0  0
  189.8690  176.8050  137.7330 C   0  0  0  0  0  3  0  0  0  0  0  0
  192.1200  175.6790  138.0510 C   0  0  0  0  0  0  0  0  0  0  0  0
  186.0820  177.9460  144.1270 C   0  0  0  0  0  3  0  0  0  0  0  0
  186.8640  177.9830  142.9710 C   0  0  0  0  0  0  0  0  0  0  0  0
  188.5730  178.4830  138.7140 N   0  0  0  0  0  0  0  0  0  0  0  0
  187.6210  178.3210  140.9710 C   0  0  0  0  0  0  0  0  0  0  0  0
  193.9660  174.7450  136.5180 C   0  0  0  0  0  0  0  0  0  0  0  0
  193.0240  174.6590  137.5970 N   0  0  0  0  0  2  0  0  0  0  0  0
  194.0400  175.7690  135.7880 O   0  0  0  0  0  0  0  0  0  0  0  0
  194.8640  173.5930  136.2480 C   0  0  0  0  0  1  0  0  0  0  0  0
  185.2680  179.1170  141.4060 C   0  0  0  0  0  2  0  0  0  0  0  0
  183.2050  178.0950  140.6960 O   0  0  0  0  0  0  0  0  0  0  0  0
  182.7510  177.0230  139.8990 C   0  0  2  0  0  3  0  0  0  0  0  0
  184.6040  178.9920  138.9460 C   0  0  1  0  0  3  0  0  0  0  0  0
  183.7050  178.2560  137.9860 C   0  0  0  0  0  3  0  0  0  0  0  0
  182.8030  177.3670  138.4280 C   0  0  0  0  0  3  0  0  0  0  0  0
  181.3350  176.6570  140.2900 C   0  0  0  0  0  1  0  0  0  0  0  0
  184.1730  180.3180  139.0380 O   0  0  0  0  0  1  0  0  0  0  0  0
  184.5460  178.3150  140.3290 C   0  0  1  0  0  3  0  0  0  0  0  0
  1  7  1  0  0  0  0
  2 19  2  0  0  0  0
  3  4  1  0  0  0  0
  5 13  1  0  0  0  0
  6  9  2  0  0  0  0
  7 13  2  0  0  0  0
  8  3  2  0  0  0  0
  9 10  1  0  0  0  0
 10 17  2  0  0  0  0
 10  8  1  0  0  0  0
 11 17  1  0  0  0  0
 12 14  2  0  0  0  0
 12 15  1  0  0  0  0
 13  6  1  0  0  0  0
 14  5  1  0  0  0  0
 15  1  2  0  0  0  0
 16  4  2  0  0  0  0
 17 16  1  0  0  0  0
 18  5  2  0  0  0  0
 18  2  1  0  0  0  0
 19  9  1  0  0  0  0
 19 11  1  0  0  0  0
 20 21  1  0  0  0  0
 21 15  1  0  0  0  0
 22 20  2  0  0  0  0
 23 20  1  0  0  0  0
 24 11  1  0  0  0  0
 26 30  1  1  0  0  0
 26 25  1  0  0  0  0
 27 31  1  1  0  0  0
 27 32  1  0  0  0  0
 28 29  2  0  0  0  0
 28 27  1  0  0  0  0
 29 26  1  0  0  0  0
 32 25  1  0  0  0  0
 32 24  1  1  0  0  0
M  END
>  <MODEL>
3

>  <REMARK>
 VINA RESULT:      -8.0      1.970      2.985
  Name = 
  3 active torsions:
  status: ('A' for Active; 'I' for Inactive)
    1  A    between atoms: N_10  and  C_24
    2  A    between atoms: N_16  and  C_27
    3  A    between atoms: C_27  and  C_32
                            x       y       z     vdW  Elec       q    Type
                         _______ _______ _______ _____ _____    ______ ____

>  <TORSDO>
F 3

$$$$
=
 OpenBabel11052416483D

 32 36  0  0  1  0  0  0  0  0999 V2000
  189.8070  177.7540  137.7600 C   0  0  0  0  0  3  0  0  0  0  0  0
  184.9650  179.0860  139.9080 C   0  0  0  0  0  3  0  0  0  0  0  0
  187.4440  177.5950  145.1560 C   0  0  0  0  0  3  0  0  0  0  0  0
  186.1230  177.8050  145.6090 C   0  0  0  0  0  3  0  0  0  0  0  0
  186.7620  178.1100  138.5270 C   0  0  0  0  0  0  0  0  0  0  0  0
  187.9320  178.3200  140.7110 C   0  0  0  0  0  3  0  0  0  0  0  0
  189.3070  178.4100  138.8020 C   0  0  0  0  0  3  0  0  0  0  0  0
  187.7630  177.7270  143.7930 C   0  0  0  0  0  3  0  0  0  0  0  0
  186.7380  178.2800  141.5550 C   0  0  0  0  0  0  0  0  0  0  0  0
  186.7300  178.0600  142.9180 C   0  0  0  0  0  0  0  0  0  0  0  0
  184.6510  178.6210  142.3290 N   0  0  0  0  0  0  0  0  0  0  0  0
  187.8370  176.5840  136.8100 C   0  0  0  0  0  3  0  0  0  0  0  0
  187.9700  178.2520  139.3810 C   0  0  0  0  0  0  0  0  0  0  0  0
  186.7570  177.3800  137.4100 C   0  0  0  0  0  3  0  0  0  0  0  0
  189.1610  176.7040  136.9610 C   0  0  0  0  0  0  0  0  0  0  0  0
  185.1040  178.1520  144.7040 C   0  0  0  0  0  3  0  0  0  0  0  0
  185.4470  178.2690  143.3560 C   0  0  0  0  0  0  0  0  0  0  0  0
  185.5550  178.8440  138.7790 N   0  0  0  0  0  0  0  0  0  0  0  0
  185.4360  178.6310  141.2210 C   0  0  0  0  0  0  0  0  0  0  0  0
  190.8310  174.7560  136.7340 C   0  0  0  0  0  0  0  0  0  0  0  0
  190.0460  175.8440  136.2250 N   0  0  0  0  0  2  0  0  0  0  0  0
  190.8620  174.4870  137.9650 O   0  0  0  0  0  0  0  0  0  0  0  0
  191.6380  173.9410  135.7900 C   0  0  0  0  0  1  0  0  0  0  0  0
  183.2450  179.0060  142.4130 C   0  0  0  0  0  2  0  0  0  0  0  0
  182.2520  177.2950  141.0370 O   0  0  0  0  0  0  0  0  0  0  0  0
  181.9990  177.0170  139.6770 C   0  0  2  0  0  3  0  0  0  0  0  0
  181.2210  179.4750  140.9310 C   0  0  1  0  0  3  0  0  0  0  0  0
  180.4670  178.9510  139.7360 C   0  0  0  0  0  3  0  0  0  0  0  0
  180.7960  177.7790  139.1720 C   0  0  0  0  0  3  0  0  0  0  0  0
  181.7810  175.5310  139.4900 C   0  0  0  0  0  1  0  0  0  0  0  0
  180.4130  179.3420  142.0640 O   0  0  0  0  0  1  0  0  0  0  0  0
  182.5260  178.6740  141.1100 C   0  0  1  0  0  3  0  0  0  0  0  0
  1  7  1  0  0  0  0
  2 19  2  0  0  0  0
  3  4  1  0  0  0  0
  5 18  2  0  0  0  0
  5 13  1  0  0  0  0
  6  9  2  0  0  0  0
  7 13  2  0  0  0  0
  8  3  2  0  0  0  0
  9 10  1  0  0  0  0
 10 17  2  0  0  0  0
 10  8  1  0  0  0  0
 11 24  1  0  0  0  0
 11 17  1  0  0  0  0
 12 15  1  0  0  0  0
 12 14  2  0  0  0  0
 13  6  1  0  0  0  0
 14  5  1  0  0  0  0
 15  1  2  0  0  0  0
 16  4  2  0  0  0  0
 17 16  1  0  0  0  0
 18  2  1  0  0  0  0
 19  9  1  0  0  0  0
 19 11  1  0  0  0  0
 20 22  2  0  0  0  0
 21 20  1  0  0  0  0
 21 15  1  0  0  0  0
 23 20  1  0  0  0  0
 25 32  1  0  0  0  0
 26 30  1  1  0  0  0
 26 25  1  0  0  0  0
 27 32  1  0  0  0  0
 27 31  1  1  0  0  0
 28 27  1  0  0  0  0
 29 26  1  0  0  0  0
 29 28  2  0  0  0  0
 32 24  1  1  0  0  0
M  END
>  <MODEL>
4

>  <REMARK>
 VINA RESULT:      -7.7      1.590      2.074
  Name = 
  3 active torsions:
  status: ('A' for Active; 'I' for Inactive)
    1  A    between atoms: N_10  and  C_24
    2  A    between atoms: N_16  and  C_27
    3  A    between atoms: C_27  and  C_32
                            x       y       z     vdW  Elec       q    Type
                         _______ _______ _______ _____ _____    ______ ____

>  <TORSDO>
F 3

$$$$
=
 OpenBabel11052416483D

 32 36  0  0  1  0  0  0  0  0999 V2000
  188.6110  178.2300  142.9700 C   0  0  0  0  0  3  0  0  0  0  0  0
  192.6520  177.1010  139.4730 C   0  0  0  0  0  3  0  0  0  0  0  0
  188.3380  174.8090  136.0020 C   0  0  0  0  0  3  0  0  0  0  0  0
  189.4520  174.4100  135.2300 C   0  0  0  0  0  3  0  0  0  0  0  0
  191.2400  177.2930  141.4880 C   0  0  0  0  0  0  0  0  0  0  0  0
  189.4950  177.1180  139.7250 C   0  0  0  0  0  3  0  0  0  0  0  0
  188.8710  178.2920  141.6680 C   0  0  0  0  0  3  0  0  0  0  0  0
  188.5180  175.4920  137.2180 C   0  0  0  0  0  3  0  0  0  0  0  0
  190.3100  176.4070  138.7400 C   0  0  0  0  0  0  0  0  0  0  0  0
  189.8250  175.7470  137.6280 C   0  0  0  0  0  0  0  0  0  0  0  0
  192.0520  175.7660  137.4650 N   0  0  0  0  0  0  0  0  0  0  0  0
  190.4840  176.8790  143.8730 C   0  0  0  0  0  3  0  0  0  0  0  0
  189.8790  177.5210  140.9350 C   0  0  0  0  0  0  0  0  0  0  0  0
  191.4530  177.0270  142.7770 C   0  0  0  0  0  3  0  0  0  0  0  0
  189.2420  177.3640  143.9750 C   0  0  0  0  0  0  0  0  0  0  0  0
  190.7600  174.6920  135.6650 C   0  0  0  0  0  3  0  0  0  0  0  0
  190.9090  175.3650  136.8780 C   0  0  0  0  0  0  0  0  0  0  0  0
  192.4260  177.4630  140.6980 N   0  0  0  0  0  0  0  0  0  0  0  0
  191.6930  176.4070  138.6070 C   0  0  0  0  0  0  0  0  0  0  0  0
  188.8940  177.3940  146.5260 C   0  0  0  0  0  0  0  0  0  0  0  0
  188.4840  177.1440  145.1750 N   0  0  0  0  0  2  0  0  0  0  0  0
  190.0580  177.7960  146.7970 O   0  0  0  0  0  0  0  0  0  0  0  0
  187.9310  177.1590  147.6320 C   0  0  0  0  0  1  0  0  0  0  0  0
  193.4020  175.6200  136.9270 C   0  0  0  0  0  2  0  0  0  0  0  0
  194.1560  173.4210  136.2920 O   0  0  0  0  0  0  0  0  0  0  0  0
  194.3080  172.1320  136.8450 C   0  0  2  0  0  3  0  0  0  0  0  0
  195.3760  174.4870  138.0810 C   0  0  1  0  0  3  0  0  0  0  0  0
  196.0110  173.1420  138.3170 C   0  0  0  0  0  3  0  0  0  0  0  0
  195.5460  172.0420  137.7060 C   0  0  0  0  0  3  0  0  0  0  0  0
  194.3780  171.1040  135.7350 C   0  0  0  0  0  1  0  0  0  0  0  0
  196.2290  175.2530  137.2810 O   0  0  0  0  0  1  0  0  0  0  0  0
  194.0150  174.3000  137.3830 C   0  0  1  0  0  3  0  0  0  0  0  0
  1 15  1  0  0  0  0
  2 18  2  0  0  0  0
  3  8  1  0  0  0  0
  4 16  1  0  0  0  0
  4  3  2  0  0  0  0
  5 14  2  0  0  0  0
  6 13  2  0  0  0  0
  7  1  2  0  0  0  0
  8 10  2  0  0  0  0
  9  6  1  0  0  0  0
 10  9  1  0  0  0  0
 11 19  1  0  0  0  0
 12 15  2  0  0  0  0
 13  5  1  0  0  0  0
 13  7  1  0  0  0  0
 14 12  1  0  0  0  0
 15 21  1  0  0  0  0
 16 17  2  0  0  0  0
 17 11  1  0  0  0  0
 17 10  1  0  0  0  0
 18  5  1  0  0  0  0
 19  9  2  0  0  0  0
 19  2  1  0  0  0  0
 20 22  2  0  0  0  0
 20 23  1  0  0  0  0
 21 20  1  0  0  0  0
 24 11  1  0  0  0  0
 25 26  1  0  0  0  0
 25 32  1  0  0  0  0
 26 30  1  6  0  0  0
 26 29  1  0  0  0  0
 27 31  1  6  0  0  0
 27 28  1  0  0  0  0
 29 28  2  0  0  0  0
 32 24  1  6  0  0  0
 32 27  1  0  0  0  0
M  END
>  <MODEL>
5

>  <REMARK>
 VINA RESULT:      -7.6      5.858     10.448
  Name = 
  3 active torsions:
  status: ('A' for Active; 'I' for Inactive)
    1  A    between atoms: N_10  and  C_24
    2  A    between atoms: N_16  and  C_27
    3  A    between atoms: C_27  and  C_32
                            x       y       z     vdW  Elec       q    Type
                         _______ _______ _______ _____ _____    ______ ____

>  <TORSDO>
F 3

$$$$
=
 OpenBabel11052416483D

 32 36  0  0  1  0  0  0  0  0999 V2000
  191.0760  177.9750  144.6920 C   0  0  0  0  0  3  0  0  0  0  0  0
  189.3420  178.1380  139.5160 C   0  0  0  0  0  3  0  0  0  0  0  0
  183.9050  178.9920  141.8880 C   0  0  0  0  0  3  0  0  0  0  0  0
  183.5180  178.8620  140.5360 C   0  0  0  0  0  3  0  0  0  0  0  0
  190.4130  177.4870  141.6410 C   0  0  0  0  0  0  0  0  0  0  0  0
  188.3820  178.6410  142.4920 C   0  0  0  0  0  3  0  0  0  0  0  0
  190.2520  178.6770  143.9220 C   0  0  0  0  0  3  0  0  0  0  0  0
  185.2550  178.8590  142.2610 C   0  0  0  0  0  3  0  0  0  0  0  0
  187.5500  178.4300  141.3070 C   0  0  0  0  0  0  0  0  0  0  0  0
  186.1790  178.5870  141.2550 C   0  0  0  0  0  0  0  0  0  0  0  0
  186.8840  178.2500  139.1630 N   0  0  0  0  0  0  0  0  0  0  0  0
  191.6500  176.0110  143.2910 C   0  0  0  0  0  3  0  0  0  0  0  0
  189.6410  178.2420  142.6630 C   0  0  0  0  0  0  0  0  0  0  0  0
  191.2850  176.5310  141.9660 C   0  0  0  0  0  3  0  0  0  0  0  0
  191.5480  176.5990  144.4890 C   0  0  0  0  0  0  0  0  0  0  0  0
  184.4760  178.5990  139.5400 C   0  0  0  0  0  3  0  0  0  0  0  0
  185.8060  178.4650  139.9400 C   0  0  0  0  0  0  0  0  0  0  0  0
  190.3650  177.8170  140.2460 N   0  0  0  0  0  0  0  0  0  0  0  0
  187.9580  178.2280  139.9940 C   0  0  0  0  0  0  0  0  0  0  0  0
  191.6390  176.1540  147.0240 C   0  0  0  0  0  0  0  0  0  0  0  0
  192.0250  175.9200  145.6610 N   0  0  0  0  0  2  0  0  0  0  0  0
  190.8440  177.0820  147.3320 O   0  0  0  0  0  0  0  0  0  0  0  0
  192.2040  175.2940  148.0940 C   0  0  0  0  0  1  0  0  0  0  0  0
  186.9000  178.1530  137.7060 C   0  0  0  0  0  2  0  0  0  0  0  0
  185.9390  176.0130  137.1580 O   0  0  0  0  0  0  0  0  0  0  0  0
  186.2720  174.6420  137.1850 C   0  0  2  0  0  3  0  0  0  0  0  0
  187.9360  176.6220  135.9480 C   0  0  1  0  0  3  0  0  0  0  0  0
  187.9700  175.1900  135.4800 C   0  0  0  0  0  3  0  0  0  0  0  0
  187.1610  174.2670  136.0220 C   0  0  0  0  0  3  0  0  0  0  0  0
  185.0090  173.8070  137.1550 C   0  0  0  0  0  1  0  0  0  0  0  0
  187.3160  177.4000  134.9660 O   0  0  0  0  0  1  0  0  0  0  0  0
  187.1540  176.7140  137.2720 C   0  0  1  0  0  3  0  0  0  0  0  0
  2 19  1  0  0  0  0
  2 18  2  0  0  0  0
  3  8  1  0  0  0  0
  4  3  2  0  0  0  0
  5 14  2  0  0  0  0
  5 13  1  0  0  0  0
  6 13  2  0  0  0  0
  7  1  2  0  0  0  0
  9  6  1  0  0  0  0
 10  9  1  0  0  0  0
 10  8  2  0  0  0  0
 11 17  1  0  0  0  0
 11 19  1  0  0  0  0
 12 15  2  0  0  0  0
 13  7  1  0  0  0  0
 14 12  1  0  0  0  0
 15  1  1  0  0  0  0
 15 21  1  0  0  0  0
 16 17  2  0  0  0  0
 16  4  1  0  0  0  0
 17 10  1  0  0  0  0
 18  5  1  0  0  0  0
 19  9  2  0  0  0  0
 20 22  2  0  0  0  0
 20 23  1  0  0  0  0
 21 20  1  0  0  0  0
 24 11  1  0  0  0  0
 25 26  1  0  0  0  0
 25 32  1  0  0  0  0
 26 30  1  6  0  0  0
 27 31  1  6  0  0  0
 27 32  1  0  0  0  0
 28 27  1  0  0  0  0
 28 29  2  0  0  0  0
 29 26  1  0  0  0  0
 32 24  1  6  0  0  0
M  END
>  <MODEL>
6

>  <REMARK>
 VINA RESULT:      -7.5      4.113      5.973
  Name = 
  3 active torsions:
  status: ('A' for Active; 'I' for Inactive)
    1  A    between atoms: N_10  and  C_24
    2  A    between atoms: N_16  and  C_27
    3  A    between atoms: C_27  and  C_32
                            x       y       z     vdW  Elec       q    Type
                         _______ _______ _______ _____ _____    ______ ____

>  <TORSDO>
F 3

$$$$
=
 OpenBabel11052416483D

 32 36  0  0  1  0  0  0  0  0999 V2000
  180.5140  179.9640  139.9160 C   0  0  0  0  0  3  0  0  0  0  0  0
  185.5220  177.8770  140.5450 C   0  0  0  0  0  3  0  0  0  0  0  0
  184.5570  178.6270  146.4120 C   0  0  0  0  0  3  0  0  0  0  0  0
  185.9110  178.2320  146.4790 C   0  0  0  0  0  3  0  0  0  0  0  0
  183.5860  179.2260  139.8260 C   0  0  0  0  0  0  0  0  0  0  0  0
  182.9470  178.7350  142.1780 C   0  0  0  0  0  3  0  0  0  0  0  0
  181.1600  179.0960  140.6880 C   0  0  0  0  0  3  0  0  0  0  0  0
  183.9110  178.7630  145.1700 C   0  0  0  0  0  3  0  0  0  0  0  0
  184.3020  178.5270  142.6890 C   0  0  0  0  0  0  0  0  0  0  0  0
  184.6580  178.5030  144.0220 C   0  0  0  0  0  0  0  0  0  0  0  0
  186.4540  177.8830  142.8490 N   0  0  0  0  0  0  0  0  0  0  0  0
  182.3330  181.1130  138.6840 C   0  0  0  0  0  3  0  0  0  0  0  0
  182.6050  179.0380  140.9270 C   0  0  0  0  0  0  0  0  0  0  0  0
  183.4170  180.1360  138.8660 C   0  0  0  0  0  3  0  0  0  0  0  0
  181.0780  181.0800  139.1460 C   0  0  0  0  0  0  0  0  0  0  0  0
  186.6360  177.9660  145.3030 C   0  0  0  0  0  3  0  0  0  0  0  0
  185.9730  178.1150  144.0850 C   0  0  0  0  0  0  0  0  0  0  0  0
  184.7170  178.3610  139.6510 N   0  0  0  0  0  0  0  0  0  0  0  0
  185.4350  178.1320  141.9880 C   0  0  0  0  0  0  0  0  0  0  0  0
  179.9910  182.7480  137.5130 C   0  0  0  0  0  0  0  0  0  0  0  0
  180.1580  182.1260  138.7950 N   0  0  0  0  0  2  0  0  0  0  0  0
  180.7320  182.4540  136.5370 O   0  0  0  0  0  0  0  0  0  0  0  0
  178.9310  183.7740  137.3390 C   0  0  0  0  0  1  0  0  0  0  0  0
  187.7810  177.3730  142.5150 C   0  0  0  0  0  2  0  0  0  0  0  0
  189.2970  177.0060  144.3520 O   0  0  0  0  0  0  0  0  0  0  0  0
  189.9040  177.7180  145.4070 C   0  0  2  0  0  3  0  0  0  0  0  0
  190.0180  178.5890  142.6790 C   0  0  1  0  0  3  0  0  0  0  0  0
  191.1000  178.9760  143.6540 C   0  0  0  0  0  3  0  0  0  0  0  0
  191.0790  178.5350  144.9200 C   0  0  0  0  0  3  0  0  0  0  0  0
  190.3610  176.7530  146.4810 C   0  0  0  0  0  1  0  0  0  0  0  0
  190.5410  177.6620  141.7730 O   0  0  0  0  0  1  0  0  0  0  0  0
  188.8300  177.9750  143.4440 C   0  0  1  0  0  3  0  0  0  0  0  0
  1  7  1  0  0  0  0
  2 19  2  0  0  0  0
  3  4  1  0  0  0  0
  5 13  1  0  0  0  0
  6  9  2  0  0  0  0
  7 13  2  0  0  0  0
  8  3  2  0  0  0  0
  9 10  1  0  0  0  0
 10 17  2  0  0  0  0
 10  8  1  0  0  0  0
 11 17  1  0  0  0  0
 12 14  2  0  0  0  0
 12 15  1  0  0  0  0
 13  6  1  0  0  0  0
 14  5  1  0  0  0  0
 15  1  2  0  0  0  0
 16  4  2  0  0  0  0
 17 16  1  0  0  0  0
 18  5  2  0  0  0  0
 18  2  1  0  0  0  0
 19  9  1  0  0  0  0
 19 11  1  0  0  0  0
 20 21  1  0  0  0  0
 21 15  1  0  0  0  0
 22 20  2  0  0  0  0
 23 20  1  0  0  0  0
 24 11  1  0  0  0  0
 25 26  1  0  0  0  0
 26 30  1  1  0  0  0
 27 31  1  6  0  0  0
 27 32  1  0  0  0  0
 27 28  1  0  0  0  0
 28 29  2  0  0  0  0
 29 26  1  0  0  0  0
 32 24  1  6  0  0  0
 32 25  1  0  0  0  0
M  END
>  <MODEL>
7

>  <REMARK>
 VINA RESULT:      -7.5      3.502      8.534
  Name = 
  3 active torsions:
  status: ('A' for Active; 'I' for Inactive)
    1  A    between atoms: N_10  and  C_24
    2  A    between atoms: N_16  and  C_27
    3  A    between atoms: C_27  and  C_32
                            x       y       z     vdW  Elec       q    Type
                         _______ _______ _______ _____ _____    ______ ____

>  <TORSDO>
F 3

$$$$
=
 OpenBabel11052416483D

 32 36  0  0  1  0  0  0  0  0999 V2000
  189.6470  177.8850  138.3940 C   0  0  0  0  0  3  0  0  0  0  0  0
  184.1980  178.2660  138.4000 C   0  0  0  0  0  3  0  0  0  0  0  0
  184.7570  179.0450  144.3160 C   0  0  0  0  0  3  0  0  0  0  0  0
  183.3470  178.9720  144.2530 C   0  0  0  0  0  3  0  0  0  0  0  0
  186.5260  177.5250  138.0510 C   0  0  0  0  0  0  0  0  0  0  0  0
  186.7340  178.6520  140.2580 C   0  0  0  0  0  3  0  0  0  0  0  0
  188.6830  178.6220  138.9380 C   0  0  0  0  0  3  0  0  0  0  0  0
  185.5330  178.8920  143.1530 C   0  0  0  0  0  3  0  0  0  0  0  0
  185.3400  178.4930  140.6700 C   0  0  0  0  0  0  0  0  0  0  0  0
  184.8620  178.6570  141.9550 C   0  0  0  0  0  0  0  0  0  0  0  0
  183.0900  178.4020  140.6200 N   0  0  0  0  0  0  0  0  0  0  0  0
  188.4230  175.9780  137.3880 C   0  0  0  0  0  3  0  0  0  0  0  0
  187.2790  178.2410  139.1140 C   0  0  0  0  0  0  0  0  0  0  0  0
  187.0720  176.5530  137.3190 C   0  0  0  0  0  3  0  0  0  0  0  0
  189.5480  176.5170  137.8690 C   0  0  0  0  0  0  0  0  0  0  0  0
  182.6970  178.7460  143.0270 C   0  0  0  0  0  3  0  0  0  0  0  0
  183.4930  178.5900  141.8910 C   0  0  0  0  0  0  0  0  0  0  0  0
  185.2010  177.9120  137.6580 N   0  0  0  0  0  0  0  0  0  0  0  0
  184.2170  178.3430  139.8650 C   0  0  0  0  0  0  0  0  0  0  0  0
  191.6190  175.6190  136.6290 C   0  0  0  0  0  0  0  0  0  0  0  0
  190.7840  175.7900  137.7830 N   0  0  0  0  0  2  0  0  0  0  0  0
  191.2820  176.0700  135.5010 O   0  0  0  0  0  0  0  0  0  0  0  0
  192.9000  174.8800  136.7640 C   0  0  0  0  0  1  0  0  0  0  0  0
  181.7100  178.3650  140.1430 C   0  0  0  0  0  2  0  0  0  0  0  0
  180.9860  179.9640  138.4930 O   0  0  0  0  0  0  0  0  0  0  0  0
  180.9480  181.3590  138.2870 C   0  0  2  0  0  3  0  0  0  0  0  0
  179.9190  180.1090  140.6520 C   0  0  1  0  0  3  0  0  0  0  0  0
  179.3690  181.4310  140.1810 C   0  0  0  0  0  3  0  0  0  0  0  0
  179.8120  182.0000  139.0500 C   0  0  0  0  0  3  0  0  0  0  0  0
  180.8030  181.6550  136.8090 C   0  0  0  0  0  1  0  0  0  0  0  0
  178.9540  179.1200  140.4390 O   0  0  0  0  0  1  0  0  0  0  0  0
  181.2040  179.7780  139.8710 C   0  0  1  0  0  3  0  0  0  0  0  0
  1  7  1  0  0  0  0
  2 19  2  0  0  0  0
  4  3  1  0  0  0  0
  5 13  1  0  0  0  0
  6  9  2  0  0  0  0
  7 13  2  0  0  0  0
  8  3  2  0  0  0  0
  9 10  1  0  0  0  0
 10  8  1  0  0  0  0
 11 17  1  0  0  0  0
 12 15  1  0  0  0  0
 13  6  1  0  0  0  0
 14 12  2  0  0  0  0
 14  5  1  0  0  0  0
 15  1  2  0  0  0  0
 16  4  2  0  0  0  0
 17 10  2  0  0  0  0
 17 16  1  0  0  0  0
 18  5  2  0  0  0  0
 18  2  1  0  0  0  0
 19 11  1  0  0  0  0
 19  9  1  0  0  0  0
 20 23  1  0  0  0  0
 20 21  1  0  0  0  0
 21 15  1  0  0  0  0
 22 20  2  0  0  0  0
 24 11  1  0  0  0  0
 25 32  1  0  0  0  0
 26 30  1  6  0  0  0
 26 25  1  0  0  0  0
 26 29  1  0  0  0  0
 27 31  1  6  0  0  0
 28 27  1  0  0  0  0
 29 28  2  0  0  0  0
 32 24  1  6  0  0  0
 32 27  1  0  0  0  0
M  END
>  <MODEL>
8

>  <REMARK>
 VINA RESULT:      -7.2      1.611      2.498
  Name = 
  3 active torsions:
  status: ('A' for Active; 'I' for Inactive)
    1  A    between atoms: N_10  and  C_24
    2  A    between atoms: N_16  and  C_27
    3  A    between atoms: C_27  and  C_32
                            x       y       z     vdW  Elec       q    Type
                         _______ _______ _______ _____ _____    ______ ____

>  <TORSDO>
F 3

$$$$
=
 OpenBabel11052416483D

 32 36  0  0  1  0  0  0  0  0999 V2000
  190.4110  177.9510  144.6110 C   0  0  0  0  0  3  0  0  0  0  0  0
  187.0020  178.2440  140.3540 C   0  0  0  0  0  3  0  0  0  0  0  0
  182.7090  178.9410  144.4770 C   0  0  0  0  0  3  0  0  0  0  0  0
  181.8810  178.8460  143.3360 C   0  0  0  0  0  3  0  0  0  0  0  0
  188.7420  177.5460  141.9580 C   0  0  0  0  0  0  0  0  0  0  0  0
  187.1220  178.6420  143.4940 C   0  0  0  0  0  3  0  0  0  0  0  0
  189.3690  178.6640  144.1950 C   0  0  0  0  0  3  0  0  0  0  0  0
  184.1050  178.8180  144.3590 C   0  0  0  0  0  3  0  0  0  0  0  0
  185.9340  178.4540  142.6610 C   0  0  0  0  0  0  0  0  0  0  0  0
  184.6280  178.5910  143.0880 C   0  0  0  0  0  0  0  0  0  0  0  0
  184.5730  178.3280  140.8710 N   0  0  0  0  0  0  0  0  0  0  0  0
  190.4770  176.0400  143.0320 C   0  0  0  0  0  3  0  0  0  0  0  0
  188.3650  178.2570  143.2080 C   0  0  0  0  0  0  0  0  0  0  0  0
  189.6760  176.5950  141.9310 C   0  0  0  0  0  3  0  0  0  0  0  0
  190.7900  176.5900  144.2110 C   0  0  0  0  0  0  0  0  0  0  0  0
  182.4390  178.6280  142.0640 C   0  0  0  0  0  3  0  0  0  0  0  0
  183.8260  178.5030  141.9780 C   0  0  0  0  0  0  0  0  0  0  0  0
  188.2150  177.9180  140.6770 N   0  0  0  0  0  0  0  0  0  0  0  0
  185.8670  178.2980  141.2820 C   0  0  0  0  0  0  0  0  0  0  0  0
  191.7070  176.0290  146.5510 C   0  0  0  0  0  0  0  0  0  0  0  0
  191.6440  175.8840  145.1250 N   0  0  0  0  0  2  0  0  0  0  0  0
  191.0170  176.8930  147.1560 O   0  0  0  0  0  0  0  0  0  0  0  0
  192.6180  175.1510  147.3290 C   0  0  0  0  0  1  0  0  0  0  0  0
  184.0870  178.2760  139.4950 C   0  0  0  0  0  2  0  0  0  0  0  0
  181.9570  177.2130  139.1200 O   0  0  0  0  0  0  0  0  0  0  0  0
  181.3210  175.9700  139.3260 C   0  0  2  0  0  3  0  0  0  0  0  0
  183.8510  176.2210  138.0010 C   0  0  1  0  0  3  0  0  0  0  0  0
  182.9400  175.0590  137.7010 C   0  0  0  0  0  3  0  0  0  0  0  0
  181.7350  174.9590  138.2820 C   0  0  0  0  0  3  0  0  0  0  0  0
  179.8190  176.1530  139.2960 C   0  0  0  0  0  1  0  0  0  0  0  0
  183.8690  177.0750  136.8950 O   0  0  0  0  0  1  0  0  0  0  0  0
  183.3380  176.9710  139.2460 C   0  0  1  0  0  3  0  0  0  0  0  0
  2 18  2  0  0  0  0
  2 19  1  0  0  0  0
  4  3  2  0  0  0  0
  5 13  1  0  0  0  0
  7  1  2  0  0  0  0
  8  3  1  0  0  0  0
  9 10  1  0  0  0  0
  9  6  1  0  0  0  0
 10  8  2  0  0  0  0
 11 19  1  0  0  0  0
 11 17  1  0  0  0  0
 12 15  2  0  0  0  0
 13  6  2  0  0  0  0
 13  7  1  0  0  0  0
 14  5  2  0  0  0  0
 14 12  1  0  0  0  0
 15  1  1  0  0  0  0
 15 21  1  0  0  0  0
 16  4  1  0  0  0  0
 17 16  2  0  0  0  0
 17 10  1  0  0  0  0
 18  5  1  0  0  0  0
 19  9  2  0  0  0  0
 20 22  2  0  0  0  0
 20 23  1  0  0  0  0
 21 20  1  0  0  0  0
 24 11  1  0  0  0  0
 25 32  1  0  0  0  0
 25 26  1  0  0  0  0
 26 30  1  6  0  0  0
 27 31  1  6  0  0  0
 27 32  1  0  0  0  0
 28 27  1  0  0  0  0
 28 29  2  0  0  0  0
 29 26  1  0  0  0  0
 32 24  1  6  0  0  0
M  END
>  <MODEL>
9

>  <REMARK>
 VINA RESULT:      -7.1      3.763      4.325
  Name = 
  3 active torsions:
  status: ('A' for Active; 'I' for Inactive)
    1  A    between atoms: N_10  and  C_24
    2  A    between atoms: N_16  and  C_27
    3  A    between atoms: C_27  and  C_32
                            x       y       z     vdW  Elec       q    Type
                         _______ _______ _______ _____ _____    ______ ____

>  <TORSDO>
F 3

$$$$
