=
 OpenBabel11052415003D

 55 59  0  0  1  0  0  0  0  0999 V2000
  191.0590  177.5090  142.8240 C   0  0  0  0  0  2  0  0  0  0  0  0
  189.4070  177.6820  145.0320 C   0  0  2  0  0  3  0  0  0  0  0  0
  188.8170  177.9330  143.7570 O   0  0  0  0  0  0  0  0  0  0  0  0
  191.4760  177.2890  144.2740 C   0  0  0  0  0  2  0  0  0  0  0  0
  189.5410  177.3290  142.6980 C   0  0  1  0  0  3  0  0  0  0  0  0
  190.4250  176.7070  145.0000 O   0  0  0  0  0  0  0  0  0  0  0  0
  188.3380  177.2810  146.0340 C   0  0  0  0  0  2  0  0  0  0  0  0
  187.2660  178.3550  146.1070 C   0  0  0  0  0  2  0  0  0  0  0  0
  185.9600  177.8370  145.5320 C   0  0  0  0  0  2  0  0  0  0  0  0
  184.7940  178.6310  146.0960 C   0  0  0  0  0  2  0  0  0  0  0  0
  183.7110  178.8310  145.0480 C   0  0  0  0  0  2  0  0  0  0  0  0
  184.3160  179.2140  143.7070 C   0  0  0  0  0  2  0  0  0  0  0  0
  183.3590  178.9560  142.6400 N   0  0  0  0  0  2  0  0  0  0  0  0
  183.7630  178.4430  141.3680 C   0  0  0  0  0  0  0  0  0  0  0  0
  184.9800  178.2090  141.1400 O   0  0  0  0  0  0  0  0  0  0  0  0
  183.7960  177.9530  138.1650 O   0  0  0  0  0  1  0  0  0  0  0  0
  182.7160  178.1480  140.3180 C   0  0  1  0  0  0  0  0  0  0  0  0
  183.6440  180.1640  139.0670 C   0  0  0  0  0  1  0  0  0  0  0  0
  182.9950  178.7780  138.9600 C   0  0  1  0  0  0  0  0  0  0  0  0
  180.6550  178.9980  139.4460 O   0  0  0  0  0  0  0  0  0  0  0  0
  181.5790  178.8540  138.3900 C   0  0  1  0  0  3  0  0  0  0  0  0
  182.5840  176.7570  140.1780 O   0  0  0  0  0  1  0  0  0  0  0  0
  181.3590  178.7680  140.6450 C   0  0  1  0  0  3  0  0  0  0  0  0
  180.5410  177.9550  141.5990 C   0  0  0  0  0  3  0  0  0  0  0  0
  180.3440  178.3580  142.7330 O   0  0  0  0  0  0  0  0  0  0  0  0
  181.3720  179.9220  137.3220 C   0  0  0  0  0  2  0  0  0  0  0  0
  180.6440  179.3590  136.1560 C   0  0  0  0  0  0  0  0  0  0  0  0
  180.5640  180.0220  135.0930 O   0  0  0  0  0  0  0  0  0  0  0  0
  180.0330  178.1190  136.2480 O   0  0  0  0  0  1  0  0  0  0  0  0
  189.0410  177.8370  141.3540 C   0  0  0  0  0  2  0  0  0  0  0  0
  189.9870  177.4360  140.2330 C   0  0  0  0  0  2  0  0  0  0  0  0
  189.3060  176.6660  139.2880 O   0  0  0  0  0  0  0  0  0  0  0  0
  189.8410  177.0610  138.0540 C   0  0  1  0  0  3  0  0  0  0  0  0
  192.6740  176.2770  138.3950 C   0  0  0  0  0  2  0  0  0  0  0  0
  193.9080  174.6880  137.0180 N   0  0  0  0  0  0  0  0  0  0  0  0
  191.7540  175.5760  137.4470 C   0  0  1  0  0  0  0  0  0  0  0  0
  190.3000  175.8280  137.2750 C   0  0  1  0  0  3  0  0  0  0  0  0
  192.5230  174.6660  136.5410 C   0  0  0  0  0  2  0  0  0  0  0  0
  194.0410  175.8910  137.8560 C   0  0  0  0  0  2  0  0  0  0  0  0
  190.7870  174.8500  138.1640 O   0  0  0  0  0  0  0  0  0  0  0  0
  194.7880  174.8390  135.8590 C   0  0  0  0  0  3  0  0  0  0  0  0
  196.0130  175.3860  136.2540 O   0  0  0  0  0  1  0  0  0  0  0  0
  195.0230  173.5940  135.2660 O   0  0  0  0  0  1  0  0  0  0  0  0
  189.2390  177.9920  135.9220 O   0  0  0  0  0  1  0  0  0  0  0  0
  188.8260  177.8930  137.2540 C   0  0  0  0  0  0  0  0  0  0  0  0
  188.7330  179.1720  137.8050 O   0  0  0  0  0  1  0  0  0  0  0  0
  187.4570  177.2180  137.3320 C   0  0  0  0  0  2  0  0  0  0  0  0
  187.3000  176.0650  136.3480 C   0  0  0  0  0  2  0  0  0  0  0  0
  186.7190  173.7570  136.2680 O   0  0  0  0  0  0  0  0  0  0  0  0
  185.5160  174.4230  135.9590 C   0  0  2  0  0  3  0  0  0  0  0  0
  186.4700  174.9560  136.9640 C   0  0  2  0  0  3  0  0  0  0  0  0
  184.5670  172.3000  137.0760 C   0  0  0  0  0  1  0  0  0  0  0  0
  183.2020  173.6560  135.5450 C   0  0  0  0  0  1  0  0  0  0  0  0
  183.7910  174.5420  137.7550 C   0  0  0  0  0  1  0  0  0  0  0  0
  184.2970  173.7190  136.5870 C   0  0  0  0  0  0  0  0  0  0  0  0
  1  4  1  0  0  0  0
  2  7  1  1  0  0  0
  3  2  1  0  0  0  0
  4  6  1  0  0  0  0
  5 30  1  6  0  0  0
  5  1  1  0  0  0  0
  5  3  1  0  0  0  0
  6  2  1  0  0  0  0
  7  8  1  0  0  0  0
  9 10  1  0  0  0  0
  9  8  1  0  0  0  0
 11 10  1  0  0  0  0
 12 11  1  0  0  0  0
 13 12  1  0  0  0  0
 14 13  1  0  0  0  0
 15 14  2  0  0  0  0
 16 19  1  0  0  0  0
 17 22  1  6  0  0  0
 17 23  1  0  0  0  0
 17 14  1  0  0  0  0
 19 18  1  1  0  0  0
 19 17  1  0  0  0  0
 20 23  1  0  0  0  0
 21 26  1  6  0  0  0
 21 19  1  0  0  0  0
 21 20  1  0  0  0  0
 23 24  1  1  0  0  0
 24 25  2  0  0  0  0
 27 29  1  0  0  0  0
 27 26  1  0  0  0  0
 28 27  2  0  0  0  0
 31 30  1  0  0  0  0
 32 31  1  0  0  0  0
 33 32  1  1  0  0  0
 35 39  1  0  0  0  0
 36 38  1  6  0  0  0
 36 40  1  0  0  0  0
 36 34  1  0  0  0  0
 37 36  1  0  0  0  0
 37 33  1  1  0  0  0
 37 40  1  0  0  0  0
 38 35  1  0  0  0  0
 39 34  1  0  0  0  0
 41 42  1  0  0  0  0
 41 35  1  0  0  0  0
 43 41  1  0  0  0  0
 44 45  1  0  0  0  0
 45 47  1  0  0  0  0
 45 46  1  0  0  0  0
 45 33  1  0  0  0  0
 48 47  1  0  0  0  0
 49 51  1  0  0  0  0
 50 49  1  0  0  0  0
 50 55  1  1  0  0  0
 50 51  1  0  0  0  0
 51 48  1  6  0  0  0
 53 55  1  0  0  0  0
 55 52  1  0  0  0  0
 55 54  1  0  0  0  0
M  END
>  <MODEL>
1

>  <REMARK>
 VINA RESULT:      -6.8      0.000      0.000
  Name = 
  22 active torsions:
  status: ('A' for Active; 'I' for Inactive)
    1  A    between atoms: C_1  and  C_53
    2  A    between atoms: C_2  and  C_28
    3  A    between atoms: C_2  and  C_44
    4  A    between atoms: C_6  and  C_20
    5  A    between atoms: N_7  and  C_22
    6  A    between atoms: C_8  and  C_22
    7  A    between atoms: C_8  and  C_35
    8  A    between atoms: C_10  and  N_32
    9  A    between atoms: C_11  and  C_29
   10  A    between atoms: C_16  and  C_17
   11  A    between atoms: C_16  and  C_26
   12  A    between atoms: C_17  and  C_33
   13  A    between atoms: C_19  and  C_40
   14  A    between atoms: C_26  and  C_45
   15  A    between atoms: C_27  and  C_54
   16  A    between atoms: C_28  and  O_49
   17  A    between atoms: C_29  and  C_38
   18  A    between atoms: C_33  and  C_36
   19  A    between atoms: C_33  and  O_49
   20  A    between atoms: C_35  and  C_43
   21  A    between atoms: C_43  and  C_51
   22  A    between atoms: C_51  and  C_54
                            x       y       z     vdW  Elec       q    Type
                         _______ _______ _______ _____ _____    ______ ____

>  <TORSDO>
F 22

$$$$
=
 OpenBabel11052415003D

 55 59  0  0  1  0  0  0  0  0999 V2000
  185.2560  178.7550  144.1680 C   0  0  0  0  0  2  0  0  0  0  0  0
  182.6310  179.3730  143.5670 C   0  0  2  0  0  3  0  0  0  0  0  0
  183.5450  179.2830  142.4740 O   0  0  0  0  0  0  0  0  0  0  0  0
  184.1200  178.9080  145.1720 C   0  0  0  0  0  2  0  0  0  0  0  0
  184.6720  178.4780  142.7770 C   0  0  1  0  0  3  0  0  0  0  0  0
  182.9110  178.4680  144.6120 O   0  0  0  0  0  0  0  0  0  0  0  0
  181.2080  179.1730  143.0770 C   0  0  0  0  0  2  0  0  0  0  0  0
  181.2160  178.4880  141.7210 C   0  0  0  0  0  2  0  0  0  0  0  0
  179.9120  178.7500  140.9900 C   0  0  0  0  0  2  0  0  0  0  0  0
  180.0610  179.9590  140.0820 C   0  0  0  0  0  2  0  0  0  0  0  0
  179.7830  179.5900  138.6330 C   0  0  0  0  0  2  0  0  0  0  0  0
  179.4920  178.1050  138.4950 C   0  0  0  0  0  2  0  0  0  0  0  0
  180.3140  177.5350  137.4380 N   0  0  0  0  0  2  0  0  0  0  0  0
  181.5500  176.8710  137.7120 C   0  0  0  0  0  0  0  0  0  0  0  0
  181.9620  176.7730  138.9000 O   0  0  0  0  0  0  0  0  0  0  0  0
  180.8950  174.7430  135.3580 O   0  0  0  0  0  1  0  0  0  0  0  0
  182.3330  176.2550  136.5760 C   0  0  1  0  0  0  0  0  0  0  0  0
  181.6070  174.0020  137.5190 C   0  0  0  0  0  1  0  0  0  0  0  0
  181.9570  174.8130  136.2640 C   0  0  1  0  0  0  0  0  0  0  0  0
  184.3440  175.0300  136.1430 O   0  0  0  0  0  0  0  0  0  0  0  0
  183.2470  174.3210  135.6090 C   0  0  1  0  0  3  0  0  0  0  0  0
  182.1760  177.0460  135.4260 O   0  0  0  0  0  1  0  0  0  0  0  0
  183.8180  176.0980  136.8990 C   0  0  1  0  0  3  0  0  0  0  0  0
  184.6150  177.3470  136.6870 C   0  0  0  0  0  3  0  0  0  0  0  0
  185.4940  177.3760  135.8420 O   0  0  0  0  0  0  0  0  0  0  0  0
  183.4730  172.8150  135.6800 C   0  0  0  0  0  2  0  0  0  0  0  0
  184.7340  172.5100  136.4030 C   0  0  0  0  0  0  0  0  0  0  0  0
  185.7460  172.1420  135.7590 O   0  0  0  0  0  0  0  0  0  0  0  0
  184.7870  172.6060  137.7840 O   0  0  0  0  0  1  0  0  0  0  0  0
  185.7360  178.6240  141.7000 C   0  0  0  0  0  2  0  0  0  0  0  0
  187.0460  177.9870  142.1350 C   0  0  0  0  0  2  0  0  0  0  0  0
  188.1220  178.6830  141.5810 O   0  0  0  0  0  0  0  0  0  0  0  0
  188.7490  177.7570  140.7370 C   0  0  1  0  0  3  0  0  0  0  0  0
  188.0270  176.4270  138.1940 C   0  0  0  0  0  2  0  0  0  0  0  0
  188.9250  176.9480  135.9870 N   0  0  0  0  0  0  0  0  0  0  0  0
  188.8670  177.6630  138.2450 C   0  0  1  0  0  0  0  0  0  0  0  0
  189.2020  178.4570  139.4550 C   0  0  1  0  0  3  0  0  0  0  0  0
  189.4910  177.9330  136.9100 C   0  0  0  0  0  2  0  0  0  0  0  0
  188.3620  175.8710  136.8200 C   0  0  0  0  0  2  0  0  0  0  0  0
  188.0860  178.7590  138.6500 O   0  0  0  0  0  0  0  0  0  0  0  0
  190.0170  176.3850  135.1920 C   0  0  0  0  0  3  0  0  0  0  0  0
  191.1530  176.2140  135.9890 O   0  0  0  0  0  1  0  0  0  0  0  0
  189.6430  175.1430  134.6690 O   0  0  0  0  0  1  0  0  0  0  0  0
  190.7940  178.0250  141.9700 O   0  0  0  0  0  1  0  0  0  0  0  0
  189.9200  177.0650  141.4510 C   0  0  0  0  0  0  0  0  0  0  0  0
  190.6080  176.2560  140.5460 O   0  0  0  0  0  1  0  0  0  0  0  0
  189.3700  176.1920  142.5790 C   0  0  0  0  0  2  0  0  0  0  0  0
  190.0110  176.4820  143.9300 C   0  0  0  0  0  2  0  0  0  0  0  0
  189.3040  178.3760  145.1880 O   0  0  0  0  0  0  0  0  0  0  0  0
  189.6390  177.4200  146.1690 C   0  0  2  0  0  3  0  0  0  0  0  0
  188.9810  177.0370  144.8940 C   0  0  2  0  0  3  0  0  0  0  0  0
  187.2490  177.9050  147.0140 C   0  0  0  0  0  1  0  0  0  0  0  0
  189.2210  178.4440  148.3810 C   0  0  0  0  0  1  0  0  0  0  0  0
  188.6040  176.0990  148.0130 C   0  0  0  0  0  1  0  0  0  0  0  0
  188.6680  177.4680  147.3660 C   0  0  0  0  0  0  0  0  0  0  0  0
  1  4  1  0  0  0  0
  2  7  1  6  0  0  0
  2  6  1  0  0  0  0
  3  5  1  0  0  0  0
  3  2  1  0  0  0  0
  5 30  1  6  0  0  0
  5  1  1  0  0  0  0
  6  4  1  0  0  0  0
  8  7  1  0  0  0  0
  9  8  1  0  0  0  0
 10  9  1  0  0  0  0
 11 10  1  0  0  0  0
 12 11  1  0  0  0  0
 13 14  1  0  0  0  0
 13 12  1  0  0  0  0
 14 15  2  0  0  0  0
 16 19  1  0  0  0  0
 17 22  1  6  0  0  0
 17 23  1  0  0  0  0
 17 14  1  0  0  0  0
 19 17  1  0  0  0  0
 19 18  1  1  0  0  0
 20 23  1  0  0  0  0
 21 26  1  1  0  0  0
 21 20  1  0  0  0  0
 21 19  1  0  0  0  0
 23 24  1  6  0  0  0
 25 24  2  0  0  0  0
 26 27  1  0  0  0  0
 27 29  1  0  0  0  0
 28 27  2  0  0  0  0
 30 31  1  0  0  0  0
 32 31  1  0  0  0  0
 33 45  1  0  0  0  0
 33 32  1  1  0  0  0
 34 36  1  0  0  0  0
 35 39  1  0  0  0  0
 35 38  1  0  0  0  0
 36 38  1  6  0  0  0
 36 40  1  0  0  0  0
 36 37  1  0  0  0  0
 37 33  1  1  0  0  0
 39 34  1  0  0  0  0
 40 37  1  0  0  0  0
 41 35  1  0  0  0  0
 41 42  1  0  0  0  0
 43 41  1  0  0  0  0
 45 44  1  0  0  0  0
 45 47  1  0  0  0  0
 46 45  1  0  0  0  0
 47 48  1  0  0  0  0
 49 50  1  0  0  0  0
 50 55  1  1  0  0  0
 51 48  1  6  0  0  0
 51 49  1  0  0  0  0
 51 50  1  0  0  0  0
 52 55  1  0  0  0  0
 55 54  1  0  0  0  0
 55 53  1  0  0  0  0
M  END
>  <MODEL>
2

>  <REMARK>
 VINA RESULT:      -6.7      2.574      7.017
  Name = 
  22 active torsions:
  status: ('A' for Active; 'I' for Inactive)
    1  A    between atoms: C_1  and  C_53
    2  A    between atoms: C_2  and  C_28
    3  A    between atoms: C_2  and  C_44
    4  A    between atoms: C_6  and  C_20
    5  A    between atoms: N_7  and  C_22
    6  A    between atoms: C_8  and  C_22
    7  A    between atoms: C_8  and  C_35
    8  A    between atoms: C_10  and  N_32
    9  A    between atoms: C_11  and  C_29
   10  A    between atoms: C_16  and  C_17
   11  A    between atoms: C_16  and  C_26
   12  A    between atoms: C_17  and  C_33
   13  A    between atoms: C_19  and  C_40
   14  A    between atoms: C_26  and  C_45
   15  A    between atoms: C_27  and  C_54
   16  A    between atoms: C_28  and  O_49
   17  A    between atoms: C_29  and  C_38
   18  A    between atoms: C_33  and  C_36
   19  A    between atoms: C_33  and  O_49
   20  A    between atoms: C_35  and  C_43
   21  A    between atoms: C_43  and  C_51
   22  A    between atoms: C_51  and  C_54
                            x       y       z     vdW  Elec       q    Type
                         _______ _______ _______ _____ _____    ______ ____

>  <TORSDO>
F 22

$$$$
=
 OpenBabel11052415003D

 55 59  0  0  1  0  0  0  0  0999 V2000
  191.4560  177.3220  144.7890 C   0  0  0  0  0  2  0  0  0  0  0  0
  188.7160  177.6290  144.9740 C   0  0  2  0  0  3  0  0  0  0  0  0
  189.3050  177.8030  143.6860 O   0  0  0  0  0  0  0  0  0  0  0  0
  190.6240  177.1890  146.0600 C   0  0  0  0  0  2  0  0  0  0  0  0
  190.5500  177.1350  143.5660 C   0  0  1  0  0  3  0  0  0  0  0  0
  189.3610  176.6530  145.7620 O   0  0  0  0  0  0  0  0  0  0  0  0
  187.2420  177.2900  144.8350 C   0  0  0  0  0  2  0  0  0  0  0  0
  186.4300  178.5630  144.6670 C   0  0  0  0  0  2  0  0  0  0  0  0
  185.2730  178.3280  143.7140 C   0  0  0  0  0  2  0  0  0  0  0  0
  184.1430  179.2960  144.0230 C   0  0  0  0  0  2  0  0  0  0  0  0
  182.8090  178.5700  144.1050 C   0  0  0  0  0  2  0  0  0  0  0  0
  181.7840  179.2100  143.1840 C   0  0  0  0  0  2  0  0  0  0  0  0
  182.0990  178.8960  141.7980 N   0  0  0  0  0  2  0  0  0  0  0  0
  181.1650  178.2370  140.9380 C   0  0  0  0  0  0  0  0  0  0  0  0
  180.0320  177.9030  141.3770 O   0  0  0  0  0  0  0  0  0  0  0  0
  179.7660  176.7120  138.4450 O   0  0  0  0  0  1  0  0  0  0  0  0
  181.5320  177.9840  139.4940 C   0  0  1  0  0  0  0  0  0  0  0  0
  181.1380  175.5190  140.0010 C   0  0  0  0  0  1  0  0  0  0  0  0
  181.0650  176.6390  138.9550 C   0  0  1  0  0  0  0  0  0  0  0  0
  183.2850  177.0650  138.1460 O   0  0  0  0  0  0  0  0  0  0  0  0
  182.0700  176.4270  137.8220 C   0  0  1  0  0  3  0  0  0  0  0  0
  181.0150  179.0200  138.6990 O   0  0  0  0  0  1  0  0  0  0  0  0
  183.0400  177.8690  139.2790 C   0  0  1  0  0  3  0  0  0  0  0  0
  183.7330  179.1900  139.1580 C   0  0  0  0  0  3  0  0  0  0  0  0
  184.4140  179.6100  140.0780 O   0  0  0  0  0  0  0  0  0  0  0  0
  182.2960  174.9720  137.4260 C   0  0  0  0  0  2  0  0  0  0  0  0
  182.0720  174.7870  135.9700 C   0  0  0  0  0  0  0  0  0  0  0  0
  183.0030  174.3560  135.2470 O   0  0  0  0  0  0  0  0  0  0  0  0
  180.8490  175.1130  135.4050 O   0  0  0  0  0  1  0  0  0  0  0  0
  191.2610  177.5610  142.2910 C   0  0  0  0  0  2  0  0  0  0  0  0
  190.7340  176.7930  141.0890 C   0  0  0  0  0  2  0  0  0  0  0  0
  191.1830  177.3880  139.9080 O   0  0  0  0  0  0  0  0  0  0  0  0
  190.3770  176.8370  138.9030 C   0  0  1  0  0  3  0  0  0  0  0  0
  187.5850  176.1780  138.1800 C   0  0  0  0  0  2  0  0  0  0  0  0
  186.1320  177.4680  136.7060 N   0  0  0  0  0  0  0  0  0  0  0  0
  188.2200  177.4830  137.8240 C   0  0  1  0  0  0  0  0  0  0  0  0
  189.5740  177.9460  138.2230 C   0  0  1  0  0  3  0  0  0  0  0  0
  187.3700  178.2370  136.8490 C   0  0  0  0  0  2  0  0  0  0  0  0
  186.4240  176.1120  137.2010 C   0  0  0  0  0  2  0  0  0  0  0  0
  188.4290  178.2490  138.9850 O   0  0  0  0  0  0  0  0  0  0  0  0
  185.8140  177.3750  135.2810 C   0  0  0  0  0  3  0  0  0  0  0  0
  184.4280  177.3670  135.0970 O   0  0  0  0  0  1  0  0  0  0  0  0
  186.3520  178.4680  134.5940 O   0  0  0  0  0  1  0  0  0  0  0  0
  190.7000  176.2120  136.6050 O   0  0  0  0  0  1  0  0  0  0  0  0
  191.2210  176.0450  137.8920 C   0  0  0  0  0  0  0  0  0  0  0  0
  191.2030  174.6900  138.2260 O   0  0  0  0  0  1  0  0  0  0  0  0
  192.6630  176.5500  137.9440 C   0  0  0  0  0  2  0  0  0  0  0  0
  193.3910  176.4270  136.6100 C   0  0  0  0  0  2  0  0  0  0  0  0
  194.9400  174.7630  135.9030 O   0  0  0  0  0  0  0  0  0  0  0  0
  194.6380  174.4050  137.2330 C   0  0  2  0  0  3  0  0  0  0  0  0
  194.7670  175.8240  136.8140 C   0  0  2  0  0  3  0  0  0  0  0  0
  197.2120  174.2560  137.3390 C   0  0  0  0  0  1  0  0  0  0  0  0
  195.7940  172.3640  138.0140 C   0  0  0  0  0  1  0  0  0  0  0  0
  195.8640  174.3840  139.4030 C   0  0  0  0  0  1  0  0  0  0  0  0
  195.8790  173.8740  137.9760 C   0  0  0  0  0  0  0  0  0  0  0  0
  1  4  1  0  0  0  0
  2  7  1  6  0  0  0
  2  6  1  0  0  0  0
  3  2  1  0  0  0  0
  5 30  1  6  0  0  0
  5  3  1  0  0  0  0
  5  1  1  0  0  0  0
  6  4  1  0  0  0  0
  8  7  1  0  0  0  0
  9 10  1  0  0  0  0
  9  8  1  0  0  0  0
 10 11  1  0  0  0  0
 12 11  1  0  0  0  0
 13 12  1  0  0  0  0
 14 15  2  0  0  0  0
 14 13  1  0  0  0  0
 16 19  1  0  0  0  0
 17 22  1  6  0  0  0
 17 14  1  0  0  0  0
 19 17  1  0  0  0  0
 19 18  1  1  0  0  0
 20 23  1  0  0  0  0
 21 26  1  1  0  0  0
 21 20  1  0  0  0  0
 21 19  1  0  0  0  0
 23 24  1  6  0  0  0
 23 17  1  0  0  0  0
 24 25  2  0  0  0  0
 27 26  1  0  0  0  0
 28 27  2  0  0  0  0
 29 27  1  0  0  0  0
 31 30  1  0  0  0  0
 32 31  1  0  0  0  0
 33 32  1  1  0  0  0
 35 38  1  0  0  0  0
 35 39  1  0  0  0  0
 36 38  1  6  0  0  0
 36 34  1  0  0  0  0
 36 37  1  0  0  0  0
 36 40  1  0  0  0  0
 37 33  1  1  0  0  0
 37 40  1  0  0  0  0
 39 34  1  0  0  0  0
 41 35  1  0  0  0  0
 42 41  1  0  0  0  0
 43 41  1  0  0  0  0
 44 45  1  0  0  0  0
 45 47  1  0  0  0  0
 45 46  1  0  0  0  0
 45 33  1  0  0  0  0
 48 47  1  0  0  0  0
 49 51  1  0  0  0  0
 49 50  1  0  0  0  0
 50 55  1  1  0  0  0
 51 48  1  6  0  0  0
 51 50  1  0  0  0  0
 52 55  1  0  0  0  0
 55 53  1  0  0  0  0
 55 54  1  0  0  0  0
M  END
>  <MODEL>
3

>  <REMARK>
 VINA RESULT:      -6.1      2.064      5.746
  Name = 
  22 active torsions:
  status: ('A' for Active; 'I' for Inactive)
    1  A    between atoms: C_1  and  C_53
    2  A    between atoms: C_2  and  C_28
    3  A    between atoms: C_2  and  C_44
    4  A    between atoms: C_6  and  C_20
    5  A    between atoms: N_7  and  C_22
    6  A    between atoms: C_8  and  C_22
    7  A    between atoms: C_8  and  C_35
    8  A    between atoms: C_10  and  N_32
    9  A    between atoms: C_11  and  C_29
   10  A    between atoms: C_16  and  C_17
   11  A    between atoms: C_16  and  C_26
   12  A    between atoms: C_17  and  C_33
   13  A    between atoms: C_19  and  C_40
   14  A    between atoms: C_26  and  C_45
   15  A    between atoms: C_27  and  C_54
   16  A    between atoms: C_28  and  O_49
   17  A    between atoms: C_29  and  C_38
   18  A    between atoms: C_33  and  C_36
   19  A    between atoms: C_33  and  O_49
   20  A    between atoms: C_35  and  C_43
   21  A    between atoms: C_43  and  C_51
   22  A    between atoms: C_51  and  C_54
                            x       y       z     vdW  Elec       q    Type
                         _______ _______ _______ _____ _____    ______ ____

>  <TORSDO>
F 22

$$$$
=
 OpenBabel11052415003D

 55 59  0  0  1  0  0  0  0  0999 V2000
  184.9170  179.2680  143.5440 C   0  0  0  0  0  2  0  0  0  0  0  0
  182.1570  179.1820  143.4800 C   0  0  2  0  0  3  0  0  0  0  0  0
  182.8400  179.0820  142.2310 O   0  0  0  0  0  0  0  0  0  0  0  0
  183.9900  179.3650  144.7500 C   0  0  0  0  0  2  0  0  0  0  0  0
  184.1690  178.6110  142.3780 C   0  0  1  0  0  3  0  0  0  0  0  0
  182.8460  178.5760  144.5510 O   0  0  0  0  0  0  0  0  0  0  0  0
  180.7620  178.5920  143.3630 C   0  0  0  0  0  2  0  0  0  0  0  0
  180.2610  178.7200  141.9350 C   0  0  0  0  0  2  0  0  0  0  0  0
  179.3600  179.9340  141.7990 C   0  0  0  0  0  2  0  0  0  0  0  0
  179.7690  180.7490  140.5830 C   0  0  0  0  0  2  0  0  0  0  0  0
  179.0820  180.2380  139.3270 C   0  0  0  0  0  2  0  0  0  0  0  0
  180.0980  179.9180  138.2430 C   0  0  0  0  0  2  0  0  0  0  0  0
  180.4540  178.5070  138.2990 N   0  0  0  0  0  2  0  0  0  0  0  0
  181.7860  178.0720  138.5860 C   0  0  0  0  0  0  0  0  0  0  0  0
  182.6950  178.9210  138.7930 O   0  0  0  0  0  0  0  0  0  0  0  0
  184.1950  176.1450  137.5960 O   0  0  0  0  0  1  0  0  0  0  0  0
  182.0820  176.5930  138.6800 C   0  0  1  0  0  0  0  0  0  0  0  0
  182.3610  176.6590  136.1490 C   0  0  0  0  0  1  0  0  0  0  0  0
  182.8090  176.0210  137.4700 C   0  0  1  0  0  0  0  0  0  0  0  0
  181.1230  174.4600  138.1660 O   0  0  0  0  0  0  0  0  0  0  0  0
  182.3950  174.5530  137.5630 C   0  0  1  0  0  3  0  0  0  0  0  0
  182.8300  176.3460  139.8430 O   0  0  0  0  0  1  0  0  0  0  0  0
  180.8180  175.7360  138.6840 C   0  0  1  0  0  3  0  0  0  0  0  0
  180.1700  175.6270  140.0280 C   0  0  0  0  0  3  0  0  0  0  0  0
  179.8930  174.5310  140.4870 O   0  0  0  0  0  0  0  0  0  0  0  0
  182.4400  173.7870  136.2450 C   0  0  0  0  0  2  0  0  0  0  0  0
  183.6060  172.8670  136.2170 C   0  0  0  0  0  0  0  0  0  0  0  0
  183.5120  171.7270  136.7370 O   0  0  0  0  0  1  0  0  0  0  0  0
  184.8010  173.2710  135.6440 O   0  0  0  0  0  0  0  0  0  0  0  0
  184.9380  178.7720  141.0760 C   0  0  0  0  0  2  0  0  0  0  0  0
  186.4260  178.9430  141.3380 C   0  0  0  0  0  2  0  0  0  0  0  0
  187.0830  177.7230  141.1660 O   0  0  0  0  0  0  0  0  0  0  0  0
  188.4140  178.0700  140.8980 C   0  0  1  0  0  3  0  0  0  0  0  0
  188.0640  177.8300  143.8260 C   0  0  0  0  0  2  0  0  0  0  0  0
  189.6120  176.7670  145.3820 N   0  0  0  0  0  0  0  0  0  0  0  0
  189.1530  177.1210  143.0850 C   0  0  1  0  0  0  0  0  0  0  0  0
  189.3530  177.0980  141.6140 C   0  0  1  0  0  3  0  0  0  0  0  0
  190.1520  176.5440  144.0400 C   0  0  0  0  0  2  0  0  0  0  0  0
  188.5920  177.8200  145.2520 C   0  0  0  0  0  2  0  0  0  0  0  0
  188.6050  176.1070  142.2790 O   0  0  0  0  0  0  0  0  0  0  0  0
  190.6900  177.2790  146.2300 C   0  0  0  0  0  3  0  0  0  0  0  0
  190.4440  176.9570  147.5670 O   0  0  0  0  0  1  0  0  0  0  0  0
  191.9120  176.7160  145.8480 O   0  0  0  0  0  1  0  0  0  0  0  0
  189.1060  179.3840  139.0090 O   0  0  0  0  0  1  0  0  0  0  0  0
  188.6800  178.1070  139.3850 C   0  0  0  0  0  0  0  0  0  0  0  0
  187.5090  177.7890  138.6960 O   0  0  0  0  0  1  0  0  0  0  0  0
  189.7530  177.0730  139.0420 C   0  0  0  0  0  2  0  0  0  0  0  0
  189.2270  175.9210  138.1940 C   0  0  0  0  0  2  0  0  0  0  0  0
  190.4040  174.1310  137.1540 O   0  0  0  0  0  0  0  0  0  0  0  0
  191.4150  174.8800  137.7910 C   0  0  2  0  0  3  0  0  0  0  0  0
  190.2480  175.5310  137.1430 C   0  0  2  0  0  3  0  0  0  0  0  0
  193.1500  176.3560  136.5800 C   0  0  0  0  0  1  0  0  0  0  0  0
  192.4490  174.1890  135.6540 C   0  0  0  0  0  1  0  0  0  0  0  0
  193.8250  174.2540  137.6830 C   0  0  0  0  0  1  0  0  0  0  0  0
  192.6990  174.9440  136.9410 C   0  0  0  0  0  0  0  0  0  0  0  0
  1  4  1  0  0  0  0
  2  7  1  6  0  0  0
  2  6  1  0  0  0  0
  3  5  1  0  0  0  0
  3  2  1  0  0  0  0
  5 30  1  6  0  0  0
  5  1  1  0  0  0  0
  6  4  1  0  0  0  0
  8  7  1  0  0  0  0
  9  8  1  0  0  0  0
 10  9  1  0  0  0  0
 11 10  1  0  0  0  0
 12 13  1  0  0  0  0
 12 11  1  0  0  0  0
 13 14  1  0  0  0  0
 14 17  1  0  0  0  0
 14 15  2  0  0  0  0
 17 23  1  0  0  0  0
 17 22  1  1  0  0  0
 19 18  1  6  0  0  0
 19 21  1  0  0  0  0
 19 16  1  0  0  0  0
 19 17  1  0  0  0  0
 20 23  1  0  0  0  0
 21 26  1  6  0  0  0
 21 20  1  0  0  0  0
 23 24  1  1  0  0  0
 24 25  2  0  0  0  0
 27 26  1  0  0  0  0
 27 28  1  0  0  0  0
 29 27  2  0  0  0  0
 30 31  1  0  0  0  0
 32 31  1  0  0  0  0
 33 32  1  6  0  0  0
 34 39  1  0  0  0  0
 35 41  1  0  0  0  0
 36 34  1  1  0  0  0
 36 38  1  0  0  0  0
 37 33  1  6  0  0  0
 37 40  1  0  0  0  0
 37 36  1  0  0  0  0
 38 35  1  0  0  0  0
 39 35  1  0  0  0  0
 40 36  1  0  0  0  0
 41 42  1  0  0  0  0
 43 41  1  0  0  0  0
 44 45  1  0  0  0  0
 45 33  1  0  0  0  0
 46 45  1  0  0  0  0
 47 45  1  0  0  0  0
 48 47  1  0  0  0  0
 49 50  1  0  0  0  0
 50 55  1  6  0  0  0
 51 49  1  0  0  0  0
 51 50  1  0  0  0  0
 51 48  1  1  0  0  0
 52 55  1  0  0  0  0
 53 55  1  0  0  0  0
 55 54  1  0  0  0  0
M  END
>  <MODEL>
4

>  <REMARK>
 VINA RESULT:      -6.0      2.581      6.548
  Name = 
  22 active torsions:
  status: ('A' for Active; 'I' for Inactive)
    1  A    between atoms: C_1  and  C_53
    2  A    between atoms: C_2  and  C_28
    3  A    between atoms: C_2  and  C_44
    4  A    between atoms: C_6  and  C_20
    5  A    between atoms: N_7  and  C_22
    6  A    between atoms: C_8  and  C_22
    7  A    between atoms: C_8  and  C_35
    8  A    between atoms: C_10  and  N_32
    9  A    between atoms: C_11  and  C_29
   10  A    between atoms: C_16  and  C_17
   11  A    between atoms: C_16  and  C_26
   12  A    between atoms: C_17  and  C_33
   13  A    between atoms: C_19  and  C_40
   14  A    between atoms: C_26  and  C_45
   15  A    between atoms: C_27  and  C_54
   16  A    between atoms: C_28  and  O_49
   17  A    between atoms: C_29  and  C_38
   18  A    between atoms: C_33  and  C_36
   19  A    between atoms: C_33  and  O_49
   20  A    between atoms: C_35  and  C_43
   21  A    between atoms: C_43  and  C_51
   22  A    between atoms: C_51  and  C_54
                            x       y       z     vdW  Elec       q    Type
                         _______ _______ _______ _____ _____    ______ ____

>  <TORSDO>
F 22

$$$$
=
 OpenBabel11052415003D

 55 59  0  0  1  0  0  0  0  0999 V2000
  186.4890  178.2380  146.3430 C   0  0  0  0  0  2  0  0  0  0  0  0
  184.6540  178.8470  144.3680 C   0  0  2  0  0  3  0  0  0  0  0  0
  185.8820  178.2480  143.9540 O   0  0  0  0  0  0  0  0  0  0  0  0
  185.1250  178.8840  146.5560 C   0  0  0  0  0  2  0  0  0  0  0  0
  186.5010  177.5090  144.9940 C   0  0  1  0  0  3  0  0  0  0  0  0
  184.1990  178.3910  145.6230 O   0  0  0  0  0  0  0  0  0  0  0  0
  183.5810  178.6240  143.3180 C   0  0  0  0  0  2  0  0  0  0  0  0
  182.3160  179.3730  143.7000 C   0  0  0  0  0  2  0  0  0  0  0  0
  181.1960  178.3950  144.0070 C   0  0  0  0  0  2  0  0  0  0  0  0
  179.8570  179.0050  143.6280 C   0  0  0  0  0  2  0  0  0  0  0  0
  180.0220  180.0480  142.5340 C   0  0  0  0  0  2  0  0  0  0  0  0
  179.5070  179.5250  141.2030 C   0  0  0  0  0  2  0  0  0  0  0  0
  180.6020  178.9370  140.4450 N   0  0  0  0  0  2  0  0  0  0  0  0
  180.5840  178.8650  139.0170 C   0  0  0  0  0  0  0  0  0  0  0  0
  179.5930  179.3110  138.3770 O   0  0  0  0  0  0  0  0  0  0  0  0
  181.0070  176.5680  136.7710 O   0  0  0  0  0  1  0  0  0  0  0  0
  181.7730  178.2890  138.2840 C   0  0  1  0  0  0  0  0  0  0  0  0
  180.9620  176.0150  139.0980 C   0  0  0  0  0  1  0  0  0  0  0  0
  181.6640  176.8000  137.9820 C   0  0  1  0  0  0  0  0  0  0  0  0
  183.9070  177.2810  138.6890 O   0  0  0  0  0  0  0  0  0  0  0  0
  183.1410  176.4280  137.8670 C   0  0  1  0  0  3  0  0  0  0  0  0
  181.9680  179.0020  137.0900 O   0  0  0  0  0  1  0  0  0  0  0  0
  183.0520  178.3160  139.1200 C   0  0  1  0  0  3  0  0  0  0  0  0
  183.7570  179.6360  139.0970 C   0  0  0  0  0  3  0  0  0  0  0  0
  184.8530  179.7530  139.6180 O   0  0  0  0  0  0  0  0  0  0  0  0
  183.4600  174.9620  138.1390 C   0  0  0  0  0  2  0  0  0  0  0  0
  183.2920  174.1540  136.9040 C   0  0  0  0  0  0  0  0  0  0  0  0
  182.3970  173.2750  136.8520 O   0  0  0  0  0  1  0  0  0  0  0  0
  184.1340  174.3510  135.8220 O   0  0  0  0  0  0  0  0  0  0  0  0
  187.9160  177.1170  144.5980 C   0  0  0  0  0  2  0  0  0  0  0  0
  187.9410  176.4880  143.2130 C   0  0  0  0  0  2  0  0  0  0  0  0
  189.1750  175.8730  142.9920 O   0  0  0  0  0  0  0  0  0  0  0  0
  190.1230  176.8150  143.4130 C   0  0  1  0  0  3  0  0  0  0  0  0
  190.0670  176.3140  146.3290 C   0  0  0  0  0  2  0  0  0  0  0  0
  191.9520  175.6210  147.7110 N   0  0  0  0  0  0  0  0  0  0  0  0
  191.2470  175.9730  145.4770 C   0  0  1  0  0  0  0  0  0  0  0  0
  191.3370  176.0940  143.9990 C   0  0  1  0  0  3  0  0  0  0  0  0
  192.4320  175.6330  146.3280 C   0  0  0  0  0  2  0  0  0  0  0  0
  190.6800  176.3630  147.7180 C   0  0  0  0  0  2  0  0  0  0  0  0
  190.9330  174.8990  144.6260 O   0  0  0  0  0  0  0  0  0  0  0  0
  192.9130  176.3550  148.5350 C   0  0  0  0  0  3  0  0  0  0  0  0
  192.3960  177.6090  148.8740 O   0  0  0  0  0  1  0  0  0  0  0  0
  193.1810  175.6460  149.7110 O   0  0  0  0  0  1  0  0  0  0  0  0
  191.9080  177.9080  142.2340 O   0  0  0  0  0  1  0  0  0  0  0  0
  190.5200  177.7510  142.2610 C   0  0  0  0  0  0  0  0  0  0  0  0
  189.9170  178.9970  142.4410 O   0  0  0  0  0  1  0  0  0  0  0  0
  190.0330  177.1510  140.9420 C   0  0  0  0  0  2  0  0  0  0  0  0
  189.0290  178.0360  140.2140 C   0  0  0  0  0  2  0  0  0  0  0  0
  188.6810  179.0000  138.0640 O   0  0  0  0  0  0  0  0  0  0  0  0
  187.7920  177.9060  138.0960 C   0  0  2  0  0  3  0  0  0  0  0  0
  189.1400  177.8370  138.7150 C   0  0  2  0  0  3  0  0  0  0  0  0
  189.0500  177.0420  136.0160 C   0  0  0  0  0  1  0  0  0  0  0  0
  186.7930  178.0020  135.8360 C   0  0  0  0  0  1  0  0  0  0  0  0
  187.1020  175.8210  136.9160 C   0  0  0  0  0  1  0  0  0  0  0  0
  187.7110  177.1970  136.7300 C   0  0  0  0  0  0  0  0  0  0  0  0
  1  4  1  0  0  0  0
  2  7  1  6  0  0  0
  2  6  1  0  0  0  0
  3  2  1  0  0  0  0
  3  5  1  0  0  0  0
  5 30  1  6  0  0  0
  5  1  1  0  0  0  0
  6  4  1  0  0  0  0
  7  8  1  0  0  0  0
  8  9  1  0  0  0  0
 10  9  1  0  0  0  0
 11 10  1  0  0  0  0
 12 11  1  0  0  0  0
 13 12  1  0  0  0  0
 14 13  1  0  0  0  0
 15 14  2  0  0  0  0
 16 19  1  0  0  0  0
 17 22  1  6  0  0  0
 17 14  1  0  0  0  0
 17 23  1  0  0  0  0
 19 17  1  0  0  0  0
 19 18  1  1  0  0  0
 20 23  1  0  0  0  0
 21 19  1  0  0  0  0
 21 26  1  1  0  0  0
 21 20  1  0  0  0  0
 23 24  1  6  0  0  0
 24 25  2  0  0  0  0
 27 26  1  0  0  0  0
 28 27  1  0  0  0  0
 29 27  2  0  0  0  0
 31 30  1  0  0  0  0
 32 31  1  0  0  0  0
 33 32  1  6  0  0  0
 34 39  1  0  0  0  0
 35 39  1  0  0  0  0
 35 41  1  0  0  0  0
 36 38  1  1  0  0  0
 36 34  1  0  0  0  0
 37 33  1  6  0  0  0
 37 40  1  0  0  0  0
 37 36  1  0  0  0  0
 38 35  1  0  0  0  0
 40 36  1  0  0  0  0
 41 42  1  0  0  0  0
 41 43  1  0  0  0  0
 44 45  1  0  0  0  0
 45 46  1  0  0  0  0
 45 33  1  0  0  0  0
 47 45  1  0  0  0  0
 48 47  1  0  0  0  0
 49 50  1  0  0  0  0
 49 51  1  0  0  0  0
 50 55  1  6  0  0  0
 50 51  1  0  0  0  0
 51 48  1  1  0  0  0
 52 55  1  0  0  0  0
 53 55  1  0  0  0  0
 55 54  1  0  0  0  0
M  END
>  <MODEL>
5

>  <REMARK>
 VINA RESULT:      -5.9      3.108      6.326
  Name = 
  22 active torsions:
  status: ('A' for Active; 'I' for Inactive)
    1  A    between atoms: C_1  and  C_53
    2  A    between atoms: C_2  and  C_28
    3  A    between atoms: C_2  and  C_44
    4  A    between atoms: C_6  and  C_20
    5  A    between atoms: N_7  and  C_22
    6  A    between atoms: C_8  and  C_22
    7  A    between atoms: C_8  and  C_35
    8  A    between atoms: C_10  and  N_32
    9  A    between atoms: C_11  and  C_29
   10  A    between atoms: C_16  and  C_17
   11  A    between atoms: C_16  and  C_26
   12  A    between atoms: C_17  and  C_33
   13  A    between atoms: C_19  and  C_40
   14  A    between atoms: C_26  and  C_45
   15  A    between atoms: C_27  and  C_54
   16  A    between atoms: C_28  and  O_49
   17  A    between atoms: C_29  and  C_38
   18  A    between atoms: C_33  and  C_36
   19  A    between atoms: C_33  and  O_49
   20  A    between atoms: C_35  and  C_43
   21  A    between atoms: C_43  and  C_51
   22  A    between atoms: C_51  and  C_54
                            x       y       z     vdW  Elec       q    Type
                         _______ _______ _______ _____ _____    ______ ____

>  <TORSDO>
F 22

$$$$
=
 OpenBabel11052415003D

 55 59  0  0  1  0  0  0  0  0999 V2000
  179.8700  180.4280  140.8660 C   0  0  0  0  0  2  0  0  0  0  0  0
  181.1230  178.9710  142.8500 C   0  0  2  0  0  3  0  0  0  0  0  0
  181.4000  178.6030  141.4990 O   0  0  0  0  0  0  0  0  0  0  0  0
  179.7150  180.6420  142.3670 C   0  0  0  0  0  2  0  0  0  0  0  0
  181.1730  179.6690  140.5920 C   0  0  1  0  0  3  0  0  0  0  0  0
  180.9200  180.3560  143.0270 O   0  0  0  0  0  0  0  0  0  0  0  0
  182.2380  178.4920  143.7630 C   0  0  0  0  0  2  0  0  0  0  0  0
  183.0480  179.6770  144.2600 C   0  0  0  0  0  2  0  0  0  0  0  0
  184.4870  179.2650  144.5110 C   0  0  0  0  0  2  0  0  0  0  0  0
  184.5810  178.4690  145.8020 C   0  0  0  0  0  2  0  0  0  0  0  0
  185.8360  178.8350  146.5790 C   0  0  0  0  0  2  0  0  0  0  0  0
  186.7980  177.6600  146.6430 C   0  0  0  0  0  2  0  0  0  0  0  0
  187.2470  177.3140  145.3010 N   0  0  0  0  0  2  0  0  0  0  0  0
  188.5500  177.6590  144.8250 C   0  0  0  0  0  0  0  0  0  0  0  0
  189.3470  178.2910  145.5710 O   0  0  0  0  0  0  0  0  0  0  0  0
  190.7100  175.5560  143.6370 O   0  0  0  0  0  1  0  0  0  0  0  0
  188.9760  177.2270  143.4400 C   0  0  1  0  0  0  0  0  0  0  0  0
  191.3470  177.7990  144.1740 C   0  0  0  0  0  1  0  0  0  0  0  0
  190.4560  176.8920  143.3160 C   0  0  1  0  0  0  0  0  0  0  0  0
  189.7770  178.1220  141.3690 O   0  0  0  0  0  0  0  0  0  0  0  0
  190.6720  177.1300  141.8220 C   0  0  1  0  0  3  0  0  0  0  0  0
  188.2040  176.1220  143.0450 O   0  0  0  0  0  1  0  0  0  0  0  0
  188.8490  178.3460  142.4070 C   0  0  1  0  0  3  0  0  0  0  0  0
  187.4640  178.5060  141.8630 C   0  0  0  0  0  3  0  0  0  0  0  0
  187.1920  178.0860  140.7510 O   0  0  0  0  0  0  0  0  0  0  0  0
  192.1070  177.4550  141.4220 C   0  0  0  0  0  2  0  0  0  0  0  0
  192.2890  177.2970  139.9570 C   0  0  0  0  0  0  0  0  0  0  0  0
  191.2840  177.2670  139.2050 O   0  0  0  0  0  0  0  0  0  0  0  0
  193.5600  177.1580  139.4220 O   0  0  0  0  0  1  0  0  0  0  0  0
  181.2200  179.1640  139.1570 C   0  0  0  0  0  2  0  0  0  0  0  0
  182.5710  178.5420  138.8410 C   0  0  0  0  0  2  0  0  0  0  0  0
  182.6560  178.2550  137.4770 O   0  0  0  0  0  0  0  0  0  0  0  0
  183.4750  177.1200  137.4020 C   0  0  1  0  0  3  0  0  0  0  0  0
  185.7520  177.1500  135.5130 C   0  0  0  0  0  2  0  0  0  0  0  0
  188.1180  177.1570  136.1040 N   0  0  0  0  0  0  0  0  0  0  0  0
  185.9270  177.3380  136.9860 C   0  0  1  0  0  0  0  0  0  0  0  0
  184.8460  177.4370  138.0000 C   0  0  1  0  0  3  0  0  0  0  0  0
  187.3740  177.2530  137.3610 C   0  0  0  0  0  2  0  0  0  0  0  0
  187.1490  176.7390  135.0770 C   0  0  0  0  0  2  0  0  0  0  0  0
  185.3910  178.5770  137.3800 O   0  0  0  0  0  0  0  0  0  0  0  0
  189.1180  176.0980  136.2440 C   0  0  0  0  0  3  0  0  0  0  0  0
  190.3850  176.6560  136.4340 O   0  0  0  0  0  1  0  0  0  0  0  0
  188.8130  175.2890  137.3430 O   0  0  0  0  0  1  0  0  0  0  0  0
  181.5410  175.7030  137.5640 O   0  0  0  0  0  1  0  0  0  0  0  0
  182.8160  175.9180  138.0960 C   0  0  0  0  0  0  0  0  0  0  0  0
  182.7080  176.1690  139.4650 O   0  0  0  0  0  1  0  0  0  0  0  0
  183.6880  174.6810  137.8860 C   0  0  0  0  0  2  0  0  0  0  0  0
  183.6540  174.1590  136.4540 C   0  0  0  0  0  2  0  0  0  0  0  0
  185.2380  172.7390  137.5240 O   0  0  0  0  0  0  0  0  0  0  0  0
  185.9600  173.3130  136.4570 C   0  0  2  0  0  3  0  0  0  0  0  0
  184.5320  172.9300  136.3200 C   0  0  2  0  0  3  0  0  0  0  0  0
  186.2760  170.9920  135.3740 C   0  0  0  0  0  1  0  0  0  0  0  0
  188.0040  171.9710  136.8240 C   0  0  0  0  0  1  0  0  0  0  0  0
  187.5890  172.9370  134.6080 C   0  0  0  0  0  1  0  0  0  0  0  0
  186.9270  172.3000  135.8130 C   0  0  0  0  0  0  0  0  0  0  0  0
  1  4  1  0  0  0  0
  2  6  1  0  0  0  0
  2  7  1  1  0  0  0
  3  2  1  0  0  0  0
  4  6  1  0  0  0  0
  5 30  1  6  0  0  0
  5  1  1  0  0  0  0
  5  3  1  0  0  0  0
  7  8  1  0  0  0  0
  8  9  1  0  0  0  0
  9 10  1  0  0  0  0
 10 11  1  0  0  0  0
 11 12  1  0  0  0  0
 13 12  1  0  0  0  0
 14 13  1  0  0  0  0
 14 15  2  0  0  0  0
 17 22  1  6  0  0  0
 17 14  1  0  0  0  0
 19 17  1  0  0  0  0
 19 16  1  0  0  0  0
 19 18  1  1  0  0  0
 20 21  1  0  0  0  0
 20 23  1  0  0  0  0
 21 26  1  1  0  0  0
 21 19  1  0  0  0  0
 23 24  1  6  0  0  0
 23 17  1  0  0  0  0
 25 24  2  0  0  0  0
 27 26  1  0  0  0  0
 28 27  2  0  0  0  0
 29 27  1  0  0  0  0
 31 30  1  0  0  0  0
 32 31  1  0  0  0  0
 33 32  1  1  0  0  0
 33 45  1  0  0  0  0
 35 41  1  0  0  0  0
 35 38  1  0  0  0  0
 36 34  1  6  0  0  0
 36 38  1  0  0  0  0
 36 40  1  0  0  0  0
 36 37  1  0  0  0  0
 37 33  1  6  0  0  0
 39 34  1  0  0  0  0
 39 35  1  0  0  0  0
 40 37  1  0  0  0  0
 41 42  1  0  0  0  0
 41 43  1  0  0  0  0
 44 45  1  0  0  0  0
 45 46  1  0  0  0  0
 47 45  1  0  0  0  0
 48 47  1  0  0  0  0
 50 55  1  6  0  0  0
 50 49  1  0  0  0  0
 51 48  1  1  0  0  0
 51 50  1  0  0  0  0
 51 49  1  0  0  0  0
 52 55  1  0  0  0  0
 54 55  1  0  0  0  0
 55 53  1  0  0  0  0
M  END
>  <MODEL>
6

>  <REMARK>
 VINA RESULT:      -5.9      2.409      7.425
  Name = 
  22 active torsions:
  status: ('A' for Active; 'I' for Inactive)
    1  A    between atoms: C_1  and  C_53
    2  A    between atoms: C_2  and  C_28
    3  A    between atoms: C_2  and  C_44
    4  A    between atoms: C_6  and  C_20
    5  A    between atoms: N_7  and  C_22
    6  A    between atoms: C_8  and  C_22
    7  A    between atoms: C_8  and  C_35
    8  A    between atoms: C_10  and  N_32
    9  A    between atoms: C_11  and  C_29
   10  A    between atoms: C_16  and  C_17
   11  A    between atoms: C_16  and  C_26
   12  A    between atoms: C_17  and  C_33
   13  A    between atoms: C_19  and  C_40
   14  A    between atoms: C_26  and  C_45
   15  A    between atoms: C_27  and  C_54
   16  A    between atoms: C_28  and  O_49
   17  A    between atoms: C_29  and  C_38
   18  A    between atoms: C_33  and  C_36
   19  A    between atoms: C_33  and  O_49
   20  A    between atoms: C_35  and  C_43
   21  A    between atoms: C_43  and  C_51
   22  A    between atoms: C_51  and  C_54
                            x       y       z     vdW  Elec       q    Type
                         _______ _______ _______ _____ _____    ______ ____

>  <TORSDO>
F 22

$$$$
=
 OpenBabel11052415003D

 55 59  0  0  1  0  0  0  0  0999 V2000
  185.9410  178.2500  145.0380 C   0  0  0  0  0  2  0  0  0  0  0  0
  183.7440  179.2770  143.7140 C   0  0  2  0  0  3  0  0  0  0  0  0
  184.7790  178.7080  142.9130 O   0  0  0  0  0  0  0  0  0  0  0  0
  184.7300  178.9070  145.6900 C   0  0  0  0  0  2  0  0  0  0  0  0
  185.5650  177.7710  143.6310 C   0  0  1  0  0  3  0  0  0  0  0  0
  183.5680  178.6270  144.9530 O   0  0  0  0  0  0  0  0  0  0  0  0
  182.4340  179.2900  142.9460 C   0  0  0  0  0  2  0  0  0  0  0  0
  181.2660  179.3750  143.9140 C   0  0  0  0  0  2  0  0  0  0  0  0
  180.2010  178.3570  143.5460 C   0  0  0  0  0  2  0  0  0  0  0  0
  179.0690  179.0400  142.7980 C   0  0  0  0  0  2  0  0  0  0  0  0
  179.3180  180.5350  142.6750 C   0  0  0  0  0  2  0  0  0  0  0  0
  178.9340  181.0390  141.2940 C   0  0  0  0  0  2  0  0  0  0  0  0
  179.2810  180.0440  140.2890 N   0  0  0  0  0  2  0  0  0  0  0  0
  180.2440  180.3030  139.2650 C   0  0  0  0  0  0  0  0  0  0  0  0
  180.8160  181.4250  139.2080 O   0  0  0  0  0  0  0  0  0  0  0  0
  181.4170  177.2910  139.4980 O   0  0  0  0  0  1  0  0  0  0  0  0
  180.5980  179.2110  138.2810 C   0  0  1  0  0  0  0  0  0  0  0  0
  182.8860  179.1770  139.3990 C   0  0  0  0  0  1  0  0  0  0  0  0
  181.7960  178.3650  138.6880 C   0  0  1  0  0  0  0  0  0  0  0  0
  181.9320  178.8140  136.3340 O   0  0  0  0  0  0  0  0  0  0  0  0
  182.2610  177.8620  137.3210 C   0  0  1  0  0  3  0  0  0  0  0  0
  179.4770  178.3860  138.0860 O   0  0  0  0  0  1  0  0  0  0  0  0
  181.0780  179.7590  136.9380 C   0  0  1  0  0  3  0  0  0  0  0  0
  179.9670  180.1450  136.0140 C   0  0  0  0  0  3  0  0  0  0  0  0
  179.9260  181.2690  135.5430 O   0  0  0  0  0  0  0  0  0  0  0  0
  183.7320  177.4690  137.2460 C   0  0  0  0  0  2  0  0  0  0  0  0
  183.8740  175.9930  137.1660 C   0  0  0  0  0  0  0  0  0  0  0  0
  184.1620  175.4530  136.0700 O   0  0  0  0  0  0  0  0  0  0  0  0
  183.6640  175.2100  138.2910 O   0  0  0  0  0  1  0  0  0  0  0  0
  186.8030  177.3930  142.8330 C   0  0  0  0  0  2  0  0  0  0  0  0
  187.2610  178.5480  141.9560 C   0  0  0  0  0  2  0  0  0  0  0  0
  188.6510  178.6660  142.0090 O   0  0  0  0  0  0  0  0  0  0  0  0
  189.1260  177.6560  141.1610 C   0  0  1  0  0  3  0  0  0  0  0  0
  187.6160  177.0980  138.6780 C   0  0  0  0  0  2  0  0  0  0  0  0
  188.3820  177.5080  136.4000 N   0  0  0  0  0  0  0  0  0  0  0  0
  188.8980  177.8670  138.6840 C   0  0  1  0  0  0  0  0  0  0  0  0
  189.6770  178.2810  139.8780 C   0  0  1  0  0  3  0  0  0  0  0  0
  189.4150  178.0410  137.2890 C   0  0  0  0  0  2  0  0  0  0  0  0
  187.5200  176.6490  137.2290 C   0  0  0  0  0  2  0  0  0  0  0  0
  188.7070  179.1180  139.2940 O   0  0  0  0  0  0  0  0  0  0  0  0
  189.0330  176.6660  135.3950 C   0  0  0  0  0  3  0  0  0  0  0  0
  190.2370  176.1640  135.8960 O   0  0  0  0  0  1  0  0  0  0  0  0
  188.2040  175.5910  135.0560 O   0  0  0  0  0  1  0  0  0  0  0  0
  190.8450  175.9920  140.9350 O   0  0  0  0  0  1  0  0  0  0  0  0
  190.1800  176.7910  141.8700 C   0  0  0  0  0  0  0  0  0  0  0  0
  189.5570  175.9750  142.8150 O   0  0  0  0  0  1  0  0  0  0  0  0
  191.1760  177.7050  142.5830 C   0  0  0  0  0  2  0  0  0  0  0  0
  190.5450  178.5240  143.7020 C   0  0  0  0  0  2  0  0  0  0  0  0
  188.7540  178.0300  145.1920 O   0  0  0  0  0  0  0  0  0  0  0  0
  189.8160  178.3970  146.0440 C   0  0  2  0  0  3  0  0  0  0  0  0
  190.0430  177.6120  144.8050 C   0  0  2  0  0  3  0  0  0  0  0  0
  191.1870  176.8740  147.6120 C   0  0  0  0  0  1  0  0  0  0  0  0
  188.8030  176.4500  147.1830 C   0  0  0  0  0  1  0  0  0  0  0  0
  189.4680  178.4000  148.5130 C   0  0  0  0  0  1  0  0  0  0  0  0
  189.8440  177.5390  147.3240 C   0  0  0  0  0  0  0  0  0  0  0  0
  1  4  1  0  0  0  0
  2  7  1  6  0  0  0
  2  6  1  0  0  0  0
  3  5  1  0  0  0  0
  3  2  1  0  0  0  0
  5 30  1  6  0  0  0
  5  1  1  0  0  0  0
  6  4  1  0  0  0  0
  7  8  1  0  0  0  0
  9  8  1  0  0  0  0
 10  9  1  0  0  0  0
 11 10  1  0  0  0  0
 12 11  1  0  0  0  0
 13 12  1  0  0  0  0
 14 13  1  0  0  0  0
 15 14  2  0  0  0  0
 17 22  1  6  0  0  0
 17 19  1  0  0  0  0
 17 14  1  0  0  0  0
 19 18  1  1  0  0  0
 19 16  1  0  0  0  0
 20 23  1  0  0  0  0
 20 21  1  0  0  0  0
 21 26  1  1  0  0  0
 21 19  1  0  0  0  0
 23 24  1  6  0  0  0
 23 17  1  0  0  0  0
 25 24  2  0  0  0  0
 27 26  1  0  0  0  0
 27 29  1  0  0  0  0
 28 27  2  0  0  0  0
 31 32  1  0  0  0  0
 31 30  1  0  0  0  0
 33 45  1  0  0  0  0
 33 32  1  1  0  0  0
 34 36  1  0  0  0  0
 35 39  1  0  0  0  0
 35 38  1  0  0  0  0
 36 38  1  6  0  0  0
 36 40  1  0  0  0  0
 36 37  1  0  0  0  0
 37 33  1  1  0  0  0
 39 34  1  0  0  0  0
 40 37  1  0  0  0  0
 41 42  1  0  0  0  0
 41 35  1  0  0  0  0
 43 41  1  0  0  0  0
 44 45  1  0  0  0  0
 45 47  1  0  0  0  0
 45 46  1  0  0  0  0
 47 48  1  0  0  0  0
 49 50  1  0  0  0  0
 50 55  1  1  0  0  0
 51 48  1  6  0  0  0
 51 49  1  0  0  0  0
 51 50  1  0  0  0  0
 53 55  1  0  0  0  0
 55 52  1  0  0  0  0
 55 54  1  0  0  0  0
M  END
>  <MODEL>
7

>  <REMARK>
 VINA RESULT:      -5.8      2.642      6.490
  Name = 
  22 active torsions:
  status: ('A' for Active; 'I' for Inactive)
    1  A    between atoms: C_1  and  C_53
    2  A    between atoms: C_2  and  C_28
    3  A    between atoms: C_2  and  C_44
    4  A    between atoms: C_6  and  C_20
    5  A    between atoms: N_7  and  C_22
    6  A    between atoms: C_8  and  C_22
    7  A    between atoms: C_8  and  C_35
    8  A    between atoms: C_10  and  N_32
    9  A    between atoms: C_11  and  C_29
   10  A    between atoms: C_16  and  C_17
   11  A    between atoms: C_16  and  C_26
   12  A    between atoms: C_17  and  C_33
   13  A    between atoms: C_19  and  C_40
   14  A    between atoms: C_26  and  C_45
   15  A    between atoms: C_27  and  C_54
   16  A    between atoms: C_28  and  O_49
   17  A    between atoms: C_29  and  C_38
   18  A    between atoms: C_33  and  C_36
   19  A    between atoms: C_33  and  O_49
   20  A    between atoms: C_35  and  C_43
   21  A    between atoms: C_43  and  C_51
   22  A    between atoms: C_51  and  C_54
                            x       y       z     vdW  Elec       q    Type
                         _______ _______ _______ _____ _____    ______ ____

>  <TORSDO>
F 22

$$$$
=
 OpenBabel11052415003D

 55 59  0  0  1  0  0  0  0  0999 V2000
  190.0570  176.7490  145.8420 C   0  0  0  0  0  2  0  0  0  0  0  0
  187.8100  178.2650  146.3750 C   0  0  2  0  0  3  0  0  0  0  0  0
  188.0740  177.9520  145.0080 O   0  0  0  0  0  0  0  0  0  0  0  0
  189.5900  177.2040  147.2200 C   0  0  0  0  0  2  0  0  0  0  0  0
  188.8760  176.7910  144.8650 C   0  0  1  0  0  3  0  0  0  0  0  0
  188.1880  177.2440  147.2710 O   0  0  0  0  0  0  0  0  0  0  0  0
  186.3400  178.5990  146.5620 C   0  0  0  0  0  2  0  0  0  0  0  0
  185.5290  178.0360  145.4070 C   0  0  0  0  0  2  0  0  0  0  0  0
  184.1270  178.6170  145.4150 C   0  0  0  0  0  2  0  0  0  0  0  0
  183.8960  179.4290  144.1510 C   0  0  0  0  0  2  0  0  0  0  0  0
  182.4220  179.7550  143.9730 C   0  0  0  0  0  2  0  0  0  0  0  0
  181.6800  178.5920  143.3380 C   0  0  0  0  0  2  0  0  0  0  0  0
  181.5850  178.7910  141.8990 N   0  0  0  0  0  2  0  0  0  0  0  0
  182.5440  178.2420  140.9920 C   0  0  0  0  0  0  0  0  0  0  0  0
  183.5140  177.5680  141.4330 O   0  0  0  0  0  0  0  0  0  0  0  0
  180.0970  177.8540  138.9030 O   0  0  0  0  0  1  0  0  0  0  0  0
  182.3630  178.4410  139.5040 C   0  0  1  0  0  0  0  0  0  0  0  0
  181.5450  176.0290  139.4500 C   0  0  0  0  0  1  0  0  0  0  0  0
  181.4300  177.4350  138.8460 C   0  0  1  0  0  0  0  0  0  0  0  0
  183.3140  177.7970  137.4040 O   0  0  0  0  0  0  0  0  0  0  0  0
  181.9400  177.4790  137.4060 C   0  0  1  0  0  3  0  0  0  0  0  0
  181.8970  179.7460  139.2680 O   0  0  0  0  0  1  0  0  0  0  0  0
  183.6470  178.1980  138.7140 C   0  0  1  0  0  3  0  0  0  0  0  0
  184.5730  179.3730  138.6960 C   0  0  0  0  0  3  0  0  0  0  0  0
  184.1350  180.4990  138.8620 O   0  0  0  0  0  0  0  0  0  0  0  0
  181.6590  176.2260  136.5840 C   0  0  0  0  0  2  0  0  0  0  0  0
  182.8900  175.7720  135.8890 C   0  0  0  0  0  0  0  0  0  0  0  0
  183.2770  174.5850  136.0190 O   0  0  0  0  0  1  0  0  0  0  0  0
  183.6250  176.6600  135.1190 O   0  0  0  0  0  0  0  0  0  0  0  0
  189.3510  176.6470  143.4270 C   0  0  0  0  0  2  0  0  0  0  0  0
  188.5570  177.5500  142.4960 C   0  0  0  0  0  2  0  0  0  0  0  0
  189.4280  178.3020  141.7040 O   0  0  0  0  0  0  0  0  0  0  0  0
  189.4280  177.6530  140.4610 C   0  0  1  0  0  3  0  0  0  0  0  0
  187.4340  176.7080  138.4910 C   0  0  0  0  0  2  0  0  0  0  0  0
  186.8860  177.7740  136.3670 N   0  0  0  0  0  0  0  0  0  0  0  0
  188.1030  178.0400  138.3820 C   0  0  1  0  0  0  0  0  0  0  0  0
  189.0390  178.6440  139.3650 C   0  0  1  0  0  3  0  0  0  0  0  0
  187.8400  178.6560  137.0420 C   0  0  0  0  0  2  0  0  0  0  0  0
  186.9430  176.4810  137.0700 C   0  0  0  0  0  2  0  0  0  0  0  0
  187.6530  178.8900  139.4070 O   0  0  0  0  0  0  0  0  0  0  0  0
  187.3480  177.5660  134.9940 C   0  0  0  0  0  3  0  0  0  0  0  0
  188.7220  177.8080  134.9070 O   0  0  0  0  0  1  0  0  0  0  0  0
  187.0970  176.2500  134.5940 O   0  0  0  0  0  1  0  0  0  0  0  0
  190.7360  175.6370  140.4840 O   0  0  0  0  0  1  0  0  0  0  0  0
  190.7910  177.0010  140.1810 C   0  0  0  0  0  0  0  0  0  0  0  0
  191.7720  177.6090  140.9660 O   0  0  0  0  0  1  0  0  0  0  0  0
  191.1440  177.1980  138.7070 C   0  0  0  0  0  2  0  0  0  0  0  0
  190.8640  175.9670  137.8530 C   0  0  0  0  0  2  0  0  0  0  0  0
  191.9400  174.2980  136.5380 O   0  0  0  0  0  0  0  0  0  0  0  0
  192.7990  174.4700  137.6430 C   0  0  2  0  0  3  0  0  0  0  0  0
  192.0830  175.6130  137.0230 C   0  0  2  0  0  3  0  0  0  0  0  0
  195.2700  174.5030  138.3870 C   0  0  0  0  0  1  0  0  0  0  0  0
  194.5650  175.5040  136.2540 C   0  0  0  0  0  1  0  0  0  0  0  0
  194.5280  173.0660  136.5220 C   0  0  0  0  0  1  0  0  0  0  0  0
  194.2820  174.3830  137.2300 C   0  0  0  0  0  0  0  0  0  0  0  0
  1  4  1  0  0  0  0
  2  7  1  6  0  0  0
  2  6  1  0  0  0  0
  3  2  1  0  0  0  0
  4  6  1  0  0  0  0
  5 30  1  6  0  0  0
  5  3  1  0  0  0  0
  5  1  1  0  0  0  0
  8  9  1  0  0  0  0
  8  7  1  0  0  0  0
 10  9  1  0  0  0  0
 11 10  1  0  0  0  0
 12 11  1  0  0  0  0
 13 12  1  0  0  0  0
 14 15  2  0  0  0  0
 14 13  1  0  0  0  0
 17 22  1  6  0  0  0
 17 14  1  0  0  0  0
 19 16  1  0  0  0  0
 19 18  1  1  0  0  0
 19 17  1  0  0  0  0
 20 21  1  0  0  0  0
 20 23  1  0  0  0  0
 21 26  1  1  0  0  0
 21 19  1  0  0  0  0
 23 24  1  6  0  0  0
 23 17  1  0  0  0  0
 24 25  2  0  0  0  0
 27 28  1  0  0  0  0
 27 26  1  0  0  0  0
 29 27  2  0  0  0  0
 31 30  1  0  0  0  0
 32 31  1  0  0  0  0
 33 32  1  1  0  0  0
 35 38  1  0  0  0  0
 35 39  1  0  0  0  0
 36 38  1  6  0  0  0
 36 34  1  0  0  0  0
 36 37  1  0  0  0  0
 36 40  1  0  0  0  0
 37 40  1  0  0  0  0
 37 33  1  1  0  0  0
 39 34  1  0  0  0  0
 41 35  1  0  0  0  0
 42 41  1  0  0  0  0
 43 41  1  0  0  0  0
 45 33  1  0  0  0  0
 45 44  1  0  0  0  0
 45 46  1  0  0  0  0
 47 45  1  0  0  0  0
 48 47  1  0  0  0  0
 49 51  1  0  0  0  0
 49 50  1  0  0  0  0
 50 55  1  6  0  0  0
 51 50  1  0  0  0  0
 51 48  1  1  0  0  0
 53 55  1  0  0  0  0
 54 55  1  0  0  0  0
 55 52  1  0  0  0  0
M  END
>  <MODEL>
8

>  <REMARK>
 VINA RESULT:      -5.7      2.215      5.136
  Name = 
  22 active torsions:
  status: ('A' for Active; 'I' for Inactive)
    1  A    between atoms: C_1  and  C_53
    2  A    between atoms: C_2  and  C_28
    3  A    between atoms: C_2  and  C_44
    4  A    between atoms: C_6  and  C_20
    5  A    between atoms: N_7  and  C_22
    6  A    between atoms: C_8  and  C_22
    7  A    between atoms: C_8  and  C_35
    8  A    between atoms: C_10  and  N_32
    9  A    between atoms: C_11  and  C_29
   10  A    between atoms: C_16  and  C_17
   11  A    between atoms: C_16  and  C_26
   12  A    between atoms: C_17  and  C_33
   13  A    between atoms: C_19  and  C_40
   14  A    between atoms: C_26  and  C_45
   15  A    between atoms: C_27  and  C_54
   16  A    between atoms: C_28  and  O_49
   17  A    between atoms: C_29  and  C_38
   18  A    between atoms: C_33  and  C_36
   19  A    between atoms: C_33  and  O_49
   20  A    between atoms: C_35  and  C_43
   21  A    between atoms: C_43  and  C_51
   22  A    between atoms: C_51  and  C_54
                            x       y       z     vdW  Elec       q    Type
                         _______ _______ _______ _____ _____    ______ ____

>  <TORSDO>
F 22

$$$$
=
 OpenBabel11052415003D

 55 59  0  0  1  0  0  0  0  0999 V2000
  181.8070  176.0330  138.7710 C   0  0  0  0  0  2  0  0  0  0  0  0
  180.5610  177.4460  140.7910 C   0  0  2  0  0  3  0  0  0  0  0  0
  181.3850  178.1870  139.8920 O   0  0  0  0  0  0  0  0  0  0  0  0
  180.8940  175.4470  139.8410 C   0  0  0  0  0  2  0  0  0  0  0  0
  181.5400  177.5370  138.6410 C   0  0  1  0  0  3  0  0  0  0  0  0
  179.8890  176.3660  140.1820 O   0  0  0  0  0  0  0  0  0  0  0  0
  179.5560  178.3660  141.4620 C   0  0  0  0  0  2  0  0  0  0  0  0
  179.8640  178.4780  142.9460 C   0  0  0  0  0  2  0  0  0  0  0  0
  181.0590  179.3860  143.1700 C   0  0  0  0  0  2  0  0  0  0  0  0
  181.9680  178.7930  144.2330 C   0  0  0  0  0  2  0  0  0  0  0  0
  183.4270  179.1020  143.9380 C   0  0  0  0  0  2  0  0  0  0  0  0
  184.2430  179.1520  145.2190 C   0  0  0  0  0  2  0  0  0  0  0  0
  185.4160  178.2990  145.0930 N   0  0  0  0  0  2  0  0  0  0  0  0
  186.4780  178.3230  146.0510 C   0  0  0  0  0  0  0  0  0  0  0  0
  186.4190  179.1060  147.0370 O   0  0  0  0  0  0  0  0  0  0  0  0
  188.0950  176.3200  148.0180 O   0  0  0  0  0  1  0  0  0  0  0  0
  187.6460  177.3770  145.8920 C   0  0  1  0  0  0  0  0  0  0  0  0
  188.7060  178.6260  147.8430 C   0  0  0  0  0  1  0  0  0  0  0  0
  188.5480  177.2850  147.1150 C   0  0  1  0  0  0  0  0  0  0  0  0
  189.9190  177.3260  145.1450 O   0  0  0  0  0  0  0  0  0  0  0  0
  189.8550  176.8330  146.4650 C   0  0  1  0  0  3  0  0  0  0  0  0
  187.1620  176.1000  145.5610 O   0  0  0  0  0  1  0  0  0  0  0  0
  188.6450  177.8430  144.8350 C   0  0  1  0  0  3  0  0  0  0  0  0
  188.2490  177.4890  143.4360 C   0  0  0  0  0  3  0  0  0  0  0  0
  187.5660  178.2580  142.7810 O   0  0  0  0  0  0  0  0  0  0  0  0
  191.1170  177.1770  147.2480 C   0  0  0  0  0  2  0  0  0  0  0  0
  192.0130  175.9970  147.3390 C   0  0  0  0  0  0  0  0  0  0  0  0
  192.4560  175.6360  148.4570 O   0  0  0  0  0  1  0  0  0  0  0  0
  192.3820  175.3100  146.1930 O   0  0  0  0  0  0  0  0  0  0  0  0
  182.6250  178.2160  137.8210 C   0  0  0  0  0  2  0  0  0  0  0  0
  183.7760  177.2620  137.5410 C   0  0  0  0  0  2  0  0  0  0  0  0
  184.3210  177.5270  136.2840 O   0  0  0  0  0  0  0  0  0  0  0  0
  185.6620  177.1320  136.3860 C   0  0  1  0  0  3  0  0  0  0  0  0
  188.4350  178.0350  136.8840 C   0  0  0  0  0  2  0  0  0  0  0  0
  189.6630  177.8370  138.9820 N   0  0  0  0  0  0  0  0  0  0  0  0
  187.5330  177.5660  137.9800 C   0  0  1  0  0  0  0  0  0  0  0  0
  186.1030  177.1880  137.8490 C   0  0  1  0  0  3  0  0  0  0  0  0
  188.3040  177.3590  139.2470 C   0  0  0  0  0  2  0  0  0  0  0  0
  189.8090  177.8870  137.5180 C   0  0  0  0  0  2  0  0  0  0  0  0
  186.4990  178.4970  138.1840 O   0  0  0  0  0  0  0  0  0  0  0  0
  190.6060  176.8460  139.5010 C   0  0  0  0  0  3  0  0  0  0  0  0
  190.2620  176.4940  140.8090 O   0  0  0  0  0  1  0  0  0  0  0  0
  190.5840  175.6970  138.7050 O   0  0  0  0  0  1  0  0  0  0  0  0
  185.8800  174.7750  136.7970 O   0  0  0  0  0  1  0  0  0  0  0  0
  185.8720  175.7350  135.7810 C   0  0  0  0  0  0  0  0  0  0  0  0
  187.0900  175.6980  135.1010 O   0  0  0  0  0  1  0  0  0  0  0  0
  184.7430  175.4450  134.7930 C   0  0  0  0  0  2  0  0  0  0  0  0
  184.2680  173.9970  134.8320 C   0  0  0  0  0  2  0  0  0  0  0  0
  182.6270  174.2340  136.5420 O   0  0  0  0  0  0  0  0  0  0  0  0
  182.5530  172.8720  136.1820 C   0  0  2  0  0  3  0  0  0  0  0  0
  182.7920  173.9360  135.1740 C   0  0  2  0  0  3  0  0  0  0  0  0
  180.8060  171.2660  135.1700 C   0  0  0  0  0  1  0  0  0  0  0  0
  180.1850  173.5280  135.9060 C   0  0  0  0  0  1  0  0  0  0  0  0
  180.7680  171.8270  137.5740 C   0  0  0  0  0  1  0  0  0  0  0  0
  181.1000  172.3580  136.1940 C   0  0  0  0  0  0  0  0  0  0  0  0
  1  4  1  0  0  0  0
  2  7  1  6  0  0  0
  3  2  1  0  0  0  0
  4  6  1  0  0  0  0
  5 30  1  1  0  0  0
  5  1  1  0  0  0  0
  5  3  1  0  0  0  0
  6  2  1  0  0  0  0
  7  8  1  0  0  0  0
  8  9  1  0  0  0  0
  9 10  1  0  0  0  0
 11 10  1  0  0  0  0
 11 12  1  0  0  0  0
 13 12  1  0  0  0  0
 13 14  1  0  0  0  0
 14 15  2  0  0  0  0
 17 22  1  6  0  0  0
 17 14  1  0  0  0  0
 17 19  1  0  0  0  0
 19 18  1  1  0  0  0
 19 16  1  0  0  0  0
 20 21  1  0  0  0  0
 21 19  1  0  0  0  0
 21 26  1  1  0  0  0
 23 24  1  6  0  0  0
 23 20  1  0  0  0  0
 23 17  1  0  0  0  0
 25 24  2  0  0  0  0
 26 27  1  0  0  0  0
 27 28  1  0  0  0  0
 29 27  2  0  0  0  0
 31 30  1  0  0  0  0
 32 31  1  0  0  0  0
 33 32  1  1  0  0  0
 34 39  1  0  0  0  0
 35 38  1  0  0  0  0
 35 41  1  0  0  0  0
 36 34  1  6  0  0  0
 36 40  1  0  0  0  0
 36 38  1  0  0  0  0
 37 33  1  6  0  0  0
 37 36  1  0  0  0  0
 37 40  1  0  0  0  0
 39 35  1  0  0  0  0
 41 42  1  0  0  0  0
 43 41  1  0  0  0  0
 45 33  1  0  0  0  0
 45 44  1  0  0  0  0
 46 45  1  0  0  0  0
 47 48  1  0  0  0  0
 47 45  1  0  0  0  0
 50 55  1  6  0  0  0
 50 49  1  0  0  0  0
 51 48  1  1  0  0  0
 51 50  1  0  0  0  0
 51 49  1  0  0  0  0
 52 55  1  0  0  0  0
 53 55  1  0  0  0  0
 55 54  1  0  0  0  0
M  END
>  <MODEL>
9

>  <REMARK>
 VINA RESULT:      -5.6      2.629      7.987
  Name = 
  22 active torsions:
  status: ('A' for Active; 'I' for Inactive)
    1  A    between atoms: C_1  and  C_53
    2  A    between atoms: C_2  and  C_28
    3  A    between atoms: C_2  and  C_44
    4  A    between atoms: C_6  and  C_20
    5  A    between atoms: N_7  and  C_22
    6  A    between atoms: C_8  and  C_22
    7  A    between atoms: C_8  and  C_35
    8  A    between atoms: C_10  and  N_32
    9  A    between atoms: C_11  and  C_29
   10  A    between atoms: C_16  and  C_17
   11  A    between atoms: C_16  and  C_26
   12  A    between atoms: C_17  and  C_33
   13  A    between atoms: C_19  and  C_40
   14  A    between atoms: C_26  and  C_45
   15  A    between atoms: C_27  and  C_54
   16  A    between atoms: C_28  and  O_49
   17  A    between atoms: C_29  and  C_38
   18  A    between atoms: C_33  and  C_36
   19  A    between atoms: C_33  and  O_49
   20  A    between atoms: C_35  and  C_43
   21  A    between atoms: C_43  and  C_51
   22  A    between atoms: C_51  and  C_54
                            x       y       z     vdW  Elec       q    Type
                         _______ _______ _______ _____ _____    ______ ____

>  <TORSDO>
F 22

$$$$
