=
 OpenBabel11052412523D

 25 28  0  0  1  0  0  0  0  0999 V2000
  190.1760  177.9830  144.4000 C   0  0  1  0  0  0  0  0  0  0  0  0
  189.8750  178.2190  142.9050 C   0  0  2  0  0  3  0  0  0  0  0  0
  191.4850  175.8590  143.9500 C   0  0  0  0  0  2  0  0  0  0  0  0
  189.1560  178.4230  145.2700 O   0  0  0  0  0  0  0  0  0  0  0  0
  189.6210  178.1800  147.5110 O   0  0  0  0  0  1  0  0  0  0  0  0
  191.7320  176.4730  142.5550 C   0  0  0  0  0  2  0  0  0  0  0  0
  189.1580  177.5230  146.3710 C   0  0  1  0  0  0  0  0  0  0  0  0
  187.7450  177.0330  146.6190 C   0  0  0  0  0  1  0  0  0  0  0  0
  190.0440  176.9360  140.7480 C   0  0  0  0  0  0  0  0  0  0  0  0
  190.7380  176.3080  139.9050 O   0  0  0  0  0  0  0  0  0  0  0  0
  188.3780  178.2310  142.5910 C   0  0  0  0  0  2  0  0  0  0  0  0
  190.2570  176.4920  144.6010 C   0  0  1  0  0  3  0  0  0  0  0  0
  190.0640  176.3330  146.0670 C   0  0  0  0  0  2  0  0  0  0  0  0
  188.6260  177.2970  140.4190 C   0  0  0  0  0  2  0  0  0  0  0  0
  188.1960  178.4820  141.1630 N   0  0  0  0  0  0  0  0  0  0  0  0
  190.5620  177.2180  142.0570 N   0  0  0  0  0  0  0  0  0  0  0  0
  191.4960  178.6930  144.7710 C   0  0  0  0  0  2  0  0  0  0  0  0
  191.5560  180.1090  144.2190 C   0  0  0  0  0  1  0  0  0  0  0  0
  186.7700  178.6250  140.9310 C   0  0  0  0  0  2  0  0  0  0  0  0
  186.0690  178.3110  142.0970 O   0  0  0  0  0  0  0  0  0  0  0  0
  184.6090  179.5240  143.6010 C   0  0  2  0  0  3  0  0  0  0  0  0
  183.7890  178.6170  142.7070 C   0  0  0  0  0  2  0  0  0  0  0  0
  185.0460  179.2620  142.1600 C   0  0  2  0  0  3  0  0  0  0  0  0
  184.5730  178.7640  145.6770 C   0  0  0  0  0  1  0  0  0  0  0  0
  185.3370  178.7500  144.5100 O   0  0  0  0  0  0  0  0  0  0  0  0
  1 12  1  0  0  0  0
  1 17  1  1  0  0  0
  1  4  1  0  0  0  0
  2 11  1  1  0  0  0
  2  1  1  0  0  0  0
  4  7  1  0  0  0  0
  6  3  1  0  0  0  0
  7  8  1  1  0  0  0
  7  5  1  0  0  0  0
  9 16  1  0  0  0  0
 10  9  2  0  0  0  0
 12  3  1  1  0  0  0
 12 13  1  0  0  0  0
 13  7  1  0  0  0  0
 14  9  1  0  0  0  0
 14 15  1  0  0  0  0
 15 11  1  0  0  0  0
 16  6  1  0  0  0  0
 16  2  1  0  0  0  0
 18 17  1  0  0  0  0
 19 15  1  0  0  0  0
 19 20  1  0  0  0  0
 21 25  1  1  0  0  0
 22 21  1  0  0  0  0
 23 20  1  1  0  0  0
 23 22  1  0  0  0  0
 23 21  1  0  0  0  0
 25 24  1  0  0  0  0
M  END
>  <MODEL>
1

>  <REMARK>
 VINA RESULT:      -6.1      0.000      0.000
  Name = 
  5 active torsions:
  status: ('A' for Active; 'I' for Inactive)
    1  A    between atoms: C_1  and  C_17
    2  A    between atoms: C_2  and  O_12
    3  A    between atoms: C_6  and  O_15
    4  A    between atoms: C_6  and  N_23
    5  A    between atoms: O_15  and  C_25
                            x       y       z     vdW  Elec       q    Type
                         _______ _______ _______ _____ _____    ______ ____

>  <TORSDO>
F 5

$$$$
=
 OpenBabel11052412523D

 25 28  0  0  1  0  0  0  0  0999 V2000
  182.4700  178.6600  139.0790 C   0  0  1  0  0  0  0  0  0  0  0  0
  183.2360  179.1850  140.3110 C   0  0  2  0  0  3  0  0  0  0  0  0
  180.7340  177.4640  140.4870 C   0  0  0  0  0  2  0  0  0  0  0  0
  183.2910  178.3830  137.9650 O   0  0  0  0  0  0  0  0  0  0  0  0
  182.1660  177.6980  136.0780 O   0  0  0  0  0  1  0  0  0  0  0  0
  181.0960  178.5060  141.5660 C   0  0  0  0  0  2  0  0  0  0  0  0
  182.6940  177.2780  137.2980 C   0  0  1  0  0  0  0  0  0  0  0  0
  183.7480  176.2180  137.0440 C   0  0  0  0  0  1  0  0  0  0  0  0
  183.2770  178.7690  142.7920 C   0  0  0  0  0  0  0  0  0  0  0  0
  182.6840  178.7460  143.9030 O   0  0  0  0  0  0  0  0  0  0  0  0
  184.6840  178.6930  140.3690 C   0  0  0  0  0  2  0  0  0  0  0  0
  181.8660  177.3360  139.4690 C   0  0  1  0  0  3  0  0  0  0  0  0
  181.5790  176.6920  138.1600 C   0  0  0  0  0  2  0  0  0  0  0  0
  184.7690  178.6170  142.7450 C   0  0  0  0  0  2  0  0  0  0  0  0
  185.3280  179.2580  141.5530 N   0  0  0  0  0  0  0  0  0  0  0  0
  182.5320  178.8350  141.5660 N   0  0  0  0  0  0  0  0  0  0  0  0
  181.3980  179.6930  138.6700 C   0  0  0  0  0  2  0  0  0  0  0  0
  181.9920  181.0760  138.4540 C   0  0  0  0  0  1  0  0  0  0  0  0
  186.7300  178.8830  141.4980 C   0  0  0  0  0  2  0  0  0  0  0  0
  187.1100  178.6730  140.1720 O   0  0  0  0  0  0  0  0  0  0  0  0
  189.1490  178.5640  138.8710 C   0  0  2  0  0  3  0  0  0  0  0  0
  188.7960  177.1860  139.3920 C   0  0  0  0  0  2  0  0  0  0  0  0
  188.4800  178.4040  140.2350 C   0  0  2  0  0  3  0  0  0  0  0  0
  188.8270  178.5630  136.6840 C   0  0  0  0  0  1  0  0  0  0  0  0
  188.2310  178.9420  137.8860 O   0  0  0  0  0  0  0  0  0  0  0  0
  1 17  1  6  0  0  0
  1 12  1  0  0  0  0
  1  2  1  0  0  0  0
  2 11  1  1  0  0  0
  2 16  1  0  0  0  0
  3  6  1  0  0  0  0
  4  1  1  0  0  0  0
  5  7  1  0  0  0  0
  7  8  1  6  0  0  0
  7  4  1  0  0  0  0
  7 13  1  0  0  0  0
  9 10  2  0  0  0  0
 11 15  1  0  0  0  0
 12 13  1  6  0  0  0
 12  3  1  0  0  0  0
 14  9  1  0  0  0  0
 15 14  1  0  0  0  0
 16  6  1  0  0  0  0
 16  9  1  0  0  0  0
 18 17  1  0  0  0  0
 19 15  1  0  0  0  0
 20 19  1  0  0  0  0
 21 25  1  6  0  0  0
 21 22  1  0  0  0  0
 21 23  1  0  0  0  0
 22 23  1  0  0  0  0
 23 20  1  6  0  0  0
 24 25  1  0  0  0  0
M  END
>  <MODEL>
2

>  <REMARK>
 VINA RESULT:      -5.6      4.195      8.729
  Name = 
  5 active torsions:
  status: ('A' for Active; 'I' for Inactive)
    1  A    between atoms: C_1  and  C_17
    2  A    between atoms: C_2  and  O_12
    3  A    between atoms: C_6  and  O_15
    4  A    between atoms: C_6  and  N_23
    5  A    between atoms: O_15  and  C_25
                            x       y       z     vdW  Elec       q    Type
                         _______ _______ _______ _____ _____    ______ ____

>  <TORSDO>
F 5

$$$$
=
 OpenBabel11052412523D

 25 28  0  0  1  0  0  0  0  0999 V2000
  188.3030  176.5570  136.8940 C   0  0  1  0  0  0  0  0  0  0  0  0
  188.5960  177.4570  138.1120 C   0  0  2  0  0  3  0  0  0  0  0  0
  185.7930  176.6620  137.2370 C   0  0  0  0  0  2  0  0  0  0  0  0
  189.2890  175.5770  136.6510 O   0  0  0  0  0  0  0  0  0  0  0  0
  188.9330  174.2860  134.7790 O   0  0  0  0  0  1  0  0  0  0  0  0
  186.0880  178.0020  137.9440 C   0  0  0  0  0  2  0  0  0  0  0  0
  188.6040  174.4470  136.1250 C   0  0  1  0  0  0  0  0  0  0  0  0
  189.0230  173.2070  136.8910 C   0  0  0  0  0  1  0  0  0  0  0  0
  187.3430  178.3740  140.0920 C   0  0  0  0  0  0  0  0  0  0  0  0
  186.3920  179.0530  140.5600 O   0  0  0  0  0  0  0  0  0  0  0  0
  189.4470  176.7640  139.1780 C   0  0  0  0  0  2  0  0  0  0  0  0
  187.0460  175.7890  137.2090 C   0  0  1  0  0  3  0  0  0  0  0  0
  187.0970  174.6440  136.2600 C   0  0  0  0  0  2  0  0  0  0  0  0
  188.4350  177.8990  141.0060 C   0  0  0  0  0  2  0  0  0  0  0  0
  189.6860  177.7000  140.2740 N   0  0  0  0  0  0  0  0  0  0  0  0
  187.3420  177.9640  138.7160 N   0  0  0  0  0  0  0  0  0  0  0  0
  188.1480  177.4380  135.6360 C   0  0  0  0  0  2  0  0  0  0  0  0
  189.4740  177.6550  134.9250 C   0  0  0  0  0  1  0  0  0  0  0  0
  190.6080  177.0550  141.1940 C   0  0  0  0  0  2  0  0  0  0  0  0
  190.2200  177.3150  142.5090 O   0  0  0  0  0  0  0  0  0  0  0  0
  191.1790  177.7140  144.6960 C   0  0  2  0  0  3  0  0  0  0  0  0
  191.4860  178.8790  143.7790 C   0  0  0  0  0  2  0  0  0  0  0  0
  191.4200  177.4780  143.2060 C   0  0  2  0  0  3  0  0  0  0  0  0
  189.7450  177.1540  146.2830 C   0  0  0  0  0  1  0  0  0  0  0  0
  189.8150  177.7090  145.0050 O   0  0  0  0  0  0  0  0  0  0  0  0
  1 17  1  6  0  0  0
  1 12  1  0  0  0  0
  1  2  1  0  0  0  0
  2 16  1  0  0  0  0
  2 11  1  1  0  0  0
  3  6  1  0  0  0  0
  4  1  1  0  0  0  0
  5  7  1  0  0  0  0
  6 16  1  0  0  0  0
  7 13  1  0  0  0  0
  7  4  1  0  0  0  0
  7  8  1  1  0  0  0
  9 10  2  0  0  0  0
  9 14  1  0  0  0  0
 11 15  1  0  0  0  0
 12 13  1  6  0  0  0
 12  3  1  0  0  0  0
 15 14  1  0  0  0  0
 15 19  1  0  0  0  0
 16  9  1  0  0  0  0
 18 17  1  0  0  0  0
 19 20  1  0  0  0  0
 21 25  1  6  0  0  0
 22 21  1  0  0  0  0
 23 20  1  6  0  0  0
 23 22  1  0  0  0  0
 23 21  1  0  0  0  0
 25 24  1  0  0  0  0
M  END
>  <MODEL>
3

>  <REMARK>
 VINA RESULT:      -5.5      3.328      7.458
  Name = 
  5 active torsions:
  status: ('A' for Active; 'I' for Inactive)
    1  A    between atoms: C_1  and  C_17
    2  A    between atoms: C_2  and  O_12
    3  A    between atoms: C_6  and  O_15
    4  A    between atoms: C_6  and  N_23
    5  A    between atoms: O_15  and  C_25
                            x       y       z     vdW  Elec       q    Type
                         _______ _______ _______ _____ _____    ______ ____

>  <TORSDO>
F 5

$$$$
=
 OpenBabel11052412523D

 25 28  0  0  1  0  0  0  0  0999 V2000
  188.8530  175.8150  136.9100 C   0  0  1  0  0  0  0  0  0  0  0  0
  189.9560  175.7410  137.9860 C   0  0  2  0  0  3  0  0  0  0  0  0
  190.4290  176.7330  135.1490 C   0  0  0  0  0  2  0  0  0  0  0  0
  187.5690  176.1010  137.4210 O   0  0  0  0  0  0  0  0  0  0  0  0
  185.8830  176.1150  135.8540 O   0  0  0  0  0  1  0  0  0  0  0  0
  191.5310  176.0340  135.9730 C   0  0  0  0  0  2  0  0  0  0  0  0
  186.9070  176.8700  136.4240 C   0  0  1  0  0  0  0  0  0  0  0  0
  186.3150  178.1110  137.0630 C   0  0  0  0  0  1  0  0  0  0  0  0
  192.3060  176.5830  138.3020 C   0  0  0  0  0  0  0  0  0  0  0  0
  193.5030  176.6430  137.9170 O   0  0  0  0  0  0  0  0  0  0  0  0
  189.6550  176.6030  139.2120 C   0  0  0  0  0  2  0  0  0  0  0  0
  189.1930  176.9770  136.0130 C   0  0  1  0  0  3  0  0  0  0  0  0
  187.9010  177.2800  135.3410 C   0  0  0  0  0  2  0  0  0  0  0  0
  191.9350  177.1170  139.6540 C   0  0  0  0  0  2  0  0  0  0  0  0
  190.7420  176.4490  140.1770 N   0  0  0  0  0  0  0  0  0  0  0  0
  191.2770  176.1050  137.4220 N   0  0  0  0  0  0  0  0  0  0  0  0
  188.8030  174.4790  136.1390 C   0  0  0  0  0  2  0  0  0  0  0  0
  189.0280  173.2850  137.0530 C   0  0  0  0  0  1  0  0  0  0  0  0
  190.3550  177.1680  141.3780 C   0  0  0  0  0  2  0  0  0  0  0  0
  191.3160  176.9780  142.3720 O   0  0  0  0  0  0  0  0  0  0  0  0
  191.4780  177.8630  144.6190 C   0  0  2  0  0  3  0  0  0  0  0  0
  190.0860  178.0990  144.0720 C   0  0  0  0  0  2  0  0  0  0  0  0
  191.2730  178.1490  143.1320 C   0  0  2  0  0  3  0  0  0  0  0  0
  191.7930  176.4010  146.2470 C   0  0  0  0  0  1  0  0  0  0  0  0
  191.6600  176.4980  144.8620 O   0  0  0  0  0  0  0  0  0  0  0  0
  1 17  1  6  0  0  0
  1  4  1  0  0  0  0
  1  2  1  0  0  0  0
  2 11  1  1  0  0  0
  3  6  1  0  0  0  0
  5  7  1  0  0  0  0
  6 16  1  0  0  0  0
  7  8  1  1  0  0  0
  7  4  1  0  0  0  0
  9 14  1  0  0  0  0
 10  9  2  0  0  0  0
 11 15  1  0  0  0  0
 12  3  1  6  0  0  0
 12  1  1  0  0  0  0
 13 12  1  0  0  0  0
 13  7  1  0  0  0  0
 14 15  1  0  0  0  0
 15 19  1  0  0  0  0
 16  2  1  0  0  0  0
 16  9  1  0  0  0  0
 17 18  1  0  0  0  0
 19 20  1  0  0  0  0
 21 25  1  6  0  0  0
 22 21  1  0  0  0  0
 23 20  1  6  0  0  0
 23 22  1  0  0  0  0
 23 21  1  0  0  0  0
 25 24  1  0  0  0  0
M  END
>  <MODEL>
4

>  <REMARK>
 VINA RESULT:      -5.5      3.757      7.495
  Name = 
  5 active torsions:
  status: ('A' for Active; 'I' for Inactive)
    1  A    between atoms: C_1  and  C_17
    2  A    between atoms: C_2  and  O_12
    3  A    between atoms: C_6  and  O_15
    4  A    between atoms: C_6  and  N_23
    5  A    between atoms: O_15  and  C_25
                            x       y       z     vdW  Elec       q    Type
                         _______ _______ _______ _____ _____    ______ ____

>  <TORSDO>
F 5

$$$$
=
 OpenBabel11052412523D

 25 28  0  0  1  0  0  0  0  0999 V2000
  190.1490  177.9490  144.5350 C   0  0  1  0  0  0  0  0  0  0  0  0
  189.6140  178.2870  143.1270 C   0  0  2  0  0  3  0  0  0  0  0  0
  191.4190  175.9120  143.7210 C   0  0  0  0  0  2  0  0  0  0  0  0
  189.2660  178.2860  145.5820 O   0  0  0  0  0  0  0  0  0  0  0  0
  190.0770  177.8910  147.6990 O   0  0  0  0  0  1  0  0  0  0  0  0
  191.4340  176.6380  142.3590 C   0  0  0  0  0  2  0  0  0  0  0  0
  189.4590  177.3060  146.5950 C   0  0  1  0  0  0  0  0  0  0  0  0
  188.1130  176.7500  147.0150 C   0  0  0  0  0  1  0  0  0  0  0  0
  189.4770  177.1770  140.8740 C   0  0  0  0  0  0  0  0  0  0  0  0
  190.0450  176.6390  139.8870 O   0  0  0  0  0  0  0  0  0  0  0  0
  188.0870  178.2710  143.0470 C   0  0  0  0  0  2  0  0  0  0  0  0
  190.2930  176.4510  144.6010 C   0  0  1  0  0  3  0  0  0  0  0  0
  190.3330  176.1750  146.0620 C   0  0  0  0  0  2  0  0  0  0  0  0
  188.0170  177.5130  140.7950 C   0  0  0  0  0  2  0  0  0  0  0  0
  187.6810  178.6220  141.6890 N   0  0  0  0  0  0  0  0  0  0  0  0
  190.1840  177.3770  142.1070 N   0  0  0  0  0  0  0  0  0  0  0  0
  191.4930  178.6750  144.7550 C   0  0  0  0  0  2  0  0  0  0  0  0
  191.4270  180.1370  144.3430 C   0  0  0  0  0  1  0  0  0  0  0  0
  186.2320  178.7320  141.6890 C   0  0  0  0  0  2  0  0  0  0  0  0
  185.8080  179.3730  140.5240 O   0  0  0  0  0  0  0  0  0  0  0  0
  184.7820  178.3030  138.6100 C   0  0  2  0  0  3  0  0  0  0  0  0
  183.9090  179.4440  139.0920 C   0  0  0  0  0  2  0  0  0  0  0  0
  184.7000  178.6350  140.0990 C   0  0  2  0  0  3  0  0  0  0  0  0
  186.3530  177.8340  137.1280 C   0  0  0  0  0  1  0  0  0  0  0  0
  185.9450  178.8170  138.0290 O   0  0  0  0  0  0  0  0  0  0  0  0
  1 12  1  0  0  0  0
  1 17  1  1  0  0  0
  1  4  1  0  0  0  0
  2 11  1  1  0  0  0
  2  1  1  0  0  0  0
  4  7  1  0  0  0  0
  6  3  1  0  0  0  0
  7  8  1  1  0  0  0
  7  5  1  0  0  0  0
  9 16  1  0  0  0  0
 10  9  2  0  0  0  0
 12  3  1  6  0  0  0
 12 13  1  0  0  0  0
 13  7  1  0  0  0  0
 14  9  1  0  0  0  0
 14 15  1  0  0  0  0
 15 11  1  0  0  0  0
 16  6  1  0  0  0  0
 16  2  1  0  0  0  0
 18 17  1  0  0  0  0
 19 15  1  0  0  0  0
 20 19  1  0  0  0  0
 21 25  1  6  0  0  0
 21 22  1  0  0  0  0
 21 23  1  0  0  0  0
 22 23  1  0  0  0  0
 23 20  1  6  0  0  0
 24 25  1  0  0  0  0
M  END
>  <MODEL>
5

>  <REMARK>
 VINA RESULT:      -5.3      1.621      2.631
  Name = 
  5 active torsions:
  status: ('A' for Active; 'I' for Inactive)
    1  A    between atoms: C_1  and  C_17
    2  A    between atoms: C_2  and  O_12
    3  A    between atoms: C_6  and  O_15
    4  A    between atoms: C_6  and  N_23
    5  A    between atoms: O_15  and  C_25
                            x       y       z     vdW  Elec       q    Type
                         _______ _______ _______ _____ _____    ______ ____

>  <TORSDO>
F 5

$$$$
=
 OpenBabel11052412523D

 25 28  0  0  1  0  0  0  0  0999 V2000
  193.3980  175.4900  137.0060 C   0  0  1  0  0  0  0  0  0  0  0  0
  192.4200  176.4290  137.7420 C   0  0  2  0  0  3  0  0  0  0  0  0
  191.5520  173.9290  136.2420 C   0  0  0  0  0  2  0  0  0  0  0  0
  194.6700  175.3950  137.6100 O   0  0  0  0  0  0  0  0  0  0  0  0
  196.1850  174.0840  136.4780 O   0  0  0  0  0  1  0  0  0  0  0  0
  190.6410  175.1680  136.3780 C   0  0  0  0  0  2  0  0  0  0  0  0
  195.1210  174.0660  137.3790 C   0  0  1  0  0  0  0  0  0  0  0  0
  195.5880  173.4620  138.6890 C   0  0  0  0  0  1  0  0  0  0  0  0
  190.0140  176.4040  138.4770 C   0  0  0  0  0  0  0  0  0  0  0  0
  188.7900  176.3100  138.1970 O   0  0  0  0  0  0  0  0  0  0  0  0
  192.7070  176.5370  139.2410 C   0  0  0  0  0  2  0  0  0  0  0  0
  192.8150  174.1030  137.0830 C   0  0  1  0  0  3  0  0  0  0  0  0
  193.9840  173.2250  136.8060 C   0  0  0  0  0  2  0  0  0  0  0  0
  190.4280  176.8250  139.8570 C   0  0  0  0  0  2  0  0  0  0  0  0
  191.7470  177.4600  139.8410 N   0  0  0  0  0  0  0  0  0  0  0  0
  191.0150  176.0150  137.5250 N   0  0  0  0  0  0  0  0  0  0  0  0
  193.5660  175.9720  135.5490 C   0  0  0  0  0  2  0  0  0  0  0  0
  194.6770  177.0010  135.4130 C   0  0  0  0  0  1  0  0  0  0  0  0
  192.1370  177.6430  141.2280 C   0  0  0  0  0  2  0  0  0  0  0  0
  191.0060  177.6070  142.0450 O   0  0  0  0  0  0  0  0  0  0  0  0
  190.3760  177.8530  144.3700 C   0  0  2  0  0  3  0  0  0  0  0  0
  191.0930  179.1000  143.8960 C   0  0  0  0  0  2  0  0  0  0  0  0
  191.5030  177.7510  143.3430 C   0  0  2  0  0  3  0  0  0  0  0  0
  188.2220  177.6570  144.8270 C   0  0  0  0  0  1  0  0  0  0  0  0
  189.1180  177.7790  143.7640 O   0  0  0  0  0  0  0  0  0  0  0  0
  1 17  1  6  0  0  0
  1 12  1  0  0  0  0
  1  4  1  0  0  0  0
  1  2  1  0  0  0  0
  2 11  1  1  0  0  0
  3  6  1  0  0  0  0
  5  7  1  0  0  0  0
  6 16  1  0  0  0  0
  7  4  1  0  0  0  0
  7  8  1  1  0  0  0
  9 14  1  0  0  0  0
 10  9  2  0  0  0  0
 11 15  1  0  0  0  0
 12  3  1  6  0  0  0
 13 12  1  0  0  0  0
 13  7  1  0  0  0  0
 15 14  1  0  0  0  0
 15 19  1  0  0  0  0
 16  2  1  0  0  0  0
 16  9  1  0  0  0  0
 18 17  1  0  0  0  0
 19 20  1  0  0  0  0
 21 25  1  6  0  0  0
 22 21  1  0  0  0  0
 23 20  1  6  0  0  0
 23 22  1  0  0  0  0
 23 21  1  0  0  0  0
 25 24  1  0  0  0  0
M  END
>  <MODEL>
6

>  <REMARK>
 VINA RESULT:      -5.3      4.390      7.588
  Name = 
  5 active torsions:
  status: ('A' for Active; 'I' for Inactive)
    1  A    between atoms: C_1  and  C_17
    2  A    between atoms: C_2  and  O_12
    3  A    between atoms: C_6  and  O_15
    4  A    between atoms: C_6  and  N_23
    5  A    between atoms: O_15  and  C_25
                            x       y       z     vdW  Elec       q    Type
                         _______ _______ _______ _____ _____    ______ ____

>  <TORSDO>
F 5

$$$$
=
 OpenBabel11052412523D

 25 28  0  0  1  0  0  0  0  0999 V2000
  183.2140  178.4750  138.9570 C   0  0  1  0  0  0  0  0  0  0  0  0
  183.9210  179.0030  140.2240 C   0  0  2  0  0  3  0  0  0  0  0  0
  181.3700  177.3460  140.2800 C   0  0  0  0  0  2  0  0  0  0  0  0
  184.0910  178.1590  137.8980 O   0  0  0  0  0  0  0  0  0  0  0  0
  183.0620  177.4690  135.9590 O   0  0  0  0  0  1  0  0  0  0  0  0
  181.6950  178.3980  141.3620 C   0  0  0  0  0  2  0  0  0  0  0  0
  183.5070  177.0570  137.2150 C   0  0  1  0  0  0  0  0  0  0  0  0
  184.5470  175.9680  137.0410 C   0  0  0  0  0  1  0  0  0  0  0  0
  183.8070  178.6300  142.7090 C   0  0  0  0  0  0  0  0  0  0  0  0
  183.1500  178.6400  143.7830 O   0  0  0  0  0  0  0  0  0  0  0  0
  185.3490  178.4780  140.3750 C   0  0  0  0  0  2  0  0  0  0  0  0
  182.5560  177.1730  139.3330 C   0  0  1  0  0  3  0  0  0  0  0  0
  182.3300  176.5130  138.0190 C   0  0  0  0  0  2  0  0  0  0  0  0
  185.2940  178.4410  142.7520 C   0  0  0  0  0  2  0  0  0  0  0  0
  185.9370  179.0480  141.5850 N   0  0  0  0  0  0  0  0  0  0  0  0
  183.1360  178.6930  141.4410 N   0  0  0  0  0  0  0  0  0  0  0  0
  182.1940  179.5260  138.4700 C   0  0  0  0  0  2  0  0  0  0  0  0
  182.6750  180.9470  138.7190 C   0  0  0  0  0  1  0  0  0  0  0  0
  187.3310  178.6390  141.6180 C   0  0  0  0  0  2  0  0  0  0  0  0
  187.5130  177.6640  142.6000 O   0  0  0  0  0  0  0  0  0  0  0  0
  189.4430  176.8540  143.8150 C   0  0  2  0  0  3  0  0  0  0  0  0
  189.7260  178.2350  143.2610 C   0  0  0  0  0  2  0  0  0  0  0  0
  188.8510  177.2820  142.4730 C   0  0  2  0  0  3  0  0  0  0  0  0
  189.2660  177.1510  145.9990 C   0  0  0  0  0  1  0  0  0  0  0  0
  188.5050  176.9470  144.8480 O   0  0  0  0  0  0  0  0  0  0  0  0
  1 17  1  6  0  0  0
  1 12  1  0  0  0  0
  1  2  1  0  0  0  0
  2 11  1  1  0  0  0
  2 16  1  0  0  0  0
  3  6  1  0  0  0  0
  4  1  1  0  0  0  0
  5  7  1  0  0  0  0
  6 16  1  0  0  0  0
  7  8  1  6  0  0  0
  7  4  1  0  0  0  0
  7 13  1  0  0  0  0
  9 14  1  0  0  0  0
  9 10  2  0  0  0  0
 11 15  1  0  0  0  0
 12 13  1  6  0  0  0
 12  3  1  0  0  0  0
 15 19  1  0  0  0  0
 15 14  1  0  0  0  0
 16  9  1  0  0  0  0
 17 18  1  0  0  0  0
 19 20  1  0  0  0  0
 21 25  1  1  0  0  0
 22 21  1  0  0  0  0
 23 20  1  1  0  0  0
 23 22  1  0  0  0  0
 23 21  1  0  0  0  0
 25 24  1  0  0  0  0
M  END
>  <MODEL>
7

>  <REMARK>
 VINA RESULT:      -5.3      3.444      8.039
  Name = 
  5 active torsions:
  status: ('A' for Active; 'I' for Inactive)
    1  A    between atoms: C_1  and  C_17
    2  A    between atoms: C_2  and  O_12
    3  A    between atoms: C_6  and  O_15
    4  A    between atoms: C_6  and  N_23
    5  A    between atoms: O_15  and  C_25
                            x       y       z     vdW  Elec       q    Type
                         _______ _______ _______ _____ _____    ______ ____

>  <TORSDO>
F 5

$$$$
=
 OpenBabel11052412523D

 25 28  0  0  1  0  0  0  0  0999 V2000
  188.7630  177.9570  142.9130 C   0  0  1  0  0  0  0  0  0  0  0  0
  189.4900  178.0920  141.5580 C   0  0  2  0  0  3  0  0  0  0  0  0
  189.4720  175.5430  143.2180 C   0  0  0  0  0  2  0  0  0  0  0  0
  187.5830  178.7250  143.0120 O   0  0  0  0  0  0  0  0  0  0  0  0
  186.5310  178.6280  145.0560 O   0  0  0  0  0  1  0  0  0  0  0  0
  190.6530  175.9200  142.2990 C   0  0  0  0  0  2  0  0  0  0  0  0
  186.6920  177.9800  143.8320 C   0  0  1  0  0  0  0  0  0  0  0  0
  185.3450  177.8780  143.1430 C   0  0  0  0  0  1  0  0  0  0  0  0
  190.5760  176.5740  139.8710 C   0  0  0  0  0  0  0  0  0  0  0  0
  191.4430  175.7070  139.5850 O   0  0  0  0  0  0  0  0  0  0  0  0
  188.5460  178.4310  140.4040 C   0  0  0  0  0  2  0  0  0  0  0  0
  188.3160  176.5230  143.0300 C   0  0  1  0  0  3  0  0  0  0  0  0
  187.2510  176.5800  144.0670 C   0  0  0  0  0  2  0  0  0  0  0  0
  189.7920  177.2290  138.7730 C   0  0  0  0  0  2  0  0  0  0  0  0
  189.3280  178.5580  139.1760 N   0  0  0  0  0  0  0  0  0  0  0  0
  190.2580  176.8660  141.2410 N   0  0  0  0  0  0  0  0  0  0  0  0
  189.7250  178.3630  144.0490 C   0  0  0  0  0  2  0  0  0  0  0  0
  190.7690  179.3660  143.5820 C   0  0  0  0  0  1  0  0  0  0  0  0
  188.4230  179.0160  138.1360 C   0  0  0  0  0  2  0  0  0  0  0  0
  187.1170  178.6280  138.4440 O   0  0  0  0  0  0  0  0  0  0  0  0
  185.1200  177.7750  137.3740 C   0  0  2  0  0  3  0  0  0  0  0  0
  186.2460  176.7720  137.2370 C   0  0  0  0  0  2  0  0  0  0  0  0
  186.5630  178.2530  137.2170 C   0  0  2  0  0  3  0  0  0  0  0  0
  183.3310  177.5690  138.6570 C   0  0  0  0  0  1  0  0  0  0  0  0
  184.7010  177.8280  138.7070 O   0  0  0  0  0  0  0  0  0  0  0  0
  1  4  1  0  0  0  0
  1 12  1  0  0  0  0
  1 17  1  1  0  0  0
  2 11  1  6  0  0  0
  2  1  1  0  0  0  0
  4  7  1  0  0  0  0
  6  3  1  0  0  0  0
  7  8  1  6  0  0  0
  7 13  1  0  0  0  0
  7  5  1  0  0  0  0
  9 16  1  0  0  0  0
 10  9  2  0  0  0  0
 12  3  1  1  0  0  0
 12 13  1  0  0  0  0
 14 15  1  0  0  0  0
 14  9  1  0  0  0  0
 15 11  1  0  0  0  0
 16  2  1  0  0  0  0
 16  6  1  0  0  0  0
 18 17  1  0  0  0  0
 19 20  1  0  0  0  0
 19 15  1  0  0  0  0
 21 25  1  1  0  0  0
 22 21  1  0  0  0  0
 23 22  1  0  0  0  0
 23 21  1  0  0  0  0
 23 20  1  1  0  0  0
 24 25  1  0  0  0  0
M  END
>  <MODEL>
8

>  <REMARK>
 VINA RESULT:      -5.1      2.407      3.630
  Name = 
  5 active torsions:
  status: ('A' for Active; 'I' for Inactive)
    1  A    between atoms: C_1  and  C_17
    2  A    between atoms: C_2  and  O_12
    3  A    between atoms: C_6  and  O_15
    4  A    between atoms: C_6  and  N_23
    5  A    between atoms: O_15  and  C_25
                            x       y       z     vdW  Elec       q    Type
                         _______ _______ _______ _____ _____    ______ ____

>  <TORSDO>
F 5

$$$$
=
 OpenBabel11052412523D

 25 28  0  0  1  0  0  0  0  0999 V2000
  189.1580  176.8930  143.7400 C   0  0  1  0  0  0  0  0  0  0  0  0
  188.4360  176.8720  145.1040 C   0  0  2  0  0  3  0  0  0  0  0  0
  191.2380  177.9850  144.6940 C   0  0  0  0  0  2  0  0  0  0  0  0
  188.2970  177.0610  142.6360 O   0  0  0  0  0  0  0  0  0  0  0  0
  189.3300  176.9920  140.5800 O   0  0  0  0  0  1  0  0  0  0  0  0
  190.7900  177.3490  146.0270 C   0  0  0  0  0  2  0  0  0  0  0  0
  189.0290  177.8070  141.6710 C   0  0  1  0  0  0  0  0  0  0  0  0
  188.1880  178.9770  141.2000 C   0  0  0  0  0  1  0  0  0  0  0  0
  188.7420  177.8860  147.3860 C   0  0  0  0  0  0  0  0  0  0  0  0
  189.4410  178.0510  148.4200 O   0  0  0  0  0  0  0  0  0  0  0  0
  187.1320  177.6700  145.1030 C   0  0  0  0  0  2  0  0  0  0  0  0
  190.0530  178.1040  143.7370 C   0  0  1  0  0  3  0  0  0  0  0  0
  190.3230  178.3260  142.2910 C   0  0  0  0  0  2  0  0  0  0  0  0
  187.3150  178.3470  147.3750 C   0  0  0  0  0  2  0  0  0  0  0  0
  186.5160  177.5720  146.4250 N   0  0  0  0  0  0  0  0  0  0  0  0
  189.3250  177.3560  146.1860 N   0  0  0  0  0  0  0  0  0  0  0  0
  189.9520  175.5810  143.5650 C   0  0  0  0  0  2  0  0  0  0  0  0
  191.4050  175.8370  143.1990 C   0  0  0  0  0  1  0  0  0  0  0  0
  185.2200  178.2210  146.3430 C   0  0  0  0  0  2  0  0  0  0  0  0
  185.0890  178.8590  145.1080 O   0  0  0  0  0  0  0  0  0  0  0  0
  183.6400  178.5900  143.1880 C   0  0  2  0  0  3  0  0  0  0  0  0
  183.2080  179.7980  143.9940 C   0  0  0  0  0  2  0  0  0  0  0  0
  183.7770  178.5900  144.7100 C   0  0  2  0  0  3  0  0  0  0  0  0
  184.5580  178.8780  141.1980 C   0  0  0  0  0  1  0  0  0  0  0  0
  184.8590  178.8590  142.5590 O   0  0  0  0  0  0  0  0  0  0  0  0
  1 17  1  6  0  0  0
  1  2  1  0  0  0  0
  2 11  1  6  0  0  0
  2 16  1  0  0  0  0
  3  6  1  0  0  0  0
  4  1  1  0  0  0  0
  5  7  1  0  0  0  0
  6 16  1  0  0  0  0
  7  8  1  6  0  0  0
  7 13  1  0  0  0  0
  7  4  1  0  0  0  0
  9 10  2  0  0  0  0
 11 15  1  0  0  0  0
 12 13  1  6  0  0  0
 12  1  1  0  0  0  0
 12  3  1  0  0  0  0
 14  9  1  0  0  0  0
 15 14  1  0  0  0  0
 16  9  1  0  0  0  0
 18 17  1  0  0  0  0
 19 15  1  0  0  0  0
 20 19  1  0  0  0  0
 21 25  1  6  0  0  0
 21 22  1  0  0  0  0
 21 23  1  0  0  0  0
 22 23  1  0  0  0  0
 23 20  1  6  0  0  0
 24 25  1  0  0  0  0
M  END
>  <MODEL>
9

>  <REMARK>
 VINA RESULT:      -5.0      1.902      4.529
  Name = 
  5 active torsions:
  status: ('A' for Active; 'I' for Inactive)
    1  A    between atoms: C_1  and  C_17
    2  A    between atoms: C_2  and  O_12
    3  A    between atoms: C_6  and  O_15
    4  A    between atoms: C_6  and  N_23
    5  A    between atoms: O_15  and  C_25
                            x       y       z     vdW  Elec       q    Type
                         _______ _______ _______ _____ _____    ______ ____

>  <TORSDO>
F 5

$$$$
