=
 OpenBabel11052414453D

 32 35  0  0  1  0  0  0  0  0999 V2000
  188.9430  176.5020  143.5550 C   0  0  0  0  0  2  0  0  0  0  0  0
  190.0400  177.4420  143.1630 N   0  0  0  0  0  0  0  0  0  0  0  0
  188.5130  177.0090  144.9410 C   0  0  1  0  0  3  0  0  0  0  0  0
  189.3950  178.0510  145.3690 N   0  0  0  0  0  0  0  0  0  0  0  0
  190.9230  179.4570  144.0820 C   0  0  0  0  0  1  0  0  0  0  0  0
  190.5130  178.0080  144.4020 C   0  0  2  0  0  3  0  0  0  0  0  0
  187.1180  177.6380  144.8960 C   0  0  0  0  0  0  0  0  0  0  0  0
  186.4540  177.9720  146.0900 C   0  0  0  0  0  3  0  0  0  0  0  0
  183.1080  178.7380  142.4220 C   0  0  0  0  0  3  0  0  0  0  0  0
  186.4290  177.7400  143.6980 C   0  0  0  0  0  3  0  0  0  0  0  0
  183.1810  179.0520  144.8130 C   0  0  0  0  0  3  0  0  0  0  0  0
  184.5140  178.6020  144.8660 C   0  0  0  0  0  0  0  0  0  0  0  0
  185.1680  178.4860  146.0600 C   0  0  0  0  0  3  0  0  0  0  0  0
  185.1160  178.2240  143.6530 C   0  0  0  0  0  0  0  0  0  0  0  0
  182.5140  179.1320  143.6270 C   0  0  0  0  0  3  0  0  0  0  0  0
  184.4340  178.3070  142.4540 C   0  0  0  0  0  3  0  0  0  0  0  0
  191.0720  176.6640  142.4000 C   0  0  2  0  0  3  0  0  0  0  0  0
  192.0200  176.2170  143.2270 O   0  0  0  0  0  1  0  0  0  0  0  0
  191.6540  177.3680  141.1150 C   0  0  0  0  0  2  0  0  0  0  0  0
  191.0480  176.9210  139.7600 C   0  0  1  0  0  3  0  0  0  0  0  0
  190.1170  177.9200  139.3460 O   0  0  0  0  0  0  0  0  0  0  0  0
  188.7670  177.4400  139.4380 C   0  0  0  0  0  2  0  0  0  0  0  0
  187.9120  178.3060  140.3550 C   0  0  0  0  0  2  0  0  0  0  0  0
  186.6760  178.6570  139.7220 O   0  0  0  0  0  1  0  0  0  0  0  0
  192.0770  176.7060  138.7170 N   0  0  0  0  0  2  0  0  0  0  0  0
  190.9280  174.5590  137.9430 N   0  0  0  0  0  1  0  0  0  0  0  0
  193.0880  175.5220  136.6540 S   0  0  0  0  0  0  0  0  0  0  0  0
  191.9530  175.5740  137.8050 C   0  0  0  0  0  0  0  0  0  0  0  0
  189.9290  177.7680  146.7060 C   0  0  0  0  0  2  0  0  0  0  0  0
  191.1050  176.8380  146.5320 C   0  0  1  0  0  3  0  0  0  0  0  0
  191.9270  176.4820  147.7020 C   0  0  0  0  0  2  0  0  0  0  0  0
  190.7850  175.7410  147.3740 O   0  0  0  0  0  0  0  0  0  0  0  0
  1  3  1  0  0  0  0
  2  1  1  0  0  0  0
  2  6  1  0  0  0  0
  3  7  1  6  0  0  0
  3  4  1  0  0  0  0
  4 29  1  0  0  0  0
  6  5  1  6  0  0  0
  6  4  1  0  0  0  0
  7  8  1  0  0  0  0
  9 16  2  0  0  0  0
  9 15  1  0  0  0  0
 10  7  2  0  0  0  0
 11 12  1  0  0  0  0
 12 13  1  0  0  0  0
 13  8  2  0  0  0  0
 14 10  1  0  0  0  0
 14 12  2  0  0  0  0
 15 11  2  0  0  0  0
 16 14  1  0  0  0  0
 17  2  1  0  0  0  0
 17 18  1  1  0  0  0
 19 17  1  0  0  0  0
 20 19  1  1  0  0  0
 21 22  1  0  0  0  0
 21 20  1  0  0  0  0
 22 23  1  0  0  0  0
 24 23  1  0  0  0  0
 25 20  1  0  0  0  0
 27 28  2  0  0  0  0
 28 26  1  0  0  0  0
 28 25  1  0  0  0  0
 30 29  1  1  0  0  0
 30 32  1  0  0  0  0
 30 31  1  0  0  0  0
 32 31  1  0  0  0  0
M  END
>  <MODEL>
1

>  <REMARK>
 VINA RESULT:      -8.8      0.000      0.000
  Name = 
  11 active torsions:
  status: ('A' for Active; 'I' for Inactive)
    1  A    between atoms: C_2  and  C_5
    2  A    between atoms: C_3  and  O_8
    3  A    between atoms: C_3  and  C_22
    4  A    between atoms: N_4  and  C_24
    5  A    between atoms: O_8  and  C_20
    6  A    between atoms: C_13  and  C_18
    7  A    between atoms: N_14  and  C_18
    8  A    between atoms: N_15  and  C_20
    9  A    between atoms: N_15  and  C_26
   10  A    between atoms: C_16  and  C_20
   11  A    between atoms: C_16  and  C_24
                            x       y       z     vdW  Elec       q    Type
                         _______ _______ _______ _____ _____    ______ ____

>  <TORSDO>
F 11

$$$$
=
 OpenBabel11052414453D

 32 35  0  0  1  0  0  0  0  0999 V2000
  188.8620  176.5540  143.4200 C   0  0  0  0  0  2  0  0  0  0  0  0
  189.9540  177.5010  143.0350 N   0  0  0  0  0  0  0  0  0  0  0  0
  188.4500  177.0310  144.8220 C   0  0  1  0  0  3  0  0  0  0  0  0
  189.3370  178.0630  145.2620 N   0  0  0  0  0  0  0  0  0  0  0  0
  190.8500  179.4960  143.9860 C   0  0  0  0  0  1  0  0  0  0  0  0
  190.4430  178.0410  144.2800 C   0  0  2  0  0  3  0  0  0  0  0  0
  187.0540  177.6610  144.8070 C   0  0  0  0  0  0  0  0  0  0  0  0
  186.4180  177.9990  146.0160 C   0  0  0  0  0  3  0  0  0  0  0  0
  182.9890  178.7570  142.4250 C   0  0  0  0  0  3  0  0  0  0  0  0
  186.3370  177.7590  143.6260 C   0  0  0  0  0  3  0  0  0  0  0  0
  183.1170  179.0780  144.8120 C   0  0  0  0  0  3  0  0  0  0  0  0
  184.4520  178.6270  144.8360 C   0  0  0  0  0  0  0  0  0  0  0  0
  185.1330  178.5150  146.0150 C   0  0  0  0  0  3  0  0  0  0  0  0
  185.0240  178.2450  143.6100 C   0  0  0  0  0  0  0  0  0  0  0  0
  182.4240  179.1560  143.6420 C   0  0  0  0  0  3  0  0  0  0  0  0
  184.3150  178.3250  142.4270 C   0  0  0  0  0  3  0  0  0  0  0  0
  190.9760  176.7390  142.2420 C   0  0  2  0  0  3  0  0  0  0  0  0
  191.9970  176.3830  143.0260 O   0  0  0  0  0  1  0  0  0  0  0  0
  191.4380  177.4070  140.8910 C   0  0  0  0  0  2  0  0  0  0  0  0
  190.5430  177.1330  139.6550 C   0  0  1  0  0  3  0  0  0  0  0  0
  190.7850  175.7940  139.2280 O   0  0  0  0  0  0  0  0  0  0  0  0
  191.7250  175.7590  138.1430 C   0  0  0  0  0  2  0  0  0  0  0  0
  191.5130  174.5480  137.2410 C   0  0  0  0  0  2  0  0  0  0  0  0
  190.3200  173.8430  137.6020 O   0  0  0  0  0  1  0  0  0  0  0  0
  189.1020  177.3360  139.9360 N   0  0  0  0  0  2  0  0  0  0  0  0
  186.9180  178.4980  139.2960 N   0  0  0  0  0  1  0  0  0  0  0  0
  189.0680  178.5910  137.6780 S   0  0  0  0  0  0  0  0  0  0  0  0
  188.2990  178.1500  139.0290 C   0  0  0  0  0  0  0  0  0  0  0  0
  189.8870  177.7510  146.5860 C   0  0  0  0  0  2  0  0  0  0  0  0
  190.9500  176.6970  146.3920 C   0  0  1  0  0  3  0  0  0  0  0  0
  191.9170  176.4350  147.4740 C   0  0  0  0  0  2  0  0  0  0  0  0
  190.6860  175.7680  147.4330 O   0  0  0  0  0  0  0  0  0  0  0  0
  1  3  1  0  0  0  0
  2  1  1  0  0  0  0
  2  6  1  0  0  0  0
  3  7  1  6  0  0  0
  3  4  1  0  0  0  0
  4 29  1  0  0  0  0
  6  5  1  6  0  0  0
  6  4  1  0  0  0  0
  7  8  1  0  0  0  0
  9 16  2  0  0  0  0
  9 15  1  0  0  0  0
 10  7  2  0  0  0  0
 11 12  1  0  0  0  0
 12 13  1  0  0  0  0
 13  8  2  0  0  0  0
 14 10  1  0  0  0  0
 14 12  2  0  0  0  0
 15 11  2  0  0  0  0
 16 14  1  0  0  0  0
 17 18  1  1  0  0  0
 17  2  1  0  0  0  0
 19 17  1  0  0  0  0
 20 25  1  0  0  0  0
 20 19  1  1  0  0  0
 21 20  1  0  0  0  0
 22 21  1  0  0  0  0
 23 24  1  0  0  0  0
 23 22  1  0  0  0  0
 27 28  2  0  0  0  0
 28 26  1  0  0  0  0
 28 25  1  0  0  0  0
 30 29  1  1  0  0  0
 30 32  1  0  0  0  0
 30 31  1  0  0  0  0
 32 31  1  0  0  0  0
M  END
>  <MODEL>
2

>  <REMARK>
 VINA RESULT:      -8.7      1.690      2.431
  Name = 
  11 active torsions:
  status: ('A' for Active; 'I' for Inactive)
    1  A    between atoms: C_2  and  C_5
    2  A    between atoms: C_3  and  O_8
    3  A    between atoms: C_3  and  C_22
    4  A    between atoms: N_4  and  C_24
    5  A    between atoms: O_8  and  C_20
    6  A    between atoms: C_13  and  C_18
    7  A    between atoms: N_14  and  C_18
    8  A    between atoms: N_15  and  C_20
    9  A    between atoms: N_15  and  C_26
   10  A    between atoms: C_16  and  C_20
   11  A    between atoms: C_16  and  C_24
                            x       y       z     vdW  Elec       q    Type
                         _______ _______ _______ _____ _____    ______ ____

>  <TORSDO>
F 11

$$$$
=
 OpenBabel11052414453D

 32 35  0  0  1  0  0  0  0  0999 V2000
  184.0600  179.0010  140.1310 C   0  0  0  0  0  2  0  0  0  0  0  0
  183.7340  177.7550  139.3690 N   0  0  0  0  0  0  0  0  0  0  0  0
  183.0150  179.0170  141.2580 C   0  0  1  0  0  3  0  0  0  0  0  0
  182.0770  177.9550  141.0630 N   0  0  0  0  0  0  0  0  0  0  0  0
  182.2480  175.9230  139.7180 C   0  0  0  0  0  1  0  0  0  0  0  0
  182.3620  177.4580  139.7000 C   0  0  2  0  0  3  0  0  0  0  0  0
  183.6630  178.7550  142.6210 C   0  0  0  0  0  0  0  0  0  0  0  0
  183.0170  179.1660  143.8020 C   0  0  0  0  0  3  0  0  0  0  0  0
  187.5400  177.5190  145.2370 C   0  0  0  0  0  3  0  0  0  0  0  0
  184.9530  178.2590  142.7050 C   0  0  0  0  0  3  0  0  0  0  0  0
  185.5550  178.3460  146.3300 C   0  0  0  0  0  3  0  0  0  0  0  0
  184.8860  178.4720  145.0970 C   0  0  0  0  0  0  0  0  0  0  0  0
  183.6220  178.9860  145.0340 C   0  0  0  0  0  3  0  0  0  0  0  0
  185.5940  178.1030  143.9390 C   0  0  0  0  0  0  0  0  0  0  0  0
  186.8290  177.8680  146.3920 C   0  0  0  0  0  3  0  0  0  0  0  0
  186.8870  177.6200  144.0090 C   0  0  0  0  0  3  0  0  0  0  0  0
  183.9810  178.0190  137.9120 C   0  0  2  0  0  3  0  0  0  0  0  0
  182.8250  178.2300  137.2790 O   0  0  0  0  0  1  0  0  0  0  0  0
  184.9110  176.9840  137.1730 C   0  0  0  0  0  2  0  0  0  0  0  0
  186.3320  177.4860  136.8070 C   0  0  1  0  0  3  0  0  0  0  0  0
  186.7340  178.4270  137.8010 O   0  0  0  0  0  0  0  0  0  0  0  0
  187.7540  177.8800  138.6500 C   0  0  0  0  0  2  0  0  0  0  0  0
  189.0040  178.7520  138.6790 C   0  0  0  0  0  2  0  0  0  0  0  0
  189.0180  179.6630  137.5720 O   0  0  0  0  0  1  0  0  0  0  0  0
  187.3190  176.3850  136.7060 N   0  0  0  0  0  2  0  0  0  0  0  0
  187.8710  174.7900  134.7870 N   0  0  0  0  0  1  0  0  0  0  0  0
  188.7590  177.3330  134.7810 S   0  0  0  0  0  0  0  0  0  0  0  0
  187.9420  176.0920  135.4200 C   0  0  0  0  0  0  0  0  0  0  0  0
  180.7000  178.4610  141.0930 C   0  0  0  0  0  2  0  0  0  0  0  0
  180.7480  179.9150  140.6920 C   0  0  1  0  0  3  0  0  0  0  0  0
  179.4880  180.6500  140.4800 C   0  0  0  0  0  2  0  0  0  0  0  0
  180.0680  180.5710  141.7520 O   0  0  0  0  0  0  0  0  0  0  0  0
  1  3  1  0  0  0  0
  2  6  1  0  0  0  0
  2  1  1  0  0  0  0
  3  7  1  1  0  0  0
  4 29  1  0  0  0  0
  4  3  1  0  0  0  0
  6  5  1  1  0  0  0
  6  4  1  0  0  0  0
  7 10  2  0  0  0  0
  7  8  1  0  0  0  0
  8 13  2  0  0  0  0
  9 15  1  0  0  0  0
 10 14  1  0  0  0  0
 11 15  2  0  0  0  0
 12 11  1  0  0  0  0
 13 12  1  0  0  0  0
 14 16  1  0  0  0  0
 14 12  2  0  0  0  0
 16  9  2  0  0  0  0
 17 18  1  6  0  0  0
 17  2  1  0  0  0  0
 19 17  1  0  0  0  0
 20 19  1  1  0  0  0
 20 21  1  0  0  0  0
 21 22  1  0  0  0  0
 22 23  1  0  0  0  0
 24 23  1  0  0  0  0
 25 20  1  0  0  0  0
 26 28  1  0  0  0  0
 27 28  2  0  0  0  0
 28 25  1  0  0  0  0
 30 29  1  1  0  0  0
 30 32  1  0  0  0  0
 31 30  1  0  0  0  0
 31 32  1  0  0  0  0
M  END
>  <MODEL>
3

>  <REMARK>
 VINA RESULT:      -7.2      4.037      7.084
  Name = 
  11 active torsions:
  status: ('A' for Active; 'I' for Inactive)
    1  A    between atoms: C_2  and  C_5
    2  A    between atoms: C_3  and  O_8
    3  A    between atoms: C_3  and  C_22
    4  A    between atoms: N_4  and  C_24
    5  A    between atoms: O_8  and  C_20
    6  A    between atoms: C_13  and  C_18
    7  A    between atoms: N_14  and  C_18
    8  A    between atoms: N_15  and  C_20
    9  A    between atoms: N_15  and  C_26
   10  A    between atoms: C_16  and  C_20
   11  A    between atoms: C_16  and  C_24
                            x       y       z     vdW  Elec       q    Type
                         _______ _______ _______ _____ _____    ______ ____

>  <TORSDO>
F 11

$$$$
=
 OpenBabel11052414453D

 32 35  0  0  1  0  0  0  0  0999 V2000
  184.2100  179.0130  140.1680 C   0  0  0  0  0  2  0  0  0  0  0  0
  183.9200  177.7660  139.3910 N   0  0  0  0  0  0  0  0  0  0  0  0
  183.1350  179.0110  141.2660 C   0  0  1  0  0  3  0  0  0  0  0  0
  182.2150  177.9390  141.0400 N   0  0  0  0  0  0  0  0  0  0  0  0
  182.4470  175.9160  139.6900 C   0  0  0  0  0  1  0  0  0  0  0  0
  182.5430  177.4520  139.6820 C   0  0  2  0  0  3  0  0  0  0  0  0
  183.7480  178.7490  142.6450 C   0  0  0  0  0  0  0  0  0  0  0  0
  183.0750  179.1660  143.8080 C   0  0  0  0  0  3  0  0  0  0  0  0
  187.5540  177.5010  145.3580 C   0  0  0  0  0  3  0  0  0  0  0  0
  185.0330  178.2460  142.7610 C   0  0  0  0  0  3  0  0  0  0  0  0
  185.5460  178.3400  146.4000 C   0  0  0  0  0  3  0  0  0  0  0  0
  184.9080  178.4660  145.1510 C   0  0  0  0  0  0  0  0  0  0  0  0
  183.6490  178.9860  145.0550 C   0  0  0  0  0  3  0  0  0  0  0  0
  185.6430  178.0910  144.0110 C   0  0  0  0  0  0  0  0  0  0  0  0
  186.8160  177.8560  146.4940 C   0  0  0  0  0  3  0  0  0  0  0  0
  186.9310  177.6010  144.1140 C   0  0  0  0  0  3  0  0  0  0  0  0
  184.2040  178.0410  137.9430 C   0  0  2  0  0  3  0  0  0  0  0  0
  183.0630  178.2260  137.2750 O   0  0  0  0  0  1  0  0  0  0  0  0
  185.1810  177.0310  137.2300 C   0  0  0  0  0  2  0  0  0  0  0  0
  186.6350  177.5260  137.0150 C   0  0  1  0  0  3  0  0  0  0  0  0
  186.7310  178.0360  135.6850 O   0  0  0  0  0  0  0  0  0  0  0  0
  187.0110  176.9840  134.7480 C   0  0  0  0  0  2  0  0  0  0  0  0
  188.4140  176.4170  134.9260 C   0  0  0  0  0  2  0  0  0  0  0  0
  189.4060  177.4310  134.7280 O   0  0  0  0  0  1  0  0  0  0  0  0
  187.0380  178.5590  137.9970 N   0  0  0  0  0  2  0  0  0  0  0  0
  187.8210  178.5320  140.4300 N   0  0  0  0  0  1  0  0  0  0  0  0
  189.3690  177.5440  138.4600 S   0  0  0  0  0  0  0  0  0  0  0  0
  188.0190  178.2310  139.0260 C   0  0  0  0  0  0  0  0  0  0  0  0
  180.8320  178.4280  141.0340 C   0  0  0  0  0  2  0  0  0  0  0  0
  180.8770  179.8930  140.6740 C   0  0  1  0  0  3  0  0  0  0  0  0
  179.6210  180.6040  140.3720 C   0  0  0  0  0  2  0  0  0  0  0  0
  180.0930  180.5060  141.6860 O   0  0  0  0  0  0  0  0  0  0  0  0
  1  3  1  0  0  0  0
  2  6  1  0  0  0  0
  2  1  1  0  0  0  0
  3  7  1  1  0  0  0
  4  3  1  0  0  0  0
  6  5  1  1  0  0  0
  6  4  1  0  0  0  0
  7 10  2  0  0  0  0
  7  8  1  0  0  0  0
  8 13  2  0  0  0  0
  9 15  1  0  0  0  0
 10 14  1  0  0  0  0
 11 15  2  0  0  0  0
 12 11  1  0  0  0  0
 13 12  1  0  0  0  0
 14 16  1  0  0  0  0
 14 12  2  0  0  0  0
 16  9  2  0  0  0  0
 17 18  1  6  0  0  0
 17  2  1  0  0  0  0
 19 17  1  0  0  0  0
 20 19  1  1  0  0  0
 20 25  1  0  0  0  0
 21 20  1  0  0  0  0
 22 23  1  0  0  0  0
 22 21  1  0  0  0  0
 24 23  1  0  0  0  0
 25 28  1  0  0  0  0
 27 28  2  0  0  0  0
 28 26  1  0  0  0  0
 29  4  1  0  0  0  0
 30 29  1  1  0  0  0
 30 32  1  0  0  0  0
 31 30  1  0  0  0  0
 31 32  1  0  0  0  0
M  END
>  <MODEL>
4

>  <REMARK>
 VINA RESULT:      -7.2      4.166      7.223
  Name = 
  11 active torsions:
  status: ('A' for Active; 'I' for Inactive)
    1  A    between atoms: C_2  and  C_5
    2  A    between atoms: C_3  and  O_8
    3  A    between atoms: C_3  and  C_22
    4  A    between atoms: N_4  and  C_24
    5  A    between atoms: O_8  and  C_20
    6  A    between atoms: C_13  and  C_18
    7  A    between atoms: N_14  and  C_18
    8  A    between atoms: N_15  and  C_20
    9  A    between atoms: N_15  and  C_26
   10  A    between atoms: C_16  and  C_20
   11  A    between atoms: C_16  and  C_24
                            x       y       z     vdW  Elec       q    Type
                         _______ _______ _______ _____ _____    ______ ____

>  <TORSDO>
F 11

$$$$
=
 OpenBabel11052414453D

 32 35  0  0  1  0  0  0  0  0999 V2000
  189.0230  179.1550  142.4590 C   0  0  0  0  0  2  0  0  0  0  0  0
  189.7400  177.9890  143.0630 N   0  0  0  0  0  0  0  0  0  0  0  0
  188.2290  178.5300  141.3010 C   0  0  1  0  0  3  0  0  0  0  0  0
  188.5860  177.1520  141.1590 N   0  0  0  0  0  0  0  0  0  0  0  0
  189.6630  175.6280  142.7370 C   0  0  0  0  0  1  0  0  0  0  0  0
  189.7750  176.9880  142.0240 C   0  0  2  0  0  3  0  0  0  0  0  0
  186.7250  178.5430  141.5870 C   0  0  0  0  0  0  0  0  0  0  0  0
  185.8070  178.7080  140.5340 C   0  0  0  0  0  3  0  0  0  0  0  0
  183.0730  178.8450  144.7460 C   0  0  0  0  0  3  0  0  0  0  0  0
  186.2540  178.5520  142.8900 C   0  0  0  0  0  3  0  0  0  0  0  0
  182.6320  178.9080  142.3750 C   0  0  0  0  0  3  0  0  0  0  0  0
  184.0020  178.7620  142.0810 C   0  0  0  0  0  0  0  0  0  0  0  0
  184.4470  178.7800  140.7900 C   0  0  0  0  0  3  0  0  0  0  0  0
  184.8870  178.6590  143.1680 C   0  0  0  0  0  0  0  0  0  0  0  0
  182.1890  178.9280  143.6630 C   0  0  0  0  0  3  0  0  0  0  0  0
  184.4310  178.6820  144.4730 C   0  0  0  0  0  3  0  0  0  0  0  0
  191.0910  178.4570  143.5210 C   0  0  2  0  0  3  0  0  0  0  0  0
  192.0530  177.8480  142.8230 O   0  0  0  0  0  1  0  0  0  0  0  0
  191.3390  178.4220  145.0770 C   0  0  0  0  0  2  0  0  0  0  0  0
  190.8590  177.1450  145.8150 C   0  0  1  0  0  3  0  0  0  0  0  0
  192.0070  176.3500  146.1070 O   0  0  0  0  0  0  0  0  0  0  0  0
  191.7780  175.5110  147.2500 C   0  0  0  0  0  2  0  0  0  0  0  0
  192.8830  175.6470  148.2910 C   0  0  0  0  0  2  0  0  0  0  0  0
  192.8990  176.9660  148.8500 O   0  0  0  0  0  1  0  0  0  0  0  0
  190.1090  177.4510  147.0560 N   0  0  0  0  0  2  0  0  0  0  0  0
  187.8870  177.3670  145.7960 N   0  0  0  0  0  1  0  0  0  0  0  0
  187.9700  177.8900  148.4370 S   0  0  0  0  0  0  0  0  0  0  0  0
  188.6530  177.5380  147.0150 C   0  0  0  0  0  0  0  0  0  0  0  0
  188.9750  176.8510  139.7770 C   0  0  0  0  0  2  0  0  0  0  0  0
  190.3840  177.3570  139.5880 C   0  0  1  0  0  3  0  0  0  0  0  0
  191.3230  176.5900  138.7500 C   0  0  0  0  0  2  0  0  0  0  0  0
  190.4780  177.5530  138.1850 O   0  0  0  0  0  0  0  0  0  0  0  0
  1  2  1  0  0  0  0
  2 17  1  0  0  0  0
  3  7  1  1  0  0  0
  3  1  1  0  0  0  0
  4  3  1  0  0  0  0
  4  6  1  0  0  0  0
  6  5  1  1  0  0  0
  6  2  1  0  0  0  0
  7 10  1  0  0  0  0
  8 13  1  0  0  0  0
  8  7  2  0  0  0  0
 10 14  2  0  0  0  0
 11 15  2  0  0  0  0
 12 11  1  0  0  0  0
 12 14  1  0  0  0  0
 13 12  2  0  0  0  0
 14 16  1  0  0  0  0
 15  9  1  0  0  0  0
 16  9  2  0  0  0  0
 17 18  1  6  0  0  0
 17 19  1  0  0  0  0
 20 19  1  1  0  0  0
 20 21  1  0  0  0  0
 20 25  1  0  0  0  0
 21 22  1  0  0  0  0
 22 23  1  0  0  0  0
 23 24  1  0  0  0  0
 26 28  1  0  0  0  0
 28 25  1  0  0  0  0
 28 27  2  0  0  0  0
 29  4  1  0  0  0  0
 30 29  1  6  0  0  0
 31 30  1  0  0  0  0
 32 31  1  0  0  0  0
 32 30  1  0  0  0  0
M  END
>  <MODEL>
5

>  <REMARK>
 VINA RESULT:      -7.0      2.967      6.283
  Name = 
  11 active torsions:
  status: ('A' for Active; 'I' for Inactive)
    1  A    between atoms: C_2  and  C_5
    2  A    between atoms: C_3  and  O_8
    3  A    between atoms: C_3  and  C_22
    4  A    between atoms: N_4  and  C_24
    5  A    between atoms: O_8  and  C_20
    6  A    between atoms: C_13  and  C_18
    7  A    between atoms: N_14  and  C_18
    8  A    between atoms: N_15  and  C_20
    9  A    between atoms: N_15  and  C_26
   10  A    between atoms: C_16  and  C_20
   11  A    between atoms: C_16  and  C_24
                            x       y       z     vdW  Elec       q    Type
                         _______ _______ _______ _____ _____    ______ ____

>  <TORSDO>
F 11

$$$$
=
 OpenBabel11052414453D

 32 35  0  0  1  0  0  0  0  0999 V2000
  183.9780  178.8260  139.9490 C   0  0  0  0  0  2  0  0  0  0  0  0
  183.5140  177.5790  139.2650 N   0  0  0  0  0  0  0  0  0  0  0  0
  183.0080  178.9690  141.1330 C   0  0  1  0  0  3  0  0  0  0  0  0
  181.9830  177.9750  141.0400 N   0  0  0  0  0  0  0  0  0  0  0  0
  181.9200  175.8830  139.7810 C   0  0  0  0  0  1  0  0  0  0  0  0
  182.1460  177.4020  139.6870 C   0  0  2  0  0  3  0  0  0  0  0  0
  183.7160  178.7130  142.4660 C   0  0  0  0  0  0  0  0  0  0  0  0
  183.1220  179.1260  143.6730 C   0  0  0  0  0  3  0  0  0  0  0  0
  187.7090  177.4980  144.9130 C   0  0  0  0  0  3  0  0  0  0  0  0
  185.0100  178.2210  142.4950 C   0  0  0  0  0  3  0  0  0  0  0  0
  185.7710  178.3220  146.0900 C   0  0  0  0  0  3  0  0  0  0  0  0
  185.0480  178.4410  144.8870 C   0  0  0  0  0  0  0  0  0  0  0  0
  183.7810  178.9520  144.8780 C   0  0  0  0  0  3  0  0  0  0  0  0
  185.7060  178.0720  143.7000 C   0  0  0  0  0  0  0  0  0  0  0  0
  187.0480  177.8480  146.0970 C   0  0  0  0  0  3  0  0  0  0  0  0
  187.0020  177.5930  143.7140 C   0  0  0  0  0  3  0  0  0  0  0  0
  183.6910  177.7630  137.7860 C   0  0  2  0  0  3  0  0  0  0  0  0
  182.6250  178.3780  137.2660 O   0  0  0  0  0  1  0  0  0  0  0  0
  184.1200  176.4800  136.9780 C   0  0  0  0  0  2  0  0  0  0  0  0
  185.6350  176.1500  136.9780 C   0  0  1  0  0  3  0  0  0  0  0  0
  185.8090  174.8910  136.3290 O   0  0  0  0  0  0  0  0  0  0  0  0
  186.3640  173.9180  137.2280 C   0  0  0  0  0  2  0  0  0  0  0  0
  185.3720  172.8090  137.5550 C   0  0  0  0  0  2  0  0  0  0  0  0
  184.1640  172.9630  136.8000 O   0  0  0  0  0  1  0  0  0  0  0  0
  186.4470  177.1940  136.3110 N   0  0  0  0  0  2  0  0  0  0  0  0
  187.6350  179.3910  136.8520 N   0  0  0  0  0  1  0  0  0  0  0  0
  188.1760  177.1420  138.2310 S   0  0  0  0  0  0  0  0  0  0  0  0
  187.3910  177.9840  137.0960 C   0  0  0  0  0  0  0  0  0  0  0  0
  180.6520  178.5870  141.1260 C   0  0  0  0  0  2  0  0  0  0  0  0
  180.7810  180.0100  140.6420 C   0  0  1  0  0  3  0  0  0  0  0  0
  179.5710  180.7530  140.2460 C   0  0  0  0  0  2  0  0  0  0  0  0
  180.0070  180.7480  141.5770 O   0  0  0  0  0  0  0  0  0  0  0  0
  1  3  1  0  0  0  0
  2  6  1  0  0  0  0
  2  1  1  0  0  0  0
  3  7  1  1  0  0  0
  4 29  1  0  0  0  0
  4  3  1  0  0  0  0
  6  5  1  1  0  0  0
  6  4  1  0  0  0  0
  7 10  2  0  0  0  0
  7  8  1  0  0  0  0
  8 13  2  0  0  0  0
  9 15  1  0  0  0  0
 10 14  1  0  0  0  0
 11 15  2  0  0  0  0
 12 11  1  0  0  0  0
 13 12  1  0  0  0  0
 14 16  1  0  0  0  0
 14 12  2  0  0  0  0
 16  9  2  0  0  0  0
 17 18  1  6  0  0  0
 17  2  1  0  0  0  0
 19 17  1  0  0  0  0
 20 19  1  6  0  0  0
 21 20  1  0  0  0  0
 21 22  1  0  0  0  0
 22 23  1  0  0  0  0
 24 23  1  0  0  0  0
 25 20  1  0  0  0  0
 25 28  1  0  0  0  0
 26 28  1  0  0  0  0
 28 27  2  0  0  0  0
 30 29  1  1  0  0  0
 30 32  1  0  0  0  0
 31 30  1  0  0  0  0
 31 32  1  0  0  0  0
M  END
>  <MODEL>
6

>  <REMARK>
 VINA RESULT:      -6.7      4.681      7.536
  Name = 
  11 active torsions:
  status: ('A' for Active; 'I' for Inactive)
    1  A    between atoms: C_2  and  C_5
    2  A    between atoms: C_3  and  O_8
    3  A    between atoms: C_3  and  C_22
    4  A    between atoms: N_4  and  C_24
    5  A    between atoms: O_8  and  C_20
    6  A    between atoms: C_13  and  C_18
    7  A    between atoms: N_14  and  C_18
    8  A    between atoms: N_15  and  C_20
    9  A    between atoms: N_15  and  C_26
   10  A    between atoms: C_16  and  C_20
   11  A    between atoms: C_16  and  C_24
                            x       y       z     vdW  Elec       q    Type
                         _______ _______ _______ _____ _____    ______ ____

>  <TORSDO>
F 11

$$$$
=
 OpenBabel11052414453D

 32 35  0  0  1  0  0  0  0  0999 V2000
  189.1920  176.5930  141.7710 C   0  0  0  0  0  2  0  0  0  0  0  0
  190.3710  177.4890  141.5580 N   0  0  0  0  0  0  0  0  0  0  0  0
  189.1970  176.3460  143.2880 C   0  0  1  0  0  3  0  0  0  0  0  0
  190.3710  176.9240  143.8680 N   0  0  0  0  0  0  0  0  0  0  0  0
  191.8800  178.6390  143.0030 C   0  0  0  0  0  1  0  0  0  0  0  0
  191.2160  177.2820  142.7080 C   0  0  2  0  0  3  0  0  0  0  0  0
  188.0130  177.0380  143.9690 C   0  0  0  0  0  0  0  0  0  0  0  0
  187.9580  177.1290  145.3720 C   0  0  0  0  0  3  0  0  0  0  0  0
  183.5390  178.8640  143.7320 C   0  0  0  0  0  3  0  0  0  0  0  0
  186.9120  177.4400  143.2310 C   0  0  0  0  0  3  0  0  0  0  0  0
  184.6400  178.6290  145.8650 C   0  0  0  0  0  3  0  0  0  0  0  0
  185.7970  178.1130  145.2510 C   0  0  0  0  0  0  0  0  0  0  0  0
  186.8630  177.7000  145.9990 C   0  0  0  0  0  3  0  0  0  0  0  0
  185.7820  177.9870  143.8500 C   0  0  0  0  0  0  0  0  0  0  0  0
  183.5610  179.0070  145.1240 C   0  0  0  0  0  3  0  0  0  0  0  0
  184.6830  178.3710  143.1050 C   0  0  0  0  0  3  0  0  0  0  0  0
  191.0040  177.1250  140.2460 C   0  0  2  0  0  3  0  0  0  0  0  0
  191.2680  178.2260  139.5390 O   0  0  0  0  0  1  0  0  0  0  0  0
  190.2620  176.0150  139.4090 C   0  0  0  0  0  2  0  0  0  0  0  0
  190.9360  175.6050  138.0740 C   0  0  1  0  0  3  0  0  0  0  0  0
  189.9730  175.7620  137.0320 O   0  0  0  0  0  0  0  0  0  0  0  0
  189.7900  177.1470  136.7020 C   0  0  0  0  0  2  0  0  0  0  0  0
  188.3200  177.4970  136.4990 C   0  0  0  0  0  2  0  0  0  0  0  0
  187.7450  178.0120  137.7060 O   0  0  0  0  0  1  0  0  0  0  0  0
  192.1530  176.3970  137.7800 N   0  0  0  0  0  2  0  0  0  0  0  0
  193.5390  176.3150  135.6350 N   0  0  0  0  0  1  0  0  0  0  0  0
  193.9450  174.5430  137.6220 S   0  0  0  0  0  0  0  0  0  0  0  0
  193.2080  175.8180  136.9560 C   0  0  0  0  0  0  0  0  0  0  0  0
  191.0930  175.9380  144.6800 C   0  0  0  0  0  2  0  0  0  0  0  0
  191.6770  176.6730  145.8610 C   0  0  1  0  0  3  0  0  0  0  0  0
  191.1710  176.3870  147.2160 C   0  0  0  0  0  2  0  0  0  0  0  0
  192.2140  175.6330  146.6640 O   0  0  0  0  0  0  0  0  0  0  0  0
  1  3  1  0  0  0  0
  2  1  1  0  0  0  0
  2  6  1  0  0  0  0
  3  4  1  0  0  0  0
  3  7  1  1  0  0  0
  4 29  1  0  0  0  0
  6  5  1  1  0  0  0
  6  4  1  0  0  0  0
  7  8  1  0  0  0  0
  8 13  2  0  0  0  0
  9 15  1  0  0  0  0
 10 14  1  0  0  0  0
 10  7  2  0  0  0  0
 12 11  1  0  0  0  0
 12 13  1  0  0  0  0
 14 12  2  0  0  0  0
 15 11  2  0  0  0  0
 16  9  2  0  0  0  0
 16 14  1  0  0  0  0
 17 18  1  6  0  0  0
 17  2  1  0  0  0  0
 19 17  1  0  0  0  0
 20 19  1  1  0  0  0
 21 20  1  0  0  0  0
 22 21  1  0  0  0  0
 23 22  1  0  0  0  0
 23 24  1  0  0  0  0
 25 20  1  0  0  0  0
 26 28  1  0  0  0  0
 28 27  2  0  0  0  0
 28 25  1  0  0  0  0
 30 29  1  6  0  0  0
 30 32  1  0  0  0  0
 30 31  1  0  0  0  0
 32 31  1  0  0  0  0
M  END
>  <MODEL>
7

>  <REMARK>
 VINA RESULT:      -6.2      1.580      2.168
  Name = 
  11 active torsions:
  status: ('A' for Active; 'I' for Inactive)
    1  A    between atoms: C_2  and  C_5
    2  A    between atoms: C_3  and  O_8
    3  A    between atoms: C_3  and  C_22
    4  A    between atoms: N_4  and  C_24
    5  A    between atoms: O_8  and  C_20
    6  A    between atoms: C_13  and  C_18
    7  A    between atoms: N_14  and  C_18
    8  A    between atoms: N_15  and  C_20
    9  A    between atoms: N_15  and  C_26
   10  A    between atoms: C_16  and  C_20
   11  A    between atoms: C_16  and  C_24
                            x       y       z     vdW  Elec       q    Type
                         _______ _______ _______ _____ _____    ______ ____

>  <TORSDO>
F 11

$$$$
=
 OpenBabel11052414453D

 32 35  0  0  1  0  0  0  0  0999 V2000
  187.8820  178.6510  140.9950 C   0  0  0  0  0  2  0  0  0  0  0  0
  187.0620  177.8850  141.9860 N   0  0  0  0  0  0  0  0  0  0  0  0
  189.3260  178.4180  141.4670 C   0  0  1  0  0  3  0  0  0  0  0  0
  189.3210  177.7100  142.7100 N   0  0  0  0  0  0  0  0  0  0  0  0
  187.5660  176.3720  143.7580 C   0  0  0  0  0  1  0  0  0  0  0  0
  187.9080  177.7420  143.1460 C   0  0  2  0  0  3  0  0  0  0  0  0
  190.0950  177.5300  140.4850 C   0  0  0  0  0  0  0  0  0  0  0  0
  191.5020  177.5110  140.5010 C   0  0  0  0  0  3  0  0  0  0  0  0
  190.1580  174.7770  136.5070 C   0  0  0  0  0  3  0  0  0  0  0  0
  189.4310  176.8590  139.4710 C   0  0  0  0  0  3  0  0  0  0  0  0
  192.2240  175.3650  137.6050 C   0  0  0  0  0  3  0  0  0  0  0  0
  191.5310  176.0810  138.6010 C   0  0  0  0  0  0  0  0  0  0  0  0
  192.2070  176.7560  139.5780 C   0  0  0  0  0  3  0  0  0  0  0  0
  190.1280  176.1190  138.5090 C   0  0  0  0  0  0  0  0  0  0  0  0
  191.5540  174.7230  136.6080 C   0  0  0  0  0  3  0  0  0  0  0  0
  189.4550  175.4660  137.4940 C   0  0  0  0  0  3  0  0  0  0  0  0
  185.7930  178.6480  142.2310 C   0  0  2  0  0  3  0  0  0  0  0  0
  185.6690  179.6370  141.3430 O   0  0  0  0  0  1  0  0  0  0  0  0
  185.5470  179.1150  143.7160 C   0  0  0  0  0  2  0  0  0  0  0  0
  184.2070  178.6700  144.3570 C   0  0  1  0  0  3  0  0  0  0  0  0
  184.3680  178.7020  145.7740 O   0  0  0  0  0  0  0  0  0  0  0  0
  185.7250  179.0000  146.1340 C   0  0  0  0  0  2  0  0  0  0  0  0
  186.3530  177.8910  146.9710 C   0  0  0  0  0  2  0  0  0  0  0  0
  187.7830  177.9500  146.9090 O   0  0  0  0  0  1  0  0  0  0  0  0
  183.0660  179.5200  143.9450 N   0  0  0  0  0  2  0  0  0  0  0  0
  182.3920  178.6310  141.6450 N   0  0  0  0  0  1  0  0  0  0  0  0
  180.5800  178.8910  143.6210 S   0  0  0  0  0  0  0  0  0  0  0  0
  182.0750  178.9920  143.0130 C   0  0  0  0  0  0  0  0  0  0  0  0
  190.1310  178.4080  143.7140 C   0  0  0  0  0  2  0  0  0  0  0  0
  191.4040  177.6190  143.8900 C   0  0  1  0  0  3  0  0  0  0  0  0
  191.5790  176.7840  145.0930 C   0  0  0  0  0  2  0  0  0  0  0  0
  190.9530  176.2740  143.9490 O   0  0  0  0  0  0  0  0  0  0  0  0
  1  3  1  0  0  0  0
  1  2  1  0  0  0  0
  2 17  1  0  0  0  0
  2  6  1  0  0  0  0
  3  7  1  6  0  0  0
  3  4  1  0  0  0  0
  4  6  1  0  0  0  0
  4 29  1  0  0  0  0
  6  5  1  6  0  0  0
  7  8  1  0  0  0  0
  9 15  2  0  0  0  0
  9 16  1  0  0  0  0
 10  7  2  0  0  0  0
 11 12  2  0  0  0  0
 12 13  1  0  0  0  0
 13  8  2  0  0  0  0
 14 12  1  0  0  0  0
 14 10  1  0  0  0  0
 15 11  1  0  0  0  0
 16 14  2  0  0  0  0
 17 18  1  6  0  0  0
 17 19  1  0  0  0  0
 20 19  1  6  0  0  0
 20 21  1  0  0  0  0
 21 22  1  0  0  0  0
 22 23  1  0  0  0  0
 24 23  1  0  0  0  0
 25 20  1  0  0  0  0
 26 28  1  0  0  0  0
 28 27  2  0  0  0  0
 28 25  1  0  0  0  0
 30 29  1  1  0  0  0
 30 32  1  0  0  0  0
 30 31  1  0  0  0  0
 32 31  1  0  0  0  0
M  END
>  <MODEL>
8

>  <REMARK>
 VINA RESULT:      -6.2      3.696      7.773
  Name = 
  11 active torsions:
  status: ('A' for Active; 'I' for Inactive)
    1  A    between atoms: C_2  and  C_5
    2  A    between atoms: C_3  and  O_8
    3  A    between atoms: C_3  and  C_22
    4  A    between atoms: N_4  and  C_24
    5  A    between atoms: O_8  and  C_20
    6  A    between atoms: C_13  and  C_18
    7  A    between atoms: N_14  and  C_18
    8  A    between atoms: N_15  and  C_20
    9  A    between atoms: N_15  and  C_26
   10  A    between atoms: C_16  and  C_20
   11  A    between atoms: C_16  and  C_24
                            x       y       z     vdW  Elec       q    Type
                         _______ _______ _______ _____ _____    ______ ____

>  <TORSDO>
F 11

$$$$
=
 OpenBabel11052414453D

 32 35  0  0  1  0  0  0  0  0999 V2000
  188.1650  178.1250  141.2840 C   0  0  0  0  0  2  0  0  0  0  0  0
  188.5500  177.2100  142.4040 N   0  0  0  0  0  0  0  0  0  0  0  0
  189.2840  177.9200  140.2510 C   0  0  1  0  0  3  0  0  0  0  0  0
  190.3020  177.0800  140.8010 N   0  0  0  0  0  0  0  0  0  0  0  0
  190.2260  175.5390  142.6960 C   0  0  0  0  0  1  0  0  0  0  0  0
  189.9660  176.9850  142.2380 C   0  0  2  0  0  3  0  0  0  0  0  0
  188.7680  177.1900  139.0080 C   0  0  0  0  0  0  0  0  0  0  0  0
  189.5280  176.1580  138.4270 C   0  0  0  0  0  3  0  0  0  0  0  0
  185.6840  176.9350  135.2900 C   0  0  0  0  0  3  0  0  0  0  0  0
  187.6330  177.6340  138.3490 C   0  0  0  0  0  3  0  0  0  0  0  0
  187.5400  175.4010  135.4300 C   0  0  0  0  0  3  0  0  0  0  0  0
  187.9620  175.9690  136.6480 C   0  0  0  0  0  0  0  0  0  0  0  0
  189.0980  175.5330  137.2690 C   0  0  0  0  0  3  0  0  0  0  0  0
  187.2030  177.0360  137.1590 C   0  0  0  0  0  0  0  0  0  0  0  0
  186.4290  175.8600  134.7900 C   0  0  0  0  0  3  0  0  0  0  0  0
  186.0770  177.4980  136.5040 C   0  0  0  0  0  3  0  0  0  0  0  0
  188.1710  177.8690  143.6980 C   0  0  2  0  0  3  0  0  0  0  0  0
  189.2640  178.2850  144.3420 O   0  0  0  0  0  1  0  0  0  0  0  0
  187.1820  177.0590  144.6190 C   0  0  0  0  0  2  0  0  0  0  0  0
  186.1520  177.8990  145.4170 C   0  0  1  0  0  3  0  0  0  0  0  0
  186.8250  178.4650  146.5410 O   0  0  0  0  0  0  0  0  0  0  0  0
  187.5310  177.4580  147.2820 C   0  0  0  0  0  2  0  0  0  0  0  0
  188.0420  177.9830  148.6180 C   0  0  0  0  0  2  0  0  0  0  0  0
  189.4330  178.3150  148.5390 O   0  0  0  0  0  1  0  0  0  0  0  0
  185.5240  178.9620  144.5980 N   0  0  0  0  0  2  0  0  0  0  0  0
  184.6720  178.1200  142.3400 N   0  0  0  0  0  1  0  0  0  0  0  0
  182.9610  178.8910  144.2720 S   0  0  0  0  0  0  0  0  0  0  0  0
  184.4410  178.6200  143.6810 C   0  0  0  0  0  0  0  0  0  0  0  0
  191.6230  177.7060  140.6760 C   0  0  0  0  0  2  0  0  0  0  0  0
  192.5460  176.6860  140.0550 C   0  0  1  0  0  3  0  0  0  0  0  0
  193.0250  176.8870  138.6760 C   0  0  0  0  0  2  0  0  0  0  0  0
  193.7160  177.4340  139.7640 O   0  0  0  0  0  0  0  0  0  0  0  0
  1  2  1  0  0  0  0
  2 17  1  0  0  0  0
  3  7  1  6  0  0  0
  3  4  1  0  0  0  0
  3  1  1  0  0  0  0
  4  6  1  0  0  0  0
  6  2  1  0  0  0  0
  6  5  1  6  0  0  0
  8  7  1  0  0  0  0
  9 16  1  0  0  0  0
 10  7  2  0  0  0  0
 11 12  2  0  0  0  0
 12 14  1  0  0  0  0
 12 13  1  0  0  0  0
 13  8  2  0  0  0  0
 14 10  1  0  0  0  0
 15  9  2  0  0  0  0
 15 11  1  0  0  0  0
 16 14  2  0  0  0  0
 17 18  1  1  0  0  0
 17 19  1  0  0  0  0
 20 19  1  6  0  0  0
 20 21  1  0  0  0  0
 21 22  1  0  0  0  0
 22 23  1  0  0  0  0
 24 23  1  0  0  0  0
 25 20  1  0  0  0  0
 26 28  1  0  0  0  0
 28 27  2  0  0  0  0
 28 25  1  0  0  0  0
 29  4  1  0  0  0  0
 30 29  1  6  0  0  0
 31 32  1  0  0  0  0
 31 30  1  0  0  0  0
 32 30  1  0  0  0  0
M  END
>  <MODEL>
9

>  <REMARK>
 VINA RESULT:      -5.9      3.708      7.573
  Name = 
  11 active torsions:
  status: ('A' for Active; 'I' for Inactive)
    1  A    between atoms: C_2  and  C_5
    2  A    between atoms: C_3  and  O_8
    3  A    between atoms: C_3  and  C_22
    4  A    between atoms: N_4  and  C_24
    5  A    between atoms: O_8  and  C_20
    6  A    between atoms: C_13  and  C_18
    7  A    between atoms: N_14  and  C_18
    8  A    between atoms: N_15  and  C_20
    9  A    between atoms: N_15  and  C_26
   10  A    between atoms: C_16  and  C_20
   11  A    between atoms: C_16  and  C_24
                            x       y       z     vdW  Elec       q    Type
                         _______ _______ _______ _____ _____    ______ ____

>  <TORSDO>
F 11

$$$$
