=
 OpenBabel11052415333D

 37 39  0  0  1  0  0  0  0  0999 V2000
  180.6900  179.3000  141.5670 C   0  0  0  0  0  2  0  0  0  0  0  0
  178.9310  178.4770  140.0570 C   0  0  0  0  0  1  0  0  0  0  0  0
  182.9090  178.1680  141.5040 C   0  0  0  0  0  0  0  0  0  0  0  0
  180.9830  174.9440  140.3790 O   0  0  0  0  0  0  0  0  0  0  0  0
  184.1440  177.8520  142.0800 C   0  0  0  0  0  3  0  0  0  0  0  0
  180.0800  178.0370  140.9440 C   0  0  1  0  0  0  0  0  0  0  0  0
  180.7070  175.9540  139.6820 C   0  0  0  0  0  0  0  0  0  0  0  0
  182.3700  179.5570  143.4150 C   0  0  0  0  0  3  0  0  0  0  0  0
  181.0710  177.2590  140.1580 N   0  0  0  0  0  0  0  0  0  0  0  0
  179.5680  177.2400  141.9720 O   0  0  0  0  0  1  0  0  0  0  0  0
  182.0160  179.0040  142.1810 C   0  0  0  0  0  0  0  0  0  0  0  0
  182.5120  177.5880  140.1750 C   0  0  1  0  0  3  0  0  0  0  0  0
  184.5040  178.3950  143.3230 C   0  0  0  0  0  0  0  0  0  0  0  0
  183.6110  179.2530  143.9820 C   0  0  0  0  0  3  0  0  0  0  0  0
  186.7640  177.6970  143.1910 O   0  0  0  0  0  0  0  0  0  0  0  0
  185.8090  178.0720  143.9250 C   0  0  0  0  0  0  0  0  0  0  0  0
  185.9840  178.1770  145.3440 N   0  0  0  0  0  2  0  0  0  0  0  0
  187.2140  177.9560  146.0440 C   0  0  0  0  0  0  0  0  0  0  0  0
  188.2840  177.7280  145.4200 O   0  0  0  0  0  0  0  0  0  0  0  0
  188.4870  177.3680  148.0640 C   0  0  0  0  0  1  0  0  0  0  0  0
  187.2340  178.0340  147.5300 C   0  0  0  0  0  2  0  0  0  0  0  0
  180.0560  175.7780  138.4600 O   0  0  0  0  0  0  0  0  0  0  0  0
  180.5380  173.8680  137.1060 C   0  0  0  0  0  2  0  0  0  0  0  0
  179.5430  174.5220  138.0420 C   0  0  0  0  0  3  0  0  0  0  0  0
  179.3140  174.5540  136.5440 C   0  0  0  0  0  2  0  0  0  0  0  0
  182.9670  178.3780  138.9040 C   0  0  1  0  0  0  0  0  0  0  0  0
  182.6000  180.9350  138.7460 C   0  0  0  0  0  1  0  0  0  0  0  0
  183.4890  179.7970  139.2380 C   0  0  0  0  0  2  0  0  0  0  0  0
  184.1210  177.5920  138.2510 C   0  0  0  0  0  2  0  0  0  0  0  0
  185.4780  178.2260  138.3910 C   0  0  0  0  0  0  0  0  0  0  0  0
  185.8330  178.6950  139.4610 O   0  0  0  0  0  0  0  0  0  0  0  0
  187.4830  179.1170  137.5200 O   0  0  0  0  0  1  0  0  0  0  0  0
  186.3660  178.3460  137.1990 C   0  0  0  0  0  2  0  0  0  0  0  0
  181.8000  178.4590  137.8920 C   0  0  0  0  0  2  0  0  0  0  0  0
  182.0730  177.8040  136.5720 C   0  0  0  0  0  0  0  0  0  0  0  0
  182.4900  176.6180  136.5340 O   0  0  0  0  0  0  0  0  0  0  0  0
  181.8630  178.5190  135.3600 N   0  0  0  0  0  1  0  0  0  0  0  0
  1 11  1  0  0  0  0
  3  5  2  0  0  0  0
  3 11  1  0  0  0  0
  5 13  1  0  0  0  0
  6  2  1  6  0  0  0
  6  1  1  0  0  0  0
  6 10  1  0  0  0  0
  7  9  1  0  0  0  0
  7  4  2  0  0  0  0
  8 14  1  0  0  0  0
  9 12  1  0  0  0  0
  9  6  1  0  0  0  0
 11  8  2  0  0  0  0
 12 26  1  6  0  0  0
 12  3  1  0  0  0  0
 13 16  1  0  0  0  0
 13 14  2  0  0  0  0
 15 16  2  0  0  0  0
 16 17  1  0  0  0  0
 17 18  1  0  0  0  0
 18 21  1  0  0  0  0
 19 18  2  0  0  0  0
 21 20  1  0  0  0  0
 22  7  1  0  0  0  0
 23 24  1  0  0  0  0
 24 22  1  0  0  0  0
 25 23  1  0  0  0  0
 25 24  1  0  0  0  0
 26 34  1  6  0  0  0
 26 28  1  0  0  0  0
 27 28  1  0  0  0  0
 29 30  1  0  0  0  0
 29 26  1  0  0  0  0
 30 31  2  0  0  0  0
 33 32  1  0  0  0  0
 33 30  1  0  0  0  0
 35 34  1  0  0  0  0
 36 35  2  0  0  0  0
 37 35  1  0  0  0  0
M  END
>  <MODEL>
1

>  <REMARK>
 VINA RESULT:      -6.5      0.000      0.000
  Name = 
  11 active torsions:
  status: ('A' for Active; 'I' for Inactive)
    1  A    between atoms: C_1  and  C_5
    2  A    between atoms: C_1  and  C_36
    3  A    between atoms: C_5  and  C_23
    4  A    between atoms: C_6  and  C_31
    5  A    between atoms: C_11  and  C_33
    6  A    between atoms: C_18  and  C_19
    7  A    between atoms: C_20  and  O_32
    8  A    between atoms: C_21  and  O_32
    9  A    between atoms: C_27  and  C_36
   10  A    between atoms: C_29  and  C_36
   11  A    between atoms: C_33  and  C_36
                            x       y       z     vdW  Elec       q    Type
                         _______ _______ _______ _____ _____    ______ ____

>  <TORSDO>
F 11

$$$$
=
 OpenBabel11052415333D

 37 39  0  0  1  0  0  0  0  0999 V2000
  180.5900  179.1520  141.4840 C   0  0  0  0  0  2  0  0  0  0  0  0
  178.9310  178.3190  139.8700 C   0  0  0  0  0  1  0  0  0  0  0  0
  182.8640  178.1310  141.4550 C   0  0  0  0  0  0  0  0  0  0  0  0
  181.1420  174.8770  140.1090 O   0  0  0  0  0  0  0  0  0  0  0  0
  184.0900  177.8470  142.0640 C   0  0  0  0  0  3  0  0  0  0  0  0
  180.0670  177.8930  140.7800 C   0  0  1  0  0  0  0  0  0  0  0  0
  180.8420  175.9050  139.4490 C   0  0  0  0  0  0  0  0  0  0  0  0
  182.1870  179.3990  143.4060 C   0  0  0  0  0  3  0  0  0  0  0  0
  181.1230  177.2010  139.9990 N   0  0  0  0  0  0  0  0  0  0  0  0
  179.5580  177.0230  141.7490 O   0  0  0  0  0  1  0  0  0  0  0  0
  181.9060  178.8900  142.1350 C   0  0  0  0  0  0  0  0  0  0  0  0
  182.5440  177.5970  140.0860 C   0  0  1  0  0  3  0  0  0  0  0  0
  184.3780  178.3460  143.3430 C   0  0  0  0  0  0  0  0  0  0  0  0
  183.4200  179.1280  144.0060 C   0  0  0  0  0  3  0  0  0  0  0  0
  186.6310  177.6180  143.2850 O   0  0  0  0  0  0  0  0  0  0  0  0
  185.6750  178.0570  143.9800 C   0  0  0  0  0  0  0  0  0  0  0  0
  185.8380  178.2680  145.3890 N   0  0  0  0  0  2  0  0  0  0  0  0
  187.0600  178.0890  146.1150 C   0  0  0  0  0  0  0  0  0  0  0  0
  188.1330  177.8040  145.5200 O   0  0  0  0  0  0  0  0  0  0  0  0
  188.2570  177.5590  148.1970 C   0  0  0  0  0  1  0  0  0  0  0  0
  187.0680  178.2800  147.5910 C   0  0  0  0  0  2  0  0  0  0  0  0
  180.2450  175.7570  138.1950 O   0  0  0  0  0  0  0  0  0  0  0  0
  181.4180  174.3160  136.6900 C   0  0  0  0  0  2  0  0  0  0  0  0
  180.1710  174.5060  137.5280 C   0  0  0  0  0  3  0  0  0  0  0  0
  180.1270  174.7440  136.0320 C   0  0  0  0  0  2  0  0  0  0  0  0
  183.0060  178.4680  138.8710 C   0  0  1  0  0  0  0  0  0  0  0  0
  182.6110  177.7540  136.4150 C   0  0  0  0  0  1  0  0  0  0  0  0
  183.4720  177.6140  137.6670 C   0  0  0  0  0  2  0  0  0  0  0  0
  181.7990  179.3120  138.4130 C   0  0  0  0  0  2  0  0  0  0  0  0
  181.9430  180.7930  138.6310 C   0  0  0  0  0  0  0  0  0  0  0  0
  183.0500  181.3000  138.7240 O   0  0  0  0  0  0  0  0  0  0  0  0
  180.7200  182.6580  137.8590 O   0  0  0  0  0  1  0  0  0  0  0  0
  180.7270  181.6370  138.8080 C   0  0  0  0  0  2  0  0  0  0  0  0
  184.1320  179.4300  139.3150 C   0  0  0  0  0  2  0  0  0  0  0  0
  185.5140  178.9870  138.9400 C   0  0  0  0  0  0  0  0  0  0  0  0
  185.8820  179.0250  137.7390 O   0  0  0  0  0  0  0  0  0  0  0  0
  186.4120  178.5210  139.9400 N   0  0  0  0  0  1  0  0  0  0  0  0
  1 11  1  0  0  0  0
  3  5  2  0  0  0  0
  3 11  1  0  0  0  0
  5 13  1  0  0  0  0
  6  2  1  6  0  0  0
  6  1  1  0  0  0  0
  6 10  1  0  0  0  0
  7  9  1  0  0  0  0
  7  4  2  0  0  0  0
  8 14  1  0  0  0  0
  9 12  1  0  0  0  0
  9  6  1  0  0  0  0
 11  8  2  0  0  0  0
 12 26  1  6  0  0  0
 12  3  1  0  0  0  0
 13 16  1  0  0  0  0
 13 14  2  0  0  0  0
 15 16  2  0  0  0  0
 16 17  1  0  0  0  0
 17 18  1  0  0  0  0
 18 21  1  0  0  0  0
 19 18  2  0  0  0  0
 21 20  1  0  0  0  0
 22  7  1  0  0  0  0
 23 24  1  0  0  0  0
 24 22  1  0  0  0  0
 25 23  1  0  0  0  0
 25 24  1  0  0  0  0
 26 28  1  6  0  0  0
 26 34  1  0  0  0  0
 27 28  1  0  0  0  0
 29 30  1  0  0  0  0
 29 26  1  0  0  0  0
 30 31  2  0  0  0  0
 30 33  1  0  0  0  0
 32 33  1  0  0  0  0
 35 34  1  0  0  0  0
 35 37  1  0  0  0  0
 36 35  2  0  0  0  0
M  END
>  <MODEL>
2

>  <REMARK>
 VINA RESULT:      -6.1      1.648      2.654
  Name = 
  11 active torsions:
  status: ('A' for Active; 'I' for Inactive)
    1  A    between atoms: C_1  and  C_5
    2  A    between atoms: C_1  and  C_36
    3  A    between atoms: C_5  and  C_23
    4  A    between atoms: C_6  and  C_31
    5  A    between atoms: C_11  and  C_33
    6  A    between atoms: C_18  and  C_19
    7  A    between atoms: C_20  and  O_32
    8  A    between atoms: C_21  and  O_32
    9  A    between atoms: C_27  and  C_36
   10  A    between atoms: C_29  and  C_36
   11  A    between atoms: C_33  and  C_36
                            x       y       z     vdW  Elec       q    Type
                         _______ _______ _______ _____ _____    ______ ____

>  <TORSDO>
F 11

$$$$
=
 OpenBabel11052415333D

 37 39  0  0  1  0  0  0  0  0999 V2000
  179.3690  177.3890  140.5650 C   0  0  0  0  0  2  0  0  0  0  0  0
  178.9310  176.1560  138.4820 C   0  0  0  0  0  1  0  0  0  0  0  0
  181.6940  178.1840  140.9860 C   0  0  0  0  0  0  0  0  0  0  0  0
  182.8880  175.1440  138.8190 O   0  0  0  0  0  0  0  0  0  0  0  0
  182.7040  178.6270  141.8460 C   0  0  0  0  0  3  0  0  0  0  0  0
  179.9490  176.3570  139.5890 C   0  0  1  0  0  0  0  0  0  0  0  0
  182.0140  175.8460  138.2480 C   0  0  0  0  0  0  0  0  0  0  0  0
  180.1470  178.0870  142.8490 C   0  0  0  0  0  3  0  0  0  0  0  0
  181.2510  176.7860  139.0200 N   0  0  0  0  0  0  0  0  0  0  0  0
  180.1120  175.1470  140.2690 O   0  0  0  0  0  1  0  0  0  0  0  0
  180.4220  177.8960  141.4920 C   0  0  0  0  0  0  0  0  0  0  0  0
  181.9680  177.9770  139.5220 C   0  0  1  0  0  3  0  0  0  0  0  0
  182.4390  178.8140  143.2110 C   0  0  0  0  0  0  0  0  0  0  0  0
  181.1530  178.5460  143.7040 C   0  0  0  0  0  3  0  0  0  0  0  0
  183.6310  180.5290  144.3300 O   0  0  0  0  0  0  0  0  0  0  0  0
  183.4990  179.2930  144.1160 C   0  0  0  0  0  0  0  0  0  0  0  0
  184.3810  178.3500  144.7410 N   0  0  0  0  0  2  0  0  0  0  0  0
  185.4050  178.6790  145.6860 C   0  0  0  0  0  0  0  0  0  0  0  0
  185.5450  179.8570  146.1090 O   0  0  0  0  0  0  0  0  0  0  0  0
  187.6800  177.7480  145.6080 C   0  0  0  0  0  1  0  0  0  0  0  0
  186.2940  177.6030  146.2050 C   0  0  0  0  0  2  0  0  0  0  0  0
  181.8120  175.6940  136.8740 O   0  0  0  0  0  0  0  0  0  0  0  0
  182.5760  173.8770  135.5220 C   0  0  0  0  0  2  0  0  0  0  0  0
  181.4110  174.4630  136.2930 C   0  0  0  0  0  3  0  0  0  0  0  0
  181.4640  174.5870  134.7840 C   0  0  0  0  0  2  0  0  0  0  0  0
  181.7940  179.2250  138.5950 C   0  0  1  0  0  0  0  0  0  0  0  0
  180.0490  180.9620  139.3950 C   0  0  0  0  0  1  0  0  0  0  0  0
  181.5100  180.5240  139.3900 C   0  0  0  0  0  2  0  0  0  0  0  0
  183.1120  179.4240  137.8210 C   0  0  0  0  0  2  0  0  0  0  0  0
  184.3590  179.1110  138.6030 C   0  0  0  0  0  0  0  0  0  0  0  0
  184.7580  179.8810  139.4630 O   0  0  0  0  0  0  0  0  0  0  0  0
  184.8750  177.4850  136.9720 O   0  0  0  0  0  1  0  0  0  0  0  0
  185.1510  177.8910  138.2770 C   0  0  0  0  0  2  0  0  0  0  0  0
  180.6640  178.9640  137.5730 C   0  0  0  0  0  2  0  0  0  0  0  0
  180.9680  179.4200  136.1780 C   0  0  0  0  0  0  0  0  0  0  0  0
  181.4220  178.6040  135.3350 O   0  0  0  0  0  0  0  0  0  0  0  0
  180.7460  180.7740  135.8030 N   0  0  0  0  0  1  0  0  0  0  0  0
  1 11  1  0  0  0  0
  3 11  2  0  0  0  0
  3  5  1  0  0  0  0
  5 13  2  0  0  0  0
  6  2  1  6  0  0  0
  6 10  1  0  0  0  0
  6  1  1  0  0  0  0
  7  4  2  0  0  0  0
  7  9  1  0  0  0  0
  8 14  2  0  0  0  0
  9 12  1  0  0  0  0
  9  6  1  0  0  0  0
 11  8  1  0  0  0  0
 12 26  1  6  0  0  0
 12  3  1  0  0  0  0
 13 14  1  0  0  0  0
 13 16  1  0  0  0  0
 16 15  2  0  0  0  0
 16 17  1  0  0  0  0
 17 18  1  0  0  0  0
 18 19  2  0  0  0  0
 18 21  1  0  0  0  0
 20 21  1  0  0  0  0
 22  7  1  0  0  0  0
 23 24  1  0  0  0  0
 24 22  1  0  0  0  0
 25 23  1  0  0  0  0
 25 24  1  0  0  0  0
 26 34  1  6  0  0  0
 26 28  1  0  0  0  0
 28 27  1  0  0  0  0
 29 26  1  0  0  0  0
 29 30  1  0  0  0  0
 30 31  2  0  0  0  0
 32 33  1  0  0  0  0
 33 30  1  0  0  0  0
 35 34  1  0  0  0  0
 36 35  2  0  0  0  0
 37 35  1  0  0  0  0
M  END
>  <MODEL>
3

>  <REMARK>
 VINA RESULT:      -6.1      1.841      2.335
  Name = 
  11 active torsions:
  status: ('A' for Active; 'I' for Inactive)
    1  A    between atoms: C_1  and  C_5
    2  A    between atoms: C_1  and  C_36
    3  A    between atoms: C_5  and  C_23
    4  A    between atoms: C_6  and  C_31
    5  A    between atoms: C_11  and  C_33
    6  A    between atoms: C_18  and  C_19
    7  A    between atoms: C_20  and  O_32
    8  A    between atoms: C_21  and  O_32
    9  A    between atoms: C_27  and  C_36
   10  A    between atoms: C_29  and  C_36
   11  A    between atoms: C_33  and  C_36
                            x       y       z     vdW  Elec       q    Type
                         _______ _______ _______ _____ _____    ______ ____

>  <TORSDO>
F 11

$$$$
=
 OpenBabel11052415333D

 37 39  0  0  1  0  0  0  0  0999 V2000
  181.5870  177.9390  136.8880 C   0  0  0  0  0  2  0  0  0  0  0  0
  179.5060  179.2290  137.1290 C   0  0  0  0  0  1  0  0  0  0  0  0
  183.5160  178.5480  138.3450 C   0  0  0  0  0  0  0  0  0  0  0  0
  182.0550  182.1850  138.3800 O   0  0  0  0  0  0  0  0  0  0  0  0
  184.8830  178.5430  138.6380 C   0  0  0  0  0  3  0  0  0  0  0  0
  181.0190  179.3440  137.1330 C   0  0  1  0  0  0  0  0  0  0  0  0
  181.2080  181.3080  138.6910 C   0  0  0  0  0  0  0  0  0  0  0  0
  183.9310  177.1980  136.3760 C   0  0  0  0  0  3  0  0  0  0  0  0
  181.4890  179.9280  138.4140 N   0  0  0  0  0  0  0  0  0  0  0  0
  181.4050  180.1690  136.0730 O   0  0  0  0  0  1  0  0  0  0  0  0
  183.0440  177.8920  137.2030 C   0  0  0  0  0  0  0  0  0  0  0  0
  182.5450  179.2850  139.2250 C   0  0  1  0  0  3  0  0  0  0  0  0
  185.7830  177.8560  137.8090 C   0  0  0  0  0  0  0  0  0  0  0  0
  185.2950  177.1790  136.6800 C   0  0  0  0  0  3  0  0  0  0  0  0
  188.0650  177.6820  137.1990 O   0  0  0  0  0  0  0  0  0  0  0  0
  187.2220  177.8400  138.1240 C   0  0  0  0  0  0  0  0  0  0  0  0
  187.6550  177.9940  139.4820 N   0  0  0  0  0  2  0  0  0  0  0  0
  189.0200  178.0600  139.9110 C   0  0  0  0  0  0  0  0  0  0  0  0
  189.9630  178.0730  139.0760 O   0  0  0  0  0  0  0  0  0  0  0  0
  188.7700  176.9430  142.0870 C   0  0  0  0  0  1  0  0  0  0  0  0
  189.3250  178.1540  141.3650 C   0  0  0  0  0  2  0  0  0  0  0  0
  180.0160  181.7020  139.3030 O   0  0  0  0  0  0  0  0  0  0  0  0
  179.4750  183.0810  137.4260 C   0  0  0  0  0  2  0  0  0  0  0  0
  178.9310  182.2560  138.5740 C   0  0  0  0  0  3  0  0  0  0  0  0
  178.9830  183.7670  138.6800 C   0  0  0  0  0  2  0  0  0  0  0  0
  181.9720  178.4940  140.4470 C   0  0  1  0  0  0  0  0  0  0  0  0
  181.5340  175.9860  139.9830 C   0  0  0  0  0  1  0  0  0  0  0  0
  180.9600  177.3990  140.0290 C   0  0  0  0  0  2  0  0  0  0  0  0
  183.1540  177.8000  141.1540 C   0  0  0  0  0  2  0  0  0  0  0  0
  183.8640  178.6440  142.1760 C   0  0  0  0  0  0  0  0  0  0  0  0
  184.7750  179.3850  141.8410 O   0  0  0  0  0  0  0  0  0  0  0  0
  183.6510  179.7560  144.2470 O   0  0  0  0  0  1  0  0  0  0  0  0
  183.5030  178.5210  143.6170 C   0  0  0  0  0  2  0  0  0  0  0  0
  181.3180  179.4770  141.4460 C   0  0  0  0  0  2  0  0  0  0  0  0
  179.9390  179.0900  141.8880 C   0  0  0  0  0  0  0  0  0  0  0  0
  178.9340  179.5780  141.3100 O   0  0  0  0  0  0  0  0  0  0  0  0
  179.7620  178.1710  142.9600 N   0  0  0  0  0  1  0  0  0  0  0  0
  1  6  1  0  0  0  0
  1 11  1  0  0  0  0
  3  5  1  0  0  0  0
  3 12  1  0  0  0  0
  4  7  2  0  0  0  0
  6  2  1  1  0  0  0
  6  9  1  0  0  0  0
  7 22  1  0  0  0  0
  8 14  2  0  0  0  0
  8 11  1  0  0  0  0
  9  7  1  0  0  0  0
  9 12  1  0  0  0  0
 10  6  1  0  0  0  0
 11  3  2  0  0  0  0
 12 26  1  1  0  0  0
 13 16  1  0  0  0  0
 13  5  2  0  0  0  0
 14 13  1  0  0  0  0
 15 16  2  0  0  0  0
 16 17  1  0  0  0  0
 17 18  1  0  0  0  0
 18 21  1  0  0  0  0
 19 18  2  0  0  0  0
 21 20  1  0  0  0  0
 23 24  1  0  0  0  0
 23 25  1  0  0  0  0
 24 25  1  0  0  0  0
 24 22  1  0  0  0  0
 26 28  1  6  0  0  0
 26 29  1  0  0  0  0
 26 34  1  0  0  0  0
 27 28  1  0  0  0  0
 29 30  1  0  0  0  0
 30 33  1  0  0  0  0
 31 30  2  0  0  0  0
 33 32  1  0  0  0  0
 34 35  1  0  0  0  0
 35 37  1  0  0  0  0
 36 35  2  0  0  0  0
M  END
>  <MODEL>
4

>  <REMARK>
 VINA RESULT:      -5.7      2.984      5.898
  Name = 
  11 active torsions:
  status: ('A' for Active; 'I' for Inactive)
    1  A    between atoms: C_1  and  C_5
    2  A    between atoms: C_1  and  C_36
    3  A    between atoms: C_5  and  C_23
    4  A    between atoms: C_6  and  C_31
    5  A    between atoms: C_11  and  C_33
    6  A    between atoms: C_18  and  C_19
    7  A    between atoms: C_20  and  O_32
    8  A    between atoms: C_21  and  O_32
    9  A    between atoms: C_27  and  C_36
   10  A    between atoms: C_29  and  C_36
   11  A    between atoms: C_33  and  C_36
                            x       y       z     vdW  Elec       q    Type
                         _______ _______ _______ _____ _____    ______ ____

>  <TORSDO>
F 11

$$$$
=
 OpenBabel11052415333D

 37 39  0  0  1  0  0  0  0  0999 V2000
  181.0250  179.4010  142.1460 C   0  0  0  0  0  2  0  0  0  0  0  0
  178.9330  178.7080  141.0520 C   0  0  0  0  0  1  0  0  0  0  0  0
  183.1210  178.2000  141.5290 C   0  0  0  0  0  0  0  0  0  0  0  0
  180.8520  175.0990  140.7550 O   0  0  0  0  0  0  0  0  0  0  0  0
  184.4390  177.8170  141.7920 C   0  0  0  0  0  3  0  0  0  0  0  0
  180.2350  178.1890  141.6330 C   0  0  1  0  0  0  0  0  0  0  0  0
  180.4670  176.1490  140.1800 C   0  0  0  0  0  0  0  0  0  0  0  0
  183.0940  179.5140  143.5650 C   0  0  0  0  0  3  0  0  0  0  0  0
  180.9850  177.4180  140.6100 N   0  0  0  0  0  0  0  0  0  0  0  0
  179.9390  177.3610  142.7190 O   0  0  0  0  0  1  0  0  0  0  0  0
  182.4430  179.0330  142.4260 C   0  0  0  0  0  0  0  0  0  0  0  0
  182.4050  177.6980  140.3060 C   0  0  1  0  0  3  0  0  0  0  0  0
  185.0980  178.2880  142.9380 C   0  0  0  0  0  0  0  0  0  0  0  0
  184.4170  179.1430  143.8180 C   0  0  0  0  0  3  0  0  0  0  0  0
  187.2130  177.4540  142.2740 O   0  0  0  0  0  0  0  0  0  0  0  0
  186.4910  177.8950  143.2100 C   0  0  0  0  0  0  0  0  0  0  0  0
  187.0160  178.0070  144.5400 N   0  0  0  0  0  2  0  0  0  0  0  0
  188.3660  177.7200  144.9220 C   0  0  0  0  0  0  0  0  0  0  0  0
  189.2360  177.4200  144.0600 O   0  0  0  0  0  0  0  0  0  0  0  0
  187.5660  177.4910  147.2350 C   0  0  0  0  0  1  0  0  0  0  0  0
  188.7570  177.8150  146.3550 C   0  0  0  0  0  2  0  0  0  0  0  0
  179.5460  176.0530  139.1350 O   0  0  0  0  0  0  0  0  0  0  0  0
  180.4770  174.3130  137.7850 C   0  0  0  0  0  2  0  0  0  0  0  0
  179.2410  174.8220  138.4970 C   0  0  0  0  0  3  0  0  0  0  0  0
  179.3810  174.9920  136.9980 C   0  0  0  0  0  2  0  0  0  0  0  0
  182.5900  178.5320  138.9960 C   0  0  1  0  0  0  0  0  0  0  0  0
  184.2490  180.5160  138.8820 C   0  0  0  0  0  1  0  0  0  0  0  0
  184.0500  179.0060  138.7910 C   0  0  0  0  0  2  0  0  0  0  0  0
  182.2160  177.6260  137.8050 C   0  0  0  0  0  2  0  0  0  0  0  0
  183.3530  176.8160  137.2450 C   0  0  0  0  0  0  0  0  0  0  0  0
  183.8640  177.1220  136.1790 O   0  0  0  0  0  0  0  0  0  0  0  0
  184.0830  174.5810  137.0370 O   0  0  0  0  0  1  0  0  0  0  0  0
  183.8110  175.5900  137.9600 C   0  0  0  0  0  2  0  0  0  0  0  0
  181.6280  179.7430  139.0060 C   0  0  0  0  0  2  0  0  0  0  0  0
  180.8030  179.8940  137.7630 C   0  0  0  0  0  0  0  0  0  0  0  0
  181.1680  180.6890  136.8600 O   0  0  0  0  0  0  0  0  0  0  0  0
  179.6080  179.1410  137.6020 N   0  0  0  0  0  1  0  0  0  0  0  0
  1 11  1  0  0  0  0
  3  5  2  0  0  0  0
  3 11  1  0  0  0  0
  5 13  1  0  0  0  0
  6  2  1  6  0  0  0
  6  1  1  0  0  0  0
  6 10  1  0  0  0  0
  7  9  1  0  0  0  0
  7  4  2  0  0  0  0
  8 14  1  0  0  0  0
  9  6  1  0  0  0  0
 11  8  2  0  0  0  0
 12 26  1  6  0  0  0
 12  9  1  0  0  0  0
 12  3  1  0  0  0  0
 13 16  1  0  0  0  0
 13 14  2  0  0  0  0
 15 16  2  0  0  0  0
 16 17  1  0  0  0  0
 17 18  1  0  0  0  0
 18 21  1  0  0  0  0
 19 18  2  0  0  0  0
 21 20  1  0  0  0  0
 22  7  1  0  0  0  0
 23 24  1  0  0  0  0
 24 22  1  0  0  0  0
 25 23  1  0  0  0  0
 25 24  1  0  0  0  0
 26 29  1  6  0  0  0
 26 34  1  0  0  0  0
 28 27  1  0  0  0  0
 28 26  1  0  0  0  0
 30 29  1  0  0  0  0
 30 33  1  0  0  0  0
 31 30  2  0  0  0  0
 32 33  1  0  0  0  0
 35 34  1  0  0  0  0
 36 35  2  0  0  0  0
 37 35  1  0  0  0  0
M  END
>  <MODEL>
5

>  <REMARK>
 VINA RESULT:      -5.2      1.478      1.959
  Name = 
  11 active torsions:
  status: ('A' for Active; 'I' for Inactive)
    1  A    between atoms: C_1  and  C_5
    2  A    between atoms: C_1  and  C_36
    3  A    between atoms: C_5  and  C_23
    4  A    between atoms: C_6  and  C_31
    5  A    between atoms: C_11  and  C_33
    6  A    between atoms: C_18  and  C_19
    7  A    between atoms: C_20  and  O_32
    8  A    between atoms: C_21  and  O_32
    9  A    between atoms: C_27  and  C_36
   10  A    between atoms: C_29  and  C_36
   11  A    between atoms: C_33  and  C_36
                            x       y       z     vdW  Elec       q    Type
                         _______ _______ _______ _____ _____    ______ ____

>  <TORSDO>
F 11

$$$$
=
 OpenBabel11052415333D

 37 39  0  0  1  0  0  0  0  0999 V2000
  181.2120  175.4490  137.5720 C   0  0  0  0  0  2  0  0  0  0  0  0
  179.1640  176.7110  137.0550 C   0  0  0  0  0  1  0  0  0  0  0  0
  183.3990  176.6220  137.3360 C   0  0  0  0  0  0  0  0  0  0  0  0
  181.6690  178.8260  134.5950 O   0  0  0  0  0  0  0  0  0  0  0  0
  184.7890  176.6110  137.1820 C   0  0  0  0  0  3  0  0  0  0  0  0
  180.6030  176.4930  136.6260 C   0  0  1  0  0  0  0  0  0  0  0  0
  181.0240  178.7830  135.6750 C   0  0  0  0  0  0  0  0  0  0  0  0
  183.3870  174.2010  137.4360 C   0  0  0  0  0  3  0  0  0  0  0  0
  181.3480  177.7780  136.6480 N   0  0  0  0  0  0  0  0  0  0  0  0
  180.6080  175.9720  135.3290 O   0  0  0  0  0  1  0  0  0  0  0  0
  182.6980  175.4170  137.4440 C   0  0  0  0  0  0  0  0  0  0  0  0
  182.6390  177.9200  137.3520 C   0  0  1  0  0  3  0  0  0  0  0  0
  185.4890  175.3950  137.1640 C   0  0  0  0  0  0  0  0  0  0  0  0
  184.7780  174.1920  137.2980 C   0  0  0  0  0  3  0  0  0  0  0  0
  187.5170  174.4120  136.4360 O   0  0  0  0  0  0  0  0  0  0  0  0
  186.9540  175.3820  137.0130 C   0  0  0  0  0  0  0  0  0  0  0  0
  187.7320  176.4680  137.5330 N   0  0  0  0  0  2  0  0  0  0  0  0
  189.1520  176.6060  137.3960 C   0  0  0  0  0  0  0  0  0  0  0  0
  189.8210  175.7910  136.7070 O   0  0  0  0  0  0  0  0  0  0  0  0
  189.0680  178.1890  139.2770 C   0  0  0  0  0  1  0  0  0  0  0  0
  189.8400  177.7550  138.0460 C   0  0  0  0  0  2  0  0  0  0  0  0
  180.0120  179.7180  135.8990 O   0  0  0  0  0  0  0  0  0  0  0  0
  180.5250  181.9650  135.2640 C   0  0  0  0  0  2  0  0  0  0  0  0
  179.6930  180.7360  134.9630 C   0  0  0  0  0  3  0  0  0  0  0  0
  179.0790  181.9100  135.6990 C   0  0  0  0  0  2  0  0  0  0  0  0
  182.4970  178.6290  138.7390 C   0  0  1  0  0  0  0  0  0  0  0  0
  181.8360  181.1270  138.5880 C   0  0  0  0  0  1  0  0  0  0  0  0
  182.9630  180.1060  138.7050 C   0  0  0  0  0  2  0  0  0  0  0  0
  181.0040  178.6140  139.1240 C   0  0  0  0  0  2  0  0  0  0  0  0
  180.7070  178.0550  140.4880 C   0  0  0  0  0  0  0  0  0  0  0  0
  180.4270  176.8750  140.6250 O   0  0  0  0  0  0  0  0  0  0  0  0
  179.4080  178.9730  142.2330 O   0  0  0  0  0  1  0  0  0  0  0  0
  180.6850  178.9630  141.6710 C   0  0  0  0  0  2  0  0  0  0  0  0
  183.2840  177.8420  139.8130 C   0  0  0  0  0  2  0  0  0  0  0  0
  184.3790  178.6200  140.4780 C   0  0  0  0  0  0  0  0  0  0  0  0
  184.2190  179.0600  141.6450 O   0  0  0  0  0  0  0  0  0  0  0  0
  185.6020  178.8640  139.7920 N   0  0  0  0  0  1  0  0  0  0  0  0
  3 12  1  0  0  0  0
  3 11  1  0  0  0  0
  4  7  2  0  0  0  0
  5  3  2  0  0  0  0
  6  9  1  0  0  0  0
  6  2  1  1  0  0  0
  6  1  1  0  0  0  0
  7 22  1  0  0  0  0
  7  9  1  0  0  0  0
  8 11  2  0  0  0  0
  9 12  1  0  0  0  0
 10  6  1  0  0  0  0
 11  1  1  0  0  0  0
 12 26  1  1  0  0  0
 13  5  1  0  0  0  0
 13 14  2  0  0  0  0
 14  8  1  0  0  0  0
 15 16  2  0  0  0  0
 16 13  1  0  0  0  0
 16 17  1  0  0  0  0
 18 17  1  0  0  0  0
 18 21  1  0  0  0  0
 19 18  2  0  0  0  0
 21 20  1  0  0  0  0
 23 25  1  0  0  0  0
 24 23  1  0  0  0  0
 24 25  1  0  0  0  0
 24 22  1  0  0  0  0
 26 28  1  6  0  0  0
 26 29  1  0  0  0  0
 26 34  1  0  0  0  0
 27 28  1  0  0  0  0
 29 30  1  0  0  0  0
 30 31  2  0  0  0  0
 30 33  1  0  0  0  0
 33 32  1  0  0  0  0
 34 35  1  0  0  0  0
 35 36  2  0  0  0  0
 37 35  1  0  0  0  0
M  END
>  <MODEL>
6

>  <REMARK>
 VINA RESULT:      -5.2      3.267      6.355
  Name = 
  11 active torsions:
  status: ('A' for Active; 'I' for Inactive)
    1  A    between atoms: C_1  and  C_5
    2  A    between atoms: C_1  and  C_36
    3  A    between atoms: C_5  and  C_23
    4  A    between atoms: C_6  and  C_31
    5  A    between atoms: C_11  and  C_33
    6  A    between atoms: C_18  and  C_19
    7  A    between atoms: C_20  and  O_32
    8  A    between atoms: C_21  and  O_32
    9  A    between atoms: C_27  and  C_36
   10  A    between atoms: C_29  and  C_36
   11  A    between atoms: C_33  and  C_36
                            x       y       z     vdW  Elec       q    Type
                         _______ _______ _______ _____ _____    ______ ____

>  <TORSDO>
F 11

$$$$
=
 OpenBabel11052415333D

 37 39  0  0  1  0  0  0  0  0999 V2000
  180.2770  179.1850  141.0040 C   0  0  0  0  0  2  0  0  0  0  0  0
  178.9310  178.1290  139.2370 C   0  0  0  0  0  1  0  0  0  0  0  0
  182.5010  178.1890  141.5330 C   0  0  0  0  0  0  0  0  0  0  0  0
  181.0040  174.7700  140.3370 O   0  0  0  0  0  0  0  0  0  0  0  0
  183.5890  177.9990  142.3900 C   0  0  0  0  0  3  0  0  0  0  0  0
  179.8720  177.8380  140.3900 C   0  0  1  0  0  0  0  0  0  0  0  0
  180.8470  175.6980  139.5020 C   0  0  0  0  0  0  0  0  0  0  0  0
  181.4960  179.7010  143.1380 C   0  0  0  0  0  3  0  0  0  0  0  0
  181.0430  177.0580  139.9160 N   0  0  0  0  0  0  0  0  0  0  0  0
  179.1790  177.1020  141.3550 O   0  0  0  0  0  1  0  0  0  0  0  0
  181.4460  179.0250  141.9170 C   0  0  0  0  0  0  0  0  0  0  0  0
  182.4300  177.4740  140.2120 C   0  0  1  0  0  3  0  0  0  0  0  0
  183.6440  178.6680  143.6220 C   0  0  0  0  0  0  0  0  0  0  0  0
  182.5930  179.5240  143.9860 C   0  0  0  0  0  3  0  0  0  0  0  0
  184.7300  178.8720  145.7180 O   0  0  0  0  0  0  0  0  0  0  0  0
  184.7960  178.4780  144.5210 C   0  0  0  0  0  0  0  0  0  0  0  0
  185.9900  177.8560  144.0260 N   0  0  0  0  0  2  0  0  0  0  0  0
  187.1500  177.5570  144.8100 C   0  0  0  0  0  0  0  0  0  0  0  0
  187.1620  177.7530  146.0540 O   0  0  0  0  0  0  0  0  0  0  0  0
  189.5390  177.8900  144.3270 C   0  0  0  0  0  1  0  0  0  0  0  0
  188.3470  176.9690  144.1480 C   0  0  0  0  0  2  0  0  0  0  0  0
  180.4900  175.3770  138.1900 O   0  0  0  0  0  0  0  0  0  0  0  0
  181.7280  173.6770  137.0530 C   0  0  0  0  0  2  0  0  0  0  0  0
  180.4180  174.0390  137.7230 C   0  0  0  0  0  3  0  0  0  0  0  0
  180.5250  174.0350  136.2120 C   0  0  0  0  0  2  0  0  0  0  0  0
  183.1220  178.1790  138.9980 C   0  0  1  0  0  0  0  0  0  0  0  0
  185.6410  178.6300  139.3890 C   0  0  0  0  0  1  0  0  0  0  0  0
  184.2190  179.1810  139.4360 C   0  0  0  0  0  2  0  0  0  0  0  0
  183.7950  177.0870  138.1420 C   0  0  0  0  0  2  0  0  0  0  0  0
  183.5690  177.2150  136.6610 C   0  0  0  0  0  0  0  0  0  0  0  0
  182.4580  177.0300  136.1870 O   0  0  0  0  0  0  0  0  0  0  0  0
  184.8940  176.4380  134.8690 O   0  0  0  0  0  1  0  0  0  0  0  0
  184.7210  177.4980  135.7580 C   0  0  0  0  0  2  0  0  0  0  0  0
  182.0590  178.8910  138.1310 C   0  0  0  0  0  2  0  0  0  0  0  0
  181.9890  180.3760  138.3250 C   0  0  0  0  0  0  0  0  0  0  0  0
  183.0040  181.0070  138.7160 O   0  0  0  0  0  0  0  0  0  0  0  0
  180.7760  181.0750  138.0710 N   0  0  0  0  0  1  0  0  0  0  0  0
  1 11  1  0  0  0  0
  3 11  2  0  0  0  0
  3  5  1  0  0  0  0
  5 13  2  0  0  0  0
  6  2  1  6  0  0  0
  6  1  1  0  0  0  0
  6 10  1  0  0  0  0
  7  9  1  0  0  0  0
  7  4  2  0  0  0  0
  8 14  2  0  0  0  0
  9 12  1  0  0  0  0
  9  6  1  0  0  0  0
 11  8  1  0  0  0  0
 12 26  1  6  0  0  0
 12  3  1  0  0  0  0
 13 14  1  0  0  0  0
 13 16  1  0  0  0  0
 16 15  2  0  0  0  0
 17 16  1  0  0  0  0
 17 18  1  0  0  0  0
 18 19  2  0  0  0  0
 21 20  1  0  0  0  0
 21 18  1  0  0  0  0
 22  7  1  0  0  0  0
 23 24  1  0  0  0  0
 24 22  1  0  0  0  0
 25 23  1  0  0  0  0
 25 24  1  0  0  0  0
 26 34  1  6  0  0  0
 26 28  1  0  0  0  0
 27 28  1  0  0  0  0
 29 26  1  0  0  0  0
 30 29  1  0  0  0  0
 31 30  2  0  0  0  0
 32 33  1  0  0  0  0
 33 30  1  0  0  0  0
 34 35  1  0  0  0  0
 35 36  2  0  0  0  0
 37 35  1  0  0  0  0
M  END
>  <MODEL>
7

>  <REMARK>
 VINA RESULT:      -5.2      1.693      2.228
  Name = 
  11 active torsions:
  status: ('A' for Active; 'I' for Inactive)
    1  A    between atoms: C_1  and  C_5
    2  A    between atoms: C_1  and  C_36
    3  A    between atoms: C_5  and  C_23
    4  A    between atoms: C_6  and  C_31
    5  A    between atoms: C_11  and  C_33
    6  A    between atoms: C_18  and  C_19
    7  A    between atoms: C_20  and  O_32
    8  A    between atoms: C_21  and  O_32
    9  A    between atoms: C_27  and  C_36
   10  A    between atoms: C_29  and  C_36
   11  A    between atoms: C_33  and  C_36
                            x       y       z     vdW  Elec       q    Type
                         _______ _______ _______ _____ _____    ______ ____

>  <TORSDO>
F 11

$$$$
=
 OpenBabel11052415333D

 37 39  0  0  1  0  0  0  0  0999 V2000
  191.9570  178.1050  140.8370 C   0  0  0  0  0  2  0  0  0  0  0  0
  190.8570  178.8350  142.9130 C   0  0  0  0  0  1  0  0  0  0  0  0
  190.7850  176.4200  139.4230 C   0  0  0  0  0  0  0  0  0  0  0  0
  189.1300  175.1230  142.7310 O   0  0  0  0  0  0  0  0  0  0  0  0
  190.7870  175.4340  138.4310 C   0  0  0  0  0  3  0  0  0  0  0  0
  191.1070  177.6320  142.0240 C   0  0  1  0  0  0  0  0  0  0  0  0
  189.0040  176.3640  142.5680 C   0  0  0  0  0  0  0  0  0  0  0  0
  193.1530  176.7900  139.0630 C   0  0  0  0  0  3  0  0  0  0  0  0
  189.8190  177.0320  141.5930 N   0  0  0  0  0  0  0  0  0  0  0  0
  191.8420  176.6890  142.7470 O   0  0  0  0  0  1  0  0  0  0  0  0
  191.9720  177.0830  139.7510 C   0  0  0  0  0  0  0  0  0  0  0  0
  189.5240  176.7540  140.1710 C   0  0  1  0  0  3  0  0  0  0  0  0
  191.9690  175.1270  137.7410 C   0  0  0  0  0  0  0  0  0  0  0  0
  193.1490  175.8160  138.0600 C   0  0  0  0  0  3  0  0  0  0  0  0
  193.0640  173.6460  136.2520 O   0  0  0  0  0  0  0  0  0  0  0  0
  191.9700  174.0980  136.6870 C   0  0  0  0  0  0  0  0  0  0  0  0
  190.7250  173.6230  136.1560 N   0  0  0  0  0  2  0  0  0  0  0  0
  190.5870  172.5830  135.1800 C   0  0  0  0  0  0  0  0  0  0  0  0
  191.5890  171.9360  134.7730 O   0  0  0  0  0  0  0  0  0  0  0  0
  188.2490  173.3310  135.0330 C   0  0  0  0  0  1  0  0  0  0  0  0
  189.2330  172.2370  134.6670 C   0  0  0  0  0  2  0  0  0  0  0  0
  188.0710  177.0590  143.3400 O   0  0  0  0  0  0  0  0  0  0  0  0
  186.8410  177.7500  145.2700 C   0  0  0  0  0  2  0  0  0  0  0  0
  187.8180  176.7430  144.7010 C   0  0  0  0  0  3  0  0  0  0  0  0
  188.3160  177.8770  145.5730 C   0  0  0  0  0  2  0  0  0  0  0  0
  188.5920  177.8300  139.5240 C   0  0  1  0  0  0  0  0  0  0  0  0
  187.8160  175.9190  137.9590 C   0  0  0  0  0  1  0  0  0  0  0  0
  187.4440  177.2040  138.6930 C   0  0  0  0  0  2  0  0  0  0  0  0
  187.9560  178.6480  140.6660 C   0  0  0  0  0  2  0  0  0  0  0  0
  186.4530  178.7110  140.6390 C   0  0  0  0  0  0  0  0  0  0  0  0
  185.8660  179.0090  139.6110 O   0  0  0  0  0  0  0  0  0  0  0  0
  185.3030  179.7030  142.4460 O   0  0  0  0  0  1  0  0  0  0  0  0
  185.6800  178.4800  141.8930 C   0  0  0  0  0  2  0  0  0  0  0  0
  189.4290  178.7890  138.6460 C   0  0  0  0  0  2  0  0  0  0  0  0
  188.9440  178.9240  137.2340 C   0  0  0  0  0  0  0  0  0  0  0  0
  188.0300  179.7420  136.9590 O   0  0  0  0  0  0  0  0  0  0  0  0
  189.5150  178.1280  136.2020 N   0  0  0  0  0  1  0  0  0  0  0  0
  1  6  1  0  0  0  0
  3 11  1  0  0  0  0
  3 12  1  0  0  0  0
  5  3  2  0  0  0  0
  6 10  1  0  0  0  0
  6  2  1  1  0  0  0
  7  4  2  0  0  0  0
  7 22  1  0  0  0  0
  8 11  2  0  0  0  0
  9  6  1  0  0  0  0
  9  7  1  0  0  0  0
 11  1  1  0  0  0  0
 12 26  1  6  0  0  0
 12  9  1  0  0  0  0
 13 14  2  0  0  0  0
 13  5  1  0  0  0  0
 14  8  1  0  0  0  0
 15 16  2  0  0  0  0
 16 13  1  0  0  0  0
 17 16  1  0  0  0  0
 18 17  1  0  0  0  0
 19 18  2  0  0  0  0
 21 20  1  0  0  0  0
 21 18  1  0  0  0  0
 22 24  1  0  0  0  0
 23 25  1  0  0  0  0
 24 23  1  0  0  0  0
 24 25  1  0  0  0  0
 26 34  1  6  0  0  0
 26 29  1  0  0  0  0
 27 28  1  0  0  0  0
 28 26  1  0  0  0  0
 30 29  1  0  0  0  0
 30 33  1  0  0  0  0
 31 30  2  0  0  0  0
 33 32  1  0  0  0  0
 35 34  1  0  0  0  0
 36 35  2  0  0  0  0
 37 35  1  0  0  0  0
M  END
>  <MODEL>
8

>  <REMARK>
 VINA RESULT:      -5.0      5.236      9.576
  Name = 
  11 active torsions:
  status: ('A' for Active; 'I' for Inactive)
    1  A    between atoms: C_1  and  C_5
    2  A    between atoms: C_1  and  C_36
    3  A    between atoms: C_5  and  C_23
    4  A    between atoms: C_6  and  C_31
    5  A    between atoms: C_11  and  C_33
    6  A    between atoms: C_18  and  C_19
    7  A    between atoms: C_20  and  O_32
    8  A    between atoms: C_21  and  O_32
    9  A    between atoms: C_27  and  C_36
   10  A    between atoms: C_29  and  C_36
   11  A    between atoms: C_33  and  C_36
                            x       y       z     vdW  Elec       q    Type
                         _______ _______ _______ _____ _____    ______ ____

>  <TORSDO>
F 11

$$$$
=
 OpenBabel11052415333D

 37 39  0  0  1  0  0  0  0  0999 V2000
  181.0590  175.9350  136.4220 C   0  0  0  0  0  2  0  0  0  0  0  0
  178.9310  177.1680  136.4570 C   0  0  0  0  0  1  0  0  0  0  0  0
  183.1430  177.1840  136.9830 C   0  0  0  0  0  0  0  0  0  0  0  0
  181.3340  180.3770  135.6060 O   0  0  0  0  0  0  0  0  0  0  0  0
  184.5330  177.3300  136.9520 C   0  0  0  0  0  3  0  0  0  0  0  0
  180.3980  177.2800  136.0900 C   0  0  1  0  0  0  0  0  0  0  0  0
  180.6540  179.7540  136.4620 C   0  0  0  0  0  0  0  0  0  0  0  0
  183.3390  175.0540  135.8440 C   0  0  0  0  0  3  0  0  0  0  0  0
  181.0260  178.4130  136.8160 N   0  0  0  0  0  0  0  0  0  0  0  0
  180.4980  177.4940  134.7130 O   0  0  0  0  0  1  0  0  0  0  0  0
  182.5460  176.0550  136.4120 C   0  0  0  0  0  0  0  0  0  0  0  0
  182.2720  178.2470  137.5940 C   0  0  1  0  0  3  0  0  0  0  0  0
  185.3370  176.3340  136.3770 C   0  0  0  0  0  0  0  0  0  0  0  0
  184.7290  175.1930  135.8290 C   0  0  0  0  0  3  0  0  0  0  0  0
  187.4750  175.9210  135.4460 O   0  0  0  0  0  0  0  0  0  0  0  0
  186.8020  176.4810  136.3540 C   0  0  0  0  0  0  0  0  0  0  0  0
  187.4560  177.2520  137.3720 N   0  0  0  0  0  2  0  0  0  0  0  0
  188.8610  177.5250  137.4270 C   0  0  0  0  0  0  0  0  0  0  0  0
  189.6300  177.1590  136.4980 O   0  0  0  0  0  0  0  0  0  0  0  0
  188.4460  178.2270  139.7460 C   0  0  0  0  0  1  0  0  0  0  0  0
  189.4130  178.2860  138.5800 C   0  0  0  0  0  2  0  0  0  0  0  0
  179.5560  180.3860  137.0490 O   0  0  0  0  0  0  0  0  0  0  0  0
  180.4100  182.3050  138.1910 C   0  0  0  0  0  2  0  0  0  0  0  0
  179.4470  181.7980  137.1390 C   0  0  0  0  0  3  0  0  0  0  0  0
  178.9410  182.1700  138.5180 C   0  0  0  0  0  2  0  0  0  0  0  0
  182.0160  178.1410  139.1330 C   0  0  1  0  0  0  0  0  0  0  0  0
  181.7520  175.6650  139.8400 C   0  0  0  0  0  1  0  0  0  0  0  0
  182.6660  176.8840  139.7620 C   0  0  0  0  0  2  0  0  0  0  0  0
  182.6430  179.3810  139.8010 C   0  0  0  0  0  2  0  0  0  0  0  0
  184.1330  179.3100  139.9940 C   0  0  0  0  0  0  0  0  0  0  0  0
  184.8880  179.7820  139.1580 O   0  0  0  0  0  0  0  0  0  0  0  0
  185.8950  179.1910  141.5610 O   0  0  0  0  0  1  0  0  0  0  0  0
  184.6930  178.5970  141.1780 C   0  0  0  0  0  2  0  0  0  0  0  0
  180.4950  178.1550  139.4130 C   0  0  0  0  0  2  0  0  0  0  0  0
  180.1060  178.7990  140.7090 C   0  0  0  0  0  0  0  0  0  0  0  0
  179.5710  179.9370  140.7100 O   0  0  0  0  0  0  0  0  0  0  0  0
  180.3410  178.1260  141.9410 N   0  0  0  0  0  1  0  0  0  0  0  0
  3 12  1  0  0  0  0
  4  7  2  0  0  0  0
  5  3  1  0  0  0  0
  6  1  1  0  0  0  0
  6  2  1  1  0  0  0
  6  9  1  0  0  0  0
  7  9  1  0  0  0  0
  7 22  1  0  0  0  0
  8 11  1  0  0  0  0
  9 12  1  0  0  0  0
 10  6  1  0  0  0  0
 11  1  1  0  0  0  0
 11  3  2  0  0  0  0
 12 26  1  1  0  0  0
 13  5  2  0  0  0  0
 14  8  2  0  0  0  0
 14 13  1  0  0  0  0
 15 16  2  0  0  0  0
 16 13  1  0  0  0  0
 16 17  1  0  0  0  0
 17 18  1  0  0  0  0
 18 21  1  0  0  0  0
 19 18  2  0  0  0  0
 21 20  1  0  0  0  0
 22 24  1  0  0  0  0
 23 25  1  0  0  0  0
 24 23  1  0  0  0  0
 24 25  1  0  0  0  0
 26 34  1  1  0  0  0
 26 28  1  0  0  0  0
 26 29  1  0  0  0  0
 28 27  1  0  0  0  0
 29 30  1  0  0  0  0
 30 33  1  0  0  0  0
 31 30  2  0  0  0  0
 33 32  1  0  0  0  0
 34 35  1  0  0  0  0
 35 36  2  0  0  0  0
 35 37  1  0  0  0  0
M  END
>  <MODEL>
9

>  <REMARK>
 VINA RESULT:      -5.0      3.198      6.265
  Name = 
  11 active torsions:
  status: ('A' for Active; 'I' for Inactive)
    1  A    between atoms: C_1  and  C_5
    2  A    between atoms: C_1  and  C_36
    3  A    between atoms: C_5  and  C_23
    4  A    between atoms: C_6  and  C_31
    5  A    between atoms: C_11  and  C_33
    6  A    between atoms: C_18  and  C_19
    7  A    between atoms: C_20  and  O_32
    8  A    between atoms: C_21  and  O_32
    9  A    between atoms: C_27  and  C_36
   10  A    between atoms: C_29  and  C_36
   11  A    between atoms: C_33  and  C_36
                            x       y       z     vdW  Elec       q    Type
                         _______ _______ _______ _____ _____    ______ ____

>  <TORSDO>
F 11

$$$$
