=
 OpenBabel11052414443D

 32 34  0  0  1  0  0  0  0  0999 V2000
  188.4120  178.0870  141.6790 C   0  0  0  0  0  2  0  0  0  0  0  0
  189.7550  177.3710  141.8610 C   0  0  1  0  0  3  0  0  0  0  0  0
  187.4610  177.8650  142.7810 N   0  0  0  0  0  0  0  0  0  0  0  0
  188.1640  177.8040  144.0780 C   0  0  2  0  0  3  0  0  0  0  0  0
  189.1160  176.5950  144.1340 C   0  0  0  0  0  2  0  0  0  0  0  0
  189.6000  176.1550  142.7550 C   0  0  0  0  0  2  0  0  0  0  0  0
  188.0490  177.2440  147.6450 C   0  0  0  0  0  3  0  0  0  0  0  0
  187.1990  177.7020  145.2240 C   0  0  0  0  0  3  0  0  0  0  0  0
  188.8860  178.2570  148.3410 C   0  0  0  0  0  1  0  0  0  0  0  0
  187.6220  177.4720  146.4370 C   0  0  0  0  0  0  0  0  0  0  0  0
  186.5910  179.0370  142.7650 C   0  0  0  0  0  2  0  0  0  0  0  0
  185.2820  178.6840  142.1510 C   0  0  0  0  0  0  0  0  0  0  0  0
  181.2530  178.5680  138.8570 C   0  0  0  0  0  3  0  0  0  0  0  0
  184.5180  177.8760  142.7420 O   0  0  0  0  0  0  0  0  0  0  0  0
  183.4500  179.8180  138.9160 C   0  0  0  0  0  2  0  0  0  0  0  0
  183.6660  179.0880  140.2170 C   0  0  0  0  0  0  0  0  0  0  0  0
  184.9020  179.2920  140.9100 N   0  0  0  0  0  2  0  0  0  0  0  0
  182.7240  178.3530  140.7370 N   0  0  0  0  0  0  0  0  0  0  0  0
  182.2750  179.3220  138.2010 N   0  0  0  0  0  2  0  0  0  0  0  0
  181.4680  178.1120  140.0870 C   0  0  0  0  0  3  0  0  0  0  0  0
  190.4470  176.9080  140.2470 S   0  0  0  0  0  0  0  0  0  0  0  0
  189.4320  178.1170  139.3320 C   0  0  0  0  0  2  0  0  0  0  0  0
  188.9080  178.8710  136.9730 C   0  0  0  0  0  2  0  0  0  0  0  0
  190.2810  176.7660  137.2390 C   0  0  0  0  0  1  0  0  0  0  0  0
  189.2740  177.7150  137.8740 C   0  0  1  0  0  0  0  0  0  0  0  0
  187.8650  177.8100  137.3030 C   0  0  2  0  0  3  0  0  0  0  0  0
  187.7000  176.9520  136.2130 O   0  0  0  0  0  0  0  0  0  0  0  0
  186.5320  176.2390  136.4960 C   0  0  0  0  0  2  0  0  0  0  0  0
  187.8920  174.2760  136.3630 O   0  0  0  0  0  1  0  0  0  0  0  0
  186.8790  174.8900  137.1020 C   0  0  2  0  0  3  0  0  0  0  0  0
  185.6500  173.9940  137.1540 C   0  0  0  0  0  2  0  0  0  0  0  0
  185.8640  172.9080  138.0060 O   0  0  0  0  0  1  0  0  0  0  0  0
  1  2  1  0  0  0  0
  1  3  1  0  0  0  0
  2 21  1  6  0  0  0
  2  6  1  0  0  0  0
  3  4  1  0  0  0  0
  4  5  1  0  0  0  0
  4  8  1  1  0  0  0
  6  5  1  0  0  0  0
  7  9  1  0  0  0  0
  8 10  2  0  0  0  0
 10  7  2  0  0  0  0
 11  3  1  0  0  0  0
 12 14  2  0  0  0  0
 12 11  1  0  0  0  0
 13 20  2  0  0  0  0
 15 16  1  0  0  0  0
 16 18  2  0  0  0  0
 16 17  1  0  0  0  0
 17 12  1  0  0  0  0
 19 13  1  0  0  0  0
 19 15  1  0  0  0  0
 20 18  1  0  0  0  0
 22 21  1  0  0  0  0
 23 26  1  0  0  0  0
 23 25  1  0  0  0  0
 25 24  1  6  0  0  0
 25 22  1  0  0  0  0
 26 27  1  6  0  0  0
 26 25  1  0  0  0  0
 27 28  1  0  0  0  0
 28 30  1  0  0  0  0
 30 29  1  6  0  0  0
 30 31  1  0  0  0  0
 31 32  1  0  0  0  0
M  END
>  <MODEL>
1

>  <REMARK>
 VINA RESULT:      -7.0      0.000      0.000
  Name = 
  10 active torsions:
  status: ('A' for Active; 'I' for Inactive)
    1  A    between atoms: C_2  and  N_5
    2  A    between atoms: C_2  and  C_6
    3  A    between atoms: C_4  and  S_27
    4  A    between atoms: O_7  and  C_19
    5  A    between atoms: O_7  and  C_26
    6  A    between atoms: C_8  and  C_19
    7  A    between atoms: C_8  and  C_22
    8  A    between atoms: C_14  and  C_18
    9  A    between atoms: C_20  and  C_24
   10  A    between atoms: C_24  and  S_27
                            x       y       z     vdW  Elec       q    Type
                         _______ _______ _______ _____ _____    ______ ____

>  <TORSDO>
F 10

$$$$
=
 OpenBabel11052414443D

 32 34  0  0  1  0  0  0  0  0999 V2000
  187.8870  178.1630  141.7680 C   0  0  0  0  0  2  0  0  0  0  0  0
  189.2600  177.4830  141.8120 C   0  0  1  0  0  3  0  0  0  0  0  0
  187.0450  177.8870  142.9450 N   0  0  0  0  0  0  0  0  0  0  0  0
  187.8620  177.8160  144.1720 C   0  0  2  0  0  3  0  0  0  0  0  0
  188.8480  176.6350  144.1120 C   0  0  0  0  0  2  0  0  0  0  0  0
  189.2180  176.2420  142.6840 C   0  0  0  0  0  2  0  0  0  0  0  0
  188.0860  177.2210  147.7280 C   0  0  0  0  0  3  0  0  0  0  0  0
  187.0070  177.6590  145.3960 C   0  0  0  0  0  3  0  0  0  0  0  0
  188.9340  178.2660  148.3610 C   0  0  0  0  0  1  0  0  0  0  0  0
  187.5450  177.4390  146.5640 C   0  0  0  0  0  0  0  0  0  0  0  0
  186.1450  179.0330  143.0370 C   0  0  0  0  0  2  0  0  0  0  0  0
  184.8650  178.7250  142.3420 C   0  0  0  0  0  0  0  0  0  0  0  0
  181.1360  178.5800  138.7130 C   0  0  0  0  0  3  0  0  0  0  0  0
  183.9800  178.0580  142.9400 O   0  0  0  0  0  0  0  0  0  0  0  0
  183.4290  179.6360  138.8460 C   0  0  0  0  0  2  0  0  0  0  0  0
  183.4640  179.0430  140.2330 C   0  0  0  0  0  0  0  0  0  0  0  0
  184.6510  179.2180  141.0140 N   0  0  0  0  0  2  0  0  0  0  0  0
  182.4150  178.4550  140.7360 N   0  0  0  0  0  0  0  0  0  0  0  0
  182.2780  179.1640  138.0800 N   0  0  0  0  0  2  0  0  0  0  0  0
  181.2020  178.2500  139.9990 C   0  0  0  0  0  3  0  0  0  0  0  0
  189.8160  177.0780  140.1310 S   0  0  0  0  0  0  0  0  0  0  0  0
  188.9550  178.4980  139.3760 C   0  0  0  0  0  2  0  0  0  0  0  0
  186.8740  178.0120  138.0190 C   0  0  0  0  0  2  0  0  0  0  0  0
  188.9130  178.8200  136.7650 C   0  0  0  0  0  1  0  0  0  0  0  0
  188.3790  178.1360  138.0160 C   0  0  1  0  0  0  0  0  0  0  0  0
  187.7360  176.7610  137.9060 C   0  0  2  0  0  3  0  0  0  0  0  0
  187.7360  176.3030  136.5860 O   0  0  0  0  0  0  0  0  0  0  0  0
  188.2670  175.0130  136.6570 C   0  0  0  0  0  2  0  0  0  0  0  0
  189.9380  174.8770  134.9520 O   0  0  0  0  0  1  0  0  0  0  0  0
  189.7490  175.0390  136.3260 C   0  0  2  0  0  3  0  0  0  0  0  0
  190.4880  173.9500  137.0890 C   0  0  0  0  0  2  0  0  0  0  0  0
  191.3540  174.5060  138.0330 O   0  0  0  0  0  1  0  0  0  0  0  0
  1  2  1  0  0  0  0
  1  3  1  0  0  0  0
  2 21  1  6  0  0  0
  2  6  1  0  0  0  0
  3 11  1  0  0  0  0
  3  4  1  0  0  0  0
  4  8  1  1  0  0  0
  5  4  1  0  0  0  0
  6  5  1  0  0  0  0
  7  9  1  0  0  0  0
  8 10  2  0  0  0  0
 10  7  2  0  0  0  0
 12 14  2  0  0  0  0
 12 11  1  0  0  0  0
 13 20  2  0  0  0  0
 15 16  1  0  0  0  0
 16 18  2  0  0  0  0
 16 17  1  0  0  0  0
 17 12  1  0  0  0  0
 19 13  1  0  0  0  0
 19 15  1  0  0  0  0
 20 18  1  0  0  0  0
 22 21  1  0  0  0  0
 25 24  1  6  0  0  0
 25 23  1  0  0  0  0
 25 22  1  0  0  0  0
 26 27  1  6  0  0  0
 26 25  1  0  0  0  0
 26 23  1  0  0  0  0
 27 28  1  0  0  0  0
 30 29  1  6  0  0  0
 30 28  1  0  0  0  0
 30 31  1  0  0  0  0
 31 32  1  0  0  0  0
M  END
>  <MODEL>
2

>  <REMARK>
 VINA RESULT:      -6.9      1.187      1.720
  Name = 
  10 active torsions:
  status: ('A' for Active; 'I' for Inactive)
    1  A    between atoms: C_2  and  N_5
    2  A    between atoms: C_2  and  C_6
    3  A    between atoms: C_4  and  S_27
    4  A    between atoms: O_7  and  C_19
    5  A    between atoms: O_7  and  C_26
    6  A    between atoms: C_8  and  C_19
    7  A    between atoms: C_8  and  C_22
    8  A    between atoms: C_14  and  C_18
    9  A    between atoms: C_20  and  C_24
   10  A    between atoms: C_24  and  S_27
                            x       y       z     vdW  Elec       q    Type
                         _______ _______ _______ _____ _____    ______ ____

>  <TORSDO>
F 10

$$$$
=
 OpenBabel11052414443D

 32 34  0  0  1  0  0  0  0  0999 V2000
  187.5670  178.3650  141.2530 C   0  0  0  0  0  2  0  0  0  0  0  0
  188.8190  177.7010  141.8370 C   0  0  1  0  0  3  0  0  0  0  0  0
  186.3610  178.2010  142.0830 N   0  0  0  0  0  0  0  0  0  0  0  0
  186.6980  178.2560  143.5190 C   0  0  2  0  0  3  0  0  0  0  0  0
  187.6100  177.0810  143.9180 C   0  0  0  0  0  2  0  0  0  0  0  0
  188.4420  176.5520  142.7520 C   0  0  0  0  0  2  0  0  0  0  0  0
  185.6470  178.3500  146.9740 C   0  0  0  0  0  3  0  0  0  0  0  0
  185.4670  178.2140  144.3770 C   0  0  0  0  0  3  0  0  0  0  0  0
  186.1470  179.5930  147.6180 C   0  0  0  0  0  1  0  0  0  0  0  0
  185.5550  178.2810  145.6770 C   0  0  0  0  0  0  0  0  0  0  0  0
  185.5180  179.3440  141.7470 C   0  0  0  0  0  2  0  0  0  0  0  0
  184.7180  179.0390  140.5290 C   0  0  0  0  0  0  0  0  0  0  0  0
  181.5110  176.6300  137.2110 C   0  0  0  0  0  3  0  0  0  0  0  0
  184.7870  179.8090  139.5340 O   0  0  0  0  0  0  0  0  0  0  0  0
  182.3240  176.1360  139.5530 C   0  0  0  0  0  2  0  0  0  0  0  0
  183.1180  177.4080  139.3920 C   0  0  0  0  0  0  0  0  0  0  0  0
  183.9070  177.8580  140.4990 N   0  0  0  0  0  2  0  0  0  0  0  0
  183.1470  178.0390  138.2520 N   0  0  0  0  0  0  0  0  0  0  0  0
  181.3770  175.9410  138.4570 N   0  0  0  0  0  2  0  0  0  0  0  0
  182.3760  177.6350  137.1120 C   0  0  0  0  0  3  0  0  0  0  0  0
  189.9140  177.1370  140.5010 S   0  0  0  0  0  0  0  0  0  0  0  0
  189.3070  178.3840  139.3160 C   0  0  0  0  0  2  0  0  0  0  0  0
  188.7500  178.8200  136.8860 C   0  0  0  0  0  2  0  0  0  0  0  0
  190.3410  176.9220  137.3880 C   0  0  0  0  0  1  0  0  0  0  0  0
  189.2220  177.8150  137.9090 C   0  0  1  0  0  0  0  0  0  0  0  0
  187.8240  177.6910  137.3200 C   0  0  2  0  0  3  0  0  0  0  0  0
  187.7750  176.7100  136.3270 O   0  0  0  0  0  0  0  0  0  0  0  0
  186.6970  175.8960  136.6840 C   0  0  0  0  0  2  0  0  0  0  0  0
  188.3370  174.1850  136.3650 O   0  0  0  0  0  1  0  0  0  0  0  0
  187.1940  174.5210  137.0930 C   0  0  2  0  0  3  0  0  0  0  0  0
  186.1100  173.4730  136.8790 C   0  0  0  0  0  2  0  0  0  0  0  0
  185.6590  172.9710  138.1010 O   0  0  0  0  0  1  0  0  0  0  0  0
  1  2  1  0  0  0  0
  1  3  1  0  0  0  0
  2 21  1  6  0  0  0
  2  6  1  0  0  0  0
  3  4  1  0  0  0  0
  4  5  1  0  0  0  0
  4  8  1  1  0  0  0
  6  5  1  0  0  0  0
  7  9  1  0  0  0  0
  8 10  2  0  0  0  0
 10  7  2  0  0  0  0
 11  3  1  0  0  0  0
 12 11  1  0  0  0  0
 13 19  1  0  0  0  0
 14 12  2  0  0  0  0
 16 15  1  0  0  0  0
 16 17  1  0  0  0  0
 17 12  1  0  0  0  0
 18 16  2  0  0  0  0
 19 15  1  0  0  0  0
 20 13  2  0  0  0  0
 20 18  1  0  0  0  0
 22 21  1  0  0  0  0
 23 26  1  0  0  0  0
 23 25  1  0  0  0  0
 25 24  1  6  0  0  0
 25 22  1  0  0  0  0
 26 27  1  6  0  0  0
 26 25  1  0  0  0  0
 27 28  1  0  0  0  0
 28 30  1  0  0  0  0
 30 29  1  6  0  0  0
 31 30  1  0  0  0  0
 31 32  1  0  0  0  0
M  END
>  <MODEL>
3

>  <REMARK>
 VINA RESULT:      -6.8      1.596      1.904
  Name = 
  10 active torsions:
  status: ('A' for Active; 'I' for Inactive)
    1  A    between atoms: C_2  and  N_5
    2  A    between atoms: C_2  and  C_6
    3  A    between atoms: C_4  and  S_27
    4  A    between atoms: O_7  and  C_19
    5  A    between atoms: O_7  and  C_26
    6  A    between atoms: C_8  and  C_19
    7  A    between atoms: C_8  and  C_22
    8  A    between atoms: C_14  and  C_18
    9  A    between atoms: C_20  and  C_24
   10  A    between atoms: C_24  and  S_27
                            x       y       z     vdW  Elec       q    Type
                         _______ _______ _______ _____ _____    ______ ____

>  <TORSDO>
F 10

$$$$
=
 OpenBabel11052414443D

 32 34  0  0  1  0  0  0  0  0999 V2000
  186.2300  177.8920  142.8090 C   0  0  0  0  0  2  0  0  0  0  0  0
  184.9940  178.0640  143.6980 C   0  0  1  0  0  3  0  0  0  0  0  0
  187.5050  177.9040  143.5460 N   0  0  0  0  0  0  0  0  0  0  0  0
  187.3630  177.2340  144.8540 C   0  0  2  0  0  3  0  0  0  0  0  0
  186.3790  177.9960  145.7610 C   0  0  0  0  0  2  0  0  0  0  0  0
  185.3490  178.8030  144.9750 C   0  0  0  0  0  2  0  0  0  0  0  0
  189.0570  178.3140  147.8560 C   0  0  0  0  0  3  0  0  0  0  0  0
  188.6800  177.1280  145.5660 C   0  0  0  0  0  3  0  0  0  0  0  0
  188.2890  177.8770  149.0520 C   0  0  0  0  0  1  0  0  0  0  0  0
  188.8710  177.7220  146.7120 C   0  0  0  0  0  0  0  0  0  0  0  0
  188.4250  177.1350  142.7140 C   0  0  0  0  0  2  0  0  0  0  0  0
  188.5110  177.7480  141.3610 C   0  0  0  0  0  0  0  0  0  0  0  0
  189.0620  178.2700  136.2110 C   0  0  0  0  0  3  0  0  0  0  0  0
  188.4160  178.9980  141.2390 O   0  0  0  0  0  0  0  0  0  0  0  0
  189.1010  176.3040  137.8000 C   0  0  0  0  0  2  0  0  0  0  0  0
  188.8780  177.3460  138.8670 C   0  0  0  0  0  0  0  0  0  0  0  0
  188.7320  176.9060  140.2220 N   0  0  0  0  0  2  0  0  0  0  0  0
  188.8970  178.6160  138.5760 N   0  0  0  0  0  0  0  0  0  0  0  0
  188.9730  176.8630  136.4560 N   0  0  0  0  0  2  0  0  0  0  0  0
  189.0370  179.1120  137.2390 C   0  0  0  0  0  3  0  0  0  0  0  0
  183.6790  178.9280  142.7900 S   0  0  0  0  0  0  0  0  0  0  0  0
  184.6340  178.9990  141.2380 C   0  0  0  0  0  2  0  0  0  0  0  0
  184.3690  178.9700  138.7210 C   0  0  0  0  0  2  0  0  0  0  0  0
  183.2310  177.1320  140.0280 C   0  0  0  0  0  1  0  0  0  0  0  0
  183.7980  178.5440  140.0520 C   0  0  1  0  0  0  0  0  0  0  0  0
  183.1120  179.6450  139.2550 C   0  0  2  0  0  3  0  0  0  0  0  0
  181.9900  179.1600  138.5800 O   0  0  0  0  0  0  0  0  0  0  0  0
  180.9460  179.9990  138.9770 C   0  0  0  0  0  2  0  0  0  0  0  0
  180.0430  178.5070  140.6140 O   0  0  0  0  0  1  0  0  0  0  0  0
  180.6190  179.7680  140.4420 C   0  0  2  0  0  3  0  0  0  0  0  0
  179.6800  180.8480  140.9590 C   0  0  0  0  0  2  0  0  0  0  0  0
  179.6810  180.8790  142.3550 O   0  0  0  0  0  1  0  0  0  0  0  0
  1  3  1  0  0  0  0
  1  2  1  0  0  0  0
  2 21  1  6  0  0  0
  2  6  1  0  0  0  0
  3  4  1  0  0  0  0
  4  8  1  1  0  0  0
  4  5  1  0  0  0  0
  6  5  1  0  0  0  0
  7  9  1  0  0  0  0
  8 10  2  0  0  0  0
 10  7  2  0  0  0  0
 11  3  1  0  0  0  0
 12 11  1  0  0  0  0
 13 19  1  0  0  0  0
 13 20  2  0  0  0  0
 14 12  2  0  0  0  0
 15 16  1  0  0  0  0
 16 17  1  0  0  0  0
 17 12  1  0  0  0  0
 18 16  2  0  0  0  0
 19 15  1  0  0  0  0
 20 18  1  0  0  0  0
 22 21  1  0  0  0  0
 23 26  1  0  0  0  0
 23 25  1  0  0  0  0
 25 24  1  1  0  0  0
 25 22  1  0  0  0  0
 26 27  1  6  0  0  0
 26 25  1  0  0  0  0
 27 28  1  0  0  0  0
 28 30  1  0  0  0  0
 30 29  1  6  0  0  0
 30 31  1  0  0  0  0
 31 32  1  0  0  0  0
M  END
>  <MODEL>
4

>  <REMARK>
 VINA RESULT:      -6.8      3.352      6.036
  Name = 
  10 active torsions:
  status: ('A' for Active; 'I' for Inactive)
    1  A    between atoms: C_2  and  N_5
    2  A    between atoms: C_2  and  C_6
    3  A    between atoms: C_4  and  S_27
    4  A    between atoms: O_7  and  C_19
    5  A    between atoms: O_7  and  C_26
    6  A    between atoms: C_8  and  C_19
    7  A    between atoms: C_8  and  C_22
    8  A    between atoms: C_14  and  C_18
    9  A    between atoms: C_20  and  C_24
   10  A    between atoms: C_24  and  S_27
                            x       y       z     vdW  Elec       q    Type
                         _______ _______ _______ _____ _____    ______ ____

>  <TORSDO>
F 10

$$$$
=
 OpenBabel11052414443D

 32 34  0  0  1  0  0  0  0  0999 V2000
  188.4120  178.0460  141.6740 C   0  0  0  0  0  2  0  0  0  0  0  0
  189.7470  177.3350  141.9220 C   0  0  1  0  0  3  0  0  0  0  0  0
  187.4270  177.8640  142.7530 N   0  0  0  0  0  0  0  0  0  0  0  0
  188.0890  177.8470  144.0730 C   0  0  2  0  0  3  0  0  0  0  0  0
  189.0360  176.6390  144.2000 C   0  0  0  0  0  2  0  0  0  0  0  0
  189.5610  176.1510  142.8520 C   0  0  0  0  0  2  0  0  0  0  0  0
  187.8550  177.3310  147.6400 C   0  0  0  0  0  3  0  0  0  0  0  0
  187.0890  177.7860  145.1910 C   0  0  0  0  0  3  0  0  0  0  0  0
  188.7020  178.3260  148.3490 C   0  0  0  0  0  1  0  0  0  0  0  0
  187.4700  177.5570  146.4180 C   0  0  0  0  0  0  0  0  0  0  0  0
  186.5610  179.0360  142.6700 C   0  0  0  0  0  2  0  0  0  0  0  0
  185.2640  178.6600  142.0430 C   0  0  0  0  0  0  0  0  0  0  0  0
  181.2210  178.5460  138.7670 C   0  0  0  0  0  3  0  0  0  0  0  0
  184.5390  177.7900  142.5940 O   0  0  0  0  0  0  0  0  0  0  0  0
  183.3620  179.8840  138.8820 C   0  0  0  0  0  2  0  0  0  0  0  0
  183.6180  179.0960  140.1420 C   0  0  0  0  0  0  0  0  0  0  0  0
  184.8500  179.3160  140.8390 N   0  0  0  0  0  2  0  0  0  0  0  0
  182.7120  178.2950  140.6260 N   0  0  0  0  0  0  0  0  0  0  0  0
  182.2050  179.3770  138.1470 N   0  0  0  0  0  2  0  0  0  0  0  0
  181.4640  178.0350  139.9700 C   0  0  0  0  0  3  0  0  0  0  0  0
  190.4870  176.8150  140.3470 S   0  0  0  0  0  0  0  0  0  0  0  0
  189.1370  177.5220  139.3430 C   0  0  0  0  0  2  0  0  0  0  0  0
  188.8870  176.0080  137.3300 C   0  0  0  0  0  2  0  0  0  0  0  0
  189.1510  178.4830  136.8940 C   0  0  0  0  0  1  0  0  0  0  0  0
  189.3950  177.3290  137.8570 C   0  0  1  0  0  0  0  0  0  0  0  0
  190.3860  176.2350  137.4860 C   0  0  2  0  0  3  0  0  0  0  0  0
  190.9620  176.4730  136.2350 O   0  0  0  0  0  0  0  0  0  0  0  0
  192.0940  175.6550  136.2040 C   0  0  0  0  0  2  0  0  0  0  0  0
  193.8630  177.0010  137.0850 O   0  0  0  0  0  1  0  0  0  0  0  0
  192.9890  175.9570  137.3930 C   0  0  2  0  0  3  0  0  0  0  0  0
  193.7750  174.7190  137.8000 C   0  0  0  0  0  2  0  0  0  0  0  0
  195.0330  175.0700  138.2930 O   0  0  0  0  0  1  0  0  0  0  0  0
  1  2  1  0  0  0  0
  1  3  1  0  0  0  0
  2 21  1  6  0  0  0
  2  6  1  0  0  0  0
  3  4  1  0  0  0  0
  4  5  1  0  0  0  0
  4  8  1  1  0  0  0
  6  5  1  0  0  0  0
  7  9  1  0  0  0  0
  8 10  2  0  0  0  0
 10  7  2  0  0  0  0
 11  3  1  0  0  0  0
 12 14  2  0  0  0  0
 12 11  1  0  0  0  0
 13 20  2  0  0  0  0
 15 16  1  0  0  0  0
 16 18  2  0  0  0  0
 16 17  1  0  0  0  0
 17 12  1  0  0  0  0
 19 13  1  0  0  0  0
 19 15  1  0  0  0  0
 20 18  1  0  0  0  0
 22 21  1  0  0  0  0
 23 26  1  0  0  0  0
 23 25  1  0  0  0  0
 25 24  1  6  0  0  0
 25 22  1  0  0  0  0
 26 27  1  6  0  0  0
 26 25  1  0  0  0  0
 28 27  1  0  0  0  0
 28 30  1  0  0  0  0
 30 29  1  6  0  0  0
 30 31  1  0  0  0  0
 31 32  1  0  0  0  0
M  END
>  <MODEL>
5

>  <REMARK>
 VINA RESULT:      -6.8      2.086      3.075
  Name = 
  10 active torsions:
  status: ('A' for Active; 'I' for Inactive)
    1  A    between atoms: C_2  and  N_5
    2  A    between atoms: C_2  and  C_6
    3  A    between atoms: C_4  and  S_27
    4  A    between atoms: O_7  and  C_19
    5  A    between atoms: O_7  and  C_26
    6  A    between atoms: C_8  and  C_19
    7  A    between atoms: C_8  and  C_22
    8  A    between atoms: C_14  and  C_18
    9  A    between atoms: C_20  and  C_24
   10  A    between atoms: C_24  and  S_27
                            x       y       z     vdW  Elec       q    Type
                         _______ _______ _______ _____ _____    ______ ____

>  <TORSDO>
F 10

$$$$
=
 OpenBabel11052414443D

 32 34  0  0  1  0  0  0  0  0999 V2000
  186.1000  177.9730  142.9150 C   0  0  0  0  0  2  0  0  0  0  0  0
  184.8520  178.1570  143.7860 C   0  0  1  0  0  3  0  0  0  0  0  0
  187.3640  177.9890  143.6700 N   0  0  0  0  0  0  0  0  0  0  0  0
  187.2030  177.3330  144.9820 C   0  0  2  0  0  3  0  0  0  0  0  0
  186.2090  178.1060  145.8680 C   0  0  0  0  0  2  0  0  0  0  0  0
  185.1920  178.9080  145.0600 C   0  0  0  0  0  2  0  0  0  0  0  0
  188.8300  178.3660  148.0380 C   0  0  0  0  0  3  0  0  0  0  0  0
  188.5110  177.2310  145.7120 C   0  0  0  0  0  3  0  0  0  0  0  0
  188.0510  177.8860  149.2100 C   0  0  0  0  0  1  0  0  0  0  0  0
  188.6730  177.8000  146.8760 C   0  0  0  0  0  0  0  0  0  0  0  0
  188.2940  177.2090  142.8580 C   0  0  0  0  0  2  0  0  0  0  0  0
  188.4100  177.8160  141.5040 C   0  0  0  0  0  0  0  0  0  0  0  0
  189.0880  178.3150  136.3670 C   0  0  0  0  0  3  0  0  0  0  0  0
  188.3100  179.0640  141.3730 O   0  0  0  0  0  0  0  0  0  0  0  0
  189.0990  176.3580  137.9670 C   0  0  0  0  0  2  0  0  0  0  0  0
  188.8430  177.4040  139.0220 C   0  0  0  0  0  0  0  0  0  0  0  0
  188.6650  176.9700  140.3760 N   0  0  0  0  0  2  0  0  0  0  0  0
  188.8610  178.6720  138.7260 N   0  0  0  0  0  0  0  0  0  0  0  0
  189.0020  176.9100  136.6170 N   0  0  0  0  0  2  0  0  0  0  0  0
  189.0320  179.1630  137.3890 C   0  0  0  0  0  3  0  0  0  0  0  0
  183.5520  179.0150  142.8520 S   0  0  0  0  0  0  0  0  0  0  0  0
  184.3400  178.7010  141.2370 C   0  0  0  0  0  2  0  0  0  0  0  0
  181.9760  178.0580  140.6030 C   0  0  0  0  0  2  0  0  0  0  0  0
  183.1600  179.7270  139.1210 C   0  0  0  0  0  1  0  0  0  0  0  0
  183.3050  178.5940  140.1280 C   0  0  1  0  0  0  0  0  0  0  0  0
  182.8810  177.1840  139.7420 C   0  0  2  0  0  3  0  0  0  0  0  0
  182.3920  177.1400  138.4340 O   0  0  0  0  0  0  0  0  0  0  0  0
  183.3040  176.3400  137.7410 C   0  0  0  0  0  2  0  0  0  0  0  0
  183.2780  176.3640  135.3500 O   0  0  0  0  0  1  0  0  0  0  0  0
  183.7570  177.0420  136.4730 C   0  0  2  0  0  3  0  0  0  0  0  0
  185.2750  177.1320  136.4230 C   0  0  0  0  0  2  0  0  0  0  0  0
  185.7790  177.6690  137.6090 O   0  0  0  0  0  1  0  0  0  0  0  0
  1  3  1  0  0  0  0
  1  2  1  0  0  0  0
  2 21  1  6  0  0  0
  2  6  1  0  0  0  0
  3  4  1  0  0  0  0
  4  8  1  1  0  0  0
  4  5  1  0  0  0  0
  6  5  1  0  0  0  0
  7  9  1  0  0  0  0
  8 10  2  0  0  0  0
 10  7  2  0  0  0  0
 11  3  1  0  0  0  0
 12 11  1  0  0  0  0
 13 19  1  0  0  0  0
 13 20  2  0  0  0  0
 14 12  2  0  0  0  0
 15 16  1  0  0  0  0
 16 17  1  0  0  0  0
 17 12  1  0  0  0  0
 18 16  2  0  0  0  0
 19 15  1  0  0  0  0
 20 18  1  0  0  0  0
 22 21  1  0  0  0  0
 25 24  1  6  0  0  0
 25 23  1  0  0  0  0
 25 22  1  0  0  0  0
 26 27  1  6  0  0  0
 26 25  1  0  0  0  0
 26 23  1  0  0  0  0
 28 27  1  0  0  0  0
 30 29  1  6  0  0  0
 30 28  1  0  0  0  0
 31 30  1  0  0  0  0
 31 32  1  0  0  0  0
M  END
>  <MODEL>
6

>  <REMARK>
 VINA RESULT:      -6.7      2.863      5.174
  Name = 
  10 active torsions:
  status: ('A' for Active; 'I' for Inactive)
    1  A    between atoms: C_2  and  N_5
    2  A    between atoms: C_2  and  C_6
    3  A    between atoms: C_4  and  S_27
    4  A    between atoms: O_7  and  C_19
    5  A    between atoms: O_7  and  C_26
    6  A    between atoms: C_8  and  C_19
    7  A    between atoms: C_8  and  C_22
    8  A    between atoms: C_14  and  C_18
    9  A    between atoms: C_20  and  C_24
   10  A    between atoms: C_24  and  S_27
                            x       y       z     vdW  Elec       q    Type
                         _______ _______ _______ _____ _____    ______ ____

>  <TORSDO>
F 10

$$$$
=
 OpenBabel11052414443D

 32 34  0  0  1  0  0  0  0  0999 V2000
  184.0750  178.4600  139.3850 C   0  0  0  0  0  2  0  0  0  0  0  0
  182.6330  178.0850  139.7400 C   0  0  1  0  0  3  0  0  0  0  0  0
  184.7200  177.5340  138.4390 N   0  0  0  0  0  0  0  0  0  0  0  0
  183.7520  177.0480  137.4360 C   0  0  2  0  0  3  0  0  0  0  0  0
  182.6380  176.2170  138.1010 C   0  0  0  0  0  2  0  0  0  0  0  0
  182.4050  176.5960  139.5610 C   0  0  0  0  0  2  0  0  0  0  0  0
  185.6740  174.0140  137.0510 C   0  0  0  0  0  3  0  0  0  0  0  0
  184.4180  176.2010  136.3910 C   0  0  0  0  0  3  0  0  0  0  0  0
  184.9160  172.8630  137.6100 C   0  0  0  0  0  1  0  0  0  0  0  0
  185.0480  175.1060  136.7200 C   0  0  0  0  0  0  0  0  0  0  0  0
  185.7400  178.3350  137.7680 C   0  0  0  0  0  2  0  0  0  0  0  0
  187.0870  177.9630  138.2780 C   0  0  0  0  0  0  0  0  0  0  0  0
  191.1590  177.3550  141.4640 C   0  0  0  0  0  3  0  0  0  0  0  0
  187.9230  177.4370  137.4950 O   0  0  0  0  0  0  0  0  0  0  0  0
  188.8430  178.3330  141.7260 C   0  0  0  0  0  2  0  0  0  0  0  0
  188.6830  177.9780  140.2690 C   0  0  0  0  0  0  0  0  0  0  0  0
  187.4210  178.2370  139.6440 N   0  0  0  0  0  2  0  0  0  0  0  0
  189.6890  177.5210  139.5780 N   0  0  0  0  0  0  0  0  0  0  0  0
  190.0740  177.7840  142.2910 N   0  0  0  0  0  2  0  0  0  0  0  0
  190.9730  177.2410  140.1520 C   0  0  0  0  0  3  0  0  0  0  0  0
  182.2470  178.6020  141.4380 S   0  0  0  0  0  0  0  0  0  0  0  0
  183.9280  178.2550  142.0540 C   0  0  0  0  0  2  0  0  0  0  0  0
  185.1230  179.8920  143.5690 C   0  0  0  0  0  2  0  0  0  0  0  0
  182.9000  178.9890  144.3620 C   0  0  0  0  0  1  0  0  0  0  0  0
  184.1160  178.7710  143.4720 C   0  0  1  0  0  0  0  0  0  0  0  0
  185.4760  178.5090  144.1040 C   0  0  2  0  0  3  0  0  0  0  0  0
  185.3950  178.5060  145.4990 O   0  0  0  0  0  0  0  0  0  0  0  0
  186.1780  177.4200  145.8980 C   0  0  0  0  0  2  0  0  0  0  0  0
  188.4460  177.1540  145.1860 O   0  0  0  0  0  1  0  0  0  0  0  0
  187.6240  177.8540  146.0700 C   0  0  2  0  0  3  0  0  0  0  0  0
  188.0830  177.6280  147.5040 C   0  0  0  0  0  2  0  0  0  0  0  0
  187.6190  178.6460  148.3390 O   0  0  0  0  0  1  0  0  0  0  0  0
  1  2  1  0  0  0  0
  2 21  1  1  0  0  0
  3  1  1  0  0  0  0
  4  8  1  6  0  0  0
  4  5  1  0  0  0  0
  4  3  1  0  0  0  0
  5  6  1  0  0  0  0
  6  2  1  0  0  0  0
  7  9  1  0  0  0  0
  8 10  2  0  0  0  0
 10  7  2  0  0  0  0
 11 12  1  0  0  0  0
 11  3  1  0  0  0  0
 12 17  1  0  0  0  0
 13 19  1  0  0  0  0
 14 12  2  0  0  0  0
 15 19  1  0  0  0  0
 16 15  1  0  0  0  0
 17 16  1  0  0  0  0
 18 20  1  0  0  0  0
 18 16  2  0  0  0  0
 20 13  2  0  0  0  0
 21 22  1  0  0  0  0
 22 25  1  0  0  0  0
 23 26  1  0  0  0  0
 25 23  1  0  0  0  0
 25 26  1  0  0  0  0
 25 24  1  1  0  0  0
 26 27  1  1  0  0  0
 27 28  1  0  0  0  0
 28 30  1  0  0  0  0
 30 29  1  6  0  0  0
 30 31  1  0  0  0  0
 31 32  1  0  0  0  0
M  END
>  <MODEL>
7

>  <REMARK>
 VINA RESULT:      -6.6      2.834      8.478
  Name = 
  10 active torsions:
  status: ('A' for Active; 'I' for Inactive)
    1  A    between atoms: C_2  and  N_5
    2  A    between atoms: C_2  and  C_6
    3  A    between atoms: C_4  and  S_27
    4  A    between atoms: O_7  and  C_19
    5  A    between atoms: O_7  and  C_26
    6  A    between atoms: C_8  and  C_19
    7  A    between atoms: C_8  and  C_22
    8  A    between atoms: C_14  and  C_18
    9  A    between atoms: C_20  and  C_24
   10  A    between atoms: C_24  and  S_27
                            x       y       z     vdW  Elec       q    Type
                         _______ _______ _______ _____ _____    ______ ____

>  <TORSDO>
F 10

$$$$
=
 OpenBabel11052414443D

 32 34  0  0  1  0  0  0  0  0999 V2000
  187.5000  177.7100  138.4020 C   0  0  0  0  0  2  0  0  0  0  0  0
  187.0400  176.9420  137.1590 C   0  0  1  0  0  3  0  0  0  0  0  0
  188.6910  177.1380  139.0530 N   0  0  0  0  0  0  0  0  0  0  0  0
  189.6330  176.6040  138.0510 C   0  0  2  0  0  3  0  0  0  0  0  0
  189.0090  175.4290  137.2750 C   0  0  0  0  0  2  0  0  0  0  0  0
  187.4840  175.4930  137.2270 C   0  0  0  0  0  2  0  0  0  0  0  0
  192.8010  175.0650  137.2490 C   0  0  0  0  0  3  0  0  0  0  0  0
  190.9060  176.1290  138.6880 C   0  0  0  0  0  3  0  0  0  0  0  0
  193.5230  175.8910  136.2450 C   0  0  0  0  0  1  0  0  0  0  0  0
  191.8560  175.5950  137.9700 C   0  0  0  0  0  0  0  0  0  0  0  0
  189.3160  178.2620  139.7440 C   0  0  0  0  0  2  0  0  0  0  0  0
  189.0650  178.1550  141.2070 C   0  0  0  0  0  0  0  0  0  0  0  0
  189.7440  177.1200  146.2640 C   0  0  0  0  0  3  0  0  0  0  0  0
  187.9530  178.5190  141.6740 O   0  0  0  0  0  0  0  0  0  0  0  0
  191.1670  176.8250  144.1950 C   0  0  0  0  0  2  0  0  0  0  0  0
  189.9800  177.4080  143.4700 C   0  0  0  0  0  0  0  0  0  0  0  0
  190.0840  177.6130  142.0560 N   0  0  0  0  0  2  0  0  0  0  0  0
  188.8630  177.6450  144.0980 N   0  0  0  0  0  0  0  0  0  0  0  0
  191.0170  176.9140  145.6460 N   0  0  0  0  0  2  0  0  0  0  0  0
  188.7030  177.4620  145.5110 C   0  0  0  0  0  3  0  0  0  0  0  0
  185.2370  177.0610  136.9760 S   0  0  0  0  0  0  0  0  0  0  0  0
  185.0960  178.4850  138.1070 C   0  0  0  0  0  2  0  0  0  0  0  0
  183.1620  179.5420  139.3510 C   0  0  0  0  0  2  0  0  0  0  0  0
  183.1050  177.0360  139.0330 C   0  0  0  0  0  1  0  0  0  0  0  0
  183.9680  178.2880  139.1070 C   0  0  1  0  0  0  0  0  0  0  0  0
  184.1090  179.0290  140.4290 C   0  0  2  0  0  3  0  0  0  0  0  0
  183.3790  178.4040  141.4430 O   0  0  0  0  0  0  0  0  0  0  0  0
  184.2900  178.2410  142.4890 C   0  0  0  0  0  2  0  0  0  0  0  0
  182.4310  179.2470  143.6080 O   0  0  0  0  0  1  0  0  0  0  0  0
  183.6190  178.5430  143.8180 C   0  0  2  0  0  3  0  0  0  0  0  0
  184.5490  179.3420  144.7190 C   0  0  0  0  0  2  0  0  0  0  0  0
  184.3390  179.0160  146.0610 O   0  0  0  0  0  1  0  0  0  0  0  0
  1  3  1  0  0  0  0
  2 21  1  1  0  0  0
  2  6  1  0  0  0  0
  2  1  1  0  0  0  0
  3 11  1  0  0  0  0
  4  8  1  1  0  0  0
  4  3  1  0  0  0  0
  5  4  1  0  0  0  0
  6  5  1  0  0  0  0
  7 10  2  0  0  0  0
  9  7  1  0  0  0  0
 10  8  2  0  0  0  0
 11 12  1  0  0  0  0
 12 14  2  0  0  0  0
 12 17  1  0  0  0  0
 15 19  1  0  0  0  0
 16 18  2  0  0  0  0
 16 15  1  0  0  0  0
 17 16  1  0  0  0  0
 18 20  1  0  0  0  0
 19 13  1  0  0  0  0
 20 13  2  0  0  0  0
 21 22  1  0  0  0  0
 22 25  1  0  0  0  0
 23 26  1  0  0  0  0
 25 24  1  1  0  0  0
 25 23  1  0  0  0  0
 25 26  1  0  0  0  0
 26 27  1  1  0  0  0
 27 28  1  0  0  0  0
 28 30  1  0  0  0  0
 30 29  1  6  0  0  0
 30 31  1  0  0  0  0
 31 32  1  0  0  0  0
M  END
>  <MODEL>
8

>  <REMARK>
 VINA RESULT:      -6.5      3.258      7.777
  Name = 
  10 active torsions:
  status: ('A' for Active; 'I' for Inactive)
    1  A    between atoms: C_2  and  N_5
    2  A    between atoms: C_2  and  C_6
    3  A    between atoms: C_4  and  S_27
    4  A    between atoms: O_7  and  C_19
    5  A    between atoms: O_7  and  C_26
    6  A    between atoms: C_8  and  C_19
    7  A    between atoms: C_8  and  C_22
    8  A    between atoms: C_14  and  C_18
    9  A    between atoms: C_20  and  C_24
   10  A    between atoms: C_24  and  S_27
                            x       y       z     vdW  Elec       q    Type
                         _______ _______ _______ _____ _____    ______ ____

>  <TORSDO>
F 10

$$$$
=
 OpenBabel11052414443D

 32 34  0  0  1  0  0  0  0  0999 V2000
  184.9390  178.9690  141.1130 C   0  0  0  0  0  2  0  0  0  0  0  0
  184.0330  179.0730  142.3450 C   0  0  1  0  0  3  0  0  0  0  0  0
  184.2270  178.6110  139.8750 N   0  0  0  0  0  0  0  0  0  0  0  0
  182.8920  179.2420  139.8340 C   0  0  2  0  0  3  0  0  0  0  0  0
  181.9960  178.7120  140.9680 C   0  0  0  0  0  2  0  0  0  0  0  0
  182.7910  178.2180  142.1730 C   0  0  0  0  0  2  0  0  0  0  0  0
  180.4050  180.6480  137.6230 C   0  0  0  0  0  3  0  0  0  0  0  0
  182.2030  178.9890  138.5240 C   0  0  0  0  0  3  0  0  0  0  0  0
  180.7990  182.0280  137.2360 C   0  0  0  0  0  1  0  0  0  0  0  0
  181.3020  179.8170  138.0720 C   0  0  0  0  0  0  0  0  0  0  0  0
  185.0470  179.1610  138.7990 C   0  0  0  0  0  2  0  0  0  0  0  0
  186.1140  178.1900  138.4340 C   0  0  0  0  0  0  0  0  0  0  0  0
  190.7120  175.7550  138.2510 C   0  0  0  0  0  3  0  0  0  0  0  0
  185.8750  177.3000  137.5760 O   0  0  0  0  0  0  0  0  0  0  0  0
  189.8210  177.7520  139.5200 C   0  0  0  0  0  2  0  0  0  0  0  0
  188.5430  177.4780  138.7690 C   0  0  0  0  0  0  0  0  0  0  0  0
  187.4060  178.3050  139.0450 N   0  0  0  0  0  2  0  0  0  0  0  0
  188.4940  176.5660  137.8400 N   0  0  0  0  0  0  0  0  0  0  0  0
  190.8030  176.6860  139.3330 N   0  0  0  0  0  2  0  0  0  0  0  0
  189.5990  175.7090  137.5240 C   0  0  0  0  0  3  0  0  0  0  0  0
  184.9470  178.6000  143.8410 S   0  0  0  0  0  0  0  0  0  0  0  0
  186.4490  178.1310  142.9190 C   0  0  0  0  0  2  0  0  0  0  0  0
  186.8990  177.1250  145.1980 C   0  0  0  0  0  2  0  0  0  0  0  0
  188.0760  176.0850  143.2180 C   0  0  0  0  0  1  0  0  0  0  0  0
  187.4030  177.3250  143.7880 C   0  0  1  0  0  0  0  0  0  0  0  0
  188.0590  178.0790  144.9370 C   0  0  2  0  0  3  0  0  0  0  0  0
  189.2610  177.4780  145.3180 O   0  0  0  0  0  0  0  0  0  0  0  0
  190.2340  178.4540  145.0890 C   0  0  0  0  0  2  0  0  0  0  0  0
  191.1610  177.8790  142.9600 O   0  0  0  0  0  1  0  0  0  0  0  0
  191.4080  177.8540  144.3350 C   0  0  2  0  0  3  0  0  0  0  0  0
  191.6670  176.4260  144.7950 C   0  0  0  0  0  2  0  0  0  0  0  0
  191.5710  175.5360  143.7230 O   0  0  0  0  0  1  0  0  0  0  0  0
  1  2  1  0  0  0  0
  2 21  1  1  0  0  0
  3  1  1  0  0  0  0
  4  8  1  6  0  0  0
  4  3  1  0  0  0  0
  4  5  1  0  0  0  0
  5  6  1  0  0  0  0
  6  2  1  0  0  0  0
  7 10  2  0  0  0  0
  9  7  1  0  0  0  0
 10  8  2  0  0  0  0
 11  3  1  0  0  0  0
 12 11  1  0  0  0  0
 12 17  1  0  0  0  0
 13 19  1  0  0  0  0
 14 12  2  0  0  0  0
 16 17  1  0  0  0  0
 16 15  1  0  0  0  0
 18 16  2  0  0  0  0
 19 15  1  0  0  0  0
 20 18  1  0  0  0  0
 20 13  2  0  0  0  0
 22 25  1  0  0  0  0
 22 21  1  0  0  0  0
 25 24  1  6  0  0  0
 25 26  1  0  0  0  0
 25 23  1  0  0  0  0
 26 23  1  0  0  0  0
 26 27  1  1  0  0  0
 28 27  1  0  0  0  0
 30 29  1  6  0  0  0
 30 31  1  0  0  0  0
 30 28  1  0  0  0  0
 32 31  1  0  0  0  0
M  END
>  <MODEL>
9

>  <REMARK>
 VINA RESULT:      -6.5      3.154      7.947
  Name = 
  10 active torsions:
  status: ('A' for Active; 'I' for Inactive)
    1  A    between atoms: C_2  and  N_5
    2  A    between atoms: C_2  and  C_6
    3  A    between atoms: C_4  and  S_27
    4  A    between atoms: O_7  and  C_19
    5  A    between atoms: O_7  and  C_26
    6  A    between atoms: C_8  and  C_19
    7  A    between atoms: C_8  and  C_22
    8  A    between atoms: C_14  and  C_18
    9  A    between atoms: C_20  and  C_24
   10  A    between atoms: C_24  and  S_27
                            x       y       z     vdW  Elec       q    Type
                         _______ _______ _______ _____ _____    ______ ____

>  <TORSDO>
F 10

$$$$
