=
 OpenBabel11052413193D

 31 34  0  0  1  0  0  0  0  0999 V2000
  184.4730  178.8520  144.9110 C   0  0  0  0  0  0  0  0  0  0  0  0
  187.9720  177.5440  144.5100 C   0  0  0  0  0  0  0  0  0  0  0  0
  188.5320  177.5400  145.8150 C   0  0  0  0  0  0  0  0  0  0  0  0
  188.4000  177.9790  148.2080 C   0  0  0  0  0  3  0  0  0  0  0  0
  186.5710  177.9650  144.2110 C   0  0  0  0  0  0  0  0  0  0  0  0
  183.9170  178.6010  143.6560 C   0  0  0  0  0  3  0  0  0  0  0  0
  187.8230  177.9980  146.9370 C   0  0  0  0  0  3  0  0  0  0  0  0
  188.2750  177.1490  142.0160 C   0  0  2  0  0  3  0  0  0  0  0  0
  183.7700  179.3730  145.8160 O   0  0  0  0  0  0  0  0  0  0  0  0
  190.5580  176.5870  144.9350 N   0  0  0  0  0  0  0  0  0  0  0  0
  189.6980  177.5000  148.3780 C   0  0  0  0  0  3  0  0  0  0  0  0
  186.8500  177.1850  141.9230 O   0  0  0  0  0  0  0  0  0  0  0  0
  188.7620  177.0730  143.4390 C   0  0  0  0  0  0  0  0  0  0  0  0
  185.7690  178.5260  145.1600 N   0  0  0  0  0  0  0  0  0  0  0  0
  192.0570  176.4380  147.5440 Cl  0  0  0  0  0  0  0  0  0  0  0  0
  186.0460  177.7260  142.9290 C   0  0  1  0  0  3  0  0  0  0  0  0
  184.7120  178.0310  142.6620 C   0  0  0  0  0  3  0  0  0  0  0  0
  190.0490  176.5930  143.6790 C   0  0  0  0  0  3  0  0  0  0  0  0
  189.8510  177.0490  146.0000 C   0  0  0  0  0  0  0  0  0  0  0  0
  190.4250  177.0340  147.2820 C   0  0  0  0  0  0  0  0  0  0  0  0
  188.9070  178.3130  141.2420 C   0  0  0  0  0  2  0  0  0  0  0  0
  190.8370  177.2970  138.2950 O   0  0  0  0  0  0  0  0  0  0  0  0
  192.9770  177.2170  140.1460 C   0  0  0  0  0  1  0  0  0  0  0  0
  191.6010  177.5440  140.4810 N   0  0  0  0  0  2  0  0  0  0  0  0
  190.5690  177.5910  139.4920 C   0  0  0  0  0  0  0  0  0  0  0  0
  189.2280  177.9570  139.8620 N   0  0  0  0  0  0  0  0  0  0  0  0
  188.1140  177.6760  138.9640 C   0  0  0  0  0  2  0  0  0  0  0  0
  185.7540  178.4810  138.6000 C   0  0  0  0  0  0  0  0  0  0  0  0
  184.7810  179.4480  138.8130 O   0  0  0  0  0  1  0  0  0  0  0  0
  185.4790  177.4590  137.9160 O   0  0  0  0  0  0  0  0  0  0  0  0
  187.0550  178.6540  139.1580 N   0  0  0  0  0  2  0  0  0  0  0  0
  1 14  1  0  0  0  0
  1  9  2  0  0  0  0
  2  3  1  0  0  0  0
  3 19  2  0  0  0  0
  3  7  1  0  0  0  0
  4 11  1  0  0  0  0
  5  2  1  0  0  0  0
  5 14  2  0  0  0  0
  6  1  1  0  0  0  0
  7  4  2  0  0  0  0
  8 21  1  1  0  0  0
  8 13  1  0  0  0  0
 10 19  1  0  0  0  0
 12  8  1  0  0  0  0
 12 16  1  0  0  0  0
 13 18  1  0  0  0  0
 13  2  2  0  0  0  0
 16 17  1  1  0  0  0
 16  5  1  0  0  0  0
 17  6  2  0  0  0  0
 18 10  2  0  0  0  0
 19 20  1  0  0  0  0
 20 15  1  0  0  0  0
 20 11  2  0  0  0  0
 22 25  2  0  0  0  0
 23 24  1  0  0  0  0
 25 26  1  0  0  0  0
 25 24  1  0  0  0  0
 26 21  1  0  0  0  0
 27 31  1  0  0  0  0
 27 26  1  0  0  0  0
 28 29  1  0  0  0  0
 28 31  1  0  0  0  0
 30 28  2  0  0  0  0
M  END
>  <MODEL>
1

>  <REMARK>
 VINA RESULT:      -9.5      0.000      0.000
  Name = 
  4 active torsions:
  status: ('A' for Active; 'I' for Inactive)
    1  A    between atoms: C_6  and  N_22
    2  A    between atoms: C_6  and  N_24
    3  A    between atoms: C_15  and  C_23
    4  A    between atoms: N_22  and  C_23
                            x       y       z     vdW  Elec       q    Type
                         _______ _______ _______ _____ _____    ______ ____

>  <TORSDO>
F 4

$$$$
=
 OpenBabel11052413193D

 31 34  0  0  1  0  0  0  0  0999 V2000
  190.4830  176.7990  146.1420 C   0  0  0  0  0  0  0  0  0  0  0  0
  187.8710  177.9680  143.7060 C   0  0  0  0  0  0  0  0  0  0  0  0
  186.6780  178.1100  144.4620 C   0  0  0  0  0  0  0  0  0  0  0  0
  185.4280  177.9550  146.5470 C   0  0  0  0  0  3  0  0  0  0  0  0
  189.1790  177.5490  144.2920 C   0  0  0  0  0  0  0  0  0  0  0  0
  191.6570  176.9160  145.3960 C   0  0  0  0  0  3  0  0  0  0  0  0
  186.6150  177.8030  145.8300 C   0  0  0  0  0  3  0  0  0  0  0  0
  189.0350  178.0640  141.4470 C   0  0  2  0  0  3  0  0  0  0  0  0
  190.5330  176.4030  147.3350 O   0  0  0  0  0  0  0  0  0  0  0  0
  185.5380  178.9060  142.4990 N   0  0  0  0  0  0  0  0  0  0  0  0
  184.2800  178.4200  145.9060 C   0  0  0  0  0  3  0  0  0  0  0  0
  190.2650  178.0510  142.1740 O   0  0  0  0  0  0  0  0  0  0  0  0
  187.8390  178.2930  142.3330 C   0  0  0  0  0  0  0  0  0  0  0  0
  189.2850  177.1210  145.5820 N   0  0  0  0  0  0  0  0  0  0  0  0
  182.8440  179.3220  143.7820 Cl  0  0  0  0  0  0  0  0  0  0  0  0
  190.3420  177.6490  143.5090 C   0  0  1  0  0  3  0  0  0  0  0  0
  191.5810  177.3470  144.0730 C   0  0  0  0  0  3  0  0  0  0  0  0
  186.6620  178.7670  141.7540 C   0  0  0  0  0  3  0  0  0  0  0  0
  185.5060  178.5880  143.8200 C   0  0  0  0  0  0  0  0  0  0  0  0
  184.3130  178.7380  144.5480 C   0  0  0  0  0  0  0  0  0  0  0  0
  188.8930  176.8030  140.5840 C   0  0  0  0  0  2  0  0  0  0  0  0
  190.4560  177.2980  137.3050 O   0  0  0  0  0  0  0  0  0  0  0  0
  192.8290  176.6870  138.7230 C   0  0  0  0  0  1  0  0  0  0  0  0
  191.4960  176.7010  139.3010 N   0  0  0  0  0  2  0  0  0  0  0  0
  190.3390  177.0430  138.5340 C   0  0  0  0  0  0  0  0  0  0  0  0
  189.0420  177.0820  139.1580 N   0  0  0  0  0  0  0  0  0  0  0  0
  187.8340  177.0810  138.3430 C   0  0  0  0  0  2  0  0  0  0  0  0
  185.6380  178.3190  138.3570 C   0  0  0  0  0  0  0  0  0  0  0  0
  184.9270  179.4760  138.6420 O   0  0  0  0  0  1  0  0  0  0  0  0
  185.0400  177.3250  137.8640 O   0  0  0  0  0  0  0  0  0  0  0  0
  187.0380  178.2660  138.6250 N   0  0  0  0  0  2  0  0  0  0  0  0
  1  9  2  0  0  0  0
  2  5  1  0  0  0  0
  2  3  1  0  0  0  0
  3  7  1  0  0  0  0
  5 14  2  0  0  0  0
  6  1  1  0  0  0  0
  7  4  2  0  0  0  0
  8 21  1  1  0  0  0
  8 12  1  0  0  0  0
  8 13  1  0  0  0  0
 10 19  1  0  0  0  0
 11  4  1  0  0  0  0
 12 16  1  0  0  0  0
 13  2  2  0  0  0  0
 14  1  1  0  0  0  0
 15 20  1  0  0  0  0
 16 17  1  1  0  0  0
 16  5  1  0  0  0  0
 17  6  2  0  0  0  0
 18 13  1  0  0  0  0
 18 10  2  0  0  0  0
 19  3  2  0  0  0  0
 19 20  1  0  0  0  0
 20 11  2  0  0  0  0
 22 25  2  0  0  0  0
 23 24  1  0  0  0  0
 25 26  1  0  0  0  0
 25 24  1  0  0  0  0
 26 21  1  0  0  0  0
 27 31  1  0  0  0  0
 27 26  1  0  0  0  0
 28 31  1  0  0  0  0
 28 29  1  0  0  0  0
 30 28  2  0  0  0  0
M  END
>  <MODEL>
2

>  <REMARK>
 VINA RESULT:      -9.4      2.691      4.323
  Name = 
  4 active torsions:
  status: ('A' for Active; 'I' for Inactive)
    1  A    between atoms: C_6  and  N_22
    2  A    between atoms: C_6  and  N_24
    3  A    between atoms: C_15  and  C_23
    4  A    between atoms: N_22  and  C_23
                            x       y       z     vdW  Elec       q    Type
                         _______ _______ _______ _____ _____    ______ ____

>  <TORSDO>
F 4

$$$$
=
 OpenBabel11052413193D

 31 34  0  0  1  0  0  0  0  0999 V2000
  184.3880  178.8620  144.9280 C   0  0  0  0  0  0  0  0  0  0  0  0
  187.9000  177.5710  144.5910 C   0  0  0  0  0  0  0  0  0  0  0  0
  188.4450  177.5950  145.9020 C   0  0  0  0  0  0  0  0  0  0  0  0
  188.2830  178.0790  148.2840 C   0  0  0  0  0  3  0  0  0  0  0  0
  186.5000  177.9760  144.2680 C   0  0  0  0  0  0  0  0  0  0  0  0
  183.8480  178.5840  143.6710 C   0  0  0  0  0  3  0  0  0  0  0  0
  187.7210  178.0700  147.0070 C   0  0  0  0  0  3  0  0  0  0  0  0
  188.2340  177.1300  142.1090 C   0  0  2  0  0  3  0  0  0  0  0  0
  183.6720  179.3960  145.8150 O   0  0  0  0  0  0  0  0  0  0  0  0
  190.4870  176.6400  145.0630 N   0  0  0  0  0  0  0  0  0  0  0  0
  189.5820  177.6120  148.4780 C   0  0  0  0  0  3  0  0  0  0  0  0
  186.8090  177.1550  141.9990 O   0  0  0  0  0  0  0  0  0  0  0  0
  188.7050  177.0850  143.5380 C   0  0  0  0  0  0  0  0  0  0  0  0
  185.6840  178.5500  145.1970 N   0  0  0  0  0  0  0  0  0  0  0  0
  191.9570  176.5500  147.6910 Cl  0  0  0  0  0  0  0  0  0  0  0  0
  185.9910  177.7100  142.9850 C   0  0  1  0  0  3  0  0  0  0  0  0
  184.6570  178.0010  142.6980 C   0  0  0  0  0  3  0  0  0  0  0  0
  189.9930  176.6180  143.8020 C   0  0  0  0  0  3  0  0  0  0  0  0
  189.7650  177.1170  146.1110 C   0  0  0  0  0  0  0  0  0  0  0  0
  190.3250  177.1300  147.4000 C   0  0  0  0  0  0  0  0  0  0  0  0
  188.8660  178.2840  141.3190 C   0  0  0  0  0  2  0  0  0  0  0  0
  188.4800  177.6880  137.7220 O   0  0  0  0  0  0  0  0  0  0  0  0
  185.8530  178.6320  138.1940 C   0  0  0  0  0  1  0  0  0  0  0  0
  186.8950  178.5350  139.2020 N   0  0  0  0  0  2  0  0  0  0  0  0
  188.1970  178.0260  138.9040 C   0  0  0  0  0  0  0  0  0  0  0  0
  189.1850  177.9100  139.9440 N   0  0  0  0  0  0  0  0  0  0  0  0
  190.5920  177.7320  139.6050 C   0  0  0  0  0  2  0  0  0  0  0  0
  191.4300  175.8590  138.1410 C   0  0  0  0  0  0  0  0  0  0  0  0
  191.6780  174.5050  137.9690 O   0  0  0  0  0  1  0  0  0  0  0  0
  191.6960  176.6660  137.2100 O   0  0  0  0  0  0  0  0  0  0  0  0
  190.8760  176.3250  139.3710 N   0  0  0  0  0  2  0  0  0  0  0  0
  1 14  1  0  0  0  0
  1  9  2  0  0  0  0
  2  3  1  0  0  0  0
  3 19  2  0  0  0  0
  3  7  1  0  0  0  0
  4 11  1  0  0  0  0
  5  2  1  0  0  0  0
  5 14  2  0  0  0  0
  6  1  1  0  0  0  0
  7  4  2  0  0  0  0
  8 21  1  1  0  0  0
  8 13  1  0  0  0  0
 10 19  1  0  0  0  0
 12  8  1  0  0  0  0
 12 16  1  0  0  0  0
 13 18  1  0  0  0  0
 13  2  2  0  0  0  0
 16 17  1  1  0  0  0
 16  5  1  0  0  0  0
 17  6  2  0  0  0  0
 18 10  2  0  0  0  0
 19 20  1  0  0  0  0
 20 15  1  0  0  0  0
 20 11  2  0  0  0  0
 22 25  2  0  0  0  0
 23 24  1  0  0  0  0
 25 24  1  0  0  0  0
 25 26  1  0  0  0  0
 26 21  1  0  0  0  0
 27 26  1  0  0  0  0
 28 31  1  0  0  0  0
 29 28  1  0  0  0  0
 30 28  2  0  0  0  0
 31 27  1  0  0  0  0
M  END
>  <MODEL>
3

>  <REMARK>
 VINA RESULT:      -9.4      1.131      2.964
  Name = 
  4 active torsions:
  status: ('A' for Active; 'I' for Inactive)
    1  A    between atoms: C_6  and  N_22
    2  A    between atoms: C_6  and  N_24
    3  A    between atoms: C_15  and  C_23
    4  A    between atoms: N_22  and  C_23
                            x       y       z     vdW  Elec       q    Type
                         _______ _______ _______ _____ _____    ______ ____

>  <TORSDO>
F 4

$$$$
=
 OpenBabel11052413193D

 31 34  0  0  1  0  0  0  0  0999 V2000
  190.4530  176.8320  146.2380 C   0  0  0  0  0  0  0  0  0  0  0  0
  187.9150  177.9530  143.7040 C   0  0  0  0  0  0  0  0  0  0  0  0
  186.7000  178.1100  144.4220 C   0  0  0  0  0  0  0  0  0  0  0  0
  185.3890  177.9950  146.4720 C   0  0  0  0  0  3  0  0  0  0  0  0
  189.2040  177.5450  144.3370 C   0  0  0  0  0  0  0  0  0  0  0  0
  191.6490  176.9340  145.5250 C   0  0  0  0  0  3  0  0  0  0  0  0
  186.5970  177.8290  145.7930 C   0  0  0  0  0  3  0  0  0  0  0  0
  189.1440  178.0050  141.4780 C   0  0  2  0  0  3  0  0  0  0  0  0
  190.4690  176.4600  147.4390 O   0  0  0  0  0  0  0  0  0  0  0  0
  185.6180  178.8670  142.4110 N   0  0  0  0  0  0  0  0  0  0  0  0
  184.2610  178.4470  145.7890 C   0  0  0  0  0  3  0  0  0  0  0  0
  190.3520  178.0060  142.2410 O   0  0  0  0  0  0  0  0  0  0  0  0
  187.9230  178.2510  142.3240 C   0  0  0  0  0  0  0  0  0  0  0  0
  189.2730  177.1430  145.6370 N   0  0  0  0  0  0  0  0  0  0  0  0
  182.8880  179.3070  143.6060 Cl  0  0  0  0  0  0  0  0  0  0  0  0
  190.3900  177.6310  143.5860 C   0  0  1  0  0  3  0  0  0  0  0  0
  191.6120  177.3400  144.1920 C   0  0  0  0  0  3  0  0  0  0  0  0
  186.7630  178.7130  141.7030 C   0  0  0  0  0  3  0  0  0  0  0  0
  185.5470  178.5740  143.7370 C   0  0  0  0  0  0  0  0  0  0  0  0
  184.3340  178.7390  144.4260 C   0  0  0  0  0  0  0  0  0  0  0  0
  189.0270  176.7270  140.6370 C   0  0  0  0  0  2  0  0  0  0  0  0
  189.2570  177.4900  137.0580 O   0  0  0  0  0  0  0  0  0  0  0  0
  186.5270  178.1670  137.3740 C   0  0  0  0  0  1  0  0  0  0  0  0
  187.4000  177.7170  138.4440 N   0  0  0  0  0  2  0  0  0  0  0  0
  188.7670  177.3660  138.2140 C   0  0  0  0  0  0  0  0  0  0  0  0
  189.5850  176.8880  139.2970 N   0  0  0  0  0  0  0  0  0  0  0  0
  191.0370  176.8610  139.1660 C   0  0  0  0  0  2  0  0  0  0  0  0
  192.7070  175.4810  137.8790 C   0  0  0  0  0  0  0  0  0  0  0  0
  193.0630  174.2620  137.3190 O   0  0  0  0  0  0  0  0  0  0  0  0
  193.4860  176.4660  137.7760 O   0  0  0  0  0  1  0  0  0  0  0  0
  191.4630  175.6070  138.5650 N   0  0  0  0  0  2  0  0  0  0  0  0
  1  9  2  0  0  0  0
  2  5  1  0  0  0  0
  2  3  1  0  0  0  0
  3  7  1  0  0  0  0
  5 14  2  0  0  0  0
  6  1  1  0  0  0  0
  7  4  2  0  0  0  0
  8 21  1  1  0  0  0
  8 12  1  0  0  0  0
  8 13  1  0  0  0  0
 10 19  1  0  0  0  0
 11  4  1  0  0  0  0
 12 16  1  0  0  0  0
 13  2  2  0  0  0  0
 14  1  1  0  0  0  0
 15 20  1  0  0  0  0
 16 17  1  1  0  0  0
 16  5  1  0  0  0  0
 17  6  2  0  0  0  0
 18 13  1  0  0  0  0
 18 10  2  0  0  0  0
 19  3  2  0  0  0  0
 19 20  1  0  0  0  0
 20 11  2  0  0  0  0
 22 25  2  0  0  0  0
 23 24  1  0  0  0  0
 25 24  1  0  0  0  0
 25 26  1  0  0  0  0
 26 21  1  0  0  0  0
 27 26  1  0  0  0  0
 28 31  1  0  0  0  0
 29 28  2  0  0  0  0
 30 28  1  0  0  0  0
 31 27  1  0  0  0  0
M  END
>  <MODEL>
4

>  <REMARK>
 VINA RESULT:      -9.3      3.019      5.428
  Name = 
  4 active torsions:
  status: ('A' for Active; 'I' for Inactive)
    1  A    between atoms: C_6  and  N_22
    2  A    between atoms: C_6  and  N_24
    3  A    between atoms: C_15  and  C_23
    4  A    between atoms: N_22  and  C_23
                            x       y       z     vdW  Elec       q    Type
                         _______ _______ _______ _____ _____    ______ ____

>  <TORSDO>
F 4

$$$$
=
 OpenBabel11052413193D

 31 34  0  0  1  0  0  0  0  0999 V2000
  189.5310  177.0090  140.4370 C   0  0  0  0  0  0  0  0  0  0  0  0
  186.6940  178.1990  142.5960 C   0  0  0  0  0  0  0  0  0  0  0  0
  187.1040  177.9580  143.9340 C   0  0  0  0  0  0  0  0  0  0  0  0
  188.7080  177.1320  145.5710 C   0  0  0  0  0  3  0  0  0  0  0  0
  187.5430  177.9010  141.4030 C   0  0  0  0  0  0  0  0  0  0  0  0
  189.1680  177.4920  139.1790 C   0  0  0  0  0  3  0  0  0  0  0  0
  188.3320  177.3530  144.2450 C   0  0  0  0  0  3  0  0  0  0  0  0
  184.8920  178.9900  140.9860 C   0  0  2  0  0  3  0  0  0  0  0  0
  190.6100  176.3780  140.5800 O   0  0  0  0  0  0  0  0  0  0  0  0
  185.0610  178.9470  144.7290 N   0  0  0  0  0  0  0  0  0  0  0  0
  187.8600  177.5140  146.6100 C   0  0  0  0  0  3  0  0  0  0  0  0
  185.9190  179.0380  139.9920 O   0  0  0  0  0  0  0  0  0  0  0  0
  185.4390  178.8040  142.3760 C   0  0  0  0  0  0  0  0  0  0  0  0
  188.7230  177.2270  141.5090 N   0  0  0  0  0  0  0  0  0  0  0  0
  185.6000  178.5880  147.6710 Cl  0  0  0  0  0  0  0  0  0  0  0  0
  187.1390  178.3750  140.1430 C   0  0  1  0  0  3  0  0  0  0  0  0
  187.9650  178.1820  139.0360 C   0  0  0  0  0  3  0  0  0  0  0  0
  184.6430  179.1760  143.4600 C   0  0  0  0  0  3  0  0  0  0  0  0
  186.2500  178.3480  144.9980 C   0  0  0  0  0  0  0  0  0  0  0  0
  186.6350  178.1210  146.3310 C   0  0  0  0  0  0  0  0  0  0  0  0
  183.8290  177.9430  140.6280 C   0  0  0  0  0  2  0  0  0  0  0  0
  181.8510  178.7070  137.6370 O   0  0  0  0  0  0  0  0  0  0  0  0
  183.8200  177.1330  136.3490 C   0  0  0  0  0  1  0  0  0  0  0  0
  183.7700  177.3960  137.7770 N   0  0  0  0  0  2  0  0  0  0  0  0
  182.7610  178.2210  138.3630 C   0  0  0  0  0  0  0  0  0  0  0  0
  182.7740  178.4870  139.7770 N   0  0  0  0  0  0  0  0  0  0  0  0
  181.5880  179.0200  140.4360 C   0  0  0  0  0  2  0  0  0  0  0  0
  180.8750  179.2070  142.8470 C   0  0  0  0  0  0  0  0  0  0  0  0
  180.7940  178.6390  144.1100 O   0  0  0  0  0  1  0  0  0  0  0  0
  180.4220  180.3670  142.6540 O   0  0  0  0  0  0  0  0  0  0  0  0
  181.4720  178.4730  141.7790 N   0  0  0  0  0  2  0  0  0  0  0  0
  1  9  2  0  0  0  0
  1 14  1  0  0  0  0
  2  3  1  0  0  0  0
  3  7  2  0  0  0  0
  3 19  1  0  0  0  0
  4 11  2  0  0  0  0
  5 14  2  0  0  0  0
  5  2  1  0  0  0  0
  6  1  1  0  0  0  0
  7  4  1  0  0  0  0
  8 21  1  6  0  0  0
  8 13  1  0  0  0  0
 10 19  1  0  0  0  0
 12 16  1  0  0  0  0
 12  8  1  0  0  0  0
 13  2  2  0  0  0  0
 13 18  1  0  0  0  0
 16 17  1  1  0  0  0
 16  5  1  0  0  0  0
 17  6  2  0  0  0  0
 18 10  2  0  0  0  0
 19 20  2  0  0  0  0
 20 11  1  0  0  0  0
 20 15  1  0  0  0  0
 22 25  2  0  0  0  0
 23 24  1  0  0  0  0
 24 25  1  0  0  0  0
 25 26  1  0  0  0  0
 26 27  1  0  0  0  0
 26 21  1  0  0  0  0
 27 31  1  0  0  0  0
 28 29  1  0  0  0  0
 30 28  2  0  0  0  0
 31 28  1  0  0  0  0
M  END
>  <MODEL>
5

>  <REMARK>
 VINA RESULT:      -8.9      2.764      5.899
  Name = 
  4 active torsions:
  status: ('A' for Active; 'I' for Inactive)
    1  A    between atoms: C_6  and  N_22
    2  A    between atoms: C_6  and  N_24
    3  A    between atoms: C_15  and  C_23
    4  A    between atoms: N_22  and  C_23
                            x       y       z     vdW  Elec       q    Type
                         _______ _______ _______ _____ _____    ______ ____

>  <TORSDO>
F 4

$$$$
=
 OpenBabel11052413193D

 31 34  0  0  1  0  0  0  0  0999 V2000
  190.6590  176.9120  145.0610 C   0  0  0  0  0  0  0  0  0  0  0  0
  187.6820  178.0900  143.0940 C   0  0  0  0  0  0  0  0  0  0  0  0
  186.6170  178.1830  144.0280 C   0  0  0  0  0  0  0  0  0  0  0  0
  185.7060  177.9390  146.2740 C   0  0  0  0  0  3  0  0  0  0  0  0
  189.0720  177.6850  143.4590 C   0  0  0  0  0  0  0  0  0  0  0  0
  191.7020  177.0770  144.1480 C   0  0  0  0  0  3  0  0  0  0  0  0
  186.7720  177.8350  145.3790 C   0  0  0  0  0  3  0  0  0  0  0  0
  188.4820  178.2780  140.6870 C   0  0  2  0  0  3  0  0  0  0  0  0
  190.9000  176.4830  146.2190 O   0  0  0  0  0  0  0  0  0  0  0  0
  185.1740  179.0090  142.2900 N   0  0  0  0  0  0  0  0  0  0  0  0
  184.4650  178.3960  145.8320 C   0  0  0  0  0  3  0  0  0  0  0  0
  189.8090  178.2730  141.2160 O   0  0  0  0  0  0  0  0  0  0  0  0
  187.4330  178.4540  141.7530 C   0  0  0  0  0  0  0  0  0  0  0  0
  189.3840  177.2220  144.7030 N   0  0  0  0  0  0  0  0  0  0  0  0
  182.7030  179.3260  143.9840 Cl  0  0  0  0  0  0  0  0  0  0  0  0
  190.0980  177.8350  142.5100 C   0  0  1  0  0  3  0  0  0  0  0  0
  191.4150  177.5450  142.8670 C   0  0  0  0  0  3  0  0  0  0  0  0
  186.1720  178.9170  141.3780 C   0  0  0  0  0  3  0  0  0  0  0  0
  185.3520  178.6520  143.5890 C   0  0  0  0  0  0  0  0  0  0  0  0
  184.2830  178.7540  144.4960 C   0  0  0  0  0  0  0  0  0  0  0  0
  188.2320  177.0400  139.8160 C   0  0  0  0  0  2  0  0  0  0  0  0
  187.0880  177.9390  136.4510 O   0  0  0  0  0  0  0  0  0  0  0  0
  184.5570  178.0640  137.7140 C   0  0  0  0  0  1  0  0  0  0  0  0
  185.8080  177.7610  138.3880 N   0  0  0  0  0  2  0  0  0  0  0  0
  187.0520  177.6890  137.6870 C   0  0  0  0  0  0  0  0  0  0  0  0
  188.2610  177.3460  138.3890 N   0  0  0  0  0  0  0  0  0  0  0  0
  189.5610  177.6050  137.7830 C   0  0  0  0  0  2  0  0  0  0  0  0
  191.3740  175.9280  138.2860 C   0  0  0  0  0  0  0  0  0  0  0  0
  191.9960  174.7240  137.9870 O   0  0  0  0  0  0  0  0  0  0  0  0
  191.8080  176.6360  139.2330 O   0  0  0  0  0  1  0  0  0  0  0  0
  190.2490  176.3520  137.5180 N   0  0  0  0  0  2  0  0  0  0  0  0
  1  9  2  0  0  0  0
  2  5  1  0  0  0  0
  2  3  1  0  0  0  0
  3  7  1  0  0  0  0
  5 14  2  0  0  0  0
  6  1  1  0  0  0  0
  7  4  2  0  0  0  0
  8 21  1  1  0  0  0
  8 12  1  0  0  0  0
  8 13  1  0  0  0  0
 10 19  1  0  0  0  0
 11  4  1  0  0  0  0
 12 16  1  0  0  0  0
 13  2  2  0  0  0  0
 14  1  1  0  0  0  0
 15 20  1  0  0  0  0
 16 17  1  1  0  0  0
 16  5  1  0  0  0  0
 17  6  2  0  0  0  0
 18 13  1  0  0  0  0
 18 10  2  0  0  0  0
 19  3  2  0  0  0  0
 19 20  1  0  0  0  0
 20 11  2  0  0  0  0
 22 25  2  0  0  0  0
 23 24  1  0  0  0  0
 25 24  1  0  0  0  0
 25 26  1  0  0  0  0
 26 21  1  0  0  0  0
 27 26  1  0  0  0  0
 28 30  1  0  0  0  0
 29 28  2  0  0  0  0
 31 27  1  0  0  0  0
 31 28  1  0  0  0  0
M  END
>  <MODEL>
6

>  <REMARK>
 VINA RESULT:      -8.6      3.065      5.431
  Name = 
  4 active torsions:
  status: ('A' for Active; 'I' for Inactive)
    1  A    between atoms: C_6  and  N_22
    2  A    between atoms: C_6  and  N_24
    3  A    between atoms: C_15  and  C_23
    4  A    between atoms: N_22  and  C_23
                            x       y       z     vdW  Elec       q    Type
                         _______ _______ _______ _____ _____    ______ ____

>  <TORSDO>
F 4

$$$$
=
 OpenBabel11052413193D

 31 34  0  0  1  0  0  0  0  0999 V2000
  189.6470  177.0010  140.5010 C   0  0  0  0  0  0  0  0  0  0  0  0
  186.7960  178.1760  142.6470 C   0  0  0  0  0  0  0  0  0  0  0  0
  187.2020  177.9410  143.9880 C   0  0  0  0  0  0  0  0  0  0  0  0
  188.8050  177.1280  145.6320 C   0  0  0  0  0  3  0  0  0  0  0  0
  187.6500  177.8820  141.4590 C   0  0  0  0  0  0  0  0  0  0  0  0
  189.2860  177.4800  139.2410 C   0  0  0  0  0  3  0  0  0  0  0  0
  188.4330  177.3450  144.3050 C   0  0  0  0  0  3  0  0  0  0  0  0
  184.9940  178.9530  141.0300 C   0  0  2  0  0  3  0  0  0  0  0  0
  190.7300  176.3780  140.6490 O   0  0  0  0  0  0  0  0  0  0  0  0
  185.1500  178.9180  144.7740 N   0  0  0  0  0  0  0  0  0  0  0  0
  187.9510  177.5060  146.6670 C   0  0  0  0  0  3  0  0  0  0  0  0
  186.0240  179.0060  140.0400 O   0  0  0  0  0  0  0  0  0  0  0  0
  185.5370  178.7730  142.4230 C   0  0  0  0  0  0  0  0  0  0  0  0
  188.8350  177.2160  141.5700 N   0  0  0  0  0  0  0  0  0  0  0  0
  185.6800  178.5680  147.7180 Cl  0  0  0  0  0  0  0  0  0  0  0  0
  187.2470  178.3510  140.1960 C   0  0  1  0  0  3  0  0  0  0  0  0
  188.0790  178.1610  139.0930 C   0  0  0  0  0  3  0  0  0  0  0  0
  184.7350  179.1420  143.5030 C   0  0  0  0  0  3  0  0  0  0  0  0
  186.3420  178.3270  145.0480 C   0  0  0  0  0  0  0  0  0  0  0  0
  186.7240  178.1060  146.3830 C   0  0  0  0  0  0  0  0  0  0  0  0
  183.9390  177.8990  140.6700 C   0  0  0  0  0  2  0  0  0  0  0  0
  180.6430  179.3730  140.0340 O   0  0  0  0  0  0  0  0  0  0  0  0
  180.3860  179.1670  142.8460 C   0  0  0  0  0  1  0  0  0  0  0  0
  181.5670  178.7880  142.0900 N   0  0  0  0  0  2  0  0  0  0  0  0
  181.6250  178.8940  140.6650 C   0  0  0  0  0  0  0  0  0  0  0  0
  182.8010  178.4690  139.9540 N   0  0  0  0  0  0  0  0  0  0  0  0
  183.0160  178.8840  138.5730 C   0  0  0  0  0  2  0  0  0  0  0  0
  183.9300  177.1170  137.0250 C   0  0  0  0  0  0  0  0  0  0  0  0
  183.6970  176.0460  136.1750 O   0  0  0  0  0  0  0  0  0  0  0  0
  185.1090  177.5180  137.2160 O   0  0  0  0  0  1  0  0  0  0  0  0
  182.8320  177.7540  137.6760 N   0  0  0  0  0  2  0  0  0  0  0  0
  1  9  2  0  0  0  0
  1 14  1  0  0  0  0
  2  3  1  0  0  0  0
  3  7  2  0  0  0  0
  3 19  1  0  0  0  0
  4 11  2  0  0  0  0
  5 14  2  0  0  0  0
  5  2  1  0  0  0  0
  6  1  1  0  0  0  0
  7  4  1  0  0  0  0
  8 21  1  6  0  0  0
  8 13  1  0  0  0  0
 10 19  1  0  0  0  0
 12 16  1  0  0  0  0
 12  8  1  0  0  0  0
 13  2  2  0  0  0  0
 13 18  1  0  0  0  0
 16 17  1  1  0  0  0
 16  5  1  0  0  0  0
 17  6  2  0  0  0  0
 18 10  2  0  0  0  0
 19 20  2  0  0  0  0
 20 11  1  0  0  0  0
 20 15  1  0  0  0  0
 22 25  2  0  0  0  0
 24 23  1  0  0  0  0
 25 24  1  0  0  0  0
 26 25  1  0  0  0  0
 26 21  1  0  0  0  0
 27 26  1  0  0  0  0
 28 30  1  0  0  0  0
 28 31  1  0  0  0  0
 29 28  2  0  0  0  0
 31 27  1  0  0  0  0
M  END
>  <MODEL>
7

>  <REMARK>
 VINA RESULT:      -8.5      2.660      5.889
  Name = 
  4 active torsions:
  status: ('A' for Active; 'I' for Inactive)
    1  A    between atoms: C_6  and  N_22
    2  A    between atoms: C_6  and  N_24
    3  A    between atoms: C_15  and  C_23
    4  A    between atoms: N_22  and  C_23
                            x       y       z     vdW  Elec       q    Type
                         _______ _______ _______ _____ _____    ______ ____

>  <TORSDO>
F 4

$$$$
=
 OpenBabel11052413193D

 31 34  0  0  1  0  0  0  0  0999 V2000
  189.6540  177.1720  145.1630 C   0  0  0  0  0  0  0  0  0  0  0  0
  188.2210  177.8920  141.7650 C   0  0  0  0  0  0  0  0  0  0  0  0
  186.8580  178.2240  141.9860 C   0  0  0  0  0  0  0  0  0  0  0  0
  184.9380  178.5420  143.4510 C   0  0  0  0  0  3  0  0  0  0  0  0
  189.1820  177.5630  142.8590 C   0  0  0  0  0  0  0  0  0  0  0  0
  191.0230  177.0960  144.8970 C   0  0  0  0  0  3  0  0  0  0  0  0
  186.2800  178.2080  143.2650 C   0  0  0  0  0  3  0  0  0  0  0  0
  190.1170  177.4830  140.1200 C   0  0  2  0  0  3  0  0  0  0  0  0
  189.2350  177.0300  146.3400 O   0  0  0  0  0  0  0  0  0  0  0  0
  186.5830  178.6310  139.6310 N   0  0  0  0  0  0  0  0  0  0  0  0
  184.1500  178.8990  142.3580 C   0  0  0  0  0  3  0  0  0  0  0  0
  190.9980  177.5820  141.2400 O   0  0  0  0  0  0  0  0  0  0  0  0
  188.7150  177.9270  140.4430 C   0  0  0  0  0  0  0  0  0  0  0  0
  188.7760  177.4080  144.1510 N   0  0  0  0  0  0  0  0  0  0  0  0
  183.6680  179.3860  139.7270 Cl  0  0  0  0  0  0  0  0  0  0  0  0
  190.5510  177.4630  142.5580 C   0  0  1  0  0  3  0  0  0  0  0  0
  191.4690  177.2460  143.5850 C   0  0  0  0  0  3  0  0  0  0  0  0
  187.8770  178.3060  139.3940 C   0  0  0  0  0  3  0  0  0  0  0  0
  186.0490  178.5940  140.8800 C   0  0  0  0  0  0  0  0  0  0  0  0
  184.6980  178.9280  141.0750 C   0  0  0  0  0  0  0  0  0  0  0  0
  190.1610  176.0750  139.5090 C   0  0  0  0  0  2  0  0  0  0  0  0
  189.6000  175.7900  135.8980 O   0  0  0  0  0  0  0  0  0  0  0  0
  186.9770  175.0940  136.7040 C   0  0  0  0  0  1  0  0  0  0  0  0
  188.0540  175.4610  137.6080 N   0  0  0  0  0  2  0  0  0  0  0  0
  189.3660  175.7790  137.1370 C   0  0  0  0  0  0  0  0  0  0  0  0
  190.4130  176.0980  138.0710 N   0  0  0  0  0  0  0  0  0  0  0  0
  191.6320  176.7530  137.6130 C   0  0  0  0  0  2  0  0  0  0  0  0
  193.8410  176.1010  138.6390 C   0  0  0  0  0  0  0  0  0  0  0  0
  194.8980  175.2060  138.7140 O   0  0  0  0  0  0  0  0  0  0  0  0
  193.8400  177.1300  139.3670 O   0  0  0  0  0  1  0  0  0  0  0  0
  192.7640  175.8480  137.7380 N   0  0  0  0  0  2  0  0  0  0  0  0
  1  9  2  0  0  0  0
  2  3  1  0  0  0  0
  2  5  1  0  0  0  0
  3  7  1  0  0  0  0
  5 14  2  0  0  0  0
  6  1  1  0  0  0  0
  7  4  2  0  0  0  0
  8 21  1  1  0  0  0
  8 13  1  0  0  0  0
  8 12  1  0  0  0  0
 10 19  1  0  0  0  0
 11  4  1  0  0  0  0
 12 16  1  0  0  0  0
 13  2  2  0  0  0  0
 14  1  1  0  0  0  0
 15 20  1  0  0  0  0
 16  5  1  0  0  0  0
 16 17  1  1  0  0  0
 17  6  2  0  0  0  0
 18 10  2  0  0  0  0
 18 13  1  0  0  0  0
 19 20  1  0  0  0  0
 19  3  2  0  0  0  0
 20 11  2  0  0  0  0
 22 25  2  0  0  0  0
 23 24  1  0  0  0  0
 25 24  1  0  0  0  0
 25 26  1  0  0  0  0
 26 21  1  0  0  0  0
 27 31  1  0  0  0  0
 27 26  1  0  0  0  0
 28 29  2  0  0  0  0
 28 30  1  0  0  0  0
 31 28  1  0  0  0  0
M  END
>  <MODEL>
8

>  <REMARK>
 VINA RESULT:      -8.5      3.434      6.106
  Name = 
  4 active torsions:
  status: ('A' for Active; 'I' for Inactive)
    1  A    between atoms: C_6  and  N_22
    2  A    between atoms: C_6  and  N_24
    3  A    between atoms: C_15  and  C_23
    4  A    between atoms: N_22  and  C_23
                            x       y       z     vdW  Elec       q    Type
                         _______ _______ _______ _____ _____    ______ ____

>  <TORSDO>
F 4

$$$$
=
 OpenBabel11052413193D

 31 34  0  0  1  0  0  0  0  0999 V2000
  189.7800  177.3050  140.4030 C   0  0  0  0  0  0  0  0  0  0  0  0
  186.6900  178.1720  142.3570 C   0  0  0  0  0  0  0  0  0  0  0  0
  187.0190  177.9380  143.7190 C   0  0  0  0  0  0  0  0  0  0  0  0
  188.5670  177.2260  145.4600 C   0  0  0  0  0  3  0  0  0  0  0  0
  187.6490  177.9830  141.2290 C   0  0  0  0  0  0  0  0  0  0  0  0
  189.4690  177.7830  139.1290 C   0  0  0  0  0  3  0  0  0  0  0  0
  188.2720  177.4440  144.1130 C   0  0  0  0  0  3  0  0  0  0  0  0
  184.9460  178.8300  140.6270 C   0  0  2  0  0  3  0  0  0  0  0  0
  190.9000  176.7750  140.6180 O   0  0  0  0  0  0  0  0  0  0  0  0
  184.8370  178.7130  144.3710 N   0  0  0  0  0  0  0  0  0  0  0  0
  187.6110  177.5020  146.4370 C   0  0  0  0  0  3  0  0  0  0  0  0
  186.0350  178.9970  139.7170 O   0  0  0  0  0  0  0  0  0  0  0  0
  185.4020  178.6630  142.0520 C   0  0  0  0  0  0  0  0  0  0  0  0
  188.8780  177.4210  141.4140 N   0  0  0  0  0  0  0  0  0  0  0  0
  185.1860  178.3350  147.3400 Cl  0  0  0  0  0  0  0  0  0  0  0  0
  187.2980  178.4480  139.9490 C   0  0  1  0  0  3  0  0  0  0  0  0
  188.2200  178.3600  138.9060 C   0  0  0  0  0  3  0  0  0  0  0  0
  184.4960  178.9320  143.0780 C   0  0  0  0  0  3  0  0  0  0  0  0
  186.0550  178.2210  144.7210 C   0  0  0  0  0  0  0  0  0  0  0  0
  186.3590  177.9990  146.0750 C   0  0  0  0  0  0  0  0  0  0  0  0
  184.0170  177.6970  140.1710 C   0  0  0  0  0  2  0  0  0  0  0  0
  183.0690  177.8350  136.6330 O   0  0  0  0  0  0  0  0  0  0  0  0
  185.3290  176.1600  136.3130 C   0  0  0  0  0  1  0  0  0  0  0  0
  184.8410  176.6630  137.5860 N   0  0  0  0  0  2  0  0  0  0  0  0
  183.7060  177.5270  137.6770 C   0  0  0  0  0  0  0  0  0  0  0  0
  183.2810  178.0340  138.9550 N   0  0  0  0  0  0  0  0  0  0  0  0
  181.9530  178.6130  139.1130 C   0  0  0  0  0  2  0  0  0  0  0  0
  181.6060  180.9310  138.1850 C   0  0  0  0  0  0  0  0  0  0  0  0
  181.7240  182.3050  138.3420 O   0  0  0  0  0  1  0  0  0  0  0  0
  181.1080  180.4640  137.1250 O   0  0  0  0  0  0  0  0  0  0  0  0
  182.0480  180.0610  139.2250 N   0  0  0  0  0  2  0  0  0  0  0  0
  1  9  2  0  0  0  0
  1 14  1  0  0  0  0
  2  3  1  0  0  0  0
  3  7  2  0  0  0  0
  3 19  1  0  0  0  0
  4 11  2  0  0  0  0
  5 14  2  0  0  0  0
  5  2  1  0  0  0  0
  6  1  1  0  0  0  0
  7  4  1  0  0  0  0
  8 21  1  6  0  0  0
  8 13  1  0  0  0  0
 10 19  1  0  0  0  0
 12 16  1  0  0  0  0
 12  8  1  0  0  0  0
 13  2  2  0  0  0  0
 13 18  1  0  0  0  0
 16 17  1  1  0  0  0
 16  5  1  0  0  0  0
 17  6  2  0  0  0  0
 18 10  2  0  0  0  0
 19 20  2  0  0  0  0
 20 11  1  0  0  0  0
 20 15  1  0  0  0  0
 22 25  2  0  0  0  0
 23 24  1  0  0  0  0
 24 25  1  0  0  0  0
 25 26  1  0  0  0  0
 26 27  1  0  0  0  0
 26 21  1  0  0  0  0
 27 31  1  0  0  0  0
 28 29  1  0  0  0  0
 28 31  1  0  0  0  0
 30 28  2  0  0  0  0
M  END
>  <MODEL>
9

>  <REMARK>
 VINA RESULT:      -8.4      2.784      5.508
  Name = 
  4 active torsions:
  status: ('A' for Active; 'I' for Inactive)
    1  A    between atoms: C_6  and  N_22
    2  A    between atoms: C_6  and  N_24
    3  A    between atoms: C_15  and  C_23
    4  A    between atoms: N_22  and  C_23
                            x       y       z     vdW  Elec       q    Type
                         _______ _______ _______ _____ _____    ______ ____

>  <TORSDO>
F 4

$$$$
