=
 OpenBabel11052412403D

 25 28  0  0  1  0  0  0  0  0999 V2000
  185.1810  178.3480  144.2830 C   0  0  0  0  0  0  0  0  0  0  0  0
  186.3570  177.9580  144.9450 C   0  0  0  0  0  0  0  0  0  0  0  0
  184.0960  178.7540  146.3730 N   0  0  0  0  0  0  0  0  0  0  0  0
  184.9590  178.3770  142.8770 N   0  0  0  0  0  0  0  0  0  0  0  0
  190.0460  177.8560  144.2590 N   0  0  0  0  0  2  0  0  0  0  0  0
  184.0440  178.4870  140.2020 C   0  0  0  0  0  2  0  0  0  0  0  0
  185.2160  178.3770  147.0500 C   0  0  0  0  0  3  0  0  0  0  0  0
  183.6190  178.7840  142.6050 C   0  0  0  0  0  0  0  0  0  0  0  0
  183.1710  178.9010  141.3560 C   0  0  0  0  0  3  0  0  0  0  0  0
  187.6110  177.5100  147.0830 C   0  0  2  0  0  3  0  0  0  0  0  0
  187.7940  178.1890  148.4310 C   0  0  0  0  0  1  0  0  0  0  0  0
  187.5570  177.4350  144.2050 C   0  0  0  0  0  2  0  0  0  0  0  0
  185.5260  178.7140  140.5170 C   0  0  0  0  0  2  0  0  0  0  0  0
  184.0750  178.7510  145.0170 C   0  0  0  0  0  0  0  0  0  0  0  0
  182.6380  179.2150  144.0470 S   0  0  0  0  0  0  0  0  0  0  0  0
  188.8150  177.7240  146.2760 N   0  0  0  0  0  0  0  0  0  0  0  0
  185.8990  178.0030  141.8200 C   0  0  0  0  0  2  0  0  0  0  0  0
  188.8230  177.6770  144.9750 C   0  0  0  0  0  0  0  0  0  0  0  0
  186.3760  177.9910  146.3550 C   0  0  0  0  0  0  0  0  0  0  0  0
  191.2370  178.0090  144.8970 O   0  0  0  0  0  0  0  0  0  0  0  0
  191.8740  176.7510  144.9010 C   0  0  2  0  0  3  0  0  0  0  0  0
  191.2670  175.8550  144.0300 F   0  0  0  0  0  0  0  0  0  0  0  0
  191.9940  176.1840  146.2830 C   0  0  0  0  0  0  0  0  0  0  0  0
  191.8570  176.9110  147.2540 O   0  0  0  0  0  0  0  0  0  0  0  0
  192.2670  174.8660  146.4640 F   0  0  0  0  0  0  0  0  0  0  0  0
  1  2  2  0  0  0  0
  1 14  1  0  0  0  0
  2 19  1  0  0  0  0
  3  7  1  0  0  0  0
  4  1  1  0  0  0  0
  5 20  1  0  0  0  0
  5 18  1  0  0  0  0
  6 13  1  0  0  0  0
  6  9  1  0  0  0  0
  8  4  1  0  0  0  0
  8 15  1  0  0  0  0
  9  8  2  0  0  0  0
 10 11  1  1  0  0  0
 12  2  1  0  0  0  0
 12 18  1  0  0  0  0
 13 17  1  0  0  0  0
 14  3  2  0  0  0  0
 15 14  1  0  0  0  0
 16 10  1  0  0  0  0
 17  4  1  0  0  0  0
 18 16  2  0  0  0  0
 19  7  2  0  0  0  0
 19 10  1  0  0  0  0
 20 21  1  0  0  0  0
 21 22  1  6  0  0  0
 21 23  1  0  0  0  0
 23 25  1  0  0  0  0
 23 24  2  0  0  0  0
M  END
>  <MODEL>
1

>  <REMARK>
 VINA RESULT:      -9.2      0.000      0.000
  Name = 
  3 active torsions:
  status: ('A' for Active; 'I' for Inactive)
    1  A    between atoms: C_2  and  C_21
    2  A    between atoms: N_6  and  O_15
    3  A    between atoms: O_15  and  C_21
                            x       y       z     vdW  Elec       q    Type
                         _______ _______ _______ _____ _____    ______ ____

>  <TORSDO>
F 3

$$$$
=
 OpenBabel11052412403D

 25 28  0  0  1  0  0  0  0  0999 V2000
  186.9010  177.8250  144.7550 C   0  0  0  0  0  0  0  0  0  0  0  0
  188.0070  177.3340  144.0410 C   0  0  0  0  0  0  0  0  0  0  0  0
  188.1140  177.6760  146.8080 N   0  0  0  0  0  0  0  0  0  0  0  0
  185.6290  178.1810  144.2250 N   0  0  0  0  0  0  0  0  0  0  0  0
  189.4020  177.5440  140.5630 N   0  0  0  0  0  2  0  0  0  0  0  0
  182.9540  178.8920  143.6390 C   0  0  0  0  0  2  0  0  0  0  0  0
  189.2050  177.1920  146.1520 C   0  0  0  0  0  3  0  0  0  0  0  0
  184.7590  178.5890  145.2800 C   0  0  0  0  0  0  0  0  0  0  0  0
  183.5110  178.9830  145.0340 C   0  0  0  0  0  3  0  0  0  0  0  0
  190.3600  176.4370  144.0100 C   0  0  2  0  0  3  0  0  0  0  0  0
  191.6920  176.7800  144.6580 C   0  0  0  0  0  1  0  0  0  0  0  0
  187.9460  177.0510  142.5660 C   0  0  0  0  0  2  0  0  0  0  0  0
  184.0500  179.0950  142.5880 C   0  0  0  0  0  2  0  0  0  0  0  0
  186.9850  177.9970  146.1290 C   0  0  0  0  0  0  0  0  0  0  0  0
  185.4990  178.6240  146.9160 S   0  0  0  0  0  0  0  0  0  0  0  0
  190.3800  176.8840  142.6150 N   0  0  0  0  0  0  0  0  0  0  0  0
  185.1940  178.1080  142.8290 C   0  0  0  0  0  2  0  0  0  0  0  0
  189.3040  177.1500  141.9330 C   0  0  0  0  0  0  0  0  0  0  0  0
  189.1850  177.0300  144.7550 C   0  0  0  0  0  0  0  0  0  0  0  0
  190.5960  177.5850  139.9120 O   0  0  0  0  0  0  0  0  0  0  0  0
  190.3960  177.0180  138.6360 C   0  0  2  0  0  3  0  0  0  0  0  0
  189.1350  176.4500  138.5080 F   0  0  0  0  0  0  0  0  0  0  0  0
  191.4800  176.0480  138.2760 C   0  0  0  0  0  0  0  0  0  0  0  0
  191.2340  174.8540  138.2180 O   0  0  0  0  0  0  0  0  0  0  0  0
  192.7400  176.4880  138.0240 F   0  0  0  0  0  0  0  0  0  0  0  0
  1 14  1  0  0  0  0
  2  1  2  0  0  0  0
  2 19  1  0  0  0  0
  4  1  1  0  0  0  0
  4  8  1  0  0  0  0
  5 18  1  0  0  0  0
  6  9  1  0  0  0  0
  7  3  1  0  0  0  0
  8 15  1  0  0  0  0
  9  8  2  0  0  0  0
 10 11  1  1  0  0  0
 10 19  1  0  0  0  0
 12  2  1  0  0  0  0
 13 17  1  0  0  0  0
 13  6  1  0  0  0  0
 14  3  2  0  0  0  0
 14 15  1  0  0  0  0
 16 10  1  0  0  0  0
 17  4  1  0  0  0  0
 18 12  1  0  0  0  0
 18 16  2  0  0  0  0
 19  7  2  0  0  0  0
 20  5  1  0  0  0  0
 21 22  1  1  0  0  0
 21 20  1  0  0  0  0
 23 21  1  0  0  0  0
 24 23  2  0  0  0  0
 25 23  1  0  0  0  0
M  END
>  <MODEL>
2

>  <REMARK>
 VINA RESULT:      -9.1      3.398      4.679
  Name = 
  3 active torsions:
  status: ('A' for Active; 'I' for Inactive)
    1  A    between atoms: C_2  and  C_21
    2  A    between atoms: N_6  and  O_15
    3  A    between atoms: O_15  and  C_21
                            x       y       z     vdW  Elec       q    Type
                         _______ _______ _______ _____ _____    ______ ____

>  <TORSDO>
F 3

$$$$
=
 OpenBabel11052412403D

 25 28  0  0  1  0  0  0  0  0999 V2000
  186.9170  177.8320  144.7220 C   0  0  0  0  0  0  0  0  0  0  0  0
  187.9500  177.3510  143.8990 C   0  0  0  0  0  0  0  0  0  0  0  0
  188.3250  177.6730  146.6450 N   0  0  0  0  0  0  0  0  0  0  0  0
  185.5980  178.1870  144.3200 N   0  0  0  0  0  0  0  0  0  0  0  0
  188.9990  177.5930  140.3040 N   0  0  0  0  0  2  0  0  0  0  0  0
  182.8760  178.8920  144.0040 C   0  0  0  0  0  2  0  0  0  0  0  0
  189.3480  177.1980  145.8820 C   0  0  0  0  0  3  0  0  0  0  0  0
  184.8330  178.5840  145.4580 C   0  0  0  0  0  0  0  0  0  0  0  0
  183.5660  178.9750  145.3380 C   0  0  0  0  0  3  0  0  0  0  0  0
  190.2910  176.4640  143.6320 C   0  0  2  0  0  3  0  0  0  0  0  0
  191.6790  176.8070  144.1490 C   0  0  0  0  0  1  0  0  0  0  0  0
  187.7460  177.0790  142.4340 C   0  0  0  0  0  2  0  0  0  0  0  0
  183.8640  179.1070  142.8530 C   0  0  0  0  0  2  0  0  0  0  0  0
  187.1340  177.9940  146.0810 C   0  0  0  0  0  0  0  0  0  0  0  0
  185.7290  178.6090  147.0150 S   0  0  0  0  0  0  0  0  0  0  0  0
  190.1740  176.9220  142.2450 N   0  0  0  0  0  0  0  0  0  0  0  0
  185.0290  178.1230  142.9730 C   0  0  0  0  0  2  0  0  0  0  0  0
  189.0360  177.1890  141.6730 C   0  0  0  0  0  0  0  0  0  0  0  0
  189.1930  177.0460  144.4920 C   0  0  0  0  0  0  0  0  0  0  0  0
  190.1230  177.6450  139.5400 O   0  0  0  0  0  0  0  0  0  0  0  0
  189.7320  177.4170  138.2030 C   0  0  2  0  0  3  0  0  0  0  0  0
  190.8210  177.3340  137.3470 F   0  0  0  0  0  0  0  0  0  0  0  0
  188.7310  178.4270  137.7300 C   0  0  0  0  0  0  0  0  0  0  0  0
  189.0720  179.5840  137.5480 O   0  0  0  0  0  0  0  0  0  0  0  0
  187.4390  178.0650  137.5140 F   0  0  0  0  0  0  0  0  0  0  0  0
  1 14  1  0  0  0  0
  2 19  1  0  0  0  0
  2  1  2  0  0  0  0
  4  1  1  0  0  0  0
  4  8  1  0  0  0  0
  5 18  1  0  0  0  0
  6  9  1  0  0  0  0
  7  3  1  0  0  0  0
  8 15  1  0  0  0  0
  9  8  2  0  0  0  0
 10 11  1  1  0  0  0
 10 19  1  0  0  0  0
 12  2  1  0  0  0  0
 13 17  1  0  0  0  0
 13  6  1  0  0  0  0
 14  3  2  0  0  0  0
 14 15  1  0  0  0  0
 16 10  1  0  0  0  0
 17  4  1  0  0  0  0
 18 16  2  0  0  0  0
 18 12  1  0  0  0  0
 19  7  2  0  0  0  0
 20  5  1  0  0  0  0
 21 22  1  6  0  0  0
 21 20  1  0  0  0  0
 23 21  1  0  0  0  0
 24 23  2  0  0  0  0
 25 23  1  0  0  0  0
M  END
>  <MODEL>
3

>  <REMARK>
 VINA RESULT:      -9.0      3.535      5.243
  Name = 
  3 active torsions:
  status: ('A' for Active; 'I' for Inactive)
    1  A    between atoms: C_2  and  C_21
    2  A    between atoms: N_6  and  O_15
    3  A    between atoms: O_15  and  C_21
                            x       y       z     vdW  Elec       q    Type
                         _______ _______ _______ _____ _____    ______ ____

>  <TORSDO>
F 3

$$$$
=
 OpenBabel11052412403D

 25 28  0  0  1  0  0  0  0  0999 V2000
  189.3360  177.3840  144.1310 C   0  0  0  0  0  0  0  0  0  0  0  0
  188.6800  177.5120  142.8940 C   0  0  0  0  0  0  0  0  0  0  0  0
  191.4260  177.0360  143.0270 N   0  0  0  0  0  0  0  0  0  0  0  0
  188.7450  177.4510  145.4240 N   0  0  0  0  0  0  0  0  0  0  0  0
  185.6120  179.1790  141.5190 N   0  0  0  0  0  2  0  0  0  0  0  0
  187.9980  177.3980  148.1520 C   0  0  0  0  0  2  0  0  0  0  0  0
  190.8250  177.1480  141.8110 C   0  0  0  0  0  3  0  0  0  0  0  0
  189.7370  177.2240  146.4240 C   0  0  0  0  0  0  0  0  0  0  0  0
  189.4310  177.2480  147.7200 C   0  0  0  0  0  3  0  0  0  0  0  0
  188.7440  177.4750  140.3770 C   0  0  2  0  0  3  0  0  0  0  0  0
  189.6400  178.0220  139.2770 C   0  0  0  0  0  1  0  0  0  0  0  0
  187.1890  177.6730  142.7920 C   0  0  0  0  0  2  0  0  0  0  0  0
  187.2020  178.2450  147.1540 C   0  0  0  0  0  2  0  0  0  0  0  0
  190.7040  177.1600  144.1690 C   0  0  0  0  0  0  0  0  0  0  0  0
  191.4120  177.0110  145.8110 S   0  0  0  0  0  0  0  0  0  0  0  0
  187.5340  178.2950  140.4570 N   0  0  0  0  0  0  0  0  0  0  0  0
  187.3320  177.6560  145.7480 C   0  0  0  0  0  2  0  0  0  0  0  0
  186.8020  178.3890  141.5300 C   0  0  0  0  0  0  0  0  0  0  0  0
  189.4460  177.4080  141.7150 C   0  0  0  0  0  0  0  0  0  0  0  0
  185.1690  179.7940  140.3900 O   0  0  0  0  0  0  0  0  0  0  0  0
  184.0520  179.0670  139.9280 C   0  0  2  0  0  3  0  0  0  0  0  0
  183.4860  178.2880  140.9280 F   0  0  0  0  0  0  0  0  0  0  0  0
  184.3730  178.2570  138.7090 C   0  0  0  0  0  0  0  0  0  0  0  0
  183.6790  177.2970  138.4160 O   0  0  0  0  0  0  0  0  0  0  0  0
  185.4400  178.5780  137.9320 F   0  0  0  0  0  0  0  0  0  0  0  0
  1 14  1  0  0  0  0
  1  4  1  0  0  0  0
  2  1  2  0  0  0  0
  3 14  2  0  0  0  0
  4 17  1  0  0  0  0
  4  8  1  0  0  0  0
  5 18  1  0  0  0  0
  7  3  1  0  0  0  0
  8  9  2  0  0  0  0
  9  6  1  0  0  0  0
 10 11  1  6  0  0  0
 10 16  1  0  0  0  0
 10 19  1  0  0  0  0
 12  2  1  0  0  0  0
 13  6  1  0  0  0  0
 14 15  1  0  0  0  0
 15  8  1  0  0  0  0
 16 18  2  0  0  0  0
 17 13  1  0  0  0  0
 18 12  1  0  0  0  0
 19  7  2  0  0  0  0
 19  2  1  0  0  0  0
 20  5  1  0  0  0  0
 21 20  1  0  0  0  0
 21 22  1  1  0  0  0
 23 21  1  0  0  0  0
 24 23  2  0  0  0  0
 25 23  1  0  0  0  0
M  END
>  <MODEL>
4

>  <REMARK>
 VINA RESULT:      -9.0      4.585      7.657
  Name = 
  3 active torsions:
  status: ('A' for Active; 'I' for Inactive)
    1  A    between atoms: C_2  and  C_21
    2  A    between atoms: N_6  and  O_15
    3  A    between atoms: O_15  and  C_21
                            x       y       z     vdW  Elec       q    Type
                         _______ _______ _______ _____ _____    ______ ____

>  <TORSDO>
F 3

$$$$
=
 OpenBabel11052412403D

 25 28  0  0  1  0  0  0  0  0999 V2000
  187.8230  177.7040  144.6320 C   0  0  0  0  0  0  0  0  0  0  0  0
  188.4790  177.5100  143.4040 C   0  0  0  0  0  0  0  0  0  0  0  0
  189.8120  177.1350  145.8260 N   0  0  0  0  0  0  0  0  0  0  0  0
  186.4620  178.0760  144.8260 N   0  0  0  0  0  0  0  0  0  0  0  0
  188.2000  178.7270  139.8650 N   0  0  0  0  0  2  0  0  0  0  0  0
  183.8340  178.6830  145.6790 C   0  0  0  0  0  2  0  0  0  0  0  0
  190.4800  176.9310  144.6580 C   0  0  0  0  0  3  0  0  0  0  0  0
  186.1650  178.1220  146.2210 C   0  0  0  0  0  0  0  0  0  0  0  0
  184.9530  178.4590  146.6590 C   0  0  0  0  0  3  0  0  0  0  0  0
  190.5380  176.8550  142.1120 C   0  0  2  0  0  3  0  0  0  0  0  0
  192.0320  177.1310  142.1800 C   0  0  0  0  0  1  0  0  0  0  0  0
  187.7600  177.6130  142.0870 C   0  0  0  0  0  2  0  0  0  0  0  0
  184.3590  179.2420  144.3530 C   0  0  0  0  0  2  0  0  0  0  0  0
  188.5120  177.5230  145.8210 C   0  0  0  0  0  0  0  0  0  0  0  0
  187.5530  177.7960  147.3140 S   0  0  0  0  0  0  0  0  0  0  0  0
  189.9580  177.6470  141.0250 N   0  0  0  0  0  0  0  0  0  0  0  0
  185.4520  178.3280  143.7970 C   0  0  0  0  0  2  0  0  0  0  0  0
  188.7020  177.9870  140.9790 C   0  0  0  0  0  0  0  0  0  0  0  0
  189.8380  177.1330  143.4220 C   0  0  0  0  0  0  0  0  0  0  0  0
  188.9830  179.0370  138.7970 O   0  0  0  0  0  0  0  0  0  0  0  0
  188.5720  178.2180  137.7250 C   0  0  2  0  0  3  0  0  0  0  0  0
  187.4950  177.4110  138.0680 F   0  0  0  0  0  0  0  0  0  0  0  0
  189.7060  177.4180  137.1610 C   0  0  0  0  0  0  0  0  0  0  0  0
  189.6710  177.0460  135.9990 O   0  0  0  0  0  0  0  0  0  0  0  0
  190.7710  177.0920  137.9390 F   0  0  0  0  0  0  0  0  0  0  0  0
  1  4  1  0  0  0  0
  1 14  1  0  0  0  0
  2 19  1  0  0  0  0
  2  1  2  0  0  0  0
  4  8  1  0  0  0  0
  5 18  1  0  0  0  0
  6  9  1  0  0  0  0
  7  3  1  0  0  0  0
  8  9  2  0  0  0  0
  8 15  1  0  0  0  0
 10 11  1  1  0  0  0
 10 19  1  0  0  0  0
 12  2  1  0  0  0  0
 13  6  1  0  0  0  0
 14  3  2  0  0  0  0
 14 15  1  0  0  0  0
 16 10  1  0  0  0  0
 17 13  1  0  0  0  0
 17  4  1  0  0  0  0
 18 16  2  0  0  0  0
 18 12  1  0  0  0  0
 19  7  2  0  0  0  0
 20  5  1  0  0  0  0
 21 22  1  1  0  0  0
 21 20  1  0  0  0  0
 23 21  1  0  0  0  0
 23 25  1  0  0  0  0
 24 23  2  0  0  0  0
M  END
>  <MODEL>
5

>  <REMARK>
 VINA RESULT:      -8.9      3.894      6.001
  Name = 
  3 active torsions:
  status: ('A' for Active; 'I' for Inactive)
    1  A    between atoms: C_2  and  C_21
    2  A    between atoms: N_6  and  O_15
    3  A    between atoms: O_15  and  C_21
                            x       y       z     vdW  Elec       q    Type
                         _______ _______ _______ _____ _____    ______ ____

>  <TORSDO>
F 3

$$$$
=
 OpenBabel11052412403D

 25 28  0  0  1  0  0  0  0  0999 V2000
  184.7620  178.3930  143.9100 C   0  0  0  0  0  0  0  0  0  0  0  0
  186.0160  178.0360  144.4350 C   0  0  0  0  0  0  0  0  0  0  0  0
  183.8970  178.7330  146.1110 N   0  0  0  0  0  0  0  0  0  0  0  0
  184.3890  178.4320  142.5370 N   0  0  0  0  0  0  0  0  0  0  0  0
  189.6100  178.0730  143.3540 N   0  0  0  0  0  2  0  0  0  0  0  0
  183.1880  178.5440  139.9780 C   0  0  0  0  0  2  0  0  0  0  0  0
  185.0950  178.3870  146.6570 C   0  0  0  0  0  3  0  0  0  0  0  0
  183.0140  178.7950  142.4160 C   0  0  0  0  0  0  0  0  0  0  0  0
  182.4310  178.9120  141.2250 C   0  0  0  0  0  3  0  0  0  0  0  0
  187.5080  177.6050  146.4170 C   0  0  2  0  0  3  0  0  0  0  0  0
  187.8120  178.2720  147.7500 C   0  0  0  0  0  1  0  0  0  0  0  0
  187.1460  177.5650  143.5610 C   0  0  0  0  0  2  0  0  0  0  0  0
  184.6870  178.8190  140.1350 C   0  0  0  0  0  2  0  0  0  0  0  0
  183.7300  178.7460  144.7640 C   0  0  0  0  0  0  0  0  0  0  0  0
  182.1810  179.1720  143.9620 S   0  0  0  0  0  0  0  0  0  0  0  0
  188.6100  177.8710  145.4900 N   0  0  0  0  0  0  0  0  0  0  0  0
  185.2220  178.1050  141.3780 C   0  0  0  0  0  2  0  0  0  0  0  0
  188.4790  177.8420  144.1950 C   0  0  0  0  0  0  0  0  0  0  0  0
  186.1860  178.0520  145.8350 C   0  0  0  0  0  0  0  0  0  0  0  0
  190.8570  178.2600  143.8640 O   0  0  0  0  0  0  0  0  0  0  0  0
  191.6600  177.1950  143.4050 C   0  0  2  0  0  3  0  0  0  0  0  0
  191.2080  176.6820  142.1970 F   0  0  0  0  0  0  0  0  0  0  0  0
  191.8150  176.1210  144.4390 C   0  0  0  0  0  0  0  0  0  0  0  0
  191.6990  176.3930  145.6230 O   0  0  0  0  0  0  0  0  0  0  0  0
  192.0960  174.8450  144.0670 F   0  0  0  0  0  0  0  0  0  0  0  0
  1  2  2  0  0  0  0
  1 14  1  0  0  0  0
  2 19  1  0  0  0  0
  3  7  1  0  0  0  0
  4  1  1  0  0  0  0
  5 20  1  0  0  0  0
  5 18  1  0  0  0  0
  6 13  1  0  0  0  0
  6  9  1  0  0  0  0
  8  4  1  0  0  0  0
  8 15  1  0  0  0  0
  9  8  2  0  0  0  0
 10 11  1  1  0  0  0
 12 18  1  0  0  0  0
 12  2  1  0  0  0  0
 13 17  1  0  0  0  0
 14  3  2  0  0  0  0
 15 14  1  0  0  0  0
 16 10  1  0  0  0  0
 17  4  1  0  0  0  0
 18 16  2  0  0  0  0
 19 10  1  0  0  0  0
 19  7  2  0  0  0  0
 21 22  1  6  0  0  0
 21 20  1  0  0  0  0
 21 23  1  0  0  0  0
 23 24  2  0  0  0  0
 25 23  1  0  0  0  0
M  END
>  <MODEL>
6

>  <REMARK>
 VINA RESULT:      -8.9      0.999      1.085
  Name = 
  3 active torsions:
  status: ('A' for Active; 'I' for Inactive)
    1  A    between atoms: C_2  and  C_21
    2  A    between atoms: N_6  and  O_15
    3  A    between atoms: O_15  and  C_21
                            x       y       z     vdW  Elec       q    Type
                         _______ _______ _______ _____ _____    ______ ____

>  <TORSDO>
F 3

$$$$
=
 OpenBabel11052412403D

 25 28  0  0  1  0  0  0  0  0999 V2000
  187.2260  177.8280  144.7190 C   0  0  0  0  0  0  0  0  0  0  0  0
  186.0900  178.2720  144.0210 C   0  0  0  0  0  0  0  0  0  0  0  0
  186.1140  178.1550  146.8080 N   0  0  0  0  0  0  0  0  0  0  0  0
  188.4680  177.4160  144.1590 N   0  0  0  0  0  0  0  0  0  0  0  0
  184.5260  177.7980  140.6420 N   0  0  0  0  0  2  0  0  0  0  0  0
  191.1070  176.6320  143.5060 C   0  0  0  0  0  2  0  0  0  0  0  0
  184.9970  178.5960  146.1680 C   0  0  0  0  0  3  0  0  0  0  0  0
  189.3860  177.0850  145.2000 C   0  0  0  0  0  0  0  0  0  0  0  0
  190.6180  176.6590  144.9280 C   0  0  0  0  0  3  0  0  0  0  0  0
  183.7440  179.1890  144.0290 C   0  0  2  0  0  3  0  0  0  0  0  0
  182.4430  178.9140  144.7660 C   0  0  0  0  0  1  0  0  0  0  0  0
  186.0810  178.4340  142.5260 C   0  0  0  0  0  2  0  0  0  0  0  0
  189.9600  176.3570  142.5280 C   0  0  0  0  0  2  0  0  0  0  0  0
  187.2070  177.7680  146.1040 C   0  0  0  0  0  0  0  0  0  0  0  0
  188.7260  177.1910  146.8680 S   0  0  0  0  0  0  0  0  0  0  0  0
  183.6530  178.6310  142.6780 N   0  0  0  0  0  0  0  0  0  0  0  0
  188.8350  177.3730  142.7420 C   0  0  0  0  0  2  0  0  0  0  0  0
  184.6930  178.2990  141.9690 C   0  0  0  0  0  0  0  0  0  0  0  0
  184.9500  178.6450  144.7630 C   0  0  0  0  0  0  0  0  0  0  0  0
  183.3020  177.7170  140.0540 O   0  0  0  0  0  0  0  0  0  0  0  0
  183.4000  178.3470  138.7960 C   0  0  2  0  0  3  0  0  0  0  0  0
  184.5560  177.9840  138.1180 F   0  0  0  0  0  0  0  0  0  0  0  0
  183.2630  179.8360  138.9000 C   0  0  0  0  0  0  0  0  0  0  0  0
  184.2600  180.5350  138.9780 O   0  0  0  0  0  0  0  0  0  0  0  0
  182.0330  180.4130  138.9210 F   0  0  0  0  0  0  0  0  0  0  0  0
  1 14  1  0  0  0  0
  2  1  2  0  0  0  0
  2 19  1  0  0  0  0
  4  1  1  0  0  0  0
  4  8  1  0  0  0  0
  5 18  1  0  0  0  0
  6  9  1  0  0  0  0
  7  3  1  0  0  0  0
  8 15  1  0  0  0  0
  9  8  2  0  0  0  0
 10 19  1  0  0  0  0
 10 11  1  1  0  0  0
 12  2  1  0  0  0  0
 13 17  1  0  0  0  0
 13  6  1  0  0  0  0
 14  3  2  0  0  0  0
 14 15  1  0  0  0  0
 16 10  1  0  0  0  0
 17  4  1  0  0  0  0
 18 12  1  0  0  0  0
 18 16  2  0  0  0  0
 19  7  2  0  0  0  0
 20  5  1  0  0  0  0
 21 22  1  1  0  0  0
 21 23  1  0  0  0  0
 21 20  1  0  0  0  0
 23 25  1  0  0  0  0
 23 24  2  0  0  0  0
M  END
>  <MODEL>
7

>  <REMARK>
 VINA RESULT:      -8.2      4.591      7.088
  Name = 
  3 active torsions:
  status: ('A' for Active; 'I' for Inactive)
    1  A    between atoms: C_2  and  C_21
    2  A    between atoms: N_6  and  O_15
    3  A    between atoms: O_15  and  C_21
                            x       y       z     vdW  Elec       q    Type
                         _______ _______ _______ _____ _____    ______ ____

>  <TORSDO>
F 3

$$$$
=
 OpenBabel11052412403D

 25 28  0  0  1  0  0  0  0  0999 V2000
  188.0400  177.8170  144.7690 C   0  0  0  0  0  0  0  0  0  0  0  0
  187.6950  178.1390  143.4450 C   0  0  0  0  0  0  0  0  0  0  0  0
  185.8100  178.2660  145.4980 N   0  0  0  0  0  0  0  0  0  0  0  0
  189.3220  177.4240  145.2480 N   0  0  0  0  0  0  0  0  0  0  0  0
  188.8450  177.2910  139.9750 N   0  0  0  0  0  2  0  0  0  0  0  0
  191.6790  176.7240  146.6460 C   0  0  0  0  0  2  0  0  0  0  0  0
  185.4390  178.5910  144.2290 C   0  0  0  0  0  3  0  0  0  0  0  0
  189.2750  177.2330  146.6620 C   0  0  0  0  0  0  0  0  0  0  0  0
  190.3530  176.8490  147.3440 C   0  0  0  0  0  3  0  0  0  0  0  0
  185.9930  178.9290  141.7660 C   0  0  2  0  0  3  0  0  0  0  0  0
  184.5340  178.6520  141.4420 C   0  0  0  0  0  1  0  0  0  0  0  0
  188.7110  178.1700  142.3380 C   0  0  0  0  0  2  0  0  0  0  0  0
  191.5010  176.3060  145.1830 C   0  0  0  0  0  2  0  0  0  0  0  0
  187.0810  177.8770  145.7680 C   0  0  0  0  0  0  0  0  0  0  0  0
  187.6580  177.4490  147.4130 S   0  0  0  0  0  0  0  0  0  0  0  0
  186.8360  178.2520  140.7780 N   0  0  0  0  0  0  0  0  0  0  0  0
  190.5550  177.2760  144.4740 C   0  0  0  0  0  2  0  0  0  0  0  0
  188.0730  177.9140  141.0030 C   0  0  0  0  0  0  0  0  0  0  0  0
  186.3630  178.5150  143.1720 C   0  0  0  0  0  0  0  0  0  0  0  0
  188.3490  177.0960  138.7230 O   0  0  0  0  0  0  0  0  0  0  0  0
  189.3730  177.4260  137.8110 C   0  0  2  0  0  3  0  0  0  0  0  0
  190.6140  177.5090  138.4270 F   0  0  0  0  0  0  0  0  0  0  0  0
  189.0560  178.6680  137.0350 C   0  0  0  0  0  0  0  0  0  0  0  0
  189.0440  179.7510  137.5960 O   0  0  0  0  0  0  0  0  0  0  0  0
  188.7690  178.5950  135.7090 F   0  0  0  0  0  0  0  0  0  0  0  0
  1  4  1  0  0  0  0
  1 14  1  0  0  0  0
  2  1  2  0  0  0  0
  3 14  2  0  0  0  0
  4  8  1  0  0  0  0
  5 18  1  0  0  0  0
  6  9  1  0  0  0  0
  7  3  1  0  0  0  0
  8  9  2  0  0  0  0
  8 15  1  0  0  0  0
 10 11  1  6  0  0  0
 10 19  1  0  0  0  0
 12  2  1  0  0  0  0
 13  6  1  0  0  0  0
 14 15  1  0  0  0  0
 16 18  2  0  0  0  0
 16 10  1  0  0  0  0
 17 13  1  0  0  0  0
 17  4  1  0  0  0  0
 18 12  1  0  0  0  0
 19  2  1  0  0  0  0
 19  7  2  0  0  0  0
 20  5  1  0  0  0  0
 21 22  1  1  0  0  0
 21 20  1  0  0  0  0
 23 24  2  0  0  0  0
 23 21  1  0  0  0  0
 25 23  1  0  0  0  0
M  END
>  <MODEL>
8

>  <REMARK>
 VINA RESULT:      -8.2      3.880      6.657
  Name = 
  3 active torsions:
  status: ('A' for Active; 'I' for Inactive)
    1  A    between atoms: C_2  and  C_21
    2  A    between atoms: N_6  and  O_15
    3  A    between atoms: O_15  and  C_21
                            x       y       z     vdW  Elec       q    Type
                         _______ _______ _______ _____ _____    ______ ____

>  <TORSDO>
F 3

$$$$
=
 OpenBabel11052412403D

 25 28  0  0  1  0  0  0  0  0999 V2000
  188.2030  177.7130  144.6290 C   0  0  0  0  0  0  0  0  0  0  0  0
  187.9460  178.0500  143.2890 C   0  0  0  0  0  0  0  0  0  0  0  0
  185.9190  178.1150  145.2050 N   0  0  0  0  0  0  0  0  0  0  0  0
  189.4540  177.3320  145.1910 N   0  0  0  0  0  0  0  0  0  0  0  0
  189.3520  177.2770  139.8960 N   0  0  0  0  0  2  0  0  0  0  0  0
  191.7190  176.6470  146.7420 C   0  0  0  0  0  2  0  0  0  0  0  0
  185.6330  178.4540  143.9180 C   0  0  0  0  0  3  0  0  0  0  0  0
  189.3110  177.1180  146.5950 C   0  0  0  0  0  0  0  0  0  0  0  0
  190.3440  176.7410  147.3460 C   0  0  0  0  0  3  0  0  0  0  0  0
  186.3540  178.8400  141.5050 C   0  0  2  0  0  3  0  0  0  0  0  0
  184.9260  178.5460  141.0750 C   0  0  0  0  0  1  0  0  0  0  0  0
  189.0380  178.1150  142.2560 C   0  0  0  0  0  2  0  0  0  0  0  0
  191.6510  176.2500  145.2640 C   0  0  0  0  0  2  0  0  0  0  0  0
  187.1750  177.7420  145.5580 C   0  0  0  0  0  0  0  0  0  0  0  0
  187.6420  177.2960  147.2330 S   0  0  0  0  0  0  0  0  0  0  0  0
  187.2760  178.1930  140.5690 N   0  0  0  0  0  0  0  0  0  0  0  0
  190.7410  177.2160  144.5040 C   0  0  0  0  0  2  0  0  0  0  0  0
  188.4990  177.8710  140.8760 C   0  0  0  0  0  0  0  0  0  0  0  0
  186.6310  178.4100  142.9270 C   0  0  0  0  0  0  0  0  0  0  0  0
  188.9490  177.0930  138.6100 O   0  0  0  0  0  0  0  0  0  0  0  0
  190.1080  177.0850  137.8050 C   0  0  2  0  0  3  0  0  0  0  0  0
  189.8090  176.9100  136.4610 F   0  0  0  0  0  0  0  0  0  0  0  0
  191.1180  176.0870  138.2830 C   0  0  0  0  0  0  0  0  0  0  0  0
  190.9070  174.8930  138.1460 O   0  0  0  0  0  0  0  0  0  0  0  0
  192.2650  176.5020  138.8800 F   0  0  0  0  0  0  0  0  0  0  0  0
  1  4  1  0  0  0  0
  1 14  1  0  0  0  0
  2  1  2  0  0  0  0
  3 14  2  0  0  0  0
  4  8  1  0  0  0  0
  5 18  1  0  0  0  0
  6  9  1  0  0  0  0
  7  3  1  0  0  0  0
  8 15  1  0  0  0  0
  8  9  2  0  0  0  0
 10 11  1  6  0  0  0
 10 19  1  0  0  0  0
 12  2  1  0  0  0  0
 13  6  1  0  0  0  0
 14 15  1  0  0  0  0
 16 18  2  0  0  0  0
 16 10  1  0  0  0  0
 17  4  1  0  0  0  0
 17 13  1  0  0  0  0
 18 12  1  0  0  0  0
 19  2  1  0  0  0  0
 19  7  2  0  0  0  0
 20  5  1  0  0  0  0
 21 22  1  6  0  0  0
 21 23  1  0  0  0  0
 21 20  1  0  0  0  0
 23 25  1  0  0  0  0
 24 23  2  0  0  0  0
M  END
>  <MODEL>
9

>  <REMARK>
 VINA RESULT:      -8.1      3.851      6.362
  Name = 
  3 active torsions:
  status: ('A' for Active; 'I' for Inactive)
    1  A    between atoms: C_2  and  C_21
    2  A    between atoms: N_6  and  O_15
    3  A    between atoms: O_15  and  C_21
                            x       y       z     vdW  Elec       q    Type
                         _______ _______ _______ _____ _____    ______ ____

>  <TORSDO>
F 3

$$$$
