=
 OpenBabel11052414263D

 34 38  0  0  1  0  0  0  0  0999 V2000
  190.1860  177.2590  146.9310 C   0  0  0  0  0  0  0  0  0  0  0  0
  191.6500  175.8240  145.6110 C   0  0  0  0  0  0  0  0  0  0  0  0
  189.7460  177.0960  144.5400 C   0  0  0  0  0  0  0  0  0  0  0  0
  189.3320  177.7590  142.1340 C   0  0  1  0  0  3  0  0  0  0  0  0
  191.0060  177.0640  148.0430 C   0  0  0  0  0  3  0  0  0  0  0  0
  192.4480  175.6380  146.7430 C   0  0  0  0  0  3  0  0  0  0  0  0
  191.6210  177.3360  142.8350 C   0  0  0  0  0  2  0  0  0  0  0  0
  190.5450  176.7230  145.6630 C   0  0  0  0  0  0  0  0  0  0  0  0
  192.0120  176.9760  141.3990 C   0  0  0  0  0  2  0  0  0  0  0  0
  189.6200  177.3740  140.6910 C   0  0  0  0  0  2  0  0  0  0  0  0
  192.1490  176.2770  147.9440 C   0  0  0  0  0  3  0  0  0  0  0  0
  188.4760  177.6710  144.7800 C   0  0  0  0  0  0  0  0  0  0  0  0
  189.0170  177.9270  147.0910 N   0  0  0  0  0  0  0  0  0  0  0  0
  191.9480  174.7000  144.2890 Cl  0  0  0  0  0  0  0  0  0  0  0  0
  187.9110  177.7100  142.4400 N   0  0  0  0  0  0  0  0  0  0  0  0
  187.4920  177.7690  143.6670 C   0  0  0  0  0  0  0  0  0  0  0  0
  191.0920  177.6720  140.3910 C   0  0  2  0  0  3  0  0  0  0  0  0
  190.1740  176.9010  143.0890 C   0  0  1  0  0  3  0  0  0  0  0  0
  188.1480  178.1000  146.0670 C   0  0  0  0  0  3  0  0  0  0  0  0
  183.7640  178.3210  142.9140 C   0  0  2  0  0  3  0  0  0  0  0  0
  183.4430  179.2180  144.1070 C   0  0  0  0  0  2  0  0  0  0  0  0
  186.0120  177.8270  143.9060 C   0  0  2  0  0  3  0  0  0  0  0  0
  184.1660  178.7150  145.3520 C   0  0  0  0  0  2  0  0  0  0  0  0
  185.2670  178.3010  142.6570 C   0  0  0  0  0  2  0  0  0  0  0  0
  185.6740  178.6980  145.1170 C   0  0  0  0  0  2  0  0  0  0  0  0
  183.1100  178.7940  141.7930 F   0  0  0  0  0  0  0  0  0  0  0  0
  191.4470  177.2180  138.9850 C   0  0  0  0  0  2  0  0  0  0  0  0
  190.1760  176.0900  138.3330 S   0  0  0  0  0  0  0  0  0  0  0  0
  190.4390  176.2660  135.7170 O   0  0  0  0  0  1  0  0  0  0  0  0
  189.9840  177.0330  136.7920 C   0  0  1  0  0  3  0  0  0  0  0  0
  188.5180  177.3780  136.5960 C   0  0  0  0  0  2  0  0  0  0  0  0
  188.9450  179.6600  137.5060 O   0  0  0  0  0  0  0  0  0  0  0  0
  188.1350  178.5340  137.4550 C   0  0  0  0  0  0  0  0  0  0  0  0
  187.0630  178.5010  138.1130 O   0  0  0  0  0  1  0  0  0  0  0  0
  1 13  1  0  0  0  0
  1  5  2  0  0  0  0
  2  8  2  0  0  0  0
  2  6  1  0  0  0  0
  3 12  2  0  0  0  0
  3  8  1  0  0  0  0
  4 10  1  6  0  0  0
  4 15  1  0  0  0  0
  4 18  1  0  0  0  0
  6 11  2  0  0  0  0
  8  1  1  0  0  0  0
  9  7  1  0  0  0  0
 11  5  1  0  0  0  0
 12 19  1  0  0  0  0
 14  2  1  0  0  0  0
 15 16  2  0  0  0  0
 16 12  1  0  0  0  0
 17 27  1  6  0  0  0
 17 10  1  0  0  0  0
 17  9  1  0  0  0  0
 18  7  1  1  0  0  0
 18  3  1  0  0  0  0
 19 13  2  0  0  0  0
 20 26  1  6  0  0  0
 20 21  1  0  0  0  0
 21 23  1  0  0  0  0
 22 16  1  6  0  0  0
 22 25  1  0  0  0  0
 24 20  1  0  0  0  0
 24 22  1  0  0  0  0
 25 23  1  0  0  0  0
 28 27  1  0  0  0  0
 30 29  1  6  0  0  0
 30 28  1  0  0  0  0
 31 30  1  0  0  0  0
 31 33  1  0  0  0  0
 33 32  2  0  0  0  0
 33 34  1  0  0  0  0
M  END
>  <MODEL>
1

>  <REMARK>
 VINA RESULT:      -9.7      0.000      0.000
  Name = 
  6 active torsions:
  status: ('A' for Active; 'I' for Inactive)
    1  A    between atoms: C_3  and  S_13
    2  A    between atoms: C_3  and  C_29
    3  A    between atoms: C_12  and  C_28
    4  A    between atoms: S_13  and  C_33
    5  A    between atoms: C_20  and  C_22
    6  A    between atoms: C_22  and  C_33
                            x       y       z     vdW  Elec       q    Type
                         _______ _______ _______ _____ _____    ______ ____

>  <TORSDO>
F 6

$$$$
=
 OpenBabel11052414263D

 34 38  0  0  1  0  0  0  0  0999 V2000
  190.2160  177.2280  146.9830 C   0  0  0  0  0  0  0  0  0  0  0  0
  191.6660  175.8160  145.6250 C   0  0  0  0  0  0  0  0  0  0  0  0
  189.7510  177.1030  144.5950 C   0  0  0  0  0  0  0  0  0  0  0  0
  189.3110  177.8030  142.2030 C   0  0  1  0  0  3  0  0  0  0  0  0
  191.0480  177.0160  148.0830 C   0  0  0  0  0  3  0  0  0  0  0  0
  192.4770  175.6120  146.7460 C   0  0  0  0  0  3  0  0  0  0  0  0
  191.6070  177.3700  142.8730 C   0  0  0  0  0  2  0  0  0  0  0  0
  190.5610  176.7120  145.7020 C   0  0  0  0  0  0  0  0  0  0  0  0
  191.9830  177.0330  141.4280 C   0  0  0  0  0  2  0  0  0  0  0  0
  189.5830  177.4410  140.7520 C   0  0  0  0  0  2  0  0  0  0  0  0
  192.1900  176.2320  147.9590 C   0  0  0  0  0  3  0  0  0  0  0  0
  188.4830  177.6730  144.8570 C   0  0  0  0  0  0  0  0  0  0  0  0
  189.0480  177.8930  147.1650 N   0  0  0  0  0  0  0  0  0  0  0  0
  191.9510  174.7120  144.2820 Cl  0  0  0  0  0  0  0  0  0  0  0  0
  187.8920  177.7480  142.5240 N   0  0  0  0  0  0  0  0  0  0  0  0
  187.4870  177.7880  143.7560 C   0  0  0  0  0  0  0  0  0  0  0  0
  191.0520  177.7440  140.4410 C   0  0  2  0  0  3  0  0  0  0  0  0
  190.1630  176.9300  143.1360 C   0  0  1  0  0  3  0  0  0  0  0  0
  188.1680  178.0810  146.1540 C   0  0  0  0  0  3  0  0  0  0  0  0
  183.7460  178.2930  143.0350 C   0  0  2  0  0  3  0  0  0  0  0  0
  183.4320  179.2180  144.2080 C   0  0  0  0  0  2  0  0  0  0  0  0
  186.0090  177.8410  144.0110 C   0  0  2  0  0  3  0  0  0  0  0  0
  184.1750  178.7510  145.4570 C   0  0  0  0  0  2  0  0  0  0  0  0
  185.2460  178.2770  142.7600 C   0  0  0  0  0  2  0  0  0  0  0  0
  185.6800  178.7400  145.2040 C   0  0  0  0  0  2  0  0  0  0  0  0
  183.0750  178.7330  141.9100 F   0  0  0  0  0  0  0  0  0  0  0  0
  191.3930  177.3130  139.0240 C   0  0  0  0  0  2  0  0  0  0  0  0
  190.0490  176.3080  138.3180 S   0  0  0  0  0  0  0  0  0  0  0  0
  190.4170  173.8420  137.4670 O   0  0  0  0  0  1  0  0  0  0  0  0
  191.1680  174.9540  137.8520 C   0  0  1  0  0  3  0  0  0  0  0  0
  192.0480  175.4060  136.7010 C   0  0  0  0  0  2  0  0  0  0  0  0
  194.4150  176.1870  136.7850 O   0  0  0  0  0  0  0  0  0  0  0  0
  193.4850  175.1840  137.0250 C   0  0  0  0  0  0  0  0  0  0  0  0
  193.8540  174.0980  137.5430 O   0  0  0  0  0  1  0  0  0  0  0  0
  1 13  1  0  0  0  0
  1  5  2  0  0  0  0
  2  8  2  0  0  0  0
  2  6  1  0  0  0  0
  3 12  2  0  0  0  0
  3  8  1  0  0  0  0
  4 10  1  6  0  0  0
  4 15  1  0  0  0  0
  4 18  1  0  0  0  0
  6 11  2  0  0  0  0
  8  1  1  0  0  0  0
  9  7  1  0  0  0  0
 11  5  1  0  0  0  0
 12 19  1  0  0  0  0
 14  2  1  0  0  0  0
 15 16  2  0  0  0  0
 16 12  1  0  0  0  0
 17 27  1  6  0  0  0
 17 10  1  0  0  0  0
 17  9  1  0  0  0  0
 18  7  1  1  0  0  0
 18  3  1  0  0  0  0
 19 13  2  0  0  0  0
 20 26  1  6  0  0  0
 20 21  1  0  0  0  0
 21 23  1  0  0  0  0
 22 16  1  6  0  0  0
 22 25  1  0  0  0  0
 24 20  1  0  0  0  0
 24 22  1  0  0  0  0
 25 23  1  0  0  0  0
 28 27  1  0  0  0  0
 30 29  1  6  0  0  0
 30 28  1  0  0  0  0
 31 33  1  0  0  0  0
 31 30  1  0  0  0  0
 32 33  2  0  0  0  0
 33 34  1  0  0  0  0
M  END
>  <MODEL>
2

>  <REMARK>
 VINA RESULT:      -9.3      1.829      2.306
  Name = 
  6 active torsions:
  status: ('A' for Active; 'I' for Inactive)
    1  A    between atoms: C_3  and  S_13
    2  A    between atoms: C_3  and  C_29
    3  A    between atoms: C_12  and  C_28
    4  A    between atoms: S_13  and  C_33
    5  A    between atoms: C_20  and  C_22
    6  A    between atoms: C_22  and  C_33
                            x       y       z     vdW  Elec       q    Type
                         _______ _______ _______ _____ _____    ______ ____

>  <TORSDO>
F 6

$$$$
=
 OpenBabel11052414263D

 34 38  0  0  1  0  0  0  0  0999 V2000
  185.2990  178.7210  145.1290 C   0  0  0  0  0  0  0  0  0  0  0  0
  187.3160  177.4270  144.6820 C   0  0  0  0  0  0  0  0  0  0  0  0
  185.8380  178.2440  142.8020 C   0  0  0  0  0  0  0  0  0  0  0  0
  186.3090  178.5790  140.3380 C   0  0  1  0  0  3  0  0  0  0  0  0
  185.6430  178.7820  146.4800 C   0  0  0  0  0  3  0  0  0  0  0  0
  187.6320  177.4950  146.0420 C   0  0  0  0  0  3  0  0  0  0  0  0
  188.1830  178.6210  141.8860 C   0  0  0  0  0  2  0  0  0  0  0  0
  186.1790  178.1260  144.1820 C   0  0  0  0  0  0  0  0  0  0  0  0
  189.1370  178.1870  140.7700 C   0  0  0  0  0  2  0  0  0  0  0  0
  187.1740  178.1020  139.1820 C   0  0  0  0  0  2  0  0  0  0  0  0
  186.8200  178.1930  146.9320 C   0  0  0  0  0  3  0  0  0  0  0  0
  184.5150  178.6170  142.4650 C   0  0  0  0  0  0  0  0  0  0  0  0
  184.0890  179.1950  144.7410 N   0  0  0  0  0  0  0  0  0  0  0  0
  188.2310  176.2400  143.7570 Cl  0  0  0  0  0  0  0  0  0  0  0  0
  184.8960  178.3210  140.1060 N   0  0  0  0  0  0  0  0  0  0  0  0
  184.0320  178.4340  141.0680 C   0  0  0  0  0  0  0  0  0  0  0  0
  188.6020  178.6120  139.3980 C   0  0  2  0  0  3  0  0  0  0  0  0
  186.8120  177.9760  141.6580 C   0  0  1  0  0  3  0  0  0  0  0  0
  183.6680  179.1140  143.4570 C   0  0  0  0  0  3  0  0  0  0  0  0
  180.8410  176.7860  139.7010 C   0  0  2  0  0  3  0  0  0  0  0  0
  180.3330  177.9680  138.8810 C   0  0  0  0  0  2  0  0  0  0  0  0
  182.5790  178.2650  140.7360 C   0  0  2  0  0  3  0  0  0  0  0  0
  180.5600  179.2710  139.6420 C   0  0  0  0  0  2  0  0  0  0  0  0
  182.3280  176.9490  139.9990 C   0  0  0  0  0  2  0  0  0  0  0  0
  182.0450  179.4570  139.9400 C   0  0  0  0  0  2  0  0  0  0  0  0
  180.6390  175.6150  138.9950 F   0  0  0  0  0  0  0  0  0  0  0  0
  189.5230  178.0840  138.3110 C   0  0  0  0  0  2  0  0  0  0  0  0
  189.1210  176.3530  137.9130 S   0  0  0  0  0  0  0  0  0  0  0  0
  190.9170  174.4270  137.9500 O   0  0  0  0  0  1  0  0  0  0  0  0
  190.7830  175.7600  138.3420 C   0  0  1  0  0  3  0  0  0  0  0  0
  191.8180  176.6140  137.6300 C   0  0  0  0  0  2  0  0  0  0  0  0
  194.1240  175.6670  137.6570 O   0  0  0  0  0  0  0  0  0  0  0  0
  193.1550  176.4510  138.2670 C   0  0  0  0  0  0  0  0  0  0  0  0
  193.4170  177.0470  139.3440 O   0  0  0  0  0  1  0  0  0  0  0  0
  1  5  2  0  0  0  0
  2  6  1  0  0  0  0
  3  8  1  0  0  0  0
  4 10  1  6  0  0  0
  4 18  1  0  0  0  0
  5 11  1  0  0  0  0
  6 11  2  0  0  0  0
  8  2  2  0  0  0  0
  8  1  1  0  0  0  0
  9  7  1  0  0  0  0
 10 17  1  0  0  0  0
 12  3  2  0  0  0  0
 12 19  1  0  0  0  0
 13  1  1  0  0  0  0
 14  2  1  0  0  0  0
 15  4  1  0  0  0  0
 15 16  2  0  0  0  0
 16 12  1  0  0  0  0
 17 27  1  6  0  0  0
 17  9  1  0  0  0  0
 18  7  1  1  0  0  0
 18  3  1  0  0  0  0
 19 13  2  0  0  0  0
 20 26  1  6  0  0  0
 20 24  1  0  0  0  0
 21 23  1  0  0  0  0
 21 20  1  0  0  0  0
 22 16  1  6  0  0  0
 23 25  1  0  0  0  0
 24 22  1  0  0  0  0
 25 22  1  0  0  0  0
 28 27  1  0  0  0  0
 28 30  1  0  0  0  0
 30 29  1  6  0  0  0
 31 33  1  0  0  0  0
 31 30  1  0  0  0  0
 32 33  2  0  0  0  0
 33 34  1  0  0  0  0
M  END
>  <MODEL>
3

>  <REMARK>
 VINA RESULT:      -9.3      3.091      4.691
  Name = 
  6 active torsions:
  status: ('A' for Active; 'I' for Inactive)
    1  A    between atoms: C_3  and  S_13
    2  A    between atoms: C_3  and  C_29
    3  A    between atoms: C_12  and  C_28
    4  A    between atoms: S_13  and  C_33
    5  A    between atoms: C_20  and  C_22
    6  A    between atoms: C_22  and  C_33
                            x       y       z     vdW  Elec       q    Type
                         _______ _______ _______ _____ _____    ______ ____

>  <TORSDO>
F 6

$$$$
=
 OpenBabel11052414263D

 34 38  0  0  1  0  0  0  0  0999 V2000
  186.9570  178.2040  146.0450 C   0  0  0  0  0  0  0  0  0  0  0  0
  188.7440  176.9500  144.9610 C   0  0  0  0  0  0  0  0  0  0  0  0
  186.8670  177.9840  143.6210 C   0  0  0  0  0  0  0  0  0  0  0  0
  186.7090  178.5880  141.1680 C   0  0  1  0  0  3  0  0  0  0  0  0
  187.6360  178.1100  147.2610 C   0  0  0  0  0  3  0  0  0  0  0  0
  189.3980  176.8620  146.1940 C   0  0  0  0  0  3  0  0  0  0  0  0
  188.9150  178.4400  142.1780 C   0  0  0  0  0  2  0  0  0  0  0  0
  187.5450  177.7110  144.8470 C   0  0  0  0  0  0  0  0  0  0  0  0
  189.5360  178.1250  140.8150 C   0  0  0  0  0  2  0  0  0  0  0  0
  187.2320  178.2360  139.7850 C   0  0  0  0  0  2  0  0  0  0  0  0
  188.8660  177.4640  147.3310 C   0  0  0  0  0  3  0  0  0  0  0  0
  185.5180  178.4060  143.6770 C   0  0  0  0  0  0  0  0  0  0  0  0
  185.7070  178.7300  146.0340 N   0  0  0  0  0  0  0  0  0  0  0  0
  189.3480  175.8650  143.7120 Cl  0  0  0  0  0  0  0  0  0  0  0  0
  185.2740  178.3710  141.2820 N   0  0  0  0  0  0  0  0  0  0  0  0
  184.6890  178.3840  142.4400 C   0  0  0  0  0  0  0  0  0  0  0  0
  188.6870  178.7050  139.6800 C   0  0  2  0  0  3  0  0  0  0  0  0
  187.5080  177.8370  142.2440 C   0  0  1  0  0  3  0  0  0  0  0  0
  184.9710  178.7960  144.9000 C   0  0  0  0  0  3  0  0  0  0  0  0
  181.0650  178.4000  141.1610 C   0  0  2  0  0  3  0  0  0  0  0  0
  180.4760  179.3260  142.2210 C   0  0  0  0  0  2  0  0  0  0  0  0
  183.1940  178.2660  142.4770 C   0  0  2  0  0  3  0  0  0  0  0  0
  181.0710  179.0040  143.5890 C   0  0  0  0  0  2  0  0  0  0  0  0
  182.5810  178.5560  141.1060 C   0  0  0  0  0  2  0  0  0  0  0  0
  182.5880  179.1660  143.5560 C   0  0  0  0  0  2  0  0  0  0  0  0
  180.5240  178.7090  139.9280 F   0  0  0  0  0  0  0  0  0  0  0  0
  189.2800  178.2930  138.3430 C   0  0  0  0  0  2  0  0  0  0  0  0
  188.8280  176.5760  137.9410 S   0  0  0  0  0  0  0  0  0  0  0  0
  190.5550  174.5860  137.9690 O   0  0  0  0  0  1  0  0  0  0  0  0
  190.5100  175.9550  138.2380 C   0  0  1  0  0  3  0  0  0  0  0  0
  191.4820  176.6920  137.3350 C   0  0  0  0  0  2  0  0  0  0  0  0
  192.9550  176.8800  139.3370 O   0  0  0  0  0  1  0  0  0  0  0  0
  192.8320  176.7530  137.9610 C   0  0  0  0  0  0  0  0  0  0  0  0
  193.8640  176.6600  137.2450 O   0  0  0  0  0  0  0  0  0  0  0  0
  1  5  2  0  0  0  0
  2  6  1  0  0  0  0
  3 12  2  0  0  0  0
  3  8  1  0  0  0  0
  4 10  1  6  0  0  0
  4 15  1  0  0  0  0
  4 18  1  0  0  0  0
  5 11  1  0  0  0  0
  6 11  2  0  0  0  0
  8  2  2  0  0  0  0
  8  1  1  0  0  0  0
  9  7  1  0  0  0  0
 12 19  1  0  0  0  0
 13  1  1  0  0  0  0
 14  2  1  0  0  0  0
 15 16  2  0  0  0  0
 16 12  1  0  0  0  0
 17 27  1  6  0  0  0
 17 10  1  0  0  0  0
 17  9  1  0  0  0  0
 18  7  1  1  0  0  0
 18  3  1  0  0  0  0
 19 13  2  0  0  0  0
 20 26  1  6  0  0  0
 20 21  1  0  0  0  0
 21 23  1  0  0  0  0
 22 16  1  6  0  0  0
 22 25  1  0  0  0  0
 24 20  1  0  0  0  0
 24 22  1  0  0  0  0
 25 23  1  0  0  0  0
 28 30  1  0  0  0  0
 28 27  1  0  0  0  0
 30 29  1  6  0  0  0
 31 33  1  0  0  0  0
 31 30  1  0  0  0  0
 33 32  1  0  0  0  0
 34 33  2  0  0  0  0
M  END
>  <MODEL>
4

>  <REMARK>
 VINA RESULT:      -9.1      2.346      3.433
  Name = 
  6 active torsions:
  status: ('A' for Active; 'I' for Inactive)
    1  A    between atoms: C_3  and  S_13
    2  A    between atoms: C_3  and  C_29
    3  A    between atoms: C_12  and  C_28
    4  A    between atoms: S_13  and  C_33
    5  A    between atoms: C_20  and  C_22
    6  A    between atoms: C_22  and  C_33
                            x       y       z     vdW  Elec       q    Type
                         _______ _______ _______ _____ _____    ______ ____

>  <TORSDO>
F 6

$$$$
=
 OpenBabel11052414263D

 34 38  0  0  1  0  0  0  0  0999 V2000
  188.7980  177.1200  146.0910 C   0  0  0  0  0  0  0  0  0  0  0  0
  187.1180  178.6090  147.0410 C   0  0  0  0  0  0  0  0  0  0  0  0
  187.1440  178.0650  144.5720 C   0  0  0  0  0  0  0  0  0  0  0  0
  185.3370  178.2350  142.8100 C   0  0  1  0  0  3  0  0  0  0  0  0
  189.2580  176.8280  147.3760 C   0  0  0  0  0  3  0  0  0  0  0  0
  187.6050  178.3070  148.3150 C   0  0  0  0  0  3  0  0  0  0  0  0
  184.6620  178.0280  145.1360 C   0  0  0  0  0  2  0  0  0  0  0  0
  187.6520  177.9410  145.9010 C   0  0  0  0  0  0  0  0  0  0  0  0
  183.3360  178.7280  144.8320 C   0  0  0  0  0  2  0  0  0  0  0  0
  184.0670  178.9790  142.4270 C   0  0  0  0  0  2  0  0  0  0  0  0
  188.6470  177.3990  148.4870 C   0  0  0  0  0  3  0  0  0  0  0  0
  187.9750  177.6730  143.4960 C   0  0  0  0  0  0  0  0  0  0  0  0
  189.4920  176.6470  145.0260 N   0  0  0  0  0  0  0  0  0  0  0  0
  186.0520  180.0090  146.9560 Cl  0  0  0  0  0  0  0  0  0  0  0  0
  186.4020  178.4350  141.8390 N   0  0  0  0  0  0  0  0  0  0  0  0
  187.6220  178.0840  142.1080 C   0  0  0  0  0  0  0  0  0  0  0  0
  182.9400  178.5360  143.3640 C   0  0  2  0  0  3  0  0  0  0  0  0
  185.7590  178.6090  144.2380 C   0  0  1  0  0  3  0  0  0  0  0  0
  189.1350  176.9410  143.7540 C   0  0  0  0  0  3  0  0  0  0  0  0
  189.0560  178.5720  138.5760 C   0  0  2  0  0  3  0  0  0  0  0  0
  189.9800  177.3580  138.5590 C   0  0  0  0  0  2  0  0  0  0  0  0
  188.6500  178.2140  141.0240 C   0  0  2  0  0  3  0  0  0  0  0  0
  190.6540  177.1920  139.9180 C   0  0  0  0  0  2  0  0  0  0  0  0
  187.9920  178.4120  139.6580 C   0  0  0  0  0  2  0  0  0  0  0  0
  189.6040  177.0180  141.0110 C   0  0  0  0  0  2  0  0  0  0  0  0
  188.4450  178.7040  137.3440 F   0  0  0  0  0  0  0  0  0  0  0  0
  181.6720  179.3220  143.0750 C   0  0  0  0  0  2  0  0  0  0  0  0
  181.0650  178.9680  141.3950 S   0  0  0  0  0  0  0  0  0  0  0  0
  178.9310  178.4470  142.8490 O   0  0  0  0  0  1  0  0  0  0  0  0
  179.8110  177.7930  141.9850 C   0  0  1  0  0  3  0  0  0  0  0  0
  179.0490  177.2370  140.7960 C   0  0  0  0  0  2  0  0  0  0  0  0
  178.9350  174.8750  141.5880 O   0  0  0  0  0  1  0  0  0  0  0  0
  179.3400  175.7860  140.6220 C   0  0  0  0  0  0  0  0  0  0  0  0
  179.9290  175.3810  139.5850 O   0  0  0  0  0  0  0  0  0  0  0  0
  1  5  2  0  0  0  0
  2  6  1  0  0  0  0
  3  8  1  0  0  0  0
  4 10  1  6  0  0  0
  4 18  1  0  0  0  0
  5 11  1  0  0  0  0
  6 11  2  0  0  0  0
  8  1  1  0  0  0  0
  8  2  2  0  0  0  0
  9  7  1  0  0  0  0
 10 17  1  0  0  0  0
 12 19  1  0  0  0  0
 12  3  2  0  0  0  0
 13  1  1  0  0  0  0
 14  2  1  0  0  0  0
 15 16  2  0  0  0  0
 15  4  1  0  0  0  0
 16 12  1  0  0  0  0
 17 27  1  6  0  0  0
 17  9  1  0  0  0  0
 18  3  1  0  0  0  0
 18  7  1  1  0  0  0
 19 13  2  0  0  0  0
 20 26  1  6  0  0  0
 20 24  1  0  0  0  0
 21 20  1  0  0  0  0
 21 23  1  0  0  0  0
 22 16  1  1  0  0  0
 23 25  1  0  0  0  0
 24 22  1  0  0  0  0
 25 22  1  0  0  0  0
 28 30  1  0  0  0  0
 28 27  1  0  0  0  0
 30 29  1  1  0  0  0
 31 30  1  0  0  0  0
 33 31  1  0  0  0  0
 33 32  1  0  0  0  0
 34 33  2  0  0  0  0
M  END
>  <MODEL>
5

>  <REMARK>
 VINA RESULT:      -9.1      4.186      7.162
  Name = 
  6 active torsions:
  status: ('A' for Active; 'I' for Inactive)
    1  A    between atoms: C_3  and  S_13
    2  A    between atoms: C_3  and  C_29
    3  A    between atoms: C_12  and  C_28
    4  A    between atoms: S_13  and  C_33
    5  A    between atoms: C_20  and  C_22
    6  A    between atoms: C_22  and  C_33
                            x       y       z     vdW  Elec       q    Type
                         _______ _______ _______ _____ _____    ______ ____

>  <TORSDO>
F 6

$$$$
=
 OpenBabel11052414263D

 34 38  0  0  1  0  0  0  0  0999 V2000
  191.4270  175.9920  145.2740 C   0  0  0  0  0  0  0  0  0  0  0  0
  190.2400  177.3450  146.9170 C   0  0  0  0  0  0  0  0  0  0  0  0
  189.4180  177.1550  144.5350 C   0  0  0  0  0  0  0  0  0  0  0  0
  187.1400  177.5860  143.5200 C   0  0  1  0  0  3  0  0  0  0  0  0
  192.2700  175.5180  146.2800 C   0  0  0  0  0  3  0  0  0  0  0  0
  191.1050  176.8620  147.9040 C   0  0  0  0  0  3  0  0  0  0  0  0
  187.2640  177.0580  145.8890 C   0  0  0  0  0  2  0  0  0  0  0  0
  190.3290  176.8410  145.5870 C   0  0  0  0  0  0  0  0  0  0  0  0
  185.9520  177.8050  146.1420 C   0  0  0  0  0  2  0  0  0  0  0  0
  185.8590  178.3870  143.6850 C   0  0  0  0  0  2  0  0  0  0  0  0
  192.0930  175.9310  147.5960 C   0  0  0  0  0  3  0  0  0  0  0  0
  189.8220  176.9120  143.2010 C   0  0  0  0  0  0  0  0  0  0  0  0
  191.7020  175.6680  143.9860 N   0  0  0  0  0  0  0  0  0  0  0  0
  189.2850  178.7510  147.3790 Cl  0  0  0  0  0  0  0  0  0  0  0  0
  187.8340  177.9130  142.2830 N   0  0  0  0  0  0  0  0  0  0  0  0
  189.0530  177.5170  142.0780 C   0  0  0  0  0  0  0  0  0  0  0  0
  185.0830  177.8250  144.8810 C   0  0  2  0  0  3  0  0  0  0  0  0
  188.0320  177.7520  144.7590 C   0  0  1  0  0  3  0  0  0  0  0  0
  190.9600  176.1420  142.9570 C   0  0  0  0  0  3  0  0  0  0  0  0
  189.2860  178.6240  138.4050 C   0  0  2  0  0  3  0  0  0  0  0  0
  189.9610  177.3700  137.8550 C   0  0  0  0  0  2  0  0  0  0  0  0
  189.6680  177.7900  140.7380 C   0  0  2  0  0  3  0  0  0  0  0  0
  191.0160  176.8680  138.8360 C   0  0  0  0  0  2  0  0  0  0  0  0
  188.6310  178.3240  139.7500 C   0  0  0  0  0  2  0  0  0  0  0  0
  190.3760  176.5520  140.1850 C   0  0  0  0  0  2  0  0  0  0  0  0
  188.3270  179.0600  137.5120 F   0  0  0  0  0  0  0  0  0  0  0  0
  183.8360  178.6540  145.1390 C   0  0  0  0  0  2  0  0  0  0  0  0
  183.6960  180.0000  143.9220 S   0  0  0  0  0  0  0  0  0  0  0  0
  182.5090  178.5040  142.1070 O   0  0  0  0  0  1  0  0  0  0  0  0
  182.1780  179.3200  143.1900 C   0  0  1  0  0  3  0  0  0  0  0  0
  181.4360  178.5100  144.2390 C   0  0  0  0  0  2  0  0  0  0  0  0
  179.5070  177.5360  142.9960 O   0  0  0  0  0  0  0  0  0  0  0  0
  179.9820  178.4540  143.9220 C   0  0  0  0  0  0  0  0  0  0  0  0
  179.1780  179.2210  144.5140 O   0  0  0  0  0  1  0  0  0  0  0  0
  1  8  1  0  0  0  0
  1  5  2  0  0  0  0
  2 14  1  0  0  0  0
  2  6  1  0  0  0  0
  3 18  1  0  0  0  0
  3  8  1  0  0  0  0
  4 10  1  1  0  0  0
  4 18  1  0  0  0  0
  5 11  1  0  0  0  0
  7  9  1  0  0  0  0
  8  2  2  0  0  0  0
 10 17  1  0  0  0  0
 11  6  2  0  0  0  0
 12  3  2  0  0  0  0
 13  1  1  0  0  0  0
 15  4  1  0  0  0  0
 16 15  2  0  0  0  0
 16 12  1  0  0  0  0
 17 27  1  1  0  0  0
 17  9  1  0  0  0  0
 18  7  1  1  0  0  0
 19 12  1  0  0  0  0
 19 13  2  0  0  0  0
 20 26  1  6  0  0  0
 20 24  1  0  0  0  0
 21 20  1  0  0  0  0
 21 23  1  0  0  0  0
 22 16  1  1  0  0  0
 23 25  1  0  0  0  0
 24 22  1  0  0  0  0
 25 22  1  0  0  0  0
 28 27  1  0  0  0  0
 30 29  1  6  0  0  0
 30 28  1  0  0  0  0
 30 31  1  0  0  0  0
 32 33  2  0  0  0  0
 33 31  1  0  0  0  0
 33 34  1  0  0  0  0
M  END
>  <MODEL>
6

>  <REMARK>
 VINA RESULT:      -9.1      3.624      6.665
  Name = 
  6 active torsions:
  status: ('A' for Active; 'I' for Inactive)
    1  A    between atoms: C_3  and  S_13
    2  A    between atoms: C_3  and  C_29
    3  A    between atoms: C_12  and  C_28
    4  A    between atoms: S_13  and  C_33
    5  A    between atoms: C_20  and  C_22
    6  A    between atoms: C_22  and  C_33
                            x       y       z     vdW  Elec       q    Type
                         _______ _______ _______ _____ _____    ______ ____

>  <TORSDO>
F 6

$$$$
=
 OpenBabel11052414263D

 34 38  0  0  1  0  0  0  0  0999 V2000
  188.7670  177.0890  146.0720 C   0  0  0  0  0  0  0  0  0  0  0  0
  187.1140  178.5740  147.0730 C   0  0  0  0  0  0  0  0  0  0  0  0
  187.0920  178.0650  144.5980 C   0  0  0  0  0  0  0  0  0  0  0  0
  185.2540  178.2720  142.8710 C   0  0  1  0  0  3  0  0  0  0  0  0
  189.2480  176.7760  147.3440 C   0  0  0  0  0  3  0  0  0  0  0  0
  187.6220  178.2510  148.3350 C   0  0  0  0  0  3  0  0  0  0  0  0
  184.6200  178.0350  145.2060 C   0  0  0  0  0  2  0  0  0  0  0  0
  187.6230  177.9200  145.9140 C   0  0  0  0  0  0  0  0  0  0  0  0
  183.2930  178.7480  144.9360 C   0  0  0  0  0  2  0  0  0  0  0  0
  183.9820  179.0290  142.5220 C   0  0  0  0  0  2  0  0  0  0  0  0
  188.6610  177.3350  148.4750 C   0  0  0  0  0  3  0  0  0  0  0  0
  187.9000  177.6840  143.5000 C   0  0  0  0  0  0  0  0  0  0  0  0
  189.4380  176.6270  144.9880 N   0  0  0  0  0  0  0  0  0  0  0  0
  186.0560  179.9820  147.0280 Cl  0  0  0  0  0  0  0  0  0  0  0  0
  186.3030  178.4790  141.8840 N   0  0  0  0  0  0  0  0  0  0  0  0
  187.5250  178.1170  142.1260 C   0  0  0  0  0  0  0  0  0  0  0  0
  182.8690  178.5790  143.4730 C   0  0  2  0  0  3  0  0  0  0  0  0
  185.7040  178.6230  144.2970 C   0  0  1  0  0  3  0  0  0  0  0  0
  189.0600  176.9410  143.7270 C   0  0  0  0  0  3  0  0  0  0  0  0
  188.8960  178.5600  138.5630 C   0  0  2  0  0  3  0  0  0  0  0  0
  189.8670  177.3830  138.5670 C   0  0  0  0  0  2  0  0  0  0  0  0
  188.5340  178.2560  141.0240 C   0  0  2  0  0  3  0  0  0  0  0  0
  190.5640  177.2820  139.9210 C   0  0  0  0  0  2  0  0  0  0  0  0
  187.8520  178.3890  139.6620 C   0  0  0  0  0  2  0  0  0  0  0  0
  189.5340  177.0990  141.0330 C   0  0  0  0  0  2  0  0  0  0  0  0
  188.2660  178.6330  137.3360 F   0  0  0  0  0  0  0  0  0  0  0  0
  181.6010  179.3770  143.2180 C   0  0  0  0  0  2  0  0  0  0  0  0
  180.3040  178.3140  142.5100 S   0  0  0  0  0  0  0  0  0  0  0  0
  180.0560  180.7270  141.4810 O   0  0  0  0  0  1  0  0  0  0  0  0
  180.0640  179.3930  141.0680 C   0  0  1  0  0  3  0  0  0  0  0  0
  181.1930  179.1650  140.0790 C   0  0  0  0  0  2  0  0  0  0  0  0
  180.2970  177.0140  139.1920 O   0  0  0  0  0  0  0  0  0  0  0  0
  181.3410  177.7130  139.7820 C   0  0  0  0  0  0  0  0  0  0  0  0
  182.4240  177.1250  140.0390 O   0  0  0  0  0  1  0  0  0  0  0  0
  1  5  2  0  0  0  0
  2  6  1  0  0  0  0
  3  8  1  0  0  0  0
  4 10  1  6  0  0  0
  4 18  1  0  0  0  0
  5 11  1  0  0  0  0
  6 11  2  0  0  0  0
  8  1  1  0  0  0  0
  8  2  2  0  0  0  0
  9  7  1  0  0  0  0
 10 17  1  0  0  0  0
 12 19  1  0  0  0  0
 12  3  2  0  0  0  0
 13  1  1  0  0  0  0
 14  2  1  0  0  0  0
 15 16  2  0  0  0  0
 15  4  1  0  0  0  0
 16 12  1  0  0  0  0
 17 27  1  1  0  0  0
 17  9  1  0  0  0  0
 18  3  1  0  0  0  0
 18  7  1  1  0  0  0
 19 13  2  0  0  0  0
 20 26  1  6  0  0  0
 20 21  1  0  0  0  0
 20 24  1  0  0  0  0
 21 23  1  0  0  0  0
 22 25  1  0  0  0  0
 22 16  1  1  0  0  0
 23 25  1  0  0  0  0
 24 22  1  0  0  0  0
 28 27  1  0  0  0  0
 30 29  1  1  0  0  0
 30 28  1  0  0  0  0
 31 30  1  0  0  0  0
 32 33  2  0  0  0  0
 33 34  1  0  0  0  0
 33 31  1  0  0  0  0
M  END
>  <MODEL>
7

>  <REMARK>
 VINA RESULT:      -9.0      3.785      6.768
  Name = 
  6 active torsions:
  status: ('A' for Active; 'I' for Inactive)
    1  A    between atoms: C_3  and  S_13
    2  A    between atoms: C_3  and  C_29
    3  A    between atoms: C_12  and  C_28
    4  A    between atoms: S_13  and  C_33
    5  A    between atoms: C_20  and  C_22
    6  A    between atoms: C_22  and  C_33
                            x       y       z     vdW  Elec       q    Type
                         _______ _______ _______ _____ _____    ______ ____

>  <TORSDO>
F 6

$$$$
=
 OpenBabel11052414263D

 34 38  0  0  1  0  0  0  0  0999 V2000
  185.0400  178.8440  145.3940 C   0  0  0  0  0  0  0  0  0  0  0  0
  186.9290  177.4990  144.6440 C   0  0  0  0  0  0  0  0  0  0  0  0
  185.1990  178.3560  143.0120 C   0  0  0  0  0  0  0  0  0  0  0  0
  185.2920  178.6820  140.5050 C   0  0  1  0  0  3  0  0  0  0  0  0
  185.5910  178.8940  146.6750 C   0  0  0  0  0  3  0  0  0  0  0  0
  187.4530  177.5560  145.9380 C   0  0  0  0  0  3  0  0  0  0  0  0
  187.3830  178.6730  141.7440 C   0  0  0  0  0  2  0  0  0  0  0  0
  185.7470  178.2280  144.3240 C   0  0  0  0  0  0  0  0  0  0  0  0
  188.1410  178.2160  140.4950 C   0  0  0  0  0  2  0  0  0  0  0  0
  185.9540  178.1850  139.2300 C   0  0  0  0  0  2  0  0  0  0  0  0
  186.8070  178.2740  146.9410 C   0  0  0  0  0  3  0  0  0  0  0  0
  183.8510  178.7650  142.8840 C   0  0  0  0  0  0  0  0  0  0  0  0
  183.7980  179.3510  145.1970 N   0  0  0  0  0  0  0  0  0  0  0  0
  187.6580  176.2890  143.5910 Cl  0  0  0  0  0  0  0  0  0  0  0  0
  183.8530  178.4630  140.4960 N   0  0  0  0  0  0  0  0  0  0  0  0
  183.1530  178.5970  141.5790 C   0  0  0  0  0  0  0  0  0  0  0  0
  187.4120  178.6560  139.2210 C   0  0  2  0  0  3  0  0  0  0  0  0
  185.9770  178.0650  141.7330 C   0  0  1  0  0  3  0  0  0  0  0  0
  183.1810  179.2820  143.9940 C   0  0  0  0  0  3  0  0  0  0  0  0
  179.7500  177.1670  140.5080 C   0  0  2  0  0  3  0  0  0  0  0  0
  179.1270  178.4690  140.0110 C   0  0  0  0  0  2  0  0  0  0  0  0
  181.6620  178.4670  141.4770 C   0  0  2  0  0  3  0  0  0  0  0  0
  179.5000  179.6190  140.9410 C   0  0  0  0  0  2  0  0  0  0  0  0
  181.2680  177.2990  140.5720 C   0  0  0  0  0  2  0  0  0  0  0  0
  181.0170  179.7730  141.0090 C   0  0  0  0  0  2  0  0  0  0  0  0
  179.4110  176.1380  139.6520 F   0  0  0  0  0  0  0  0  0  0  0  0
  188.1390  178.1060  138.0060 C   0  0  0  0  0  2  0  0  0  0  0  0
  186.9690  177.3000  136.8670 S   0  0  0  0  0  0  0  0  0  0  0  0
  186.7560  174.6800  136.6860 O   0  0  0  0  0  1  0  0  0  0  0  0
  187.6320  175.6410  137.1960 C   0  0  1  0  0  3  0  0  0  0  0  0
  188.9910  175.5050  136.5340 C   0  0  0  0  0  2  0  0  0  0  0  0
  190.6840  175.2170  138.3410 O   0  0  0  0  0  1  0  0  0  0  0  0
  189.8890  174.6470  137.3570 C   0  0  0  0  0  0  0  0  0  0  0  0
  189.9070  173.4010  137.1800 O   0  0  0  0  0  0  0  0  0  0  0  0
  1  5  2  0  0  0  0
  2  6  1  0  0  0  0
  3  8  1  0  0  0  0
  4 10  1  6  0  0  0
  4 18  1  0  0  0  0
  5 11  1  0  0  0  0
  6 11  2  0  0  0  0
  8  2  2  0  0  0  0
  8  1  1  0  0  0  0
  9  7  1  0  0  0  0
 12  3  2  0  0  0  0
 12 19  1  0  0  0  0
 13  1  1  0  0  0  0
 14  2  1  0  0  0  0
 15  4  1  0  0  0  0
 15 16  2  0  0  0  0
 16 12  1  0  0  0  0
 17 27  1  6  0  0  0
 17 10  1  0  0  0  0
 17  9  1  0  0  0  0
 18  7  1  1  0  0  0
 18  3  1  0  0  0  0
 19 13  2  0  0  0  0
 20 26  1  6  0  0  0
 20 24  1  0  0  0  0
 21 20  1  0  0  0  0
 21 23  1  0  0  0  0
 22 16  1  6  0  0  0
 23 25  1  0  0  0  0
 24 22  1  0  0  0  0
 25 22  1  0  0  0  0
 28 30  1  0  0  0  0
 28 27  1  0  0  0  0
 30 29  1  6  0  0  0
 31 30  1  0  0  0  0
 31 33  1  0  0  0  0
 33 32  1  0  0  0  0
 34 33  2  0  0  0  0
M  END
>  <MODEL>
8

>  <REMARK>
 VINA RESULT:      -8.8      3.313      4.903
  Name = 
  6 active torsions:
  status: ('A' for Active; 'I' for Inactive)
    1  A    between atoms: C_3  and  S_13
    2  A    between atoms: C_3  and  C_29
    3  A    between atoms: C_12  and  C_28
    4  A    between atoms: S_13  and  C_33
    5  A    between atoms: C_20  and  C_22
    6  A    between atoms: C_22  and  C_33
                            x       y       z     vdW  Elec       q    Type
                         _______ _______ _______ _____ _____    ______ ____

>  <TORSDO>
F 6

$$$$
=
 OpenBabel11052414263D

 34 38  0  0  1  0  0  0  0  0999 V2000
  192.0640  177.2370  140.5910 C   0  0  0  0  0  0  0  0  0  0  0  0
  190.4160  176.5930  138.9150 C   0  0  0  0  0  0  0  0  0  0  0  0
  189.7140  177.3530  141.2210 C   0  0  0  0  0  0  0  0  0  0  0  0
  187.5090  178.2500  142.0800 C   0  0  1  0  0  3  0  0  0  0  0  0
  193.0730  177.1280  139.6330 C   0  0  0  0  0  3  0  0  0  0  0  0
  191.4470  176.4810  137.9780 C   0  0  0  0  0  3  0  0  0  0  0  0
  187.9960  178.4670  139.7080 C   0  0  0  0  0  2  0  0  0  0  0  0
  190.6990  177.0690  140.2280 C   0  0  0  0  0  0  0  0  0  0  0  0
  186.5000  178.5010  139.3870 C   0  0  0  0  0  2  0  0  0  0  0  0
  186.0070  178.2290  141.8500 C   0  0  0  0  0  2  0  0  0  0  0  0
  192.7630  176.7760  138.3230 C   0  0  0  0  0  3  0  0  0  0  0  0
  190.1270  177.4430  142.5720 C   0  0  0  0  0  0  0  0  0  0  0  0
  192.4120  177.4600  141.8830 N   0  0  0  0  0  0  0  0  0  0  0  0
  188.8840  175.8660  138.4370 Cl  0  0  0  0  0  0  0  0  0  0  0  0
  187.8720  177.6980  143.3770 N   0  0  0  0  0  0  0  0  0  0  0  0
  189.1060  177.4100  143.6560 C   0  0  0  0  0  0  0  0  0  0  0  0
  185.6960  179.0280  140.5800 C   0  0  2  0  0  3  0  0  0  0  0  0
  188.2330  177.5560  140.9170 C   0  0  1  0  0  3  0  0  0  0  0  0
  191.4880  177.5180  142.8700 C   0  0  0  0  0  3  0  0  0  0  0  0
  188.7830  177.0440  147.4680 C   0  0  2  0  0  3  0  0  0  0  0  0
  190.2260  177.3850  147.8310 C   0  0  0  0  0  2  0  0  0  0  0  0
  189.4270  176.9510  145.0470 C   0  0  2  0  0  3  0  0  0  0  0  0
  191.1840  176.7530  146.8250 C   0  0  0  0  0  2  0  0  0  0  0  0
  188.4570  177.5500  146.0660 C   0  0  0  0  0  2  0  0  0  0  0  0
  190.8790  177.2570  145.4170 C   0  0  0  0  0  2  0  0  0  0  0  0
  187.9280  177.6300  148.3800 F   0  0  0  0  0  0  0  0  0  0  0  0
  184.2120  178.9580  140.2610 C   0  0  0  0  0  2  0  0  0  0  0  0
  183.3790  177.7510  141.3390 S   0  0  0  0  0  0  0  0  0  0  0  0
  181.2290  179.2000  141.8060 O   0  0  0  0  0  1  0  0  0  0  0  0
  182.5260  179.0390  142.2960 C   0  0  1  0  0  3  0  0  0  0  0  0
  182.4800  178.6280  143.7570 C   0  0  0  0  0  2  0  0  0  0  0  0
  183.8050  178.9450  145.8450 O   0  0  0  0  0  1  0  0  0  0  0  0
  183.5790  179.2840  144.5180 C   0  0  0  0  0  0  0  0  0  0  0  0
  184.3240  180.1260  143.9510 O   0  0  0  0  0  0  0  0  0  0  0  0
  1 13  1  0  0  0  0
  2  8  1  0  0  0  0
  3 12  2  0  0  0  0
  4 10  1  6  0  0  0
  4 15  1  0  0  0  0
  5  1  1  0  0  0  0
  6 11  1  0  0  0  0
  6  2  2  0  0  0  0
  8  1  2  0  0  0  0
  8  3  1  0  0  0  0
  9  7  1  0  0  0  0
  9 17  1  0  0  0  0
 11  5  2  0  0  0  0
 12 19  1  0  0  0  0
 12 16  1  0  0  0  0
 13 19  2  0  0  0  0
 14  2  1  0  0  0  0
 15 16  2  0  0  0  0
 17 27  1  6  0  0  0
 17 10  1  0  0  0  0
 18  7  1  6  0  0  0
 18  3  1  0  0  0  0
 18  4  1  0  0  0  0
 20 21  1  0  0  0  0
 20 26  1  1  0  0  0
 22 16  1  6  0  0  0
 22 25  1  0  0  0  0
 22 24  1  0  0  0  0
 23 21  1  0  0  0  0
 24 20  1  0  0  0  0
 25 23  1  0  0  0  0
 27 28  1  0  0  0  0
 28 30  1  0  0  0  0
 30 29  1  6  0  0  0
 30 31  1  0  0  0  0
 31 33  1  0  0  0  0
 33 32  1  0  0  0  0
 34 33  2  0  0  0  0
M  END
>  <MODEL>
9

>  <REMARK>
 VINA RESULT:      -8.5      3.706      6.753
  Name = 
  6 active torsions:
  status: ('A' for Active; 'I' for Inactive)
    1  A    between atoms: C_3  and  S_13
    2  A    between atoms: C_3  and  C_29
    3  A    between atoms: C_12  and  C_28
    4  A    between atoms: S_13  and  C_33
    5  A    between atoms: C_20  and  C_22
    6  A    between atoms: C_22  and  C_33
                            x       y       z     vdW  Elec       q    Type
                         _______ _______ _______ _____ _____    ______ ____

>  <TORSDO>
F 6

$$$$
