=
 OpenBabel11052413083D

 31 35  0  0  1  0  0  0  0  0999 V2000
  184.9510  178.5540  144.4000 C   0  0  0  0  0  0  0  0  0  0  0  0
  188.4620  177.6750  143.4010 C   0  0  0  0  0  0  0  0  0  0  0  0
  189.1880  177.3430  144.6730 C   0  0  0  0  0  0  0  0  0  0  0  0
  189.2530  176.8980  147.0680 C   0  0  0  0  0  0  0  0  0  0  0  0
  187.0950  178.0660  143.3460 C   0  0  0  0  0  0  0  0  0  0  0  0
  184.3980  178.8650  143.1580 C   0  0  0  0  0  3  0  0  0  0  0  0
  188.5310  177.1510  145.9000 C   0  0  0  0  0  3  0  0  0  0  0  0
  188.5720  177.9680  140.9780 C   0  0  0  0  0  0  0  0  0  0  0  0
  183.9710  178.6580  145.8470 Cl  0  0  0  0  0  0  0  0  0  0  0  0
  191.2740  177.4000  143.4360 O   0  0  0  0  0  0  0  0  0  0  0  0
  188.6010  176.7210  148.2420 F   0  0  0  0  0  0  0  0  0  0  0  0
  187.2660  178.3320  140.9640 N   0  0  0  0  0  0  0  0  0  0  0  0
  189.2010  177.6460  142.1930 C   0  0  0  0  0  0  0  0  0  0  0  0
  186.2880  178.1610  144.4920 C   0  0  0  0  0  3  0  0  0  0  0  0
  190.6470  176.8450  147.0290 C   0  0  0  0  0  3  0  0  0  0  0  0
  186.5210  178.3910  142.0930 C   0  0  0  0  0  0  0  0  0  0  0  0
  185.1830  178.7840  142.0070 C   0  0  0  0  0  3  0  0  0  0  0  0
  190.6300  177.1680  142.1860 C   0  0  0  0  0  2  0  0  0  0  0  0
  190.5930  177.2520  144.6420 C   0  0  0  0  0  0  0  0  0  0  0  0
  191.3160  177.0220  145.8160 C   0  0  0  0  0  3  0  0  0  0  0  0
  189.3220  177.9420  139.6830 C   0  0  0  0  0  2  0  0  0  0  0  0
  189.0150  179.2820  137.7160 O   0  0  0  0  0  1  0  0  0  0  0  0
  188.4090  178.3170  138.5240 C   0  0  1  0  0  3  0  0  0  0  0  0
  187.1890  174.5070  136.8920 C   0  0  1  0  0  3  0  0  0  0  0  0
  188.9620  176.1470  137.4970 C   0  0  0  0  0  3  0  0  0  0  0  0
  185.7900  177.8040  137.4670 O   0  0  0  0  0  0  0  0  0  0  0  0
  186.9000  173.4140  136.0990 F   0  0  0  0  0  0  0  0  0  0  0  0
  188.6440  174.9210  136.6900 C   0  0  0  0  0  2  0  0  0  0  0  0
  186.6550  176.9120  137.2640 C   0  0  0  0  0  0  0  0  0  0  0  0
  188.0500  177.1040  137.7200 C   0  0  0  0  0  0  0  0  0  0  0  0
  186.2640  175.6660  136.5230 C   0  0  0  0  0  2  0  0  0  0  0  0
  1 14  1  0  0  0  0
  1  9  1  0  0  0  0
  2  3  1  0  0  0  0
  3  7  1  0  0  0  0
  4 11  1  0  0  0  0
  5  2  1  0  0  0  0
  5 14  2  0  0  0  0
  6  1  2  0  0  0  0
  7  4  2  0  0  0  0
  8 13  1  0  0  0  0
 10 19  1  0  0  0  0
 12  8  2  0  0  0  0
 12 16  1  0  0  0  0
 13  2  2  0  0  0  0
 15  4  1  0  0  0  0
 16  5  1  0  0  0  0
 17 16  2  0  0  0  0
 17  6  1  0  0  0  0
 18 13  1  0  0  0  0
 18 10  1  0  0  0  0
 19  3  2  0  0  0  0
 19 20  1  0  0  0  0
 20 15  2  0  0  0  0
 21  8  1  0  0  0  0
 23 22  1  6  0  0  0
 23 21  1  0  0  0  0
 24 27  1  6  0  0  0
 25 30  2  0  0  0  0
 28 24  1  0  0  0  0
 28 25  1  0  0  0  0
 29 26  2  0  0  0  0
 29 30  1  0  0  0  0
 30 23  1  0  0  0  0
 31 24  1  0  0  0  0
 31 29  1  0  0  0  0
M  END
>  <MODEL>
1

>  <REMARK>
 VINA RESULT:     -10.6      0.000      0.000
  Name = 
  3 active torsions:
  status: ('A' for Active; 'I' for Inactive)
    1  A    between atoms: C_9  and  C_22
    2  A    between atoms: C_9  and  C_23
    3  A    between atoms: C_15  and  C_23
                            x       y       z     vdW  Elec       q    Type
                         _______ _______ _______ _____ _____    ______ ____

>  <TORSDO>
F 3

$$$$
=
 OpenBabel11052413083D

 31 35  0  0  1  0  0  0  0  0999 V2000
  184.7840  178.6170  144.3460 C   0  0  0  0  0  0  0  0  0  0  0  0
  188.2640  177.8630  143.1540 C   0  0  0  0  0  0  0  0  0  0  0  0
  189.0510  177.4840  144.3740 C   0  0  0  0  0  0  0  0  0  0  0  0
  189.2310  176.9230  146.7390 C   0  0  0  0  0  0  0  0  0  0  0  0
  186.8890  178.2270  143.1770 C   0  0  0  0  0  0  0  0  0  0  0  0
  184.1710  178.9770  143.1450 C   0  0  0  0  0  3  0  0  0  0  0  0
  188.4530  177.2180  145.6170 C   0  0  0  0  0  3  0  0  0  0  0  0
  188.2620  178.2770  140.7450 C   0  0  0  0  0  0  0  0  0  0  0  0
  183.8670  178.6290  145.8360 Cl  0  0  0  0  0  0  0  0  0  0  0  0
  191.0790  177.6460  143.0530 O   0  0  0  0  0  0  0  0  0  0  0  0
  188.6340  176.6740  147.9300 F   0  0  0  0  0  0  0  0  0  0  0  0
  186.9500  178.6140  140.8050 N   0  0  0  0  0  0  0  0  0  0  0  0
  188.9490  177.9090  141.9150 C   0  0  0  0  0  0  0  0  0  0  0  0
  186.1310  178.2480  144.3600 C   0  0  0  0  0  3  0  0  0  0  0  0
  190.6220  176.9010  146.6380 C   0  0  0  0  0  3  0  0  0  0  0  0
  186.2540  178.6010  141.9670 C   0  0  0  0  0  0  0  0  0  0  0  0
  184.9060  178.9700  141.9590 C   0  0  0  0  0  3  0  0  0  0  0  0
  190.3860  177.4630  141.8220 C   0  0  0  0  0  2  0  0  0  0  0  0
  190.4550  177.4250  144.2790 C   0  0  0  0  0  0  0  0  0  0  0  0
  191.2340  177.1530  145.4080 C   0  0  0  0  0  3  0  0  0  0  0  0
  188.9550  178.3310  139.4200 C   0  0  0  0  0  2  0  0  0  0  0  0
  187.7530  178.7940  137.3940 O   0  0  0  0  0  1  0  0  0  0  0  0
  188.0530  177.7900  138.3190 C   0  0  1  0  0  3  0  0  0  0  0  0
  189.8830  174.0850  137.0570 C   0  0  1  0  0  3  0  0  0  0  0  0
  190.0310  176.5120  137.5930 C   0  0  0  0  0  3  0  0  0  0  0  0
  186.5960  175.6140  137.1430 O   0  0  0  0  0  0  0  0  0  0  0  0
  190.4970  173.0510  136.3770 F   0  0  0  0  0  0  0  0  0  0  0  0
  190.7120  175.3590  136.9130 C   0  0  0  0  0  2  0  0  0  0  0  0
  187.8510  175.5240  137.1070 C   0  0  0  0  0  0  0  0  0  0  0  0
  188.6950  176.6190  137.6370 C   0  0  0  0  0  0  0  0  0  0  0  0
  188.4830  174.3100  136.4910 C   0  0  0  0  0  2  0  0  0  0  0  0
  1 14  1  0  0  0  0
  1  9  1  0  0  0  0
  2  5  1  0  0  0  0
  2  3  1  0  0  0  0
  3  7  1  0  0  0  0
  4 11  1  0  0  0  0
  5 14  2  0  0  0  0
  6  1  2  0  0  0  0
  7  4  2  0  0  0  0
  8 12  2  0  0  0  0
  8 13  1  0  0  0  0
 10 19  1  0  0  0  0
 12 16  1  0  0  0  0
 13  2  2  0  0  0  0
 15  4  1  0  0  0  0
 16  5  1  0  0  0  0
 17 16  2  0  0  0  0
 17  6  1  0  0  0  0
 18 13  1  0  0  0  0
 18 10  1  0  0  0  0
 19  3  2  0  0  0  0
 19 20  1  0  0  0  0
 20 15  2  0  0  0  0
 21  8  1  0  0  0  0
 23 22  1  6  0  0  0
 23 21  1  0  0  0  0
 24 27  1  6  0  0  0
 25 30  2  0  0  0  0
 28 24  1  0  0  0  0
 28 25  1  0  0  0  0
 29 26  2  0  0  0  0
 29 30  1  0  0  0  0
 30 23  1  0  0  0  0
 31 24  1  0  0  0  0
 31 29  1  0  0  0  0
M  END
>  <MODEL>
2

>  <REMARK>
 VINA RESULT:     -10.5      1.044      1.248
  Name = 
  3 active torsions:
  status: ('A' for Active; 'I' for Inactive)
    1  A    between atoms: C_9  and  C_22
    2  A    between atoms: C_9  and  C_23
    3  A    between atoms: C_15  and  C_23
                            x       y       z     vdW  Elec       q    Type
                         _______ _______ _______ _____ _____    ______ ____

>  <TORSDO>
F 3

$$$$
=
 OpenBabel11052413083D

 31 35  0  0  1  0  0  0  0  0999 V2000
  190.2250  176.8810  145.6540 C   0  0  0  0  0  0  0  0  0  0  0  0
  187.7310  178.0230  143.0900 C   0  0  0  0  0  0  0  0  0  0  0  0
  186.4500  178.2690  143.8330 C   0  0  0  0  0  0  0  0  0  0  0  0
  185.1520  178.4860  145.8850 C   0  0  0  0  0  0  0  0  0  0  0  0
  188.9320  177.5720  143.7050 C   0  0  0  0  0  0  0  0  0  0  0  0
  191.3430  176.6620  144.8490 C   0  0  0  0  0  3  0  0  0  0  0  0
  186.3760  178.3110  145.2350 C   0  0  0  0  0  3  0  0  0  0  0  0
  188.8920  177.9670  140.9410 C   0  0  0  0  0  0  0  0  0  0  0  0
  190.3160  176.5920  147.3780 Cl  0  0  0  0  0  0  0  0  0  0  0  0
  185.3050  178.4320  141.7010 O   0  0  0  0  0  0  0  0  0  0  0  0
  185.1020  178.5190  147.2370 F   0  0  0  0  0  0  0  0  0  0  0  0
  190.0200  177.5420  141.5620 N   0  0  0  0  0  0  0  0  0  0  0  0
  187.7240  178.2030  141.6850 C   0  0  0  0  0  0  0  0  0  0  0  0
  189.0310  177.3290  145.0860 C   0  0  0  0  0  3  0  0  0  0  0  0
  183.9790  178.6120  145.1390 C   0  0  0  0  0  3  0  0  0  0  0  0
  190.0740  177.3400  142.9000 C   0  0  0  0  0  0  0  0  0  0  0  0
  191.2660  176.8910  143.4740 C   0  0  0  0  0  3  0  0  0  0  0  0
  186.5010  178.7490  140.9940 C   0  0  0  0  0  2  0  0  0  0  0  0
  185.2630  178.4300  143.0940 C   0  0  0  0  0  0  0  0  0  0  0  0
  184.0350  178.5840  143.7440 C   0  0  0  0  0  3  0  0  0  0  0  0
  188.9200  178.1530  139.4560 C   0  0  0  0  0  2  0  0  0  0  0  0
  187.6130  177.0320  137.7830 O   0  0  0  0  0  1  0  0  0  0  0  0
  188.6100  176.8430  138.7440 C   0  0  1  0  0  3  0  0  0  0  0  0
  192.2690  174.8440  137.6110 C   0  0  1  0  0  3  0  0  0  0  0  0
  191.0260  176.9010  138.2620 C   0  0  0  0  0  3  0  0  0  0  0  0
  188.6880  174.3740  137.2810 O   0  0  0  0  0  0  0  0  0  0  0  0
  193.4090  174.3780  136.9860 F   0  0  0  0  0  0  0  0  0  0  0  0
  192.2860  176.3700  137.6410 C   0  0  0  0  0  2  0  0  0  0  0  0
  189.7880  174.9690  137.4250 C   0  0  0  0  0  0  0  0  0  0  0  0
  189.8480  176.2770  138.1160 C   0  0  0  0  0  0  0  0  0  0  0  0
  191.0350  174.3540  136.8570 C   0  0  0  0  0  2  0  0  0  0  0  0
  1  9  1  0  0  0  0
  2  5  1  0  0  0  0
  2  3  1  0  0  0  0
  3  7  1  0  0  0  0
  4 11  1  0  0  0  0
  5 14  2  0  0  0  0
  6  1  2  0  0  0  0
  7  4  2  0  0  0  0
  8 12  2  0  0  0  0
  8 13  1  0  0  0  0
 10 19  1  0  0  0  0
 12 16  1  0  0  0  0
 13  2  2  0  0  0  0
 14  1  1  0  0  0  0
 15  4  1  0  0  0  0
 16 17  2  0  0  0  0
 16  5  1  0  0  0  0
 17  6  1  0  0  0  0
 18 13  1  0  0  0  0
 18 10  1  0  0  0  0
 19 20  1  0  0  0  0
 19  3  2  0  0  0  0
 20 15  2  0  0  0  0
 21  8  1  0  0  0  0
 23 22  1  6  0  0  0
 23 21  1  0  0  0  0
 24 27  1  6  0  0  0
 24 28  1  0  0  0  0
 26 29  2  0  0  0  0
 28 25  1  0  0  0  0
 29 30  1  0  0  0  0
 30 25  2  0  0  0  0
 30 23  1  0  0  0  0
 31 29  1  0  0  0  0
 31 24  1  0  0  0  0
M  END
>  <MODEL>
3

>  <REMARK>
 VINA RESULT:     -10.0      2.627      4.534
  Name = 
  3 active torsions:
  status: ('A' for Active; 'I' for Inactive)
    1  A    between atoms: C_9  and  C_22
    2  A    between atoms: C_9  and  C_23
    3  A    between atoms: C_15  and  C_23
                            x       y       z     vdW  Elec       q    Type
                         _______ _______ _______ _____ _____    ______ ____

>  <TORSDO>
F 3

$$$$
=
 OpenBabel11052413083D

 31 35  0  0  1  0  0  0  0  0999 V2000
  184.2620  178.7840  142.2480 C   0  0  0  0  0  0  0  0  0  0  0  0
  187.9220  177.9500  142.3290 C   0  0  0  0  0  0  0  0  0  0  0  0
  188.2780  177.7720  143.7760 C   0  0  0  0  0  0  0  0  0  0  0  0
  187.6960  177.5670  146.1340 C   0  0  0  0  0  0  0  0  0  0  0  0
  186.6170  178.2790  141.8670 C   0  0  0  0  0  0  0  0  0  0  0  0
  184.0640  178.9500  140.8770 C   0  0  0  0  0  3  0  0  0  0  0  0
  187.3150  177.6760  144.7940 C   0  0  0  0  0  3  0  0  0  0  0  0
  188.6830  178.0080  140.0070 C   0  0  0  0  0  0  0  0  0  0  0  0
  182.9250  178.9910  143.3580 Cl  0  0  0  0  0  0  0  0  0  0  0  0
  190.6210  177.7900  143.1470 O   0  0  0  0  0  0  0  0  0  0  0  0
  186.7510  177.4800  147.1000 F   0  0  0  0  0  0  0  0  0  0  0  0
  187.4260  178.3170  139.6040 N   0  0  0  0  0  0  0  0  0  0  0  0
  188.9610  177.8310  141.3740 C   0  0  0  0  0  0  0  0  0  0  0  0
  185.5280  178.4540  142.7370 C   0  0  0  0  0  3  0  0  0  0  0  0
  189.0480  177.5650  146.4770 C   0  0  0  0  0  3  0  0  0  0  0  0
  186.4020  178.4570  140.4780 C   0  0  0  0  0  0  0  0  0  0  0  0
  185.1330  178.7870  139.9950 C   0  0  0  0  0  3  0  0  0  0  0  0
  190.3440  177.4120  141.8020 C   0  0  0  0  0  2  0  0  0  0  0  0
  189.6400  177.7340  144.1350 C   0  0  0  0  0  0  0  0  0  0  0  0
  190.0190  177.6490  145.4770 C   0  0  0  0  0  3  0  0  0  0  0  0
  189.7570  177.8840  138.9730 C   0  0  0  0  0  2  0  0  0  0  0  0
  188.8040  177.0310  136.9420 O   0  0  0  0  0  1  0  0  0  0  0  0
  189.5150  176.6690  138.0880 C   0  0  1  0  0  3  0  0  0  0  0  0
  193.3140  174.6320  137.7840 C   0  0  1  0  0  3  0  0  0  0  0  0
  191.9560  176.7190  137.7530 C   0  0  0  0  0  3  0  0  0  0  0  0
  189.7840  173.8980  137.3890 O   0  0  0  0  0  0  0  0  0  0  0  0
  194.5110  174.0720  137.3840 F   0  0  0  0  0  0  0  0  0  0  0  0
  193.2760  176.1040  137.3820 C   0  0  0  0  0  2  0  0  0  0  0  0
  190.8500  174.5670  137.4230 C   0  0  0  0  0  0  0  0  0  0  0  0
  190.8150  176.0170  137.7190 C   0  0  0  0  0  0  0  0  0  0  0  0
  192.1550  173.8850  137.1270 C   0  0  0  0  0  2  0  0  0  0  0  0
  1 14  1  0  0  0  0
  1  9  1  0  0  0  0
  2  3  1  0  0  0  0
  3 19  2  0  0  0  0
  3  7  1  0  0  0  0
  4 15  1  0  0  0  0
  4 11  1  0  0  0  0
  5  2  1  0  0  0  0
  5 14  2  0  0  0  0
  6  1  2  0  0  0  0
  7  4  2  0  0  0  0
  8 13  1  0  0  0  0
 10 19  1  0  0  0  0
 12  8  2  0  0  0  0
 12 16  1  0  0  0  0
 13 18  1  0  0  0  0
 13  2  2  0  0  0  0
 16  5  1  0  0  0  0
 17 16  2  0  0  0  0
 17  6  1  0  0  0  0
 18 10  1  0  0  0  0
 19 20  1  0  0  0  0
 20 15  2  0  0  0  0
 21  8  1  0  0  0  0
 23 22  1  6  0  0  0
 23 21  1  0  0  0  0
 24 27  1  6  0  0  0
 26 29  2  0  0  0  0
 28 25  1  0  0  0  0
 28 24  1  0  0  0  0
 29 30  1  0  0  0  0
 30 25  2  0  0  0  0
 30 23  1  0  0  0  0
 31 29  1  0  0  0  0
 31 24  1  0  0  0  0
M  END
>  <MODEL>
4

>  <REMARK>
 VINA RESULT:      -9.8      2.558      3.114
  Name = 
  3 active torsions:
  status: ('A' for Active; 'I' for Inactive)
    1  A    between atoms: C_9  and  C_22
    2  A    between atoms: C_9  and  C_23
    3  A    between atoms: C_15  and  C_23
                            x       y       z     vdW  Elec       q    Type
                         _______ _______ _______ _____ _____    ______ ____

>  <TORSDO>
F 3

$$$$
=
 OpenBabel11052413083D

 31 35  0  0  1  0  0  0  0  0999 V2000
  186.7750  177.8890  146.9690 C   0  0  0  0  0  0  0  0  0  0  0  0
  187.5330  177.9020  143.2910 C   0  0  0  0  0  0  0  0  0  0  0  0
  188.9640  177.4680  143.1580 C   0  0  0  0  0  0  0  0  0  0  0  0
  191.0440  176.5800  144.0660 C   0  0  0  0  0  0  0  0  0  0  0  0
  186.8550  178.0310  144.5350 C   0  0  0  0  0  0  0  0  0  0  0  0
  185.4510  178.3300  146.9620 C   0  0  0  0  0  3  0  0  0  0  0  0
  189.6980  176.9180  144.2220 C   0  0  0  0  0  3  0  0  0  0  0  0
  185.5010  178.6840  142.1820 C   0  0  0  0  0  0  0  0  0  0  0  0
  187.5680  177.5190  148.4840 Cl  0  0  0  0  0  0  0  0  0  0  0  0
  188.9030  178.1610  140.8340 O   0  0  0  0  0  0  0  0  0  0  0  0
  191.7350  176.0550  145.1050 F   0  0  0  0  0  0  0  0  0  0  0  0
  184.8860  178.7910  143.3850 N   0  0  0  0  0  0  0  0  0  0  0  0
  186.8370  178.2520  142.1090 C   0  0  0  0  0  0  0  0  0  0  0  0
  187.4690  177.7450  145.7660 C   0  0  0  0  0  3  0  0  0  0  0  0
  191.6810  176.7990  142.8440 C   0  0  0  0  0  3  0  0  0  0  0  0
  185.5130  178.4840  144.5450 C   0  0  0  0  0  0  0  0  0  0  0  0
  184.8230  178.6270  145.7520 C   0  0  0  0  0  3  0  0  0  0  0  0
  187.4840  178.0630  140.7600 C   0  0  0  0  0  2  0  0  0  0  0  0
  189.6110  177.6520  141.9210 C   0  0  0  0  0  0  0  0  0  0  0  0
  190.9640  177.3350  141.7720 C   0  0  0  0  0  3  0  0  0  0  0  0
  184.7350  179.0560  140.9510 C   0  0  0  0  0  2  0  0  0  0  0  0
  182.3640  178.6930  140.8780 O   0  0  0  0  0  1  0  0  0  0  0  0
  183.6020  178.0700  140.7040 C   0  0  1  0  0  3  0  0  0  0  0  0
  184.4720  175.9360  137.0480 C   0  0  1  0  0  3  0  0  0  0  0  0
  184.5450  178.0080  138.4280 C   0  0  0  0  0  3  0  0  0  0  0  0
  182.1700  175.7350  139.8440 O   0  0  0  0  0  0  0  0  0  0  0  0
  184.5360  175.4500  135.7570 F   0  0  0  0  0  0  0  0  0  0  0  0
  184.6710  177.4490  137.0390 C   0  0  0  0  0  2  0  0  0  0  0  0
  182.9610  176.2410  139.0050 C   0  0  0  0  0  0  0  0  0  0  0  0
  183.7060  177.4780  139.3290 C   0  0  0  0  0  0  0  0  0  0  0  0
  183.1140  175.5950  137.6580 C   0  0  0  0  0  2  0  0  0  0  0  0
  1  9  1  0  0  0  0
  2  5  1  0  0  0  0
  3  2  1  0  0  0  0
  3  7  1  0  0  0  0
  4  7  2  0  0  0  0
  4 11  1  0  0  0  0
  5 16  2  0  0  0  0
  5 14  1  0  0  0  0
  6  1  1  0  0  0  0
  8 12  2  0  0  0  0
 10 19  1  0  0  0  0
 12 16  1  0  0  0  0
 13  8  1  0  0  0  0
 13  2  2  0  0  0  0
 14  1  2  0  0  0  0
 15  4  1  0  0  0  0
 16 17  1  0  0  0  0
 17  6  2  0  0  0  0
 18 10  1  0  0  0  0
 18 13  1  0  0  0  0
 19  3  2  0  0  0  0
 20 19  1  0  0  0  0
 20 15  2  0  0  0  0
 21  8  1  0  0  0  0
 23 22  1  6  0  0  0
 23 21  1  0  0  0  0
 24 27  1  6  0  0  0
 24 31  1  0  0  0  0
 25 30  2  0  0  0  0
 28 24  1  0  0  0  0
 28 25  1  0  0  0  0
 29 30  1  0  0  0  0
 29 26  2  0  0  0  0
 30 23  1  0  0  0  0
 31 29  1  0  0  0  0
M  END
>  <MODEL>
5

>  <REMARK>
 VINA RESULT:      -9.7      2.588      3.838
  Name = 
  3 active torsions:
  status: ('A' for Active; 'I' for Inactive)
    1  A    between atoms: C_9  and  C_22
    2  A    between atoms: C_9  and  C_23
    3  A    between atoms: C_15  and  C_23
                            x       y       z     vdW  Elec       q    Type
                         _______ _______ _______ _____ _____    ______ ____

>  <TORSDO>
F 3

$$$$
=
 OpenBabel11052413083D

 31 35  0  0  1  0  0  0  0  0999 V2000
  188.0550  177.5040  146.7610 C   0  0  0  0  0  0  0  0  0  0  0  0
  186.4160  178.3140  143.4810 C   0  0  0  0  0  0  0  0  0  0  0  0
  187.4140  177.9600  142.4170 C   0  0  0  0  0  0  0  0  0  0  0  0
  189.5060  176.9620  141.6650 C   0  0  0  0  0  0  0  0  0  0  0  0
  186.6540  178.1580  144.8750 C   0  0  0  0  0  0  0  0  0  0  0  0
  187.0580  177.8970  147.6540 C   0  0  0  0  0  3  0  0  0  0  0  0
  188.5790  177.2200  142.6770 C   0  0  0  0  0  3  0  0  0  0  0  0
  184.2270  179.2510  144.0290 C   0  0  0  0  0  0  0  0  0  0  0  0
  189.5610  176.8470  147.3640 Cl  0  0  0  0  0  0  0  0  0  0  0  0
  186.0270  179.1250  140.8030 O   0  0  0  0  0  0  0  0  0  0  0  0
  190.6260  176.2500  141.9380 F   0  0  0  0  0  0  0  0  0  0  0  0
  184.4870  179.0840  145.3490 N   0  0  0  0  0  0  0  0  0  0  0  0
  185.1870  178.8850  143.0700 C   0  0  0  0  0  0  0  0  0  0  0  0
  187.8550  177.6370  145.3860 C   0  0  0  0  0  3  0  0  0  0  0  0
  189.2880  177.4520  140.3770 C   0  0  0  0  0  3  0  0  0  0  0  0
  185.6530  178.5590  145.7940 C   0  0  0  0  0  0  0  0  0  0  0  0
  185.8590  178.4240  147.1700 C   0  0  0  0  0  3  0  0  0  0  0  0
  184.8550  179.0030  141.6040 C   0  0  0  0  0  2  0  0  0  0  0  0
  187.1900  178.4190  141.1040 C   0  0  0  0  0  0  0  0  0  0  0  0
  188.1300  178.1810  140.0970 C   0  0  0  0  0  3  0  0  0  0  0  0
  182.9160  179.8520  143.6280 C   0  0  0  0  0  2  0  0  0  0  0  0
  181.1710  178.4190  144.4410 O   0  0  0  0  0  1  0  0  0  0  0  0
  181.9030  178.7630  143.3020 C   0  0  1  0  0  3  0  0  0  0  0  0
  179.8280  180.5480  139.9580 C   0  0  1  0  0  3  0  0  0  0  0  0
  180.1100  180.1980  142.4080 C   0  0  0  0  0  3  0  0  0  0  0  0
  181.9500  177.6870  140.6410 O   0  0  0  0  0  0  0  0  0  0  0  0
  178.9310  180.9270  138.9790 F   0  0  0  0  0  0  0  0  0  0  0  0
  179.1720  180.6640  141.3310 C   0  0  0  0  0  2  0  0  0  0  0  0
  181.1300  178.6190  140.8480 C   0  0  0  0  0  0  0  0  0  0  0  0
  180.9880  179.2060  142.2000 C   0  0  0  0  0  0  0  0  0  0  0  0
  180.2720  179.1070  139.7160 C   0  0  0  0  0  2  0  0  0  0  0  0
  1  9  1  0  0  0  0
  1  6  1  0  0  0  0
  2  5  1  0  0  0  0
  3  7  1  0  0  0  0
  3  2  1  0  0  0  0
  4 11  1  0  0  0  0
  4  7  2  0  0  0  0
  5 14  1  0  0  0  0
  5 16  2  0  0  0  0
  8 12  2  0  0  0  0
 10 19  1  0  0  0  0
 10 18  1  0  0  0  0
 12 16  1  0  0  0  0
 13  2  2  0  0  0  0
 13  8  1  0  0  0  0
 14  1  2  0  0  0  0
 15  4  1  0  0  0  0
 16 17  1  0  0  0  0
 17  6  2  0  0  0  0
 18 13  1  0  0  0  0
 19  3  2  0  0  0  0
 20 15  2  0  0  0  0
 20 19  1  0  0  0  0
 21  8  1  0  0  0  0
 23 21  1  0  0  0  0
 23 22  1  1  0  0  0
 24 27  1  6  0  0  0
 24 28  1  0  0  0  0
 26 29  2  0  0  0  0
 28 25  1  0  0  0  0
 29 30  1  0  0  0  0
 30 25  2  0  0  0  0
 30 23  1  0  0  0  0
 31 24  1  0  0  0  0
 31 29  1  0  0  0  0
M  END
>  <MODEL>
6

>  <REMARK>
 VINA RESULT:      -9.6      4.122      6.769
  Name = 
  3 active torsions:
  status: ('A' for Active; 'I' for Inactive)
    1  A    between atoms: C_9  and  C_22
    2  A    between atoms: C_9  and  C_23
    3  A    between atoms: C_15  and  C_23
                            x       y       z     vdW  Elec       q    Type
                         _______ _______ _______ _____ _____    ______ ____

>  <TORSDO>
F 3

$$$$
=
 OpenBabel11052413083D

 31 35  0  0  1  0  0  0  0  0999 V2000
  190.4690  177.6470  140.2670 C   0  0  0  0  0  0  0  0  0  0  0  0
  187.7110  178.0180  142.7870 C   0  0  0  0  0  0  0  0  0  0  0  0
  188.3260  177.7310  144.1260 C   0  0  0  0  0  0  0  0  0  0  0  0
  190.2390  177.3110  145.5780 C   0  0  0  0  0  0  0  0  0  0  0  0
  188.4280  177.9800  141.5590 C   0  0  0  0  0  0  0  0  0  0  0  0
  189.7760  177.9050  139.0840 C   0  0  0  0  0  3  0  0  0  0  0  0
  189.7130  177.6350  144.3240 C   0  0  0  0  0  3  0  0  0  0  0  0
  185.6940  178.5480  141.5140 C   0  0  0  0  0  0  0  0  0  0  0  0
  192.1790  177.2760  140.2180 Cl  0  0  0  0  0  0  0  0  0  0  0  0
  186.0950  177.6390  145.0740 O   0  0  0  0  0  0  0  0  0  0  0  0
  191.5790  177.2180  145.7460 F   0  0  0  0  0  0  0  0  0  0  0  0
  186.4100  178.5070  140.3630 N   0  0  0  0  0  0  0  0  0  0  0  0
  186.3220  178.2920  142.7450 C   0  0  0  0  0  0  0  0  0  0  0  0
  189.7990  177.6820  141.4910 C   0  0  0  0  0  3  0  0  0  0  0  0
  189.3810  177.0660  146.6510 C   0  0  0  0  0  3  0  0  0  0  0  0
  187.7360  178.2340  140.3490 C   0  0  0  0  0  0  0  0  0  0  0  0
  188.4120  178.1970  139.1260 C   0  0  0  0  0  3  0  0  0  0  0  0
  185.5310  178.4170  144.0220 C   0  0  0  0  0  2  0  0  0  0  0  0
  187.4750  177.5150  145.2270 C   0  0  0  0  0  0  0  0  0  0  0  0
  188.0000  177.1680  146.4750 C   0  0  0  0  0  3  0  0  0  0  0  0
  184.2290  178.8460  141.4340 C   0  0  0  0  0  2  0  0  0  0  0  0
  183.1110  176.9590  140.4580 O   0  0  0  0  0  1  0  0  0  0  0  0
  183.6220  178.2300  140.1810 C   0  0  1  0  0  3  0  0  0  0  0  0
  180.5650  181.1430  139.2620 C   0  0  1  0  0  3  0  0  0  0  0  0
  181.2580  178.8120  139.7980 C   0  0  0  0  0  3  0  0  0  0  0  0
  184.1340  180.6930  138.7980 O   0  0  0  0  0  0  0  0  0  0  0  0
  179.5640  181.9100  138.6990 F   0  0  0  0  0  0  0  0  0  0  0  0
  180.1570  179.6720  139.2460 C   0  0  0  0  0  2  0  0  0  0  0  0
  182.9230  180.3940  138.9690 C   0  0  0  0  0  0  0  0  0  0  0  0
  182.5510  179.1190  139.6220 C   0  0  0  0  0  0  0  0  0  0  0  0
  181.8590  181.3300  138.4720 C   0  0  0  0  0  2  0  0  0  0  0  0
  1 14  1  0  0  0  0
  2  3  1  0  0  0  0
  3  7  2  0  0  0  0
  3 19  1  0  0  0  0
  4 11  1  0  0  0  0
  4 15  2  0  0  0  0
  5  2  1  0  0  0  0
  6 17  1  0  0  0  0
  6  1  2  0  0  0  0
  7  4  1  0  0  0  0
  8 13  1  0  0  0  0
  9  1  1  0  0  0  0
 10 19  1  0  0  0  0
 12  8  2  0  0  0  0
 13  2  2  0  0  0  0
 13 18  1  0  0  0  0
 14  5  2  0  0  0  0
 16 12  1  0  0  0  0
 16  5  1  0  0  0  0
 17 16  2  0  0  0  0
 18 10  1  0  0  0  0
 19 20  2  0  0  0  0
 20 15  1  0  0  0  0
 21  8  1  0  0  0  0
 23 22  1  1  0  0  0
 23 21  1  0  0  0  0
 24 27  1  6  0  0  0
 26 29  2  0  0  0  0
 28 24  1  0  0  0  0
 28 25  1  0  0  0  0
 29 30  1  0  0  0  0
 30 25  2  0  0  0  0
 30 23  1  0  0  0  0
 31 29  1  0  0  0  0
 31 24  1  0  0  0  0
M  END
>  <MODEL>
7

>  <REMARK>
 VINA RESULT:      -9.5      3.921      5.712
  Name = 
  3 active torsions:
  status: ('A' for Active; 'I' for Inactive)
    1  A    between atoms: C_9  and  C_22
    2  A    between atoms: C_9  and  C_23
    3  A    between atoms: C_15  and  C_23
                            x       y       z     vdW  Elec       q    Type
                         _______ _______ _______ _____ _____    ______ ____

>  <TORSDO>
F 3

$$$$
=
 OpenBabel11052413083D

 31 35  0  0  1  0  0  0  0  0999 V2000
  188.4930  177.4670  146.6180 C   0  0  0  0  0  0  0  0  0  0  0  0
  187.1330  178.1710  143.1900 C   0  0  0  0  0  0  0  0  0  0  0  0
  185.6690  178.4530  143.3710 C   0  0  0  0  0  0  0  0  0  0  0  0
  183.7060  178.8710  144.7530 C   0  0  0  0  0  0  0  0  0  0  0  0
  188.0170  177.8530  144.2570 C   0  0  0  0  0  0  0  0  0  0  0  0
  189.8280  177.1970  146.3170 C   0  0  0  0  0  3  0  0  0  0  0  0
  185.0820  178.6680  144.6280 C   0  0  0  0  0  3  0  0  0  0  0  0
  189.0060  177.8960  141.6460 C   0  0  0  0  0  0  0  0  0  0  0  0
  187.9380  177.4000  148.2770 Cl  0  0  0  0  0  0  0  0  0  0  0  0
  185.3960  178.2990  140.9650 O   0  0  0  0  0  0  0  0  0  0  0  0
  183.1590  179.0710  145.9750 F   0  0  0  0  0  0  0  0  0  0  0  0
  189.8210  177.6000  142.6890 N   0  0  0  0  0  0  0  0  0  0  0  0
  187.6470  178.1730  141.8700 C   0  0  0  0  0  0  0  0  0  0  0  0
  187.5970  177.7890  145.5960 C   0  0  0  0  0  3  0  0  0  0  0  0
  182.8930  178.8520  143.6190 C   0  0  0  0  0  3  0  0  0  0  0  0
  189.3750  177.5700  143.9660 C   0  0  0  0  0  0  0  0  0  0  0  0
  190.2670  177.2480  144.9930 C   0  0  0  0  0  3  0  0  0  0  0  0
  186.7700  178.5760  140.7120 C   0  0  0  0  0  2  0  0  0  0  0  0
  184.8410  178.4710  142.2320 C   0  0  0  0  0  0  0  0  0  0  0  0
  183.4610  178.6520  142.3590 C   0  0  0  0  0  3  0  0  0  0  0  0
  189.5830  177.8950  140.2650 C   0  0  0  0  0  2  0  0  0  0  0  0
  190.6750  175.9310  141.1090 O   0  0  0  0  0  1  0  0  0  0  0  0
  190.7940  176.9760  140.1870 C   0  0  1  0  0  3  0  0  0  0  0  0
  191.1580  176.1590  135.9600 C   0  0  1  0  0  3  0  0  0  0  0  0
  189.8920  176.0250  138.1000 C   0  0  0  0  0  3  0  0  0  0  0  0
  193.3040  176.8460  138.8020 O   0  0  0  0  0  0  0  0  0  0  0  0
  191.2960  175.5980  134.7060 F   0  0  0  0  0  0  0  0  0  0  0  0
  190.0190  175.4720  136.7090 C   0  0  0  0  0  2  0  0  0  0  0  0
  192.2940  176.4620  138.1560 C   0  0  0  0  0  0  0  0  0  0  0  0
  190.9600  176.4370  138.7980 C   0  0  0  0  0  0  0  0  0  0  0  0
  192.4630  175.9970  136.7380 C   0  0  0  0  0  2  0  0  0  0  0  0
  1  9  1  0  0  0  0
  2  3  1  0  0  0  0
  2  5  1  0  0  0  0
  3  7  1  0  0  0  0
  4 11  1  0  0  0  0
  5 14  1  0  0  0  0
  6  1  1  0  0  0  0
  7  4  2  0  0  0  0
  8 13  1  0  0  0  0
  8 12  2  0  0  0  0
 10 19  1  0  0  0  0
 12 16  1  0  0  0  0
 13  2  2  0  0  0  0
 14  1  2  0  0  0  0
 15  4  1  0  0  0  0
 16  5  2  0  0  0  0
 16 17  1  0  0  0  0
 17  6  2  0  0  0  0
 18 10  1  0  0  0  0
 18 13  1  0  0  0  0
 19 20  1  0  0  0  0
 19  3  2  0  0  0  0
 20 15  2  0  0  0  0
 21  8  1  0  0  0  0
 23 21  1  0  0  0  0
 23 22  1  1  0  0  0
 24 27  1  6  0  0  0
 24 28  1  0  0  0  0
 24 31  1  0  0  0  0
 25 30  2  0  0  0  0
 28 25  1  0  0  0  0
 29 30  1  0  0  0  0
 29 26  2  0  0  0  0
 30 23  1  0  0  0  0
 31 29  1  0  0  0  0
M  END
>  <MODEL>
8

>  <REMARK>
 VINA RESULT:      -9.4      2.595      4.899
  Name = 
  3 active torsions:
  status: ('A' for Active; 'I' for Inactive)
    1  A    between atoms: C_9  and  C_22
    2  A    between atoms: C_9  and  C_23
    3  A    between atoms: C_15  and  C_23
                            x       y       z     vdW  Elec       q    Type
                         _______ _______ _______ _____ _____    ______ ____

>  <TORSDO>
F 3

$$$$
=
 OpenBabel11052413083D

 31 35  0  0  1  0  0  0  0  0999 V2000
  184.0230  178.9000  139.5150 C   0  0  0  0  0  0  0  0  0  0  0  0
  187.6970  178.1320  139.4130 C   0  0  0  0  0  0  0  0  0  0  0  0
  188.0420  177.9310  137.9660 C   0  0  0  0  0  0  0  0  0  0  0  0
  187.5100  178.0080  135.5890 C   0  0  0  0  0  0  0  0  0  0  0  0
  186.3900  178.4410  139.8820 C   0  0  0  0  0  0  0  0  0  0  0  0
  183.8240  179.0350  140.8890 C   0  0  0  0  0  3  0  0  0  0  0  0
  187.1680  178.2640  136.9190 C   0  0  0  0  0  3  0  0  0  0  0  0
  188.4510  178.1080  141.7380 C   0  0  0  0  0  0  0  0  0  0  0  0
  182.6800  179.1010  138.4110 Cl  0  0  0  0  0  0  0  0  0  0  0  0
  190.1920  177.0430  138.6560 O   0  0  0  0  0  0  0  0  0  0  0  0
  186.6500  178.3320  134.5940 F   0  0  0  0  0  0  0  0  0  0  0  0
  187.1930  178.4070  142.1470 N   0  0  0  0  0  0  0  0  0  0  0  0
  188.7270  177.9510  140.3680 C   0  0  0  0  0  0  0  0  0  0  0  0
  185.2940  178.6030  139.0180 C   0  0  0  0  0  3  0  0  0  0  0  0
  188.7300  177.4020  135.2870 C   0  0  0  0  0  3  0  0  0  0  0  0
  186.1710  178.5740  141.2750 C   0  0  0  0  0  0  0  0  0  0  0  0
  184.8960  178.8700  141.7670 C   0  0  0  0  0  3  0  0  0  0  0  0
  190.1440  177.6960  139.9210 C   0  0  0  0  0  2  0  0  0  0  0  0
  189.2850  177.3520  137.6440 C   0  0  0  0  0  0  0  0  0  0  0  0
  189.6170  177.0750  136.3150 C   0  0  0  0  0  3  0  0  0  0  0  0
  189.5170  177.9290  142.7720 C   0  0  0  0  0  2  0  0  0  0  0  0
  190.3930  175.7450  143.2470 O   0  0  0  0  0  1  0  0  0  0  0  0
  189.3310  176.6130  143.5150 C   0  0  1  0  0  3  0  0  0  0  0  0
  189.0650  178.0510  147.5810 C   0  0  1  0  0  3  0  0  0  0  0  0
  190.2960  176.8690  145.7680 C   0  0  0  0  0  3  0  0  0  0  0  0
  186.8500  177.1680  144.8480 O   0  0  0  0  0  0  0  0  0  0  0  0
  188.9660  178.2030  148.9500 F   0  0  0  0  0  0  0  0  0  0  0  0
  190.2090  177.0970  147.2500 C   0  0  0  0  0  2  0  0  0  0  0  0
  187.8820  177.1800  145.5690 C   0  0  0  0  0  0  0  0  0  0  0  0
  189.2040  176.8530  144.9900 C   0  0  0  0  0  0  0  0  0  0  0  0
  187.7520  177.4970  147.0310 C   0  0  0  0  0  2  0  0  0  0  0  0
  1  6  1  0  0  0  0
  2  5  2  0  0  0  0
  2 13  1  0  0  0  0
  3  2  1  0  0  0  0
  4  7  1  0  0  0  0
  5 16  1  0  0  0  0
  6 17  2  0  0  0  0
  7  3  2  0  0  0  0
  8 12  1  0  0  0  0
  8 21  1  0  0  0  0
  9  1  1  0  0  0  0
 10 18  1  0  0  0  0
 11  4  1  0  0  0  0
 13  8  2  0  0  0  0
 14  1  2  0  0  0  0
 14  5  1  0  0  0  0
 15  4  2  0  0  0  0
 15 20  1  0  0  0  0
 16 17  1  0  0  0  0
 16 12  2  0  0  0  0
 18 13  1  0  0  0  0
 19  3  1  0  0  0  0
 19 10  1  0  0  0  0
 20 19  2  0  0  0  0
 21 23  1  0  0  0  0
 23 22  1  1  0  0  0
 23 30  1  0  0  0  0
 24 27  1  1  0  0  0
 25 28  1  0  0  0  0
 26 29  2  0  0  0  0
 28 24  1  0  0  0  0
 29 31  1  0  0  0  0
 30 29  1  0  0  0  0
 30 25  2  0  0  0  0
 31 24  1  0  0  0  0
M  END
>  <MODEL>
9

>  <REMARK>
 VINA RESULT:      -9.3      2.416      7.665
  Name = 
  3 active torsions:
  status: ('A' for Active; 'I' for Inactive)
    1  A    between atoms: C_9  and  C_22
    2  A    between atoms: C_9  and  C_23
    3  A    between atoms: C_15  and  C_23
                            x       y       z     vdW  Elec       q    Type
                         _______ _______ _______ _____ _____    ______ ____

>  <TORSDO>
F 3

$$$$
