=
 OpenBabel11052412353D

 30 32  0  0  1  0  0  0  0  0999 V2000
  187.7270  177.8390  145.1720 C   0  0  0  0  0  0  0  0  0  0  0  0
  184.4590  179.4860  145.3060 O   0  0  0  0  0  0  0  0  0  0  0  0
  183.9920  178.6560  144.2740 C   0  0  2  0  0  3  0  0  0  0  0  0
  186.9320  178.6150  146.1710 C   0  0  1  0  0  3  0  0  0  0  0  0
  188.7730  177.2980  145.5050 O   0  0  0  0  0  0  0  0  0  0  0  0
  184.5080  178.7130  146.4830 C   0  0  0  0  0  2  0  0  0  0  0  0
  185.7020  177.7660  146.4530 C   0  0  2  0  0  3  0  0  0  0  0  0
  187.2350  177.8020  143.7380 C   0  0  2  0  0  3  0  0  0  0  0  0
  185.1220  178.3980  143.2550 C   0  0  1  0  0  3  0  0  0  0  0  0
  182.9020  179.2670  143.6770 F   0  0  0  0  0  0  0  0  0  0  0  0
  186.7370  177.9770  147.5340 C   0  0  0  0  0  2  0  0  0  0  0  0
  185.9160  177.3250  143.6840 O   0  0  0  0  0  0  0  0  0  0  0  0
  188.1030  176.9770  142.8410 C   0  0  0  0  0  0  0  0  0  0  0  0
  188.1120  175.7230  142.9730 O   0  0  0  0  0  0  0  0  0  0  0  0
  188.9110  177.6030  141.8880 O   0  0  0  0  0  0  0  0  0  0  0  0
  190.1480  177.0470  141.4500 C   0  0  2  0  0  3  0  0  0  0  0  0
  191.3160  177.8800  141.9810 C   0  0  1  0  0  3  0  0  0  0  0  0
  191.4610  175.9770  143.7190 C   0  0  0  0  0  1  0  0  0  0  0  0
  190.9980  178.3860  143.3750 C   0  0  0  0  0  2  0  0  0  0  0  0
  192.0330  177.2920  143.2050 C   0  0  2  0  0  3  0  0  0  0  0  0
  190.2020  176.9210  139.9250 C   0  0  0  0  0  2  0  0  0  0  0  0
  189.0030  178.9680  139.1530 O   0  0  0  0  0  1  0  0  0  0  0  0
  188.1190  176.8910  138.7530 O   0  0  0  0  0  0  0  0  0  0  0  0
  189.0480  177.5830  139.2460 C   0  0  0  0  0  0  0  0  0  0  0  0
  184.5770  178.0680  141.8710 C   0  0  0  0  0  2  0  0  0  0  0  0
  185.2350  178.9580  140.8240 C   0  0  0  0  0  2  0  0  0  0  0  0
  184.3880  179.0880  139.5620 C   0  0  0  0  0  0  0  0  0  0  0  0
  184.3650  180.4150  139.1310 O   0  0  0  0  0  1  0  0  0  0  0  0
  184.9360  178.2040  138.4560 C   0  0  0  0  0  1  0  0  0  0  0  0
  182.9730  178.6490  139.8780 C   0  0  0  0  0  1  0  0  0  0  0  0
  1  5  2  0  0  0  0
  1  4  1  0  0  0  0
  2  6  1  0  0  0  0
  3 10  1  6  0  0  0
  3  2  1  0  0  0  0
  4  7  1  0  0  0  0
  4 11  1  1  0  0  0
  7  6  1  1  0  0  0
  7 11  1  0  0  0  0
  8 13  1  6  0  0  0
  8  1  1  0  0  0  0
  9 25  1  6  0  0  0
  9 12  1  0  0  0  0
  9  3  1  0  0  0  0
 12  8  1  0  0  0  0
 13 14  2  0  0  0  0
 15 13  1  0  0  0  0
 16 21  1  6  0  0  0
 16 15  1  0  0  0  0
 17 16  1  1  0  0  0
 17 20  1  0  0  0  0
 17 19  1  0  0  0  0
 20 19  1  0  0  0  0
 20 18  1  1  0  0  0
 22 24  1  0  0  0  0
 23 24  2  0  0  0  0
 24 21  1  0  0  0  0
 26 25  1  0  0  0  0
 27 30  1  0  0  0  0
 27 26  1  0  0  0  0
 28 27  1  0  0  0  0
 29 27  1  0  0  0  0
M  END
>  <MODEL>
1

>  <REMARK>
 VINA RESULT:      -7.6      0.000      0.000
  Name = 
  9 active torsions:
  status: ('A' for Active; 'I' for Inactive)
    1  A    between atoms: C_1  and  O_4
    2  A    between atoms: C_1  and  C_22
    3  A    between atoms: O_4  and  C_12
    4  A    between atoms: C_7  and  C_10
    5  A    between atoms: C_7  and  C_25
    6  A    between atoms: C_8  and  C_12
    7  A    between atoms: C_9  and  C_12
    8  A    between atoms: C_9  and  C_21
    9  A    between atoms: C_23  and  C_25
                            x       y       z     vdW  Elec       q    Type
                         _______ _______ _______ _____ _____    ______ ____

>  <TORSDO>
F 9

$$$$
=
 OpenBabel11052412353D

 30 32  0  0  1  0  0  0  0  0999 V2000
  185.6790  178.4750  142.4500 C   0  0  0  0  0  0  0  0  0  0  0  0
  185.3810  177.4250  145.9450 O   0  0  0  0  0  0  0  0  0  0  0  0
  186.7430  177.7010  146.1510 C   0  0  2  0  0  3  0  0  0  0  0  0
  184.5920  178.3540  143.4690 C   0  0  1  0  0  3  0  0  0  0  0  0
  185.4530  179.0030  141.3700 O   0  0  0  0  0  0  0  0  0  0  0  0
  184.7020  178.6570  145.8940 C   0  0  0  0  0  2  0  0  0  0  0  0
  184.9510  179.3510  144.5600 C   0  0  2  0  0  3  0  0  0  0  0  0
  187.0320  177.8690  142.7710 C   0  0  2  0  0  3  0  0  0  0  0  0
  187.5510  177.3270  144.8890 C   0  0  1  0  0  3  0  0  0  0  0  0
  187.1750  176.9900  147.2570 F   0  0  0  0  0  0  0  0  0  0  0  0
  183.7310  179.5820  143.6990 C   0  0  0  0  0  2  0  0  0  0  0  0
  187.5290  178.3910  143.9760 O   0  0  0  0  0  0  0  0  0  0  0  0
  188.0390  178.0750  141.6830 C   0  0  0  0  0  0  0  0  0  0  0  0
  188.7880  179.0880  141.7190 O   0  0  0  0  0  0  0  0  0  0  0  0
  188.1210  177.1600  140.6310 O   0  0  0  0  0  0  0  0  0  0  0  0
  189.0330  177.3200  139.5470 C   0  0  2  0  0  3  0  0  0  0  0  0
  188.4020  176.8120  138.2490 C   0  0  1  0  0  3  0  0  0  0  0  0
  188.9820  179.1860  137.4180 C   0  0  0  0  0  1  0  0  0  0  0  0
  187.1470  177.6060  137.9400 C   0  0  0  0  0  2  0  0  0  0  0  0
  188.3860  177.8220  137.0940 C   0  0  2  0  0  3  0  0  0  0  0  0
  190.3690  176.6250  139.8260 C   0  0  0  0  0  2  0  0  0  0  0  0
  190.8470  174.7550  138.2440 O   0  0  0  0  0  1  0  0  0  0  0  0
  191.7050  176.8450  137.8570 O   0  0  0  0  0  0  0  0  0  0  0  0
  191.0140  176.0900  138.5890 C   0  0  0  0  0  0  0  0  0  0  0  0
  189.0040  177.0060  145.2180 C   0  0  0  0  0  2  0  0  0  0  0  0
  189.8680  178.2460  145.0300 C   0  0  0  0  0  2  0  0  0  0  0  0
  191.2860  177.9000  144.5870 C   0  0  0  0  0  0  0  0  0  0  0  0
  192.0080  177.3610  145.6530 O   0  0  0  0  0  1  0  0  0  0  0  0
  191.2610  176.9080  143.4380 C   0  0  0  0  0  1  0  0  0  0  0  0
  191.9730  179.1660  144.1180 C   0  0  0  0  0  1  0  0  0  0  0  0
  1  8  1  0  0  0  0
  1  4  1  0  0  0  0
  2  3  1  0  0  0  0
  3 10  1  1  0  0  0
  4 11  1  6  0  0  0
  4  7  1  0  0  0  0
  5  1  2  0  0  0  0
  6  2  1  0  0  0  0
  7 11  1  1  0  0  0
  7  6  1  0  0  0  0
  8 13  1  6  0  0  0
  8 12  1  0  0  0  0
  9 25  1  1  0  0  0
  9  3  1  0  0  0  0
 12  9  1  0  0  0  0
 13 14  2  0  0  0  0
 15 13  1  0  0  0  0
 16 21  1  1  0  0  0
 16 15  1  0  0  0  0
 17 16  1  1  0  0  0
 19 17  1  0  0  0  0
 20 18  1  1  0  0  0
 20 19  1  0  0  0  0
 20 17  1  0  0  0  0
 22 24  1  0  0  0  0
 23 24  2  0  0  0  0
 24 21  1  0  0  0  0
 26 25  1  0  0  0  0
 27 26  1  0  0  0  0
 27 28  1  0  0  0  0
 29 27  1  0  0  0  0
 30 27  1  0  0  0  0
M  END
>  <MODEL>
2

>  <REMARK>
 VINA RESULT:      -7.5      2.134      5.230
  Name = 
  9 active torsions:
  status: ('A' for Active; 'I' for Inactive)
    1  A    between atoms: C_1  and  O_4
    2  A    between atoms: C_1  and  C_22
    3  A    between atoms: O_4  and  C_12
    4  A    between atoms: C_7  and  C_10
    5  A    between atoms: C_7  and  C_25
    6  A    between atoms: C_8  and  C_12
    7  A    between atoms: C_9  and  C_12
    8  A    between atoms: C_9  and  C_21
    9  A    between atoms: C_23  and  C_25
                            x       y       z     vdW  Elec       q    Type
                         _______ _______ _______ _____ _____    ______ ____

>  <TORSDO>
F 9

$$$$
=
 OpenBabel11052412353D

 30 32  0  0  1  0  0  0  0  0999 V2000
  190.8080  176.9470  144.9140 C   0  0  0  0  0  0  0  0  0  0  0  0
  188.1730  178.3410  147.0410 O   0  0  0  0  0  0  0  0  0  0  0  0
  187.2030  177.6220  146.3220 C   0  0  2  0  0  3  0  0  0  0  0  0
  190.7020  177.5340  146.2850 C   0  0  1  0  0  3  0  0  0  0  0  0
  191.8570  176.4390  144.5430 O   0  0  0  0  0  0  0  0  0  0  0  0
  188.8460  177.4280  147.8750 C   0  0  0  0  0  2  0  0  0  0  0  0
  189.8150  176.5750  147.0650 C   0  0  2  0  0  3  0  0  0  0  0  0
  189.6100  177.0630  143.9910 C   0  0  2  0  0  3  0  0  0  0  0  0
  187.5870  177.5740  144.8270 C   0  0  1  0  0  3  0  0  0  0  0  0
  185.9740  178.2310  146.5090 F   0  0  0  0  0  0  0  0  0  0  0  0
  191.2760  176.7140  147.4260 C   0  0  0  0  0  2  0  0  0  0  0  0
  188.4700  176.5090  144.5960 O   0  0  0  0  0  0  0  0  0  0  0  0
  189.8320  176.4200  142.6590 C   0  0  0  0  0  0  0  0  0  0  0  0
  189.5110  175.2120  142.4950 O   0  0  0  0  0  0  0  0  0  0  0  0
  190.4150  177.1530  141.6220 O   0  0  0  0  0  0  0  0  0  0  0  0
  189.9410  177.0910  140.2800 C   0  0  2  0  0  3  0  0  0  0  0  0
  190.9970  177.6470  139.3230 C   0  0  1  0  0  3  0  0  0  0  0  0
  190.7870  175.3080  138.2490 C   0  0  0  0  0  1  0  0  0  0  0  0
  192.2870  176.8610  139.4640 C   0  0  0  0  0  2  0  0  0  0  0  0
  191.4460  176.6820  138.2160 C   0  0  2  0  0  3  0  0  0  0  0  0
  188.6040  177.8200  140.1180 C   0  0  0  0  0  2  0  0  0  0  0  0
  188.3940  179.1650  138.0270 O   0  0  0  0  0  0  0  0  0  0  0  0
  187.6590  176.9960  138.0840 O   0  0  0  0  0  1  0  0  0  0  0  0
  188.1890  177.9620  138.6900 C   0  0  0  0  0  0  0  0  0  0  0  0
  186.3680  177.3890  143.9320 C   0  0  0  0  0  2  0  0  0  0  0  0
  186.5300  178.2010  142.6540 C   0  0  0  0  0  2  0  0  0  0  0  0
  185.2460  178.9270  142.2640 C   0  0  0  0  0  0  0  0  0  0  0  0
  185.4880  179.7980  141.2000 O   0  0  0  0  0  1  0  0  0  0  0  0
  184.1670  177.9330  141.8730 C   0  0  0  0  0  1  0  0  0  0  0  0
  184.7590  179.7280  143.4540 C   0  0  0  0  0  1  0  0  0  0  0  0
  1  4  1  0  0  0  0
  2  6  1  0  0  0  0
  3 10  1  6  0  0  0
  3  2  1  0  0  0  0
  4  7  1  0  0  0  0
  4 11  1  1  0  0  0
  5  1  2  0  0  0  0
  7 11  1  1  0  0  0
  7  6  1  0  0  0  0
  8 13  1  6  0  0  0
  8 12  1  0  0  0  0
  8  1  1  0  0  0  0
  9 25  1  6  0  0  0
  9  3  1  0  0  0  0
 12  9  1  0  0  0  0
 14 13  2  0  0  0  0
 15 13  1  0  0  0  0
 16 21  1  1  0  0  0
 16 15  1  0  0  0  0
 17 19  1  0  0  0  0
 17 16  1  1  0  0  0
 20 18  1  1  0  0  0
 20 17  1  0  0  0  0
 20 19  1  0  0  0  0
 22 24  2  0  0  0  0
 23 24  1  0  0  0  0
 24 21  1  0  0  0  0
 26 25  1  0  0  0  0
 27 26  1  0  0  0  0
 27 30  1  0  0  0  0
 28 27  1  0  0  0  0
 29 27  1  0  0  0  0
M  END
>  <MODEL>
3

>  <REMARK>
 VINA RESULT:      -7.4      2.047      3.329
  Name = 
  9 active torsions:
  status: ('A' for Active; 'I' for Inactive)
    1  A    between atoms: C_1  and  O_4
    2  A    between atoms: C_1  and  C_22
    3  A    between atoms: O_4  and  C_12
    4  A    between atoms: C_7  and  C_10
    5  A    between atoms: C_7  and  C_25
    6  A    between atoms: C_8  and  C_12
    7  A    between atoms: C_9  and  C_12
    8  A    between atoms: C_9  and  C_21
    9  A    between atoms: C_23  and  C_25
                            x       y       z     vdW  Elec       q    Type
                         _______ _______ _______ _____ _____    ______ ____

>  <TORSDO>
F 9

$$$$
=
 OpenBabel11052412353D

 30 32  0  0  1  0  0  0  0  0999 V2000
  190.5410  176.9370  141.7960 C   0  0  0  0  0  0  0  0  0  0  0  0
  188.2610  177.1680  138.9400 O   0  0  0  0  0  0  0  0  0  0  0  0
  187.6380  178.2850  139.5190 C   0  0  2  0  0  3  0  0  0  0  0  0
  190.5300  176.5060  140.3650 C   0  0  1  0  0  3  0  0  0  0  0  0
  191.5550  176.8090  142.4690 O   0  0  0  0  0  0  0  0  0  0  0  0
  189.5030  177.5900  138.4280 C   0  0  0  0  0  2  0  0  0  0  0  0
  190.5060  177.7940  139.5570 C   0  0  2  0  0  3  0  0  0  0  0  0
  189.2520  177.4670  142.3940 C   0  0  2  0  0  3  0  0  0  0  0  0
  187.5680  178.1130  141.0520 C   0  0  1  0  0  3  0  0  0  0  0  0
  186.3760  178.4230  138.9670 F   0  0  0  0  0  0  0  0  0  0  0  0
  191.7280  176.9050  139.5210 C   0  0  0  0  0  2  0  0  0  0  0  0
  188.7680  178.5450  141.6360 O   0  0  0  0  0  0  0  0  0  0  0  0
  189.3970  177.8840  143.8230 C   0  0  0  0  0  0  0  0  0  0  0  0
  189.9700  178.9740  144.0930 O   0  0  0  0  0  0  0  0  0  0  0  0
  188.9200  177.0540  144.8410 O   0  0  0  0  0  0  0  0  0  0  0  0
  187.9880  177.5030  145.8210 C   0  0  2  0  0  3  0  0  0  0  0  0
  188.1990  176.7460  147.1330 C   0  0  1  0  0  3  0  0  0  0  0  0
  188.2140  179.1280  148.1280 C   0  0  0  0  0  1  0  0  0  0  0  0
  189.5580  177.0890  147.7140 C   0  0  0  0  0  2  0  0  0  0  0  0
  188.3110  177.6290  148.3840 C   0  0  2  0  0  3  0  0  0  0  0  0
  186.5440  177.3710  145.3290 C   0  0  0  0  0  2  0  0  0  0  0  0
  184.9280  178.3670  146.9480 O   0  0  0  0  0  1  0  0  0  0  0  0
  185.6090  179.5600  145.1140 O   0  0  0  0  0  0  0  0  0  0  0  0
  185.6700  178.4960  145.7820 C   0  0  0  0  0  0  0  0  0  0  0  0
  186.4220  178.9090  141.6630 C   0  0  0  0  0  2  0  0  0  0  0  0
  185.2370  177.9930  141.9370 C   0  0  0  0  0  2  0  0  0  0  0  0
  183.9320  178.5520  141.3790 C   0  0  0  0  0  0  0  0  0  0  0  0
  184.1880  179.6640  140.5760 O   0  0  0  0  0  1  0  0  0  0  0  0
  183.2020  177.4960  140.5680 C   0  0  0  0  0  1  0  0  0  0  0  0
  183.0480  178.9720  142.5350 C   0  0  0  0  0  1  0  0  0  0  0  0
  1  8  1  0  0  0  0
  1  5  2  0  0  0  0
  2  3  1  0  0  0  0
  3 10  1  6  0  0  0
  3  9  1  0  0  0  0
  4 11  1  6  0  0  0
  4  1  1  0  0  0  0
  6  2  1  0  0  0  0
  7  6  1  6  0  0  0
  7  4  1  0  0  0  0
  8 13  1  1  0  0  0
  9 12  1  0  0  0  0
  9 25  1  1  0  0  0
 11  7  1  0  0  0  0
 12  8  1  0  0  0  0
 13 14  2  0  0  0  0
 13 15  1  0  0  0  0
 15 16  1  0  0  0  0
 16 21  1  6  0  0  0
 17 16  1  6  0  0  0
 17 19  1  0  0  0  0
 17 20  1  0  0  0  0
 19 20  1  0  0  0  0
 20 18  1  6  0  0  0
 21 24  1  0  0  0  0
 23 24  2  0  0  0  0
 24 22  1  0  0  0  0
 25 26  1  0  0  0  0
 27 26  1  0  0  0  0
 27 30  1  0  0  0  0
 28 27  1  0  0  0  0
 29 27  1  0  0  0  0
M  END
>  <MODEL>
4

>  <REMARK>
 VINA RESULT:      -7.2      1.907      5.634
  Name = 
  9 active torsions:
  status: ('A' for Active; 'I' for Inactive)
    1  A    between atoms: C_1  and  O_4
    2  A    between atoms: C_1  and  C_22
    3  A    between atoms: O_4  and  C_12
    4  A    between atoms: C_7  and  C_10
    5  A    between atoms: C_7  and  C_25
    6  A    between atoms: C_8  and  C_12
    7  A    between atoms: C_9  and  C_12
    8  A    between atoms: C_9  and  C_21
    9  A    between atoms: C_23  and  C_25
                            x       y       z     vdW  Elec       q    Type
                         _______ _______ _______ _____ _____    ______ ____

>  <TORSDO>
F 9

$$$$
=
 OpenBabel11052412353D

 30 32  0  0  1  0  0  0  0  0999 V2000
  190.1950  177.8290  142.2830 C   0  0  0  0  0  0  0  0  0  0  0  0
  187.7760  178.1040  145.0180 O   0  0  0  0  0  0  0  0  0  0  0  0
  186.7820  177.5370  144.2040 C   0  0  2  0  0  3  0  0  0  0  0  0
  190.2340  177.9220  143.7750 C   0  0  1  0  0  3  0  0  0  0  0  0
  191.2220  177.6100  141.6550 O   0  0  0  0  0  0  0  0  0  0  0  0
  188.6390  177.0670  145.4210 C   0  0  0  0  0  2  0  0  0  0  0  0
  189.5550  176.6560  144.2730 C   0  0  2  0  0  3  0  0  0  0  0  0
  188.8730  178.0800  141.5840 C   0  0  2  0  0  3  0  0  0  0  0  0
  186.9520  178.0240  142.7500 C   0  0  1  0  0  3  0  0  0  0  0  0
  185.5430  177.8860  144.7140 F   0  0  0  0  0  0  0  0  0  0  0  0
  191.0340  176.8600  144.5060 C   0  0  0  0  0  2  0  0  0  0  0  0
  187.8840  177.2170  142.0820 O   0  0  0  0  0  0  0  0  0  0  0  0
  188.9600  177.9370  140.0970 C   0  0  0  0  0  0  0  0  0  0  0  0
  188.8680  178.9640  139.3710 O   0  0  0  0  0  0  0  0  0  0  0  0
  189.1150  176.6700  139.5290 O   0  0  0  0  0  0  0  0  0  0  0  0
  189.8960  176.4470  138.3580 C   0  0  2  0  0  3  0  0  0  0  0  0
  189.1030  175.6140  137.3490 C   0  0  1  0  0  3  0  0  0  0  0  0
  189.1000  177.8240  136.0150 C   0  0  0  0  0  1  0  0  0  0  0  0
  187.6990  176.1680  137.2110 C   0  0  0  0  0  2  0  0  0  0  0  0
  188.6830  176.3600  136.0750 C   0  0  2  0  0  3  0  0  0  0  0  0
  191.2380  175.7900  138.6900 C   0  0  0  0  0  2  0  0  0  0  0  0
  193.4260  176.9890  138.6290 O   0  0  0  0  0  1  0  0  0  0  0  0
  192.4030  176.3500  136.6800 O   0  0  0  0  0  0  0  0  0  0  0  0
  192.3810  176.3900  137.9370 C   0  0  0  0  0  0  0  0  0  0  0  0
  185.6390  177.9820  141.9780 C   0  0  0  0  0  2  0  0  0  0  0  0
  185.4790  179.2490  141.1480 C   0  0  0  0  0  2  0  0  0  0  0  0
  184.6430  179.0160  139.8930 C   0  0  0  0  0  0  0  0  0  0  0  0
  184.2380  180.2360  139.3500 O   0  0  0  0  0  1  0  0  0  0  0  0
  185.4370  178.2370  138.8590 C   0  0  0  0  0  1  0  0  0  0  0  0
  183.4160  178.2120  140.2680 C   0  0  0  0  0  1  0  0  0  0  0  0
  1  4  1  0  0  0  0
  2  6  1  0  0  0  0
  3 10  1  1  0  0  0
  3  2  1  0  0  0  0
  4  7  1  0  0  0  0
  4 11  1  1  0  0  0
  5  1  2  0  0  0  0
  7 11  1  1  0  0  0
  7  6  1  0  0  0  0
  8 13  1  6  0  0  0
  8 12  1  0  0  0  0
  8  1  1  0  0  0  0
  9 25  1  6  0  0  0
  9  3  1  0  0  0  0
 12  9  1  0  0  0  0
 14 13  2  0  0  0  0
 15 13  1  0  0  0  0
 16 21  1  1  0  0  0
 16 15  1  0  0  0  0
 17 16  1  1  0  0  0
 19 17  1  0  0  0  0
 20 18  1  1  0  0  0
 20 19  1  0  0  0  0
 20 17  1  0  0  0  0
 23 24  2  0  0  0  0
 24 22  1  0  0  0  0
 24 21  1  0  0  0  0
 26 25  1  0  0  0  0
 27 30  1  0  0  0  0
 27 26  1  0  0  0  0
 28 27  1  0  0  0  0
 29 27  1  0  0  0  0
M  END
>  <MODEL>
5

>  <REMARK>
 VINA RESULT:      -7.2      2.141      4.108
  Name = 
  9 active torsions:
  status: ('A' for Active; 'I' for Inactive)
    1  A    between atoms: C_1  and  O_4
    2  A    between atoms: C_1  and  C_22
    3  A    between atoms: O_4  and  C_12
    4  A    between atoms: C_7  and  C_10
    5  A    between atoms: C_7  and  C_25
    6  A    between atoms: C_8  and  C_12
    7  A    between atoms: C_9  and  C_12
    8  A    between atoms: C_9  and  C_21
    9  A    between atoms: C_23  and  C_25
                            x       y       z     vdW  Elec       q    Type
                         _______ _______ _______ _____ _____    ______ ____

>  <TORSDO>
F 9

$$$$
=
 OpenBabel11052412353D

 30 32  0  0  1  0  0  0  0  0999 V2000
  185.3080  178.6840  145.2440 C   0  0  0  0  0  0  0  0  0  0  0  0
  184.8840  179.5070  141.7010 O   0  0  0  0  0  0  0  0  0  0  0  0
  185.6970  178.4180  141.3440 C   0  0  2  0  0  3  0  0  0  0  0  0
  184.3150  179.4180  144.4000 C   0  0  1  0  0  3  0  0  0  0  0  0
  185.0740  178.4750  146.4260 O   0  0  0  0  0  0  0  0  0  0  0  0
  183.6320  178.9930  142.0900 C   0  0  0  0  0  2  0  0  0  0  0  0
  183.7180  178.3670  143.4770 C   0  0  2  0  0  3  0  0  0  0  0  0
  186.6230  178.2740  144.6090 C   0  0  2  0  0  3  0  0  0  0  0  0
  186.8380  178.2550  142.3720 C   0  0  1  0  0  3  0  0  0  0  0  0
  186.1910  178.6360  140.0700 F   0  0  0  0  0  0  0  0  0  0  0  0
  182.8610  179.0080  144.5440 C   0  0  0  0  0  2  0  0  0  0  0  0
  186.3920  177.4960  143.4630 O   0  0  0  0  0  0  0  0  0  0  0  0
  187.5190  177.5300  145.5470 C   0  0  0  0  0  0  0  0  0  0  0  0
  187.1530  177.3500  146.7400 O   0  0  0  0  0  0  0  0  0  0  0  0
  188.7600  177.0670  145.1010 O   0  0  0  0  0  0  0  0  0  0  0  0
  189.9810  177.3950  145.7590 C   0  0  2  0  0  3  0  0  0  0  0  0
  191.1720  176.9850  144.8920 C   0  0  1  0  0  3  0  0  0  0  0  0
  190.9110  179.3820  143.9690 C   0  0  0  0  0  1  0  0  0  0  0  0
  190.7660  176.9680  143.4310 C   0  0  0  0  0  2  0  0  0  0  0  0
  191.6810  178.0680  143.9300 C   0  0  2  0  0  3  0  0  0  0  0  0
  190.0610  176.7620  147.1510 C   0  0  0  0  0  2  0  0  0  0  0  0
  192.0310  175.2330  147.0860 O   0  0  0  0  0  0  0  0  0  0  0  0
  192.1170  177.1760  148.2980 O   0  0  0  0  0  1  0  0  0  0  0  0
  191.4570  176.4090  147.5490 C   0  0  0  0  0  0  0  0  0  0  0  0
  188.0530  177.5620  141.7680 C   0  0  0  0  0  2  0  0  0  0  0  0
  188.8210  178.5310  140.8800 C   0  0  0  0  0  2  0  0  0  0  0  0
  189.3190  177.8710  139.5990 C   0  0  0  0  0  0  0  0  0  0  0  0
  188.5840  176.7140  139.3340 O   0  0  0  0  0  1  0  0  0  0  0  0
  189.2020  178.8260  138.4240 C   0  0  0  0  0  1  0  0  0  0  0  0
  190.7760  177.4980  139.7770 C   0  0  0  0  0  1  0  0  0  0  0  0
  1  5  2  0  0  0  0
  2  6  1  0  0  0  0
  3 10  1  6  0  0  0
  3  2  1  0  0  0  0
  3  9  1  0  0  0  0
  4 11  1  1  0  0  0
  4  1  1  0  0  0  0
  7  6  1  6  0  0  0
  7  4  1  0  0  0  0
  7 11  1  0  0  0  0
  8  1  1  0  0  0  0
  8 13  1  1  0  0  0
  9 25  1  6  0  0  0
  9 12  1  0  0  0  0
 12  8  1  0  0  0  0
 13 14  2  0  0  0  0
 15 13  1  0  0  0  0
 15 16  1  0  0  0  0
 16 21  1  1  0  0  0
 17 16  1  1  0  0  0
 19 20  1  0  0  0  0
 19 17  1  0  0  0  0
 20 18  1  1  0  0  0
 20 17  1  0  0  0  0
 21 24  1  0  0  0  0
 22 24  2  0  0  0  0
 24 23  1  0  0  0  0
 26 25  1  0  0  0  0
 27 30  1  0  0  0  0
 27 26  1  0  0  0  0
 28 27  1  0  0  0  0
 29 27  1  0  0  0  0
M  END
>  <MODEL>
6

>  <REMARK>
 VINA RESULT:      -7.2      2.109      4.867
  Name = 
  9 active torsions:
  status: ('A' for Active; 'I' for Inactive)
    1  A    between atoms: C_1  and  O_4
    2  A    between atoms: C_1  and  C_22
    3  A    between atoms: O_4  and  C_12
    4  A    between atoms: C_7  and  C_10
    5  A    between atoms: C_7  and  C_25
    6  A    between atoms: C_8  and  C_12
    7  A    between atoms: C_9  and  C_12
    8  A    between atoms: C_9  and  C_21
    9  A    between atoms: C_23  and  C_25
                            x       y       z     vdW  Elec       q    Type
                         _______ _______ _______ _____ _____    ______ ____

>  <TORSDO>
F 9

$$$$
=
 OpenBabel11052412353D

 30 32  0  0  1  0  0  0  0  0999 V2000
  187.5070  177.5260  144.0700 C   0  0  0  0  0  0  0  0  0  0  0  0
  190.8710  176.5270  143.0230 O   0  0  0  0  0  0  0  0  0  0  0  0
  190.8450  177.4900  142.0000 C   0  0  2  0  0  3  0  0  0  0  0  0
  188.6930  176.8570  144.6870 C   0  0  1  0  0  3  0  0  0  0  0  0
  186.5480  177.8360  144.7630 O   0  0  0  0  0  0  0  0  0  0  0  0
  191.0730  177.2050  144.2400 C   0  0  0  0  0  2  0  0  0  0  0  0
  189.7940  177.9070  144.6820 C   0  0  2  0  0  3  0  0  0  0  0  0
  187.5060  177.7400  142.5690 C   0  0  2  0  0  3  0  0  0  0  0  0
  189.4230  177.5880  141.4060 C   0  0  1  0  0  3  0  0  0  0  0  0
  191.7730  177.1350  141.0360 F   0  0  0  0  0  0  0  0  0  0  0  0
  189.2050  177.4390  145.9920 C   0  0  0  0  0  2  0  0  0  0  0  0
  188.6440  178.4620  142.1770 O   0  0  0  0  0  0  0  0  0  0  0  0
  186.2760  178.4360  142.0770 C   0  0  0  0  0  0  0  0  0  0  0  0
  186.3580  179.6320  141.6890 O   0  0  0  0  0  0  0  0  0  0  0  0
  185.0510  177.7650  142.0790 O   0  0  0  0  0  0  0  0  0  0  0  0
  183.8020  178.4520  142.1040 C   0  0  2  0  0  3  0  0  0  0  0  0
  183.5250  179.0880  140.7400 C   0  0  1  0  0  3  0  0  0  0  0  0
  181.2730  177.8500  140.9830 C   0  0  0  0  0  1  0  0  0  0  0  0
  183.3780  178.0070  139.6870 C   0  0  0  0  0  2  0  0  0  0  0  0
  182.1490  178.7680  140.1400 C   0  0  2  0  0  3  0  0  0  0  0  0
  183.7530  179.4950  143.2240 C   0  0  0  0  0  2  0  0  0  0  0  0
  183.6480  178.9970  145.6670 O   0  0  0  0  0  1  0  0  0  0  0  0
  181.8200  178.6340  144.3340 O   0  0  0  0  0  0  0  0  0  0  0  0
  183.0150  179.0160  144.4310 C   0  0  0  0  0  0  0  0  0  0  0  0
  189.4400  178.0970  139.9700 C   0  0  0  0  0  2  0  0  0  0  0  0
  188.6680  177.1430  139.0680 C   0  0  0  0  0  2  0  0  0  0  0  0
  187.8570  177.8810  138.0070 C   0  0  0  0  0  0  0  0  0  0  0  0
  186.8390  178.6230  138.6060 O   0  0  0  0  0  1  0  0  0  0  0  0
  188.7510  178.8040  137.1980 C   0  0  0  0  0  1  0  0  0  0  0  0
  187.2390  176.8620  137.0720 C   0  0  0  0  0  1  0  0  0  0  0  0
  1  4  1  0  0  0  0
  1  5  2  0  0  0  0
  2  6  1  0  0  0  0
  3 10  1  6  0  0  0
  3  2  1  0  0  0  0
  4 11  1  1  0  0  0
  7  6  1  1  0  0  0
  7  4  1  0  0  0  0
  7 11  1  0  0  0  0
  8 13  1  1  0  0  0
  8  1  1  0  0  0  0
  9 25  1  6  0  0  0
  9  3  1  0  0  0  0
  9 12  1  0  0  0  0
 12  8  1  0  0  0  0
 13 15  1  0  0  0  0
 14 13  2  0  0  0  0
 15 16  1  0  0  0  0
 16 21  1  1  0  0  0
 17 16  1  1  0  0  0
 19 20  1  0  0  0  0
 19 17  1  0  0  0  0
 20 17  1  0  0  0  0
 20 18  1  1  0  0  0
 21 24  1  0  0  0  0
 23 24  2  0  0  0  0
 24 22  1  0  0  0  0
 26 25  1  0  0  0  0
 27 28  1  0  0  0  0
 27 26  1  0  0  0  0
 29 27  1  0  0  0  0
 30 27  1  0  0  0  0
M  END
>  <MODEL>
7

>  <REMARK>
 VINA RESULT:      -7.1      2.477      6.212
  Name = 
  9 active torsions:
  status: ('A' for Active; 'I' for Inactive)
    1  A    between atoms: C_1  and  O_4
    2  A    between atoms: C_1  and  C_22
    3  A    between atoms: O_4  and  C_12
    4  A    between atoms: C_7  and  C_10
    5  A    between atoms: C_7  and  C_25
    6  A    between atoms: C_8  and  C_12
    7  A    between atoms: C_9  and  C_12
    8  A    between atoms: C_9  and  C_21
    9  A    between atoms: C_23  and  C_25
                            x       y       z     vdW  Elec       q    Type
                         _______ _______ _______ _____ _____    ______ ____

>  <TORSDO>
F 9

$$$$
=
 OpenBabel11052412353D

 30 32  0  0  1  0  0  0  0  0999 V2000
  185.6740  178.4010  142.4790 C   0  0  0  0  0  0  0  0  0  0  0  0
  185.3510  177.5430  146.0240 O   0  0  0  0  0  0  0  0  0  0  0  0
  186.6710  177.9670  146.2530 C   0  0  2  0  0  3  0  0  0  0  0  0
  184.5670  178.2330  143.4690 C   0  0  1  0  0  3  0  0  0  0  0  0
  185.4380  178.8350  141.3600 O   0  0  0  0  0  0  0  0  0  0  0  0
  184.5550  178.6940  145.8710 C   0  0  0  0  0  2  0  0  0  0  0  0
  184.7850  179.3270  144.5030 C   0  0  2  0  0  3  0  0  0  0  0  0
  187.0670  177.9550  142.8800 C   0  0  2  0  0  3  0  0  0  0  0  0
  187.5580  177.6000  145.0440 C   0  0  1  0  0  3  0  0  0  0  0  0
  187.1290  177.3730  147.4170 F   0  0  0  0  0  0  0  0  0  0  0  0
  183.5800  179.3800  143.5920 C   0  0  0  0  0  2  0  0  0  0  0  0
  187.4650  178.5980  144.0640 O   0  0  0  0  0  0  0  0  0  0  0  0
  188.0890  178.1940  141.8130 C   0  0  0  0  0  0  0  0  0  0  0  0
  188.4530  179.3750  141.5600 O   0  0  0  0  0  0  0  0  0  0  0  0
  188.6080  177.1140  141.0950 O   0  0  0  0  0  0  0  0  0  0  0  0
  188.8460  177.1740  139.6910 C   0  0  2  0  0  3  0  0  0  0  0  0
  190.1940  177.8430  139.4140 C   0  0  1  0  0  3  0  0  0  0  0  0
  190.7400  175.5600  138.3400 C   0  0  0  0  0  1  0  0  0  0  0  0
  191.2920  177.1270  140.1770 C   0  0  0  0  0  2  0  0  0  0  0  0
  191.2150  176.9690  138.6720 C   0  0  2  0  0  3  0  0  0  0  0  0
  187.7090  177.8870  138.9540 C   0  0  0  0  0  2  0  0  0  0  0  0
  188.0370  177.2100  136.5760 O   0  0  0  0  0  0  0  0  0  0  0  0
  188.3410  179.3920  137.2080 O   0  0  0  0  0  1  0  0  0  0  0  0
  188.0490  178.2130  137.5360 C   0  0  0  0  0  0  0  0  0  0  0  0
  189.0220  177.4490  145.4380 C   0  0  0  0  0  2  0  0  0  0  0  0
  189.7390  176.5410  144.4480 C   0  0  0  0  0  2  0  0  0  0  0  0
  191.2550  176.7010  144.5100 C   0  0  0  0  0  0  0  0  0  0  0  0
  191.8810  175.6200  143.8870 O   0  0  0  0  0  1  0  0  0  0  0  0
  191.6840  177.9940  143.8390 C   0  0  0  0  0  1  0  0  0  0  0  0
  191.6800  176.7450  145.9630 C   0  0  0  0  0  1  0  0  0  0  0  0
  1  8  1  0  0  0  0
  1  4  1  0  0  0  0
  2  3  1  0  0  0  0
  3 10  1  1  0  0  0
  4 11  1  6  0  0  0
  4  7  1  0  0  0  0
  5  1  2  0  0  0  0
  6  2  1  0  0  0  0
  7 11  1  6  0  0  0
  7  6  1  0  0  0  0
  8 13  1  6  0  0  0
  8 12  1  0  0  0  0
  9 25  1  1  0  0  0
  9  3  1  0  0  0  0
 12  9  1  0  0  0  0
 14 13  2  0  0  0  0
 15 13  1  0  0  0  0
 16 21  1  6  0  0  0
 16 15  1  0  0  0  0
 17 16  1  1  0  0  0
 17 19  1  0  0  0  0
 20 18  1  1  0  0  0
 20 17  1  0  0  0  0
 20 19  1  0  0  0  0
 22 24  2  0  0  0  0
 23 24  1  0  0  0  0
 24 21  1  0  0  0  0
 26 27  1  0  0  0  0
 26 25  1  0  0  0  0
 27 30  1  0  0  0  0
 28 27  1  0  0  0  0
 29 27  1  0  0  0  0
M  END
>  <MODEL>
8

>  <REMARK>
 VINA RESULT:      -7.1      2.094      4.920
  Name = 
  9 active torsions:
  status: ('A' for Active; 'I' for Inactive)
    1  A    between atoms: C_1  and  O_4
    2  A    between atoms: C_1  and  C_22
    3  A    between atoms: O_4  and  C_12
    4  A    between atoms: C_7  and  C_10
    5  A    between atoms: C_7  and  C_25
    6  A    between atoms: C_8  and  C_12
    7  A    between atoms: C_9  and  C_12
    8  A    between atoms: C_9  and  C_21
    9  A    between atoms: C_23  and  C_25
                            x       y       z     vdW  Elec       q    Type
                         _______ _______ _______ _____ _____    ______ ____

>  <TORSDO>
F 9

$$$$
=
 OpenBabel11052412353D

 30 32  0  0  1  0  0  0  0  0999 V2000
  186.8130  177.5730  144.0380 C   0  0  0  0  0  0  0  0  0  0  0  0
  190.0900  176.5390  142.7720 O   0  0  0  0  0  0  0  0  0  0  0  0
  190.0330  177.5410  141.7900 C   0  0  2  0  0  3  0  0  0  0  0  0
  188.0130  176.8540  144.5630 C   0  0  1  0  0  3  0  0  0  0  0  0
  185.9000  177.8790  144.7930 O   0  0  0  0  0  0  0  0  0  0  0  0
  190.3740  177.1650  144.0010 C   0  0  0  0  0  2  0  0  0  0  0  0
  189.1380  177.8780  144.5380 C   0  0  2  0  0  3  0  0  0  0  0  0
  186.7370  177.8450  142.5480 C   0  0  2  0  0  3  0  0  0  0  0  0
  188.5850  177.6950  141.2780 C   0  0  1  0  0  3  0  0  0  0  0  0
  190.8990  177.2030  140.7640 F   0  0  0  0  0  0  0  0  0  0  0  0
  188.6080  177.3730  145.8600 C   0  0  0  0  0  2  0  0  0  0  0  0
  187.8700  178.5570  142.1220 O   0  0  0  0  0  0  0  0  0  0  0  0
  185.5000  178.5880  142.1500 C   0  0  0  0  0  0  0  0  0  0  0  0
  185.5300  179.8470  142.0840 O   0  0  0  0  0  0  0  0  0  0  0  0
  184.3230  177.8850  141.8830 O   0  0  0  0  0  0  0  0  0  0  0  0
  183.4400  178.2450  140.8250 C   0  0  2  0  0  3  0  0  0  0  0  0
  182.0300  177.7250  141.1160 C   0  0  1  0  0  3  0  0  0  0  0  0
  181.3310  179.9640  140.0370 C   0  0  0  0  0  1  0  0  0  0  0  0
  181.3440  178.6280  142.1230 C   0  0  0  0  0  2  0  0  0  0  0  0
  180.8890  178.6540  140.6780 C   0  0  2  0  0  3  0  0  0  0  0  0
  183.9480  177.7470  139.4690 C   0  0  0  0  0  2  0  0  0  0  0  0
  184.5540  180.1270  139.0340 O   0  0  0  0  0  1  0  0  0  0  0  0
  185.5170  178.4470  137.8080 O   0  0  0  0  0  0  0  0  0  0  0  0
  184.7180  178.7850  138.7200 C   0  0  0  0  0  0  0  0  0  0  0  0
  188.5380  178.2590  139.8630 C   0  0  0  0  0  2  0  0  0  0  0  0
  188.3900  177.1280  138.8540 C   0  0  0  0  0  2  0  0  0  0  0  0
  189.0130  177.4720  137.5050 C   0  0  0  0  0  0  0  0  0  0  0  0
  188.2830  176.8830  136.4710 O   0  0  0  0  0  1  0  0  0  0  0  0
  189.0550  178.9770  137.3040 C   0  0  0  0  0  1  0  0  0  0  0  0
  190.4300  176.9390  137.4730 C   0  0  0  0  0  1  0  0  0  0  0  0
  1  4  1  0  0  0  0
  1  5  2  0  0  0  0
  2  6  1  0  0  0  0
  3 10  1  6  0  0  0
  3  2  1  0  0  0  0
  4 11  1  1  0  0  0
  7  6  1  6  0  0  0
  7  4  1  0  0  0  0
  7 11  1  0  0  0  0
  8 13  1  1  0  0  0
  8  1  1  0  0  0  0
  9 25  1  6  0  0  0
  9  3  1  0  0  0  0
  9 12  1  0  0  0  0
 12  8  1  0  0  0  0
 14 13  2  0  0  0  0
 15 13  1  0  0  0  0
 16 21  1  6  0  0  0
 16 15  1  0  0  0  0
 17 16  1  6  0  0  0
 17 19  1  0  0  0  0
 20 18  1  6  0  0  0
 20 17  1  0  0  0  0
 20 19  1  0  0  0  0
 23 24  2  0  0  0  0
 24 22  1  0  0  0  0
 24 21  1  0  0  0  0
 26 25  1  0  0  0  0
 27 26  1  0  0  0  0
 28 27  1  0  0  0  0
 29 27  1  0  0  0  0
 30 27  1  0  0  0  0
M  END
>  <MODEL>
9

>  <REMARK>
 VINA RESULT:      -7.1      2.443      6.056
  Name = 
  9 active torsions:
  status: ('A' for Active; 'I' for Inactive)
    1  A    between atoms: C_1  and  O_4
    2  A    between atoms: C_1  and  C_22
    3  A    between atoms: O_4  and  C_12
    4  A    between atoms: C_7  and  C_10
    5  A    between atoms: C_7  and  C_25
    6  A    between atoms: C_8  and  C_12
    7  A    between atoms: C_9  and  C_12
    8  A    between atoms: C_9  and  C_21
    9  A    between atoms: C_23  and  C_25
                            x       y       z     vdW  Elec       q    Type
                         _______ _______ _______ _____ _____    ______ ____

>  <TORSDO>
F 9

$$$$
