=
 OpenBabel11052413273D

 28 32  0  0  1  0  0  0  0  0999 V2000
  184.4960  178.1840  142.2600 C   0  0  0  0  0  3  0  0  0  0  0  0
  189.1010  177.7290  146.3620 O   0  0  0  0  0  1  0  0  0  0  0  0
  184.3720  178.5830  144.6530 C   0  0  0  0  0  0  0  0  0  0  0  0
  186.5210  177.6390  143.6670 C   0  0  1  0  0  3  0  0  0  0  0  0
  182.4540  179.0320  143.2390 C   0  0  0  0  0  0  0  0  0  0  0  0
  185.1210  178.1930  143.5170 C   0  0  0  0  0  0  0  0  0  0  0  0
  186.2140  177.7280  146.1370 C   0  0  0  0  0  2  0  0  0  0  0  0
  183.0520  179.0180  144.5010 C   0  0  0  0  0  3  0  0  0  0  0  0
  189.4490  177.6290  143.9910 C   0  0  2  0  0  3  0  0  0  0  0  0
  187.4380  178.0660  142.5280 C   0  0  0  0  0  2  0  0  0  0  0  0
  184.9840  178.6250  146.0260 C   0  0  0  0  0  2  0  0  0  0  0  0
  188.5040  177.3230  145.1650 C   0  0  2  0  0  3  0  0  0  0  0  0
  180.7990  179.5730  143.0610 Cl  0  0  0  0  0  0  0  0  0  0  0  0
  183.1740  178.6090  142.1200 C   0  0  0  0  0  3  0  0  0  0  0  0
  187.1680  178.0470  144.9930 C   0  0  1  0  0  3  0  0  0  0  0  0
  188.7740  177.3300  142.6330 C   0  0  1  0  0  3  0  0  0  0  0  0
  189.6580  177.7530  141.4630 C   0  0  2  0  0  3  0  0  0  0  0  0
  189.2860  176.9520  140.2270 C   0  0  2  0  0  3  0  0  0  0  0  0
  190.5200  176.5880  141.0200 C   0  0  0  0  0  2  0  0  0  0  0  0
  189.6910  177.7390  138.9900 C   0  0  2  0  0  3  0  0  0  0  0  0
  188.4560  178.4210  138.4060 C   0  0  2  0  0  3  0  0  0  0  0  0
  189.9030  177.4110  136.4510 C   0  0  0  0  0  1  0  0  0  0  0  0
  189.0620  177.2170  137.7050 C   0  0  1  0  0  0  0  0  0  0  0  0
  188.8370  179.6120  137.7830 O   0  0  0  0  0  1  0  0  0  0  0  0
  188.3000  175.9790  137.8230 N   0  0  0  0  0  2  0  0  0  0  0  0
  187.0510  176.2250  137.3610 O   0  0  0  0  0  1  0  0  0  0  0  0
  191.8270  177.6490  144.2620 O   0  0  0  0  0  1  0  0  0  0  0  0
  190.7210  176.8050  144.1610 C   0  0  0  0  0  2  0  0  0  0  0  0
  1  6  1  0  0  0  0
  3 11  1  0  0  0  0
  4 10  1  6  0  0  0
  4 15  1  0  0  0  0
  5  8  2  0  0  0  0
  6  4  1  0  0  0  0
  6  3  2  0  0  0  0
  8  3  1  0  0  0  0
  9 28  1  1  0  0  0
  9 12  1  0  0  0  0
 11  7  1  0  0  0  0
 12  2  1  1  0  0  0
 13  5  1  0  0  0  0
 14  1  2  0  0  0  0
 14  5  1  0  0  0  0
 15 12  1  0  0  0  0
 15  7  1  1  0  0  0
 16 10  1  1  0  0  0
 16  9  1  0  0  0  0
 17 19  1  1  0  0  0
 17 16  1  0  0  0  0
 18 19  1  1  0  0  0
 18 17  1  0  0  0  0
 20 18  1  1  0  0  0
 21 24  1  6  0  0  0
 21 20  1  0  0  0  0
 23 22  1  6  0  0  0
 23 25  1  0  0  0  0
 23 21  1  0  0  0  0
 23 20  1  0  0  0  0
 26 25  1  0  0  0  0
 28 27  1  0  0  0  0
M  END
>  <MODEL>
1

>  <REMARK>
 VINA RESULT:      -9.9      0.000      0.000
  Name = 
  4 active torsions:
  status: ('A' for Active; 'I' for Inactive)
    1  A    between atoms: C_1  and  C_27
    2  A    between atoms: C_2  and  C_3
    3  A    between atoms: N_6  and  C_11
    4  A    between atoms: C_16  and  C_21
                            x       y       z     vdW  Elec       q    Type
                         _______ _______ _______ _____ _____    ______ ____

>  <TORSDO>
F 4

$$$$
=
 OpenBabel11052413273D

 28 32  0  0  1  0  0  0  0  0999 V2000
  190.6550  177.0840  144.9990 C   0  0  0  0  0  3  0  0  0  0  0  0
  184.6130  178.3870  145.1780 O   0  0  0  0  0  1  0  0  0  0  0  0
  189.2170  177.1010  146.9570 C   0  0  0  0  0  0  0  0  0  0  0  0
  188.2900  177.9280  144.7340 C   0  0  1  0  0  3  0  0  0  0  0  0
  191.5170  176.3540  147.1370 C   0  0  0  0  0  0  0  0  0  0  0  0
  189.3930  177.3120  145.5680 C   0  0  0  0  0  0  0  0  0  0  0  0
  186.9880  178.2570  146.8310 C   0  0  0  0  0  2  0  0  0  0  0  0
  190.2750  176.6040  147.7240 C   0  0  0  0  0  3  0  0  0  0  0  0
  185.8240  178.0860  143.1300 C   0  0  2  0  0  3  0  0  0  0  0  0
  188.2280  177.3390  143.3310 C   0  0  0  0  0  2  0  0  0  0  0  0
  187.8880  177.3160  147.6260 C   0  0  0  0  0  2  0  0  0  0  0  0
  185.8700  178.5600  144.5920 C   0  0  2  0  0  3  0  0  0  0  0  0
  192.8360  175.7380  148.1090 Cl  0  0  0  0  0  0  0  0  0  0  0  0
  191.7090  176.6000  145.7760 C   0  0  0  0  0  3  0  0  0  0  0  0
  186.9140  177.7750  145.3880 C   0  0  1  0  0  3  0  0  0  0  0  0
  187.2270  178.1240  142.4820 C   0  0  1  0  0  3  0  0  0  0  0  0
  187.2100  177.5330  141.0750 C   0  0  2  0  0  3  0  0  0  0  0  0
  188.2790  178.2020  140.2280 C   0  0  2  0  0  3  0  0  0  0  0  0
  186.8300  178.6030  140.0700 C   0  0  0  0  0  2  0  0  0  0  0  0
  188.6720  177.2620  139.0980 C   0  0  2  0  0  3  0  0  0  0  0  0
  190.1620  177.4260  138.8090 C   0  0  2  0  0  3  0  0  0  0  0  0
  188.8430  177.2570  136.5350 C   0  0  0  0  0  1  0  0  0  0  0  0
  189.1340  177.9850  137.8400 C   0  0  1  0  0  0  0  0  0  0  0  0
  190.6790  176.2130  138.3500 O   0  0  0  0  0  1  0  0  0  0  0  0
  188.9950  179.4370  137.8490 N   0  0  0  0  0  2  0  0  0  0  0  0
  188.0130  179.7570  136.9720 O   0  0  0  0  0  1  0  0  0  0  0  0
  183.7880  178.1960  141.8780 O   0  0  0  0  0  1  0  0  0  0  0  0
  184.8440  178.9670  142.3620 C   0  0  0  0  0  2  0  0  0  0  0  0
  1  6  2  0  0  0  0
  1 14  1  0  0  0  0
  3 11  1  0  0  0  0
  3  8  2  0  0  0  0
  4 10  1  6  0  0  0
  4 15  1  0  0  0  0
  4  6  1  0  0  0  0
  5  8  1  0  0  0  0
  5 13  1  0  0  0  0
  6  3  1  0  0  0  0
  7 11  1  0  0  0  0
  9 28  1  6  0  0  0
  9 12  1  0  0  0  0
 12  2  1  1  0  0  0
 12 15  1  0  0  0  0
 14  5  2  0  0  0  0
 15  7  1  1  0  0  0
 16  9  1  0  0  0  0
 16 10  1  1  0  0  0
 17 19  1  6  0  0  0
 17 16  1  0  0  0  0
 18 19  1  6  0  0  0
 18 17  1  0  0  0  0
 20 18  1  1  0  0  0
 21 24  1  6  0  0  0
 21 20  1  0  0  0  0
 23 22  1  6  0  0  0
 23 25  1  0  0  0  0
 23 21  1  0  0  0  0
 23 20  1  0  0  0  0
 26 25  1  0  0  0  0
 27 28  1  0  0  0  0
M  END
>  <MODEL>
2

>  <REMARK>
 VINA RESULT:      -9.3      3.404      5.366
  Name = 
  4 active torsions:
  status: ('A' for Active; 'I' for Inactive)
    1  A    between atoms: C_1  and  C_27
    2  A    between atoms: C_2  and  C_3
    3  A    between atoms: N_6  and  C_11
    4  A    between atoms: C_16  and  C_21
                            x       y       z     vdW  Elec       q    Type
                         _______ _______ _______ _____ _____    ______ ____

>  <TORSDO>
F 4

$$$$
=
 OpenBabel11052413273D

 28 32  0  0  1  0  0  0  0  0999 V2000
  188.9500  178.0290  140.9910 C   0  0  0  0  0  3  0  0  0  0  0  0
  187.7360  177.0770  146.9790 O   0  0  0  0  0  1  0  0  0  0  0  0
  190.4430  177.0800  142.6560 C   0  0  0  0  0  0  0  0  0  0  0  0
  188.2070  178.0400  143.4040 C   0  0  1  0  0  3  0  0  0  0  0  0
  191.1040  177.1550  140.3250 C   0  0  0  0  0  0  0  0  0  0  0  0
  189.1970  177.6630  142.3230 C   0  0  0  0  0  0  0  0  0  0  0  0
  189.9140  177.3870  145.0950 C   0  0  0  0  0  2  0  0  0  0  0  0
  191.3770  176.8120  141.6500 C   0  0  0  0  0  3  0  0  0  0  0  0
  186.0560  177.7130  145.3900 C   0  0  2  0  0  3  0  0  0  0  0  0
  186.7630  177.8190  142.9680 C   0  0  0  0  0  2  0  0  0  0  0  0
  190.7660  176.6550  144.0620 C   0  0  0  0  0  2  0  0  0  0  0  0
  187.5330  177.8100  145.8060 C   0  0  2  0  0  3  0  0  0  0  0  0
  192.2830  176.8200  139.0750 Cl  0  0  0  0  0  0  0  0  0  0  0  0
  189.8940  177.7690  139.9960 C   0  0  0  0  0  3  0  0  0  0  0  0
  188.4460  177.2690  144.7040 C   0  0  1  0  0  3  0  0  0  0  0  0
  185.8110  178.3870  144.0210 C   0  0  1  0  0  3  0  0  0  0  0  0
  184.3760  178.1810  143.5440 C   0  0  2  0  0  3  0  0  0  0  0  0
  184.1170  179.0430  142.3200 C   0  0  2  0  0  3  0  0  0  0  0  0
  183.5980  179.4760  143.6730 C   0  0  0  0  0  2  0  0  0  0  0  0
  182.9830  178.4280  141.5150 C   0  0  2  0  0  3  0  0  0  0  0  0
  183.5730  177.5430  140.4190 C   0  0  2  0  0  3  0  0  0  0  0  0
  181.5680  178.9370  139.4320 C   0  0  0  0  0  1  0  0  0  0  0  0
  182.9530  178.8830  140.0620 C   0  0  1  0  0  0  0  0  0  0  0  0
  182.6930  176.4920  140.1500 O   0  0  0  0  0  1  0  0  0  0  0  0
  183.9010  179.9310  139.7010 N   0  0  0  0  0  2  0  0  0  0  0  0
  184.8560  179.3650  138.9250 O   0  0  0  0  0  1  0  0  0  0  0  0
  185.6480  179.6510  146.7340 O   0  0  0  0  0  1  0  0  0  0  0  0
  185.1990  178.3560  146.4760 C   0  0  0  0  0  2  0  0  0  0  0  0
  1  6  1  0  0  0  0
  3 11  1  0  0  0  0
  4 10  1  6  0  0  0
  4 15  1  0  0  0  0
  5  8  2  0  0  0  0
  6  3  2  0  0  0  0
  6  4  1  0  0  0  0
  8  3  1  0  0  0  0
  9 12  1  0  0  0  0
  9 28  1  1  0  0  0
 11  7  1  0  0  0  0
 12  2  1  1  0  0  0
 13  5  1  0  0  0  0
 14  5  1  0  0  0  0
 14  1  2  0  0  0  0
 15  7  1  1  0  0  0
 15 12  1  0  0  0  0
 16 10  1  6  0  0  0
 16  9  1  0  0  0  0
 17 19  1  1  0  0  0
 17 16  1  0  0  0  0
 18 17  1  0  0  0  0
 18 19  1  1  0  0  0
 20 18  1  1  0  0  0
 21 24  1  6  0  0  0
 21 20  1  0  0  0  0
 23 22  1  6  0  0  0
 23 21  1  0  0  0  0
 23 20  1  0  0  0  0
 25 23  1  0  0  0  0
 26 25  1  0  0  0  0
 28 27  1  0  0  0  0
M  END
>  <MODEL>
3

>  <REMARK>
 VINA RESULT:      -9.1      3.244      6.219
  Name = 
  4 active torsions:
  status: ('A' for Active; 'I' for Inactive)
    1  A    between atoms: C_1  and  C_27
    2  A    between atoms: C_2  and  C_3
    3  A    between atoms: N_6  and  C_11
    4  A    between atoms: C_16  and  C_21
                            x       y       z     vdW  Elec       q    Type
                         _______ _______ _______ _____ _____    ______ ____

>  <TORSDO>
F 4

$$$$
=
 OpenBabel11052413273D

 28 32  0  0  1  0  0  0  0  0999 V2000
  187.7070  177.8840  143.6100 C   0  0  0  0  0  3  0  0  0  0  0  0
  181.6170  178.9410  143.7610 O   0  0  0  0  0  1  0  0  0  0  0  0
  186.2800  177.9500  145.5750 C   0  0  0  0  0  0  0  0  0  0  0  0
  185.3080  178.6120  143.3170 C   0  0  1  0  0  3  0  0  0  0  0  0
  188.6100  177.3110  145.7790 C   0  0  0  0  0  0  0  0  0  0  0  0
  186.4390  178.0900  144.1750 C   0  0  0  0  0  0  0  0  0  0  0  0
  184.0030  179.0030  145.4010 C   0  0  0  0  0  2  0  0  0  0  0  0
  187.3610  177.5410  146.3610 C   0  0  0  0  0  3  0  0  0  0  0  0
  182.8290  178.5780  141.7240 C   0  0  2  0  0  3  0  0  0  0  0  0
  185.2640  177.9440  141.9480 C   0  0  0  0  0  2  0  0  0  0  0  0
  184.9460  178.1460  146.2410 C   0  0  0  0  0  2  0  0  0  0  0  0
  182.8620  179.1340  143.1570 C   0  0  2  0  0  3  0  0  0  0  0  0
  189.9580  176.8050  146.7740 Cl  0  0  0  0  0  0  0  0  0  0  0  0
  188.7840  177.4880  144.4060 C   0  0  0  0  0  3  0  0  0  0  0  0
  183.9430  178.4390  143.9870 C   0  0  1  0  0  3  0  0  0  0  0  0
  184.2260  178.6380  141.0650 C   0  0  1  0  0  3  0  0  0  0  0  0
  184.2280  177.9700  139.6930 C   0  0  2  0  0  3  0  0  0  0  0  0
  185.3800  178.5090  138.8630 C   0  0  2  0  0  3  0  0  0  0  0  0
  183.9740  179.0050  138.6140 C   0  0  0  0  0  2  0  0  0  0  0  0
  185.7510  177.4810  137.8070 C   0  0  2  0  0  3  0  0  0  0  0  0
  187.2170  177.0890  137.9840 C   0  0  2  0  0  3  0  0  0  0  0  0
  186.6960  177.3880  135.4200 C   0  0  0  0  0  1  0  0  0  0  0  0
  186.8020  177.9740  136.8200 C   0  0  1  0  0  0  0  0  0  0  0  0
  187.3940  175.7660  137.5730 O   0  0  0  0  0  1  0  0  0  0  0  0
  187.1810  179.3780  136.9390 N   0  0  0  0  0  2  0  0  0  0  0  0
  188.4930  179.4170  137.2720 O   0  0  0  0  0  1  0  0  0  0  0  0
  180.7730  178.5370  140.5000 O   0  0  0  0  0  1  0  0  0  0  0  0
  181.8100  179.3730  140.9150 C   0  0  0  0  0  2  0  0  0  0  0  0
  1  6  2  0  0  0  0
  1 14  1  0  0  0  0
  3 11  1  0  0  0  0
  3  8  2  0  0  0  0
  4 10  1  6  0  0  0
  4 15  1  0  0  0  0
  4  6  1  0  0  0  0
  5  8  1  0  0  0  0
  5 13  1  0  0  0  0
  6  3  1  0  0  0  0
  7 11  1  0  0  0  0
  9 28  1  6  0  0  0
  9 12  1  0  0  0  0
 12  2  1  1  0  0  0
 12 15  1  0  0  0  0
 14  5  2  0  0  0  0
 15  7  1  1  0  0  0
 16  9  1  0  0  0  0
 16 10  1  1  0  0  0
 17 19  1  6  0  0  0
 17 16  1  0  0  0  0
 18 19  1  6  0  0  0
 18 17  1  0  0  0  0
 20 21  1  0  0  0  0
 20 18  1  1  0  0  0
 21 24  1  6  0  0  0
 23 22  1  6  0  0  0
 23 25  1  0  0  0  0
 23 20  1  0  0  0  0
 23 21  1  0  0  0  0
 25 26  1  0  0  0  0
 27 28  1  0  0  0  0
M  END
>  <MODEL>
4

>  <REMARK>
 VINA RESULT:      -8.8      3.376      5.543
  Name = 
  4 active torsions:
  status: ('A' for Active; 'I' for Inactive)
    1  A    between atoms: C_1  and  C_27
    2  A    between atoms: C_2  and  C_3
    3  A    between atoms: N_6  and  C_11
    4  A    between atoms: C_16  and  C_21
                            x       y       z     vdW  Elec       q    Type
                         _______ _______ _______ _____ _____    ______ ____

>  <TORSDO>
F 4

$$$$
=
 OpenBabel11052413273D

 28 32  0  0  1  0  0  0  0  0999 V2000
  189.6960  177.1030  144.6810 C   0  0  0  0  0  3  0  0  0  0  0  0
  184.1970  178.6290  147.0600 O   0  0  0  0  0  1  0  0  0  0  0  0
  189.0730  177.1340  147.0280 C   0  0  0  0  0  0  0  0  0  0  0  0
  187.4360  178.0410  145.3020 C   0  0  1  0  0  3  0  0  0  0  0  0
  191.2460  176.2980  146.3530 C   0  0  0  0  0  0  0  0  0  0  0  0
  188.7390  177.3660  145.6730 C   0  0  0  0  0  0  0  0  0  0  0  0
  187.0030  178.3760  147.7310 C   0  0  0  0  0  2  0  0  0  0  0  0
  190.3160  176.5830  147.3540 C   0  0  0  0  0  3  0  0  0  0  0  0
  184.5640  178.3240  144.7100 C   0  0  2  0  0  3  0  0  0  0  0  0
  186.8410  177.4830  144.0150 C   0  0  0  0  0  2  0  0  0  0  0  0
  188.0900  177.3860  148.1380 C   0  0  0  0  0  2  0  0  0  0  0  0
  185.1600  178.7660  146.0570 C   0  0  2  0  0  3  0  0  0  0  0  0
  192.8010  175.6130  146.7730 Cl  0  0  0  0  0  0  0  0  0  0  0  0
  190.9390  176.5630  145.0170 C   0  0  0  0  0  3  0  0  0  0  0  0
  186.3880  177.9270  146.4120 C   0  0  1  0  0  3  0  0  0  0  0  0
  185.6340  178.3220  143.5950 C   0  0  1  0  0  3  0  0  0  0  0  0
  185.0810  177.7610  142.2880 C   0  0  2  0  0  3  0  0  0  0  0  0
  185.3500  178.7390  141.1580 C   0  0  2  0  0  3  0  0  0  0  0  0
  183.9710  178.6550  141.7710 C   0  0  0  0  0  2  0  0  0  0  0  0
  185.3670  177.9780  139.8410 C   0  0  2  0  0  3  0  0  0  0  0  0
  186.3760  178.6330  138.9000 C   0  0  2  0  0  3  0  0  0  0  0  0
  184.2000  178.0110  137.5530 C   0  0  0  0  0  1  0  0  0  0  0  0
  184.8860  178.8050  138.6550 C   0  0  1  0  0  0  0  0  0  0  0  0
  186.9170  177.6610  138.0550 O   0  0  0  0  0  1  0  0  0  0  0  0
  184.3520  180.1250  138.9710 N   0  0  0  0  0  2  0  0  0  0  0  0
  183.0330  180.1150  138.6610 O   0  0  0  0  0  1  0  0  0  0  0  0
  182.1920  178.6330  144.6270 O   0  0  0  0  0  1  0  0  0  0  0  0
  183.4100  179.2560  144.3570 C   0  0  0  0  0  2  0  0  0  0  0  0
  1 14  2  0  0  0  0
  1  6  1  0  0  0  0
  3  8  1  0  0  0  0
  3 11  1  0  0  0  0
  4 10  1  6  0  0  0
  4  6  1  0  0  0  0
  4 15  1  0  0  0  0
  5 13  1  0  0  0  0
  5  8  2  0  0  0  0
  6  3  2  0  0  0  0
  7 11  1  0  0  0  0
  9 28  1  6  0  0  0
  9 12  1  0  0  0  0
 12 15  1  0  0  0  0
 12  2  1  1  0  0  0
 14  5  1  0  0  0  0
 15  7  1  1  0  0  0
 16 10  1  1  0  0  0
 16  9  1  0  0  0  0
 17 19  1  1  0  0  0
 17 16  1  0  0  0  0
 18 19  1  6  0  0  0
 18 17  1  0  0  0  0
 20 18  1  1  0  0  0
 21 24  1  6  0  0  0
 21 20  1  0  0  0  0
 23 22  1  6  0  0  0
 23 21  1  0  0  0  0
 23 25  1  0  0  0  0
 23 20  1  0  0  0  0
 26 25  1  0  0  0  0
 28 27  1  0  0  0  0
M  END
>  <MODEL>
5

>  <REMARK>
 VINA RESULT:      -8.7      3.806      5.948
  Name = 
  4 active torsions:
  status: ('A' for Active; 'I' for Inactive)
    1  A    between atoms: C_1  and  C_27
    2  A    between atoms: C_2  and  C_3
    3  A    between atoms: N_6  and  C_11
    4  A    between atoms: C_16  and  C_21
                            x       y       z     vdW  Elec       q    Type
                         _______ _______ _______ _____ _____    ______ ____

>  <TORSDO>
F 4

$$$$
=
 OpenBabel11052413273D

 28 32  0  0  1  0  0  0  0  0999 V2000
  190.6520  177.4630  144.1700 C   0  0  0  0  0  3  0  0  0  0  0  0
  184.6810  178.2530  142.7730 O   0  0  0  0  0  1  0  0  0  0  0  0
  188.7550  177.2560  145.6740 C   0  0  0  0  0  0  0  0  0  0  0  0
  188.3720  178.1230  143.3110 C   0  0  1  0  0  3  0  0  0  0  0  0
  190.9860  176.6920  146.4370 C   0  0  0  0  0  0  0  0  0  0  0  0
  189.2690  177.5550  144.3900 C   0  0  0  0  0  0  0  0  0  0  0  0
  186.5390  178.2300  144.9940 C   0  0  0  0  0  2  0  0  0  0  0  0
  189.6160  176.8070  146.6800 C   0  0  0  0  0  3  0  0  0  0  0  0
  186.4100  178.1660  141.1130 C   0  0  2  0  0  3  0  0  0  0  0  0
  188.7360  177.6090  141.9240 C   0  0  0  0  0  2  0  0  0  0  0  0
  187.2830  177.3240  145.9710 C   0  0  0  0  0  2  0  0  0  0  0  0
  186.0260  178.5610  142.5490 C   0  0  2  0  0  3  0  0  0  0  0  0
  192.0550  176.1340  147.7060 Cl  0  0  0  0  0  0  0  0  0  0  0  0
  191.5050  177.0260  145.1860 C   0  0  0  0  0  3  0  0  0  0  0  0
  186.8930  177.8230  143.5690 C   0  0  1  0  0  3  0  0  0  0  0  0
  187.9240  178.3540  140.8640 C   0  0  1  0  0  3  0  0  0  0  0  0
  188.3330  177.8410  139.4870 C   0  0  2  0  0  3  0  0  0  0  0  0
  189.8050  178.1310  139.2500 C   0  0  2  0  0  3  0  0  0  0  0  0
  188.7510  179.0030  138.6070 C   0  0  0  0  0  2  0  0  0  0  0  0
  190.3440  177.1450  138.2250 C   0  0  2  0  0  3  0  0  0  0  0  0
  190.5750  175.7970  138.9050 C   0  0  2  0  0  3  0  0  0  0  0  0
  192.5960  176.3260  137.3010 C   0  0  0  0  0  1  0  0  0  0  0  0
  191.7600  176.6700  138.5250 C   0  0  1  0  0  0  0  0  0  0  0  0
  190.3850  174.7730  137.9740 O   0  0  0  0  0  1  0  0  0  0  0  0
  192.4320  177.3270  139.6410 N   0  0  0  0  0  2  0  0  0  0  0  0
  193.7630  177.1280  139.4870 O   0  0  0  0  0  1  0  0  0  0  0  0
  185.0320  178.1840  139.1570 O   0  0  0  0  0  1  0  0  0  0  0  0
  185.5890  179.0030  140.1390 C   0  0  0  0  0  2  0  0  0  0  0  0
  1  6  2  0  0  0  0
  1 14  1  0  0  0  0
  3 11  1  0  0  0  0
  3  8  2  0  0  0  0
  4 10  1  6  0  0  0
  4 15  1  0  0  0  0
  4  6  1  0  0  0  0
  5  8  1  0  0  0  0
  5 13  1  0  0  0  0
  6  3  1  0  0  0  0
  7 11  1  0  0  0  0
  9 28  1  6  0  0  0
  9 12  1  0  0  0  0
 12  2  1  1  0  0  0
 12 15  1  0  0  0  0
 14  5  2  0  0  0  0
 15  7  1  1  0  0  0
 16  9  1  0  0  0  0
 16 10  1  1  0  0  0
 17 19  1  6  0  0  0
 17 16  1  0  0  0  0
 18 19  1  6  0  0  0
 18 17  1  0  0  0  0
 20 23  1  0  0  0  0
 20 21  1  0  0  0  0
 20 18  1  1  0  0  0
 21 24  1  6  0  0  0
 23 22  1  6  0  0  0
 23 21  1  0  0  0  0
 23 25  1  0  0  0  0
 26 25  1  0  0  0  0
 27 28  1  0  0  0  0
M  END
>  <MODEL>
6

>  <REMARK>
 VINA RESULT:      -8.6      3.476      5.424
  Name = 
  4 active torsions:
  status: ('A' for Active; 'I' for Inactive)
    1  A    between atoms: C_1  and  C_27
    2  A    between atoms: C_2  and  C_3
    3  A    between atoms: N_6  and  C_11
    4  A    between atoms: C_16  and  C_21
                            x       y       z     vdW  Elec       q    Type
                         _______ _______ _______ _____ _____    ______ ____

>  <TORSDO>
F 4

$$$$
=
 OpenBabel11052413273D

 28 32  0  0  1  0  0  0  0  0999 V2000
  187.2520  177.5040  143.8770 C   0  0  0  0  0  3  0  0  0  0  0  0
  192.3140  177.5020  140.3250 O   0  0  0  0  0  1  0  0  0  0  0  0
  189.5630  177.6270  144.6180 C   0  0  0  0  0  0  0  0  0  0  0  0
  189.0740  177.2060  142.1550 C   0  0  1  0  0  3  0  0  0  0  0  0
  187.7540  177.8510  146.2160 C   0  0  0  0  0  0  0  0  0  0  0  0
  188.6210  177.5020  143.5680 C   0  0  0  0  0  0  0  0  0  0  0  0
  191.3980  176.9840  143.0230 C   0  0  0  0  0  2  0  0  0  0  0  0
  189.1200  177.8210  145.9300 C   0  0  0  0  0  3  0  0  0  0  0  0
  190.0960  177.7100  139.4370 C   0  0  2  0  0  3  0  0  0  0  0  0
  188.2160  177.9110  141.1120 C   0  0  0  0  0  2  0  0  0  0  0  0
  191.0430  177.6430  144.3530 C   0  0  0  0  0  2  0  0  0  0  0  0
  190.9880  177.1160  140.5390 C   0  0  2  0  0  3  0  0  0  0  0  0
  187.2110  178.0890  147.8640 Cl  0  0  0  0  0  0  0  0  0  0  0  0
  186.8200  177.6860  145.1920 C   0  0  0  0  0  3  0  0  0  0  0  0
  190.5380  177.5910  141.9220 C   0  0  1  0  0  3  0  0  0  0  0  0
  188.6000  177.4310  139.7120 C   0  0  1  0  0  3  0  0  0  0  0  0
  187.7040  178.1290  138.6940 C   0  0  2  0  0  3  0  0  0  0  0  0
  186.3160  177.5110  138.7270 C   0  0  2  0  0  3  0  0  0  0  0  0
  187.2790  177.1460  137.6200 C   0  0  0  0  0  2  0  0  0  0  0  0
  185.3110  178.5290  138.2100 C   0  0  2  0  0  3  0  0  0  0  0  0
  184.5480  179.1210  139.3930 C   0  0  2  0  0  3  0  0  0  0  0  0
  182.8680  178.6330  137.4240 C   0  0  0  0  0  1  0  0  0  0  0  0
  183.8620  178.1340  138.4630 C   0  0  1  0  0  0  0  0  0  0  0  0
  184.1800  180.4350  139.0930 O   0  0  0  0  0  1  0  0  0  0  0  0
  183.6500  176.8010  139.0170 N   0  0  0  0  0  2  0  0  0  0  0  0
  183.0450  176.9530  140.2190 O   0  0  0  0  0  1  0  0  0  0  0  0
  190.5030  175.7330  138.1520 O   0  0  0  0  0  1  0  0  0  0  0  0
  190.5220  177.1260  138.0950 C   0  0  0  0  0  2  0  0  0  0  0  0
  1 14  1  0  0  0  0
  3  8  2  0  0  0  0
  4 10  1  6  0  0  0
  4  6  1  0  0  0  0
  5 13  1  0  0  0  0
  6  1  2  0  0  0  0
  6  3  1  0  0  0  0
  7 11  1  0  0  0  0
  8  5  1  0  0  0  0
  9 28  1  6  0  0  0
  9 16  1  0  0  0  0
  9 12  1  0  0  0  0
 11  3  1  0  0  0  0
 12  2  1  6  0  0  0
 12 15  1  0  0  0  0
 14  5  2  0  0  0  0
 15  4  1  0  0  0  0
 15  7  1  1  0  0  0
 16 10  1  1  0  0  0
 17 19  1  6  0  0  0
 17 18  1  0  0  0  0
 17 16  1  0  0  0  0
 18 19  1  6  0  0  0
 20 23  1  0  0  0  0
 20 18  1  1  0  0  0
 20 21  1  0  0  0  0
 21 24  1  6  0  0  0
 23 22  1  6  0  0  0
 23 25  1  0  0  0  0
 23 21  1  0  0  0  0
 25 26  1  0  0  0  0
 28 27  1  0  0  0  0
M  END
>  <MODEL>
7

>  <REMARK>
 VINA RESULT:      -8.5      3.113      5.174
  Name = 
  4 active torsions:
  status: ('A' for Active; 'I' for Inactive)
    1  A    between atoms: C_1  and  C_27
    2  A    between atoms: C_2  and  C_3
    3  A    between atoms: N_6  and  C_11
    4  A    between atoms: C_16  and  C_21
                            x       y       z     vdW  Elec       q    Type
                         _______ _______ _______ _____ _____    ______ ____

>  <TORSDO>
F 4

$$$$
=
 OpenBabel11052413273D

 28 32  0  0  1  0  0  0  0  0999 V2000
  186.6070  177.7020  145.1520 C   0  0  0  0  0  3  0  0  0  0  0  0
  189.7660  178.0360  139.8470 O   0  0  0  0  0  1  0  0  0  0  0  0
  189.0210  177.6850  144.8800 C   0  0  0  0  0  0  0  0  0  0  0  0
  187.5430  177.5820  142.8100 C   0  0  1  0  0  3  0  0  0  0  0  0
  188.0420  177.7470  147.0970 C   0  0  0  0  0  0  0  0  0  0  0  0
  187.7280  177.7100  144.3070 C   0  0  0  0  0  0  0  0  0  0  0  0
  189.9970  177.2080  142.6120 C   0  0  0  0  0  2  0  0  0  0  0  0
  189.1670  177.7250  146.2700 C   0  0  0  0  0  3  0  0  0  0  0  0
  187.3990  178.3970  139.9820 C   0  0  2  0  0  3  0  0  0  0  0  0
  186.3850  178.4280  142.2950 C   0  0  0  0  0  2  0  0  0  0  0  0
  190.2620  177.7040  144.0310 C   0  0  0  0  0  2  0  0  0  0  0  0
  188.6200  177.6530  140.5490 C   0  0  2  0  0  3  0  0  0  0  0  0
  188.2370  177.7900  148.8370 Cl  0  0  0  0  0  0  0  0  0  0  0  0
  186.7630  177.7290  146.5390 C   0  0  0  0  0  3  0  0  0  0  0  0
  188.8070  177.9630  142.0350 C   0  0  1  0  0  3  0  0  0  0  0  0
  186.1310  178.1160  140.8200 C   0  0  1  0  0  3  0  0  0  0  0  0
  184.9470  178.9520  140.3420 C   0  0  2  0  0  3  0  0  0  0  0  0
  183.6650  178.1500  140.4830 C   0  0  2  0  0  3  0  0  0  0  0  0
  184.3140  178.3030  139.1260 C   0  0  0  0  0  2  0  0  0  0  0  0
  182.4920  179.1120  140.5960 C   0  0  2  0  0  3  0  0  0  0  0  0
  181.6430  178.7220  141.8040 C   0  0  2  0  0  3  0  0  0  0  0  0
  180.0640  179.3320  139.7860 C   0  0  0  0  0  1  0  0  0  0  0  0
  181.1380  178.4430  140.3980 C   0  0  1  0  0  0  0  0  0  0  0  0
  181.0450  179.8660  142.3370 O   0  0  0  0  0  1  0  0  0  0  0  0
  181.1690  177.0430  139.9910 N   0  0  0  0  0  2  0  0  0  0  0  0
  180.1070  176.4290  140.5660 O   0  0  0  0  0  1  0  0  0  0  0  0
  187.4970  179.0370  137.6790 O   0  0  0  0  0  1  0  0  0  0  0  0
  187.1990  177.9750  138.5310 C   0  0  0  0  0  2  0  0  0  0  0  0
  1 14  1  0  0  0  0
  3  8  2  0  0  0  0
  4 10  1  6  0  0  0
  4  6  1  0  0  0  0
  5 13  1  0  0  0  0
  6  3  1  0  0  0  0
  6  1  2  0  0  0  0
  7 11  1  0  0  0  0
  8  5  1  0  0  0  0
  9 28  1  6  0  0  0
  9 12  1  0  0  0  0
  9 16  1  0  0  0  0
 11  3  1  0  0  0  0
 12  2  1  6  0  0  0
 12 15  1  0  0  0  0
 14  5  2  0  0  0  0
 15  7  1  1  0  0  0
 15  4  1  0  0  0  0
 16 10  1  1  0  0  0
 17 19  1  6  0  0  0
 17 18  1  0  0  0  0
 17 16  1  0  0  0  0
 18 19  1  6  0  0  0
 20 18  1  1  0  0  0
 20 21  1  0  0  0  0
 21 24  1  6  0  0  0
 23 22  1  6  0  0  0
 23 20  1  0  0  0  0
 23 21  1  0  0  0  0
 25 23  1  0  0  0  0
 25 26  1  0  0  0  0
 27 28  1  0  0  0  0
M  END
>  <MODEL>
8

>  <REMARK>
 VINA RESULT:      -8.4      3.588      6.368
  Name = 
  4 active torsions:
  status: ('A' for Active; 'I' for Inactive)
    1  A    between atoms: C_1  and  C_27
    2  A    between atoms: C_2  and  C_3
    3  A    between atoms: N_6  and  C_11
    4  A    between atoms: C_16  and  C_21
                            x       y       z     vdW  Elec       q    Type
                         _______ _______ _______ _____ _____    ______ ____

>  <TORSDO>
F 4

$$$$
=
 OpenBabel11052413273D

 28 32  0  0  1  0  0  0  0  0999 V2000
  186.9380  178.0700  142.7610 C   0  0  0  0  0  3  0  0  0  0  0  0
  180.9380  178.9460  143.9750 O   0  0  0  0  0  1  0  0  0  0  0  0
  185.8660  178.0530  144.9410 C   0  0  0  0  0  0  0  0  0  0  0  0
  184.5060  178.7350  142.9000 C   0  0  1  0  0  3  0  0  0  0  0  0
  188.2120  177.4780  144.7290 C   0  0  0  0  0  0  0  0  0  0  0  0
  185.7810  178.2270  143.5390 C   0  0  0  0  0  0  0  0  0  0  0  0
  183.5680  179.0430  145.1860 C   0  0  0  0  0  2  0  0  0  0  0  0
  187.0760  177.6590  145.5210 C   0  0  0  0  0  3  0  0  0  0  0  0
  181.7940  178.6620  141.7520 C   0  0  2  0  0  3  0  0  0  0  0  0
  184.2460  178.0950  141.5420 C   0  0  0  0  0  2  0  0  0  0  0  0
  184.6620  178.1960  145.8300 C   0  0  0  0  0  2  0  0  0  0  0  0
  182.0570  179.1880  143.1730 C   0  0  2  0  0  3  0  0  0  0  0  0
  189.7230  176.9900  145.4660 Cl  0  0  0  0  0  0  0  0  0  0  0  0
  188.1450  177.6890  143.3510 C   0  0  0  0  0  3  0  0  0  0  0  0
  183.2810  178.5070  143.7880 C   0  0  1  0  0  3  0  0  0  0  0  0
  183.0550  178.7770  140.8660 C   0  0  1  0  0  3  0  0  0  0  0  0
  182.8390  178.1380  139.4980 C   0  0  2  0  0  3  0  0  0  0  0  0
  183.9170  178.6100  138.5370 C   0  0  2  0  0  3  0  0  0  0  0  0
  182.5310  179.2100  138.4710 C   0  0  0  0  0  2  0  0  0  0  0  0
  184.0780  177.5790  137.4310 C   0  0  2  0  0  3  0  0  0  0  0  0
  185.0110  176.4710  137.9150 C   0  0  2  0  0  3  0  0  0  0  0  0
  185.6070  177.0920  135.4250 C   0  0  0  0  0  1  0  0  0  0  0  0
  185.4990  177.4840  136.8920 C   0  0  1  0  0  0  0  0  0  0  0  0
  184.6550  175.2680  137.3020 O   0  0  0  0  0  1  0  0  0  0  0  0
  186.4430  178.4740  137.3980 N   0  0  0  0  0  2  0  0  0  0  0  0
  187.2780  178.7960  136.3810 O   0  0  0  0  0  1  0  0  0  0  0  0
  179.5760  178.5800  140.8550 O   0  0  0  0  0  1  0  0  0  0  0  0
  180.6310  179.4440  141.1500 C   0  0  0  0  0  2  0  0  0  0  0  0
  1 14  2  0  0  0  0
  1  6  1  0  0  0  0
  3  8  1  0  0  0  0
  3 11  1  0  0  0  0
  4 10  1  6  0  0  0
  4  6  1  0  0  0  0
  4 15  1  0  0  0  0
  5 13  1  0  0  0  0
  5  8  2  0  0  0  0
  6  3  2  0  0  0  0
  7 11  1  0  0  0  0
  9 28  1  6  0  0  0
  9 12  1  0  0  0  0
 12 15  1  0  0  0  0
 12  2  1  1  0  0  0
 14  5  1  0  0  0  0
 15  7  1  1  0  0  0
 16 10  1  1  0  0  0
 16  9  1  0  0  0  0
 17 19  1  6  0  0  0
 17 16  1  0  0  0  0
 18 19  1  6  0  0  0
 18 17  1  0  0  0  0
 20 21  1  0  0  0  0
 20 18  1  1  0  0  0
 21 24  1  6  0  0  0
 23 22  1  6  0  0  0
 23 25  1  0  0  0  0
 23 20  1  0  0  0  0
 23 21  1  0  0  0  0
 26 25  1  0  0  0  0
 27 28  1  0  0  0  0
M  END
>  <MODEL>
9

>  <REMARK>
 VINA RESULT:      -8.0      3.713      6.077
  Name = 
  4 active torsions:
  status: ('A' for Active; 'I' for Inactive)
    1  A    between atoms: C_1  and  C_27
    2  A    between atoms: C_2  and  C_3
    3  A    between atoms: N_6  and  C_11
    4  A    between atoms: C_16  and  C_21
                            x       y       z     vdW  Elec       q    Type
                         _______ _______ _______ _____ _____    ______ ____

>  <TORSDO>
F 4

$$$$
