=
 OpenBabel11052414583D

 55 62  0  0  1  0  0  0  0  0999 V2000
  187.4100  178.4750  141.2700 C   0  0  2  0  0  3  0  0  0  0  0  0
  187.6150  175.8050  135.0610 O   0  0  0  0  0  0  0  0  0  0  0  0
  186.7330  178.0880  136.1560 O   0  0  0  0  0  0  0  0  0  0  0  0
  190.4190  175.9610  135.9450 C   0  0  1  0  0  3  0  0  0  0  0  0
  182.2230  178.6110  137.4660 C   0  0  0  0  0  3  0  0  0  0  0  0
  181.0460  179.1310  137.8090 C   0  0  0  0  0  3  0  0  0  0  0  0
  183.0470  178.8480  139.8400 C   0  0  2  0  0  3  0  0  0  0  0  0
  181.6070  179.1180  140.1810 C   0  0  0  0  0  3  0  0  0  0  0  0
  184.8810  177.0960  137.1200 O   0  0  0  0  0  0  0  0  0  0  0  0
  189.6700  174.7820  135.5210 N   0  0  0  0  0  2  0  0  0  0  0  0
  180.6880  179.2820  139.2270 C   0  0  0  0  0  3  0  0  0  0  0  0
  188.8620  177.0360  142.6950 C   0  0  0  0  0  2  0  0  0  0  0  0
  183.1840  178.0930  138.5040 C   0  0  2  0  0  3  0  0  0  0  0  0
  190.4840  176.8170  140.3780 C   0  0  1  0  0  3  0  0  0  0  0  0
  186.8320  178.5870  139.9930 O   0  0  0  0  0  0  0  0  0  0  0  0
  189.6360  177.9260  140.5630 O   0  0  0  0  0  0  0  0  0  0  0  0
  184.9450  178.6300  141.4690 C   0  0  2  0  0  3  0  0  0  0  0  0
  188.2760  174.9340  135.9290 C   0  0  0  0  0  2  0  0  0  0  0  0
  183.6400  178.0230  140.9710 C   0  0  0  0  0  2  0  0  0  0  0  0
  186.2880  175.8260  135.5050 C   0  0  0  0  0  2  0  0  0  0  0  0
  186.0030  177.0650  136.2910 C   0  0  0  0  0  0  0  0  0  0  0  0
  190.3750  176.9720  142.9140 C   0  0  0  0  0  2  0  0  0  0  0  0
  190.6580  175.9060  137.4470 C   0  0  0  0  0  2  0  0  0  0  0  0
  188.5090  177.4350  141.2520 C   0  0  2  0  0  3  0  0  0  0  0  0
  184.5980  178.2040  137.9610 C   0  0  0  0  0  2  0  0  0  0  0  0
  186.1230  177.8200  140.9400 C   0  0  2  0  0  3  0  0  0  0  0  0
  191.0570  177.2740  137.9760 C   0  0  0  0  0  2  0  0  0  0  0  0
  191.5900  177.1600  139.3950 C   0  0  0  0  0  2  0  0  0  0  0  0
  191.1000  176.3570  141.7100 C   0  0  0  0  0  2  0  0  0  0  0  0
  185.9190  177.8540  143.7030 C   0  0  0  0  0  3  0  0  0  0  0  0
  185.1680  178.8220  145.7700 N   0  0  0  0  0  0  0  0  0  0  0  0
  184.0790  179.4540  143.6400 C   0  0  0  0  0  3  0  0  0  0  0  0
  183.9960  179.4480  145.1420 C   0  0  0  0  0  2  0  0  0  0  0  0
  186.0100  177.9270  145.0300 C   0  0  0  0  0  3  0  0  0  0  0  0
  184.9540  178.6930  142.9710 C   0  0  0  0  0  0  0  0  0  0  0  0
  185.2900  178.8490  147.2250 C   0  0  0  0  0  3  0  0  0  0  0  0
  186.4290  179.7680  147.6440 C   0  0  0  0  0  2  0  0  0  0  0  0
  186.6310  178.2710  147.6440 C   0  0  0  0  0  2  0  0  0  0  0  0
  191.7740  175.9610  135.2540 C   0  0  0  0  0  2  0  0  0  0  0  0
  192.4790  174.6110  135.3280 C   0  0  2  0  0  3  0  0  0  0  0  0
  191.5020  173.6170  135.3580 O   0  0  0  0  0  1  0  0  0  0  0  0
  195.4520  174.1480  135.1320 N   0  0  0  0  0  0  0  0  0  0  0  0
  195.0900  173.7040  138.8870 O   0  0  0  0  0  1  0  0  0  0  0  0
  193.3540  174.5100  136.5910 C   0  0  1  0  0  0  0  0  0  0  0  0
  194.4870  176.6520  135.7420 C   0  0  0  0  0  1  0  0  0  0  0  0
  194.3540  175.6360  136.8750 C   0  0  2  0  0  3  0  0  0  0  0  0
  195.1660  172.8260  134.5950 C   0  0  0  0  0  1  0  0  0  0  0  0
  197.1490  174.0720  137.6360 C   0  0  1  0  0  3  0  0  0  0  0  0
  196.9210  174.2480  135.1390 C   0  0  0  0  0  2  0  0  0  0  0  0
  195.6850  173.5740  137.6270 C   0  0  2  0  0  3  0  0  0  0  0  0
  192.7320  174.0270  137.7480 O   0  0  0  0  0  1  0  0  0  0  0  0
  197.4950  174.9000  136.3980 C   0  0  0  0  0  2  0  0  0  0  0  0
  194.8630  174.2290  136.4900 C   0  0  2  0  0  0  0  0  0  0  0  0
  197.4320  174.8270  138.7780 O   0  0  0  0  0  0  0  0  0  0  0  0
  198.4170  175.6220  138.4170 O   0  0  0  0  0  1  0  0  0  0  0  0
  1 15  1  6  0  0  0
  2 20  1  0  0  0  0
  2 18  1  0  0  0  0
  3 21  2  0  0  0  0
  4 39  1  6  0  0  0
  4 23  1  0  0  0  0
  5  6  2  0  0  0  0
  6 11  1  0  0  0  0
  7  8  1  1  0  0  0
  7 19  1  0  0  0  0
  9 25  1  0  0  0  0
 10 18  1  0  0  0  0
 10  4  1  0  0  0  0
 11  8  2  0  0  0  0
 12 22  1  0  0  0  0
 13  5  1  6  0  0  0
 13  7  1  0  0  0  0
 14 28  1  6  0  0  0
 14 16  1  0  0  0  0
 14 29  1  0  0  0  0
 16 24  1  0  0  0  0
 17 35  1  1  0  0  0
 19 17  1  0  0  0  0
 20 21  1  0  0  0  0
 21  9  1  0  0  0  0
 23 27  1  0  0  0  0
 24  1  1  0  0  0  0
 24 12  1  1  0  0  0
 25 13  1  0  0  0  0
 26 15  1  6  0  0  0
 26  1  1  0  0  0  0
 26 17  1  0  0  0  0
 27 28  1  0  0  0  0
 29 22  1  0  0  0  0
 30 34  2  0  0  0  0
 31 36  1  0  0  0  0
 32 33  1  0  0  0  0
 33 31  1  0  0  0  0
 34 31  1  0  0  0  0
 35 32  2  0  0  0  0
 35 30  1  0  0  0  0
 36 38  1  0  0  0  0
 36 37  1  0  0  0  0
 38 37  1  0  0  0  0
 39 40  1  0  0  0  0
 40 41  1  1  0  0  0
 40 44  1  0  0  0  0
 42 49  1  0  0  0  0
 44 46  1  0  0  0  0
 44 51  1  1  0  0  0
 46 45  1  6  0  0  0
 47 42  1  0  0  0  0
 48 54  1  1  0  0  0
 49 52  1  0  0  0  0
 50 48  1  0  0  0  0
 50 43  1  1  0  0  0
 52 48  1  0  0  0  0
 53 42  1  6  0  0  0
 53 44  1  0  0  0  0
 53 46  1  0  0  0  0
 53 50  1  0  0  0  0
 55 54  1  0  0  0  0
M  END
>  <MODEL>
1

>  <REMARK>
 VINA RESULT:      -9.3      0.000      0.000
  Name = 
  6 active torsions:
  status: ('A' for Active; 'I' for Inactive)
    1  A    between atoms: C_6  and  C_20
    2  A    between atoms: C_7  and  C_8
    3  A    between atoms: C_7  and  C_20
    4  A    between atoms: C_10  and  N_32
    5  A    between atoms: O_11  and  C_29
    6  A    between atoms: C_33  and  C_52
                            x       y       z     vdW  Elec       q    Type
                         _______ _______ _______ _____ _____    ______ ____

>  <TORSDO>
F 6

$$$$
=
 OpenBabel11052414583D

 55 62  0  0  1  0  0  0  0  0999 V2000
  188.8470  177.0060  137.5220 C   0  0  2  0  0  3  0  0  0  0  0  0
  183.3760  178.3590  141.2590 O   0  0  0  0  0  0  0  0  0  0  0  0
  185.7400  179.5350  140.7950 O   0  0  0  0  0  0  0  0  0  0  0  0
  182.4170  178.2150  138.4790 C   0  0  1  0  0  3  0  0  0  0  0  0
  189.4360  178.8510  143.6580 C   0  0  0  0  0  3  0  0  0  0  0  0
  190.5960  178.9850  144.2990 C   0  0  0  0  0  3  0  0  0  0  0  0
  190.6160  177.7650  141.7070 C   0  0  2  0  0  3  0  0  0  0  0  0
  191.7980  177.6750  142.6330 C   0  0  0  0  0  3  0  0  0  0  0  0
  186.9240  178.0240  142.0820 O   0  0  0  0  0  0  0  0  0  0  0  0
  181.9780  177.4280  139.6270 N   0  0  0  0  0  2  0  0  0  0  0  0
  191.7920  178.2740  143.8250 C   0  0  0  0  0  3  0  0  0  0  0  0
  188.2080  175.1370  136.0030 C   0  0  0  0  0  2  0  0  0  0  0  0
  189.2940  177.9160  142.4850 C   0  0  2  0  0  3  0  0  0  0  0  0
  185.6720  176.4060  135.9250 C   0  0  1  0  0  3  0  0  0  0  0  0
  188.4110  177.7750  138.6170 O   0  0  0  0  0  0  0  0  0  0  0  0
  186.8360  177.1390  136.2200 O   0  0  0  0  0  0  0  0  0  0  0  0
  190.4680  176.8170  139.3880 C   0  0  2  0  0  3  0  0  0  0  0  0
  183.1170  177.2070  140.5130 C   0  0  0  0  0  2  0  0  0  0  0  0
  190.5890  176.4960  140.8710 C   0  0  0  0  0  2  0  0  0  0  0  0
  184.4340  178.0160  142.1070 C   0  0  0  0  0  2  0  0  0  0  0  0
  185.7300  178.5610  141.5990 C   0  0  0  0  0  0  0  0  0  0  0  0
  187.4490  175.0840  134.6750 C   0  0  0  0  0  2  0  0  0  0  0  0
  183.2210  177.3370  137.5310 C   0  0  0  0  0  2  0  0  0  0  0  0
  187.6800  176.2540  136.9190 C   0  0  2  0  0  3  0  0  0  0  0  0
  188.1880  178.4300  141.5800 C   0  0  0  0  0  2  0  0  0  0  0  0
  189.0420  176.5510  138.9190 C   0  0  2  0  0  3  0  0  0  0  0  0
  184.0240  178.1900  136.5620 C   0  0  0  0  0  2  0  0  0  0  0  0
  184.5760  177.3360  135.4330 C   0  0  0  0  0  2  0  0  0  0  0  0
  185.9460  175.3230  134.8680 C   0  0  0  0  0  2  0  0  0  0  0  0
  192.8470  176.5160  138.5000 C   0  0  0  0  0  3  0  0  0  0  0  0
  193.4530  174.5480  137.2600 N   0  0  0  0  0  0  0  0  0  0  0  0
  191.1030  174.9040  137.9460 C   0  0  0  0  0  3  0  0  0  0  0  0
  192.0530  174.1490  137.0570 C   0  0  0  0  0  2  0  0  0  0  0  0
  193.7810  175.8070  137.8650 C   0  0  0  0  0  3  0  0  0  0  0  0
  191.4640  176.0170  138.5940 C   0  0  0  0  0  0  0  0  0  0  0  0
  194.5050  173.8210  136.5570 C   0  0  0  0  0  3  0  0  0  0  0  0
  195.6760  173.5460  137.4910 C   0  0  0  0  0  2  0  0  0  0  0  0
  195.7640  174.6680  136.4840 C   0  0  0  0  0  2  0  0  0  0  0  0
  181.1930  178.7190  137.7280 C   0  0  0  0  0  2  0  0  0  0  0  0
  180.4340  179.8020  138.4870 C   0  0  2  0  0  3  0  0  0  0  0  0
  179.1560  179.8970  137.9380 O   0  0  0  0  0  1  0  0  0  0  0  0
  179.4960  181.8880  136.5220 N   0  0  0  0  0  0  0  0  0  0  0  0
  182.7230  183.5800  137.5950 O   0  0  0  0  0  1  0  0  0  0  0  0
  181.1440  181.1630  138.3710 C   0  0  1  0  0  0  0  0  0  0  0  0
  178.9310  182.1690  139.2010 C   0  0  0  0  0  1  0  0  0  0  0  0
  180.3940  182.4160  138.8390 C   0  0  2  0  0  3  0  0  0  0  0  0
  179.9090  180.9980  135.4470 C   0  0  0  0  0  1  0  0  0  0  0  0
  180.8480  184.5920  136.4120 C   0  0  1  0  0  3  0  0  0  0  0  0
  178.9310  183.0680  135.8450 C   0  0  0  0  0  2  0  0  0  0  0  0
  181.6260  183.3050  136.7700 C   0  0  2  0  0  3  0  0  0  0  0  0
  182.5060  181.1890  138.6910 O   0  0  0  0  0  1  0  0  0  0  0  0
  179.3320  184.4000  136.4800 C   0  0  0  0  0  2  0  0  0  0  0  0
  180.6910  182.2090  137.3370 C   0  0  2  0  0  0  0  0  0  0  0  0
  181.2060  185.6610  137.2390 O   0  0  0  0  0  0  0  0  0  0  0  0
  180.0690  186.0810  137.7520 O   0  0  0  0  0  1  0  0  0  0  0  0
  1 15  1  1  0  0  0
  1 26  1  0  0  0  0
  2 20  1  0  0  0  0
  3 21  2  0  0  0  0
  4 39  1  6  0  0  0
  4 10  1  0  0  0  0
  5  6  2  0  0  0  0
  7 19  1  1  0  0  0
  7 13  1  0  0  0  0
  7  8  1  0  0  0  0
  8 11  2  0  0  0  0
 10 18  1  0  0  0  0
 11  6  1  0  0  0  0
 13 25  1  6  0  0  0
 13  5  1  0  0  0  0
 14 29  1  6  0  0  0
 14 16  1  0  0  0  0
 16 24  1  0  0  0  0
 17 35  1  6  0  0  0
 17 19  1  0  0  0  0
 18  2  1  0  0  0  0
 21  9  1  0  0  0  0
 21 20  1  0  0  0  0
 22 29  1  0  0  0  0
 22 12  1  0  0  0  0
 23  4  1  0  0  0  0
 24 12  1  6  0  0  0
 24  1  1  0  0  0  0
 25  9  1  0  0  0  0
 26 15  1  1  0  0  0
 26 17  1  0  0  0  0
 27 23  1  0  0  0  0
 28 14  1  0  0  0  0
 28 27  1  0  0  0  0
 30 35  1  0  0  0  0
 31 34  1  0  0  0  0
 32 35  2  0  0  0  0
 33 31  1  0  0  0  0
 33 32  1  0  0  0  0
 34 30  2  0  0  0  0
 36 31  1  0  0  0  0
 36 37  1  0  0  0  0
 38 36  1  0  0  0  0
 38 37  1  0  0  0  0
 39 40  1  0  0  0  0
 40 41  1  6  0  0  0
 44 40  1  0  0  0  0
 44 51  1  1  0  0  0
 44 46  1  0  0  0  0
 46 45  1  6  0  0  0
 47 42  1  0  0  0  0
 48 52  1  0  0  0  0
 48 50  1  0  0  0  0
 48 54  1  1  0  0  0
 49 52  1  0  0  0  0
 49 42  1  0  0  0  0
 50 53  1  0  0  0  0
 50 43  1  1  0  0  0
 53 42  1  6  0  0  0
 53 44  1  0  0  0  0
 53 46  1  0  0  0  0
 54 55  1  0  0  0  0
M  END
>  <MODEL>
2

>  <REMARK>
 VINA RESULT:      -8.2      3.645     11.930
  Name = 
  6 active torsions:
  status: ('A' for Active; 'I' for Inactive)
    1  A    between atoms: C_6  and  C_20
    2  A    between atoms: C_7  and  C_8
    3  A    between atoms: C_7  and  C_20
    4  A    between atoms: C_10  and  N_32
    5  A    between atoms: O_11  and  C_29
    6  A    between atoms: C_33  and  C_52
                            x       y       z     vdW  Elec       q    Type
                         _______ _______ _______ _____ _____    ______ ____

>  <TORSDO>
F 6

$$$$
=
 OpenBabel11052414583D

 55 62  0  0  1  0  0  0  0  0999 V2000
  184.1260  178.1670  138.9340 C   0  0  2  0  0  3  0  0  0  0  0  0
  188.0630  173.6200  135.8440 O   0  0  0  0  0  0  0  0  0  0  0  0
  186.0970  175.2890  135.1130 O   0  0  0  0  0  0  0  0  0  0  0  0
  189.9060  175.6080  136.9930 C   0  0  1  0  0  3  0  0  0  0  0  0
  181.6020  173.8490  134.8870 C   0  0  0  0  0  3  0  0  0  0  0  0
  180.3050  173.7520  134.5950 C   0  0  0  0  0  3  0  0  0  0  0  0
  181.0880  175.4970  136.7290 C   0  0  2  0  0  3  0  0  0  0  0  0
  179.6570  175.0780  136.5350 C   0  0  0  0  0  3  0  0  0  0  0  0
  184.4340  174.0070  136.0830 O   0  0  0  0  0  0  0  0  0  0  0  0
  189.8650  174.1690  137.2350 N   0  0  0  0  0  2  0  0  0  0  0  0
  179.2960  174.2910  135.5180 C   0  0  0  0  0  3  0  0  0  0  0  0
  185.1080  178.5150  141.1970 C   0  0  0  0  0  2  0  0  0  0  0  0
  182.0690  174.4370  136.1930 C   0  0  2  0  0  3  0  0  0  0  0  0
  187.6030  178.2040  139.8830 C   0  0  1  0  0  3  0  0  0  0  0  0
  184.2150  177.3810  137.7700 O   0  0  0  0  0  0  0  0  0  0  0  0
  186.4660  178.6390  139.1770 O   0  0  0  0  0  0  0  0  0  0  0  0
  181.9530  177.0570  138.4940 C   0  0  2  0  0  3  0  0  0  0  0  0
  188.4770  173.7180  137.1740 C   0  0  0  0  0  2  0  0  0  0  0  0
  181.3070  175.7070  138.2180 C   0  0  0  0  0  2  0  0  0  0  0  0
  186.7560  173.1260  135.9030 C   0  0  0  0  0  2  0  0  0  0  0  0
  185.7570  174.2180  135.6930 C   0  0  0  0  0  0  0  0  0  0  0  0
  186.2720  179.3670  141.7100 C   0  0  0  0  0  2  0  0  0  0  0  0
  189.4150  176.3520  138.2260 C   0  0  0  0  0  2  0  0  0  0  0  0
  185.3700  177.9860  139.7770 C   0  0  2  0  0  3  0  0  0  0  0  0
  183.4530  175.0300  135.9950 C   0  0  0  0  0  2  0  0  0  0  0  0
  183.4300  176.8630  138.8200 C   0  0  2  0  0  3  0  0  0  0  0  0
  189.0590  177.7880  137.8790 C   0  0  0  0  0  2  0  0  0  0  0  0
  188.8670  178.6100  139.1430 C   0  0  0  0  0  2  0  0  0  0  0  0
  187.6310  178.7780  141.3090 C   0  0  0  0  0  2  0  0  0  0  0  0
  180.3270  176.9830  140.4660 C   0  0  0  0  0  3  0  0  0  0  0  0
  179.9390  178.9380  141.8090 N   0  0  0  0  0  0  0  0  0  0  0  0
  181.3700  179.0830  139.7970 C   0  0  0  0  0  3  0  0  0  0  0  0
  180.5780  179.8320  140.8330 C   0  0  0  0  0  2  0  0  0  0  0  0
  179.7210  177.5530  141.5080 C   0  0  0  0  0  3  0  0  0  0  0  0
  181.2340  177.7660  139.6090 C   0  0  0  0  0  0  0  0  0  0  0  0
  179.2340  179.5210  142.9470 C   0  0  0  0  0  3  0  0  0  0  0  0
  180.2110  179.8360  144.0720 C   0  0  0  0  0  2  0  0  0  0  0  0
  179.3420  178.6030  144.1520 C   0  0  0  0  0  2  0  0  0  0  0  0
  191.3470  176.0250  136.7370 C   0  0  0  0  0  2  0  0  0  0  0  0
  192.2870  174.8370  136.5590 C   0  0  2  0  0  3  0  0  0  0  0  0
  191.7690  173.7670  137.2880 O   0  0  0  0  0  1  0  0  0  0  0  0
  194.6940  173.3230  135.5580 N   0  0  0  0  0  0  0  0  0  0  0  0
  196.4030  175.2530  138.3470 O   0  0  0  0  0  1  0  0  0  0  0  0
  193.7020  175.1670  137.0670 C   0  0  1  0  0  0  0  0  0  0  0  0
  194.1950  175.8720  134.6470 C   0  0  0  0  0  1  0  0  0  0  0  0
  194.6940  175.8070  136.0890 C   0  0  2  0  0  3  0  0  0  0  0  0
  194.1700  172.1380  136.2220 C   0  0  0  0  0  1  0  0  0  0  0  0
  197.4680  174.0830  136.4940 C   0  0  1  0  0  3  0  0  0  0  0  0
  195.9370  172.8770  134.9060 C   0  0  0  0  0  2  0  0  0  0  0  0
  196.2300  174.2300  137.4080 C   0  0  2  0  0  3  0  0  0  0  0  0
  193.7990  175.6860  138.3620 O   0  0  0  0  0  1  0  0  0  0  0  0
  197.0930  173.8720  135.0270 C   0  0  0  0  0  2  0  0  0  0  0  0
  194.9240  174.3630  136.5880 C   0  0  2  0  0  0  0  0  0  0  0  0
  198.3160  175.1910  136.5890 O   0  0  0  0  0  0  0  0  0  0  0  0
  198.4260  175.6330  135.3540 O   0  0  0  0  0  1  0  0  0  0  0  0
  1 15  1  6  0  0  0
  1 24  1  0  0  0  0
  2 20  1  0  0  0  0
  2 18  1  0  0  0  0
  3 21  2  0  0  0  0
  4 39  1  1  0  0  0
  4 10  1  0  0  0  0
  4 23  1  0  0  0  0
  6  5  2  0  0  0  0
  6 11  1  0  0  0  0
  7  8  1  1  0  0  0
  7 19  1  0  0  0  0
 11  8  2  0  0  0  0
 12 22  1  0  0  0  0
 13  5  1  6  0  0  0
 13  7  1  0  0  0  0
 14 28  1  6  0  0  0
 14 29  1  0  0  0  0
 16 24  1  0  0  0  0
 16 14  1  0  0  0  0
 17 26  1  0  0  0  0
 17 35  1  1  0  0  0
 18 10  1  0  0  0  0
 19 17  1  0  0  0  0
 21 20  1  0  0  0  0
 21  9  1  0  0  0  0
 24 12  1  1  0  0  0
 25  9  1  0  0  0  0
 25 13  1  0  0  0  0
 26 15  1  6  0  0  0
 26  1  1  0  0  0  0
 27 23  1  0  0  0  0
 27 28  1  0  0  0  0
 29 22  1  0  0  0  0
 30 34  2  0  0  0  0
 31 36  1  0  0  0  0
 32 33  1  0  0  0  0
 33 31  1  0  0  0  0
 34 31  1  0  0  0  0
 35 32  2  0  0  0  0
 35 30  1  0  0  0  0
 36 37  1  0  0  0  0
 36 38  1  0  0  0  0
 37 38  1  0  0  0  0
 40 39  1  0  0  0  0
 40 44  1  0  0  0  0
 40 41  1  1  0  0  0
 42 47  1  0  0  0  0
 44 51  1  1  0  0  0
 46 45  1  6  0  0  0
 46 53  1  0  0  0  0
 46 44  1  0  0  0  0
 48 54  1  6  0  0  0
 48 50  1  0  0  0  0
 49 52  1  0  0  0  0
 49 42  1  0  0  0  0
 50 43  1  6  0  0  0
 52 48  1  0  0  0  0
 53 42  1  6  0  0  0
 53 44  1  0  0  0  0
 53 50  1  0  0  0  0
 55 54  1  0  0  0  0
M  END
>  <MODEL>
3

>  <REMARK>
 VINA RESULT:      -7.8      2.584      4.008
  Name = 
  6 active torsions:
  status: ('A' for Active; 'I' for Inactive)
    1  A    between atoms: C_6  and  C_20
    2  A    between atoms: C_7  and  C_8
    3  A    between atoms: C_7  and  C_20
    4  A    between atoms: C_10  and  N_32
    5  A    between atoms: O_11  and  C_29
    6  A    between atoms: C_33  and  C_52
                            x       y       z     vdW  Elec       q    Type
                         _______ _______ _______ _____ _____    ______ ____

>  <TORSDO>
F 6

$$$$
=
 OpenBabel11052414583D

 55 62  0  0  1  0  0  0  0  0999 V2000
  186.3270  177.2800  138.2850 C   0  0  2  0  0  3  0  0  0  0  0  0
  192.5780  176.8040  140.8190 O   0  0  0  0  0  0  0  0  0  0  0  0
  190.1780  175.7490  141.3820 O   0  0  0  0  0  0  0  0  0  0  0  0
  192.7910  175.9140  138.0210 C   0  0  1  0  0  3  0  0  0  0  0  0
  187.3380  177.6810  144.6270 C   0  0  0  0  0  3  0  0  0  0  0  0
  186.3830  177.8730  145.5350 C   0  0  0  0  0  3  0  0  0  0  0  0
  185.6940  178.1400  142.7660 C   0  0  2  0  0  3  0  0  0  0  0  0
  184.7890  178.6410  143.8580 C   0  0  0  0  0  3  0  0  0  0  0  0
  189.3590  177.7040  142.3040 O   0  0  0  0  0  0  0  0  0  0  0  0
  193.5080  177.0020  138.6790 N   0  0  0  0  0  2  0  0  0  0  0  0
  185.1020  178.4820  145.1460 C   0  0  0  0  0  3  0  0  0  0  0  0
  186.5480  178.4620  136.1020 C   0  0  0  0  0  2  0  0  0  0  0  0
  187.1720  178.1470  143.2040 C   0  0  2  0  0  3  0  0  0  0  0  0
  188.9840  177.0260  135.8630 C   0  0  1  0  0  3  0  0  0  0  0  0
  187.0320  176.8930  139.4400 O   0  0  0  0  0  0  0  0  0  0  0  0
  187.9370  176.5400  136.6670 O   0  0  0  0  0  0  0  0  0  0  0  0
  185.2390  178.2300  140.3000 C   0  0  2  0  0  3  0  0  0  0  0  0
  192.6330  177.6080  139.6790 C   0  0  0  0  0  2  0  0  0  0  0  0
  185.5010  179.0430  141.5590 C   0  0  0  0  0  2  0  0  0  0  0  0
  191.7720  177.5040  141.7230 C   0  0  0  0  0  2  0  0  0  0  0  0
  190.3910  176.9340  141.7670 C   0  0  0  0  0  0  0  0  0  0  0  0
  186.9420  177.9960  134.6990 C   0  0  0  0  0  2  0  0  0  0  0  0
  191.7680  176.4850  137.0500 C   0  0  0  0  0  2  0  0  0  0  0  0
  187.2980  177.6800  137.1950 C   0  0  2  0  0  3  0  0  0  0  0  0
  188.0100  177.2630  142.2970 C   0  0  0  0  0  2  0  0  0  0  0  0
  186.4960  178.1970  139.4380 C   0  0  2  0  0  3  0  0  0  0  0  0
  190.7460  175.4270  136.6650 C   0  0  0  0  0  2  0  0  0  0  0  0
  189.9200  175.8930  135.4780 C   0  0  0  0  0  2  0  0  0  0  0  0
  188.4450  177.7070  134.5940 C   0  0  0  0  0  2  0  0  0  0  0  0
  183.1330  177.8610  138.8960 C   0  0  0  0  0  3  0  0  0  0  0  0
  181.7710  179.7220  138.2160 N   0  0  0  0  0  0  0  0  0  0  0  0
  183.9010  180.1180  139.4120 C   0  0  0  0  0  3  0  0  0  0  0  0
  182.8040  180.7070  138.5680 C   0  0  0  0  0  2  0  0  0  0  0  0
  182.0460  178.3150  138.2720 C   0  0  0  0  0  3  0  0  0  0  0  0
  184.0700  178.7970  139.5430 C   0  0  0  0  0  0  0  0  0  0  0  0
  180.5800  180.1700  137.5020 C   0  0  0  0  0  3  0  0  0  0  0  0
  180.8450  180.2120  136.0030 C   0  0  0  0  0  2  0  0  0  0  0  0
  180.8580  181.4910  136.8060 C   0  0  0  0  0  2  0  0  0  0  0  0
  193.7830  175.0810  137.2210 C   0  0  0  0  0  2  0  0  0  0  0  0
  195.1720  175.0440  137.8510 C   0  0  2  0  0  3  0  0  0  0  0  0
  196.0610  175.6560  136.9680 O   0  0  0  0  0  1  0  0  0  0  0  0
  196.4040  173.3740  135.6640 N   0  0  0  0  0  0  0  0  0  0  0  0
  196.0100  170.6360  138.2670 O   0  0  0  0  0  1  0  0  0  0  0  0
  195.6240  173.5970  138.1150 C   0  0  1  0  0  0  0  0  0  0  0  0
  197.9960  174.4570  137.6320 C   0  0  0  0  0  1  0  0  0  0  0  0
  197.1270  173.2910  138.0990 C   0  0  2  0  0  3  0  0  0  0  0  0
  195.1190  173.3970  134.9830 C   0  0  0  0  0  1  0  0  0  0  0  0
  197.3870  170.5750  136.2580 C   0  0  1  0  0  3  0  0  0  0  0  0
  197.2930  172.6050  134.7770 C   0  0  0  0  0  2  0  0  0  0  0  0
  196.1690  171.1840  136.9890 C   0  0  2  0  0  3  0  0  0  0  0  0
  194.9340  172.8950  139.1080 O   0  0  0  0  0  1  0  0  0  0  0  0
  198.2110  171.6270  135.5130 C   0  0  0  0  0  2  0  0  0  0  0  0
  196.2120  172.7320  136.9860 C   0  0  2  0  0  0  0  0  0  0  0  0
  198.2260  169.8830  137.1370 O   0  0  0  0  0  0  0  0  0  0  0  0
  199.0460  170.7990  137.6050 O   0  0  0  0  0  1  0  0  0  0  0  0
  1 26  1  0  0  0  0
  1 15  1  1  0  0  0
  2 20  1  0  0  0  0
  3 21  2  0  0  0  0
  4 39  1  6  0  0  0
  4 10  1  0  0  0  0
  5  6  2  0  0  0  0
  7 19  1  6  0  0  0
  7 13  1  0  0  0  0
  7  8  1  0  0  0  0
  8 11  2  0  0  0  0
 10 18  1  0  0  0  0
 11  6  1  0  0  0  0
 13 25  1  6  0  0  0
 13  5  1  0  0  0  0
 14 29  1  6  0  0  0
 14 16  1  0  0  0  0
 16 24  1  0  0  0  0
 17 35  1  6  0  0  0
 17 19  1  0  0  0  0
 18  2  1  0  0  0  0
 20 21  1  0  0  0  0
 21  9  1  0  0  0  0
 22 12  1  0  0  0  0
 23  4  1  0  0  0  0
 24 12  1  6  0  0  0
 24  1  1  0  0  0  0
 25  9  1  0  0  0  0
 26 15  1  1  0  0  0
 26 17  1  0  0  0  0
 27 23  1  0  0  0  0
 28 14  1  0  0  0  0
 28 27  1  0  0  0  0
 29 22  1  0  0  0  0
 30 35  1  0  0  0  0
 31 34  1  0  0  0  0
 31 33  1  0  0  0  0
 32 35  2  0  0  0  0
 33 32  1  0  0  0  0
 34 30  2  0  0  0  0
 36 31  1  0  0  0  0
 37 38  1  0  0  0  0
 37 36  1  0  0  0  0
 38 36  1  0  0  0  0
 39 40  1  0  0  0  0
 40 41  1  6  0  0  0
 40 44  1  0  0  0  0
 44 51  1  1  0  0  0
 46 45  1  6  0  0  0
 46 44  1  0  0  0  0
 47 42  1  0  0  0  0
 48 50  1  0  0  0  0
 48 54  1  1  0  0  0
 49 52  1  0  0  0  0
 49 42  1  0  0  0  0
 50 43  1  1  0  0  0
 52 48  1  0  0  0  0
 53 42  1  6  0  0  0
 53 50  1  0  0  0  0
 53 46  1  0  0  0  0
 53 44  1  0  0  0  0
 54 55  1  0  0  0  0
M  END
>  <MODEL>
4

>  <REMARK>
 VINA RESULT:      -7.5      2.312      5.843
  Name = 
  6 active torsions:
  status: ('A' for Active; 'I' for Inactive)
    1  A    between atoms: C_6  and  C_20
    2  A    between atoms: C_7  and  C_8
    3  A    between atoms: C_7  and  C_20
    4  A    between atoms: C_10  and  N_32
    5  A    between atoms: O_11  and  C_29
    6  A    between atoms: C_33  and  C_52
                            x       y       z     vdW  Elec       q    Type
                         _______ _______ _______ _____ _____    ______ ____

>  <TORSDO>
F 6

$$$$
=
 OpenBabel11052414583D

 55 62  0  0  1  0  0  0  0  0999 V2000
  186.3190  177.3920  138.7330 C   0  0  2  0  0  3  0  0  0  0  0  0
  192.7440  176.8890  140.7780 O   0  0  0  0  0  0  0  0  0  0  0  0
  190.3950  175.8220  141.5050 O   0  0  0  0  0  0  0  0  0  0  0  0
  192.7450  176.0410  137.9590 C   0  0  1  0  0  3  0  0  0  0  0  0
  187.8070  177.7000  144.9850 C   0  0  0  0  0  3  0  0  0  0  0  0
  186.9230  177.8760  145.9650 C   0  0  0  0  0  3  0  0  0  0  0  0
  186.0270  178.1840  143.2610 C   0  0  2  0  0  3  0  0  0  0  0  0
  185.2070  178.6660  144.4260 C   0  0  0  0  0  3  0  0  0  0  0  0
  189.6470  177.7610  142.5160 O   0  0  0  0  0  0  0  0  0  0  0  0
  193.5090  177.1200  138.5770 N   0  0  0  0  0  2  0  0  0  0  0  0
  185.6170  178.4890  145.6830 C   0  0  0  0  0  3  0  0  0  0  0  0
  186.3740  178.6070  136.5570 C   0  0  0  0  0  2  0  0  0  0  0  0
  187.5330  178.1870  143.5850 C   0  0  2  0  0  3  0  0  0  0  0  0
  188.7850  177.1790  136.1120 C   0  0  1  0  0  3  0  0  0  0  0  0
  187.1100  176.9890  139.8240 O   0  0  0  0  0  0  0  0  0  0  0  0
  187.8020  176.6790  136.9860 O   0  0  0  0  0  0  0  0  0  0  0  0
  185.3860  178.3100  140.8380 C   0  0  2  0  0  3  0  0  0  0  0  0
  192.7130  177.7100  139.6500 C   0  0  0  0  0  2  0  0  0  0  0  0
  185.7420  179.1050  142.0860 C   0  0  0  0  0  2  0  0  0  0  0  0
  192.0080  177.5740  141.7510 C   0  0  0  0  0  2  0  0  0  0  0  0
  190.6350  177.0010  141.8910 C   0  0  0  0  0  0  0  0  0  0  0  0
  186.6600  178.1630  135.1210 C   0  0  0  0  0  2  0  0  0  0  0  0
  191.6510  176.6250  137.0770 C   0  0  0  0  0  2  0  0  0  0  0  0
  187.2040  177.8100  137.5780 C   0  0  2  0  0  3  0  0  0  0  0  0
  188.3010  177.3180  142.6050 C   0  0  0  0  0  2  0  0  0  0  0  0
  186.5740  178.2920  139.8830 C   0  0  2  0  0  3  0  0  0  0  0  0
  190.6040  175.5720  136.7550 C   0  0  0  0  0  2  0  0  0  0  0  0
  189.6900  176.0540  135.6400 C   0  0  0  0  0  2  0  0  0  0  0  0
  188.1510  177.8780  134.8980 C   0  0  0  0  0  2  0  0  0  0  0  0
  182.8630  178.2370  140.4260 C   0  0  0  0  0  3  0  0  0  0  0  0
  181.7830  179.9450  139.1240 N   0  0  0  0  0  0  0  0  0  0  0  0
  184.2470  179.9330  139.3520 C   0  0  0  0  0  3  0  0  0  0  0  0
  183.0560  180.4570  138.5970 C   0  0  0  0  0  2  0  0  0  0  0  0
  181.7420  178.7520  139.9190 C   0  0  0  0  0  3  0  0  0  0  0  0
  184.1620  178.8860  140.1800 C   0  0  0  0  0  0  0  0  0  0  0  0
  180.5320  180.4560  138.5730 C   0  0  0  0  0  3  0  0  0  0  0  0
  180.0270  181.6290  139.4030 C   0  0  0  0  0  2  0  0  0  0  0  0
  179.4060  180.2630  139.5740 C   0  0  0  0  0  2  0  0  0  0  0  0
  193.6740  175.2220  137.0740 C   0  0  0  0  0  2  0  0  0  0  0  0
  194.8600  176.0270  136.5530 C   0  0  2  0  0  3  0  0  0  0  0  0
  194.4150  176.8090  135.4880 O   0  0  0  0  0  1  0  0  0  0  0  0
  195.3960  173.3880  137.9100 N   0  0  0  0  0  0  0  0  0  0  0  0
  198.4690  173.4730  135.6780 O   0  0  0  0  0  1  0  0  0  0  0  0
  195.9920  175.1010  136.0720 C   0  0  1  0  0  0  0  0  0  0  0  0
  194.1210  173.4480  135.4710 C   0  0  0  0  0  1  0  0  0  0  0  0
  195.6120  173.7730  135.4070 C   0  0  2  0  0  3  0  0  0  0  0  0
  195.8030  174.1290  139.0930 C   0  0  0  0  0  1  0  0  0  0  0  0
  197.5550  171.5470  136.8580 C   0  0  1  0  0  3  0  0  0  0  0  0
  195.5280  171.9690  138.2830 C   0  0  0  0  0  2  0  0  0  0  0  0
  197.6790  173.0860  136.7650 C   0  0  2  0  0  3  0  0  0  0  0  0
  197.0950  175.7170  135.4720 O   0  0  0  0  0  1  0  0  0  0  0  0
  196.1330  171.0910  137.1860 C   0  0  0  0  0  2  0  0  0  0  0  0
  196.2920  173.7750  136.7940 C   0  0  2  0  0  0  0  0  0  0  0  0
  197.9680  170.9230  135.6770 O   0  0  0  0  0  0  0  0  0  0  0  0
  197.0840  169.9690  135.4780 O   0  0  0  0  0  1  0  0  0  0  0  0
  1 15  1  1  0  0  0
  1 26  1  0  0  0  0
  2 20  1  0  0  0  0
  3 21  2  0  0  0  0
  4 39  1  6  0  0  0
  4 10  1  0  0  0  0
  5  6  2  0  0  0  0
  7 19  1  6  0  0  0
  7 13  1  0  0  0  0
  7  8  1  0  0  0  0
  8 11  2  0  0  0  0
  9 25  1  0  0  0  0
 10 18  1  0  0  0  0
 11  6  1  0  0  0  0
 13 25  1  6  0  0  0
 13  5  1  0  0  0  0
 14 29  1  6  0  0  0
 14 16  1  0  0  0  0
 16 24  1  0  0  0  0
 17 35  1  6  0  0  0
 17 19  1  0  0  0  0
 18  2  1  0  0  0  0
 20 21  1  0  0  0  0
 21  9  1  0  0  0  0
 22 12  1  0  0  0  0
 23  4  1  0  0  0  0
 24 12  1  6  0  0  0
 24  1  1  0  0  0  0
 26 15  1  1  0  0  0
 26 17  1  0  0  0  0
 27 23  1  0  0  0  0
 28 14  1  0  0  0  0
 28 27  1  0  0  0  0
 29 22  1  0  0  0  0
 31 34  1  0  0  0  0
 32 35  2  0  0  0  0
 33 31  1  0  0  0  0
 33 32  1  0  0  0  0
 34 30  2  0  0  0  0
 35 30  1  0  0  0  0
 36 31  1  0  0  0  0
 36 37  1  0  0  0  0
 36 38  1  0  0  0  0
 37 38  1  0  0  0  0
 40 41  1  6  0  0  0
 40 39  1  0  0  0  0
 42 49  1  0  0  0  0
 42 47  1  0  0  0  0
 44 51  1  6  0  0  0
 44 40  1  0  0  0  0
 44 53  1  0  0  0  0
 46 45  1  1  0  0  0
 46 44  1  0  0  0  0
 46 53  1  0  0  0  0
 48 54  1  6  0  0  0
 48 52  1  0  0  0  0
 50 43  1  6  0  0  0
 50 53  1  0  0  0  0
 50 48  1  0  0  0  0
 52 49  1  0  0  0  0
 53 42  1  1  0  0  0
 55 54  1  0  0  0  0
M  END
>  <MODEL>
5

>  <REMARK>
 VINA RESULT:      -7.4      2.373      5.755
  Name = 
  6 active torsions:
  status: ('A' for Active; 'I' for Inactive)
    1  A    between atoms: C_6  and  C_20
    2  A    between atoms: C_7  and  C_8
    3  A    between atoms: C_7  and  C_20
    4  A    between atoms: C_10  and  N_32
    5  A    between atoms: O_11  and  C_29
    6  A    between atoms: C_33  and  C_52
                            x       y       z     vdW  Elec       q    Type
                         _______ _______ _______ _____ _____    ______ ____

>  <TORSDO>
F 6

$$$$
=
 OpenBabel11052414583D

 55 62  0  0  1  0  0  0  0  0999 V2000
  186.1020  177.3360  141.1670 C   0  0  2  0  0  3  0  0  0  0  0  0
  192.8440  177.0180  140.7500 O   0  0  0  0  0  0  0  0  0  0  0  0
  190.9260  175.7100  142.0900 O   0  0  0  0  0  0  0  0  0  0  0  0
  191.8610  176.5350  138.0170 C   0  0  1  0  0  3  0  0  0  0  0  0
  189.7060  176.9520  146.4830 C   0  0  0  0  0  3  0  0  0  0  0  0
  189.2240  176.9420  147.7250 C   0  0  0  0  0  3  0  0  0  0  0  0
  187.4210  177.5270  145.5770 C   0  0  2  0  0  3  0  0  0  0  0  0
  187.0590  177.8010  147.0100 C   0  0  0  0  0  3  0  0  0  0  0  0
  190.5480  177.4500  143.5640 O   0  0  0  0  0  0  0  0  0  0  0  0
  192.7730  177.5780  138.4770 N   0  0  0  0  0  2  0  0  0  0  0  0
  187.8910  177.4950  148.0070 C   0  0  0  0  0  3  0  0  0  0  0  0
  185.3580  178.8160  139.3060 C   0  0  0  0  0  2  0  0  0  0  0  0
  188.9440  177.5920  145.3520 C   0  0  2  0  0  3  0  0  0  0  0  0
  187.4820  177.6250  137.8490 C   0  0  1  0  0  3  0  0  0  0  0  0
  187.2360  176.8530  141.8450 O   0  0  0  0  0  0  0  0  0  0  0  0
  186.8820  176.9520  138.9310 O   0  0  0  0  0  0  0  0  0  0  0  0
  185.9590  177.9140  143.5730 C   0  0  2  0  0  3  0  0  0  0  0  0
  192.3980  177.9710  139.8320 C   0  0  0  0  0  2  0  0  0  0  0  0
  186.7200  178.5670  144.7180 C   0  0  0  0  0  2  0  0  0  0  0  0
  192.4880  177.5230  142.0050 C   0  0  0  0  0  2  0  0  0  0  0  0
  191.2650  176.8440  142.5320 C   0  0  0  0  0  0  0  0  0  0  0  0
  185.1240  178.5780  137.8120 C   0  0  0  0  0  2  0  0  0  0  0  0
  190.5140  177.1500  137.6640 C   0  0  0  0  0  2  0  0  0  0  0  0
  186.5120  177.9550  139.8480 C   0  0  2  0  0  3  0  0  0  0  0  0
  189.3300  176.9080  144.0520 C   0  0  0  0  0  2  0  0  0  0  0  0
  186.7320  178.0980  142.2710 C   0  0  2  0  0  3  0  0  0  0  0  0
  189.4410  176.0770  137.5820 C   0  0  0  0  0  2  0  0  0  0  0  0
  188.1820  176.6320  136.9360 C   0  0  0  0  0  2  0  0  0  0  0  0
  186.4440  178.4260  137.0450 C   0  0  0  0  0  2  0  0  0  0  0  0
  183.8790  178.4180  142.1730 C   0  0  0  0  0  3  0  0  0  0  0  0
  181.9260  179.3870  143.1860 N   0  0  0  0  0  0  0  0  0  0  0  0
  183.9880  179.0810  144.5180 C   0  0  0  0  0  3  0  0  0  0  0  0
  182.6480  179.7560  144.4110 C   0  0  0  0  0  2  0  0  0  0  0  0
  182.6240  178.8490  142.0530 C   0  0  0  0  0  3  0  0  0  0  0  0
  184.5710  178.4840  143.4730 C   0  0  0  0  0  0  0  0  0  0  0  0
  180.5600  179.8660  142.9970 C   0  0  0  0  0  3  0  0  0  0  0  0
  179.5760  178.9630  143.7280 C   0  0  0  0  0  2  0  0  0  0  0  0
  179.7480  178.8340  142.2330 C   0  0  0  0  0  2  0  0  0  0  0  0
  192.4310  175.9000  136.7570 C   0  0  0  0  0  2  0  0  0  0  0  0
  193.1440  174.5800  137.0270 C   0  0  2  0  0  3  0  0  0  0  0  0
  192.4470  173.9120  138.0330 O   0  0  0  0  0  1  0  0  0  0  0  0
  195.4040  172.9110  135.9340 N   0  0  0  0  0  0  0  0  0  0  0  0
  197.3450  174.7220  138.6510 O   0  0  0  0  0  1  0  0  0  0  0  0
  194.5970  174.8150  137.4780 C   0  0  1  0  0  0  0  0  0  0  0  0
  195.0400  175.4880  135.0390 C   0  0  0  0  0  1  0  0  0  0  0  0
  195.5900  175.3900  136.4600 C   0  0  2  0  0  3  0  0  0  0  0  0
  194.8300  171.7630  136.6200 C   0  0  0  0  0  1  0  0  0  0  0  0
  198.2580  173.4850  136.7600 C   0  0  1  0  0  3  0  0  0  0  0  0
  196.5890  172.3850  135.2350 C   0  0  0  0  0  2  0  0  0  0  0  0
  197.0690  173.7130  137.7210 C   0  0  2  0  0  3  0  0  0  0  0  0
  194.7790  175.3260  138.7680 O   0  0  0  0  0  1  0  0  0  0  0  0
  197.8120  173.3010  135.3080 C   0  0  0  0  0  2  0  0  0  0  0  0
  195.7430  173.9330  136.9520 C   0  0  2  0  0  0  0  0  0  0  0  0
  199.1800  174.5350  136.8190 O   0  0  0  0  0  0  0  0  0  0  0  0
  198.9370  175.2530  135.7440 O   0  0  0  0  0  1  0  0  0  0  0  0
  1 15  1  6  0  0  0
  1 26  1  0  0  0  0
  2 20  1  0  0  0  0
  3 21  2  0  0  0  0
  4 39  1  6  0  0  0
  4 10  1  0  0  0  0
  5  6  2  0  0  0  0
  6 11  1  0  0  0  0
  7 19  1  6  0  0  0
  7  8  1  0  0  0  0
  8 11  2  0  0  0  0
  9 25  1  0  0  0  0
 10 18  1  0  0  0  0
 13 25  1  6  0  0  0
 13  7  1  0  0  0  0
 13  5  1  0  0  0  0
 14 28  1  6  0  0  0
 14 16  1  0  0  0  0
 16 24  1  0  0  0  0
 17 35  1  6  0  0  0
 17 19  1  0  0  0  0
 18  2  1  0  0  0  0
 20 21  1  0  0  0  0
 21  9  1  0  0  0  0
 22 12  1  0  0  0  0
 23  4  1  0  0  0  0
 24 12  1  6  0  0  0
 24  1  1  0  0  0  0
 26 15  1  1  0  0  0
 26 17  1  0  0  0  0
 27 23  1  0  0  0  0
 28 27  1  0  0  0  0
 29 22  1  0  0  0  0
 29 14  1  0  0  0  0
 30 35  1  0  0  0  0
 31 33  1  0  0  0  0
 33 32  1  0  0  0  0
 34 30  2  0  0  0  0
 34 31  1  0  0  0  0
 35 32  2  0  0  0  0
 36 31  1  0  0  0  0
 36 37  1  0  0  0  0
 38 36  1  0  0  0  0
 38 37  1  0  0  0  0
 39 40  1  0  0  0  0
 40 44  1  0  0  0  0
 40 41  1  1  0  0  0
 42 47  1  0  0  0  0
 44 51  1  1  0  0  0
 46 45  1  6  0  0  0
 46 53  1  0  0  0  0
 46 44  1  0  0  0  0
 48 54  1  6  0  0  0
 48 50  1  0  0  0  0
 49 52  1  0  0  0  0
 49 42  1  0  0  0  0
 50 43  1  6  0  0  0
 52 48  1  0  0  0  0
 53 42  1  6  0  0  0
 53 44  1  0  0  0  0
 53 50  1  0  0  0  0
 55 54  1  0  0  0  0
M  END
>  <MODEL>
6

>  <REMARK>
 VINA RESULT:      -7.4      2.034      5.497
  Name = 
  6 active torsions:
  status: ('A' for Active; 'I' for Inactive)
    1  A    between atoms: C_6  and  C_20
    2  A    between atoms: C_7  and  C_8
    3  A    between atoms: C_7  and  C_20
    4  A    between atoms: C_10  and  N_32
    5  A    between atoms: O_11  and  C_29
    6  A    between atoms: C_33  and  C_52
                            x       y       z     vdW  Elec       q    Type
                         _______ _______ _______ _____ _____    ______ ____

>  <TORSDO>
F 6

$$$$
=
 OpenBabel11052414583D

 55 62  0  0  1  0  0  0  0  0999 V2000
  184.3310  177.2190  138.9790 C   0  0  2  0  0  3  0  0  0  0  0  0
  190.8790  176.7560  140.6010 O   0  0  0  0  0  0  0  0  0  0  0  0
  188.5640  175.8800  141.6330 O   0  0  0  0  0  0  0  0  0  0  0  0
  190.6410  175.5440  137.9290 C   0  0  1  0  0  3  0  0  0  0  0  0
  186.3020  178.2930  145.0080 C   0  0  0  0  0  3  0  0  0  0  0  0
  185.5010  178.6290  146.0180 C   0  0  0  0  0  3  0  0  0  0  0  0
  184.4080  178.6100  143.3690 C   0  0  2  0  0  3  0  0  0  0  0  0
  183.6930  179.2710  144.5160 C   0  0  0  0  0  3  0  0  0  0  0  0
  187.9480  177.9620  142.4270 O   0  0  0  0  0  0  0  0  0  0  0  0
  191.4780  176.6670  138.3400 N   0  0  0  0  0  2  0  0  0  0  0  0
  184.1940  179.2460  145.7520 C   0  0  0  0  0  3  0  0  0  0  0  0
  184.2500  178.1330  136.6620 C   0  0  0  0  0  2  0  0  0  0  0  0
  185.9350  178.6010  143.5800 C   0  0  2  0  0  3  0  0  0  0  0  0
  186.5820  176.5730  136.2380 C   0  0  1  0  0  3  0  0  0  0  0  0
  185.1920  176.9340  140.0540 O   0  0  0  0  0  0  0  0  0  0  0  0
  185.6550  176.2280  137.2410 O   0  0  0  0  0  0  0  0  0  0  0  0
  183.5860  178.4390  141.0040 C   0  0  2  0  0  3  0  0  0  0  0  0
  190.7820  177.4220  139.3780 C   0  0  0  0  0  2  0  0  0  0  0  0
  184.0590  179.3780  142.1050 C   0  0  0  0  0  2  0  0  0  0  0  0
  190.2380  177.5900  141.5240 C   0  0  0  0  0  2  0  0  0  0  0  0
  188.8650  177.0900  141.8390 C   0  0  0  0  0  0  0  0  0  0  0  0
  184.4130  177.4940  135.2810 C   0  0  0  0  0  2  0  0  0  0  0  0
  189.4980  176.0460  137.0580 C   0  0  0  0  0  2  0  0  0  0  0  0
  185.1350  177.4480  137.7170 C   0  0  2  0  0  3  0  0  0  0  0  0
  186.6010  177.5830  142.6720 C   0  0  0  0  0  2  0  0  0  0  0  0
  184.6970  178.2520  139.9760 C   0  0  2  0  0  3  0  0  0  0  0  0
  188.4020  174.9990  136.9570 C   0  0  0  0  0  2  0  0  0  0  0  0
  187.4180  175.3630  135.8570 C   0  0  0  0  0  2  0  0  0  0  0  0
  185.8740  177.1280  134.9910 C   0  0  0  0  0  2  0  0  0  0  0  0
  182.4520  180.0610  139.3850 C   0  0  0  0  0  3  0  0  0  0  0  0
  180.0810  179.9510  139.0000 N   0  0  0  0  0  0  0  0  0  0  0  0
  181.1270  178.4980  140.7080 C   0  0  0  0  0  3  0  0  0  0  0  0
  179.8530  179.0860  140.1660 C   0  0  0  0  0  2  0  0  0  0  0  0
  181.3750  180.5150  138.7430 C   0  0  0  0  0  3  0  0  0  0  0  0
  182.3320  178.9680  140.3660 C   0  0  0  0  0  0  0  0  0  0  0  0
  178.9310  180.4990  138.2880 C   0  0  0  0  0  3  0  0  0  0  0  0
  179.1990  180.5320  136.7900 C   0  0  0  0  0  2  0  0  0  0  0  0
  179.3140  181.7990  137.6040 C   0  0  0  0  0  2  0  0  0  0  0  0
  191.4770  174.5830  137.0960 C   0  0  0  0  0  2  0  0  0  0  0  0
  192.7620  175.2150  136.5710 C   0  0  2  0  0  3  0  0  0  0  0  0
  192.4340  176.0070  135.4720 O   0  0  0  0  0  1  0  0  0  0  0  0
  195.6480  175.9140  136.0510 N   0  0  0  0  0  0  0  0  0  0  0  0
  195.7240  172.3430  134.7590 O   0  0  0  0  0  1  0  0  0  0  0  0
  193.7770  174.1390  136.1440 C   0  0  1  0  0  0  0  0  0  0  0  0
  194.9420  174.6290  138.3800 C   0  0  0  0  0  1  0  0  0  0  0  0
  194.8810  173.7480  137.1340 C   0  0  2  0  0  3  0  0  0  0  0  0
  195.2070  176.6920  134.9030 C   0  0  0  0  0  1  0  0  0  0  0  0
  197.6320  173.7480  135.3280 C   0  0  1  0  0  3  0  0  0  0  0  0
  197.1100  176.0860  136.0890 C   0  0  0  0  0  2  0  0  0  0  0  0
  196.1480  173.6680  134.9040 C   0  0  2  0  0  3  0  0  0  0  0  0
  193.2710  173.0480  135.4300 O   0  0  0  0  0  1  0  0  0  0  0  0
  197.8790  174.8020  136.4080 C   0  0  0  0  0  2  0  0  0  0  0  0
  195.2390  174.5060  135.8360 C   0  0  2  0  0  0  0  0  0  0  0  0
  198.1060  172.5140  135.7850 O   0  0  0  0  0  0  0  0  0  0  0  0
  198.8910  172.8130  136.7980 O   0  0  0  0  0  1  0  0  0  0  0  0
  1 26  1  0  0  0  0
  1 15  1  1  0  0  0
  2 20  1  0  0  0  0
  3 21  2  0  0  0  0
  4 39  1  6  0  0  0
  4 10  1  0  0  0  0
  5  6  2  0  0  0  0
  7 19  1  6  0  0  0
  7 13  1  0  0  0  0
  7  8  1  0  0  0  0
  8 11  2  0  0  0  0
  9 25  1  0  0  0  0
 10 18  1  0  0  0  0
 11  6  1  0  0  0  0
 13 25  1  6  0  0  0
 13  5  1  0  0  0  0
 14 29  1  6  0  0  0
 14 16  1  0  0  0  0
 16 24  1  0  0  0  0
 17 35  1  6  0  0  0
 17 19  1  0  0  0  0
 18  2  1  0  0  0  0
 20 21  1  0  0  0  0
 21  9  1  0  0  0  0
 22 12  1  0  0  0  0
 23  4  1  0  0  0  0
 24 12  1  6  0  0  0
 24  1  1  0  0  0  0
 26 15  1  1  0  0  0
 26 17  1  0  0  0  0
 27 23  1  0  0  0  0
 28 14  1  0  0  0  0
 28 27  1  0  0  0  0
 29 22  1  0  0  0  0
 30 35  1  0  0  0  0
 31 33  1  0  0  0  0
 33 32  1  0  0  0  0
 34 31  1  0  0  0  0
 34 30  2  0  0  0  0
 35 32  2  0  0  0  0
 36 31  1  0  0  0  0
 37 38  1  0  0  0  0
 37 36  1  0  0  0  0
 38 36  1  0  0  0  0
 40 41  1  6  0  0  0
 40 39  1  0  0  0  0
 42 49  1  0  0  0  0
 44 51  1  6  0  0  0
 44 40  1  0  0  0  0
 44 46  1  0  0  0  0
 46 45  1  1  0  0  0
 47 42  1  0  0  0  0
 48 54  1  1  0  0  0
 48 52  1  0  0  0  0
 49 52  1  0  0  0  0
 50 43  1  1  0  0  0
 50 48  1  0  0  0  0
 50 53  1  0  0  0  0
 53 42  1  1  0  0  0
 53 44  1  0  0  0  0
 53 46  1  0  0  0  0
 54 55  1  0  0  0  0
M  END
>  <MODEL>
7

>  <REMARK>
 VINA RESULT:      -6.9      2.078      5.704
  Name = 
  6 active torsions:
  status: ('A' for Active; 'I' for Inactive)
    1  A    between atoms: C_6  and  C_20
    2  A    between atoms: C_7  and  C_8
    3  A    between atoms: C_7  and  C_20
    4  A    between atoms: C_10  and  N_32
    5  A    between atoms: O_11  and  C_29
    6  A    between atoms: C_33  and  C_52
                            x       y       z     vdW  Elec       q    Type
                         _______ _______ _______ _____ _____    ______ ____

>  <TORSDO>
F 6

$$$$
=
 OpenBabel11052414583D

 55 62  0  0  1  0  0  0  0  0999 V2000
  187.5980  176.8870  142.9340 C   0  0  2  0  0  3  0  0  0  0  0  0
  184.3360  179.5550  137.6460 O   0  0  0  0  0  0  0  0  0  0  0  0
  185.6690  177.2840  138.1500 O   0  0  0  0  0  0  0  0  0  0  0  0
  182.3310  179.3600  139.7930 C   0  0  1  0  0  3  0  0  0  0  0  0
  190.2460  176.8230  137.0700 C   0  0  0  0  0  3  0  0  0  0  0  0
  191.4460  176.3190  136.7870 C   0  0  0  0  0  3  0  0  0  0  0  0
  190.6990  176.5740  139.5420 C   0  0  2  0  0  3  0  0  0  0  0  0
  192.1230  176.3240  139.1280 C   0  0  0  0  0  3  0  0  0  0  0  0
  187.7440  178.3010  138.0860 O   0  0  0  0  0  0  0  0  0  0  0  0
  182.7600  180.5500  139.0640 N   0  0  0  0  0  2  0  0  0  0  0  0
  192.4570  176.1730  137.8450 C   0  0  0  0  0  3  0  0  0  0  0  0
  187.0180  178.3060  144.8980 C   0  0  0  0  0  2  0  0  0  0  0  0
  189.9140  177.3270  138.4510 C   0  0  2  0  0  3  0  0  0  0  0  0
  184.4630  178.5030  143.6800 C   0  0  1  0  0  3  0  0  0  0  0  0
  187.4750  176.7840  141.5360 O   0  0  0  0  0  0  0  0  0  0  0  0
  185.3060  177.4060  143.4160 O   0  0  0  0  0  0  0  0  0  0  0  0
  189.8450  176.7660  141.8940 C   0  0  2  0  0  3  0  0  0  0  0  0
  184.1760  180.4170  138.7330 C   0  0  0  0  0  2  0  0  0  0  0  0
  190.7290  177.3900  140.8230 C   0  0  0  0  0  2  0  0  0  0  0  0
  185.7100  179.5520  137.3800 C   0  0  0  0  0  2  0  0  0  0  0  0
  186.3590  178.3170  137.9170 C   0  0  0  0  0  0  0  0  0  0  0  0
  185.8070  178.3500  145.8330 C   0  0  0  0  0  2  0  0  0  0  0  0
  182.8600  179.4120  141.2190 C   0  0  0  0  0  2  0  0  0  0  0  0
  186.6200  177.9120  143.4660 C   0  0  2  0  0  3  0  0  0  0  0  0
  188.4170  177.1980  138.6720 C   0  0  0  0  0  2  0  0  0  0  0  0
  188.5490  177.5600  142.0180 C   0  0  2  0  0  3  0  0  0  0  0  0
  182.7900  178.0390  141.8660 C   0  0  0  0  0  2  0  0  0  0  0  0
  183.0210  178.1450  143.3650 C   0  0  0  0  0  2  0  0  0  0  0  0
  184.5770  178.9550  145.1450 C   0  0  0  0  0  2  0  0  0  0  0  0
  190.6080  177.9100  144.0500 C   0  0  0  0  0  3  0  0  0  0  0  0
  191.7890  176.6750  145.7410 N   0  0  0  0  0  0  0  0  0  0  0  0
  191.2260  175.5960  143.5870 C   0  0  0  0  0  3  0  0  0  0  0  0
  192.0560  175.5440  144.8400 C   0  0  0  0  0  2  0  0  0  0  0  0
  191.1860  177.8810  145.2510 C   0  0  0  0  0  3  0  0  0  0  0  0
  190.5760  176.7020  143.2060 C   0  0  0  0  0  0  0  0  0  0  0  0
  192.4290  176.7000  147.0530 C   0  0  0  0  0  3  0  0  0  0  0  0
  191.8120  175.6480  147.9640 C   0  0  0  0  0  2  0  0  0  0  0  0
  191.4190  177.0980  148.1160 C   0  0  0  0  0  2  0  0  0  0  0  0
  180.8110  179.3420  139.8570 C   0  0  0  0  0  2  0  0  0  0  0  0
  180.1770  178.5570  138.7140 C   0  0  2  0  0  3  0  0  0  0  0  0
  178.9560  179.1560  138.4050 O   0  0  0  0  0  1  0  0  0  0  0  0
  180.1500  176.3690  136.6400 N   0  0  0  0  0  0  0  0  0  0  0  0
  178.9310  174.3170  139.5950 O   0  0  0  0  0  1  0  0  0  0  0  0
  179.9420  177.0880  139.1100 C   0  0  1  0  0  0  0  0  0  0  0  0
  182.3380  176.6840  138.2790 C   0  0  0  0  0  1  0  0  0  0  0  0
  181.1100  176.1040  138.9770 C   0  0  2  0  0  3  0  0  0  0  0  0
  178.9350  176.9580  136.0980 C   0  0  0  0  0  1  0  0  0  0  0  0
  179.8020  173.4820  137.4770 C   0  0  1  0  0  3  0  0  0  0  0  0
  180.4370  175.2150  135.7700 C   0  0  0  0  0  2  0  0  0  0  0  0
  179.1300  174.6420  138.2480 C   0  0  2  0  0  3  0  0  0  0  0  0
  179.1640  176.8630  140.2500 O   0  0  0  0  0  1  0  0  0  0  0  0
  180.8960  173.9660  136.5250 C   0  0  0  0  0  2  0  0  0  0  0  0
  179.8850  175.9790  138.0450 C   0  0  2  0  0  0  0  0  0  0  0  0
  180.3470  172.5310  138.3450 O   0  0  0  0  0  0  0  0  0  0  0  0
  181.1650  171.8250  137.5940 O   0  0  0  0  0  1  0  0  0  0  0  0
  1 15  1  6  0  0  0
  1 24  1  0  0  0  0
  2 18  1  0  0  0  0
  4 39  1  1  0  0  0
  4 23  1  0  0  0  0
  6  5  2  0  0  0  0
  6 11  1  0  0  0  0
  7  8  1  6  0  0  0
  7 19  1  0  0  0  0
  9 25  1  0  0  0  0
 10  4  1  0  0  0  0
 11  8  2  0  0  0  0
 12 22  1  0  0  0  0
 13  5  1  6  0  0  0
 13 25  1  0  0  0  0
 13  7  1  0  0  0  0
 14 28  1  1  0  0  0
 14 29  1  0  0  0  0
 16 24  1  0  0  0  0
 16 14  1  0  0  0  0
 17 26  1  0  0  0  0
 17 35  1  1  0  0  0
 18 10  1  0  0  0  0
 19 17  1  0  0  0  0
 20  2  1  0  0  0  0
 20 21  1  0  0  0  0
 21  9  1  0  0  0  0
 21  3  2  0  0  0  0
 23 27  1  0  0  0  0
 24 12  1  1  0  0  0
 26 15  1  6  0  0  0
 26  1  1  0  0  0  0
 27 28  1  0  0  0  0
 29 22  1  0  0  0  0
 30 34  2  0  0  0  0
 31 36  1  0  0  0  0
 32 33  1  0  0  0  0
 33 31  1  0  0  0  0
 34 31  1  0  0  0  0
 35 32  2  0  0  0  0
 35 30  1  0  0  0  0
 36 37  1  0  0  0  0
 36 38  1  0  0  0  0
 37 38  1  0  0  0  0
 40 41  1  1  0  0  0
 40 44  1  0  0  0  0
 40 39  1  0  0  0  0
 44 51  1  1  0  0  0
 46 45  1  6  0  0  0
 46 44  1  0  0  0  0
 47 42  1  0  0  0  0
 48 50  1  0  0  0  0
 48 54  1  1  0  0  0
 49 52  1  0  0  0  0
 49 42  1  0  0  0  0
 50 43  1  1  0  0  0
 52 48  1  0  0  0  0
 53 42  1  6  0  0  0
 53 50  1  0  0  0  0
 53 46  1  0  0  0  0
 53 44  1  0  0  0  0
 55 54  1  0  0  0  0
M  END
>  <MODEL>
8

>  <REMARK>
 VINA RESULT:      -6.6      4.154     10.312
  Name = 
  6 active torsions:
  status: ('A' for Active; 'I' for Inactive)
    1  A    between atoms: C_6  and  C_20
    2  A    between atoms: C_7  and  C_8
    3  A    between atoms: C_7  and  C_20
    4  A    between atoms: C_10  and  N_32
    5  A    between atoms: O_11  and  C_29
    6  A    between atoms: C_33  and  C_52
                            x       y       z     vdW  Elec       q    Type
                         _______ _______ _______ _____ _____    ______ ____

>  <TORSDO>
F 6

$$$$
