=
 OpenBabel11052414113D

 34 39  0  0  1  0  0  0  0  0999 V2000
  183.7290  176.1100  137.9790 C   0  0  2  0  0  3  0  0  0  0  0  0
  185.5540  177.8770  138.0570 C   0  0  0  0  0  0  0  0  0  0  0  0
  183.2050  178.4990  138.6510 C   0  0  1  0  0  3  0  0  0  0  0  0
  181.4730  179.2610  141.8870 C   0  0  0  0  0  2  0  0  0  0  0  0
  185.7010  176.0980  136.3740 C   0  0  0  0  0  2  0  0  0  0  0  0
  186.4930  176.9830  137.3190 C   0  0  0  0  0  2  0  0  0  0  0  0
  184.1830  178.2900  141.0910 C   0  0  0  0  0  2  0  0  0  0  0  0
  184.1950  177.4670  138.3050 N   0  0  0  0  0  0  0  0  0  0  0  0
  182.4750  178.7810  142.9470 C   0  0  0  0  0  2  0  0  0  0  0  0
  184.7310  175.2570  137.1890 C   0  0  0  0  0  2  0  0  0  0  0  0
  181.7380  178.1660  138.2350 C   0  0  2  0  0  3  0  0  0  0  0  0
  182.4040  176.2110  137.2570 C   0  0  0  0  0  2  0  0  0  0  0  0
  185.9680  178.9970  138.4600 O   0  0  0  0  0  0  0  0  0  0  0  0
  181.7900  178.5300  140.5930 C   0  0  1  0  0  3  0  0  0  0  0  0
  180.8810  178.7020  139.3850 C   0  0  1  0  0  3  0  0  0  0  0  0
  183.9410  178.9190  142.4760 C   0  0  1  0  0  3  0  0  0  0  0  0
  183.1710  178.8880  140.1260 C   0  0  2  0  0  3  0  0  0  0  0  0
  181.4830  176.7790  138.1450 O   0  0  0  0  0  0  0  0  0  0  0  0
  180.5790  182.2580  138.0090 C   0  0  0  0  0  0  0  0  0  0  0  0
  179.5320  182.7520  138.7910 C   0  0  0  0  0  3  0  0  0  0  0  0
  180.4230  180.1180  139.1510 C   0  0  0  0  0  0  0  0  0  0  0  0
  178.9310  181.9350  139.7520 C   0  0  0  0  0  3  0  0  0  0  0  0
  181.0250  180.9450  138.1880 C   0  0  0  0  0  3  0  0  0  0  0  0
  179.3770  180.6220  139.9320 C   0  0  0  0  0  3  0  0  0  0  0  0
  181.1620  183.0500  137.0790 F   0  0  0  0  0  0  0  0  0  0  0  0
  186.0720  177.8460  143.1470 C   0  0  0  0  0  3  0  0  0  0  0  0
  184.8880  178.3590  143.4920 C   0  0  0  0  0  3  0  0  0  0  0  0
  188.7730  176.8400  142.6110 O   0  0  0  0  0  1  0  0  0  0  0  0
  187.0010  177.2900  144.1790 C   0  0  1  0  0  3  0  0  0  0  0  0
  188.4690  177.5240  143.7880 C   0  0  1  0  0  3  0  0  0  0  0  0
  189.0800  177.7320  146.2130 C   0  0  0  0  0  2  0  0  0  0  0  0
  187.6320  177.4550  146.6030 C   0  0  0  0  0  2  0  0  0  0  0  0
  186.6950  177.9660  145.5140 C   0  0  0  0  0  2  0  0  0  0  0  0
  189.4040  177.0380  144.8950 C   0  0  0  0  0  2  0  0  0  0  0  0
  1 10  1  6  0  0  0
  1  8  1  0  0  0  0
  2  8  1  0  0  0  0
  2 13  2  0  0  0  0
  3  8  1  1  0  0  0
  3 17  1  0  0  0  0
  4  9  1  0  0  0  0
  5 10  1  0  0  0  0
  5  6  1  0  0  0  0
  6  2  1  0  0  0  0
  7 16  1  0  0  0  0
 11 18  1  1  0  0  0
 11  3  1  0  0  0  0
 11 15  1  0  0  0  0
 12  1  1  0  0  0  0
 12 18  1  0  0  0  0
 14  4  1  1  0  0  0
 15 21  1  6  0  0  0
 15 14  1  0  0  0  0
 16  9  1  0  0  0  0
 16 27  1  1  0  0  0
 17 14  1  0  0  0  0
 17  7  1  1  0  0  0
 19 23  2  0  0  0  0
 19 20  1  0  0  0  0
 20 22  2  0  0  0  0
 21 24  2  0  0  0  0
 22 24  1  0  0  0  0
 23 21  1  0  0  0  0
 25 19  1  0  0  0  0
 26 27  2  0  0  0  0
 29 26  1  6  0  0  0
 29 33  1  0  0  0  0
 30 28  1  6  0  0  0
 30 29  1  0  0  0  0
 30 34  1  0  0  0  0
 31 32  1  0  0  0  0
 33 32  1  0  0  0  0
 34 31  1  0  0  0  0
M  END
>  <MODEL>
1

>  <REMARK>
 VINA RESULT:      -9.2      0.000      0.000
  Name = 
  3 active torsions:
  status: ('A' for Active; 'I' for Inactive)
    1  A    between atoms: C_3  and  C_13
    2  A    between atoms: C_12  and  C_28
    3  A    between atoms: C_17  and  C_29
                            x       y       z     vdW  Elec       q    Type
                         _______ _______ _______ _____ _____    ______ ____

>  <TORSDO>
F 3

$$$$
=
 OpenBabel11052414113D

 34 39  0  0  1  0  0  0  0  0999 V2000
  185.4840  176.0290  137.1360 C   0  0  2  0  0  3  0  0  0  0  0  0
  186.8520  178.1580  136.9080 C   0  0  0  0  0  0  0  0  0  0  0  0
  184.6430  178.2280  138.0780 C   0  0  1  0  0  3  0  0  0  0  0  0
  183.6330  178.5290  141.6760 C   0  0  0  0  0  2  0  0  0  0  0  0
  186.9600  176.4860  135.1170 C   0  0  0  0  0  2  0  0  0  0  0  0
  187.7510  177.5090  135.9090 C   0  0  0  0  0  2  0  0  0  0  0  0
  186.2080  178.2030  140.2000 C   0  0  0  0  0  2  0  0  0  0  0  0
  185.7150  177.4500  137.4390 N   0  0  0  0  0  0  0  0  0  0  0  0
  184.9420  178.2690  142.4350 C   0  0  0  0  0  2  0  0  0  0  0  0
  186.4210  175.4350  136.0750 C   0  0  0  0  0  2  0  0  0  0  0  0
  183.2240  177.5810  137.9960 C   0  0  2  0  0  3  0  0  0  0  0  0
  184.0320  175.8410  136.7540 C   0  0  0  0  0  2  0  0  0  0  0  0
  187.1030  179.3360  137.2800 O   0  0  0  0  0  0  0  0  0  0  0  0
  183.7720  177.9090  140.2960 C   0  0  1  0  0  3  0  0  0  0  0  0
  182.5800  177.8920  139.3500 C   0  0  1  0  0  3  0  0  0  0  0  0
  186.1840  178.7400  141.6440 C   0  0  1  0  0  3  0  0  0  0  0  0
  184.8880  178.5750  139.5440 C   0  0  2  0  0  3  0  0  0  0  0  0
  183.2570  176.1740  137.8710 O   0  0  0  0  0  0  0  0  0  0  0  0
  181.2740  181.3590  138.4000 C   0  0  0  0  0  0  0  0  0  0  0  0
  180.2880  181.5420  139.3720 C   0  0  0  0  0  3  0  0  0  0  0  0
  181.7880  179.1740  139.3300 C   0  0  0  0  0  0  0  0  0  0  0  0
  180.0500  180.5460  140.3240 C   0  0  0  0  0  3  0  0  0  0  0  0
  182.0230  180.1790  138.3780 C   0  0  0  0  0  3  0  0  0  0  0  0
  180.8000  179.3660  140.3030 C   0  0  0  0  0  3  0  0  0  0  0  0
  181.5050  182.3250  137.4790 F   0  0  0  0  0  0  0  0  0  0  0  0
  187.6540  177.1740  142.8810 C   0  0  0  0  0  3  0  0  0  0  0  0
  187.4470  178.3900  142.3680 C   0  0  0  0  0  3  0  0  0  0  0  0
  190.0850  176.1290  141.6200 O   0  0  0  0  0  1  0  0  0  0  0  0
  188.9220  176.8470  143.6030 C   0  0  1  0  0  3  0  0  0  0  0  0
  190.1440  177.0260  142.6870 C   0  0  1  0  0  3  0  0  0  0  0  0
  191.5250  177.7160  144.6650 C   0  0  0  0  0  2  0  0  0  0  0  0
  190.3250  177.4970  145.5810 C   0  0  0  0  0  2  0  0  0  0  0  0
  189.0330  177.7680  144.8180 C   0  0  0  0  0  2  0  0  0  0  0  0
  191.4370  176.7820  143.4630 C   0  0  0  0  0  2  0  0  0  0  0  0
  1 10  1  6  0  0  0
  1  8  1  0  0  0  0
  2 13  2  0  0  0  0
  2  8  1  0  0  0  0
  3  8  1  1  0  0  0
  3 17  1  0  0  0  0
  4  9  1  0  0  0  0
  5  6  1  0  0  0  0
  5 10  1  0  0  0  0
  6  2  1  0  0  0  0
  7 16  1  0  0  0  0
 11 18  1  1  0  0  0
 11  3  1  0  0  0  0
 11 15  1  0  0  0  0
 12  1  1  0  0  0  0
 12 18  1  0  0  0  0
 14  4  1  1  0  0  0
 15 21  1  6  0  0  0
 15 14  1  0  0  0  0
 16 27  1  1  0  0  0
 16  9  1  0  0  0  0
 17  7  1  1  0  0  0
 17 14  1  0  0  0  0
 19 20  1  0  0  0  0
 20 22  2  0  0  0  0
 21 24  2  0  0  0  0
 23 19  2  0  0  0  0
 23 21  1  0  0  0  0
 24 22  1  0  0  0  0
 25 19  1  0  0  0  0
 27 26  2  0  0  0  0
 29 26  1  6  0  0  0
 29 33  1  0  0  0  0
 30 28  1  6  0  0  0
 30 34  1  0  0  0  0
 30 29  1  0  0  0  0
 31 32  1  0  0  0  0
 33 32  1  0  0  0  0
 34 31  1  0  0  0  0
M  END
>  <MODEL>
2

>  <REMARK>
 VINA RESULT:      -8.8      1.454      2.009
  Name = 
  3 active torsions:
  status: ('A' for Active; 'I' for Inactive)
    1  A    between atoms: C_3  and  C_13
    2  A    between atoms: C_12  and  C_28
    3  A    between atoms: C_17  and  C_29
                            x       y       z     vdW  Elec       q    Type
                         _______ _______ _______ _____ _____    ______ ____

>  <TORSDO>
F 3

$$$$
=
 OpenBabel11052414113D

 34 39  0  0  1  0  0  0  0  0999 V2000
  186.9560  175.6900  137.1910 C   0  0  2  0  0  3  0  0  0  0  0  0
  187.7400  178.1040  137.0550 C   0  0  0  0  0  0  0  0  0  0  0  0
  185.2900  177.5980  137.0710 C   0  0  1  0  0  3  0  0  0  0  0  0
  182.5910  177.9730  139.6460 C   0  0  0  0  0  2  0  0  0  0  0  0
  189.0930  176.3580  135.9870 C   0  0  0  0  0  2  0  0  0  0  0  0
  189.1340  177.6650  136.7560 C   0  0  0  0  0  2  0  0  0  0  0  0
  185.5570  178.3200  139.5930 C   0  0  0  0  0  2  0  0  0  0  0  0
  186.6810  177.1350  137.1910 N   0  0  0  0  0  0  0  0  0  0  0  0
  183.3720  178.2340  140.9430 C   0  0  0  0  0  2  0  0  0  0  0  0
  188.4020  175.3090  136.8420 C   0  0  0  0  0  2  0  0  0  0  0  0
  184.2860  176.5260  136.5400 C   0  0  2  0  0  3  0  0  0  0  0  0
  185.9700  175.0060  136.2710 C   0  0  0  0  0  2  0  0  0  0  0  0
  187.5010  179.3340  137.1850 O   0  0  0  0  0  0  0  0  0  0  0  0
  183.5320  177.2750  138.6770 C   0  0  1  0  0  3  0  0  0  0  0  0
  183.0040  176.7700  137.3430 C   0  0  1  0  0  3  0  0  0  0  0  0
  184.7010  178.9830  140.6880 C   0  0  1  0  0  3  0  0  0  0  0  0
  184.6910  178.1720  138.3520 C   0  0  2  0  0  3  0  0  0  0  0  0
  184.6910  175.1990  136.8070 O   0  0  0  0  0  0  0  0  0  0  0  0
  180.1720  179.2460  136.6570 C   0  0  0  0  0  0  0  0  0  0  0  0
  180.3320  179.4540  135.2860 C   0  0  0  0  0  3  0  0  0  0  0  0
  182.0620  177.7190  136.6500 C   0  0  0  0  0  0  0  0  0  0  0  0
  181.3540  178.7970  134.5940 C   0  0  0  0  0  3  0  0  0  0  0  0
  181.0320  178.3810  137.3390 C   0  0  0  0  0  3  0  0  0  0  0  0
  182.2150  177.9310  135.2750 C   0  0  0  0  0  3  0  0  0  0  0  0
  179.1810  179.8820  137.3270 F   0  0  0  0  0  0  0  0  0  0  0  0
  185.1560  178.4800  143.0720 C   0  0  0  0  0  3  0  0  0  0  0  0
  185.4800  179.1410  141.9570 C   0  0  0  0  0  3  0  0  0  0  0  0
  184.0300  179.2030  145.6810 O   0  0  0  0  0  1  0  0  0  0  0  0
  185.9470  178.6560  144.3290 C   0  0  1  0  0  3  0  0  0  0  0  0
  185.1020  178.3170  145.5680 C   0  0  1  0  0  3  0  0  0  0  0  0
  187.1580  177.4830  146.7410 C   0  0  0  0  0  2  0  0  0  0  0  0
  188.0030  177.8600  145.5290 C   0  0  0  0  0  2  0  0  0  0  0  0
  187.1700  177.7420  144.2580 C   0  0  0  0  0  2  0  0  0  0  0  0
  185.9490  178.4070  146.8370 C   0  0  0  0  0  2  0  0  0  0  0  0
  1 12  1  6  0  0  0
  1  8  1  0  0  0  0
  2 13  2  0  0  0  0
  2  8  1  0  0  0  0
  3  8  1  1  0  0  0
  3 17  1  0  0  0  0
  4  9  1  0  0  0  0
  5  6  1  0  0  0  0
  5 10  1  0  0  0  0
  6  2  1  0  0  0  0
  7 16  1  0  0  0  0
 10  1  1  0  0  0  0
 11 18  1  1  0  0  0
 11  3  1  0  0  0  0
 11 15  1  0  0  0  0
 12 18  1  0  0  0  0
 14  4  1  6  0  0  0
 15 21  1  6  0  0  0
 15 14  1  0  0  0  0
 16  9  1  0  0  0  0
 16 27  1  1  0  0  0
 17 14  1  0  0  0  0
 17  7  1  1  0  0  0
 19 25  1  0  0  0  0
 19 23  1  0  0  0  0
 20 19  2  0  0  0  0
 21 23  2  0  0  0  0
 22 24  2  0  0  0  0
 22 20  1  0  0  0  0
 24 21  1  0  0  0  0
 27 26  2  0  0  0  0
 29 26  1  6  0  0  0
 29 30  1  0  0  0  0
 30 28  1  1  0  0  0
 30 34  1  0  0  0  0
 31 34  1  0  0  0  0
 32 31  1  0  0  0  0
 33 29  1  0  0  0  0
 33 32  1  0  0  0  0
M  END
>  <MODEL>
3

>  <REMARK>
 VINA RESULT:      -8.3      2.374      3.405
  Name = 
  3 active torsions:
  status: ('A' for Active; 'I' for Inactive)
    1  A    between atoms: C_3  and  C_13
    2  A    between atoms: C_12  and  C_28
    3  A    between atoms: C_17  and  C_29
                            x       y       z     vdW  Elec       q    Type
                         _______ _______ _______ _____ _____    ______ ____

>  <TORSDO>
F 3

$$$$
=
 OpenBabel11052414113D

 34 39  0  0  1  0  0  0  0  0999 V2000
  188.0250  177.5730  135.7310 C   0  0  2  0  0  3  0  0  0  0  0  0
  186.9640  175.6960  137.0770 C   0  0  0  0  0  0  0  0  0  0  0  0
  189.4500  175.7720  136.8060 C   0  0  1  0  0  3  0  0  0  0  0  0
  192.2740  176.6570  139.1060 C   0  0  0  0  0  2  0  0  0  0  0  0
  185.7420  176.6140  135.1580 C   0  0  0  0  0  2  0  0  0  0  0  0
  185.6100  176.0520  136.5610 C   0  0  0  0  0  2  0  0  0  0  0  0
  189.2930  176.7550  139.2470 C   0  0  0  0  0  2  0  0  0  0  0  0
  188.1330  176.3970  136.6090 N   0  0  0  0  0  0  0  0  0  0  0  0
  191.5690  177.3360  140.2890 C   0  0  0  0  0  2  0  0  0  0  0  0
  186.6100  177.8610  135.2090 C   0  0  0  0  0  2  0  0  0  0  0  0
  190.5270  176.1600  135.7440 C   0  0  2  0  0  3  0  0  0  0  0  0
  189.0110  177.4260  134.5940 C   0  0  0  0  0  2  0  0  0  0  0  0
  187.0710  174.7730  137.9270 O   0  0  0  0  0  0  0  0  0  0  0  0
  191.3490  176.7530  137.9050 C   0  0  1  0  0  3  0  0  0  0  0  0
  191.8290  176.2770  136.5410 C   0  0  1  0  0  3  0  0  0  0  0  0
  190.1480  176.7740  140.5280 C   0  0  1  0  0  3  0  0  0  0  0  0
  190.0740  176.0080  138.1780 C   0  0  2  0  0  3  0  0  0  0  0  0
  190.2960  177.4210  135.1490 O   0  0  0  0  0  0  0  0  0  0  0  0
  192.8300  172.6130  136.0950 C   0  0  0  0  0  0  0  0  0  0  0  0
  194.0920  172.6120  136.6920 C   0  0  0  0  0  3  0  0  0  0  0  0
  192.6020  174.9840  136.5730 C   0  0  0  0  0  0  0  0  0  0  0  0
  194.6120  173.7930  137.2310 C   0  0  0  0  0  3  0  0  0  0  0  0
  192.0860  173.7940  136.0350 C   0  0  0  0  0  3  0  0  0  0  0  0
  193.8670  174.9750  137.1720 C   0  0  0  0  0  3  0  0  0  0  0  0
  192.3260  171.4690  135.5740 F   0  0  0  0  0  0  0  0  0  0  0  0
  188.9040  176.8880  142.6690 C   0  0  0  0  0  3  0  0  0  0  0  0
  189.4530  177.5180  141.6270 C   0  0  0  0  0  3  0  0  0  0  0  0
  186.2190  178.0450  142.4620 O   0  0  0  0  0  1  0  0  0  0  0  0
  188.2130  177.6510  143.7540 C   0  0  1  0  0  3  0  0  0  0  0  0
  186.6860  177.4950  143.6550 C   0  0  1  0  0  3  0  0  0  0  0  0
  186.5110  177.6550  146.1530 C   0  0  0  0  0  2  0  0  0  0  0  0
  188.0190  177.8540  146.2480 C   0  0  0  0  0  2  0  0  0  0  0  0
  188.7120  177.1290  145.1000 C   0  0  0  0  0  2  0  0  0  0  0  0
  185.9980  178.1980  144.8240 C   0  0  0  0  0  2  0  0  0  0  0  0
  1 12  1  6  0  0  0
  1  8  1  0  0  0  0
  2 13  2  0  0  0  0
  3  8  1  6  0  0  0
  3 17  1  0  0  0  0
  4  9  1  0  0  0  0
  5 10  1  0  0  0  0
  5  6  1  0  0  0  0
  6  2  1  0  0  0  0
  7 16  1  0  0  0  0
  8  2  1  0  0  0  0
  9 16  1  0  0  0  0
 10  1  1  0  0  0  0
 11 18  1  1  0  0  0
 11 15  1  0  0  0  0
 11  3  1  0  0  0  0
 12 18  1  0  0  0  0
 14 17  1  0  0  0  0
 14  4  1  1  0  0  0
 15 21  1  1  0  0  0
 15 14  1  0  0  0  0
 16 27  1  1  0  0  0
 17  7  1  1  0  0  0
 19 20  1  0  0  0  0
 20 22  2  0  0  0  0
 21 24  2  0  0  0  0
 23 19  2  0  0  0  0
 23 21  1  0  0  0  0
 24 22  1  0  0  0  0
 25 19  1  0  0  0  0
 27 26  2  0  0  0  0
 29 26  1  6  0  0  0
 29 33  1  0  0  0  0
 30 28  1  6  0  0  0
 30 29  1  0  0  0  0
 30 34  1  0  0  0  0
 31 32  1  0  0  0  0
 33 32  1  0  0  0  0
 34 31  1  0  0  0  0
M  END
>  <MODEL>
4

>  <REMARK>
 VINA RESULT:      -7.7      5.394      9.060
  Name = 
  3 active torsions:
  status: ('A' for Active; 'I' for Inactive)
    1  A    between atoms: C_3  and  C_13
    2  A    between atoms: C_12  and  C_28
    3  A    between atoms: C_17  and  C_29
                            x       y       z     vdW  Elec       q    Type
                         _______ _______ _______ _____ _____    ______ ____

>  <TORSDO>
F 3

$$$$
=
 OpenBabel11052414113D

 34 39  0  0  1  0  0  0  0  0999 V2000
  187.8470  177.7000  136.1710 C   0  0  2  0  0  3  0  0  0  0  0  0
  186.9030  175.5640  137.1720 C   0  0  0  0  0  0  0  0  0  0  0  0
  189.3580  176.0190  137.3200 C   0  0  1  0  0  3  0  0  0  0  0  0
  191.6290  177.0560  140.1160 C   0  0  0  0  0  2  0  0  0  0  0  0
  185.8550  176.4890  135.1560 C   0  0  0  0  0  2  0  0  0  0  0  0
  185.6030  175.7740  136.4700 C   0  0  0  0  0  2  0  0  0  0  0  0
  188.6830  176.7150  139.7720 C   0  0  0  0  0  2  0  0  0  0  0  0
  188.0050  176.4680  136.9590 N   0  0  0  0  0  0  0  0  0  0  0  0
  190.6560  177.5050  141.2170 C   0  0  0  0  0  2  0  0  0  0  0  0
  186.5000  177.8350  135.4470 C   0  0  0  0  0  2  0  0  0  0  0  0
  190.5090  176.6630  136.4840 C   0  0  2  0  0  3  0  0  0  0  0  0
  189.0040  177.8100  135.2020 C   0  0  0  0  0  2  0  0  0  0  0  0
  187.0230  174.5830  137.9540 O   0  0  0  0  0  0  0  0  0  0  0  0
  190.8930  177.1420  138.7900 C   0  0  1  0  0  3  0  0  0  0  0  0
  191.6410  176.8810  137.4910 C   0  0  1  0  0  3  0  0  0  0  0  0
  189.3220  176.7250  141.1740 C   0  0  1  0  0  3  0  0  0  0  0  0
  189.7240  176.2000  138.7910 C   0  0  2  0  0  3  0  0  0  0  0  0
  190.1760  177.9320  135.9590 O   0  0  0  0  0  0  0  0  0  0  0  0
  194.6490  174.6650  138.3080 C   0  0  0  0  0  0  0  0  0  0  0  0
  194.3280  173.5130  137.5880 C   0  0  0  0  0  3  0  0  0  0  0  0
  192.5940  175.7150  137.5490 C   0  0  0  0  0  0  0  0  0  0  0  0
  193.1440  173.4580  136.8470 C   0  0  0  0  0  3  0  0  0  0  0  0
  193.7860  175.7640  138.2900 C   0  0  0  0  0  3  0  0  0  0  0  0
  192.2800  174.5580  136.8270 C   0  0  0  0  0  3  0  0  0  0  0  0
  195.7970  174.7180  139.0250 F   0  0  0  0  0  0  0  0  0  0  0  0
  187.9440  176.4960  143.2220 C   0  0  0  0  0  3  0  0  0  0  0  0
  188.3610  177.2460  142.1980 C   0  0  0  0  0  3  0  0  0  0  0  0
  188.5990  177.0960  146.0160 O   0  0  0  0  0  1  0  0  0  0  0  0
  186.9820  177.0370  144.2320 C   0  0  1  0  0  3  0  0  0  0  0  0
  187.7070  177.8850  145.2900 C   0  0  1  0  0  3  0  0  0  0  0  0
  185.6800  179.3490  145.5000 C   0  0  0  0  0  2  0  0  0  0  0  0
  184.9460  178.4820  144.4840 C   0  0  0  0  0  2  0  0  0  0  0  0
  185.9420  177.8820  143.4980 C   0  0  0  0  0  2  0  0  0  0  0  0
  186.7020  178.5090  146.2570 C   0  0  0  0  0  2  0  0  0  0  0  0
  1 12  1  6  0  0  0
  1  8  1  0  0  0  0
  2 13  2  0  0  0  0
  3  8  1  1  0  0  0
  3 17  1  0  0  0  0
  4  9  1  0  0  0  0
  5 10  1  0  0  0  0
  5  6  1  0  0  0  0
  6  2  1  0  0  0  0
  7 16  1  0  0  0  0
  8  2  1  0  0  0  0
 10  1  1  0  0  0  0
 11 18  1  1  0  0  0
 11  3  1  0  0  0  0
 11 15  1  0  0  0  0
 12 18  1  0  0  0  0
 14 17  1  0  0  0  0
 14  4  1  1  0  0  0
 15 21  1  1  0  0  0
 15 14  1  0  0  0  0
 16  9  1  0  0  0  0
 16 27  1  1  0  0  0
 17  7  1  1  0  0  0
 19 25  1  0  0  0  0
 20 19  2  0  0  0  0
 21 23  2  0  0  0  0
 22 20  1  0  0  0  0
 23 19  1  0  0  0  0
 24 22  2  0  0  0  0
 24 21  1  0  0  0  0
 27 26  2  0  0  0  0
 29 26  1  6  0  0  0
 29 30  1  0  0  0  0
 30 28  1  1  0  0  0
 30 34  1  0  0  0  0
 31 34  1  0  0  0  0
 32 31  1  0  0  0  0
 33 29  1  0  0  0  0
 33 32  1  0  0  0  0
M  END
>  <MODEL>
5

>  <REMARK>
 VINA RESULT:      -6.8      5.280      8.802
  Name = 
  3 active torsions:
  status: ('A' for Active; 'I' for Inactive)
    1  A    between atoms: C_3  and  C_13
    2  A    between atoms: C_12  and  C_28
    3  A    between atoms: C_17  and  C_29
                            x       y       z     vdW  Elec       q    Type
                         _______ _______ _______ _____ _____    ______ ____

>  <TORSDO>
F 3

$$$$
=
 OpenBabel11052414113D

 34 39  0  0  1  0  0  0  0  0999 V2000
  181.1150  180.3540  140.0330 C   0  0  2  0  0  3  0  0  0  0  0  0
  180.8450  178.3130  141.5220 C   0  0  0  0  0  0  0  0  0  0  0  0
  182.3530  178.1990  139.5300 C   0  0  1  0  0  3  0  0  0  0  0  0
  186.0780  178.1620  139.1090 C   0  0  0  0  0  2  0  0  0  0  0  0
  178.9310  179.8160  141.2160 C   0  0  0  0  0  2  0  0  0  0  0  0
  179.6670  178.9280  142.2010 C   0  0  0  0  0  2  0  0  0  0  0  0
  184.1900  178.5280  141.3930 C   0  0  0  0  0  2  0  0  0  0  0  0
  181.4910  178.9860  140.4240 N   0  0  0  0  0  0  0  0  0  0  0  0
  186.5960  178.5820  140.4930 C   0  0  0  0  0  2  0  0  0  0  0  0
  179.8740  180.9110  140.7440 C   0  0  0  0  0  2  0  0  0  0  0  0
  182.4460  178.7350  138.0670 C   0  0  2  0  0  3  0  0  0  0  0  0
  180.9550  180.4040  138.5290 C   0  0  0  0  0  2  0  0  0  0  0  0
  181.2660  177.1950  141.9230 O   0  0  0  0  0  0  0  0  0  0  0  0
  184.6480  178.6600  138.9840 C   0  0  1  0  0  3  0  0  0  0  0  0
  183.9060  178.5060  137.6650 C   0  0  1  0  0  3  0  0  0  0  0  0
  185.6580  178.1270  141.6340 C   0  0  1  0  0  3  0  0  0  0  0  0
  183.7840  178.0060  140.0240 C   0  0  2  0  0  3  0  0  0  0  0  0
  182.2050  180.1230  137.9630 O   0  0  0  0  0  0  0  0  0  0  0  0
  183.6310  174.8110  136.7200 C   0  0  0  0  0  0  0  0  0  0  0  0
  184.5790  174.7310  135.6970 C   0  0  0  0  0  3  0  0  0  0  0  0
  184.1160  177.1770  136.9880 C   0  0  0  0  0  0  0  0  0  0  0  0
  185.2960  175.8700  135.3180 C   0  0  0  0  0  3  0  0  0  0  0  0
  183.3990  176.0280  137.3650 C   0  0  0  0  0  3  0  0  0  0  0  0
  185.0650  177.0890  135.9640 C   0  0  0  0  0  3  0  0  0  0  0  0
  182.9370  173.7070  137.0870 F   0  0  0  0  0  0  0  0  0  0  0  0
  186.3980  177.8030  143.9770 C   0  0  0  0  0  3  0  0  0  0  0  0
  186.1410  178.6290  142.9600 C   0  0  0  0  0  3  0  0  0  0  0  0
  184.6830  178.9740  146.0460 O   0  0  0  0  0  1  0  0  0  0  0  0
  186.8770  178.3270  145.2940 C   0  0  1  0  0  3  0  0  0  0  0  0
  185.7910  178.1920  146.3730 C   0  0  1  0  0  3  0  0  0  0  0  0
  187.5650  177.8380  148.1120 C   0  0  0  0  0  2  0  0  0  0  0  0
  188.6440  178.0160  147.0490 C   0  0  0  0  0  2  0  0  0  0  0  0
  188.1240  177.5410  145.6970 C   0  0  0  0  0  2  0  0  0  0  0  0
  186.3260  178.6410  147.7320 C   0  0  0  0  0  2  0  0  0  0  0  0
  1 12  1  6  0  0  0
  1  8  1  0  0  0  0
  1 10  1  0  0  0  0
  2 13  2  0  0  0  0
  2  6  1  0  0  0  0
  3 17  1  0  0  0  0
  3  8  1  1  0  0  0
  4  9  1  0  0  0  0
  5  6  1  0  0  0  0
  7 16  1  0  0  0  0
  8  2  1  0  0  0  0
  9 16  1  0  0  0  0
 10  5  1  0  0  0  0
 11 18  1  1  0  0  0
 11  3  1  0  0  0  0
 14  4  1  6  0  0  0
 14 17  1  0  0  0  0
 15 21  1  1  0  0  0
 15 11  1  0  0  0  0
 15 14  1  0  0  0  0
 16 27  1  1  0  0  0
 17  7  1  1  0  0  0
 18 12  1  0  0  0  0
 19 25  1  0  0  0  0
 19 23  1  0  0  0  0
 20 19  2  0  0  0  0
 21 23  2  0  0  0  0
 22 20  1  0  0  0  0
 22 24  2  0  0  0  0
 24 21  1  0  0  0  0
 27 26  2  0  0  0  0
 29 26  1  6  0  0  0
 29 33  1  0  0  0  0
 29 30  1  0  0  0  0
 30 28  1  6  0  0  0
 30 34  1  0  0  0  0
 32 31  1  0  0  0  0
 33 32  1  0  0  0  0
 34 31  1  0  0  0  0
M  END
>  <MODEL>
6

>  <REMARK>
 VINA RESULT:      -6.4      2.531      5.453
  Name = 
  3 active torsions:
  status: ('A' for Active; 'I' for Inactive)
    1  A    between atoms: C_3  and  C_13
    2  A    between atoms: C_12  and  C_28
    3  A    between atoms: C_17  and  C_29
                            x       y       z     vdW  Elec       q    Type
                         _______ _______ _______ _____ _____    ______ ____

>  <TORSDO>
F 3

$$$$
=
 OpenBabel11052414113D

 34 39  0  0  1  0  0  0  0  0999 V2000
  188.2500  178.0130  136.2170 C   0  0  2  0  0  3  0  0  0  0  0  0
  186.9440  175.8340  136.2900 C   0  0  0  0  0  0  0  0  0  0  0  0
  187.4120  177.0670  138.4160 C   0  0  1  0  0  3  0  0  0  0  0  0
  185.2980  179.1270  140.7270 C   0  0  0  0  0  2  0  0  0  0  0  0
  188.6950  176.1080  134.5940 C   0  0  0  0  0  2  0  0  0  0  0  0
  187.3240  175.5250  134.8810 C   0  0  0  0  0  2  0  0  0  0  0  0
  184.9080  177.8190  138.0710 C   0  0  0  0  0  2  0  0  0  0  0  0
  187.4610  177.0080  136.9470 N   0  0  0  0  0  0  0  0  0  0  0  0
  184.0210  179.3780  139.9110 C   0  0  0  0  0  2  0  0  0  0  0  0
  188.6360  177.6150  134.7860 C   0  0  0  0  0  2  0  0  0  0  0  0
  188.5310  177.9320  139.0760 C   0  0  2  0  0  3  0  0  0  0  0  0
  189.4720  178.3630  137.0380 C   0  0  0  0  0  2  0  0  0  0  0  0
  186.1650  175.0530  136.8980 O   0  0  0  0  0  0  0  0  0  0  0  0
  186.4120  178.8010  139.7460 C   0  0  1  0  0  3  0  0  0  0  0  0
  187.8370  178.6290  140.2500 C   0  0  1  0  0  3  0  0  0  0  0  0
  183.7030  178.2130  138.9450 C   0  0  1  0  0  3  0  0  0  0  0  0
  186.0830  177.5430  138.9960 C   0  0  2  0  0  3  0  0  0  0  0  0
  189.0250  178.9490  138.2290 O   0  0  0  0  0  0  0  0  0  0  0  0
  187.1370  177.2150  143.7340 C   0  0  0  0  0  0  0  0  0  0  0  0
  188.2420  176.3780  143.9020 C   0  0  0  0  0  3  0  0  0  0  0  0
  187.9500  177.8470  141.5330 C   0  0  0  0  0  0  0  0  0  0  0  0
  189.2020  176.2730  142.8910 C   0  0  0  0  0  3  0  0  0  0  0  0
  186.9900  177.9490  142.5530 C   0  0  0  0  0  3  0  0  0  0  0  0
  189.0550  177.0080  141.7100 C   0  0  0  0  0  3  0  0  0  0  0  0
  186.2080  177.3170  144.7140 F   0  0  0  0  0  0  0  0  0  0  0  0
  181.9700  179.7490  138.0620 C   0  0  0  0  0  3  0  0  0  0  0  0
  182.5060  178.5260  138.1000 C   0  0  0  0  0  3  0  0  0  0  0  0
  180.4140  182.2330  138.1410 O   0  0  0  0  0  1  0  0  0  0  0  0
  180.7730  180.0390  137.2130 C   0  0  1  0  0  3  0  0  0  0  0  0
  180.6340  181.5470  136.9470 C   0  0  1  0  0  3  0  0  0  0  0  0
  179.6440  181.0550  134.6940 C   0  0  0  0  0  2  0  0  0  0  0  0
  179.7410  179.5600  134.9760 C   0  0  0  0  0  2  0  0  0  0  0  0
  180.9240  179.2810  135.8960 C   0  0  0  0  0  2  0  0  0  0  0  0
  179.4650  181.8190  136.0010 C   0  0  0  0  0  2  0  0  0  0  0  0
  1 10  1  6  0  0  0
  1  8  1  0  0  0  0
  1 12  1  0  0  0  0
  2 13  2  0  0  0  0
  2  8  1  0  0  0  0
  3  8  1  6  0  0  0
  3 17  1  0  0  0  0
  3 11  1  0  0  0  0
  5 10  1  0  0  0  0
  5  6  1  0  0  0  0
  6  2  1  0  0  0  0
  7 16  1  0  0  0  0
  9  4  1  0  0  0  0
 11 18  1  6  0  0  0
 11 15  1  0  0  0  0
 12 18  1  0  0  0  0
 14 15  1  0  0  0  0
 14  4  1  1  0  0  0
 15 21  1  1  0  0  0
 16 27  1  6  0  0  0
 16  9  1  0  0  0  0
 17  7  1  6  0  0  0
 17 14  1  0  0  0  0
 19 20  1  0  0  0  0
 19 25  1  0  0  0  0
 21 24  2  0  0  0  0
 21 23  1  0  0  0  0
 22 20  2  0  0  0  0
 23 19  2  0  0  0  0
 24 22  1  0  0  0  0
 26 27  2  0  0  0  0
 29 26  1  1  0  0  0
 30 29  1  0  0  0  0
 30 28  1  1  0  0  0
 31 32  1  0  0  0  0
 31 34  1  0  0  0  0
 32 33  1  0  0  0  0
 33 29  1  0  0  0  0
 34 30  1  0  0  0  0
M  END
>  <MODEL>
7

>  <REMARK>
 VINA RESULT:      -6.3      3.103      8.336
  Name = 
  3 active torsions:
  status: ('A' for Active; 'I' for Inactive)
    1  A    between atoms: C_3  and  C_13
    2  A    between atoms: C_12  and  C_28
    3  A    between atoms: C_17  and  C_29
                            x       y       z     vdW  Elec       q    Type
                         _______ _______ _______ _____ _____    ______ ____

>  <TORSDO>
F 3

$$$$
