=
 OpenBabel11052413153D

 31 34  0  0  1  0  0  0  0  0999 V2000
  187.9220  177.6100  147.3380 C   0  0  0  0  0  0  0  0  0  0  0  0
  186.6380  177.7590  143.8050 C   0  0  0  0  0  0  0  0  0  0  0  0
  187.6180  176.9640  142.9510 C   0  0  2  0  0  3  0  0  0  0  0  0
  190.0150  176.8110  143.4400 C   0  0  0  0  0  2  0  0  0  0  0  0
  186.7410  177.9080  145.2210 C   0  0  0  0  0  0  0  0  0  0  0  0
  186.8790  178.2320  148.0240 C   0  0  0  0  0  3  0  0  0  0  0  0
  188.6730  176.1080  143.6380 C   0  0  0  0  0  2  0  0  0  0  0  0
  184.4880  178.9450  143.8740 C   0  0  0  0  0  0  0  0  0  0  0  0
  189.0300  177.1470  148.0320 O   0  0  0  0  0  1  0  0  0  0  0  0
  186.3920  178.4690  140.7440 C   0  0  0  0  0  3  0  0  0  0  0  0
  189.8510  177.7930  142.2910 C   0  0  2  0  0  3  0  0  0  0  0  0
  184.5870  179.0380  145.2620 C   0  0  0  0  0  3  0  0  0  0  0  0
  185.5300  178.3500  143.1340 C   0  0  0  0  0  0  0  0  0  0  0  0
  187.8500  177.4530  145.9520 C   0  0  0  0  0  3  0  0  0  0  0  0
  190.3860  179.1500  142.7120 C   0  0  0  0  0  1  0  0  0  0  0  0
  185.6970  178.5480  145.9330 C   0  0  0  0  0  0  0  0  0  0  0  0
  185.7680  178.7010  147.3220 C   0  0  0  0  0  3  0  0  0  0  0  0
  185.4070  178.3950  141.6510 C   0  0  0  0  0  3  0  0  0  0  0  0
  187.8400  178.4730  141.0210 C   0  0  0  0  0  3  0  0  0  0  0  0
  188.3880  177.8590  142.0660 C   0  0  0  0  0  0  0  0  0  0  0  0
  181.6470  178.2220  144.2080 O   0  0  0  0  0  0  0  0  0  0  0  0
  181.9680  179.0920  143.3540 C   0  0  0  0  0  0  0  0  0  0  0  0
  183.3410  179.4770  143.1860 N   0  0  0  0  0  2  0  0  0  0  0  0
  180.2080  180.6270  143.0700 O   0  0  0  0  0  0  0  0  0  0  0  0
  179.5410  179.9440  140.4600 C   0  0  0  0  0  1  0  0  0  0  0  0
  180.7200  179.4180  141.1400 N   0  0  0  0  0  0  0  0  0  0  0  0
  180.9340  179.7490  142.5270 C   0  0  0  0  0  0  0  0  0  0  0  0
  181.7250  178.6900  140.3640 C   0  0  1  0  0  3  0  0  0  0  0  0
  181.3090  177.2400  140.1680 C   0  0  0  0  0  1  0  0  0  0  0  0
  183.3830  179.9290  138.9700 C   0  0  0  0  0  1  0  0  0  0  0  0
  181.9720  179.3750  139.0270 C   0  0  0  0  0  2  0  0  0  0  0  0
  1  6  1  0  0  0  0
  1  9  1  0  0  0  0
  2  5  1  0  0  0  0
  3  7  1  1  0  0  0
  3  2  1  0  0  0  0
  4  7  1  0  0  0  0
  5 16  2  0  0  0  0
  5 14  1  0  0  0  0
  8 12  2  0  0  0  0
 10 19  1  0  0  0  0
 10 18  2  0  0  0  0
 11 15  1  1  0  0  0
 11  4  1  0  0  0  0
 12 16  1  0  0  0  0
 13  2  2  0  0  0  0
 13  8  1  0  0  0  0
 14  1  2  0  0  0  0
 16 17  1  0  0  0  0
 17  6  2  0  0  0  0
 18 13  1  0  0  0  0
 19 20  2  0  0  0  0
 20 11  1  0  0  0  0
 20  3  1  0  0  0  0
 22 21  2  0  0  0  0
 23 22  1  0  0  0  0
 23  8  1  0  0  0  0
 25 26  1  0  0  0  0
 26 27  1  0  0  0  0
 27 24  2  0  0  0  0
 27 22  1  0  0  0  0
 28 29  1  6  0  0  0
 28 26  1  0  0  0  0
 30 31  1  0  0  0  0
 31 28  1  0  0  0  0
M  END
>  <MODEL>
1

>  <REMARK>
 VINA RESULT:      -9.3      0.000      0.000
  Name = 
  4 active torsions:
  status: ('A' for Active; 'I' for Inactive)
    1  A    between atoms: C_1  and  N_19
    2  A    between atoms: C_1  and  C_24
    3  A    between atoms: C_9  and  C_22
    4  A    between atoms: C_15  and  N_23
                            x       y       z     vdW  Elec       q    Type
                         _______ _______ _______ _____ _____    ______ ____

>  <TORSDO>
F 4

$$$$
=
 OpenBabel11052413153D

 31 34  0  0  1  0  0  0  0  0999 V2000
  186.9760  177.7890  147.0150 C   0  0  0  0  0  0  0  0  0  0  0  0
  187.3240  177.7670  143.2690 C   0  0  0  0  0  0  0  0  0  0  0  0
  188.5960  176.9880  142.9540 C   0  0  2  0  0  3  0  0  0  0  0  0
  190.5560  176.9550  144.4250 C   0  0  0  0  0  2  0  0  0  0  0  0
  186.8070  177.9670  144.5840 C   0  0  0  0  0  0  0  0  0  0  0  0
  185.7240  178.3870  147.1590 C   0  0  0  0  0  3  0  0  0  0  0  0
  189.2770  176.2010  144.0650 C   0  0  0  0  0  2  0  0  0  0  0  0
  185.3220  178.8610  142.3570 C   0  0  0  0  0  0  0  0  0  0  0  0
  187.6920  177.3970  148.1360 O   0  0  0  0  0  1  0  0  0  0  0  0
  188.3940  178.3660  140.3650 C   0  0  0  0  0  3  0  0  0  0  0  0
  190.8740  177.8910  143.2700 C   0  0  2  0  0  3  0  0  0  0  0  0
  184.8150  179.0020  143.6490 C   0  0  0  0  0  3  0  0  0  0  0  0
  186.5950  178.2880  142.1610 C   0  0  0  0  0  0  0  0  0  0  0  0
  187.5080  177.5840  145.7390 C   0  0  0  0  0  3  0  0  0  0  0  0
  191.1430  179.2830  143.8140 C   0  0  0  0  0  1  0  0  0  0  0  0
  185.5430  178.5840  144.7520 C   0  0  0  0  0  0  0  0  0  0  0  0
  185.0100  178.7850  146.0290 C   0  0  0  0  0  3  0  0  0  0  0  0
  187.1180  178.2790  140.7670 C   0  0  0  0  0  3  0  0  0  0  0  0
  189.5840  178.4420  141.2330 C   0  0  0  0  0  3  0  0  0  0  0  0
  189.6470  177.8860  142.4400 C   0  0  0  0  0  0  0  0  0  0  0  0
  183.3020  177.3970  140.7820 O   0  0  0  0  0  0  0  0  0  0  0  0
  183.6030  178.5770  140.4580 C   0  0  0  0  0  0  0  0  0  0  0  0
  184.5670  179.3190  141.2210 N   0  0  0  0  0  2  0  0  0  0  0  0
  183.5790  179.2730  138.2110 O   0  0  0  0  0  0  0  0  0  0  0  0
  181.1570  180.6350  138.2720 C   0  0  0  0  0  1  0  0  0  0  0  0
  181.6360  179.8190  139.3830 N   0  0  0  0  0  0  0  0  0  0  0  0
  182.9490  179.2290  139.3030 C   0  0  0  0  0  0  0  0  0  0  0  0
  180.7220  179.5030  140.4820 C   0  0  1  0  0  3  0  0  0  0  0  0
  179.8390  180.6970  140.8110 C   0  0  0  0  0  1  0  0  0  0  0  0
  179.6030  177.4700  141.4020 C   0  0  0  0  0  1  0  0  0  0  0  0
  179.8830  178.2760  140.1480 C   0  0  0  0  0  2  0  0  0  0  0  0
  1  6  1  0  0  0  0
  1  9  1  0  0  0  0
  2  5  1  0  0  0  0
  3  2  1  0  0  0  0
  3  7  1  1  0  0  0
  5 16  2  0  0  0  0
  5 14  1  0  0  0  0
  7  4  1  0  0  0  0
  8 12  2  0  0  0  0
 10 18  2  0  0  0  0
 10 19  1  0  0  0  0
 11 15  1  1  0  0  0
 11  4  1  0  0  0  0
 12 16  1  0  0  0  0
 13  8  1  0  0  0  0
 13  2  2  0  0  0  0
 14  1  2  0  0  0  0
 16 17  1  0  0  0  0
 17  6  2  0  0  0  0
 18 13  1  0  0  0  0
 19 20  2  0  0  0  0
 20  3  1  0  0  0  0
 20 11  1  0  0  0  0
 22 21  2  0  0  0  0
 22 23  1  0  0  0  0
 23  8  1  0  0  0  0
 24 27  2  0  0  0  0
 25 26  1  0  0  0  0
 26 28  1  0  0  0  0
 27 26  1  0  0  0  0
 27 22  1  0  0  0  0
 28 29  1  6  0  0  0
 31 28  1  0  0  0  0
 31 30  1  0  0  0  0
M  END
>  <MODEL>
2

>  <REMARK>
 VINA RESULT:      -9.2      1.767      2.421
  Name = 
  4 active torsions:
  status: ('A' for Active; 'I' for Inactive)
    1  A    between atoms: C_1  and  N_19
    2  A    between atoms: C_1  and  C_24
    3  A    between atoms: C_9  and  C_22
    4  A    between atoms: C_15  and  N_23
                            x       y       z     vdW  Elec       q    Type
                         _______ _______ _______ _____ _____    ______ ____

>  <TORSDO>
F 4

$$$$
=
 OpenBabel11052413153D

 31 34  0  0  1  0  0  0  0  0999 V2000
  186.6650  178.0660  146.8190 C   0  0  0  0  0  0  0  0  0  0  0  0
  187.2210  177.8150  143.1070 C   0  0  0  0  0  0  0  0  0  0  0  0
  188.5060  177.0200  142.9110 C   0  0  2  0  0  3  0  0  0  0  0  0
  190.3820  177.0800  144.4870 C   0  0  0  0  0  2  0  0  0  0  0  0
  186.6320  178.0940  144.3760 C   0  0  0  0  0  0  0  0  0  0  0  0
  185.4090  178.6700  146.8570 C   0  0  0  0  0  3  0  0  0  0  0  0
  189.1230  176.3040  144.1040 C   0  0  0  0  0  2  0  0  0  0  0  0
  185.2740  178.8470  142.0200 C   0  0  0  0  0  0  0  0  0  0  0  0
  187.3180  177.7450  148.0000 O   0  0  0  0  0  1  0  0  0  0  0  0
  188.4520  178.2360  140.2350 C   0  0  0  0  0  3  0  0  0  0  0  0
  190.7660  177.9440  143.2970 C   0  0  2  0  0  3  0  0  0  0  0  0
  184.6970  179.0670  143.2700 C   0  0  0  0  0  3  0  0  0  0  0  0
  186.5550  178.2650  141.9310 C   0  0  0  0  0  0  0  0  0  0  0  0
  187.2670  177.7840  145.5900 C   0  0  0  0  0  3  0  0  0  0  0  0
  191.0070  179.3670  143.7680 C   0  0  0  0  0  1  0  0  0  0  0  0
  185.3620  178.7180  144.4350 C   0  0  0  0  0  0  0  0  0  0  0  0
  184.7590  178.9960  145.6660 C   0  0  0  0  0  3  0  0  0  0  0  0
  187.1550  178.1720  140.5710 C   0  0  0  0  0  3  0  0  0  0  0  0
  189.5910  178.3670  141.1610 C   0  0  0  0  0  3  0  0  0  0  0  0
  189.5860  177.8860  142.4020 C   0  0  0  0  0  0  0  0  0  0  0  0
  182.5600  178.1000  141.1390 O   0  0  0  0  0  0  0  0  0  0  0  0
  183.2680  178.8390  140.4030 C   0  0  0  0  0  0  0  0  0  0  0  0
  184.5840  179.2340  140.8180 N   0  0  0  0  0  2  0  0  0  0  0  0
  182.4960  180.5640  139.0020 O   0  0  0  0  0  0  0  0  0  0  0  0
  181.7840  178.9840  136.8290 C   0  0  0  0  0  1  0  0  0  0  0  0
  182.5060  178.4630  137.9850 N   0  0  0  0  0  0  0  0  0  0  0  0
  182.7460  179.3320  139.1100 C   0  0  0  0  0  0  0  0  0  0  0  0
  183.0910  177.1230  137.9160 C   0  0  1  0  0  3  0  0  0  0  0  0
  182.0080  176.0690  137.7420 C   0  0  0  0  0  1  0  0  0  0  0  0
  185.4640  177.5540  137.2760 C   0  0  0  0  0  1  0  0  0  0  0  0
  184.1200  177.0420  136.7960 C   0  0  0  0  0  2  0  0  0  0  0  0
  1  6  1  0  0  0  0
  1  9  1  0  0  0  0
  2  5  1  0  0  0  0
  3  2  1  0  0  0  0
  3  7  1  1  0  0  0
  5 16  2  0  0  0  0
  5 14  1  0  0  0  0
  7  4  1  0  0  0  0
  8 12  2  0  0  0  0
 10 18  2  0  0  0  0
 10 19  1  0  0  0  0
 11 15  1  1  0  0  0
 11  4  1  0  0  0  0
 12 16  1  0  0  0  0
 13  8  1  0  0  0  0
 13  2  2  0  0  0  0
 14  1  2  0  0  0  0
 16 17  1  0  0  0  0
 17  6  2  0  0  0  0
 18 13  1  0  0  0  0
 19 20  2  0  0  0  0
 20  3  1  0  0  0  0
 20 11  1  0  0  0  0
 22 23  1  0  0  0  0
 22 21  2  0  0  0  0
 23  8  1  0  0  0  0
 24 27  2  0  0  0  0
 25 26  1  0  0  0  0
 26 27  1  0  0  0  0
 27 22  1  0  0  0  0
 28 29  1  6  0  0  0
 28 26  1  0  0  0  0
 31 30  1  0  0  0  0
 31 28  1  0  0  0  0
M  END
>  <MODEL>
3

>  <REMARK>
 VINA RESULT:      -9.1      1.991      2.485
  Name = 
  4 active torsions:
  status: ('A' for Active; 'I' for Inactive)
    1  A    between atoms: C_1  and  N_19
    2  A    between atoms: C_1  and  C_24
    3  A    between atoms: C_9  and  C_22
    4  A    between atoms: C_15  and  N_23
                            x       y       z     vdW  Elec       q    Type
                         _______ _______ _______ _____ _____    ______ ____

>  <TORSDO>
F 4

$$$$
=
 OpenBabel11052413153D

 31 34  0  0  1  0  0  0  0  0999 V2000
  187.1890  178.3020  147.2300 C   0  0  0  0  0  0  0  0  0  0  0  0
  188.3110  177.3340  143.7720 C   0  0  0  0  0  0  0  0  0  0  0  0
  189.7240  176.7790  143.9110 C   0  0  2  0  0  3  0  0  0  0  0  0
  191.3150  177.5540  145.6060 C   0  0  0  0  0  2  0  0  0  0  0  0
  187.5070  177.7720  144.8660 C   0  0  0  0  0  0  0  0  0  0  0  0
  185.8590  178.6430  146.9900 C   0  0  0  0  0  3  0  0  0  0  0  0
  190.2700  176.4830  145.3010 C   0  0  0  0  0  2  0  0  0  0  0  0
  186.4000  177.6990  142.2710 C   0  0  0  0  0  0  0  0  0  0  0  0
  187.7070  178.3860  148.5150 O   0  0  0  0  0  1  0  0  0  0  0  0
  189.8590  177.3290  141.0260 C   0  0  0  0  0  3  0  0  0  0  0  0
  191.7210  178.1860  144.2840 C   0  0  2  0  0  3  0  0  0  0  0  0
  185.6200  178.0790  143.3630 C   0  0  0  0  0  3  0  0  0  0  0  0
  187.7580  177.3710  142.4600 C   0  0  0  0  0  0  0  0  0  0  0  0
  188.0010  177.8720  146.1770 C   0  0  0  0  0  3  0  0  0  0  0  0
  191.6550  179.6980  144.4110 C   0  0  0  0  0  1  0  0  0  0  0  0
  186.1570  178.1360  144.6400 C   0  0  0  0  0  0  0  0  0  0  0  0
  185.3440  178.5610  145.6960 C   0  0  0  0  0  3  0  0  0  0  0  0
  188.5560  177.0920  141.2340 C   0  0  0  0  0  3  0  0  0  0  0  0
  190.8160  177.8820  142.0020 C   0  0  0  0  0  3  0  0  0  0  0  0
  190.7090  177.7010  143.3160 C   0  0  0  0  0  0  0  0  0  0  0  0
  185.1670  179.8990  140.7410 O   0  0  0  0  0  0  0  0  0  0  0  0
  185.2240  178.7480  140.2320 C   0  0  0  0  0  0  0  0  0  0  0  0
  185.8380  177.6650  140.9470 N   0  0  0  0  0  2  0  0  0  0  0  0
  183.4810  178.8080  138.6530 O   0  0  0  0  0  0  0  0  0  0  0  0
  184.8030  177.4880  136.5950 C   0  0  0  0  0  1  0  0  0  0  0  0
  185.4690  177.9080  137.8240 N   0  0  0  0  0  0  0  0  0  0  0  0
  184.6830  178.4970  138.8790 C   0  0  0  0  0  0  0  0  0  0  0  0
  186.9290  177.8520  137.8990 C   0  0  1  0  0  3  0  0  0  0  0  0
  187.4300  176.4400  137.6330 C   0  0  0  0  0  1  0  0  0  0  0  0
  189.0690  178.7750  137.0050 C   0  0  0  0  0  1  0  0  0  0  0  0
  187.5560  178.8470  136.9310 C   0  0  0  0  0  2  0  0  0  0  0  0
  1  9  1  0  0  0  0
  2  3  1  0  0  0  0
  2  5  1  0  0  0  0
  3  7  1  1  0  0  0
  5 14  1  0  0  0  0
  6  1  1  0  0  0  0
  7  4  1  0  0  0  0
  8 13  1  0  0  0  0
  8 12  2  0  0  0  0
 10 18  2  0  0  0  0
 10 19  1  0  0  0  0
 11 15  1  1  0  0  0
 11  4  1  0  0  0  0
 12 16  1  0  0  0  0
 13  2  2  0  0  0  0
 14  1  2  0  0  0  0
 16  5  2  0  0  0  0
 16 17  1  0  0  0  0
 17  6  2  0  0  0  0
 18 13  1  0  0  0  0
 19 20  2  0  0  0  0
 20  3  1  0  0  0  0
 20 11  1  0  0  0  0
 22 21  2  0  0  0  0
 22 23  1  0  0  0  0
 23  8  1  0  0  0  0
 24 27  2  0  0  0  0
 25 26  1  0  0  0  0
 26 28  1  0  0  0  0
 26 27  1  0  0  0  0
 27 22  1  0  0  0  0
 28 29  1  6  0  0  0
 31 30  1  0  0  0  0
 31 28  1  0  0  0  0
M  END
>  <MODEL>
4

>  <REMARK>
 VINA RESULT:      -8.4      2.740      3.889
  Name = 
  4 active torsions:
  status: ('A' for Active; 'I' for Inactive)
    1  A    between atoms: C_1  and  N_19
    2  A    between atoms: C_1  and  C_24
    3  A    between atoms: C_9  and  C_22
    4  A    between atoms: C_15  and  N_23
                            x       y       z     vdW  Elec       q    Type
                         _______ _______ _______ _____ _____    ______ ____

>  <TORSDO>
F 4

$$$$
=
 OpenBabel11052413153D

 31 34  0  0  1  0  0  0  0  0999 V2000
  181.3350  178.9590  142.3140 C   0  0  0  0  0  0  0  0  0  0  0  0
  184.6950  178.8950  140.6220 C   0  0  0  0  0  0  0  0  0  0  0  0
  184.4530  179.2460  139.1590 C   0  0  2  0  0  3  0  0  0  0  0  0
  182.3990  178.6620  137.9550 C   0  0  0  0  0  2  0  0  0  0  0  0
  183.6760  178.8570  141.6200 C   0  0  0  0  0  0  0  0  0  0  0  0
  181.7080  178.7760  143.6460 C   0  0  0  0  0  3  0  0  0  0  0  0
  183.0890  179.7770  138.7400 C   0  0  0  0  0  2  0  0  0  0  0  0
  186.3700  178.4800  142.3710 C   0  0  0  0  0  0  0  0  0  0  0  0
  179.9970  179.1040  141.9810 O   0  0  0  0  0  1  0  0  0  0  0  0
  187.0940  178.0130  138.7780 C   0  0  0  0  0  3  0  0  0  0  0  0
  183.4740  177.6800  137.5160 C   0  0  2  0  0  3  0  0  0  0  0  0
  185.3610  178.4930  143.3350 C   0  0  0  0  0  3  0  0  0  0  0  0
  186.0400  178.6320  141.0090 C   0  0  0  0  0  0  0  0  0  0  0  0
  182.3120  178.9970  141.3160 C   0  0  0  0  0  3  0  0  0  0  0  0
  183.0400  176.2700  137.8740 C   0  0  0  0  0  1  0  0  0  0  0  0
  184.0330  178.6600  142.9760 C   0  0  0  0  0  0  0  0  0  0  0  0
  183.0550  178.6260  143.9760 C   0  0  0  0  0  3  0  0  0  0  0  0
  187.1540  178.4880  140.0310 C   0  0  0  0  0  3  0  0  0  0  0  0
  185.8820  177.5680  138.0650 C   0  0  0  0  0  3  0  0  0  0  0  0
  184.6720  178.0700  138.2950 C   0  0  0  0  0  0  0  0  0  0  0  0
  187.7030  175.9900  143.2210 O   0  0  0  0  0  0  0  0  0  0  0  0
  188.3630  177.0630  143.1830 C   0  0  0  0  0  0  0  0  0  0  0  0
  187.7430  178.2840  142.7520 N   0  0  0  0  0  2  0  0  0  0  0  0
  190.6400  177.3300  142.6530 O   0  0  0  0  0  0  0  0  0  0  0  0
  191.6800  176.6200  145.1310 C   0  0  0  0  0  1  0  0  0  0  0  0
  190.2520  176.8070  144.8950 N   0  0  0  0  0  0  0  0  0  0  0  0
  189.7940  177.0780  143.5550 C   0  0  0  0  0  0  0  0  0  0  0  0
  189.3410  176.8580  146.0390 C   0  0  1  0  0  3  0  0  0  0  0  0
  190.1080  176.7330  147.3470 C   0  0  0  0  0  1  0  0  0  0  0  0
  187.1330  177.8840  146.5900 C   0  0  0  0  0  1  0  0  0  0  0  0
  188.5110  178.1350  146.0100 C   0  0  0  0  0  2  0  0  0  0  0  0
  1  6  1  0  0  0  0
  2 13  2  0  0  0  0
  2  5  1  0  0  0  0
  3  7  1  1  0  0  0
  3  2  1  0  0  0  0
  4  7  1  0  0  0  0
  5 16  2  0  0  0  0
  6 17  2  0  0  0  0
  8 23  1  0  0  0  0
  8 12  2  0  0  0  0
  9  1  1  0  0  0  0
 10 18  2  0  0  0  0
 11 15  1  1  0  0  0
 11  4  1  0  0  0  0
 11 20  1  0  0  0  0
 13  8  1  0  0  0  0
 14  5  1  0  0  0  0
 14  1  2  0  0  0  0
 16 12  1  0  0  0  0
 16 17  1  0  0  0  0
 18 13  1  0  0  0  0
 19 20  2  0  0  0  0
 19 10  1  0  0  0  0
 20  3  1  0  0  0  0
 22 21  2  0  0  0  0
 22 27  1  0  0  0  0
 23 22  1  0  0  0  0
 24 27  2  0  0  0  0
 26 25  1  0  0  0  0
 26 28  1  0  0  0  0
 27 26  1  0  0  0  0
 28 29  1  1  0  0  0
 31 28  1  0  0  0  0
 31 30  1  0  0  0  0
M  END
>  <MODEL>
5

>  <REMARK>
 VINA RESULT:      -8.4      2.591      7.550
  Name = 
  4 active torsions:
  status: ('A' for Active; 'I' for Inactive)
    1  A    between atoms: C_1  and  N_19
    2  A    between atoms: C_1  and  C_24
    3  A    between atoms: C_9  and  C_22
    4  A    between atoms: C_15  and  N_23
                            x       y       z     vdW  Elec       q    Type
                         _______ _______ _______ _____ _____    ______ ____

>  <TORSDO>
F 4

$$$$
=
 OpenBabel11052413153D

 31 34  0  0  1  0  0  0  0  0999 V2000
  183.8860  178.8120  138.9790 C   0  0  0  0  0  0  0  0  0  0  0  0
  187.5940  178.2340  139.2360 C   0  0  0  0  0  0  0  0  0  0  0  0
  188.1290  178.1950  137.8100 C   0  0  2  0  0  3  0  0  0  0  0  0
  186.8310  177.3630  135.9050 C   0  0  0  0  0  2  0  0  0  0  0  0
  186.2310  178.4800  139.5780 C   0  0  0  0  0  0  0  0  0  0  0  0
  183.5510  178.9760  140.3220 C   0  0  0  0  0  3  0  0  0  0  0  0
  187.2230  178.6280  136.6660 C   0  0  0  0  0  2  0  0  0  0  0  0
  188.1570  178.2520  141.6270 C   0  0  0  0  0  0  0  0  0  0  0  0
  182.9030  178.8950  138.0020 O   0  0  0  0  0  1  0  0  0  0  0  0
  190.4190  176.8470  139.0670 C   0  0  0  0  0  3  0  0  0  0  0  0
  187.8260  176.2770  136.2810 C   0  0  2  0  0  3  0  0  0  0  0  0
  186.8270  178.5400  141.9350 C   0  0  0  0  0  3  0  0  0  0  0  0
  188.5400  178.0510  140.2860 C   0  0  0  0  0  0  0  0  0  0  0  0
  185.2120  178.5670  138.6150 C   0  0  0  0  0  3  0  0  0  0  0  0
  187.0700  175.0190  136.6720 C   0  0  0  0  0  1  0  0  0  0  0  0
  185.8690  178.6370  140.9380 C   0  0  0  0  0  0  0  0  0  0  0  0
  184.5410  178.8870  141.3010 C   0  0  0  0  0  3  0  0  0  0  0  0
  189.9480  177.6310  140.0470 C   0  0  0  0  0  3  0  0  0  0  0  0
  189.6390  176.2580  137.9620 C   0  0  0  0  0  3  0  0  0  0  0  0
  188.5550  176.8290  137.4470 C   0  0  0  0  0  0  0  0  0  0  0  0
  188.8670  175.8710  143.2170 O   0  0  0  0  0  0  0  0  0  0  0  0
  189.4520  176.9640  143.4450 C   0  0  0  0  0  0  0  0  0  0  0  0
  189.1400  178.1330  142.6720 N   0  0  0  0  0  2  0  0  0  0  0  0
  191.6740  177.2990  144.1420 O   0  0  0  0  0  0  0  0  0  0  0  0
  191.3010  176.7530  146.8410 C   0  0  0  0  0  1  0  0  0  0  0  0
  190.1950  176.8700  145.8960 N   0  0  0  0  0  0  0  0  0  0  0  0
  190.4880  177.0560  144.4960 C   0  0  0  0  0  0  0  0  0  0  0  0
  188.8250  176.9390  146.4060 C   0  0  1  0  0  3  0  0  0  0  0  0
  188.8000  176.7530  147.9150 C   0  0  0  0  0  1  0  0  0  0  0  0
  186.7090  178.0270  145.6520 C   0  0  0  0  0  1  0  0  0  0  0  0
  188.1670  178.2530  146.0040 C   0  0  0  0  0  2  0  0  0  0  0  0
  1  6  1  0  0  0  0
  2  5  2  0  0  0  0
  2 13  1  0  0  0  0
  3  7  1  6  0  0  0
  3  2  1  0  0  0  0
  4 11  1  0  0  0  0
  4  7  1  0  0  0  0
  5 16  1  0  0  0  0
  6 17  2  0  0  0  0
  8 12  1  0  0  0  0
  8 23  1  0  0  0  0
  9  1  1  0  0  0  0
 10 18  2  0  0  0  0
 11 15  1  1  0  0  0
 11 20  1  0  0  0  0
 13  8  2  0  0  0  0
 14  1  2  0  0  0  0
 14  5  1  0  0  0  0
 16 17  1  0  0  0  0
 16 12  2  0  0  0  0
 18 13  1  0  0  0  0
 19 10  1  0  0  0  0
 20  3  1  0  0  0  0
 20 19  2  0  0  0  0
 21 22  2  0  0  0  0
 22 27  1  0  0  0  0
 23 22  1  0  0  0  0
 24 27  2  0  0  0  0
 26 28  1  0  0  0  0
 26 25  1  0  0  0  0
 27 26  1  0  0  0  0
 28 29  1  1  0  0  0
 30 31  1  0  0  0  0
 31 28  1  0  0  0  0
M  END
>  <MODEL>
6

>  <REMARK>
 VINA RESULT:      -8.3      3.481      7.910
  Name = 
  4 active torsions:
  status: ('A' for Active; 'I' for Inactive)
    1  A    between atoms: C_1  and  N_19
    2  A    between atoms: C_1  and  C_24
    3  A    between atoms: C_9  and  C_22
    4  A    between atoms: C_15  and  N_23
                            x       y       z     vdW  Elec       q    Type
                         _______ _______ _______ _____ _____    ______ ____

>  <TORSDO>
F 4

$$$$
=
 OpenBabel11052413153D

 31 34  0  0  1  0  0  0  0  0999 V2000
  183.9740  178.6140  143.6560 C   0  0  0  0  0  0  0  0  0  0  0  0
  185.6550  178.6220  140.2910 C   0  0  0  0  0  0  0  0  0  0  0  0
  184.5880  178.9970  139.2700 C   0  0  2  0  0  3  0  0  0  0  0  0
  182.2200  178.4130  139.5200 C   0  0  0  0  0  2  0  0  0  0  0  0
  185.4350  178.5530  141.6990 C   0  0  0  0  0  0  0  0  0  0  0  0
  185.0680  178.4110  144.4970 C   0  0  0  0  0  3  0  0  0  0  0  0
  183.2450  179.5200  139.7620 C   0  0  0  0  0  2  0  0  0  0  0  0
  188.0430  178.1920  140.6820 C   0  0  0  0  0  0  0  0  0  0  0  0
  182.7020  178.7510  144.1920 O   0  0  0  0  0  1  0  0  0  0  0  0
  186.4750  177.8020  137.3600 C   0  0  0  0  0  3  0  0  0  0  0  0
  182.8170  177.4520  138.5040 C   0  0  2  0  0  3  0  0  0  0  0  0
  187.8100  178.1760  142.0580 C   0  0  0  0  0  3  0  0  0  0  0  0
  186.9650  178.3670  139.7910 C   0  0  0  0  0  0  0  0  0  0  0  0
  184.1600  178.6830  142.2730 C   0  0  0  0  0  3  0  0  0  0  0  0
  182.6810  176.0310  139.0200 C   0  0  0  0  0  1  0  0  0  0  0  0
  186.5320  178.3340  142.5680 C   0  0  0  0  0  0  0  0  0  0  0  0
  186.3450  178.2700  143.9530 C   0  0  0  0  0  3  0  0  0  0  0  0
  187.2720  178.2530  138.3380 C   0  0  0  0  0  3  0  0  0  0  0  0
  185.0760  177.3570  137.5030 C   0  0  0  0  0  3  0  0  0  0  0  0
  184.2450  177.8400  138.4210 C   0  0  0  0  0  0  0  0  0  0  0  0
  190.0730  176.2150  141.5000 O   0  0  0  0  0  0  0  0  0  0  0  0
  190.3490  177.0460  140.5940 C   0  0  0  0  0  0  0  0  0  0  0  0
  189.3710  178.0040  140.1630 N   0  0  0  0  0  2  0  0  0  0  0  0
  192.6560  177.5080  140.5750 O   0  0  0  0  0  0  0  0  0  0  0  0
  193.1660  176.7330  137.9560 C   0  0  0  0  0  1  0  0  0  0  0  0
  191.8830  176.5070  138.6140 N   0  0  0  0  0  0  0  0  0  0  0  0
  191.6750  177.0310  139.9400 C   0  0  0  0  0  0  0  0  0  0  0  0
  190.8960  175.6360  137.9730 C   0  0  1  0  0  3  0  0  0  0  0  0
  190.1110  176.3970  136.9150 C   0  0  0  0  0  1  0  0  0  0  0  0
  190.6910  173.7890  136.3070 C   0  0  0  0  0  1  0  0  0  0  0  0
  191.5700  174.4070  137.3770 C   0  0  0  0  0  2  0  0  0  0  0  0
  1  9  1  0  0  0  0
  1  6  1  0  0  0  0
  2  5  1  0  0  0  0
  3  7  1  1  0  0  0
  3  2  1  0  0  0  0
  4  7  1  0  0  0  0
  5 14  1  0  0  0  0
  5 16  2  0  0  0  0
  8 12  2  0  0  0  0
 10 19  1  0  0  0  0
 10 18  2  0  0  0  0
 11 15  1  1  0  0  0
 11  4  1  0  0  0  0
 12 16  1  0  0  0  0
 13  2  2  0  0  0  0
 13  8  1  0  0  0  0
 14  1  2  0  0  0  0
 16 17  1  0  0  0  0
 17  6  2  0  0  0  0
 18 13  1  0  0  0  0
 19 20  2  0  0  0  0
 20 11  1  0  0  0  0
 20  3  1  0  0  0  0
 22 21  2  0  0  0  0
 23 22  1  0  0  0  0
 23  8  1  0  0  0  0
 25 26  1  0  0  0  0
 26 27  1  0  0  0  0
 27 24  2  0  0  0  0
 27 22  1  0  0  0  0
 28 29  1  6  0  0  0
 28 26  1  0  0  0  0
 30 31  1  0  0  0  0
 31 28  1  0  0  0  0
M  END
>  <MODEL>
7

>  <REMARK>
 VINA RESULT:      -7.9      4.048      7.805
  Name = 
  4 active torsions:
  status: ('A' for Active; 'I' for Inactive)
    1  A    between atoms: C_1  and  N_19
    2  A    between atoms: C_1  and  C_24
    3  A    between atoms: C_9  and  C_22
    4  A    between atoms: C_15  and  N_23
                            x       y       z     vdW  Elec       q    Type
                         _______ _______ _______ _____ _____    ______ ____

>  <TORSDO>
F 4

$$$$
=
 OpenBabel11052413153D

 31 34  0  0  1  0  0  0  0  0999 V2000
  182.2910  178.9280  143.3610 C   0  0  0  0  0  0  0  0  0  0  0  0
  184.7580  178.8380  140.5220 C   0  0  0  0  0  0  0  0  0  0  0  0
  183.9690  179.1180  139.2500 C   0  0  2  0  0  3  0  0  0  0  0  0
  181.6310  178.4520  138.9380 C   0  0  0  0  0  2  0  0  0  0  0  0
  184.1950  178.8290  141.8340 C   0  0  0  0  0  0  0  0  0  0  0  0
  183.1450  178.8110  144.4570 C   0  0  0  0  0  3  0  0  0  0  0  0
  182.5330  179.6100  139.3620 C   0  0  0  0  0  2  0  0  0  0  0  0
  186.9830  178.5250  141.5170 C   0  0  0  0  0  0  0  0  0  0  0  0
  180.9220  179.0390  143.5560 O   0  0  0  0  0  1  0  0  0  0  0  0
  186.3050  177.9080  137.9380 C   0  0  0  0  0  3  0  0  0  0  0  0
  182.4880  177.4670  138.1590 C   0  0  2  0  0  3  0  0  0  0  0  0
  186.4150  178.5670  142.7910 C   0  0  0  0  0  3  0  0  0  0  0  0
  186.1570  178.6120  140.3780 C   0  0  0  0  0  0  0  0  0  0  0  0
  182.8140  178.9360  142.0660 C   0  0  0  0  0  3  0  0  0  0  0  0
  182.2660  176.0680  138.7070 C   0  0  0  0  0  1  0  0  0  0  0  0
  185.0460  178.6980  142.9590 C   0  0  0  0  0  0  0  0  0  0  0  0
  184.5210  178.6950  144.2550 C   0  0  0  0  0  3  0  0  0  0  0  0
  186.8210  178.4390  139.0560 C   0  0  0  0  0  3  0  0  0  0  0  0
  184.9280  177.4150  137.7560 C   0  0  0  0  0  3  0  0  0  0  0  0
  183.8800  177.9080  138.4110 C   0  0  0  0  0  0  0  0  0  0  0  0
  188.6950  176.2920  142.4020 O   0  0  0  0  0  0  0  0  0  0  0  0
  189.2170  177.2770  141.8140 C   0  0  0  0  0  0  0  0  0  0  0  0
  188.4040  178.3670  141.3550 N   0  0  0  0  0  2  0  0  0  0  0  0
  191.4440  177.4450  142.5550 O   0  0  0  0  0  0  0  0  0  0  0  0
  192.6610  177.4930  140.0570 C   0  0  0  0  0  1  0  0  0  0  0  0
  191.2390  177.2210  140.2410 N   0  0  0  0  0  0  0  0  0  0  0  0
  190.6740  177.3150  141.5640 C   0  0  0  0  0  0  0  0  0  0  0  0
  190.4560  176.7240  139.1090 C   0  0  1  0  0  3  0  0  0  0  0  0
  190.0450  177.8670  138.1930 C   0  0  0  0  0  1  0  0  0  0  0  0
  191.4180  176.0790  136.8980 C   0  0  0  0  0  1  0  0  0  0  0  0
  191.2320  175.6600  138.3440 C   0  0  0  0  0  2  0  0  0  0  0  0
  1  9  1  0  0  0  0
  1  6  1  0  0  0  0
  2  5  1  0  0  0  0
  3  7  1  1  0  0  0
  3  2  1  0  0  0  0
  4  7  1  0  0  0  0
  5 14  1  0  0  0  0
  5 16  2  0  0  0  0
  8 12  2  0  0  0  0
 10 18  2  0  0  0  0
 11 20  1  0  0  0  0
 11 15  1  1  0  0  0
 11  4  1  0  0  0  0
 12 16  1  0  0  0  0
 13  2  2  0  0  0  0
 13  8  1  0  0  0  0
 14  1  2  0  0  0  0
 16 17  1  0  0  0  0
 17  6  2  0  0  0  0
 18 13  1  0  0  0  0
 19 10  1  0  0  0  0
 19 20  2  0  0  0  0
 20  3  1  0  0  0  0
 22 21  2  0  0  0  0
 23  8  1  0  0  0  0
 23 22  1  0  0  0  0
 25 26  1  0  0  0  0
 26 27  1  0  0  0  0
 27 22  1  0  0  0  0
 27 24  2  0  0  0  0
 28 29  1  6  0  0  0
 28 26  1  0  0  0  0
 30 31  1  0  0  0  0
 31 28  1  0  0  0  0
M  END
>  <MODEL>
8

>  <REMARK>
 VINA RESULT:      -7.9      3.222      7.499
  Name = 
  4 active torsions:
  status: ('A' for Active; 'I' for Inactive)
    1  A    between atoms: C_1  and  N_19
    2  A    between atoms: C_1  and  C_24
    3  A    between atoms: C_9  and  C_22
    4  A    between atoms: C_15  and  N_23
                            x       y       z     vdW  Elec       q    Type
                         _______ _______ _______ _____ _____    ______ ____

>  <TORSDO>
F 4

$$$$
=
 OpenBabel11052413153D

 31 34  0  0  1  0  0  0  0  0999 V2000
  181.8870  178.9100  143.5100 C   0  0  0  0  0  0  0  0  0  0  0  0
  183.8640  178.7390  140.3130 C   0  0  0  0  0  0  0  0  0  0  0  0
  182.8620  178.8800  139.1730 C   0  0  2  0  0  3  0  0  0  0  0  0
  180.5540  178.0660  139.2980 C   0  0  0  0  0  2  0  0  0  0  0  0
  183.5220  178.7990  141.6970 C   0  0  0  0  0  0  0  0  0  0  0  0
  182.9130  178.9220  144.4540 C   0  0  0  0  0  3  0  0  0  0  0  0
  181.4340  179.3000  139.4890 C   0  0  0  0  0  2  0  0  0  0  0  0
  186.2360  178.6230  140.9440 C   0  0  0  0  0  0  0  0  0  0  0  0
  180.5630  178.9610  143.9210 O   0  0  0  0  0  1  0  0  0  0  0  0
  185.0300  177.7010  137.5750 C   0  0  0  0  0  3  0  0  0  0  0  0
  181.3360  177.0730  138.4550 C   0  0  2  0  0  3  0  0  0  0  0  0
  185.8800  178.7300  142.2880 C   0  0  0  0  0  3  0  0  0  0  0  0
  185.2330  178.5780  139.9540 C   0  0  0  0  0  0  0  0  0  0  0  0
  182.1920  178.8490  142.1480 C   0  0  0  0  0  3  0  0  0  0  0  0
  181.2980  175.7100  139.1220 C   0  0  0  0  0  1  0  0  0  0  0  0
  184.5500  178.8000  142.6720 C   0  0  0  0  0  0  0  0  0  0  0  0
  184.2430  178.8660  144.0350 C   0  0  0  0  0  3  0  0  0  0  0  0
  185.6840  178.3420  138.5540 C   0  0  0  0  0  3  0  0  0  0  0  0
  183.6770  177.1220  137.6570 C   0  0  0  0  0  3  0  0  0  0  0  0
  182.7190  177.6060  138.4420 C   0  0  0  0  0  0  0  0  0  0  0  0
  188.2810  176.7190  141.8890 O   0  0  0  0  0  0  0  0  0  0  0  0
  188.6000  177.6040  141.0510 C   0  0  0  0  0  0  0  0  0  0  0  0
  187.6190  178.5290  140.5590 N   0  0  0  0  0  2  0  0  0  0  0  0
  190.1520  177.9680  139.3200 O   0  0  0  0  0  0  0  0  0  0  0  0
  192.4510  177.3370  140.7470 C   0  0  0  0  0  1  0  0  0  0  0  0
  191.1380  177.4560  141.3720 N   0  0  0  0  0  0  0  0  0  0  0  0
  189.9850  177.6890  140.5390 C   0  0  0  0  0  0  0  0  0  0  0  0
  191.0430  177.4800  142.8320 C   0  0  1  0  0  3  0  0  0  0  0  0
  191.4890  176.1510  143.4250 C   0  0  0  0  0  1  0  0  0  0  0  0
  190.9610  179.5530  144.2190 C   0  0  0  0  0  1  0  0  0  0  0  0
  191.8530  178.6350  143.4060 C   0  0  0  0  0  2  0  0  0  0  0  0
  1  9  1  0  0  0  0
  1  6  1  0  0  0  0
  2  5  1  0  0  0  0
  3  7  1  1  0  0  0
  3  2  1  0  0  0  0
  4  7  1  0  0  0  0
  5 14  1  0  0  0  0
  5 16  2  0  0  0  0
  8 12  2  0  0  0  0
 10 19  1  0  0  0  0
 10 18  2  0  0  0  0
 11 15  1  1  0  0  0
 11  4  1  0  0  0  0
 12 16  1  0  0  0  0
 13  2  2  0  0  0  0
 13  8  1  0  0  0  0
 14  1  2  0  0  0  0
 16 17  1  0  0  0  0
 17  6  2  0  0  0  0
 18 13  1  0  0  0  0
 19 20  2  0  0  0  0
 20 11  1  0  0  0  0
 20  3  1  0  0  0  0
 22 21  2  0  0  0  0
 23  8  1  0  0  0  0
 23 22  1  0  0  0  0
 24 27  2  0  0  0  0
 25 26  1  0  0  0  0
 26 28  1  0  0  0  0
 27 22  1  0  0  0  0
 27 26  1  0  0  0  0
 28 31  1  0  0  0  0
 28 29  1  1  0  0  0
 31 30  1  0  0  0  0
M  END
>  <MODEL>
9

>  <REMARK>
 VINA RESULT:      -7.7      3.058      7.795
  Name = 
  4 active torsions:
  status: ('A' for Active; 'I' for Inactive)
    1  A    between atoms: C_1  and  N_19
    2  A    between atoms: C_1  and  C_24
    3  A    between atoms: C_9  and  C_22
    4  A    between atoms: C_15  and  N_23
                            x       y       z     vdW  Elec       q    Type
                         _______ _______ _______ _____ _____    ______ ____

>  <TORSDO>
F 4

$$$$
