=
 OpenBabel11052416273D

 43 47  0  0  1  0  0  0  0  0999 V2000
  191.3850  176.3920  147.0420 C   0  0  0  0  0  0  0  0  0  0  0  0
  187.1730  177.7850  144.7250 C   0  0  0  0  0  0  0  0  0  0  0  0
  187.7430  178.0770  141.9910 C   0  0  0  0  0  0  0  0  0  0  0  0
  189.1540  177.0150  146.5250 C   0  0  0  0  0  0  0  0  0  0  0  0
  191.7580  176.5210  145.7030 C   0  0  0  0  0  3  0  0  0  0  0  0
  192.4920  175.9450  148.1550 S   0  0  0  0  0  0  0  0  0  0  0  0
  189.4820  177.1580  145.1590 C   0  0  0  0  0  0  0  0  0  0  0  0
  190.1030  176.6390  147.4230 N   0  0  0  0  0  2  0  0  0  0  0  0
  190.8020  176.9050  144.7610 C   0  0  0  0  0  3  0  0  0  0  0  0
  188.7560  177.6970  142.8800 C   0  0  0  0  0  3  0  0  0  0  0  0
  188.4840  177.5460  144.2460 C   0  0  0  0  0  0  0  0  0  0  0  0
  186.8970  177.6360  146.0510 N   0  0  0  0  0  0  0  0  0  0  0  0
  186.1550  178.1780  143.8380 C   0  0  0  0  0  0  0  0  0  0  0  0
  186.4540  178.3130  142.4740 C   0  0  0  0  0  3  0  0  0  0  0  0
  187.8480  177.2600  146.9480 C   0  0  0  0  0  3  0  0  0  0  0  0
  188.0140  178.2490  140.5300 C   0  0  2  0  0  3  0  0  0  0  0  0
  186.7170  178.4350  139.7580 C   0  0  0  0  0  1  0  0  0  0  0  0
  188.8180  177.0690  139.9910 C   0  0  0  0  0  2  0  0  0  0  0  0
  190.1580  177.4930  139.4760 C   0  0  0  0  0  0  0  0  0  0  0  0
  191.0880  177.6480  140.2530 O   0  0  0  0  0  0  0  0  0  0  0  0
  190.3850  177.5880  137.9900 C   0  0  0  0  0  2  0  0  0  0  0  0
  189.6060  176.6410  137.1760 N   0  0  0  0  0  0  0  0  0  0  0  0
  190.5530  175.2600  136.6970 S   0  0  0  0  0  0  0  0  0  0  0  0
  190.2150  174.0670  137.5510 O   0  0  0  0  0  0  0  0  0  0  0  0
  190.2870  174.9310  135.2530 O   0  0  0  0  0  0  0  0  0  0  0  0
  192.2780  175.6510  136.9060 C   0  0  1  0  0  3  0  0  0  0  0  0
  194.3610  176.3680  135.7940 C   0  0  0  0  0  2  0  0  0  0  0  0
  194.5020  174.6460  137.4990 C   0  0  0  0  0  3  0  0  0  0  0  0
  195.0770  175.4500  136.6650 N   0  0  0  0  0  0  0  0  0  0  0  0
  193.0060  174.4910  137.5790 C   0  0  0  0  0  2  0  0  0  0  0  0
  192.9190  175.9290  135.5560 C   0  0  0  0  0  2  0  0  0  0  0  0
  189.0560  177.2890  135.9890 C   0  0  0  0  0  2  0  0  0  0  0  0
  187.6430  179.1000  136.6410 O   0  0  0  0  0  1  0  0  0  0  0  0
  187.6360  177.7580  136.2580 C   0  0  0  0  0  2  0  0  0  0  0  0
  184.8610  178.3970  144.3460 O   0  0  0  0  0  0  0  0  0  0  0  0
  181.2830  178.9810  143.6240 C   0  0  0  0  0  3  0  0  0  0  0  0
  181.2600  178.9710  142.2210 C   0  0  0  0  0  0  0  0  0  0  0  0
  183.6510  178.5680  142.2040 C   0  0  0  0  0  3  0  0  0  0  0  0
  182.4860  178.7850  144.3100 C   0  0  0  0  0  3  0  0  0  0  0  0
  183.6770  178.5710  143.6080 C   0  0  0  0  0  0  0  0  0  0  0  0
  182.4500  178.7640  141.5170 C   0  0  0  0  0  3  0  0  0  0  0  0
  180.0750  179.1650  141.5060 O   0  0  0  0  0  0  0  0  0  0  0  0
  179.7600  180.3910  140.8600 C   0  0  0  0  0  1  0  0  0  0  0  0
  1  8  1  0  0  0  0
  1  6  2  0  0  0  0
  2 12  1  0  0  0  0
  3 14  2  0  0  0  0
  3 10  1  0  0  0  0
  4 15  1  0  0  0  0
  4  8  1  0  0  0  0
  5  1  1  0  0  0  0
  7  4  2  0  0  0  0
  9  7  1  0  0  0  0
  9  5  2  0  0  0  0
 10 11  2  0  0  0  0
 11  2  1  0  0  0  0
 11  7  1  0  0  0  0
 12 15  2  0  0  0  0
 13 35  1  0  0  0  0
 13  2  2  0  0  0  0
 14 13  1  0  0  0  0
 16 17  1  6  0  0  0
 16  3  1  0  0  0  0
 18 16  1  0  0  0  0
 19 18  1  0  0  0  0
 19 20  2  0  0  0  0
 21 19  1  0  0  0  0
 22 21  1  0  0  0  0
 23 22  1  0  0  0  0
 23 24  2  0  0  0  0
 25 23  2  0  0  0  0
 26 23  1  6  0  0  0
 26 30  1  0  0  0  0
 27 29  1  0  0  0  0
 28 30  1  0  0  0  0
 29 28  2  0  0  0  0
 31 27  1  0  0  0  0
 31 26  1  0  0  0  0
 32 34  1  0  0  0  0
 32 22  1  0  0  0  0
 34 33  1  0  0  0  0
 36 39  1  0  0  0  0
 37 36  2  0  0  0  0
 38 40  1  0  0  0  0
 40 39  2  0  0  0  0
 40 35  1  0  0  0  0
 41 38  2  0  0  0  0
 41 37  1  0  0  0  0
 42 37  1  0  0  0  0
 43 42  1  0  0  0  0
M  END
>  <MODEL>
1

>  <REMARK>
 VINA RESULT:      -8.9      0.000      0.000
  Name = 
  12 active torsions:
  status: ('A' for Active; 'I' for Inactive)
    1  A    between atoms: O_1  and  C_34
    2  A    between atoms: O_1  and  C_35
    3  A    between atoms: C_2  and  C_6
    4  A    between atoms: C_2  and  C_13
    5  A    between atoms: C_3  and  N_4
    6  A    between atoms: C_3  and  C_12
    7  A    between atoms: N_4  and  S_14
    8  A    between atoms: N_4  and  C_15
    9  A    between atoms: C_6  and  C_12
   10  A    between atoms: C_11  and  S_14
   11  A    between atoms: C_15  and  C_42
   12  A    between atoms: C_19  and  O_25
                            x       y       z     vdW  Elec       q    Type
                         _______ _______ _______ _____ _____    ______ ____

>  <TORSDO>
F 12

$$$$
=
 OpenBabel11052416273D

 43 47  0  0  1  0  0  0  0  0999 V2000
  191.5290  176.3420  147.2300 C   0  0  0  0  0  0  0  0  0  0  0  0
  187.3890  177.7570  144.7970 C   0  0  0  0  0  0  0  0  0  0  0  0
  188.0160  177.9650  142.0670 C   0  0  0  0  0  0  0  0  0  0  0  0
  189.3200  176.9950  146.6530 C   0  0  0  0  0  0  0  0  0  0  0  0
  191.9290  176.4280  145.8950 C   0  0  0  0  0  3  0  0  0  0  0  0
  192.6050  175.9020  148.3740 S   0  0  0  0  0  0  0  0  0  0  0  0
  189.6770  177.0950  145.2910 C   0  0  0  0  0  0  0  0  0  0  0  0
  190.2450  176.6240  147.5790 N   0  0  0  0  0  2  0  0  0  0  0  0
  190.9990  176.8060  144.9240 C   0  0  0  0  0  3  0  0  0  0  0  0
  189.0050  177.5890  142.9850 C   0  0  0  0  0  3  0  0  0  0  0  0
  188.7040  177.4790  144.3490 C   0  0  0  0  0  0  0  0  0  0  0  0
  187.0860  177.6470  146.1200 N   0  0  0  0  0  0  0  0  0  0  0  0
  186.3960  178.1460  143.8810 C   0  0  0  0  0  0  0  0  0  0  0  0
  186.7240  178.2390  142.5190 C   0  0  0  0  0  3  0  0  0  0  0  0
  188.0120  177.2770  147.0450 C   0  0  0  0  0  3  0  0  0  0  0  0
  188.3180  178.0930  140.6080 C   0  0  2  0  0  3  0  0  0  0  0  0
  187.0430  178.3170  139.8100 C   0  0  0  0  0  1  0  0  0  0  0  0
  189.0780  176.8680  140.1080 C   0  0  0  0  0  2  0  0  0  0  0  0
  190.4270  177.2280  139.5680 C   0  0  0  0  0  0  0  0  0  0  0  0
  191.3270  177.5380  140.3350 O   0  0  0  0  0  0  0  0  0  0  0  0
  190.7040  177.0680  138.0970 C   0  0  0  0  0  2  0  0  0  0  0  0
  189.5550  176.6320  137.2870 N   0  0  0  0  0  0  0  0  0  0  0  0
  189.7810  175.0290  136.6430 S   0  0  0  0  0  0  0  0  0  0  0  0
  190.6360  175.0740  135.4050 O   0  0  0  0  0  0  0  0  0  0  0  0
  190.4400  174.1510  137.6730 O   0  0  0  0  0  0  0  0  0  0  0  0
  188.1880  174.3530  136.2220 C   0  0  1  0  0  3  0  0  0  0  0  0
  185.7710  174.3540  136.7210 C   0  0  0  0  0  2  0  0  0  0  0  0
  186.8450  172.2310  136.2390 C   0  0  0  0  0  3  0  0  0  0  0  0
  185.7780  172.9190  136.4840 N   0  0  0  0  0  0  0  0  0  0  0  0
  188.2270  172.8290  136.2840 C   0  0  0  0  0  2  0  0  0  0  0  0
  187.1300  174.8660  137.1870 C   0  0  0  0  0  2  0  0  0  0  0  0
  189.2920  177.5620  136.1940 C   0  0  0  0  0  2  0  0  0  0  0  0
  188.8640  179.6970  137.1750 O   0  0  0  0  0  1  0  0  0  0  0  0
  188.2450  178.5810  136.6110 C   0  0  0  0  0  2  0  0  0  0  0  0
  185.0970  178.4030  144.3580 O   0  0  0  0  0  0  0  0  0  0  0  0
  181.5390  178.9940  143.5550 C   0  0  0  0  0  3  0  0  0  0  0  0
  181.5350  178.9160  142.1530 C   0  0  0  0  0  0  0  0  0  0  0  0
  183.9210  178.4850  142.1920 C   0  0  0  0  0  3  0  0  0  0  0  0
  182.7280  178.8170  144.2670 C   0  0  0  0  0  3  0  0  0  0  0  0
  183.9270  178.5550  143.5950 C   0  0  0  0  0  0  0  0  0  0  0  0
  182.7330  178.6610  141.4780 C   0  0  0  0  0  3  0  0  0  0  0  0
  180.3630  179.0890  141.4120 O   0  0  0  0  0  0  0  0  0  0  0  0
  179.4300  180.1270  141.6820 C   0  0  0  0  0  1  0  0  0  0  0  0
  1  8  1  0  0  0  0
  1  6  2  0  0  0  0
  2 12  1  0  0  0  0
  3 14  2  0  0  0  0
  3 10  1  0  0  0  0
  4 15  1  0  0  0  0
  4  8  1  0  0  0  0
  5  1  1  0  0  0  0
  7  4  2  0  0  0  0
  9  7  1  0  0  0  0
  9  5  2  0  0  0  0
 10 11  2  0  0  0  0
 11  2  1  0  0  0  0
 11  7  1  0  0  0  0
 12 15  2  0  0  0  0
 13 35  1  0  0  0  0
 13  2  2  0  0  0  0
 14 13  1  0  0  0  0
 16 17  1  6  0  0  0
 16  3  1  0  0  0  0
 18 16  1  0  0  0  0
 19 18  1  0  0  0  0
 19 20  2  0  0  0  0
 21 19  1  0  0  0  0
 22 21  1  0  0  0  0
 23 22  1  0  0  0  0
 23 25  2  0  0  0  0
 24 23  2  0  0  0  0
 26 30  1  0  0  0  0
 26 23  1  1  0  0  0
 26 31  1  0  0  0  0
 27 31  1  0  0  0  0
 28 30  1  0  0  0  0
 28 29  2  0  0  0  0
 29 27  1  0  0  0  0
 32 34  1  0  0  0  0
 32 22  1  0  0  0  0
 34 33  1  0  0  0  0
 36 39  1  0  0  0  0
 37 36  2  0  0  0  0
 38 40  1  0  0  0  0
 40 39  2  0  0  0  0
 40 35  1  0  0  0  0
 41 37  1  0  0  0  0
 41 38  2  0  0  0  0
 42 43  1  0  0  0  0
 42 37  1  0  0  0  0
M  END
>  <MODEL>
2

>  <REMARK>
 VINA RESULT:      -8.9      1.685      2.816
  Name = 
  12 active torsions:
  status: ('A' for Active; 'I' for Inactive)
    1  A    between atoms: O_1  and  C_34
    2  A    between atoms: O_1  and  C_35
    3  A    between atoms: C_2  and  C_6
    4  A    between atoms: C_2  and  C_13
    5  A    between atoms: C_3  and  N_4
    6  A    between atoms: C_3  and  C_12
    7  A    between atoms: N_4  and  S_14
    8  A    between atoms: N_4  and  C_15
    9  A    between atoms: C_6  and  C_12
   10  A    between atoms: C_11  and  S_14
   11  A    between atoms: C_15  and  C_42
   12  A    between atoms: C_19  and  O_25
                            x       y       z     vdW  Elec       q    Type
                         _______ _______ _______ _____ _____    ______ ____

>  <TORSDO>
F 12

$$$$
=
 OpenBabel11052416273D

 43 47  0  0  1  0  0  0  0  0999 V2000
  191.4580  176.3580  147.0610 C   0  0  0  0  0  0  0  0  0  0  0  0
  187.4000  177.8430  144.5340 C   0  0  0  0  0  0  0  0  0  0  0  0
  188.0750  177.9780  141.8110 C   0  0  0  0  0  0  0  0  0  0  0  0
  189.2790  177.0630  146.4360 C   0  0  0  0  0  0  0  0  0  0  0  0
  191.8810  176.4060  145.7310 C   0  0  0  0  0  3  0  0  0  0  0  0
  192.5030  175.9110  148.2310 S   0  0  0  0  0  0  0  0  0  0  0  0
  189.6590  177.1260  145.0780 C   0  0  0  0  0  0  0  0  0  0  0  0
  190.1780  176.6850  147.3840 N   0  0  0  0  0  2  0  0  0  0  0  0
  190.9780  176.7910  144.7380 C   0  0  0  0  0  3  0  0  0  0  0  0
  189.0380  177.5920  142.7520 C   0  0  0  0  0  3  0  0  0  0  0  0
  188.7130  177.5180  144.1130 C   0  0  0  0  0  0  0  0  0  0  0  0
  187.0730  177.7700  145.8540 N   0  0  0  0  0  0  0  0  0  0  0  0
  186.4330  178.2420  143.5950 C   0  0  0  0  0  0  0  0  0  0  0  0
  186.7840  178.2980  142.2370 C   0  0  0  0  0  3  0  0  0  0  0  0
  187.9740  177.3910  146.8010 C   0  0  0  0  0  3  0  0  0  0  0  0
  188.4030  178.0670  140.3540 C   0  0  2  0  0  3  0  0  0  0  0  0
  187.1410  178.2610  139.5280 C   0  0  0  0  0  1  0  0  0  0  0  0
  189.1800  176.8340  139.9030 C   0  0  0  0  0  2  0  0  0  0  0  0
  190.5390  177.1870  139.3850 C   0  0  0  0  0  0  0  0  0  0  0  0
  191.4620  177.3610  140.1660 O   0  0  0  0  0  0  0  0  0  0  0  0
  190.7900  177.1860  137.9000 C   0  0  0  0  0  2  0  0  0  0  0  0
  191.1510  175.8790  137.3270 N   0  0  0  0  0  0  0  0  0  0  0  0
  192.8380  175.7970  136.9020 S   0  0  0  0  0  0  0  0  0  0  0  0
  193.0150  175.9270  135.4130 O   0  0  0  0  0  0  0  0  0  0  0  0
  193.5950  176.8990  137.5920 O   0  0  0  0  0  0  0  0  0  0  0  0
  193.4820  174.2210  137.4260 C   0  0  1  0  0  3  0  0  0  0  0  0
  195.3460  173.0390  138.5310 C   0  0  0  0  0  2  0  0  0  0  0  0
  194.3460  172.0250  136.5650 C   0  0  0  0  0  3  0  0  0  0  0  0
  195.1770  171.9750  137.5550 N   0  0  0  0  0  0  0  0  0  0  0  0
  193.5330  173.2520  136.2470 C   0  0  0  0  0  2  0  0  0  0  0  0
  194.8820  174.3900  137.9940 C   0  0  0  0  0  2  0  0  0  0  0  0
  190.3390  175.5710  136.1540 C   0  0  0  0  0  2  0  0  0  0  0  0
  190.0340  173.6480  137.5370 O   0  0  0  0  0  1  0  0  0  0  0  0
  189.7310  174.1850  136.2850 C   0  0  0  0  0  2  0  0  0  0  0  0
  185.1350  178.5470  144.0450 O   0  0  0  0  0  0  0  0  0  0  0  0
  181.5780  179.0660  143.1880 C   0  0  0  0  0  3  0  0  0  0  0  0
  181.5610  178.7820  141.8140 C   0  0  0  0  0  0  0  0  0  0  0  0
  183.9400  178.3250  141.8990 C   0  0  0  0  0  3  0  0  0  0  0  0
  182.7710  178.9790  143.9110 C   0  0  0  0  0  3  0  0  0  0  0  0
  183.9610  178.6020  143.2760 C   0  0  0  0  0  0  0  0  0  0  0  0
  182.7480  178.4120  141.1760 C   0  0  0  0  0  3  0  0  0  0  0  0
  180.3850  178.8610  141.0630 O   0  0  0  0  0  0  0  0  0  0  0  0
  179.2080  179.4980  141.5450 C   0  0  0  0  0  1  0  0  0  0  0  0
  1  8  1  0  0  0  0
  1  6  2  0  0  0  0
  2 12  1  0  0  0  0
  3 14  2  0  0  0  0
  3 10  1  0  0  0  0
  4 15  1  0  0  0  0
  4  8  1  0  0  0  0
  5  1  1  0  0  0  0
  7  4  2  0  0  0  0
  9  7  1  0  0  0  0
  9  5  2  0  0  0  0
 10 11  2  0  0  0  0
 11  2  1  0  0  0  0
 11  7  1  0  0  0  0
 12 15  2  0  0  0  0
 13 35  1  0  0  0  0
 13  2  2  0  0  0  0
 14 13  1  0  0  0  0
 16 17  1  6  0  0  0
 16  3  1  0  0  0  0
 18 16  1  0  0  0  0
 19 18  1  0  0  0  0
 19 20  2  0  0  0  0
 21 19  1  0  0  0  0
 22 21  1  0  0  0  0
 23 22  1  0  0  0  0
 23 25  2  0  0  0  0
 24 23  2  0  0  0  0
 26 23  1  6  0  0  0
 26 31  1  0  0  0  0
 28 29  2  0  0  0  0
 29 27  1  0  0  0  0
 30 28  1  0  0  0  0
 30 26  1  0  0  0  0
 31 27  1  0  0  0  0
 32 34  1  0  0  0  0
 32 22  1  0  0  0  0
 34 33  1  0  0  0  0
 36 39  1  0  0  0  0
 37 36  2  0  0  0  0
 38 40  1  0  0  0  0
 40 39  2  0  0  0  0
 40 35  1  0  0  0  0
 41 37  1  0  0  0  0
 41 38  2  0  0  0  0
 42 43  1  0  0  0  0
 42 37  1  0  0  0  0
M  END
>  <MODEL>
3

>  <REMARK>
 VINA RESULT:      -8.9      1.525      1.981
  Name = 
  12 active torsions:
  status: ('A' for Active; 'I' for Inactive)
    1  A    between atoms: O_1  and  C_34
    2  A    between atoms: O_1  and  C_35
    3  A    between atoms: C_2  and  C_6
    4  A    between atoms: C_2  and  C_13
    5  A    between atoms: C_3  and  N_4
    6  A    between atoms: C_3  and  C_12
    7  A    between atoms: N_4  and  S_14
    8  A    between atoms: N_4  and  C_15
    9  A    between atoms: C_6  and  C_12
   10  A    between atoms: C_11  and  S_14
   11  A    between atoms: C_15  and  C_42
   12  A    between atoms: C_19  and  O_25
                            x       y       z     vdW  Elec       q    Type
                         _______ _______ _______ _____ _____    ______ ____

>  <TORSDO>
F 12

$$$$
=
 OpenBabel11052416273D

 43 47  0  0  1  0  0  0  0  0999 V2000
  191.2820  176.4490  146.6710 C   0  0  0  0  0  0  0  0  0  0  0  0
  189.5240  177.6250  142.1340 C   0  0  0  0  0  0  0  0  0  0  0  0
  186.8300  178.3660  142.4130 C   0  0  0  0  0  0  0  0  0  0  0  0
  191.0350  176.8650  144.3470 C   0  0  0  0  0  0  0  0  0  0  0  0
  189.9490  176.7940  146.8990 C   0  0  0  0  0  3  0  0  0  0  0  0
  192.2290  175.9930  147.9180 S   0  0  0  0  0  0  0  0  0  0  0  0
  189.6820  177.2240  144.5280 C   0  0  0  0  0  0  0  0  0  0  0  0
  191.7940  176.4910  145.4110 N   0  0  0  0  0  2  0  0  0  0  0  0
  189.1480  177.1810  145.8230 C   0  0  0  0  0  3  0  0  0  0  0  0
  187.5690  177.9790  143.5380 C   0  0  0  0  0  3  0  0  0  0  0  0
  188.9140  177.6090  143.4130 C   0  0  0  0  0  0  0  0  0  0  0  0
  190.8330  177.2720  142.0020 N   0  0  0  0  0  0  0  0  0  0  0  0
  188.7830  178.0020  141.0000 C   0  0  0  0  0  0  0  0  0  0  0  0
  187.4400  178.3760  141.1570 C   0  0  0  0  0  3  0  0  0  0  0  0
  191.5900  176.8980  143.0680 C   0  0  0  0  0  3  0  0  0  0  0  0
  185.3910  178.7600  142.5260 C   0  0  2  0  0  3  0  0  0  0  0  0
  184.8570  178.4620  143.9180 C   0  0  0  0  0  1  0  0  0  0  0  0
  184.5590  178.0690  141.4500 C   0  0  0  0  0  2  0  0  0  0  0  0
  183.9530  179.0490  140.4950 C   0  0  0  0  0  0  0  0  0  0  0  0
  184.6730  179.7930  139.8470 O   0  0  0  0  0  0  0  0  0  0  0  0
  182.4700  179.0110  140.2360 C   0  0  0  0  0  2  0  0  0  0  0  0
  181.8180  177.7210  140.5120 N   0  0  0  0  0  0  0  0  0  0  0  0
  181.5450  176.8030  139.0570 S   0  0  0  0  0  0  0  0  0  0  0  0
  180.7960  175.5350  139.3660 O   0  0  0  0  0  0  0  0  0  0  0  0
  180.7550  177.6230  138.0740 O   0  0  0  0  0  0  0  0  0  0  0  0
  183.1230  176.3840  138.3440 C   0  0  1  0  0  3  0  0  0  0  0  0
  184.7910  176.9280  136.6080 C   0  0  0  0  0  2  0  0  0  0  0  0
  184.3310  174.5890  137.0670 C   0  0  0  0  0  3  0  0  0  0  0  0
  185.0110  175.4990  136.4500 N   0  0  0  0  0  0  0  0  0  0  0  0
  183.1490  174.9120  137.9440 C   0  0  0  0  0  2  0  0  0  0  0  0
  183.3870  177.2410  137.1160 C   0  0  0  0  0  2  0  0  0  0  0  0
  180.5520  177.9050  141.2150 C   0  0  0  0  0  2  0  0  0  0  0  0
  180.7020  178.6240  143.4870 O   0  0  0  0  0  1  0  0  0  0  0  0
  180.6480  179.0830  142.1700 C   0  0  0  0  0  2  0  0  0  0  0  0
  189.4220  178.0180  139.7470 O   0  0  0  0  0  0  0  0  0  0  0  0
  188.4810  175.5710  137.1420 C   0  0  0  0  0  3  0  0  0  0  0  0
  189.6750  174.8580  136.9610 C   0  0  0  0  0  0  0  0  0  0  0  0
  190.7320  176.2390  138.6500 C   0  0  0  0  0  3  0  0  0  0  0  0
  188.4160  176.6120  138.0720 C   0  0  0  0  0  3  0  0  0  0  0  0
  189.5370  176.9520  138.8380 C   0  0  0  0  0  0  0  0  0  0  0  0
  190.7990  175.1980  137.7200 C   0  0  0  0  0  3  0  0  0  0  0  0
  189.7730  173.8120  136.0380 O   0  0  0  0  0  0  0  0  0  0  0  0
  188.6390  173.1020  135.5610 C   0  0  0  0  0  1  0  0  0  0  0  0
  1  5  1  0  0  0  0
  1  6  2  0  0  0  0
  2 11  1  0  0  0  0
  3 16  1  0  0  0  0
  3 10  1  0  0  0  0
  4  7  2  0  0  0  0
  4  8  1  0  0  0  0
  7  9  1  0  0  0  0
  8  1  1  0  0  0  0
  9  5  2  0  0  0  0
 11 10  2  0  0  0  0
 11  7  1  0  0  0  0
 12  2  1  0  0  0  0
 12 15  2  0  0  0  0
 13 14  1  0  0  0  0
 13  2  2  0  0  0  0
 14  3  2  0  0  0  0
 15  4  1  0  0  0  0
 16 17  1  1  0  0  0
 18 16  1  0  0  0  0
 19 18  1  0  0  0  0
 20 19  2  0  0  0  0
 21 19  1  0  0  0  0
 21 22  1  0  0  0  0
 22 32  1  0  0  0  0
 23 24  2  0  0  0  0
 23 22  1  0  0  0  0
 25 23  2  0  0  0  0
 26 23  1  6  0  0  0
 27 31  1  0  0  0  0
 28 30  1  0  0  0  0
 29 27  1  0  0  0  0
 29 28  2  0  0  0  0
 30 26  1  0  0  0  0
 31 26  1  0  0  0  0
 32 34  1  0  0  0  0
 34 33  1  0  0  0  0
 35 13  1  0  0  0  0
 36 39  1  0  0  0  0
 37 36  2  0  0  0  0
 37 41  1  0  0  0  0
 38 40  1  0  0  0  0
 39 40  2  0  0  0  0
 40 35  1  0  0  0  0
 41 38  2  0  0  0  0
 42 37  1  0  0  0  0
 43 42  1  0  0  0  0
M  END
>  <MODEL>
4

>  <REMARK>
 VINA RESULT:      -8.8      3.126      7.516
  Name = 
  12 active torsions:
  status: ('A' for Active; 'I' for Inactive)
    1  A    between atoms: O_1  and  C_34
    2  A    between atoms: O_1  and  C_35
    3  A    between atoms: C_2  and  C_6
    4  A    between atoms: C_2  and  C_13
    5  A    between atoms: C_3  and  N_4
    6  A    between atoms: C_3  and  C_12
    7  A    between atoms: N_4  and  S_14
    8  A    between atoms: N_4  and  C_15
    9  A    between atoms: C_6  and  C_12
   10  A    between atoms: C_11  and  S_14
   11  A    between atoms: C_15  and  C_42
   12  A    between atoms: C_19  and  O_25
                            x       y       z     vdW  Elec       q    Type
                         _______ _______ _______ _____ _____    ______ ____

>  <TORSDO>
F 12

$$$$
=
 OpenBabel11052416273D

 43 47  0  0  1  0  0  0  0  0999 V2000
  191.5880  176.4080  147.2780 C   0  0  0  0  0  0  0  0  0  0  0  0
  187.4260  177.7490  144.8420 C   0  0  0  0  0  0  0  0  0  0  0  0
  188.0550  177.9820  142.1140 C   0  0  0  0  0  0  0  0  0  0  0  0
  189.3680  177.0190  146.6990 C   0  0  0  0  0  0  0  0  0  0  0  0
  191.9890  176.5080  145.9450 C   0  0  0  0  0  3  0  0  0  0  0  0
  192.6710  175.9860  148.4230 S   0  0  0  0  0  0  0  0  0  0  0  0
  189.7260  177.1320  145.3390 C   0  0  0  0  0  0  0  0  0  0  0  0
  190.2980  176.6630  147.6260 N   0  0  0  0  0  2  0  0  0  0  0  0
  191.0540  176.8720  144.9740 C   0  0  0  0  0  3  0  0  0  0  0  0
  189.0490  177.6220  143.0330 C   0  0  0  0  0  3  0  0  0  0  0  0
  188.7480  177.5000  144.3960 C   0  0  0  0  0  0  0  0  0  0  0  0
  187.1230  177.6280  146.1640 N   0  0  0  0  0  0  0  0  0  0  0  0
  186.4280  178.1220  143.9250 C   0  0  0  0  0  0  0  0  0  0  0  0
  186.7560  178.2280  142.5650 C   0  0  0  0  0  3  0  0  0  0  0  0
  188.0540  177.2730  147.0890 C   0  0  0  0  0  3  0  0  0  0  0  0
  188.3570  178.1210  140.6560 C   0  0  2  0  0  3  0  0  0  0  0  0
  187.0750  178.2510  139.8490 C   0  0  0  0  0  1  0  0  0  0  0  0
  189.2050  176.9500  140.1690 C   0  0  0  0  0  2  0  0  0  0  0  0
  190.0490  177.3210  138.9890 C   0  0  0  0  0  0  0  0  0  0  0  0
  189.9150  178.4170  138.4660 O   0  0  0  0  0  0  0  0  0  0  0  0
  191.1520  176.3970  138.5470 C   0  0  0  0  0  2  0  0  0  0  0  0
  191.2830  176.2300  137.0900 N   0  0  0  0  0  0  0  0  0  0  0  0
  190.3200  174.9060  136.4970 S   0  0  0  0  0  0  0  0  0  0  0  0
  191.0090  174.2270  135.3440 O   0  0  0  0  0  0  0  0  0  0  0  0
  190.0880  173.9060  137.5980 O   0  0  0  0  0  0  0  0  0  0  0  0
  188.7530  175.5450  135.9400 C   0  0  1  0  0  3  0  0  0  0  0  0
  187.5750  177.4480  134.8990 C   0  0  0  0  0  2  0  0  0  0  0  0
  186.4970  176.2990  136.7460 C   0  0  0  0  0  3  0  0  0  0  0  0
  186.4710  177.1910  135.8100 N   0  0  0  0  0  0  0  0  0  0  0  0
  187.7300  175.4960  137.0710 C   0  0  0  0  0  2  0  0  0  0  0  0
  188.9110  176.9820  135.4700 C   0  0  0  0  0  2  0  0  0  0  0  0
  192.6750  176.0310  136.7010 C   0  0  0  0  0  2  0  0  0  0  0  0
  194.0340  174.3360  137.6930 O   0  0  0  0  0  1  0  0  0  0  0  0
  193.5010  175.6080  137.9040 C   0  0  0  0  0  2  0  0  0  0  0  0
  185.1230  178.3510  144.4000 O   0  0  0  0  0  0  0  0  0  0  0  0
  181.6350  179.2400  143.5630 C   0  0  0  0  0  3  0  0  0  0  0  0
  181.5990  179.0240  142.1770 C   0  0  0  0  0  0  0  0  0  0  0  0
  183.9260  178.3440  142.2440 C   0  0  0  0  0  3  0  0  0  0  0  0
  182.8100  179.0070  144.2820 C   0  0  0  0  0  3  0  0  0  0  0  0
  183.9630  178.5520  143.6320 C   0  0  0  0  0  0  0  0  0  0  0  0
  182.7510  178.5750  141.5230 C   0  0  0  0  0  3  0  0  0  0  0  0
  180.4400  179.2480  141.4290 O   0  0  0  0  0  0  0  0  0  0  0  0
  180.4710  179.6050  140.0530 C   0  0  0  0  0  1  0  0  0  0  0  0
  1  8  1  0  0  0  0
  1  6  2  0  0  0  0
  2 12  1  0  0  0  0
  3 14  2  0  0  0  0
  3 10  1  0  0  0  0
  4 15  1  0  0  0  0
  4  8  1  0  0  0  0
  5  1  1  0  0  0  0
  7  4  2  0  0  0  0
  9  7  1  0  0  0  0
  9  5  2  0  0  0  0
 10 11  2  0  0  0  0
 11  2  1  0  0  0  0
 11  7  1  0  0  0  0
 12 15  2  0  0  0  0
 13 35  1  0  0  0  0
 13  2  2  0  0  0  0
 14 13  1  0  0  0  0
 16 17  1  6  0  0  0
 16  3  1  0  0  0  0
 18 16  1  0  0  0  0
 19 18  1  0  0  0  0
 20 19  2  0  0  0  0
 21 19  1  0  0  0  0
 22 21  1  0  0  0  0
 23 22  1  0  0  0  0
 23 25  2  0  0  0  0
 24 23  2  0  0  0  0
 26 23  1  1  0  0  0
 26 30  1  0  0  0  0
 27 31  1  0  0  0  0
 27 29  1  0  0  0  0
 28 30  1  0  0  0  0
 29 28  2  0  0  0  0
 31 26  1  0  0  0  0
 32 22  1  0  0  0  0
 32 34  1  0  0  0  0
 33 34  1  0  0  0  0
 36 39  1  0  0  0  0
 37 36  2  0  0  0  0
 38 40  1  0  0  0  0
 40 39  2  0  0  0  0
 40 35  1  0  0  0  0
 41 37  1  0  0  0  0
 41 38  2  0  0  0  0
 42 37  1  0  0  0  0
 43 42  1  0  0  0  0
M  END
>  <MODEL>
5

>  <REMARK>
 VINA RESULT:      -8.6      1.184      3.059
  Name = 
  12 active torsions:
  status: ('A' for Active; 'I' for Inactive)
    1  A    between atoms: O_1  and  C_34
    2  A    between atoms: O_1  and  C_35
    3  A    between atoms: C_2  and  C_6
    4  A    between atoms: C_2  and  C_13
    5  A    between atoms: C_3  and  N_4
    6  A    between atoms: C_3  and  C_12
    7  A    between atoms: N_4  and  S_14
    8  A    between atoms: N_4  and  C_15
    9  A    between atoms: C_6  and  C_12
   10  A    between atoms: C_11  and  S_14
   11  A    between atoms: C_15  and  C_42
   12  A    between atoms: C_19  and  O_25
                            x       y       z     vdW  Elec       q    Type
                         _______ _______ _______ _____ _____    ______ ____

>  <TORSDO>
F 12

$$$$
=
 OpenBabel11052416273D

 43 47  0  0  1  0  0  0  0  0999 V2000
  191.2540  176.4900  146.5890 C   0  0  0  0  0  0  0  0  0  0  0  0
  189.1480  177.8770  142.2650 C   0  0  0  0  0  0  0  0  0  0  0  0
  186.4460  178.4600  142.7640 C   0  0  0  0  0  0  0  0  0  0  0  0
  190.8350  177.0480  144.3200 C   0  0  0  0  0  0  0  0  0  0  0  0
  189.9240  176.7500  146.9240 C   0  0  0  0  0  3  0  0  0  0  0  0
  192.3010  176.0000  147.7400 S   0  0  0  0  0  0  0  0  0  0  0  0
  189.4810  177.3240  144.6100 C   0  0  0  0  0  0  0  0  0  0  0  0
  191.6790  176.6430  145.3060 N   0  0  0  0  0  2  0  0  0  0  0  0
  189.0370  177.1680  145.9310 C   0  0  0  0  0  3  0  0  0  0  0  0
  187.2750  178.0360  143.8110 C   0  0  0  0  0  3  0  0  0  0  0  0
  188.6250  177.7440  143.5760 C   0  0  0  0  0  0  0  0  0  0  0  0
  190.4600  177.6010  142.0280 N   0  0  0  0  0  0  0  0  0  0  0  0
  188.3170  178.2910  141.2090 C   0  0  0  0  0  0  0  0  0  0  0  0
  186.9710  178.5850  141.4760 C   0  0  0  0  0  3  0  0  0  0  0  0
  191.3030  177.1950  143.0150 C   0  0  0  0  0  3  0  0  0  0  0  0
  185.0010  178.7710  142.9940 C   0  0  2  0  0  3  0  0  0  0  0  0
  184.6460  178.6290  144.4660 C   0  0  0  0  0  1  0  0  0  0  0  0
  184.1150  177.8880  142.1200 C   0  0  0  0  0  2  0  0  0  0  0  0
  182.9180  178.6280  141.6100 C   0  0  0  0  0  0  0  0  0  0  0  0
  182.0270  178.9520  142.3810 O   0  0  0  0  0  0  0  0  0  0  0  0
  182.8880  179.0900  140.1770 C   0  0  0  0  0  2  0  0  0  0  0  0
  182.0440  178.2870  139.2770 N   0  0  0  0  0  0  0  0  0  0  0  0
  182.9470  177.6570  137.9270 S   0  0  0  0  0  0  0  0  0  0  0  0
  182.3020  178.0580  136.6270 O   0  0  0  0  0  0  0  0  0  0  0  0
  184.3580  178.1780  137.9650 O   0  0  0  0  0  0  0  0  0  0  0  0
  182.9710  175.8790  138.0370 C   0  0  1  0  0  3  0  0  0  0  0  0
  184.2210  173.8150  137.5180 C   0  0  0  0  0  2  0  0  0  0  0  0
  181.8120  173.8060  137.2180 C   0  0  0  0  0  3  0  0  0  0  0  0
  182.9460  173.1850  137.2170 N   0  0  0  0  0  0  0  0  0  0  0  0
  181.7010  175.2940  137.4250 C   0  0  0  0  0  2  0  0  0  0  0  0
  184.1810  175.3250  137.3020 C   0  0  0  0  0  2  0  0  0  0  0  0
  180.9080  179.0590  138.7840 C   0  0  0  0  0  2  0  0  0  0  0  0
  181.4000  181.1580  137.7560 O   0  0  0  0  0  1  0  0  0  0  0  0
  181.1560  180.5440  138.9850 C   0  0  0  0  0  2  0  0  0  0  0  0
  188.8710  178.4230  139.9230 O   0  0  0  0  0  0  0  0  0  0  0  0
  189.7720  175.6330  137.6730 C   0  0  0  0  0  3  0  0  0  0  0  0
  188.6800  175.6010  136.7910 C   0  0  0  0  0  0  0  0  0  0  0  0
  187.6890  177.4660  137.9820 C   0  0  0  0  0  3  0  0  0  0  0  0
  189.8180  176.5780  138.7010 C   0  0  0  0  0  3  0  0  0  0  0  0
  188.7830  177.5060  138.8620 C   0  0  0  0  0  0  0  0  0  0  0  0
  187.6410  176.5220  136.9520 C   0  0  0  0  0  3  0  0  0  0  0  0
  188.6030  174.6680  135.7530 O   0  0  0  0  0  0  0  0  0  0  0  0
  187.4390  173.8920  135.5040 C   0  0  0  0  0  1  0  0  0  0  0  0
  1  5  1  0  0  0  0
  1  6  2  0  0  0  0
  2 11  1  0  0  0  0
  3 16  1  0  0  0  0
  3 10  1  0  0  0  0
  4  7  2  0  0  0  0
  4  8  1  0  0  0  0
  7  9  1  0  0  0  0
  8  1  1  0  0  0  0
  9  5  2  0  0  0  0
 11 10  2  0  0  0  0
 11  7  1  0  0  0  0
 12  2  1  0  0  0  0
 12 15  2  0  0  0  0
 13 14  1  0  0  0  0
 13  2  2  0  0  0  0
 14  3  2  0  0  0  0
 15  4  1  0  0  0  0
 16 17  1  1  0  0  0
 18 16  1  0  0  0  0
 19 18  1  0  0  0  0
 19 20  2  0  0  0  0
 21 19  1  0  0  0  0
 22 21  1  0  0  0  0
 23 25  2  0  0  0  0
 23 22  1  0  0  0  0
 24 23  2  0  0  0  0
 26 23  1  6  0  0  0
 28 30  1  0  0  0  0
 29 28  2  0  0  0  0
 29 27  1  0  0  0  0
 30 26  1  0  0  0  0
 31 27  1  0  0  0  0
 31 26  1  0  0  0  0
 32 34  1  0  0  0  0
 32 22  1  0  0  0  0
 33 34  1  0  0  0  0
 35 13  1  0  0  0  0
 36 39  1  0  0  0  0
 37 41  1  0  0  0  0
 37 36  2  0  0  0  0
 38 40  1  0  0  0  0
 39 40  2  0  0  0  0
 40 35  1  0  0  0  0
 41 38  2  0  0  0  0
 42 37  1  0  0  0  0
 43 42  1  0  0  0  0
M  END
>  <MODEL>
6

>  <REMARK>
 VINA RESULT:      -8.6      3.392      7.293
  Name = 
  12 active torsions:
  status: ('A' for Active; 'I' for Inactive)
    1  A    between atoms: O_1  and  C_34
    2  A    between atoms: O_1  and  C_35
    3  A    between atoms: C_2  and  C_6
    4  A    between atoms: C_2  and  C_13
    5  A    between atoms: C_3  and  N_4
    6  A    between atoms: C_3  and  C_12
    7  A    between atoms: N_4  and  S_14
    8  A    between atoms: N_4  and  C_15
    9  A    between atoms: C_6  and  C_12
   10  A    between atoms: C_11  and  S_14
   11  A    between atoms: C_15  and  C_42
   12  A    between atoms: C_19  and  O_25
                            x       y       z     vdW  Elec       q    Type
                         _______ _______ _______ _____ _____    ______ ____

>  <TORSDO>
F 12

$$$$
=
 OpenBabel11052416273D

 43 47  0  0  1  0  0  0  0  0999 V2000
  181.2070  179.0660  141.7620 C   0  0  0  0  0  0  0  0  0  0  0  0
  185.5830  178.3670  144.0890 C   0  0  0  0  0  0  0  0  0  0  0  0
  187.5250  177.8140  142.1370 C   0  0  0  0  0  0  0  0  0  0  0  0
  182.9350  178.8500  143.3760 C   0  0  0  0  0  0  0  0  0  0  0  0
  182.1040  178.7910  140.7290 C   0  0  0  0  0  3  0  0  0  0  0  0
  179.6390  179.3590  141.4210 S   0  0  0  0  0  0  0  0  0  0  0  0
  183.8790  178.5680  142.3650 C   0  0  0  0  0  0  0  0  0  0  0  0
  181.6360  179.0900  143.0530 N   0  0  0  0  0  2  0  0  0  0  0  0
  183.4440  178.5410  141.0330 C   0  0  0  0  0  3  0  0  0  0  0  0
  186.1970  178.0450  141.7570 C   0  0  0  0  0  3  0  0  0  0  0  0
  185.2190  178.3250  142.7210 C   0  0  0  0  0  0  0  0  0  0  0  0
  184.6410  178.6430  145.0330 N   0  0  0  0  0  0  0  0  0  0  0  0
  186.9130  178.1240  144.4770 C   0  0  0  0  0  0  0  0  0  0  0  0
  187.8730  177.8560  143.4890 C   0  0  0  0  0  3  0  0  0  0  0  0
  183.3420  178.8830  144.7090 C   0  0  0  0  0  3  0  0  0  0  0  0
  188.5820  177.5100  141.1240 C   0  0  2  0  0  3  0  0  0  0  0  0
  189.9250  177.2750  141.7980 C   0  0  0  0  0  1  0  0  0  0  0  0
  188.6680  178.6250  140.0860 C   0  0  0  0  0  2  0  0  0  0  0  0
  188.1950  178.1750  138.7390 C   0  0  0  0  0  0  0  0  0  0  0  0
  187.8240  178.9980  137.9160 O   0  0  0  0  0  0  0  0  0  0  0  0
  188.3140  176.7220  138.3600 C   0  0  0  0  0  2  0  0  0  0  0  0
  188.7180  176.4700  136.9670 N   0  0  0  0  0  0  0  0  0  0  0  0
  187.3580  176.0610  135.9580 S   0  0  0  0  0  0  0  0  0  0  0  0
  186.8880  177.2690  135.1920 O   0  0  0  0  0  0  0  0  0  0  0  0
  187.7440  174.9760  134.9900 O   0  0  0  0  0  0  0  0  0  0  0  0
  186.0310  175.4820  136.9960 C   0  0  1  0  0  3  0  0  0  0  0  0
  184.5690  173.5800  137.5750 C   0  0  0  0  0  2  0  0  0  0  0  0
  183.5880  175.7990  137.4870 C   0  0  0  0  0  3  0  0  0  0  0  0
  183.4860  174.5350  137.7420 N   0  0  0  0  0  0  0  0  0  0  0  0
  184.8240  176.4080  136.8760 C   0  0  0  0  0  2  0  0  0  0  0  0
  185.6250  174.0750  136.5910 C   0  0  0  0  0  2  0  0  0  0  0  0
  189.7170  175.4090  136.8870 C   0  0  0  0  0  2  0  0  0  0  0  0
  191.6490  174.5110  137.9670 O   0  0  0  0  0  1  0  0  0  0  0  0
  190.7480  175.5760  137.9910 C   0  0  0  0  0  2  0  0  0  0  0  0
  187.2420  178.1860  145.8430 O   0  0  0  0  0  0  0  0  0  0  0  0
  189.8740  177.8530  148.4170 C   0  0  0  0  0  3  0  0  0  0  0  0
  190.8640  177.1290  147.7350 C   0  0  0  0  0  0  0  0  0  0  0  0
  189.4550  177.1000  145.7620 C   0  0  0  0  0  3  0  0  0  0  0  0
  188.6820  178.1960  147.7720 C   0  0  0  0  0  3  0  0  0  0  0  0
  188.4640  177.8300  146.4390 C   0  0  0  0  0  0  0  0  0  0  0  0
  190.6470  176.7560  146.4060 C   0  0  0  0  0  3  0  0  0  0  0  0
  192.0650  176.7690  148.3520 O   0  0  0  0  0  0  0  0  0  0  0  0
  192.8200  175.6310  147.9570 C   0  0  0  0  0  1  0  0  0  0  0  0
  1  8  1  0  0  0  0
  2 13  1  0  0  0  0
  2 12  1  0  0  0  0
  3 14  1  0  0  0  0
  4 15  1  0  0  0  0
  5  9  2  0  0  0  0
  5  1  1  0  0  0  0
  6  1  2  0  0  0  0
  7 11  1  0  0  0  0
  7  4  2  0  0  0  0
  8  4  1  0  0  0  0
  9  7  1  0  0  0  0
 10  3  2  0  0  0  0
 10 11  1  0  0  0  0
 11  2  2  0  0  0  0
 13 35  1  0  0  0  0
 14 13  2  0  0  0  0
 15 12  2  0  0  0  0
 16 17  1  1  0  0  0
 16  3  1  0  0  0  0
 18 16  1  0  0  0  0
 19 18  1  0  0  0  0
 20 19  2  0  0  0  0
 21 19  1  0  0  0  0
 22 21  1  0  0  0  0
 23 22  1  0  0  0  0
 24 23  2  0  0  0  0
 25 23  2  0  0  0  0
 26 23  1  6  0  0  0
 27 29  1  0  0  0  0
 28 29  2  0  0  0  0
 30 26  1  0  0  0  0
 30 28  1  0  0  0  0
 31 26  1  0  0  0  0
 31 27  1  0  0  0  0
 32 22  1  0  0  0  0
 32 34  1  0  0  0  0
 33 34  1  0  0  0  0
 35 40  1  0  0  0  0
 37 42  1  0  0  0  0
 37 36  2  0  0  0  0
 38 41  2  0  0  0  0
 38 40  1  0  0  0  0
 39 36  1  0  0  0  0
 40 39  2  0  0  0  0
 41 37  1  0  0  0  0
 43 42  1  0  0  0  0
M  END
>  <MODEL>
7

>  <REMARK>
 VINA RESULT:      -8.6      3.345      7.459
  Name = 
  12 active torsions:
  status: ('A' for Active; 'I' for Inactive)
    1  A    between atoms: O_1  and  C_34
    2  A    between atoms: O_1  and  C_35
    3  A    between atoms: C_2  and  C_6
    4  A    between atoms: C_2  and  C_13
    5  A    between atoms: C_3  and  N_4
    6  A    between atoms: C_3  and  C_12
    7  A    between atoms: N_4  and  S_14
    8  A    between atoms: N_4  and  C_15
    9  A    between atoms: C_6  and  C_12
   10  A    between atoms: C_11  and  S_14
   11  A    between atoms: C_15  and  C_42
   12  A    between atoms: C_19  and  O_25
                            x       y       z     vdW  Elec       q    Type
                         _______ _______ _______ _____ _____    ______ ____

>  <TORSDO>
F 12

$$$$
=
 OpenBabel11052416273D

 43 47  0  0  1  0  0  0  0  0999 V2000
  187.8020  177.6370  147.1190 C   0  0  0  0  0  0  0  0  0  0  0  0
  186.0700  178.6520  142.5340 C   0  0  0  0  0  0  0  0  0  0  0  0
  188.0160  177.8510  140.6740 C   0  0  0  0  0  0  0  0  0  0  0  0
  186.4850  178.3260  145.2690 C   0  0  0  0  0  0  0  0  0  0  0  0
  188.8260  177.2190  146.2670 C   0  0  0  0  0  3  0  0  0  0  0  0
  187.9740  177.4780  148.7340 S   0  0  0  0  0  0  0  0  0  0  0  0
  187.4910  177.9170  144.3660 C   0  0  0  0  0  0  0  0  0  0  0  0
  186.6630  178.1770  146.6090 N   0  0  0  0  0  2  0  0  0  0  0  0
  188.6680  177.3610  144.8870 C   0  0  0  0  0  3  0  0  0  0  0  0
  188.2500  177.6860  142.0460 C   0  0  0  0  0  3  0  0  0  0  0  0
  187.2850  178.0790  142.9840 C   0  0  0  0  0  0  0  0  0  0  0  0
  185.1250  179.0320  143.4380 N   0  0  0  0  0  0  0  0  0  0  0  0
  185.8360  178.8300  141.1590 C   0  0  0  0  0  0  0  0  0  0  0  0
  186.8160  178.4190  140.2420 C   0  0  0  0  0  3  0  0  0  0  0  0
  185.3050  178.8830  144.7770 C   0  0  0  0  0  3  0  0  0  0  0  0
  189.0350  177.4420  139.6580 C   0  0  2  0  0  3  0  0  0  0  0  0
  190.2480  176.8190  140.3300 C   0  0  0  0  0  1  0  0  0  0  0  0
  189.4300  178.6300  138.7860 C   0  0  0  0  0  2  0  0  0  0  0  0
  188.8450  178.5350  137.4110 C   0  0  0  0  0  0  0  0  0  0  0  0
  188.0160  179.3530  137.0440 O   0  0  0  0  0  0  0  0  0  0  0  0
  189.3880  177.5160  136.4430 C   0  0  0  0  0  2  0  0  0  0  0  0
  188.8380  176.1580  136.5890 N   0  0  0  0  0  0  0  0  0  0  0  0
  190.0760  174.9380  136.4740 S   0  0  0  0  0  0  0  0  0  0  0  0
  189.9400  173.9410  137.5930 O   0  0  0  0  0  0  0  0  0  0  0  0
  189.9710  174.2240  135.1540 O   0  0  0  0  0  0  0  0  0  0  0  0
  191.6680  175.7290  136.5920 C   0  0  1  0  0  3  0  0  0  0  0  0
  193.7850  176.2450  135.4340 C   0  0  0  0  0  2  0  0  0  0  0  0
  193.8810  175.6070  137.7740 C   0  0  0  0  0  3  0  0  0  0  0  0
  194.4680  176.0200  136.6980 N   0  0  0  0  0  0  0  0  0  0  0  0
  192.4300  175.2040  137.8060 C   0  0  0  0  0  2  0  0  0  0  0  0
  192.4810  175.4590  135.3370 C   0  0  0  0  0  2  0  0  0  0  0  0
  187.8020  175.8950  135.5960 C   0  0  0  0  0  2  0  0  0  0  0  0
  186.0200  176.5700  137.0360 O   0  0  0  0  0  1  0  0  0  0  0  0
  186.5050  175.5010  136.2820 C   0  0  0  0  0  2  0  0  0  0  0  0
  184.6140  179.3920  140.7460 O   0  0  0  0  0  0  0  0  0  0  0  0
  181.9640  178.9800  138.2030 C   0  0  0  0  0  3  0  0  0  0  0  0
  181.6270  177.6250  138.3450 C   0  0  0  0  0  0  0  0  0  0  0  0
  183.2790  177.4190  140.1070 C   0  0  0  0  0  3  0  0  0  0  0  0
  182.9540  179.5480  139.0110 C   0  0  0  0  0  3  0  0  0  0  0  0
  183.6150  178.7760  139.9730 C   0  0  0  0  0  0  0  0  0  0  0  0
  182.2900  176.8500  139.3010 C   0  0  0  0  0  3  0  0  0  0  0  0
  180.6430  177.0280  137.5520 O   0  0  0  0  0  0  0  0  0  0  0  0
  180.2750  175.6610  137.6850 C   0  0  0  0  0  1  0  0  0  0  0  0
  1  6  2  0  0  0  0
  2 11  1  0  0  0  0
  2 12  1  0  0  0  0
  3 10  1  0  0  0  0
  4  8  1  0  0  0  0
  5  1  1  0  0  0  0
  7  9  1  0  0  0  0
  7  4  2  0  0  0  0
  8  1  1  0  0  0  0
  9  5  2  0  0  0  0
 10 11  2  0  0  0  0
 11  7  1  0  0  0  0
 12 15  2  0  0  0  0
 13  2  2  0  0  0  0
 14  3  2  0  0  0  0
 14 13  1  0  0  0  0
 15  4  1  0  0  0  0
 16 17  1  1  0  0  0
 16  3  1  0  0  0  0
 18 16  1  0  0  0  0
 19 18  1  0  0  0  0
 20 19  2  0  0  0  0
 21 22  1  0  0  0  0
 21 19  1  0  0  0  0
 23 22  1  0  0  0  0
 23 24  2  0  0  0  0
 25 23  2  0  0  0  0
 26 23  1  6  0  0  0
 26 30  1  0  0  0  0
 27 29  1  0  0  0  0
 28 30  1  0  0  0  0
 29 28  2  0  0  0  0
 31 27  1  0  0  0  0
 31 26  1  0  0  0  0
 32 34  1  0  0  0  0
 32 22  1  0  0  0  0
 34 33  1  0  0  0  0
 35 13  1  0  0  0  0
 36 37  2  0  0  0  0
 36 39  1  0  0  0  0
 37 41  1  0  0  0  0
 39 40  2  0  0  0  0
 40 38  1  0  0  0  0
 40 35  1  0  0  0  0
 41 38  2  0  0  0  0
 42 43  1  0  0  0  0
 42 37  1  0  0  0  0
M  END
>  <MODEL>
8

>  <REMARK>
 VINA RESULT:      -8.4      2.162      2.994
  Name = 
  12 active torsions:
  status: ('A' for Active; 'I' for Inactive)
    1  A    between atoms: O_1  and  C_34
    2  A    between atoms: O_1  and  C_35
    3  A    between atoms: C_2  and  C_6
    4  A    between atoms: C_2  and  C_13
    5  A    between atoms: C_3  and  N_4
    6  A    between atoms: C_3  and  C_12
    7  A    between atoms: N_4  and  S_14
    8  A    between atoms: N_4  and  C_15
    9  A    between atoms: C_6  and  C_12
   10  A    between atoms: C_11  and  S_14
   11  A    between atoms: C_15  and  C_42
   12  A    between atoms: C_19  and  O_25
                            x       y       z     vdW  Elec       q    Type
                         _______ _______ _______ _____ _____    ______ ____

>  <TORSDO>
F 12

$$$$
=
 OpenBabel11052416273D

 43 47  0  0  1  0  0  0  0  0999 V2000
  190.6160  176.7760  146.2380 C   0  0  0  0  0  0  0  0  0  0  0  0
  189.2700  177.8460  141.5370 C   0  0  0  0  0  0  0  0  0  0  0  0
  186.5680  178.6130  141.5610 C   0  0  0  0  0  0  0  0  0  0  0  0
  190.5760  177.1340  143.8920 C   0  0  0  0  0  0  0  0  0  0  0  0
  189.2710  177.1360  146.3410 C   0  0  0  0  0  3  0  0  0  0  0  0
  191.4460  176.3460  147.5750 S   0  0  0  0  0  0  0  0  0  0  0  0
  189.2150  177.5060  143.9450 C   0  0  0  0  0  0  0  0  0  0  0  0
  191.2360  176.7820  145.0280 N   0  0  0  0  0  2  0  0  0  0  0  0
  188.5700  177.5010  145.1900 C   0  0  0  0  0  3  0  0  0  0  0  0
  187.2030  178.2500  142.7560 C   0  0  0  0  0  3  0  0  0  0  0  0
  188.5510  177.8680  142.7580 C   0  0  0  0  0  0  0  0  0  0  0  0
  190.5820  177.4810  141.5290 N   0  0  0  0  0  0  0  0  0  0  0  0
  188.6340  178.1990  140.3340 C   0  0  0  0  0  0  0  0  0  0  0  0
  187.2850  178.5860  140.3640 C   0  0  0  0  0  3  0  0  0  0  0  0
  191.2410  177.1300  142.6660 C   0  0  0  0  0  3  0  0  0  0  0  0
  185.1290  179.0190  141.5380 C   0  0  2  0  0  3  0  0  0  0  0  0
  184.5170  178.9200  142.9270 C   0  0  0  0  0  1  0  0  0  0  0  0
  184.3510  178.1840  140.5260 C   0  0  0  0  0  2  0  0  0  0  0  0
  183.9990  178.9710  139.3020 C   0  0  0  0  0  0  0  0  0  0  0  0
  184.3830  180.1250  139.1900 O   0  0  0  0  0  0  0  0  0  0  0  0
  183.2980  178.2880  138.1580 C   0  0  0  0  0  2  0  0  0  0  0  0
  181.9620  178.8160  137.8380 N   0  0  0  0  0  0  0  0  0  0  0  0
  180.7530  178.2540  138.9600 S   0  0  0  0  0  0  0  0  0  0  0  0
  179.3860  178.3030  138.3310 O   0  0  0  0  0  0  0  0  0  0  0  0
  181.0590  176.8420  139.3790 O   0  0  0  0  0  0  0  0  0  0  0  0
  180.7700  179.3130  140.3920 C   0  0  1  0  0  3  0  0  0  0  0  0
  180.9240  179.4190  142.8530 C   0  0  0  0  0  2  0  0  0  0  0  0
  179.3470  180.8870  141.7360 C   0  0  0  0  0  3  0  0  0  0  0  0
  179.9400  180.4880  142.8130 N   0  0  0  0  0  0  0  0  0  0  0  0
  179.5320  180.2050  140.4050 C   0  0  0  0  0  2  0  0  0  0  0  0
  180.7960  178.4760  141.6610 C   0  0  0  0  0  2  0  0  0  0  0  0
  181.5640  178.4640  136.4780 C   0  0  0  0  0  2  0  0  0  0  0  0
  182.9260  177.4800  134.7810 O   0  0  0  0  0  1  0  0  0  0  0  0
  182.3190  177.2310  136.0130 C   0  0  0  0  0  2  0  0  0  0  0  0
  189.3800  178.1780  139.1410 O   0  0  0  0  0  0  0  0  0  0  0  0
  190.1380  175.3160  136.9290 C   0  0  0  0  0  3  0  0  0  0  0  0
  189.0800  175.3650  136.0090 C   0  0  0  0  0  0  0  0  0  0  0  0
  188.1960  177.3070  137.1600 C   0  0  0  0  0  3  0  0  0  0  0  0
  190.2220  176.2590  137.9570 C   0  0  0  0  0  3  0  0  0  0  0  0
  189.2580  177.2660  138.0790 C   0  0  0  0  0  0  0  0  0  0  0  0
  188.1110  176.3660  136.1320 C   0  0  0  0  0  3  0  0  0  0  0  0
  188.9660  174.4370  134.9700 O   0  0  0  0  0  0  0  0  0  0  0  0
  188.6310  173.0740  135.1930 C   0  0  0  0  0  1  0  0  0  0  0  0
  1  5  1  0  0  0  0
  1  6  2  0  0  0  0
  2 11  1  0  0  0  0
  3 10  1  0  0  0  0
  4  7  2  0  0  0  0
  4  8  1  0  0  0  0
  7  9  1  0  0  0  0
  8  1  1  0  0  0  0
  9  5  2  0  0  0  0
 10 11  2  0  0  0  0
 11  7  1  0  0  0  0
 12  2  1  0  0  0  0
 12 15  2  0  0  0  0
 13 14  1  0  0  0  0
 13  2  2  0  0  0  0
 14  3  2  0  0  0  0
 15  4  1  0  0  0  0
 16  3  1  0  0  0  0
 16 17  1  1  0  0  0
 18 16  1  0  0  0  0
 19 18  1  0  0  0  0
 20 19  2  0  0  0  0
 21 19  1  0  0  0  0
 22 21  1  0  0  0  0
 22 23  1  0  0  0  0
 23 25  2  0  0  0  0
 24 23  2  0  0  0  0
 26 23  1  6  0  0  0
 26 30  1  0  0  0  0
 26 31  1  0  0  0  0
 28 29  2  0  0  0  0
 29 27  1  0  0  0  0
 30 28  1  0  0  0  0
 31 27  1  0  0  0  0
 32 22  1  0  0  0  0
 33 34  1  0  0  0  0
 34 32  1  0  0  0  0
 35 13  1  0  0  0  0
 36 39  1  0  0  0  0
 37 41  1  0  0  0  0
 37 36  2  0  0  0  0
 38 40  1  0  0  0  0
 39 40  2  0  0  0  0
 40 35  1  0  0  0  0
 41 38  2  0  0  0  0
 42 43  1  0  0  0  0
 42 37  1  0  0  0  0
M  END
>  <MODEL>
9

>  <REMARK>
 VINA RESULT:      -8.3      3.338      8.547
  Name = 
  12 active torsions:
  status: ('A' for Active; 'I' for Inactive)
    1  A    between atoms: O_1  and  C_34
    2  A    between atoms: O_1  and  C_35
    3  A    between atoms: C_2  and  C_6
    4  A    between atoms: C_2  and  C_13
    5  A    between atoms: C_3  and  N_4
    6  A    between atoms: C_3  and  C_12
    7  A    between atoms: N_4  and  S_14
    8  A    between atoms: N_4  and  C_15
    9  A    between atoms: C_6  and  C_12
   10  A    between atoms: C_11  and  S_14
   11  A    between atoms: C_15  and  C_42
   12  A    between atoms: C_19  and  O_25
                            x       y       z     vdW  Elec       q    Type
                         _______ _______ _______ _____ _____    ______ ____

>  <TORSDO>
F 12

$$$$
