=
 OpenBabel11052413483D

 27 31  0  0  1  0  0  0  0  0999 V2000
  190.9120  177.3250  141.8050 O   0  0  0  0  0  0  0  0  0  0  0  0
  188.6090  177.1040  140.9710 C   0  0  1  0  0  3  0  0  0  0  0  0
  188.6230  176.0120  143.2640 C   0  0  0  0  0  2  0  0  0  0  0  0
  185.6080  179.7260  142.3300 N   0  0  0  0  0  0  0  0  0  0  0  0
  183.7450  180.2220  143.6760 F   0  0  0  0  0  0  0  0  0  0  0  0
  188.4750  178.5300  140.4860 C   0  0  0  0  0  3  0  0  0  0  0  0
  186.0490  177.3940  143.7490 C   0  0  0  0  0  3  0  0  0  0  0  0
  190.8430  177.3510  145.9910 C   0  0  0  0  0  0  0  0  0  0  0  0
  184.9820  178.2280  144.0860 C   0  0  0  0  0  3  0  0  0  0  0  0
  190.8680  177.3940  147.7410 Cl  0  0  0  0  0  0  0  0  0  0  0  0
  186.8870  177.7360  142.6820 C   0  0  0  0  0  0  0  0  0  0  0  0
  190.0570  176.5920  140.9270 C   0  0  1  0  0  3  0  0  0  0  0  0
  184.7740  179.4020  143.3560 C   0  0  0  0  0  0  0  0  0  0  0  0
  186.6470  178.9220  141.9770 C   0  0  0  0  0  0  0  0  0  0  0  0
  190.8340  177.2980  143.2070 C   0  0  0  0  0  0  0  0  0  0  0  0
  188.0110  176.9240  142.3030 N   0  0  0  0  0  0  0  0  0  0  0  0
  189.7960  176.7150  145.3260 C   0  0  0  0  0  3  0  0  0  0  0  0
  187.5440  179.3190  140.9340 N   0  0  0  0  0  0  0  0  0  0  0  0
  191.8400  177.9440  145.2840 N   0  0  0  0  0  0  0  0  0  0  0  0
  191.8540  177.9300  143.9250 C   0  0  0  0  0  3  0  0  0  0  0  0
  189.7810  176.6850  143.9300 C   0  0  0  0  0  0  0  0  0  0  0  0
  191.6960  176.4380  136.9550 C   0  0  0  0  0  3  0  0  0  0  0  0
  190.6100  176.5520  139.5350 C   0  0  0  0  0  0  0  0  0  0  0  0
  191.9800  176.7620  139.3370 C   0  0  0  0  0  3  0  0  0  0  0  0
  192.5220  176.7080  138.0500 C   0  0  0  0  0  3  0  0  0  0  0  0
  190.3290  176.2210  137.1460 C   0  0  0  0  0  3  0  0  0  0  0  0
  189.7860  176.2750  138.4330 C   0  0  0  0  0  3  0  0  0  0  0  0
  1 15  1  0  0  0  0
  2  6  1  1  0  0  0
  2 16  1  0  0  0  0
  3 21  1  0  0  0  0
  4 13  1  0  0  0  0
  6 18  2  0  0  0  0
  7  9  1  0  0  0  0
  8 10  1  0  0  0  0
 11  7  2  0  0  0  0
 12 23  1  6  0  0  0
 12  2  1  0  0  0  0
 12  1  1  0  0  0  0
 13  5  1  0  0  0  0
 13  9  2  0  0  0  0
 14  4  2  0  0  0  0
 14 11  1  0  0  0  0
 15 20  2  0  0  0  0
 15 21  1  0  0  0  0
 16 11  1  0  0  0  0
 16  3  1  0  0  0  0
 17  8  1  0  0  0  0
 18 14  1  0  0  0  0
 19  8  2  0  0  0  0
 20 19  1  0  0  0  0
 21 17  2  0  0  0  0
 22 26  2  0  0  0  0
 22 25  1  0  0  0  0
 24 23  1  0  0  0  0
 25 24  2  0  0  0  0
 26 27  1  0  0  0  0
 27 23  2  0  0  0  0
M  END
>  <MODEL>
1

>  <REMARK>
 VINA RESULT:      -7.8      0.000      0.000
  Name = 
  1 active torsions:
  status: ('A' for Active; 'I' for Inactive)
    1  A    between atoms: C_9  and  C_15
                            x       y       z     vdW  Elec       q    Type
                         _______ _______ _______ _____ _____    ______ ____

>  <TORSDO>
F 1

$$$$
=
 OpenBabel11052413483D

 27 31  0  0  1  0  0  0  0  0999 V2000
  185.7780  178.6890  142.3450 O   0  0  0  0  0  0  0  0  0  0  0  0
  185.0760  177.9510  144.5830 C   0  0  1  0  0  3  0  0  0  0  0  0
  186.9550  176.3870  143.8950 C   0  0  0  0  0  2  0  0  0  0  0  0
  187.3290  179.0340  147.9710 N   0  0  0  0  0  0  0  0  0  0  0  0
  188.8840  178.5490  149.6650 F   0  0  0  0  0  0  0  0  0  0  0  0
  185.0280  179.3300  145.2010 C   0  0  0  0  0  3  0  0  0  0  0  0
  187.9890  176.6950  146.6530 C   0  0  0  0  0  3  0  0  0  0  0  0
  189.7920  177.6480  141.7700 C   0  0  0  0  0  0  0  0  0  0  0  0
  188.6230  177.0280  147.8520 C   0  0  0  0  0  3  0  0  0  0  0  0
  191.4760  177.2590  141.4880 Cl  0  0  0  0  0  0  0  0  0  0  0  0
  187.0100  177.5440  146.1270 C   0  0  0  0  0  0  0  0  0  0  0  0
  184.7880  177.9630  143.0740 C   0  0  1  0  0  3  0  0  0  0  0  0
  188.2740  178.2130  148.5040 C   0  0  0  0  0  0  0  0  0  0  0  0
  186.6910  178.7250  146.8100 C   0  0  0  0  0  0  0  0  0  0  0  0
  187.1160  178.2910  142.1940 C   0  0  0  0  0  0  0  0  0  0  0  0
  186.3390  177.2610  144.8890 N   0  0  0  0  0  0  0  0  0  0  0  0
  189.0460  176.8940  142.6740 C   0  0  0  0  0  3  0  0  0  0  0  0
  185.7450  179.6380  146.2410 N   0  0  0  0  0  0  0  0  0  0  0  0
  189.2170  178.6880  141.1110 N   0  0  0  0  0  0  0  0  0  0  0  0
  187.9120  179.0180  141.3040 C   0  0  0  0  0  3  0  0  0  0  0  0
  187.7050  177.2100  142.8960 C   0  0  0  0  0  0  0  0  0  0  0  0
  180.8220  179.3180  142.1140 C   0  0  0  0  0  3  0  0  0  0  0  0
  183.4080  178.4520  142.7560 C   0  0  0  0  0  0  0  0  0  0  0  0
  183.0300  178.6070  141.4170 C   0  0  0  0  0  3  0  0  0  0  0  0
  181.7400  179.0420  141.0960 C   0  0  0  0  0  3  0  0  0  0  0  0
  181.1920  179.1590  143.4510 C   0  0  0  0  0  3  0  0  0  0  0  0
  182.4810  178.7240  143.7730 C   0  0  0  0  0  3  0  0  0  0  0  0
  1 12  1  0  0  0  0
  2 16  1  0  0  0  0
  2  6  1  6  0  0  0
  3 16  1  0  0  0  0
  4 13  1  0  0  0  0
  6 18  2  0  0  0  0
  7  9  1  0  0  0  0
  8 17  1  0  0  0  0
  9 13  2  0  0  0  0
 10  8  1  0  0  0  0
 11  7  2  0  0  0  0
 11 14  1  0  0  0  0
 12 23  1  1  0  0  0
 12  2  1  0  0  0  0
 13  5  1  0  0  0  0
 14  4  2  0  0  0  0
 15  1  1  0  0  0  0
 15 21  1  0  0  0  0
 16 11  1  0  0  0  0
 17 21  2  0  0  0  0
 18 14  1  0  0  0  0
 19 20  1  0  0  0  0
 19  8  2  0  0  0  0
 20 15  2  0  0  0  0
 21  3  1  0  0  0  0
 22 26  1  0  0  0  0
 23 27  1  0  0  0  0
 24 23  2  0  0  0  0
 25 24  1  0  0  0  0
 25 22  2  0  0  0  0
 26 27  2  0  0  0  0
M  END
>  <MODEL>
2

>  <REMARK>
 VINA RESULT:      -7.4      3.475      6.609
  Name = 
  1 active torsions:
  status: ('A' for Active; 'I' for Inactive)
    1  A    between atoms: C_9  and  C_15
                            x       y       z     vdW  Elec       q    Type
                         _______ _______ _______ _____ _____    ______ ____

>  <TORSDO>
F 1

$$$$
=
 OpenBabel11052413483D

 27 31  0  0  1  0  0  0  0  0999 V2000
  189.2300  176.9550  142.4470 O   0  0  0  0  0  0  0  0  0  0  0  0
  191.5070  177.0390  143.3720 C   0  0  1  0  0  3  0  0  0  0  0  0
  190.1240  178.6280  144.7900 C   0  0  0  0  0  2  0  0  0  0  0  0
  192.4540  174.8800  146.8600 N   0  0  0  0  0  0  0  0  0  0  0  0
  192.8630  174.7560  149.1720 F   0  0  0  0  0  0  0  0  0  0  0  0
  191.7320  175.5440  143.3830 C   0  0  0  0  0  3  0  0  0  0  0  0
  191.5070  177.4630  147.1360 C   0  0  0  0  0  3  0  0  0  0  0  0
  186.4990  177.8930  145.4790 C   0  0  0  0  0  0  0  0  0  0  0  0
  191.9530  176.7570  148.2540 C   0  0  0  0  0  3  0  0  0  0  0  0
  185.3130  178.2530  146.7160 Cl  0  0  0  0  0  0  0  0  0  0  0  0
  191.5510  176.8630  145.8730 C   0  0  0  0  0  0  0  0  0  0  0  0
  190.5410  177.4880  142.2640 C   0  0  1  0  0  3  0  0  0  0  0  0
  192.4310  175.4530  148.0940 C   0  0  0  0  0  0  0  0  0  0  0  0
  192.0340  175.5530  145.7550 C   0  0  0  0  0  0  0  0  0  0  0  0
  188.3600  177.3050  143.4930 C   0  0  0  0  0  0  0  0  0  0  0  0
  191.0870  177.5360  144.6910 N   0  0  0  0  0  0  0  0  0  0  0  0
  187.7970  178.3870  145.5950 C   0  0  0  0  0  3  0  0  0  0  0  0
  192.0120  174.9030  144.4790 N   0  0  0  0  0  0  0  0  0  0  0  0
  186.1530  177.1280  144.4110 N   0  0  0  0  0  0  0  0  0  0  0  0
  187.0470  176.8280  143.4310 C   0  0  0  0  0  3  0  0  0  0  0  0
  188.7380  178.0960  144.6060 C   0  0  0  0  0  0  0  0  0  0  0  0
  191.9870  176.6750  138.2980 C   0  0  0  0  0  3  0  0  0  0  0  0
  191.0640  177.1930  140.8910 C   0  0  0  0  0  0  0  0  0  0  0  0
  190.1770  176.7460  139.9040 C   0  0  0  0  0  3  0  0  0  0  0  0
  190.6380  176.4850  138.6100 C   0  0  0  0  0  3  0  0  0  0  0  0
  192.8760  177.1280  139.2760 C   0  0  0  0  0  3  0  0  0  0  0  0
  192.4150  177.3890  140.5700 C   0  0  0  0  0  3  0  0  0  0  0  0
  1 15  1  0  0  0  0
  2  6  1  1  0  0  0
  2 16  1  0  0  0  0
  4 13  1  0  0  0  0
  6 18  2  0  0  0  0
  7  9  1  0  0  0  0
  8 17  1  0  0  0  0
  8 10  1  0  0  0  0
 11  7  2  0  0  0  0
 12 23  1  6  0  0  0
 12  1  1  0  0  0  0
 12  2  1  0  0  0  0
 13  9  2  0  0  0  0
 13  5  1  0  0  0  0
 14 11  1  0  0  0  0
 14  4  2  0  0  0  0
 15 21  1  0  0  0  0
 16  3  1  0  0  0  0
 16 11  1  0  0  0  0
 18 14  1  0  0  0  0
 19  8  2  0  0  0  0
 20 15  2  0  0  0  0
 20 19  1  0  0  0  0
 21  3  1  0  0  0  0
 21 17  2  0  0  0  0
 22 25  2  0  0  0  0
 22 26  1  0  0  0  0
 24 23  2  0  0  0  0
 25 24  1  0  0  0  0
 26 27  2  0  0  0  0
 27 23  1  0  0  0  0
M  END
>  <MODEL>
3

>  <REMARK>
 VINA RESULT:      -7.1      3.164      5.505
  Name = 
  1 active torsions:
  status: ('A' for Active; 'I' for Inactive)
    1  A    between atoms: C_9  and  C_15
                            x       y       z     vdW  Elec       q    Type
                         _______ _______ _______ _____ _____    ______ ____

>  <TORSDO>
F 1

$$$$
=
 OpenBabel11052413483D

 27 31  0  0  1  0  0  0  0  0999 V2000
  183.6600  178.2530  142.5860 O   0  0  0  0  0  0  0  0  0  0  0  0
  182.6440  178.3340  140.3480 C   0  0  1  0  0  3  0  0  0  0  0  0
  184.9670  179.3270  140.0910 C   0  0  0  0  0  2  0  0  0  0  0  0
  183.6520  175.4380  137.4630 N   0  0  0  0  0  0  0  0  0  0  0  0
  184.8190  174.7470  135.5420 F   0  0  0  0  0  0  0  0  0  0  0  0
  182.0990  176.9230  140.3660 C   0  0  0  0  0  3  0  0  0  0  0  0
  185.1850  177.7350  137.6030 C   0  0  0  0  0  3  0  0  0  0  0  0
  187.8220  178.0460  142.1810 C   0  0  0  0  0  0  0  0  0  0  0  0
  185.4020  176.8090  136.5820 C   0  0  0  0  0  3  0  0  0  0  0  0
  189.5650  177.9310  142.0680 Cl  0  0  0  0  0  0  0  0  0  0  0  0
  184.1810  177.5030  138.5490 C   0  0  0  0  0  0  0  0  0  0  0  0
  182.7400  178.9550  141.7500 C   0  0  1  0  0  3  0  0  0  0  0  0
  184.6150  175.6550  136.5260 C   0  0  0  0  0  0  0  0  0  0  0  0
  183.4170  176.3320  138.4600 C   0  0  0  0  0  0  0  0  0  0  0  0
  185.0500  178.2140  142.3940 C   0  0  0  0  0  0  0  0  0  0  0  0
  183.9270  178.4120  139.6320 N   0  0  0  0  0  0  0  0  0  0  0  0
  187.0940  178.6290  141.1450 C   0  0  0  0  0  3  0  0  0  0  0  0
  182.4390  176.0480  139.4680 N   0  0  0  0  0  0  0  0  0  0  0  0
  187.1800  177.5600  143.2760 N   0  0  0  0  0  0  0  0  0  0  0  0
  185.8280  177.6320  143.3990 C   0  0  0  0  0  3  0  0  0  0  0  0
  185.7040  178.7160  141.2410 C   0  0  0  0  0  0  0  0  0  0  0  0
  178.9310  179.3780  143.6990 C   0  0  0  0  0  3  0  0  0  0  0  0
  181.4010  179.0950  142.4100 C   0  0  0  0  0  0  0  0  0  0  0  0
  181.2190  178.5860  143.7000 C   0  0  0  0  0  3  0  0  0  0  0  0
  179.9850  178.7240  144.3440 C   0  0  0  0  0  3  0  0  0  0  0  0
  179.1090  179.8950  142.4130 C   0  0  0  0  0  3  0  0  0  0  0  0
  180.3420  179.7570  141.7700 C   0  0  0  0  0  3  0  0  0  0  0  0
  2  6  1  1  0  0  0
  2 12  1  0  0  0  0
  3 21  1  0  0  0  0
  4 14  2  0  0  0  0
  5 13  1  0  0  0  0
  7 11  2  0  0  0  0
  8 19  1  0  0  0  0
  9  7  1  0  0  0  0
 10  8  1  0  0  0  0
 11 16  1  0  0  0  0
 12 23  1  1  0  0  0
 12  1  1  0  0  0  0
 13  9  2  0  0  0  0
 13  4  1  0  0  0  0
 14 11  1  0  0  0  0
 14 18  1  0  0  0  0
 15  1  1  0  0  0  0
 15 20  1  0  0  0  0
 16  3  1  0  0  0  0
 16  2  1  0  0  0  0
 17 21  1  0  0  0  0
 17  8  2  0  0  0  0
 18  6  2  0  0  0  0
 19 20  2  0  0  0  0
 21 15  2  0  0  0  0
 22 25  1  0  0  0  0
 23 24  1  0  0  0  0
 24 25  2  0  0  0  0
 26 22  2  0  0  0  0
 27 23  2  0  0  0  0
 27 26  1  0  0  0  0
M  END
>  <MODEL>
4

>  <REMARK>
 VINA RESULT:      -6.8      4.686      8.157
  Name = 
  1 active torsions:
  status: ('A' for Active; 'I' for Inactive)
    1  A    between atoms: C_9  and  C_15
                            x       y       z     vdW  Elec       q    Type
                         _______ _______ _______ _____ _____    ______ ____

>  <TORSDO>
F 1

$$$$
=
 OpenBabel11052413483D

 27 31  0  0  1  0  0  0  0  0999 V2000
  189.5160  177.8850  139.9060 O   0  0  0  0  0  0  0  0  0  0  0  0
  191.3820  176.2850  139.8290 C   0  0  1  0  0  3  0  0  0  0  0  0
  189.7220  175.4980  138.0760 C   0  0  0  0  0  2  0  0  0  0  0  0
  194.3020  176.5850  136.8110 N   0  0  0  0  0  0  0  0  0  0  0  0
  195.2600  175.8890  134.7800 F   0  0  0  0  0  0  0  0  0  0  0  0
  192.4840  177.3200  139.8450 C   0  0  0  0  0  3  0  0  0  0  0  0
  192.0590  175.0460  136.3140 C   0  0  0  0  0  3  0  0  0  0  0  0
  187.6660  177.9940  136.1510 C   0  0  0  0  0  0  0  0  0  0  0  0
  193.1100  175.0710  135.3960 C   0  0  0  0  0  3  0  0  0  0  0  0
  186.8730  178.0970  134.5940 Cl  0  0  0  0  0  0  0  0  0  0  0  0
  192.1500  175.7940  137.4930 C   0  0  0  0  0  0  0  0  0  0  0  0
  190.1090  176.7570  140.5500 C   0  0  1  0  0  3  0  0  0  0  0  0
  194.2360  175.8530  135.6660 C   0  0  0  0  0  0  0  0  0  0  0  0
  193.2940  176.5670  137.7250 C   0  0  0  0  0  0  0  0  0  0  0  0
  188.9150  177.8600  138.6370 C   0  0  0  0  0  0  0  0  0  0  0  0
  191.0910  175.8200  138.4640 N   0  0  0  0  0  0  0  0  0  0  0  0
  188.3490  176.8320  136.5080 C   0  0  0  0  0  3  0  0  0  0  0  0
  193.3640  177.3950  138.8910 N   0  0  0  0  0  0  0  0  0  0  0  0
  187.6200  179.0480  137.0070 N   0  0  0  0  0  0  0  0  0  0  0  0
  188.2240  179.0040  138.2250 C   0  0  0  0  0  3  0  0  0  0  0  0
  188.9800  176.7560  137.7510 C   0  0  0  0  0  0  0  0  0  0  0  0
  190.6990  177.5320  144.7370 C   0  0  0  0  0  3  0  0  0  0  0  0
  190.3370  177.0180  142.0070 C   0  0  0  0  0  0  0  0  0  0  0  0
  189.9590  178.2530  142.5480 C   0  0  0  0  0  3  0  0  0  0  0  0
  190.1420  178.5110  143.9090 C   0  0  0  0  0  3  0  0  0  0  0  0
  191.0720  176.2950  144.2050 C   0  0  0  0  0  3  0  0  0  0  0  0
  190.8890  176.0360  142.8440 C   0  0  0  0  0  3  0  0  0  0  0  0
  1 12  1  0  0  0  0
  2  6  1  6  0  0  0
  2 12  1  0  0  0  0
  3 16  1  0  0  0  0
  4 14  2  0  0  0  0
  5 13  1  0  0  0  0
  7 11  2  0  0  0  0
  8 17  2  0  0  0  0
  8 19  1  0  0  0  0
  9 13  2  0  0  0  0
  9  7  1  0  0  0  0
 10  8  1  0  0  0  0
 11 14  1  0  0  0  0
 11 16  1  0  0  0  0
 12 23  1  1  0  0  0
 13  4  1  0  0  0  0
 14 18  1  0  0  0  0
 15  1  1  0  0  0  0
 16  2  1  0  0  0  0
 17 21  1  0  0  0  0
 18  6  2  0  0  0  0
 19 20  2  0  0  0  0
 20 15  1  0  0  0  0
 21  3  1  0  0  0  0
 21 15  2  0  0  0  0
 23 24  2  0  0  0  0
 23 27  1  0  0  0  0
 24 25  1  0  0  0  0
 25 22  2  0  0  0  0
 26 22  1  0  0  0  0
 27 26  2  0  0  0  0
M  END
>  <MODEL>
5

>  <REMARK>
 VINA RESULT:      -6.7      4.961      8.134
  Name = 
  1 active torsions:
  status: ('A' for Active; 'I' for Inactive)
    1  A    between atoms: C_9  and  C_15
                            x       y       z     vdW  Elec       q    Type
                         _______ _______ _______ _____ _____    ______ ____

>  <TORSDO>
F 1

$$$$
=
 OpenBabel11052413483D

 27 31  0  0  1  0  0  0  0  0999 V2000
  182.5040  179.8780  139.9710 O   0  0  0  0  0  0  0  0  0  0  0  0
  183.9900  177.9340  139.7220 C   0  0  1  0  0  3  0  0  0  0  0  0
  182.2080  177.6770  137.9320 C   0  0  0  0  0  2  0  0  0  0  0  0
  186.9190  177.8850  136.6990 N   0  0  0  0  0  0  0  0  0  0  0  0
  187.7170  177.1900  134.5990 F   0  0  0  0  0  0  0  0  0  0  0  0
  185.2860  178.7080  139.8140 C   0  0  0  0  0  3  0  0  0  0  0  0
  184.4040  176.9050  136.1000 C   0  0  0  0  0  3  0  0  0  0  0  0
  180.7340  180.7150  136.2700 C   0  0  0  0  0  0  0  0  0  0  0  0
  185.4400  176.7910  135.1720 C   0  0  0  0  0  3  0  0  0  0  0  0
  179.9870  181.1240  134.7400 Cl  0  0  0  0  0  0  0  0  0  0  0  0
  184.6460  177.5060  137.3400 C   0  0  0  0  0  0  0  0  0  0  0  0
  182.8430  178.5960  140.5020 C   0  0  1  0  0  3  0  0  0  0  0  0
  186.7050  177.2900  135.4940 C   0  0  0  0  0  0  0  0  0  0  0  0
  185.9280  177.9970  137.6230 C   0  0  0  0  0  0  0  0  0  0  0  0
  181.9170  180.0960  138.7140 C   0  0  0  0  0  0  0  0  0  0  0  0
  183.6140  177.6670  138.3260 N   0  0  0  0  0  0  0  0  0  0  0  0
  181.1550  179.4080  136.5110 C   0  0  0  0  0  3  0  0  0  0  0  0
  186.1660  178.6820  138.8580 N   0  0  0  0  0  0  0  0  0  0  0  0
  180.9090  181.6730  137.2170 N   0  0  0  0  0  0  0  0  0  0  0  0
  181.4850  181.3910  138.4170 C   0  0  0  0  0  3  0  0  0  0  0  0
  181.7510  179.0880  137.7320 C   0  0  0  0  0  0  0  0  0  0  0  0
  183.5670  178.7730  144.7360 C   0  0  0  0  0  3  0  0  0  0  0  0
  183.1150  178.6700  141.9730 C   0  0  0  0  0  0  0  0  0  0  0  0
  182.0770  179.0200  142.8440 C   0  0  0  0  0  3  0  0  0  0  0  0
  182.3020  179.0740  144.2230 C   0  0  0  0  0  3  0  0  0  0  0  0
  184.6060  178.4160  143.8730 C   0  0  0  0  0  3  0  0  0  0  0  0
  184.3810  178.3610  142.4940 C   0  0  0  0  0  3  0  0  0  0  0  0
  1 12  1  0  0  0  0
  2  6  1  6  0  0  0
  2 12  1  0  0  0  0
  3 16  1  0  0  0  0
  4 14  2  0  0  0  0
  5 13  1  0  0  0  0
  7 11  2  0  0  0  0
  8 17  2  0  0  0  0
  8 19  1  0  0  0  0
  9 13  2  0  0  0  0
  9  7  1  0  0  0  0
 10  8  1  0  0  0  0
 11 14  1  0  0  0  0
 11 16  1  0  0  0  0
 12 23  1  1  0  0  0
 13  4  1  0  0  0  0
 14 18  1  0  0  0  0
 15  1  1  0  0  0  0
 16  2  1  0  0  0  0
 17 21  1  0  0  0  0
 18  6  2  0  0  0  0
 19 20  2  0  0  0  0
 20 15  1  0  0  0  0
 21  3  1  0  0  0  0
 21 15  2  0  0  0  0
 23 27  2  0  0  0  0
 23 24  1  0  0  0  0
 24 25  2  0  0  0  0
 25 22  1  0  0  0  0
 26 22  2  0  0  0  0
 27 26  1  0  0  0  0
M  END
>  <MODEL>
6

>  <REMARK>
 VINA RESULT:      -6.6      6.288      9.672
  Name = 
  1 active torsions:
  status: ('A' for Active; 'I' for Inactive)
    1  A    between atoms: C_9  and  C_15
                            x       y       z     vdW  Elec       q    Type
                         _______ _______ _______ _____ _____    ______ ____

>  <TORSDO>
F 1

$$$$
=
 OpenBabel11052413483D

 27 31  0  0  1  0  0  0  0  0999 V2000
  189.1820  176.1540  138.3190 O   0  0  0  0  0  0  0  0  0  0  0  0
  189.4260  177.7020  140.2140 C   0  0  1  0  0  3  0  0  0  0  0  0
  187.5370  178.6350  138.7960 C   0  0  0  0  0  2  0  0  0  0  0  0
  186.7690  177.4940  143.4720 N   0  0  0  0  0  0  0  0  0  0  0  0
  184.9140  178.2790  144.6860 F   0  0  0  0  0  0  0  0  0  0  0  0
  189.5120  176.6370  141.2840 C   0  0  0  0  0  3  0  0  0  0  0  0
  186.0990  179.1220  141.3390 C   0  0  0  0  0  3  0  0  0  0  0  0
  185.2320  176.3130  136.9390 C   0  0  0  0  0  0  0  0  0  0  0  0
  185.3150  179.1200  142.4930 C   0  0  0  0  0  3  0  0  0  0  0  0
  183.5870  176.3210  136.3390 Cl  0  0  0  0  0  0  0  0  0  0  0  0
  187.2340  178.3050  141.2710 C   0  0  0  0  0  0  0  0  0  0  0  0
  189.9590  177.2260  138.8530 C   0  0  1  0  0  3  0  0  0  0  0  0
  185.6700  178.2920  143.5620 C   0  0  0  0  0  0  0  0  0  0  0  0
  187.5540  177.4880  142.3620 C   0  0  0  0  0  0  0  0  0  0  0  0
  187.8530  176.2680  137.8780 C   0  0  0  0  0  0  0  0  0  0  0  0
  188.0670  178.2530  140.1020 N   0  0  0  0  0  0  0  0  0  0  0  0
  185.7380  177.4320  137.5970 C   0  0  0  0  0  3  0  0  0  0  0  0
  188.6690  176.5920  142.2720 N   0  0  0  0  0  0  0  0  0  0  0  0
  186.0100  175.2130  136.7670 N   0  0  0  0  0  0  0  0  0  0  0  0
  187.2920  175.1700  137.2190 C   0  0  0  0  0  3  0  0  0  0  0  0
  187.0500  177.4190  138.0740 C   0  0  0  0  0  0  0  0  0  0  0  0
  194.1400  176.2280  138.9090 C   0  0  0  0  0  3  0  0  0  0  0  0
  191.4150  176.8750  138.8960 C   0  0  0  0  0  0  0  0  0  0  0  0
  191.9300  175.9800  137.9520 C   0  0  0  0  0  3  0  0  0  0  0  0
  193.2900  175.6540  137.9590 C   0  0  0  0  0  3  0  0  0  0  0  0
  193.6330  177.1280  139.8500 C   0  0  0  0  0  3  0  0  0  0  0  0
  192.2740  177.4530  139.8430 C   0  0  0  0  0  3  0  0  0  0  0  0
  1 12  1  0  0  0  0
  2  6  1  1  0  0  0
  3 16  1  0  0  0  0
  4 13  1  0  0  0  0
  6 18  2  0  0  0  0
  7  9  1  0  0  0  0
  8 17  1  0  0  0  0
  9 13  2  0  0  0  0
 10  8  1  0  0  0  0
 11  7  2  0  0  0  0
 11 14  1  0  0  0  0
 12 23  1  1  0  0  0
 12  2  1  0  0  0  0
 13  5  1  0  0  0  0
 14  4  2  0  0  0  0
 15 21  1  0  0  0  0
 15  1  1  0  0  0  0
 16  2  1  0  0  0  0
 16 11  1  0  0  0  0
 17 21  2  0  0  0  0
 18 14  1  0  0  0  0
 19  8  2  0  0  0  0
 19 20  1  0  0  0  0
 20 15  2  0  0  0  0
 21  3  1  0  0  0  0
 22 26  1  0  0  0  0
 23 27  1  0  0  0  0
 24 25  1  0  0  0  0
 24 23  2  0  0  0  0
 25 22  2  0  0  0  0
 27 26  2  0  0  0  0
M  END
>  <MODEL>
7

>  <REMARK>
 VINA RESULT:      -6.1      3.513      5.423
  Name = 
  1 active torsions:
  status: ('A' for Active; 'I' for Inactive)
    1  A    between atoms: C_9  and  C_15
                            x       y       z     vdW  Elec       q    Type
                         _______ _______ _______ _____ _____    ______ ____

>  <TORSDO>
F 1

$$$$
=
 OpenBabel11052413483D

 27 31  0  0  1  0  0  0  0  0999 V2000
  184.4500  178.9380  140.0090 O   0  0  0  0  0  0  0  0  0  0  0  0
  183.4700  177.7900  138.0680 C   0  0  1  0  0  3  0  0  0  0  0  0
  185.9210  178.1380  137.5030 C   0  0  0  0  0  2  0  0  0  0  0  0
  184.0260  173.6480  137.5590 N   0  0  0  0  0  0  0  0  0  0  0  0
  185.0780  171.8090  136.5400 F   0  0  0  0  0  0  0  0  0  0  0  0
  182.7110  176.7500  138.8610 C   0  0  0  0  0  3  0  0  0  0  0  0
  185.8990  175.3630  136.4660 C   0  0  0  0  0  3  0  0  0  0  0  0
  188.5300  178.0200  140.2120 C   0  0  0  0  0  0  0  0  0  0  0  0
  185.9720  173.9930  136.2140 C   0  0  0  0  0  3  0  0  0  0  0  0
  190.2350  177.6470  140.3580 Cl  0  0  0  0  0  0  0  0  0  0  0  0
  184.8660  175.8680  137.2650 C   0  0  0  0  0  0  0  0  0  0  0  0
  183.6560  179.1080  138.8350 C   0  0  1  0  0  3  0  0  0  0  0  0
  185.0150  173.1420  136.7730 C   0  0  0  0  0  0  0  0  0  0  0  0
  183.9280  174.9810  137.8090 C   0  0  0  0  0  0  0  0  0  0  0  0
  185.8190  178.6210  140.0130 C   0  0  0  0  0  0  0  0  0  0  0  0
  184.7530  177.2660  137.5720 N   0  0  0  0  0  0  0  0  0  0  0  0
  187.9080  177.9520  138.9660 C   0  0  0  0  0  3  0  0  0  0  0  0
  182.9130  175.4780  138.6890 N   0  0  0  0  0  0  0  0  0  0  0  0
  187.8160  178.3680  141.3130 N   0  0  0  0  0  0  0  0  0  0  0  0
  186.4910  178.6650  141.2380 C   0  0  0  0  0  3  0  0  0  0  0  0
  186.5480  178.2500  138.8570 C   0  0  0  0  0  0  0  0  0  0  0  0
  179.9360  181.0340  139.8070 C   0  0  0  0  0  3  0  0  0  0  0  0
  182.3530  179.7770  139.1510 C   0  0  0  0  0  0  0  0  0  0  0  0
  181.6240  179.3610  140.2710 C   0  0  0  0  0  3  0  0  0  0  0  0
  180.4170  179.9850  140.5980 C   0  0  0  0  0  3  0  0  0  0  0  0
  180.6630  181.4590  138.6920 C   0  0  0  0  0  3  0  0  0  0  0  0
  181.8700  180.8350  138.3660 C   0  0  0  0  0  3  0  0  0  0  0  0
  1 15  1  0  0  0  0
  2 12  1  0  0  0  0
  2  6  1  1  0  0  0
  3 16  1  0  0  0  0
  3 21  1  0  0  0  0
  4 14  2  0  0  0  0
  5 13  1  0  0  0  0
  7 11  2  0  0  0  0
  8 10  1  0  0  0  0
  8 19  1  0  0  0  0
  9  7  1  0  0  0  0
  9 13  2  0  0  0  0
 11 16  1  0  0  0  0
 11 14  1  0  0  0  0
 12 23  1  1  0  0  0
 12  1  1  0  0  0  0
 13  4  1  0  0  0  0
 14 18  1  0  0  0  0
 15 20  1  0  0  0  0
 16  2  1  0  0  0  0
 17  8  2  0  0  0  0
 18  6  2  0  0  0  0
 20 19  2  0  0  0  0
 21 17  1  0  0  0  0
 21 15  2  0  0  0  0
 22 25  1  0  0  0  0
 23 24  1  0  0  0  0
 24 25  2  0  0  0  0
 26 22  2  0  0  0  0
 27 26  1  0  0  0  0
 27 23  2  0  0  0  0
M  END
>  <MODEL>
8

>  <REMARK>
 VINA RESULT:      -6.0      5.351      8.147
  Name = 
  1 active torsions:
  status: ('A' for Active; 'I' for Inactive)
    1  A    between atoms: C_9  and  C_15
                            x       y       z     vdW  Elec       q    Type
                         _______ _______ _______ _____ _____    ______ ____

>  <TORSDO>
F 1

$$$$
=
 OpenBabel11052413483D

 27 31  0  0  1  0  0  0  0  0999 V2000
  189.7000  178.0980  141.4420 O   0  0  0  0  0  0  0  0  0  0  0  0
  187.2850  177.6350  141.4280 C   0  0  1  0  0  3  0  0  0  0  0  0
  188.2570  176.1880  143.2740 C   0  0  0  0  0  2  0  0  0  0  0  0
  184.7680  179.4400  144.2800 N   0  0  0  0  0  0  0  0  0  0  0  0
  183.5020  179.3780  146.2600 F   0  0  0  0  0  0  0  0  0  0  0  0
  186.8430  179.0790  141.3450 C   0  0  0  0  0  3  0  0  0  0  0  0
  185.9290  177.0110  144.9090 C   0  0  0  0  0  3  0  0  0  0  0  0
  191.1930  177.4020  145.2910 C   0  0  0  0  0  0  0  0  0  0  0  0
  184.9890  177.5830  145.7680 C   0  0  0  0  0  3  0  0  0  0  0  0
  191.8630  177.1520  146.8890 Cl  0  0  0  0  0  0  0  0  0  0  0  0
  186.2720  177.6660  143.7220 C   0  0  0  0  0  0  0  0  0  0  0  0
  188.6540  177.3910  140.7750 C   0  0  1  0  0  3  0  0  0  0  0  0
  184.4120  178.8100  145.4320 C   0  0  0  0  0  0  0  0  0  0  0  0
  185.6730  178.8960  143.4220 C   0  0  0  0  0  0  0  0  0  0  0  0
  190.1530  177.8220  142.7420 C   0  0  0  0  0  0  0  0  0  0  0  0
  187.2460  177.1330  142.8100 N   0  0  0  0  0  0  0  0  0  0  0  0
  190.0400  176.7200  144.9050 C   0  0  0  0  0  3  0  0  0  0  0  0
  186.0750  179.6110  142.2480 N   0  0  0  0  0  0  0  0  0  0  0  0
  191.7930  178.2670  144.4320 N   0  0  0  0  0  0  0  0  0  0  0  0
  191.3010  178.4860  143.1830 C   0  0  0  0  0  3  0  0  0  0  0  0
  189.5100  176.9250  143.6310 C   0  0  0  0  0  0  0  0  0  0  0  0
  188.5990  178.2770  136.5680 C   0  0  0  0  0  3  0  0  0  0  0  0
  188.6510  177.6820  139.3050 C   0  0  0  0  0  0  0  0  0  0  0  0
  187.4300  177.8800  138.6500 C   0  0  0  0  0  3  0  0  0  0  0  0
  187.4030  178.1740  137.2840 C   0  0  0  0  0  3  0  0  0  0  0  0
  189.8220  178.0880  137.2170 C   0  0  0  0  0  3  0  0  0  0  0  0
  189.8490  177.7940  138.5840 C   0  0  0  0  0  3  0  0  0  0  0  0
  1 15  1  0  0  0  0
  2  6  1  1  0  0  0
  2 16  1  0  0  0  0
  3 21  1  0  0  0  0
  4 13  1  0  0  0  0
  6 18  2  0  0  0  0
  7  9  1  0  0  0  0
  8 10  1  0  0  0  0
 11  7  2  0  0  0  0
 12 23  1  6  0  0  0
 12  2  1  0  0  0  0
 12  1  1  0  0  0  0
 13  9  2  0  0  0  0
 13  5  1  0  0  0  0
 14 11  1  0  0  0  0
 14  4  2  0  0  0  0
 15 20  2  0  0  0  0
 15 21  1  0  0  0  0
 16  3  1  0  0  0  0
 16 11  1  0  0  0  0
 17  8  1  0  0  0  0
 18 14  1  0  0  0  0
 19  8  2  0  0  0  0
 20 19  1  0  0  0  0
 21 17  2  0  0  0  0
 22 26  2  0  0  0  0
 22 25  1  0  0  0  0
 24 23  1  0  0  0  0
 25 24  2  0  0  0  0
 26 27  1  0  0  0  0
 27 23  2  0  0  0  0
M  END
>  <MODEL>
9

>  <REMARK>
 VINA RESULT:      -5.8      1.532      2.138
  Name = 
  1 active torsions:
  status: ('A' for Active; 'I' for Inactive)
    1  A    between atoms: C_9  and  C_15
                            x       y       z     vdW  Elec       q    Type
                         _______ _______ _______ _____ _____    ______ ____

>  <TORSDO>
F 1

$$$$
