=
 OpenBabel11052416493D

 32 36  0  0  1  0  0  0  0  0999 V2000
  187.7450  177.4060  146.5700 C   0  0  1  0  0  3  0  0  0  0  0  0
  189.7040  177.2430  142.1120 C   0  0  0  0  0  2  0  0  0  0  0  0
  183.8440  178.9240  141.9520 C   0  0  0  0  0  2  0  0  0  0  0  0
  184.0680  178.7880  140.4400 C   0  0  0  0  0  2  0  0  0  0  0  0
  189.6230  178.7700  144.0160 O   0  0  0  0  0  0  0  0  0  0  0  0
  187.3540  176.7460  144.1340 C   0  0  0  0  0  2  0  0  0  0  0  0
  187.4220  178.7100  145.8440 C   0  0  0  0  0  2  0  0  0  0  0  0
  184.7030  177.9210  142.7340 C   0  0  0  0  0  2  0  0  0  0  0  0
  187.2460  177.4050  142.7940 C   0  0  0  0  0  0  0  0  0  0  0  0
  186.1100  177.9390  142.2230 C   0  0  0  0  0  0  0  0  0  0  0  0
  187.7970  178.2390  140.7820 N   0  0  0  0  0  0  0  0  0  0  0  0
  188.1510  177.6010  145.1140 C   0  0  1  0  0  0  0  0  0  0  0  0
  189.5310  177.7870  144.8940 O   0  0  0  0  0  0  0  0  0  0  0  0
  185.5190  179.1150  140.0600 C   0  0  0  0  0  2  0  0  0  0  0  0
  186.4720  178.4110  140.9810 C   0  0  0  0  0  0  0  0  0  0  0  0
  190.4280  178.2820  142.9730 C   0  0  0  0  0  2  0  0  0  0  0  0
  188.2700  177.6100  141.8810 C   0  0  0  0  0  0  0  0  0  0  0  0
  188.3460  177.7220  148.9610 C   0  0  0  0  0  1  0  0  0  0  0  0
  188.8920  177.6410  147.5460 C   0  0  1  0  0  3  0  0  0  0  0  0
  191.2360  176.7110  147.7290 C   0  0  0  0  0  0  0  0  0  0  0  0
  189.8460  176.5440  147.4480 N   0  0  0  0  0  2  0  0  0  0  0  0
  191.6920  177.8310  148.0800 O   0  0  0  0  0  0  0  0  0  0  0  0
  192.3390  175.3160  147.5760 S   0  0  0  0  0  1  0  0  0  0  0  0
  188.5570  178.6290  139.6000 C   0  0  0  0  0  2  0  0  0  0  0  0
  187.8370  179.2700  136.9780 O   0  0  0  0  0  1  0  0  0  0  0  0
  188.1050  177.0510  136.0820 C   0  0  2  0  0  3  0  0  0  0  0  0
  188.4960  177.5330  138.5420 C   0  0  2  0  0  3  0  0  0  0  0  0
  189.6490  175.8000  137.6850 C   0  0  0  0  0  2  0  0  0  0  0  0
  188.6410  175.6840  136.5190 C   0  0  0  0  0  2  0  0  0  0  0  0
  189.0740  177.6920  135.3270 F   0  0  0  0  0  0  0  0  0  0  0  0
  189.7840  177.1180  138.1740 O   0  0  0  0  0  0  0  0  0  0  0  0
  187.6860  177.9150  137.2880 C   0  0  1  0  0  3  0  0  0  0  0  0
  1 19  1  1  0  0  0
  2 16  1  0  0  0  0
  3  8  1  0  0  0  0
  4  3  1  0  0  0  0
  5 13  1  0  0  0  0
  7  1  1  0  0  0  0
  9  6  1  0  0  0  0
 10  8  1  0  0  0  0
 10  9  1  0  0  0  0
 11 15  1  0  0  0  0
 11 17  1  0  0  0  0
 12  6  1  6  0  0  0
 12  7  1  0  0  0  0
 12  1  1  0  0  0  0
 13 12  1  0  0  0  0
 14  4  1  0  0  0  0
 14 15  1  0  0  0  0
 15 10  2  0  0  0  0
 16  5  1  0  0  0  0
 17  2  1  0  0  0  0
 17  9  2  0  0  0  0
 19 18  1  1  0  0  0
 20 22  2  0  0  0  0
 21 19  1  0  0  0  0
 21 20  1  0  0  0  0
 23 20  1  0  0  0  0
 24 11  1  0  0  0  0
 26 30  1  1  0  0  0
 26 29  1  0  0  0  0
 26 32  1  0  0  0  0
 27 24  1  1  0  0  0
 28 31  1  0  0  0  0
 29 28  1  0  0  0  0
 31 27  1  0  0  0  0
 32 25  1  6  0  0  0
 32 27  1  0  0  0  0
M  END
>  <MODEL>
1

>  <REMARK>
 VINA RESULT:      -8.0      0.000      0.000
  Name = 
  4 active torsions:
  status: ('A' for Active; 'I' for Inactive)
    1  A    between atoms: C_2  and  C_24
    2  A    between atoms: N_10  and  C_24
    3  A    between atoms: C_11  and  C_27
    4  A    between atoms: N_16  and  C_27
                            x       y       z     vdW  Elec       q    Type
                         _______ _______ _______ _____ _____    ______ ____

>  <TORSDO>
F 4

$$$$
=
 OpenBabel11052416493D

 32 36  0  0  1  0  0  0  0  0999 V2000
  190.1970  176.8950  141.9000 C   0  0  1  0  0  3  0  0  0  0  0  0
  185.5190  177.9930  141.1000 C   0  0  0  0  0  2  0  0  0  0  0  0
  186.9240  178.2500  147.0280 C   0  0  0  0  0  2  0  0  0  0  0  0
  185.4060  178.4420  147.1600 C   0  0  0  0  0  2  0  0  0  0  0  0
  187.6960  179.0940  140.9970 O   0  0  0  0  0  0  0  0  0  0  0  0
  187.8040  176.6060  142.7450 C   0  0  0  0  0  2  0  0  0  0  0  0
  189.8650  178.1930  142.6320 C   0  0  0  0  0  2  0  0  0  0  0  0
  187.2680  177.3540  145.8310 C   0  0  0  0  0  2  0  0  0  0  0  0
  186.6980  177.4480  143.3000 C   0  0  0  0  0  0  0  0  0  0  0  0
  186.5030  177.7930  144.6220 C   0  0  0  0  0  0  0  0  0  0  0  0
  184.8600  178.7340  143.4270 N   0  0  0  0  0  0  0  0  0  0  0  0
  188.7720  177.4350  141.9080 C   0  0  1  0  0  0  0  0  0  0  0  0
  188.3280  177.9770  140.6850 O   0  0  0  0  0  0  0  0  0  0  0  0
  184.8280  179.1640  145.9350 C   0  0  0  0  0  2  0  0  0  0  0  0
  185.3540  178.5510  144.6700 C   0  0  0  0  0  0  0  0  0  0  0  0
  186.4300  179.0030  140.3950 C   0  0  0  0  0  2  0  0  0  0  0  0
  185.6690  178.0480  142.5890 C   0  0  0  0  0  0  0  0  0  0  0  0
  192.4240  177.4130  140.9260 C   0  0  0  0  0  1  0  0  0  0  0  0
  190.9500  177.2140  140.6150 C   0  0  1  0  0  3  0  0  0  0  0  0
  190.4330  176.3270  138.3050 C   0  0  0  0  0  0  0  0  0  0  0  0
  190.7900  176.1160  139.6710 N   0  0  0  0  0  2  0  0  0  0  0  0
  190.2450  177.4900  137.8610 O   0  0  0  0  0  0  0  0  0  0  0  0
  190.2480  174.9240  137.2160 S   0  0  0  0  0  1  0  0  0  0  0  0
  183.6690  179.4960  143.0670 C   0  0  0  0  0  2  0  0  0  0  0  0
  180.9260  180.0060  143.2170 O   0  0  0  0  0  1  0  0  0  0  0  0
  180.2550  178.2840  141.6730 C   0  0  2  0  0  3  0  0  0  0  0  0
  182.6930  178.6220  142.2880 C   0  0  2  0  0  3  0  0  0  0  0  0
  182.3060  177.7370  140.2540 C   0  0  0  0  0  2  0  0  0  0  0  0
  180.8950  177.2900  140.6990 C   0  0  0  0  0  2  0  0  0  0  0  0
  179.8030  179.3830  140.9600 F   0  0  0  0  0  0  0  0  0  0  0  0
  182.7540  178.9020  140.9150 O   0  0  0  0  0  0  0  0  0  0  0  0
  181.2370  178.7130  142.7820 C   0  0  1  0  0  3  0  0  0  0  0  0
  1 19  1  6  0  0  0
  1 12  1  0  0  0  0
  1  7  1  0  0  0  0
  2 17  1  0  0  0  0
  3  4  1  0  0  0  0
  6  9  1  0  0  0  0
  8  3  1  0  0  0  0
  9 10  1  0  0  0  0
 10 15  2  0  0  0  0
 10  8  1  0  0  0  0
 11 15  1  0  0  0  0
 12  7  1  1  0  0  0
 12  6  1  0  0  0  0
 13  5  1  0  0  0  0
 13 12  1  0  0  0  0
 14  4  1  0  0  0  0
 15 14  1  0  0  0  0
 16  5  1  0  0  0  0
 16  2  1  0  0  0  0
 17  9  2  0  0  0  0
 17 11  1  0  0  0  0
 19 18  1  1  0  0  0
 20 21  1  0  0  0  0
 21 19  1  0  0  0  0
 22 20  2  0  0  0  0
 23 20  1  0  0  0  0
 24 11  1  0  0  0  0
 26 30  1  6  0  0  0
 26 32  1  0  0  0  0
 27 32  1  0  0  0  0
 27 24  1  1  0  0  0
 28 29  1  0  0  0  0
 28 31  1  0  0  0  0
 29 26  1  0  0  0  0
 31 27  1  0  0  0  0
 32 25  1  6  0  0  0
M  END
>  <MODEL>
2

>  <REMARK>
 VINA RESULT:      -7.1      3.902      6.798
  Name = 
  4 active torsions:
  status: ('A' for Active; 'I' for Inactive)
    1  A    between atoms: C_2  and  C_24
    2  A    between atoms: N_10  and  C_24
    3  A    between atoms: C_11  and  C_27
    4  A    between atoms: N_16  and  C_27
                            x       y       z     vdW  Elec       q    Type
                         _______ _______ _______ _____ _____    ______ ____

>  <TORSDO>
F 4

$$$$
=
 OpenBabel11052416493D

 32 36  0  0  1  0  0  0  0  0999 V2000
  189.9430  177.2450  143.8160 C   0  0  1  0  0  3  0  0  0  0  0  0
  185.8450  179.3320  142.2090 C   0  0  0  0  0  2  0  0  0  0  0  0
  189.1770  177.0650  137.6330 C   0  0  0  0  0  2  0  0  0  0  0  0
  188.1190  177.7890  136.7880 C   0  0  0  0  0  2  0  0  0  0  0  0
  186.5520  177.2060  143.1800 O   0  0  0  0  0  0  0  0  0  0  0  0
  188.9150  178.7130  141.9970 C   0  0  0  0  0  2  0  0  0  0  0  0
  189.2410  176.2790  142.8650 C   0  0  0  0  0  2  0  0  0  0  0  0
  189.4380  177.8070  138.9510 C   0  0  0  0  0  2  0  0  0  0  0  0
  187.9090  178.5980  140.8940 C   0  0  0  0  0  0  0  0  0  0  0  0
  188.1410  178.1710  139.6030 C   0  0  0  0  0  0  0  0  0  0  0  0
  185.9630  178.6620  139.7730 N   0  0  0  0  0  0  0  0  0  0  0  0
  188.6770  177.6680  143.0810 C   0  0  1  0  0  0  0  0  0  0  0  0
  187.5210  177.7640  143.8820 O   0  0  0  0  0  0  0  0  0  0  0  0
  186.7630  177.8250  137.5070 C   0  0  0  0  0  2  0  0  0  0  0  0
  186.9400  178.2530  138.9350 C   0  0  0  0  0  0  0  0  0  0  0  0
  185.5150  178.1530  143.1300 C   0  0  0  0  0  2  0  0  0  0  0  0
  186.5550  178.8900  140.9670 C   0  0  0  0  0  0  0  0  0  0  0  0
  191.0000  176.7530  146.0120 C   0  0  0  0  0  1  0  0  0  0  0  0
  189.6840  176.8170  145.2560 C   0  0  1  0  0  3  0  0  0  0  0  0
  188.1340  177.5010  147.1310 C   0  0  0  0  0  0  0  0  0  0  0  0
  188.7940  177.7760  145.8950 N   0  0  0  0  0  2  0  0  0  0  0  0
  188.3060  176.4030  147.7230 O   0  0  0  0  0  0  0  0  0  0  0  0
  187.0510  178.7300  147.8440 S   0  0  0  0  0  1  0  0  0  0  0  0
  184.5550  178.8510  139.4430 C   0  0  0  0  0  2  0  0  0  0  0  0
  182.1820  178.1650  140.7470 O   0  0  0  0  0  1  0  0  0  0  0  0
  181.8720  176.0520  139.6330 C   0  0  2  0  0  3  0  0  0  0  0  0
  183.8920  177.5100  139.1520 C   0  0  2  0  0  3  0  0  0  0  0  0
  183.2320  176.1600  137.4750 C   0  0  0  0  0  2  0  0  0  0  0  0
  182.4820  175.2530  138.4780 C   0  0  0  0  0  2  0  0  0  0  0  0
  180.7270  176.6880  139.1820 F   0  0  0  0  0  0  0  0  0  0  0  0
  183.2920  177.5100  137.8840 O   0  0  0  0  0  0  0  0  0  0  0  0
  182.8720  177.0680  140.2190 C   0  0  1  0  0  3  0  0  0  0  0  0
  1 19  1  1  0  0  0
  2 16  1  0  0  0  0
  3  8  1  0  0  0  0
  4 14  1  0  0  0  0
  4  3  1  0  0  0  0
  5 13  1  0  0  0  0
  7 12  1  0  0  0  0
  7  1  1  0  0  0  0
  8 10  1  0  0  0  0
  9 17  2  0  0  0  0
  9  6  1  0  0  0  0
 10  9  1  0  0  0  0
 11 17  1  0  0  0  0
 12  6  1  6  0  0  0
 12  1  1  0  0  0  0
 12 13  1  0  0  0  0
 14 15  1  0  0  0  0
 15 10  2  0  0  0  0
 15 11  1  0  0  0  0
 16  5  1  0  0  0  0
 17  2  1  0  0  0  0
 19 21  1  0  0  0  0
 19 18  1  1  0  0  0
 20 22  2  0  0  0  0
 20 23  1  0  0  0  0
 21 20  1  0  0  0  0
 24 11  1  0  0  0  0
 26 30  1  6  0  0  0
 26 32  1  0  0  0  0
 27 24  1  1  0  0  0
 27 32  1  0  0  0  0
 28 31  1  0  0  0  0
 28 29  1  0  0  0  0
 29 26  1  0  0  0  0
 31 27  1  0  0  0  0
 32 25  1  6  0  0  0
M  END
>  <MODEL>
3

>  <REMARK>
 VINA RESULT:      -6.8      3.156      4.806
  Name = 
  4 active torsions:
  status: ('A' for Active; 'I' for Inactive)
    1  A    between atoms: C_2  and  C_24
    2  A    between atoms: N_10  and  C_24
    3  A    between atoms: C_11  and  C_27
    4  A    between atoms: N_16  and  C_27
                            x       y       z     vdW  Elec       q    Type
                         _______ _______ _______ _____ _____    ______ ____

>  <TORSDO>
F 4

$$$$
=
 OpenBabel11052416493D

 32 36  0  0  1  0  0  0  0  0999 V2000
  188.0800  177.3550  145.9900 C   0  0  1  0  0  3  0  0  0  0  0  0
  191.2070  176.2840  142.4110 C   0  0  0  0  0  2  0  0  0  0  0  0
  186.1250  178.8890  140.2740 C   0  0  0  0  0  2  0  0  0  0  0  0
  186.7590  178.5210  138.9250 C   0  0  0  0  0  2  0  0  0  0  0  0
  190.8690  178.0380  144.0760 O   0  0  0  0  0  0  0  0  0  0  0  0
  188.3110  176.4570  143.6100 C   0  0  0  0  0  2  0  0  0  0  0  0
  188.2570  178.5880  145.1070 C   0  0  0  0  0  2  0  0  0  0  0  0
  186.4910  177.8670  141.3580 C   0  0  0  0  0  2  0  0  0  0  0  0
  188.7430  176.9440  142.2620 C   0  0  0  0  0  0  0  0  0  0  0  0
  187.9600  177.5820  141.3220 C   0  0  0  0  0  0  0  0  0  0  0  0
  190.0250  177.4040  140.4750 N   0  0  0  0  0  0  0  0  0  0  0  0
  188.9330  177.2870  144.7280 C   0  0  1  0  0  0  0  0  0  0  0  0
  190.3230  177.2080  144.9470 O   0  0  0  0  0  0  0  0  0  0  0  0
  188.2920  178.5470  139.0050 C   0  0  0  0  0  2  0  0  0  0  0  0
  188.7640  177.8200  140.2290 C   0  0  0  0  0  0  0  0  0  0  0  0
  191.8340  177.2900  143.3810 C   0  0  0  0  0  2  0  0  0  0  0  0
  190.0130  176.8530  141.7100 C   0  0  0  0  0  0  0  0  0  0  0  0
  187.9940  177.4330  148.4730 C   0  0  0  0  0  1  0  0  0  0  0  0
  188.9050  177.5190  147.2610 C   0  0  1  0  0  3  0  0  0  0  0  0
  191.2550  176.7200  147.7430 C   0  0  0  0  0  0  0  0  0  0  0  0
  189.9120  176.4690  147.3250 N   0  0  0  0  0  2  0  0  0  0  0  0
  191.6180  177.8780  148.0790 O   0  0  0  0  0  0  0  0  0  0  0  0
  192.4300  175.3770  147.7860 S   0  0  0  0  0  1  0  0  0  0  0  0
  191.1660  177.5030  139.5710 C   0  0  0  0  0  2  0  0  0  0  0  0
  193.3630  176.5870  138.1090 O   0  0  0  0  0  1  0  0  0  0  0  0
  192.0980  175.3000  136.5140 C   0  0  2  0  0  3  0  0  0  0  0  0
  190.9460  176.6340  138.3380 C   0  0  2  0  0  3  0  0  0  0  0  0
  189.8340  174.8240  137.5930 C   0  0  0  0  0  2  0  0  0  0  0  0
  190.6570  174.8370  136.2850 C   0  0  0  0  0  2  0  0  0  0  0  0
  192.8170  174.2630  137.0860 F   0  0  0  0  0  0  0  0  0  0  0  0
  190.5430  175.3410  138.7000 O   0  0  0  0  0  0  0  0  0  0  0  0
  192.1610  176.5650  137.3940 C   0  0  1  0  0  3  0  0  0  0  0  0
  1 19  1  1  0  0  0
  2 16  1  0  0  0  0
  3  8  1  0  0  0  0
  4 14  1  0  0  0  0
  4  3  1  0  0  0  0
  5 13  1  0  0  0  0
  7  1  1  0  0  0  0
  9  6  1  0  0  0  0
 10  8  1  0  0  0  0
 10  9  1  0  0  0  0
 11 17  1  0  0  0  0
 12  6  1  6  0  0  0
 12 13  1  0  0  0  0
 12  7  1  0  0  0  0
 12  1  1  0  0  0  0
 14 15  1  0  0  0  0
 15 11  1  0  0  0  0
 15 10  2  0  0  0  0
 16  5  1  0  0  0  0
 17  9  2  0  0  0  0
 17  2  1  0  0  0  0
 19 21  1  0  0  0  0
 19 18  1  1  0  0  0
 20 23  1  0  0  0  0
 20 22  2  0  0  0  0
 21 20  1  0  0  0  0
 24 11  1  0  0  0  0
 26 30  1  1  0  0  0
 26 32  1  0  0  0  0
 27 31  1  0  0  0  0
 27 24  1  1  0  0  0
 28 31  1  0  0  0  0
 29 26  1  0  0  0  0
 29 28  1  0  0  0  0
 32 25  1  1  0  0  0
 32 27  1  0  0  0  0
M  END
>  <MODEL>
4

>  <REMARK>
 VINA RESULT:      -6.3      1.917      2.513
  Name = 
  4 active torsions:
  status: ('A' for Active; 'I' for Inactive)
    1  A    between atoms: C_2  and  C_24
    2  A    between atoms: N_10  and  C_24
    3  A    between atoms: C_11  and  C_27
    4  A    between atoms: N_16  and  C_27
                            x       y       z     vdW  Elec       q    Type
                         _______ _______ _______ _____ _____    ______ ____

>  <TORSDO>
F 4

$$$$
=
 OpenBabel11052416493D

 32 36  0  0  1  0  0  0  0  0999 V2000
  190.4200  173.6090  135.1120 C   0  0  1  0  0  3  0  0  0  0  0  0
  191.0830  177.3120  138.2080 C   0  0  0  0  0  2  0  0  0  0  0  0
  185.1970  176.5620  136.8010 C   0  0  0  0  0  2  0  0  0  0  0  0
  185.0620  177.8720  137.5890 C   0  0  0  0  0  2  0  0  0  0  0  0
  190.9100  174.8770  138.2840 O   0  0  0  0  0  0  0  0  0  0  0  0
  189.7050  175.9840  135.7190 C   0  0  0  0  0  2  0  0  0  0  0  0
  189.4470  173.4540  136.2790 C   0  0  0  0  0  2  0  0  0  0  0  0
  186.5440  176.4900  136.0680 C   0  0  0  0  0  2  0  0  0  0  0  0
  189.0140  176.7000  136.8380 C   0  0  0  0  0  0  0  0  0  0  0  0
  187.6550  176.8750  136.9950 C   0  0  0  0  0  0  0  0  0  0  0  0
  188.6680  177.8520  138.7360 N   0  0  0  0  0  0  0  0  0  0  0  0
  190.3340  174.6790  136.1940 C   0  0  1  0  0  0  0  0  0  0  0  0
  191.4300  174.7300  137.0780 O   0  0  0  0  0  0  0  0  0  0  0  0
  186.1270  177.9700  138.6910 C   0  0  0  0  0  2  0  0  0  0  0  0
  187.4780  177.6100  138.1460 C   0  0  0  0  0  0  0  0  0  0  0  0
  191.5460  175.9980  138.8440 C   0  0  0  0  0  2  0  0  0  0  0  0
  189.6110  177.3110  137.9320 C   0  0  0  0  0  0  0  0  0  0  0  0
  191.3040  171.3420  134.6060 C   0  0  0  0  0  1  0  0  0  0  0  0
  191.5960  172.6590  135.3040 C   0  0  1  0  0  3  0  0  0  0  0  0
  194.0570  173.2260  135.4220 C   0  0  0  0  0  0  0  0  0  0  0  0
  192.8000  173.2570  134.7440 N   0  0  0  0  0  2  0  0  0  0  0  0
  194.1690  172.6670  136.5450 O   0  0  0  0  0  0  0  0  0  0  0  0
  195.4830  173.9920  134.6680 S   0  0  0  0  0  1  0  0  0  0  0  0
  188.8910  178.5800  139.9800 C   0  0  0  0  0  2  0  0  0  0  0  0
  190.8810  177.8270  141.7920 O   0  0  0  0  0  1  0  0  0  0  0  0
  189.4280  176.6300  143.2940 C   0  0  2  0  0  3  0  0  0  0  0  0
  188.5340  177.7090  141.1790 C   0  0  2  0  0  3  0  0  0  0  0  0
  187.0660  177.5030  142.8730 C   0  0  0  0  0  2  0  0  0  0  0  0
  187.9310  176.3910  143.5090 C   0  0  0  0  0  2  0  0  0  0  0  0
  189.8550  177.6160  144.1680 F   0  0  0  0  0  0  0  0  0  0  0  0
  187.8220  178.4430  142.1380 O   0  0  0  0  0  0  0  0  0  0  0  0
  189.7430  177.0150  141.8340 C   0  0  1  0  0  3  0  0  0  0  0  0
  1 19  1  1  0  0  0
  1 12  1  0  0  0  0
  1  7  1  0  0  0  0
  2 16  1  0  0  0  0
  3  4  1  0  0  0  0
  4 14  1  0  0  0  0
  5 16  1  0  0  0  0
  6  9  1  0  0  0  0
  8  3  1  0  0  0  0
  8 10  1  0  0  0  0
  9 10  1  0  0  0  0
  9 17  2  0  0  0  0
 10 15  2  0  0  0  0
 11 24  1  0  0  0  0
 12  6  1  6  0  0  0
 12  7  1  0  0  0  0
 12 13  1  0  0  0  0
 13  5  1  0  0  0  0
 15 14  1  0  0  0  0
 15 11  1  0  0  0  0
 17  2  1  0  0  0  0
 17 11  1  0  0  0  0
 19 18  1  6  0  0  0
 20 22  2  0  0  0  0
 21 19  1  0  0  0  0
 21 20  1  0  0  0  0
 23 20  1  0  0  0  0
 26 29  1  0  0  0  0
 26 30  1  1  0  0  0
 27 24  1  6  0  0  0
 27 32  1  0  0  0  0
 27 31  1  0  0  0  0
 28 29  1  0  0  0  0
 31 28  1  0  0  0  0
 32 25  1  1  0  0  0
 32 26  1  0  0  0  0
M  END
>  <MODEL>
5

>  <REMARK>
 VINA RESULT:      -6.3      4.255      8.389
  Name = 
  4 active torsions:
  status: ('A' for Active; 'I' for Inactive)
    1  A    between atoms: C_2  and  C_24
    2  A    between atoms: N_10  and  C_24
    3  A    between atoms: C_11  and  C_27
    4  A    between atoms: N_16  and  C_27
                            x       y       z     vdW  Elec       q    Type
                         _______ _______ _______ _____ _____    ______ ____

>  <TORSDO>
F 4

$$$$
=
 OpenBabel11052416493D

 32 36  0  0  1  0  0  0  0  0999 V2000
  186.2120  178.3150  142.0520 C   0  0  1  0  0  3  0  0  0  0  0  0
  182.8620  178.3510  138.5150 C   0  0  0  0  0  2  0  0  0  0  0  0
  180.4150  179.5690  143.9660 C   0  0  0  0  0  2  0  0  0  0  0  0
  179.1100  179.4660  143.1650 C   0  0  0  0  0  2  0  0  0  0  0  0
  184.5540  179.8470  139.4420 O   0  0  0  0  0  0  0  0  0  0  0  0
  183.8290  177.6510  141.4190 C   0  0  0  0  0  2  0  0  0  0  0  0
  185.3900  179.5960  142.1670 C   0  0  0  0  0  2  0  0  0  0  0  0
  181.4890  178.6280  143.4030 C   0  0  0  0  0  2  0  0  0  0  0  0
  182.5380  178.3120  141.0500 C   0  0  0  0  0  0  0  0  0  0  0  0
  181.5610  178.7620  141.9140 C   0  0  0  0  0  0  0  0  0  0  0  0
  180.8770  179.2080  139.8290 N   0  0  0  0  0  0  0  0  0  0  0  0
  185.0220  178.5550  141.1300 C   0  0  1  0  0  0  0  0  0  0  0  0
  185.3490  178.8510  139.7920 O   0  0  0  0  0  0  0  0  0  0  0  0
  179.3130  179.9100  141.7090 C   0  0  0  0  0  2  0  0  0  0  0  0
  180.5460  179.2730  141.1360 C   0  0  0  0  0  0  0  0  0  0  0  0
  183.9140  179.4340  138.2610 C   0  0  0  0  0  2  0  0  0  0  0  0
  182.0870  178.6060  139.7710 C   0  0  0  0  0  0  0  0  0  0  0  0
  188.6470  178.6250  142.4440 C   0  0  0  0  0  1  0  0  0  0  0  0
  187.5500  178.6290  141.3930 C   0  0  1  0  0  3  0  0  0  0  0  0
  188.5970  177.9220  139.2030 C   0  0  0  0  0  0  0  0  0  0  0  0
  187.8390  177.6270  140.3770 N   0  0  0  0  0  2  0  0  0  0  0  0
  189.0530  179.0790  139.0060 O   0  0  0  0  0  0  0  0  0  0  0  0
  188.8980  176.6370  138.0010 S   0  0  0  0  0  1  0  0  0  0  0  0
  180.0730  179.6680  138.7020 C   0  0  0  0  0  2  0  0  0  0  0  0
  180.9230  180.6500  136.2290 O   0  0  0  0  0  1  0  0  0  0  0  0
  180.8060  182.9820  136.8180 C   0  0  2  0  0  3  0  0  0  0  0  0
  180.2450  181.1690  138.5030 C   0  0  2  0  0  3  0  0  0  0  0  0
  179.2220  183.1500  138.8140 C   0  0  0  0  0  2  0  0  0  0  0  0
  180.3040  183.8600  137.9680 C   0  0  0  0  0  2  0  0  0  0  0  0
  179.8580  182.9810  135.8080 F   0  0  0  0  0  0  0  0  0  0  0  0
  179.0010  181.8120  138.4230 O   0  0  0  0  0  0  0  0  0  0  0  0
  181.1130  181.5450  137.2870 C   0  0  1  0  0  3  0  0  0  0  0  0
  1 19  1  6  0  0  0
  1  7  1  0  0  0  0
  2 17  1  0  0  0  0
  4  3  1  0  0  0  0
  5 13  1  0  0  0  0
  8  3  1  0  0  0  0
  9  6  1  0  0  0  0
  9 10  1  0  0  0  0
 10  8  1  0  0  0  0
 11 15  1  0  0  0  0
 12  6  1  1  0  0  0
 12  1  1  0  0  0  0
 12  7  1  0  0  0  0
 13 12  1  0  0  0  0
 14  4  1  0  0  0  0
 15 14  1  0  0  0  0
 15 10  2  0  0  0  0
 16  2  1  0  0  0  0
 16  5  1  0  0  0  0
 17 11  1  0  0  0  0
 17  9  2  0  0  0  0
 19 18  1  1  0  0  0
 20 21  1  0  0  0  0
 21 19  1  0  0  0  0
 22 20  2  0  0  0  0
 23 20  1  0  0  0  0
 24 11  1  0  0  0  0
 26 30  1  6  0  0  0
 26 32  1  0  0  0  0
 26 29  1  0  0  0  0
 27 24  1  6  0  0  0
 29 28  1  0  0  0  0
 31 27  1  0  0  0  0
 31 28  1  0  0  0  0
 32 25  1  6  0  0  0
 32 27  1  0  0  0  0
M  END
>  <MODEL>
6

>  <REMARK>
 VINA RESULT:      -6.2      4.870      7.723
  Name = 
  4 active torsions:
  status: ('A' for Active; 'I' for Inactive)
    1  A    between atoms: C_2  and  C_24
    2  A    between atoms: N_10  and  C_24
    3  A    between atoms: C_11  and  C_27
    4  A    between atoms: N_16  and  C_27
                            x       y       z     vdW  Elec       q    Type
                         _______ _______ _______ _____ _____    ______ ____

>  <TORSDO>
F 4

$$$$
=
 OpenBabel11052416493D

 32 36  0  0  1  0  0  0  0  0999 V2000
  184.1640  179.1030  142.4340 C   0  0  1  0  0  3  0  0  0  0  0  0
  182.8460  177.7120  137.9550 C   0  0  0  0  0  2  0  0  0  0  0  0
  188.8950  177.5230  138.6970 C   0  0  0  0  0  2  0  0  0  0  0  0
  188.8570  177.2340  137.1900 C   0  0  0  0  0  2  0  0  0  0  0  0
  182.9930  176.7520  140.1950 O   0  0  0  0  0  0  0  0  0  0  0  0
  184.7330  179.2360  139.9480 C   0  0  0  0  0  2  0  0  0  0  0  0
  184.8580  177.7830  142.1050 C   0  0  0  0  0  2  0  0  0  0  0  0
  187.7410  178.4440  139.1170 C   0  0  0  0  0  2  0  0  0  0  0  0
  185.1630  178.3230  138.8420 C   0  0  0  0  0  0  0  0  0  0  0  0
  186.4550  177.9610  138.5220 C   0  0  0  0  0  0  0  0  0  0  0  0
  185.0870  176.9220  137.0870 N   0  0  0  0  0  0  0  0  0  0  0  0
  184.0130  178.4730  141.0540 C   0  0  1  0  0  0  0  0  0  0  0  0
  182.7500  177.9090  140.7860 O   0  0  0  0  0  0  0  0  0  0  0  0
  187.5760  176.4820  136.8000 C   0  0  0  0  0  2  0  0  0  0  0  0
  186.3770  177.1320  137.4260 C   0  0  0  0  0  0  0  0  0  0  0  0
  182.2520  176.7650  139.0020 C   0  0  0  0  0  2  0  0  0  0  0  0
  184.3420  177.6610  137.9400 C   0  0  0  0  0  0  0  0  0  0  0  0
  183.3810  179.0570  144.7920 C   0  0  0  0  0  1  0  0  0  0  0  0
  182.9730  178.8370  143.3460 C   0  0  1  0  0  3  0  0  0  0  0  0
  180.5160  179.3260  143.0000 C   0  0  0  0  0  0  0  0  0  0  0  0
  181.8830  179.7390  142.9980 N   0  0  0  0  0  2  0  0  0  0  0  0
  180.2010  178.1470  143.3110 O   0  0  0  0  0  0  0  0  0  0  0  0
  179.2420  180.4930  142.5520 S   0  0  0  0  0  1  0  0  0  0  0  0
  184.5980  176.0870  135.9950 C   0  0  0  0  0  2  0  0  0  0  0  0
  182.2190  174.7770  135.3390 O   0  0  0  0  0  1  0  0  0  0  0  0
  182.7720  172.6850  136.3950 C   0  0  2  0  0  3  0  0  0  0  0  0
  184.3600  174.6620  136.4800 C   0  0  2  0  0  3  0  0  0  0  0  0
  185.3160  172.6280  136.6110 C   0  0  0  0  0  2  0  0  0  0  0  0
  183.9730  172.0080  137.0620 C   0  0  0  0  0  2  0  0  0  0  0  0
  182.6700  172.2320  135.0900 F   0  0  0  0  0  0  0  0  0  0  0  0
  185.1550  173.7500  135.7700 O   0  0  0  0  0  0  0  0  0  0  0  0
  182.8840  174.2220  136.4370 C   0  0  1  0  0  3  0  0  0  0  0  0
  1 19  1  1  0  0  0
  2 16  1  0  0  0  0
  3  8  1  0  0  0  0
  4  3  1  0  0  0  0
  5 13  1  0  0  0  0
  7  1  1  0  0  0  0
  9  6  1  0  0  0  0
 10  9  1  0  0  0  0
 10  8  1  0  0  0  0
 11 15  1  0  0  0  0
 11 17  1  0  0  0  0
 12  6  1  6  0  0  0
 12  7  1  0  0  0  0
 12  1  1  0  0  0  0
 13 12  1  0  0  0  0
 14  4  1  0  0  0  0
 14 15  1  0  0  0  0
 15 10  2  0  0  0  0
 16  5  1  0  0  0  0
 17  2  1  0  0  0  0
 17  9  2  0  0  0  0
 19 18  1  1  0  0  0
 20 22  2  0  0  0  0
 21 20  1  0  0  0  0
 21 19  1  0  0  0  0
 23 20  1  0  0  0  0
 24 11  1  0  0  0  0
 26 30  1  6  0  0  0
 26 32  1  0  0  0  0
 26 29  1  0  0  0  0
 27 24  1  6  0  0  0
 28 29  1  0  0  0  0
 31 27  1  0  0  0  0
 31 28  1  0  0  0  0
 32 25  1  6  0  0  0
 32 27  1  0  0  0  0
M  END
>  <MODEL>
7

>  <REMARK>
 VINA RESULT:      -6.2      5.698      7.306
  Name = 
  4 active torsions:
  status: ('A' for Active; 'I' for Inactive)
    1  A    between atoms: C_2  and  C_24
    2  A    between atoms: N_10  and  C_24
    3  A    between atoms: C_11  and  C_27
    4  A    between atoms: N_16  and  C_27
                            x       y       z     vdW  Elec       q    Type
                         _______ _______ _______ _____ _____    ______ ____

>  <TORSDO>
F 4

$$$$
=
 OpenBabel11052416493D

 32 36  0  0  1  0  0  0  0  0999 V2000
  190.9980  176.4190  140.0870 C   0  0  1  0  0  3  0  0  0  0  0  0
  186.9840  177.6680  142.5490 C   0  0  0  0  0  2  0  0  0  0  0  0
  191.6910  176.6140  146.2780 C   0  0  0  0  0  2  0  0  0  0  0  0
  190.6030  176.7720  147.3490 C   0  0  0  0  0  2  0  0  0  0  0  0
  188.7850  178.7640  141.3170 O   0  0  0  0  0  0  0  0  0  0  0  0
  189.5840  175.9520  142.1620 C   0  0  0  0  0  2  0  0  0  0  0  0
  191.3540  177.5250  141.0780 C   0  0  0  0  0  2  0  0  0  0  0  0
  191.1210  176.0030  144.9910 C   0  0  0  0  0  2  0  0  0  0  0  0
  189.1620  176.6520  143.4160 C   0  0  0  0  0  0  0  0  0  0  0  0
  189.8510  176.6980  144.6110 C   0  0  0  0  0  0  0  0  0  0  0  0
  187.9660  177.8780  144.8700 N   0  0  0  0  0  0  0  0  0  0  0  0
  189.9550  176.9450  141.0660 C   0  0  1  0  0  0  0  0  0  0  0  0
  188.9430  177.7430  140.4940 O   0  0  0  0  0  0  0  0  0  0  0  0
  189.5080  177.7460  146.8900 C   0  0  0  0  0  2  0  0  0  0  0  0
  189.0790  177.4260  145.4880 C   0  0  0  0  0  0  0  0  0  0  0  0
  187.4140  178.8080  141.6200 C   0  0  0  0  0  2  0  0  0  0  0  0
  188.0050  177.3940  143.6090 C   0  0  0  0  0  0  0  0  0  0  0  0
  192.1300  176.7490  137.9000 C   0  0  0  0  0  1  0  0  0  0  0  0
  190.8610  177.0140  138.6910 C   0  0  1  0  0  3  0  0  0  0  0  0
  188.8470  177.1550  137.1700 C   0  0  0  0  0  0  0  0  0  0  0  0
  189.7230  176.4070  138.0140 N   0  0  0  0  0  2  0  0  0  0  0  0
  189.0340  178.3850  136.9760 O   0  0  0  0  0  0  0  0  0  0  0  0
  187.4690  176.3360  136.3840 S   0  0  0  0  0  1  0  0  0  0  0  0
  186.9160  178.7010  145.4600 C   0  0  0  0  0  2  0  0  0  0  0  0
  184.4960  178.2530  146.7820 O   0  0  0  0  0  1  0  0  0  0  0  0
  183.1090  178.3000  144.8140 C   0  0  2  0  0  3  0  0  0  0  0  0
  185.6270  178.5760  144.6570 C   0  0  2  0  0  3  0  0  0  0  0  0
  184.4270  179.5570  143.0240 C   0  0  0  0  0  2  0  0  0  0  0  0
  183.2290  178.6260  143.3220 C   0  0  0  0  0  2  0  0  0  0  0  0
  182.5660  179.3920  145.4700 F   0  0  0  0  0  0  0  0  0  0  0  0
  185.2200  179.8230  144.1620 O   0  0  0  0  0  0  0  0  0  0  0  0
  184.4700  177.9100  145.4260 C   0  0  1  0  0  3  0  0  0  0  0  0
  1 19  1  6  0  0  0
  1 12  1  0  0  0  0
  1  7  1  0  0  0  0
  2 17  1  0  0  0  0
  3  4  1  0  0  0  0
  5 16  1  0  0  0  0
  6  9  1  0  0  0  0
  8  3  1  0  0  0  0
  9 17  2  0  0  0  0
  9 10  1  0  0  0  0
 10  8  1  0  0  0  0
 10 15  2  0  0  0  0
 11 24  1  0  0  0  0
 11 15  1  0  0  0  0
 12  7  1  1  0  0  0
 12  6  1  0  0  0  0
 13 12  1  0  0  0  0
 13  5  1  0  0  0  0
 14  4  1  0  0  0  0
 15 14  1  0  0  0  0
 16  2  1  0  0  0  0
 17 11  1  0  0  0  0
 19 18  1  6  0  0  0
 20 21  1  0  0  0  0
 21 19  1  0  0  0  0
 22 20  2  0  0  0  0
 23 20  1  0  0  0  0
 26 32  1  0  0  0  0
 26 30  1  1  0  0  0
 27 32  1  0  0  0  0
 27 24  1  1  0  0  0
 28 29  1  0  0  0  0
 28 31  1  0  0  0  0
 29 26  1  0  0  0  0
 31 27  1  0  0  0  0
 32 25  1  1  0  0  0
M  END
>  <MODEL>
8

>  <REMARK>
 VINA RESULT:      -6.1      3.809      7.872
  Name = 
  4 active torsions:
  status: ('A' for Active; 'I' for Inactive)
    1  A    between atoms: C_2  and  C_24
    2  A    between atoms: N_10  and  C_24
    3  A    between atoms: C_11  and  C_27
    4  A    between atoms: N_16  and  C_27
                            x       y       z     vdW  Elec       q    Type
                         _______ _______ _______ _____ _____    ______ ____

>  <TORSDO>
F 4

$$$$
=
 OpenBabel11052416493D

 32 36  0  0  1  0  0  0  0  0999 V2000
  189.8420  176.8600  145.0930 C   0  0  1  0  0  3  0  0  0  0  0  0
  187.4430  177.6190  140.9210 C   0  0  0  0  0  2  0  0  0  0  0  0
  184.0240  178.9860  145.7810 C   0  0  0  0  0  2  0  0  0  0  0  0
  182.9380  179.1410  144.7070 C   0  0  0  0  0  2  0  0  0  0  0  0
  189.0870  178.7650  142.3170 O   0  0  0  0  0  0  0  0  0  0  0  0
  187.5950  176.6360  143.8990 C   0  0  0  0  0  2  0  0  0  0  0  0
  189.2230  178.2550  145.1300 C   0  0  0  0  0  2  0  0  0  0  0  0
  185.0400  177.9040  145.3930 C   0  0  0  0  0  2  0  0  0  0  0  0
  186.5420  177.5220  143.3110 C   0  0  0  0  0  0  0  0  0  0  0  0
  185.4730  178.0900  143.9720 C   0  0  0  0  0  0  0  0  0  0  0  0
  185.3660  178.7380  141.8320 N   0  0  0  0  0  0  0  0  0  0  0  0
  188.9480  177.3380  143.9550 C   0  0  1  0  0  0  0  0  0  0  0  0
  189.6160  177.6350  142.7500 O   0  0  0  0  0  0  0  0  0  0  0  0
  183.5380  179.6090  143.3730 C   0  0  0  0  0  2  0  0  0  0  0  0
  184.7560  178.8000  143.0350 C   0  0  0  0  0  0  0  0  0  0  0  0
  188.6800  178.5190  140.9950 C   0  0  0  0  0  2  0  0  0  0  0  0
  186.4490  177.9450  141.9920 C   0  0  0  0  0  0  0  0  0  0  0  0
  191.7220  178.4370  144.7030 C   0  0  0  0  0  1  0  0  0  0  0  0
  191.3280  176.9720  144.7730 C   0  0  1  0  0  3  0  0  0  0  0  0
  191.7970  176.4380  147.1990 C   0  0  0  0  0  0  0  0  0  0  0  0
  192.1010  176.3030  145.8110 N   0  0  0  0  0  2  0  0  0  0  0  0
  190.8300  177.1490  147.5810 O   0  0  0  0  0  0  0  0  0  0  0  0
  192.8010  175.5900  148.4080 S   0  0  0  0  0  1  0  0  0  0  0  0
  184.9230  179.3780  140.5980 C   0  0  0  0  0  2  0  0  0  0  0  0
  183.2940  180.6590  138.7250 O   0  0  0  0  0  1  0  0  0  0  0  0
  181.8020  178.8030  138.3620 C   0  0  2  0  0  3  0  0  0  0  0  0
  183.7110  178.6510  140.0270 C   0  0  2  0  0  3  0  0  0  0  0  0
  183.0550  176.7050  139.1040 C   0  0  0  0  0  2  0  0  0  0  0  0
  181.6860  177.3220  138.7360 C   0  0  0  0  0  2  0  0  0  0  0  0
  182.3160  178.9030  137.0800 F   0  0  0  0  0  0  0  0  0  0  0  0
  184.1030  177.6520  139.1250 O   0  0  0  0  0  0  0  0  0  0  0  0
  182.6750  179.5810  139.3680 C   0  0  1  0  0  3  0  0  0  0  0  0
  1 19  1  6  0  0  0
  1  7  1  0  0  0  0
  2 16  1  0  0  0  0
  2 17  1  0  0  0  0
  4  3  1  0  0  0  0
  5 13  1  0  0  0  0
  8  3  1  0  0  0  0
  9  6  1  0  0  0  0
  9 10  1  0  0  0  0
 10  8  1  0  0  0  0
 11 17  1  0  0  0  0
 11 15  1  0  0  0  0
 12  6  1  6  0  0  0
 12  1  1  0  0  0  0
 12  7  1  0  0  0  0
 13 12  1  0  0  0  0
 14  4  1  0  0  0  0
 15 14  1  0  0  0  0
 15 10  2  0  0  0  0
 16  5  1  0  0  0  0
 17  9  2  0  0  0  0
 19 18  1  1  0  0  0
 19 21  1  0  0  0  0
 20 22  2  0  0  0  0
 20 23  1  0  0  0  0
 21 20  1  0  0  0  0
 24 11  1  0  0  0  0
 26 30  1  6  0  0  0
 26 29  1  0  0  0  0
 26 32  1  0  0  0  0
 27 24  1  6  0  0  0
 28 31  1  0  0  0  0
 29 28  1  0  0  0  0
 31 27  1  0  0  0  0
 32 25  1  6  0  0  0
 32 27  1  0  0  0  0
M  END
>  <MODEL>
9

>  <REMARK>
 VINA RESULT:      -6.0      2.825      3.958
  Name = 
  4 active torsions:
  status: ('A' for Active; 'I' for Inactive)
    1  A    between atoms: C_2  and  C_24
    2  A    between atoms: N_10  and  C_24
    3  A    between atoms: C_11  and  C_27
    4  A    between atoms: N_16  and  C_27
                            x       y       z     vdW  Elec       q    Type
                         _______ _______ _______ _____ _____    ______ ____

>  <TORSDO>
F 4

$$$$
