=
 OpenBabel11052413393D

 27 31  0  0  1  0  0  0  0  0999 V2000
  191.7940  176.9610  139.1820 C   0  0  0  0  0  2  0  0  0  0  0  0
  189.2450  176.9830  139.2900 C   0  0  0  0  0  0  0  0  0  0  0  0
  189.6110  175.5090  137.2800 N   0  0  0  0  0  2  0  0  0  0  0  0
  185.6230  178.1040  137.4760 N   0  0  0  0  0  2  0  0  0  0  0  0
  184.8170  177.2990  135.4180 O   0  0  0  0  0  0  0  0  0  0  0  0
  188.4410  177.9610  139.9220 C   0  0  0  0  0  3  0  0  0  0  0  0
  186.9160  176.4050  136.2680 C   0  0  2  0  0  3  0  0  0  0  0  0
  192.9140  173.6610  136.7280 C   0  0  0  0  0  2  0  0  0  0  0  0
  186.5060  174.9450  136.3530 C   0  0  0  0  0  1  0  0  0  0  0  0
  193.3940  174.0820  137.9810 O   0  0  0  0  0  0  0  0  0  0  0  0
  187.5730  176.8290  137.5400 C   0  0  0  0  0  0  0  0  0  0  0  0
  190.5340  176.5280  139.9410 C   0  0  2  0  0  3  0  0  0  0  0  0
  185.6970  177.2760  136.3170 C   0  0  0  0  0  0  0  0  0  0  0  0
  186.8080  177.7810  138.1800 C   0  0  0  0  0  0  0  0  0  0  0  0
  191.8260  176.4640  137.7340 C   0  0  1  0  0  3  0  0  0  0  0  0
  188.8120  176.4230  138.0530 C   0  0  0  0  0  0  0  0  0  0  0  0
  191.5230  174.2450  136.4310 C   0  0  0  0  0  2  0  0  0  0  0  0
  187.2220  178.3700  139.3690 C   0  0  0  0  0  3  0  0  0  0  0  0
  194.1170  175.2740  137.7840 C   0  0  0  0  0  2  0  0  0  0  0  0
  193.2670  176.4220  137.2080 C   0  0  0  0  0  2  0  0  0  0  0  0
  191.0050  175.1690  137.5400 C   0  0  2  0  0  3  0  0  0  0  0  0
  190.8970  177.3060  144.1570 C   0  0  0  0  0  3  0  0  0  0  0  0
  190.6380  176.8000  141.4140 C   0  0  0  0  0  0  0  0  0  0  0  0
  189.7970  176.1530  142.3350 C   0  0  0  0  0  3  0  0  0  0  0  0
  189.9260  176.4080  143.7030 C   0  0  0  0  0  3  0  0  0  0  0  0
  191.7390  177.9480  143.2450 C   0  0  0  0  0  3  0  0  0  0  0  0
  191.6110  177.6930  141.8770 C   0  0  0  0  0  3  0  0  0  0  0  0
  1 12  1  0  0  0  0
  2  6  1  0  0  0  0
  2 12  1  0  0  0  0
  3 21  1  0  0  0  0
  3 16  1  0  0  0  0
  4 14  1  0  0  0  0
  5 13  2  0  0  0  0
  7 13  1  0  0  0  0
  7  9  1  1  0  0  0
  7 11  1  0  0  0  0
  8 10  1  0  0  0  0
 11 16  1  0  0  0  0
 11 14  2  0  0  0  0
 12 23  1  1  0  0  0
 13  4  1  0  0  0  0
 14 18  1  0  0  0  0
 15 20  1  1  0  0  0
 15  1  1  0  0  0  0
 16  2  2  0  0  0  0
 17  8  1  0  0  0  0
 18  6  2  0  0  0  0
 19 10  1  0  0  0  0
 20 19  1  0  0  0  0
 21 17  1  6  0  0  0
 21 15  1  0  0  0  0
 23 27  2  0  0  0  0
 23 24  1  0  0  0  0
 24 25  2  0  0  0  0
 25 22  1  0  0  0  0
 26 22  2  0  0  0  0
 27 26  1  0  0  0  0
M  END
>  <MODEL>
1

>  <REMARK>
 VINA RESULT:      -7.2      0.000      0.000
  Name = 
  1 active torsions:
  status: ('A' for Active; 'I' for Inactive)
    1  A    between atoms: C_9  and  C_15
                            x       y       z     vdW  Elec       q    Type
                         _______ _______ _______ _____ _____    ______ ____

>  <TORSDO>
F 1

$$$$
=
 OpenBabel11052413393D

 27 31  0  0  1  0  0  0  0  0999 V2000
  184.2160  177.6650  142.0540 C   0  0  0  0  0  2  0  0  0  0  0  0
  186.7520  177.9230  141.9500 C   0  0  0  0  0  0  0  0  0  0  0  0
  186.1060  178.7790  139.6710 N   0  0  0  0  0  2  0  0  0  0  0  0
  190.3740  176.7310  140.1830 N   0  0  0  0  0  2  0  0  0  0  0  0
  190.9660  177.0470  137.9290 O   0  0  0  0  0  0  0  0  0  0  0  0
  187.6980  177.2280  142.7400 C   0  0  0  0  0  3  0  0  0  0  0  0
  188.8270  177.9210  138.6970 C   0  0  2  0  0  3  0  0  0  0  0  0
  182.5850  180.0850  138.9480 C   0  0  0  0  0  2  0  0  0  0  0  0
  189.0680  179.3860  138.3760 C   0  0  0  0  0  1  0  0  0  0  0  0
  182.2270  179.9600  140.3020 O   0  0  0  0  0  0  0  0  0  0  0  0
  188.2950  177.7800  140.0860 C   0  0  0  0  0  0  0  0  0  0  0  0
  185.4560  178.4030  142.5700 C   0  0  2  0  0  3  0  0  0  0  0  0
  190.1410  177.2160  138.8640 C   0  0  0  0  0  0  0  0  0  0  0  0
  189.2000  177.1070  140.8800 C   0  0  0  0  0  0  0  0  0  0  0  0
  184.0460  177.7620  140.5350 C   0  0  1  0  0  3  0  0  0  0  0  0
  187.0470  178.1810  140.5810 C   0  0  0  0  0  0  0  0  0  0  0  0
  184.0160  179.5840  138.6920 C   0  0  0  0  0  2  0  0  0  0  0  0
  188.9250  176.8110  142.2090 C   0  0  0  0  0  3  0  0  0  0  0  0
  181.6380  178.6930  140.4730 C   0  0  0  0  0  2  0  0  0  0  0  0
  182.5830  177.5240  140.1370 C   0  0  0  0  0  2  0  0  0  0  0  0
  184.6990  179.0370  139.9520 C   0  0  2  0  0  3  0  0  0  0  0  0
  185.5250  178.6730  146.8640 C   0  0  0  0  0  3  0  0  0  0  0  0
  185.4670  178.5160  144.0680 C   0  0  0  0  0  0  0  0  0  0  0  0
  184.3010  178.8350  144.7820 C   0  0  0  0  0  3  0  0  0  0  0  0
  184.3320  178.9160  146.1770 C   0  0  0  0  0  3  0  0  0  0  0  0
  186.6860  178.3500  146.1580 C   0  0  0  0  0  3  0  0  0  0  0  0
  186.6560  178.2690  144.7630 C   0  0  0  0  0  3  0  0  0  0  0  0
  1 12  1  0  0  0  0
  2 12  1  0  0  0  0
  2  6  1  0  0  0  0
  3 21  1  0  0  0  0
  3 16  1  0  0  0  0
  4 14  1  0  0  0  0
  5 13  2  0  0  0  0
  7  9  1  1  0  0  0
  7 13  1  0  0  0  0
  7 11  1  0  0  0  0
  8 10  1  0  0  0  0
 10 19  1  0  0  0  0
 11 16  1  0  0  0  0
 11 14  2  0  0  0  0
 12 23  1  1  0  0  0
 13  4  1  0  0  0  0
 14 18  1  0  0  0  0
 15 20  1  1  0  0  0
 15  1  1  0  0  0  0
 16  2  2  0  0  0  0
 17  8  1  0  0  0  0
 18  6  2  0  0  0  0
 20 19  1  0  0  0  0
 21 17  1  6  0  0  0
 21 15  1  0  0  0  0
 23 27  2  0  0  0  0
 23 24  1  0  0  0  0
 24 25  2  0  0  0  0
 25 22  1  0  0  0  0
 26 22  2  0  0  0  0
 27 26  1  0  0  0  0
M  END
>  <MODEL>
2

>  <REMARK>
 VINA RESULT:      -7.1      3.887      7.232
  Name = 
  1 active torsions:
  status: ('A' for Active; 'I' for Inactive)
    1  A    between atoms: C_9  and  C_15
                            x       y       z     vdW  Elec       q    Type
                         _______ _______ _______ _____ _____    ______ ____

>  <TORSDO>
F 1

$$$$
=
 OpenBabel11052413393D

 27 31  0  0  1  0  0  0  0  0999 V2000
  189.1330  178.3070  144.4100 C   0  0  0  0  0  2  0  0  0  0  0  0
  187.9360  177.9450  142.1860 C   0  0  0  0  0  0  0  0  0  0  0  0
  190.0230  176.5830  141.8150 N   0  0  0  0  0  2  0  0  0  0  0  0
  187.9090  178.5470  138.0270 N   0  0  0  0  0  2  0  0  0  0  0  0
  189.4780  177.6730  136.5080 O   0  0  0  0  0  0  0  0  0  0  0  0
  186.9390  178.7780  141.6260 C   0  0  0  0  0  3  0  0  0  0  0  0
  189.6950  177.0860  138.8610 C   0  0  2  0  0  3  0  0  0  0  0  0
  192.0980  175.2630  144.7450 C   0  0  0  0  0  2  0  0  0  0  0  0
  189.5640  175.5800  138.7170 C   0  0  0  0  0  1  0  0  0  0  0  0
  191.1440  175.7250  145.6680 O   0  0  0  0  0  0  0  0  0  0  0  0
  188.7990  177.5780  139.9510 C   0  0  0  0  0  0  0  0  0  0  0  0
  187.9450  177.6740  143.6770 C   0  0  2  0  0  3  0  0  0  0  0  0
  189.0510  177.7640  137.6880 C   0  0  0  0  0  0  0  0  0  0  0  0
  187.8140  178.3910  139.4310 C   0  0  0  0  0  0  0  0  0  0  0  0
  190.4900  177.8500  143.8660 C   0  0  1  0  0  3  0  0  0  0  0  0
  188.9070  177.3510  141.3290 C   0  0  0  0  0  0  0  0  0  0  0  0
  191.7160  175.6380  143.3020 C   0  0  0  0  0  2  0  0  0  0  0  0
  186.8750  179.0110  140.2470 C   0  0  0  0  0  3  0  0  0  0  0  0
  191.5330  177.0150  146.0750 C   0  0  0  0  0  2  0  0  0  0  0  0
  191.5880  178.0350  144.9220 C   0  0  0  0  0  2  0  0  0  0  0  0
  190.4190  176.4500  143.2130 C   0  0  2  0  0  3  0  0  0  0  0  0
  184.2000  178.4450  145.6500 C   0  0  0  0  0  3  0  0  0  0  0  0
  186.6430  177.9280  144.3810 C   0  0  0  0  0  0  0  0  0  0  0  0
  186.5760  177.9990  145.7820 C   0  0  0  0  0  3  0  0  0  0  0  0
  185.3550  178.2550  146.4130 C   0  0  0  0  0  3  0  0  0  0  0  0
  184.2640  178.3800  144.2550 C   0  0  0  0  0  3  0  0  0  0  0  0
  185.4840  178.1240  143.6230 C   0  0  0  0  0  3  0  0  0  0  0  0
  2 12  1  0  0  0  0
  3 21  1  0  0  0  0
  4 14  1  0  0  0  0
  5 13  2  0  0  0  0
  6  2  1  0  0  0  0
  7  9  1  6  0  0  0
  7 11  1  0  0  0  0
  8 10  1  0  0  0  0
 10 19  1  0  0  0  0
 11 16  1  0  0  0  0
 12 23  1  1  0  0  0
 12  1  1  0  0  0  0
 13  4  1  0  0  0  0
 13  7  1  0  0  0  0
 14 11  2  0  0  0  0
 14 18  1  0  0  0  0
 15  1  1  1  0  0  0
 15 20  1  0  0  0  0
 16  3  1  0  0  0  0
 16  2  2  0  0  0  0
 17  8  1  0  0  0  0
 18  6  2  0  0  0  0
 20 19  1  0  0  0  0
 21 17  1  6  0  0  0
 21 15  1  0  0  0  0
 22 25  1  0  0  0  0
 23 24  1  0  0  0  0
 24 25  2  0  0  0  0
 26 22  2  0  0  0  0
 27 26  1  0  0  0  0
 27 23  2  0  0  0  0
M  END
>  <MODEL>
3

>  <REMARK>
 VINA RESULT:      -7.0      3.448      5.528
  Name = 
  1 active torsions:
  status: ('A' for Active; 'I' for Inactive)
    1  A    between atoms: C_9  and  C_15
                            x       y       z     vdW  Elec       q    Type
                         _______ _______ _______ _____ _____    ______ ____

>  <TORSDO>
F 1

$$$$
=
 OpenBabel11052413393D

 27 31  0  0  1  0  0  0  0  0999 V2000
  188.9760  178.7140  142.7210 C   0  0  0  0  0  2  0  0  0  0  0  0
  188.4320  177.7780  140.4110 C   0  0  0  0  0  0  0  0  0  0  0  0
  190.5250  176.4860  140.9520 N   0  0  0  0  0  2  0  0  0  0  0  0
  189.5550  177.3930  136.3790 N   0  0  0  0  0  2  0  0  0  0  0  0
  191.4710  176.2780  135.5940 O   0  0  0  0  0  0  0  0  0  0  0  0
  187.6360  178.4010  139.4200 C   0  0  0  0  0  3  0  0  0  0  0  0
  191.0270  176.2680  137.9870 C   0  0  2  0  0  3  0  0  0  0  0  0
  191.7010  176.0010  144.5590 C   0  0  0  0  0  2  0  0  0  0  0  0
  190.9240  174.7640  138.1780 C   0  0  0  0  0  1  0  0  0  0  0  0
  190.5360  176.6120  145.0540 O   0  0  0  0  0  0  0  0  0  0  0  0
  189.8720  176.9490  138.6450 C   0  0  0  0  0  0  0  0  0  0  0  0
  188.0280  177.8630  141.8680 C   0  0  2  0  0  3  0  0  0  0  0  0
  190.7380  176.6170  136.5580 C   0  0  0  0  0  0  0  0  0  0  0  0
  189.0770  177.5640  137.7010 C   0  0  0  0  0  0  0  0  0  0  0  0
  190.4250  178.2200  142.6870 C   0  0  1  0  0  3  0  0  0  0  0  0
  189.5940  177.0570  140.0150 C   0  0  0  0  0  0  0  0  0  0  0  0
  191.7350  176.0080  143.0210 C   0  0  0  0  0  2  0  0  0  0  0  0
  187.9560  178.3030  138.0610 C   0  0  0  0  0  3  0  0  0  0  0  0
  190.8120  177.9820  145.2300 C   0  0  0  0  0  2  0  0  0  0  0  0
  191.1920  178.7050  143.9240 C   0  0  0  0  0  2  0  0  0  0  0  0
  190.5210  176.7040  142.3940 C   0  0  2  0  0  3  0  0  0  0  0  0
  183.8910  178.7800  142.6140 C   0  0  0  0  0  3  0  0  0  0  0  0
  186.5850  178.2010  142.1140 C   0  0  0  0  0  0  0  0  0  0  0  0
  185.7470  178.6190  141.0680 C   0  0  0  0  0  3  0  0  0  0  0  0
  184.4030  178.9100  141.3200 C   0  0  0  0  0  3  0  0  0  0  0  0
  184.7200  178.3590  143.6570 C   0  0  0  0  0  3  0  0  0  0  0  0
  186.0650  178.0690  143.4060 C   0  0  0  0  0  3  0  0  0  0  0  0
  2 12  1  0  0  0  0
  3 21  1  0  0  0  0
  4 13  1  0  0  0  0
  4 14  1  0  0  0  0
  5 13  2  0  0  0  0
  6  2  2  0  0  0  0
  7  9  1  6  0  0  0
  7 11  1  0  0  0  0
  8 10  1  0  0  0  0
 10 19  1  0  0  0  0
 11 16  2  0  0  0  0
 12 23  1  6  0  0  0
 12  1  1  0  0  0  0
 13  7  1  0  0  0  0
 14 18  2  0  0  0  0
 14 11  1  0  0  0  0
 15  1  1  1  0  0  0
 15 20  1  0  0  0  0
 16  2  1  0  0  0  0
 16  3  1  0  0  0  0
 17  8  1  0  0  0  0
 18  6  1  0  0  0  0
 20 19  1  0  0  0  0
 21 15  1  0  0  0  0
 21 17  1  6  0  0  0
 22 26  1  0  0  0  0
 23 27  1  0  0  0  0
 24 25  1  0  0  0  0
 24 23  2  0  0  0  0
 25 22  2  0  0  0  0
 27 26  2  0  0  0  0
M  END
>  <MODEL>
4

>  <REMARK>
 VINA RESULT:      -6.7      2.854      5.409
  Name = 
  1 active torsions:
  status: ('A' for Active; 'I' for Inactive)
    1  A    between atoms: C_9  and  C_15
                            x       y       z     vdW  Elec       q    Type
                         _______ _______ _______ _____ _____    ______ ____

>  <TORSDO>
F 1

$$$$
=
 OpenBabel11052413393D

 27 31  0  0  1  0  0  0  0  0999 V2000
  180.7490  179.4510  136.8560 C   0  0  0  0  0  2  0  0  0  0  0  0
  180.5200  180.5610  139.1410 C   0  0  0  0  0  0  0  0  0  0  0  0
  181.8410  178.5050  139.7550 N   0  0  0  0  0  2  0  0  0  0  0  0
  178.9440  180.3850  143.0340 N   0  0  0  0  0  2  0  0  0  0  0  0
  179.4970  178.7810  144.6620 O   0  0  0  0  0  0  0  0  0  0  0  0
  179.5360  181.5040  139.5200 C   0  0  0  0  0  3  0  0  0  0  0  0
  180.6360  178.6870  142.5130 C   0  0  2  0  0  3  0  0  0  0  0  0
  183.9080  176.6050  137.1570 C   0  0  0  0  0  2  0  0  0  0  0  0
  182.0580  178.8610  143.0170 C   0  0  0  0  0  1  0  0  0  0  0  0
  183.6390  177.5830  136.1840 O   0  0  0  0  0  0  0  0  0  0  0  0
  180.3810  179.6130  141.3680 C   0  0  0  0  0  0  0  0  0  0  0  0
  181.1380  180.6260  137.7600 C   0  0  2  0  0  3  0  0  0  0  0  0
  179.6720  179.2560  143.5100 C   0  0  0  0  0  0  0  0  0  0  0  0
  179.4260  180.5460  141.7110 C   0  0  0  0  0  0  0  0  0  0  0  0
  181.1200  178.0870  137.4460 C   0  0  1  0  0  3  0  0  0  0  0  0
  180.9330  179.5730  140.0810 C   0  0  0  0  0  0  0  0  0  0  0  0
  183.1850  176.9110  138.4800 C   0  0  0  0  0  2  0  0  0  0  0  0
  178.9790  181.5000  140.8040 C   0  0  0  0  0  3  0  0  0  0  0  0
  182.5000  177.1700  135.4660 C   0  0  0  0  0  2  0  0  0  0  0  0
  181.2390  177.0310  136.3390 C   0  0  0  0  0  2  0  0  0  0  0  0
  182.3200  178.1750  138.4170 C   0  0  2  0  0  3  0  0  0  0  0  0
  180.7750  184.3860  135.7000 C   0  0  0  0  0  3  0  0  0  0  0  0
  181.0040  181.9480  137.0610 C   0  0  0  0  0  0  0  0  0  0  0  0
  181.4220  183.1410  137.6730 C   0  0  0  0  0  3  0  0  0  0  0  0
  181.3050  184.3570  136.9930 C   0  0  0  0  0  3  0  0  0  0  0  0
  180.3630  183.2010  135.0850 C   0  0  0  0  0  3  0  0  0  0  0  0
  180.4790  181.9840  135.7640 C   0  0  0  0  0  3  0  0  0  0  0  0
  1 15  1  0  0  0  0
  1 12  1  0  0  0  0
  2  6  2  0  0  0  0
  2 16  1  0  0  0  0
  3 16  1  0  0  0  0
  4 13  1  0  0  0  0
  6 18  1  0  0  0  0
  7  9  1  1  0  0  0
  7 13  1  0  0  0  0
  8 17  1  0  0  0  0
 10  8  1  0  0  0  0
 11 14  1  0  0  0  0
 11  7  1  0  0  0  0
 12 23  1  6  0  0  0
 12  2  1  0  0  0  0
 13  5  2  0  0  0  0
 14  4  1  0  0  0  0
 15 20  1  6  0  0  0
 15 21  1  0  0  0  0
 16 11  2  0  0  0  0
 18 14  2  0  0  0  0
 19 10  1  0  0  0  0
 19 20  1  0  0  0  0
 21 17  1  1  0  0  0
 21  3  1  0  0  0  0
 22 25  1  0  0  0  0
 23 24  1  0  0  0  0
 25 24  2  0  0  0  0
 26 22  2  0  0  0  0
 26 27  1  0  0  0  0
 27 23  2  0  0  0  0
M  END
>  <MODEL>
5

>  <REMARK>
 VINA RESULT:      -6.3      7.190     10.748
  Name = 
  1 active torsions:
  status: ('A' for Active; 'I' for Inactive)
    1  A    between atoms: C_9  and  C_15
                            x       y       z     vdW  Elec       q    Type
                         _______ _______ _______ _____ _____    ______ ____

>  <TORSDO>
F 1

$$$$
=
 OpenBabel11052413393D

 27 31  0  0  1  0  0  0  0  0999 V2000
  183.0180  177.8620  137.6430 C   0  0  0  0  0  2  0  0  0  0  0  0
  182.4470  179.0610  139.8210 C   0  0  0  0  0  0  0  0  0  0  0  0
  184.9040  178.6250  140.1640 N   0  0  0  0  0  2  0  0  0  0  0  0
  182.0980  178.8540  144.0050 N   0  0  0  0  0  2  0  0  0  0  0  0
  183.8690  178.4800  145.5080 O   0  0  0  0  0  0  0  0  0  0  0  0
  181.1630  179.1750  140.4040 C   0  0  0  0  0  3  0  0  0  0  0  0
  184.3810  178.6360  143.1330 C   0  0  2  0  0  3  0  0  0  0  0  0
  187.2570  178.0000  137.2130 C   0  0  0  0  0  2  0  0  0  0  0  0
  185.3280  179.8220  143.1970 C   0  0  0  0  0  1  0  0  0  0  0  0
  186.2280  178.2780  136.2950 O   0  0  0  0  0  0  0  0  0  0  0  0
  183.3720  178.8440  142.0520 C   0  0  0  0  0  0  0  0  0  0  0  0
  182.6090  179.1750  138.3200 C   0  0  2  0  0  3  0  0  0  0  0  0
  183.4720  178.6490  144.3250 C   0  0  0  0  0  0  0  0  0  0  0  0
  182.1080  178.9610  142.5920 C   0  0  0  0  0  0  0  0  0  0  0  0
  184.3260  177.2840  138.1900 C   0  0  1  0  0  3  0  0  0  0  0  0
  183.5770  178.8630  140.6660 C   0  0  0  0  0  0  0  0  0  0  0  0
  186.7510  178.0650  138.6640 C   0  0  0  0  0  2  0  0  0  0  0  0
  180.9840  179.1190  141.7910 C   0  0  0  0  0  3  0  0  0  0  0  0
  185.6120  177.0560  135.9620 C   0  0  0  0  0  2  0  0  0  0  0  0
  184.9720  176.3400  137.1670 C   0  0  0  0  0  2  0  0  0  0  0  0
  185.2540  178.3770  138.7700 C   0  0  2  0  0  3  0  0  0  0  0  0
  179.3790  181.0840  136.2130 C   0  0  0  0  0  3  0  0  0  0  0  0
  181.4770  179.8540  137.6030 C   0  0  0  0  0  0  0  0  0  0  0  0
  181.2480  181.2320  137.7450 C   0  0  0  0  0  3  0  0  0  0  0  0
  180.1990  181.8440  137.0530 C   0  0  0  0  0  3  0  0  0  0  0  0
  179.6070  179.7130  136.0650 C   0  0  0  0  0  3  0  0  0  0  0  0
  180.6550  179.1000  136.7570 C   0  0  0  0  0  3  0  0  0  0  0  0
  1 15  1  0  0  0  0
  1 12  1  0  0  0  0
  2  6  2  0  0  0  0
  2 16  1  0  0  0  0
  3 16  1  0  0  0  0
  4 13  1  0  0  0  0
  6 18  1  0  0  0  0
  7  9  1  1  0  0  0
  7 13  1  0  0  0  0
  8 17  1  0  0  0  0
 10  8  1  0  0  0  0
 11 14  1  0  0  0  0
 11  7  1  0  0  0  0
 12 23  1  6  0  0  0
 12  2  1  0  0  0  0
 13  5  2  0  0  0  0
 14  4  1  0  0  0  0
 15 20  1  6  0  0  0
 15 21  1  0  0  0  0
 16 11  2  0  0  0  0
 18 14  2  0  0  0  0
 19 10  1  0  0  0  0
 19 20  1  0  0  0  0
 21 17  1  1  0  0  0
 21  3  1  0  0  0  0
 22 25  1  0  0  0  0
 23 24  1  0  0  0  0
 25 24  2  0  0  0  0
 26 22  2  0  0  0  0
 26 27  1  0  0  0  0
 27 23  2  0  0  0  0
M  END
>  <MODEL>
6

>  <REMARK>
 VINA RESULT:      -6.3      5.145      9.029
  Name = 
  1 active torsions:
  status: ('A' for Active; 'I' for Inactive)
    1  A    between atoms: C_9  and  C_15
                            x       y       z     vdW  Elec       q    Type
                         _______ _______ _______ _____ _____    ______ ____

>  <TORSDO>
F 1

$$$$
=
 OpenBabel11052413393D

 27 31  0  0  1  0  0  0  0  0999 V2000
  188.0990  177.4100  138.5600 C   0  0  0  0  0  2  0  0  0  0  0  0
  189.6800  176.0820  137.0610 C   0  0  0  0  0  0  0  0  0  0  0  0
  191.1390  176.4210  139.0870 N   0  0  0  0  0  2  0  0  0  0  0  0
  193.2440  176.0140  134.8350 N   0  0  0  0  0  2  0  0  0  0  0  0
  195.4130  176.2310  135.7190 O   0  0  0  0  0  0  0  0  0  0  0  0
  189.6010  175.9670  135.6530 C   0  0  0  0  0  3  0  0  0  0  0  0
  193.5310  176.2220  137.2630 C   0  0  2  0  0  3  0  0  0  0  0  0
  189.6440  177.1750  142.5260 C   0  0  0  0  0  2  0  0  0  0  0  0
  193.9320  175.0070  138.0810 C   0  0  0  0  0  1  0  0  0  0  0  0
  188.3400  176.9920  142.0330 O   0  0  0  0  0  0  0  0  0  0  0  0
  192.0960  176.1190  136.8610 C   0  0  0  0  0  0  0  0  0  0  0  0
  188.4150  176.0670  137.8930 C   0  0  2  0  0  3  0  0  0  0  0  0
  194.1720  176.1550  135.9090 C   0  0  0  0  0  0  0  0  0  0  0  0
  191.9890  176.0030  135.4910 C   0  0  0  0  0  0  0  0  0  0  0  0
  189.2250  177.9100  139.4700 C   0  0  1  0  0  3  0  0  0  0  0  0
  190.9600  176.1880  137.6780 C   0  0  0  0  0  0  0  0  0  0  0  0
  190.6950  177.0270  141.4130 C   0  0  0  0  0  2  0  0  0  0  0  0
  190.7530  175.9330  134.8590 C   0  0  0  0  0  3  0  0  0  0  0  0
  187.8540  178.2510  141.6320 C   0  0  0  0  0  2  0  0  0  0  0  0
  188.6830  178.9020  140.5080 C   0  0  0  0  0  2  0  0  0  0  0  0
  190.0810  176.7530  140.0350 C   0  0  2  0  0  3  0  0  0  0  0  0
  184.9310  174.4080  135.9890 C   0  0  0  0  0  3  0  0  0  0  0  0
  187.2120  175.4720  137.2180 C   0  0  0  0  0  0  0  0  0  0  0  0
  187.0550  174.0810  137.1030 C   0  0  0  0  0  3  0  0  0  0  0  0
  185.9170  173.5520  136.4870 C   0  0  0  0  0  3  0  0  0  0  0  0
  185.0800  175.7930  136.1060 C   0  0  0  0  0  3  0  0  0  0  0  0
  186.2180  176.3230  136.7220 C   0  0  0  0  0  3  0  0  0  0  0  0
  2 16  1  0  0  0  0
  2 12  1  0  0  0  0
  3 21  1  0  0  0  0
  4 14  1  0  0  0  0
  4 13  1  0  0  0  0
  5 13  2  0  0  0  0
  6  2  2  0  0  0  0
  7  9  1  1  0  0  0
 10  8  1  0  0  0  0
 11  7  1  0  0  0  0
 11 16  2  0  0  0  0
 12 23  1  6  0  0  0
 12  1  1  0  0  0  0
 13  7  1  0  0  0  0
 14 11  1  0  0  0  0
 15  1  1  1  0  0  0
 15 21  1  0  0  0  0
 15 20  1  0  0  0  0
 16  3  1  0  0  0  0
 17  8  1  0  0  0  0
 18 14  2  0  0  0  0
 18  6  1  0  0  0  0
 19 10  1  0  0  0  0
 20 19  1  0  0  0  0
 21 17  1  1  0  0  0
 22 26  2  0  0  0  0
 22 25  1  0  0  0  0
 24 23  1  0  0  0  0
 25 24  2  0  0  0  0
 26 27  1  0  0  0  0
 27 23  2  0  0  0  0
M  END
>  <MODEL>
7

>  <REMARK>
 VINA RESULT:      -6.2      2.378      6.661
  Name = 
  1 active torsions:
  status: ('A' for Active; 'I' for Inactive)
    1  A    between atoms: C_9  and  C_15
                            x       y       z     vdW  Elec       q    Type
                         _______ _______ _______ _____ _____    ______ ____

>  <TORSDO>
F 1

$$$$
=
 OpenBabel11052413393D

 27 31  0  0  1  0  0  0  0  0999 V2000
  184.1900  177.6680  137.8150 C   0  0  0  0  0  2  0  0  0  0  0  0
  184.5850  178.6310  140.1440 C   0  0  0  0  0  0  0  0  0  0  0  0
  186.9590  178.2530  139.3910 N   0  0  0  0  0  2  0  0  0  0  0  0
  186.0060  178.0100  144.0510 N   0  0  0  0  0  2  0  0  0  0  0  0
  188.2380  177.5580  144.6390 O   0  0  0  0  0  0  0  0  0  0  0  0
  183.6600  178.6420  141.2150 C   0  0  0  0  0  3  0  0  0  0  0  0
  187.7180  177.9600  142.2950 C   0  0  2  0  0  3  0  0  0  0  0  0
  187.8680  178.0010  135.6840 C   0  0  0  0  0  2  0  0  0  0  0  0
  188.6140  179.1680  142.0820 C   0  0  0  0  0  1  0  0  0  0  0  0
  186.5530  178.3270  135.3090 O   0  0  0  0  0  0  0  0  0  0  0  0
  186.3520  178.2340  141.7560 C   0  0  0  0  0  0  0  0  0  0  0  0
  184.1090  178.8940  138.7310 C   0  0  2  0  0  3  0  0  0  0  0  0
  187.3870  177.8260  143.7510 C   0  0  0  0  0  0  0  0  0  0  0  0
  185.4290  178.2530  142.7800 C   0  0  0  0  0  0  0  0  0  0  0  0
  185.6040  177.0880  137.7090 C   0  0  1  0  0  3  0  0  0  0  0  0
  185.9630  178.3940  140.4200 C   0  0  0  0  0  0  0  0  0  0  0  0
  188.0120  177.9070  137.2130 C   0  0  0  0  0  2  0  0  0  0  0  0
  184.0740  178.4470  142.5380 C   0  0  0  0  0  3  0  0  0  0  0  0
  185.8450  177.1220  135.1380 C   0  0  0  0  0  2  0  0  0  0  0  0
  185.7590  176.2710  136.4190 C   0  0  0  0  0  2  0  0  0  0  0  0
  186.6960  178.1530  137.9610 C   0  0  2  0  0  3  0  0  0  0  0  0
  180.3030  180.8690  138.3680 C   0  0  0  0  0  3  0  0  0  0  0  0
  182.7870  179.5980  138.6210 C   0  0  0  0  0  0  0  0  0  0  0  0
  182.6950  180.9950  138.7180 C   0  0  0  0  0  3  0  0  0  0  0  0
  181.4550  181.6280  138.5940 C   0  0  0  0  0  3  0  0  0  0  0  0
  180.3900  179.4780  138.2650 C   0  0  0  0  0  3  0  0  0  0  0  0
  181.6310  178.8440  138.3890 C   0  0  0  0  0  3  0  0  0  0  0  0
  1 12  1  0  0  0  0
  2 16  2  0  0  0  0
  2  6  1  0  0  0  0
  3 16  1  0  0  0  0
  6 18  2  0  0  0  0
  7  9  1  1  0  0  0
  7 13  1  0  0  0  0
  8 17  1  0  0  0  0
 10  8  1  0  0  0  0
 11  7  1  0  0  0  0
 11 14  2  0  0  0  0
 12 23  1  1  0  0  0
 12  2  1  0  0  0  0
 13  4  1  0  0  0  0
 13  5  2  0  0  0  0
 14  4  1  0  0  0  0
 15 20  1  6  0  0  0
 15  1  1  0  0  0  0
 15 21  1  0  0  0  0
 16 11  1  0  0  0  0
 18 14  1  0  0  0  0
 19 10  1  0  0  0  0
 19 20  1  0  0  0  0
 21 17  1  6  0  0  0
 21  3  1  0  0  0  0
 22 25  1  0  0  0  0
 23 24  1  0  0  0  0
 25 24  2  0  0  0  0
 26 22  2  0  0  0  0
 26 27  1  0  0  0  0
 27 23  2  0  0  0  0
M  END
>  <MODEL>
8

>  <REMARK>
 VINA RESULT:      -6.2      4.050      7.736
  Name = 
  1 active torsions:
  status: ('A' for Active; 'I' for Inactive)
    1  A    between atoms: C_9  and  C_15
                            x       y       z     vdW  Elec       q    Type
                         _______ _______ _______ _____ _____    ______ ____

>  <TORSDO>
F 1

$$$$
=
 OpenBabel11052413393D

 27 31  0  0  1  0  0  0  0  0999 V2000
  189.5720  177.9050  139.9490 C   0  0  0  0  0  2  0  0  0  0  0  0
  187.0800  178.0310  140.4850 C   0  0  0  0  0  0  0  0  0  0  0  0
  187.0180  176.8230  138.2750 N   0  0  0  0  0  2  0  0  0  0  0  0
  183.2990  179.5500  139.4590 N   0  0  0  0  0  2  0  0  0  0  0  0
  182.1200  179.0660  137.4820 O   0  0  0  0  0  0  0  0  0  0  0  0
  186.4570  178.9510  141.3600 C   0  0  0  0  0  3  0  0  0  0  0  0
  184.2630  177.9700  137.8490 C   0  0  2  0  0  3  0  0  0  0  0  0
  190.0570  174.9150  136.9500 C   0  0  0  0  0  2  0  0  0  0  0  0
  183.7740  176.5320  137.8200 C   0  0  0  0  0  1  0  0  0  0  0  0
  190.7590  175.1410  138.1470 O   0  0  0  0  0  0  0  0  0  0  0  0
  185.1430  178.1890  139.0360 C   0  0  0  0  0  0  0  0  0  0  0  0
  188.4240  177.4330  140.8480 C   0  0  2  0  0  3  0  0  0  0  0  0
  183.1290  178.8830  138.2110 C   0  0  0  0  0  0  0  0  0  0  0  0
  184.5570  179.0820  139.9090 C   0  0  0  0  0  0  0  0  0  0  0  0
  189.3370  177.6060  138.4660 C   0  0  1  0  0  3  0  0  0  0  0  0
  186.4180  177.6610  139.2790 C   0  0  0  0  0  0  0  0  0  0  0  0
  188.6790  175.5970  136.9660 C   0  0  0  0  0  2  0  0  0  0  0  0
  185.1950  179.4860  141.0760 C   0  0  0  0  0  3  0  0  0  0  0  0
  191.5210  176.3150  137.9810 C   0  0  0  0  0  2  0  0  0  0  0  0
  190.6690  177.5670  137.7030 C   0  0  0  0  0  2  0  0  0  0  0  0
  188.4100  176.3870  138.2520 C   0  0  2  0  0  3  0  0  0  0  0  0
  189.3830  177.6240  145.0390 C   0  0  0  0  0  3  0  0  0  0  0  0
  188.7810  177.4990  142.3060 C   0  0  0  0  0  0  0  0  0  0  0  0
  189.8360  178.3070  142.7610 C   0  0  0  0  0  3  0  0  0  0  0  0
  190.1360  178.3660  144.1250 C   0  0  0  0  0  3  0  0  0  0  0  0
  188.3280  176.8240  144.5910 C   0  0  0  0  0  3  0  0  0  0  0  0
  188.0270  176.7630  143.2270 C   0  0  0  0  0  3  0  0  0  0  0  0
  1 12  1  0  0  0  0
  2 12  1  0  0  0  0
  2  6  1  0  0  0  0
  3 16  1  0  0  0  0
  4 14  1  0  0  0  0
  5 13  2  0  0  0  0
  7  9  1  1  0  0  0
  7 13  1  0  0  0  0
  7 11  1  0  0  0  0
  8 17  1  0  0  0  0
  8 10  1  0  0  0  0
 11 16  1  0  0  0  0
 11 14  2  0  0  0  0
 12 23  1  1  0  0  0
 13  4  1  0  0  0  0
 14 18  1  0  0  0  0
 15 20  1  6  0  0  0
 15  1  1  0  0  0  0
 16  2  2  0  0  0  0
 18  6  2  0  0  0  0
 19 10  1  0  0  0  0
 20 19  1  0  0  0  0
 21 17  1  6  0  0  0
 21  3  1  0  0  0  0
 21 15  1  0  0  0  0
 23 24  2  0  0  0  0
 23 27  1  0  0  0  0
 24 25  1  0  0  0  0
 25 22  2  0  0  0  0
 26 22  1  0  0  0  0
 27 26  2  0  0  0  0
M  END
>  <MODEL>
9

>  <REMARK>
 VINA RESULT:      -6.0      2.096      3.006
  Name = 
  1 active torsions:
  status: ('A' for Active; 'I' for Inactive)
    1  A    between atoms: C_9  and  C_15
                            x       y       z     vdW  Elec       q    Type
                         _______ _______ _______ _____ _____    ______ ____

>  <TORSDO>
F 1

$$$$
