=
 OpenBabel11052414443D

 32 35  0  0  1  0  0  0  0  0999 V2000
  189.0380  176.2090  143.5330 O   0  0  0  0  0  0  0  0  0  0  0  0
  190.4020  175.9730  143.2300 C   0  0  2  0  0  3  0  0  0  0  0  0
  188.9050  177.4660  144.1590 C   0  0  2  0  0  3  0  0  0  0  0  0
  189.6020  177.4750  145.5190 C   0  0  0  0  0  2  0  0  0  0  0  0
  191.3440  176.0390  144.4450 C   0  0  0  0  0  2  0  0  0  0  0  0
  191.0930  177.2900  145.2770 C   0  0  2  0  0  3  0  0  0  0  0  0
  187.4640  177.8260  144.2920 C   0  0  0  0  0  0  0  0  0  0  0  0
  186.9350  178.0940  145.5600 C   0  0  0  0  0  3  0  0  0  0  0  0
  183.1030  178.7370  142.4070 C   0  0  0  0  0  3  0  0  0  0  0  0
  186.6310  177.9210  143.1700 C   0  0  0  0  0  3  0  0  0  0  0  0
  183.4600  178.8980  144.8000 C   0  0  0  0  0  3  0  0  0  0  0  0
  184.7980  178.5370  144.6260 C   0  0  0  0  0  0  0  0  0  0  0  0
  185.6270  178.4410  145.7010 N   0  0  0  0  0  0  0  0  0  0  0  0
  185.2920  178.2760  143.3300 C   0  0  0  0  0  0  0  0  0  0  0  0
  182.6140  179.0000  143.6910 C   0  0  0  0  0  3  0  0  0  0  0  0
  184.4420  178.3740  142.2260 C   0  0  0  0  0  3  0  0  0  0  0  0
  190.8850  176.6190  141.9190 C   0  0  2  0  0  3  0  0  0  0  0  0
  191.7710  177.6670  142.1730 O   0  0  0  0  0  1  0  0  0  0  0  0
  189.7970  177.0230  140.9180 C   0  0  0  0  0  2  0  0  0  0  0  0
  190.2440  176.9850  139.4590 C   0  0  2  0  0  3  0  0  0  0  0  0
  189.0710  177.3540  138.5650 C   0  0  1  0  0  3  0  0  0  0  0  0
  188.0730  178.1920  139.3380 C   0  0  0  0  0  2  0  0  0  0  0  0
  189.0350  178.8580  138.3790 C   0  0  2  0  0  3  0  0  0  0  0  0
  188.3700  179.1520  137.1900 O   0  0  0  0  0  1  0  0  0  0  0  0
  190.6980  175.7060  139.1270 O   0  0  0  0  0  0  0  0  0  0  0  0
  191.1870  175.8250  137.8220 C   0  0  0  0  0  2  0  0  0  0  0  0
  189.9230  173.8390  137.0160 C   0  0  0  0  0  1  0  0  0  0  0  0
  191.2990  174.4520  137.1830 C   0  0  0  0  0  2  0  0  0  0  0  0
  191.8040  177.1910  146.5400 N   0  0  0  0  0  2  0  0  0  0  0  0
  192.0200  175.7760  146.7980 C   0  0  0  0  0  2  0  0  0  0  0  0
  192.8570  176.8180  148.7770 O   0  0  0  0  0  1  0  0  0  0  0  0
  192.7630  175.5970  148.1080 C   0  0  0  0  0  2  0  0  0  0  0  0
  1  3  1  0  0  0  0
  2 17  1  6  0  0  0
  2  1  1  0  0  0  0
  2  5  1  0  0  0  0
  3  7  1  1  0  0  0
  3  4  1  0  0  0  0
  5  6  1  0  0  0  0
  6  4  1  0  0  0  0
  6 29  1  1  0  0  0
  7  8  1  0  0  0  0
  8 13  2  0  0  0  0
  9 15  1  0  0  0  0
 10 14  1  0  0  0  0
 10  7  2  0  0  0  0
 12 11  1  0  0  0  0
 12 13  1  0  0  0  0
 14 12  2  0  0  0  0
 15 11  2  0  0  0  0
 16  9  2  0  0  0  0
 16 14  1  0  0  0  0
 17 18  1  1  0  0  0
 19 17  1  0  0  0  0
 20 19  1  1  0  0  0
 21 22  1  0  0  0  0
 21 20  1  1  0  0  0
 23 24  1  6  0  0  0
 23 21  1  0  0  0  0
 23 22  1  0  0  0  0
 25 20  1  0  0  0  0
 26 25  1  0  0  0  0
 27 28  1  0  0  0  0
 28 26  1  0  0  0  0
 29 30  1  0  0  0  0
 30 32  1  0  0  0  0
 32 31  1  0  0  0  0
M  END
>  <MODEL>
1

>  <REMARK>
 VINA RESULT:      -8.7      0.000      0.000
  Name = 
  11 active torsions:
  status: ('A' for Active; 'I' for Inactive)
    1  A    between atoms: C_2  and  C_5
    2  A    between atoms: C_3  and  C_20
    3  A    between atoms: C_4  and  C_24
    4  A    between atoms: C_13  and  N_18
    5  A    between atoms: C_13  and  C_29
    6  A    between atoms: O_15  and  C_20
    7  A    between atoms: O_15  and  C_26
    8  A    between atoms: C_16  and  C_20
    9  A    between atoms: C_16  and  C_24
   10  A    between atoms: N_18  and  C_30
   11  A    between atoms: C_19  and  C_26
                            x       y       z     vdW  Elec       q    Type
                         _______ _______ _______ _____ _____    ______ ____

>  <TORSDO>
F 11

$$$$
=
 OpenBabel11052414443D

 32 35  0  0  1  0  0  0  0  0999 V2000
  189.7810  178.3940  142.8350 O   0  0  0  0  0  0  0  0  0  0  0  0
  191.0910  177.8580  142.7810 C   0  0  2  0  0  3  0  0  0  0  0  0
  188.8820  177.5030  142.2110 C   0  0  2  0  0  3  0  0  0  0  0  0
  189.1800  177.3820  140.7180 C   0  0  0  0  0  2  0  0  0  0  0  0
  191.5920  177.5420  141.3600 C   0  0  0  0  0  2  0  0  0  0  0  0
  190.5570  176.7510  140.5690 C   0  0  2  0  0  3  0  0  0  0  0  0
  187.4760  177.9420  142.4440 C   0  0  0  0  0  0  0  0  0  0  0  0
  186.6890  178.3350  141.3560 C   0  0  0  0  0  3  0  0  0  0  0  0
  183.6890  178.7690  145.3380 C   0  0  0  0  0  3  0  0  0  0  0  0
  186.9200  177.9500  143.7290 C   0  0  0  0  0  3  0  0  0  0  0  0
  183.5080  179.1410  142.9490 C   0  0  0  0  0  3  0  0  0  0  0  0
  184.8370  178.7410  142.7840 C   0  0  0  0  0  0  0  0  0  0  0  0
  185.3980  178.7230  141.5450 N   0  0  0  0  0  0  0  0  0  0  0  0
  185.5960  178.3500  143.9080 C   0  0  0  0  0  0  0  0  0  0  0  0
  182.9350  179.1530  144.2250 C   0  0  0  0  0  3  0  0  0  0  0  0
  185.0210  178.3690  145.1810 C   0  0  0  0  0  3  0  0  0  0  0  0
  191.4110  176.8410  143.8900 C   0  0  2  0  0  3  0  0  0  0  0  0
  191.7510  175.6000  143.3510 O   0  0  0  0  0  1  0  0  0  0  0  0
  190.3760  176.7110  145.0130 C   0  0  0  0  0  2  0  0  0  0  0  0
  190.8700  177.1840  146.3770 C   0  0  2  0  0  3  0  0  0  0  0  0
  191.2110  175.9750  147.2340 C   0  0  1  0  0  3  0  0  0  0  0  0
  192.3650  175.2120  146.6180 C   0  0  0  0  0  2  0  0  0  0  0  0
  192.6110  176.1340  147.7920 C   0  0  2  0  0  3  0  0  0  0  0  0
  192.7240  175.3770  148.9570 O   0  0  0  0  0  1  0  0  0  0  0  0
  189.8810  177.9400  147.0120 O   0  0  0  0  0  0  0  0  0  0  0  0
  188.6730  177.3500  146.6280 C   0  0  0  0  0  2  0  0  0  0  0  0
  188.1820  178.1120  148.9450 C   0  0  0  0  0  1  0  0  0  0  0  0
  187.5770  177.7250  147.6090 C   0  0  0  0  0  2  0  0  0  0  0  0
  190.9440  176.6980  139.1700 N   0  0  0  0  0  2  0  0  0  0  0  0
  189.7190  176.6180  138.3900 C   0  0  0  0  0  2  0  0  0  0  0  0
  189.3100  178.6550  137.2140 O   0  0  0  0  0  1  0  0  0  0  0  0
  189.8790  177.3860  137.0930 C   0  0  0  0  0  2  0  0  0  0  0  0
  2  1  1  0  0  0  0
  2 17  1  1  0  0  0
  3  7  1  6  0  0  0
  3  1  1  0  0  0  0
  4  3  1  0  0  0  0
  5  2  1  0  0  0  0
  6 29  1  6  0  0  0
  6  4  1  0  0  0  0
  6  5  1  0  0  0  0
  7 10  1  0  0  0  0
  8 13  1  0  0  0  0
  8  7  2  0  0  0  0
 10 14  2  0  0  0  0
 11 15  2  0  0  0  0
 12 11  1  0  0  0  0
 12 14  1  0  0  0  0
 13 12  2  0  0  0  0
 14 16  1  0  0  0  0
 15  9  1  0  0  0  0
 16  9  2  0  0  0  0
 17 18  1  6  0  0  0
 17 19  1  0  0  0  0
 20 19  1  6  0  0  0
 20 25  1  0  0  0  0
 21 20  1  6  0  0  0
 21 23  1  0  0  0  0
 22 21  1  0  0  0  0
 22 23  1  0  0  0  0
 23 24  1  1  0  0  0
 26 25  1  0  0  0  0
 26 28  1  0  0  0  0
 28 27  1  0  0  0  0
 30 29  1  0  0  0  0
 32 31  1  0  0  0  0
 32 30  1  0  0  0  0
M  END
>  <MODEL>
2

>  <REMARK>
 VINA RESULT:      -8.0      2.182      6.891
  Name = 
  11 active torsions:
  status: ('A' for Active; 'I' for Inactive)
    1  A    between atoms: C_2  and  C_5
    2  A    between atoms: C_3  and  C_20
    3  A    between atoms: C_4  and  C_24
    4  A    between atoms: C_13  and  N_18
    5  A    between atoms: C_13  and  C_29
    6  A    between atoms: O_15  and  C_20
    7  A    between atoms: O_15  and  C_26
    8  A    between atoms: C_16  and  C_20
    9  A    between atoms: C_16  and  C_24
   10  A    between atoms: N_18  and  C_30
   11  A    between atoms: C_19  and  C_26
                            x       y       z     vdW  Elec       q    Type
                         _______ _______ _______ _____ _____    ______ ____

>  <TORSDO>
F 11

$$$$
=
 OpenBabel11052414443D

 32 35  0  0  1  0  0  0  0  0999 V2000
  189.9550  178.3870  142.6570 O   0  0  0  0  0  0  0  0  0  0  0  0
  191.2510  177.8340  142.5110 C   0  0  2  0  0  3  0  0  0  0  0  0
  189.0050  177.5140  142.0860 C   0  0  2  0  0  3  0  0  0  0  0  0
  189.2010  177.4050  140.5760 C   0  0  0  0  0  2  0  0  0  0  0  0
  191.6520  177.5250  141.0580 C   0  0  0  0  0  2  0  0  0  0  0  0
  190.5550  176.7560  140.3300 C   0  0  2  0  0  3  0  0  0  0  0  0
  187.6230  177.9700  142.4160 C   0  0  0  0  0  0  0  0  0  0  0  0
  186.8090  178.4890  141.4030 C   0  0  0  0  0  3  0  0  0  0  0  0
  183.9770  178.6270  145.5270 C   0  0  0  0  0  3  0  0  0  0  0  0
  187.1160  177.8710  143.7180 C   0  0  0  0  0  3  0  0  0  0  0  0
  183.7180  179.2310  143.1920 C   0  0  0  0  0  3  0  0  0  0  0  0
  185.0260  178.8100  142.9370 C   0  0  0  0  0  0  0  0  0  0  0  0
  185.5400  178.8940  141.6800 N   0  0  0  0  0  0  0  0  0  0  0  0
  185.8140  178.2910  143.9870 C   0  0  0  0  0  0  0  0  0  0  0  0
  183.1940  179.1370  144.4850 C   0  0  0  0  0  3  0  0  0  0  0  0
  185.2880  178.2050  145.2780 C   0  0  0  0  0  3  0  0  0  0  0  0
  191.6300  176.8020  143.5870 C   0  0  2  0  0  3  0  0  0  0  0  0
  190.8460  175.6520  143.4790 O   0  0  0  0  0  1  0  0  0  0  0  0
  191.6910  177.3150  145.0310 C   0  0  0  0  0  2  0  0  0  0  0  0
  191.0850  176.3630  146.0590 C   0  0  2  0  0  3  0  0  0  0  0  0
  190.2520  177.1600  147.0500 C   0  0  1  0  0  3  0  0  0  0  0  0
  189.2930  178.0690  146.3080 C   0  0  0  0  0  2  0  0  0  0  0  0
  188.7940  176.7720  146.9060 C   0  0  2  0  0  3  0  0  0  0  0  0
  188.1330  177.0410  148.1040 O   0  0  0  0  0  1  0  0  0  0  0  0
  192.0970  175.6840  146.7430 O   0  0  0  0  0  0  0  0  0  0  0  0
  192.1040  176.2430  148.0250 C   0  0  0  0  0  2  0  0  0  0  0  0
  193.6550  176.8260  149.8800 C   0  0  0  0  0  1  0  0  0  0  0  0
  193.3750  175.8490  148.7560 C   0  0  0  0  0  2  0  0  0  0  0  0
  190.8480  176.7120  138.9080 N   0  0  0  0  0  2  0  0  0  0  0  0
  189.6390  176.2620  138.2370 C   0  0  0  0  0  2  0  0  0  0  0  0
  190.4770  174.0670  137.8130 O   0  0  0  0  0  1  0  0  0  0  0  0
  189.9840  175.2160  137.1940 C   0  0  0  0  0  2  0  0  0  0  0  0
  2  1  1  0  0  0  0
  2 17  1  1  0  0  0
  3  7  1  6  0  0  0
  3  1  1  0  0  0  0
  4  3  1  0  0  0  0
  5  2  1  0  0  0  0
  6 29  1  6  0  0  0
  6  4  1  0  0  0  0
  6  5  1  0  0  0  0
  7 10  1  0  0  0  0
  8 13  1  0  0  0  0
  8  7  2  0  0  0  0
 10 14  2  0  0  0  0
 11 15  2  0  0  0  0
 12 11  1  0  0  0  0
 12 14  1  0  0  0  0
 13 12  2  0  0  0  0
 14 16  1  0  0  0  0
 15  9  1  0  0  0  0
 16  9  2  0  0  0  0
 17 18  1  1  0  0  0
 17 19  1  0  0  0  0
 20 19  1  6  0  0  0
 20 25  1  0  0  0  0
 21 20  1  6  0  0  0
 22 23  1  0  0  0  0
 22 21  1  0  0  0  0
 23 21  1  0  0  0  0
 23 24  1  1  0  0  0
 25 26  1  0  0  0  0
 26 28  1  0  0  0  0
 28 27  1  0  0  0  0
 30 29  1  0  0  0  0
 32 31  1  0  0  0  0
 32 30  1  0  0  0  0
M  END
>  <MODEL>
3

>  <REMARK>
 VINA RESULT:      -8.0      2.281      6.701
  Name = 
  11 active torsions:
  status: ('A' for Active; 'I' for Inactive)
    1  A    between atoms: C_2  and  C_5
    2  A    between atoms: C_3  and  C_20
    3  A    between atoms: C_4  and  C_24
    4  A    between atoms: C_13  and  N_18
    5  A    between atoms: C_13  and  C_29
    6  A    between atoms: O_15  and  C_20
    7  A    between atoms: O_15  and  C_26
    8  A    between atoms: C_16  and  C_20
    9  A    between atoms: C_16  and  C_24
   10  A    between atoms: N_18  and  C_30
   11  A    between atoms: C_19  and  C_26
                            x       y       z     vdW  Elec       q    Type
                         _______ _______ _______ _____ _____    ______ ____

>  <TORSDO>
F 11

$$$$
=
 OpenBabel11052414443D

 32 35  0  0  1  0  0  0  0  0999 V2000
  188.9480  176.2240  143.0980 O   0  0  0  0  0  0  0  0  0  0  0  0
  190.2850  176.0060  142.6810 C   0  0  2  0  0  3  0  0  0  0  0  0
  188.8600  177.4650  143.7640 C   0  0  2  0  0  3  0  0  0  0  0  0
  189.6630  177.4470  145.0630 C   0  0  0  0  0  2  0  0  0  0  0  0
  191.3210  176.0490  143.8180 C   0  0  0  0  0  2  0  0  0  0  0  0
  191.1310  177.2790  144.6980 C   0  0  2  0  0  3  0  0  0  0  0  0
  187.4320  177.8120  144.0210 C   0  0  0  0  0  0  0  0  0  0  0  0
  187.0050  178.0420  145.3330 C   0  0  0  0  0  3  0  0  0  0  0  0
  182.9310  178.7430  142.5130 C   0  0  0  0  0  3  0  0  0  0  0  0
  186.5120  177.9310  142.9720 C   0  0  0  0  0  3  0  0  0  0  0  0
  183.4760  178.8420  144.8740 C   0  0  0  0  0  3  0  0  0  0  0  0
  184.7980  178.4950  144.5840 C   0  0  0  0  0  0  0  0  0  0  0  0
  185.7100  178.3760  145.5870 N   0  0  0  0  0  0  0  0  0  0  0  0
  185.1890  178.2720  143.2460 C   0  0  0  0  0  0  0  0  0  0  0  0
  182.5440  178.9680  143.8380 C   0  0  0  0  0  3  0  0  0  0  0  0
  184.2530  178.3940  142.2160 C   0  0  0  0  0  3  0  0  0  0  0  0
  190.6580  176.6860  141.3530 C   0  0  2  0  0  3  0  0  0  0  0  0
  191.4770  177.7950  141.5690 O   0  0  0  0  0  1  0  0  0  0  0  0
  189.4970  177.0110  140.4050 C   0  0  0  0  0  2  0  0  0  0  0  0
  189.8220  176.8130  138.9270 C   0  0  2  0  0  3  0  0  0  0  0  0
  191.2650  176.3530  138.7880 C   0  0  1  0  0  3  0  0  0  0  0  0
  191.3260  175.0800  137.9700 C   0  0  0  0  0  2  0  0  0  0  0  0
  191.6710  176.4060  137.3290 C   0  0  2  0  0  3  0  0  0  0  0  0
  193.0570  176.5320  137.2480 O   0  0  0  0  0  1  0  0  0  0  0  0
  189.6470  178.0120  138.2300 O   0  0  0  0  0  0  0  0  0  0  0  0
  188.2740  178.2680  138.2920 C   0  0  0  0  0  2  0  0  0  0  0  0
  188.6310  177.9370  135.8530 C   0  0  0  0  0  1  0  0  0  0  0  0
  187.7380  178.5670  136.9040 C   0  0  0  0  0  2  0  0  0  0  0  0
  191.9420  177.1540  145.8970 N   0  0  0  0  0  2  0  0  0  0  0  0
  191.1290  176.4770  146.8950 C   0  0  0  0  0  2  0  0  0  0  0  0
  192.9450  176.2130  148.4220 O   0  0  0  0  0  1  0  0  0  0  0  0
  191.9850  175.5110  147.6910 C   0  0  0  0  0  2  0  0  0  0  0  0
  1  3  1  0  0  0  0
  2 17  1  6  0  0  0
  2  1  1  0  0  0  0
  2  5  1  0  0  0  0
  3  7  1  1  0  0  0
  3  4  1  0  0  0  0
  5  6  1  0  0  0  0
  6  4  1  0  0  0  0
  6 29  1  1  0  0  0
  7  8  1  0  0  0  0
  8 13  2  0  0  0  0
  9 15  1  0  0  0  0
 10 14  1  0  0  0  0
 10  7  2  0  0  0  0
 12 11  1  0  0  0  0
 12 13  1  0  0  0  0
 14 12  2  0  0  0  0
 15 11  2  0  0  0  0
 16  9  2  0  0  0  0
 16 14  1  0  0  0  0
 17 18  1  1  0  0  0
 19 17  1  0  0  0  0
 20 19  1  1  0  0  0
 21 20  1  6  0  0  0
 22 21  1  0  0  0  0
 23 24  1  1  0  0  0
 23 22  1  0  0  0  0
 23 21  1  0  0  0  0
 25 26  1  0  0  0  0
 25 20  1  0  0  0  0
 27 28  1  0  0  0  0
 28 26  1  0  0  0  0
 29 30  1  0  0  0  0
 30 32  1  0  0  0  0
 32 31  1  0  0  0  0
M  END
>  <MODEL>
4

>  <REMARK>
 VINA RESULT:      -8.0      1.051      2.158
  Name = 
  11 active torsions:
  status: ('A' for Active; 'I' for Inactive)
    1  A    between atoms: C_2  and  C_5
    2  A    between atoms: C_3  and  C_20
    3  A    between atoms: C_4  and  C_24
    4  A    between atoms: C_13  and  N_18
    5  A    between atoms: C_13  and  C_29
    6  A    between atoms: O_15  and  C_20
    7  A    between atoms: O_15  and  C_26
    8  A    between atoms: C_16  and  C_20
    9  A    between atoms: C_16  and  C_24
   10  A    between atoms: N_18  and  C_30
   11  A    between atoms: C_19  and  C_26
                            x       y       z     vdW  Elec       q    Type
                         _______ _______ _______ _____ _____    ______ ____

>  <TORSDO>
F 11

$$$$
=
 OpenBabel11052414443D

 32 35  0  0  1  0  0  0  0  0999 V2000
  184.7460  179.5540  140.8160 O   0  0  0  0  0  0  0  0  0  0  0  0
  184.4980  179.3750  139.4330 C   0  0  2  0  0  3  0  0  0  0  0  0
  184.2470  178.4450  141.5310 C   0  0  2  0  0  3  0  0  0  0  0  0
  182.7250  178.3670  141.4270 C   0  0  0  0  0  2  0  0  0  0  0  0
  183.0170  179.1620  139.0740 C   0  0  0  0  0  2  0  0  0  0  0  0
  182.3730  178.1100  139.9700 C   0  0  2  0  0  3  0  0  0  0  0  0
  184.6850  178.5110  142.9560 C   0  0  0  0  0  0  0  0  0  0  0  0
  183.8430  179.0950  143.9080 C   0  0  0  0  0  3  0  0  0  0  0  0
  187.8600  177.5970  146.4900 C   0  0  0  0  0  3  0  0  0  0  0  0
  185.9150  177.9820  143.3640 C   0  0  0  0  0  3  0  0  0  0  0  0
  185.7640  178.7120  146.9850 C   0  0  0  0  0  3  0  0  0  0  0  0
  185.4080  178.6450  145.6360 C   0  0  0  0  0  0  0  0  0  0  0  0
  184.2160  179.1500  145.2160 N   0  0  0  0  0  0  0  0  0  0  0  0
  186.2860  178.0460  144.7070 C   0  0  0  0  0  0  0  0  0  0  0  0
  186.9880  178.1860  147.4110 C   0  0  0  0  0  3  0  0  0  0  0  0
  187.5090  177.5270  145.1370 C   0  0  0  0  0  3  0  0  0  0  0  0
  185.5380  178.5050  138.7060 C   0  0  2  0  0  3  0  0  0  0  0  0
  184.9420  177.3750  138.1440 O   0  0  0  0  0  1  0  0  0  0  0  0
  186.8010  178.1490  139.4980 C   0  0  0  0  0  2  0  0  0  0  0  0
  188.0640  178.0440  138.6480 C   0  0  2  0  0  3  0  0  0  0  0  0
  189.2830  178.2330  139.5360 C   0  0  1  0  0  3  0  0  0  0  0  0
  189.1350  177.4140  140.8010 C   0  0  0  0  0  2  0  0  0  0  0  0
  190.0120  176.9110  139.6760 C   0  0  2  0  0  3  0  0  0  0  0  0
  191.3480  177.1600  139.9860 O   0  0  0  0  0  1  0  0  0  0  0  0
  188.0570  179.0240  137.6510 O   0  0  0  0  0  0  0  0  0  0  0  0
  188.7900  178.4700  136.5960 C   0  0  0  0  0  2  0  0  0  0  0  0
  186.8630  178.0080  135.0920 C   0  0  0  0  0  1  0  0  0  0  0  0
  187.9760  177.3870  135.9130 C   0  0  0  0  0  2  0  0  0  0  0  0
  180.9320  178.1220  139.7840 N   0  0  0  0  0  2  0  0  0  0  0  0
  180.3800  179.0110  140.7940 C   0  0  0  0  0  2  0  0  0  0  0  0
  179.2580  177.6870  142.4330 O   0  0  0  0  0  1  0  0  0  0  0  0
  179.0550  178.4670  141.2940 C   0  0  0  0  0  2  0  0  0  0  0  0
  1  3  1  0  0  0  0
  2 17  1  1  0  0  0
  2  1  1  0  0  0  0
  3  7  1  1  0  0  0
  4  3  1  0  0  0  0
  5  2  1  0  0  0  0
  5  6  1  0  0  0  0
  6 29  1  1  0  0  0
  6  4  1  0  0  0  0
  7 10  2  0  0  0  0
  7  8  1  0  0  0  0
  8 13  2  0  0  0  0
  9 15  1  0  0  0  0
 10 14  1  0  0  0  0
 11 15  2  0  0  0  0
 12 11  1  0  0  0  0
 13 12  1  0  0  0  0
 14 16  1  0  0  0  0
 14 12  2  0  0  0  0
 16  9  2  0  0  0  0
 17 18  1  1  0  0  0
 17 19  1  0  0  0  0
 20 19  1  1  0  0  0
 21 20  1  6  0  0  0
 21 23  1  0  0  0  0
 21 22  1  0  0  0  0
 23 24  1  1  0  0  0
 23 22  1  0  0  0  0
 25 20  1  0  0  0  0
 26 25  1  0  0  0  0
 27 28  1  0  0  0  0
 28 26  1  0  0  0  0
 29 30  1  0  0  0  0
 30 32  1  0  0  0  0
 32 31  1  0  0  0  0
M  END
>  <MODEL>
5

>  <REMARK>
 VINA RESULT:      -7.8      3.185      7.065
  Name = 
  11 active torsions:
  status: ('A' for Active; 'I' for Inactive)
    1  A    between atoms: C_2  and  C_5
    2  A    between atoms: C_3  and  C_20
    3  A    between atoms: C_4  and  C_24
    4  A    between atoms: C_13  and  N_18
    5  A    between atoms: C_13  and  C_29
    6  A    between atoms: O_15  and  C_20
    7  A    between atoms: O_15  and  C_26
    8  A    between atoms: C_16  and  C_20
    9  A    between atoms: C_16  and  C_24
   10  A    between atoms: N_18  and  C_30
   11  A    between atoms: C_19  and  C_26
                            x       y       z     vdW  Elec       q    Type
                         _______ _______ _______ _____ _____    ______ ____

>  <TORSDO>
F 11

$$$$
=
 OpenBabel11052414443D

 32 35  0  0  1  0  0  0  0  0999 V2000
  184.8040  179.5050  140.7150 O   0  0  0  0  0  0  0  0  0  0  0  0
  184.3000  179.4550  139.3920 C   0  0  2  0  0  3  0  0  0  0  0  0
  184.2210  178.4730  141.4800 C   0  0  2  0  0  3  0  0  0  0  0  0
  182.7180  178.6930  141.6400 C   0  0  0  0  0  2  0  0  0  0  0  0
  182.7680  179.5500  139.2910 C   0  0  0  0  0  2  0  0  0  0  0  0
  182.0850  178.5910  140.2590 C   0  0  2  0  0  3  0  0  0  0  0  0
  184.8920  178.3740  142.8090 C   0  0  0  0  0  0  0  0  0  0  0  0
  184.1970  178.7520  143.9620 C   0  0  0  0  0  3  0  0  0  0  0  0
  188.6700  177.2240  145.6030 C   0  0  0  0  0  3  0  0  0  0  0  0
  186.2010  177.8890  142.9280 C   0  0  0  0  0  3  0  0  0  0  0  0
  186.6340  178.0940  146.5930 C   0  0  0  0  0  3  0  0  0  0  0  0
  186.0560  178.1880  145.3250 C   0  0  0  0  0  0  0  0  0  0  0  0
  184.7850  178.6530  145.1850 N   0  0  0  0  0  0  0  0  0  0  0  0
  186.7920  177.7940  144.1870 C   0  0  0  0  0  0  0  0  0  0  0  0
  187.9390  177.6100  146.7310 C   0  0  0  0  0  3  0  0  0  0  0  0
  188.0970  177.3170  144.3300 C   0  0  0  0  0  3  0  0  0  0  0  0
  185.0120  178.4450  138.4760 C   0  0  2  0  0  3  0  0  0  0  0  0
  184.1470  177.4190  138.0910 O   0  0  0  0  0  1  0  0  0  0  0  0
  186.3550  177.9000  138.9770 C   0  0  0  0  0  2  0  0  0  0  0  0
  187.5390  178.2240  138.0700 C   0  0  2  0  0  3  0  0  0  0  0  0
  188.0950  176.9330  137.4910 C   0  0  1  0  0  3  0  0  0  0  0  0
  187.0770  176.2980  136.5670 C   0  0  0  0  0  2  0  0  0  0  0  0
  188.2380  177.0770  135.9890 C   0  0  2  0  0  3  0  0  0  0  0  0
  189.2120  176.1860  135.5390 O   0  0  0  0  0  1  0  0  0  0  0  0
  188.5380  178.8770  138.7960 O   0  0  0  0  0  0  0  0  0  0  0  0
  189.3550  177.8530  139.2870 C   0  0  0  0  0  2  0  0  0  0  0  0
  190.2160  176.7470  141.3420 C   0  0  0  0  0  1  0  0  0  0  0  0
  189.3680  177.8830  140.8050 C   0  0  0  0  0  2  0  0  0  0  0  0
  180.6650  178.8900  140.3270 N   0  0  0  0  0  2  0  0  0  0  0  0
  180.5140  180.3100  140.0550 C   0  0  0  0  0  2  0  0  0  0  0  0
  179.9090  180.8020  142.3110 O   0  0  0  0  0  1  0  0  0  0  0  0
  179.4790  180.9090  140.9880 C   0  0  0  0  0  2  0  0  0  0  0  0
  1  3  1  0  0  0  0
  2 17  1  1  0  0  0
  2  1  1  0  0  0  0
  3  4  1  0  0  0  0
  3  7  1  1  0  0  0
  5  2  1  0  0  0  0
  5  6  1  0  0  0  0
  6 29  1  1  0  0  0
  6  4  1  0  0  0  0
  7 10  2  0  0  0  0
  7  8  1  0  0  0  0
  8 13  2  0  0  0  0
  9 15  1  0  0  0  0
 10 14  1  0  0  0  0
 11 15  2  0  0  0  0
 12 11  1  0  0  0  0
 13 12  1  0  0  0  0
 14 16  1  0  0  0  0
 14 12  2  0  0  0  0
 16  9  2  0  0  0  0
 17 18  1  1  0  0  0
 17 19  1  0  0  0  0
 20 25  1  0  0  0  0
 20 19  1  1  0  0  0
 21 20  1  1  0  0  0
 22 21  1  0  0  0  0
 23 24  1  6  0  0  0
 23 22  1  0  0  0  0
 23 21  1  0  0  0  0
 25 26  1  0  0  0  0
 26 28  1  0  0  0  0
 28 27  1  0  0  0  0
 30 29  1  0  0  0  0
 30 32  1  0  0  0  0
 32 31  1  0  0  0  0
M  END
>  <MODEL>
6

>  <REMARK>
 VINA RESULT:      -7.6      3.374      7.225
  Name = 
  11 active torsions:
  status: ('A' for Active; 'I' for Inactive)
    1  A    between atoms: C_2  and  C_5
    2  A    between atoms: C_3  and  C_20
    3  A    between atoms: C_4  and  C_24
    4  A    between atoms: C_13  and  N_18
    5  A    between atoms: C_13  and  C_29
    6  A    between atoms: O_15  and  C_20
    7  A    between atoms: O_15  and  C_26
    8  A    between atoms: C_16  and  C_20
    9  A    between atoms: C_16  and  C_24
   10  A    between atoms: N_18  and  C_30
   11  A    between atoms: C_19  and  C_26
                            x       y       z     vdW  Elec       q    Type
                         _______ _______ _______ _____ _____    ______ ____

>  <TORSDO>
F 11

$$$$
=
 OpenBabel11052414443D

 32 35  0  0  1  0  0  0  0  0999 V2000
  189.1830  176.4170  142.4540 O   0  0  0  0  0  0  0  0  0  0  0  0
  190.5670  176.1750  142.2660 C   0  0  2  0  0  3  0  0  0  0  0  0
  189.0060  177.6600  143.0970 C   0  0  2  0  0  3  0  0  0  0  0  0
  189.5800  177.6300  144.5120 C   0  0  0  0  0  2  0  0  0  0  0  0
  191.3990  176.2020  143.5600 C   0  0  0  0  0  2  0  0  0  0  0  0
  191.0850  177.4360  144.3980 C   0  0  2  0  0  3  0  0  0  0  0  0
  187.5610  178.0320  143.1110 C   0  0  0  0  0  0  0  0  0  0  0  0
  186.8870  178.2190  141.9000 C   0  0  0  0  0  3  0  0  0  0  0  0
  183.4280  178.9930  145.4330 C   0  0  0  0  0  3  0  0  0  0  0  0
  186.8610  178.1790  144.3150 C   0  0  0  0  0  3  0  0  0  0  0  0
  183.5060  179.0200  143.0090 C   0  0  0  0  0  3  0  0  0  0  0  0
  184.8630  178.6910  143.0480 C   0  0  0  0  0  0  0  0  0  0  0  0
  185.5650  178.5410  141.8920 N   0  0  0  0  0  0  0  0  0  0  0  0
  185.5070  178.5100  144.2910 C   0  0  0  0  0  0  0  0  0  0  0  0
  182.7890  179.1680  144.2020 C   0  0  0  0  0  3  0  0  0  0  0  0
  184.7880  178.6650  145.4790 C   0  0  0  0  0  3  0  0  0  0  0  0
  191.1690  176.8460  141.0190 C   0  0  2  0  0  3  0  0  0  0  0  0
  192.1650  177.7570  141.3710 O   0  0  0  0  0  1  0  0  0  0  0  0
  190.1720  177.4490  140.0230 C   0  0  0  0  0  2  0  0  0  0  0  0
  190.2370  176.8380  138.6260 C   0  0  2  0  0  3  0  0  0  0  0  0
  188.8380  176.8020  138.0290 C   0  0  1  0  0  3  0  0  0  0  0  0
  188.1580  178.1410  138.2210 C   0  0  0  0  0  2  0  0  0  0  0  0
  188.7580  177.7850  136.8790 C   0  0  2  0  0  3  0  0  0  0  0  0
  187.7430  177.3860  136.0110 O   0  0  0  0  0  1  0  0  0  0  0  0
  190.7490  175.5390  138.6910 O   0  0  0  0  0  0  0  0  0  0  0  0
  191.3160  175.3120  137.4330 C   0  0  0  0  0  2  0  0  0  0  0  0
  193.7860  175.1820  137.6960 C   0  0  0  0  0  1  0  0  0  0  0  0
  192.6220  176.0730  137.3070 C   0  0  0  0  0  2  0  0  0  0  0  0
  191.6820  177.3000  145.7150 N   0  0  0  0  0  2  0  0  0  0  0  0
  190.6410  176.8160  146.6080 C   0  0  0  0  0  2  0  0  0  0  0  0
  192.6230  176.1290  147.7480 O   0  0  0  0  0  1  0  0  0  0  0  0
  191.2450  175.9190  147.6710 C   0  0  0  0  0  2  0  0  0  0  0  0
  1  3  1  0  0  0  0
  2 17  1  6  0  0  0
  2  1  1  0  0  0  0
  2  5  1  0  0  0  0
  3  7  1  1  0  0  0
  3  4  1  0  0  0  0
  5  6  1  0  0  0  0
  6  4  1  0  0  0  0
  6 29  1  1  0  0  0
  7 10  1  0  0  0  0
  8  7  2  0  0  0  0
  9 16  2  0  0  0  0
 11 12  1  0  0  0  0
 11 15  2  0  0  0  0
 12 14  1  0  0  0  0
 13  8  1  0  0  0  0
 13 12  2  0  0  0  0
 14 10  2  0  0  0  0
 14 16  1  0  0  0  0
 15  9  1  0  0  0  0
 17 18  1  1  0  0  0
 19 17  1  0  0  0  0
 20 25  1  0  0  0  0
 20 19  1  1  0  0  0
 21 22  1  0  0  0  0
 21 20  1  1  0  0  0
 23 24  1  6  0  0  0
 23 21  1  0  0  0  0
 23 22  1  0  0  0  0
 26 25  1  0  0  0  0
 28 26  1  0  0  0  0
 28 27  1  0  0  0  0
 29 30  1  0  0  0  0
 30 32  1  0  0  0  0
 32 31  1  0  0  0  0
M  END
>  <MODEL>
7

>  <REMARK>
 VINA RESULT:      -7.6      1.307      1.838
  Name = 
  11 active torsions:
  status: ('A' for Active; 'I' for Inactive)
    1  A    between atoms: C_2  and  C_5
    2  A    between atoms: C_3  and  C_20
    3  A    between atoms: C_4  and  C_24
    4  A    between atoms: C_13  and  N_18
    5  A    between atoms: C_13  and  C_29
    6  A    between atoms: O_15  and  C_20
    7  A    between atoms: O_15  and  C_26
    8  A    between atoms: C_16  and  C_20
    9  A    between atoms: C_16  and  C_24
   10  A    between atoms: N_18  and  C_30
   11  A    between atoms: C_19  and  C_26
                            x       y       z     vdW  Elec       q    Type
                         _______ _______ _______ _____ _____    ______ ____

>  <TORSDO>
F 11

$$$$
=
 OpenBabel11052414443D

 32 35  0  0  1  0  0  0  0  0999 V2000
  189.2510  178.3860  143.2230 O   0  0  0  0  0  0  0  0  0  0  0  0
  190.5650  177.9190  142.9740 C   0  0  2  0  0  3  0  0  0  0  0  0
  188.3200  177.5290  142.5980 C   0  0  2  0  0  3  0  0  0  0  0  0
  188.4600  177.5880  141.0780 C   0  0  0  0  0  2  0  0  0  0  0  0
  190.9200  177.7840  141.4820 C   0  0  0  0  0  2  0  0  0  0  0  0
  189.8320  177.0400  140.7160 C   0  0  2  0  0  3  0  0  0  0  0  0
  186.9330  177.8760  143.0230 C   0  0  0  0  0  0  0  0  0  0  0  0
  186.6730  178.1450  144.3710 C   0  0  0  0  0  3  0  0  0  0  0  0
  182.2690  178.7370  142.0700 C   0  0  0  0  0  3  0  0  0  0  0  0
  185.8870  177.9580  142.0960 C   0  0  0  0  0  3  0  0  0  0  0  0
  183.1080  178.9130  144.3390 C   0  0  0  0  0  3  0  0  0  0  0  0
  184.3860  178.5640  143.8950 C   0  0  0  0  0  0  0  0  0  0  0  0
  185.4190  178.4800  144.7770 N   0  0  0  0  0  0  0  0  0  0  0  0
  184.6060  178.3010  142.5260 C   0  0  0  0  0  0  0  0  0  0  0  0
  182.0520  179.0010  143.4260 C   0  0  0  0  0  3  0  0  0  0  0  0
  183.5460  178.3850  141.6190 C   0  0  0  0  0  3  0  0  0  0  0  0
  191.0360  176.8010  143.9200 C   0  0  2  0  0  3  0  0  0  0  0  0
  191.2670  175.6150  143.2210 O   0  0  0  0  0  1  0  0  0  0  0  0
  190.1840  176.5670  145.1730 C   0  0  0  0  0  2  0  0  0  0  0  0
  190.7930  177.1240  146.4570 C   0  0  2  0  0  3  0  0  0  0  0  0
  191.2520  175.9720  147.3360 C   0  0  1  0  0  3  0  0  0  0  0  0
  192.4120  175.2510  146.6830 C   0  0  0  0  0  2  0  0  0  0  0  0
  192.6690  176.2320  147.8060 C   0  0  2  0  0  3  0  0  0  0  0  0
  192.8900  175.5290  148.9900 O   0  0  0  0  0  1  0  0  0  0  0  0
  189.8490  177.8900  147.1470 O   0  0  0  0  0  0  0  0  0  0  0  0
  188.6160  177.3070  146.8350 C   0  0  0  0  0  2  0  0  0  0  0  0
  188.2850  178.2540  149.1110 C   0  0  0  0  0  1  0  0  0  0  0  0
  187.5940  177.6530  147.9020 C   0  0  0  0  0  2  0  0  0  0  0  0
  190.0690  177.1590  139.2880 N   0  0  0  0  0  2  0  0  0  0  0  0
  188.8170  177.5850  138.6830 C   0  0  0  0  0  2  0  0  0  0  0  0
  188.7240  179.7070  137.5940 O   0  0  0  0  0  1  0  0  0  0  0  0
  189.0950  178.3740  137.4180 C   0  0  0  0  0  2  0  0  0  0  0  0
  2  1  1  0  0  0  0
  2 17  1  1  0  0  0
  3  7  1  6  0  0  0
  3  1  1  0  0  0  0
  4  3  1  0  0  0  0
  5  2  1  0  0  0  0
  6 29  1  6  0  0  0
  6  4  1  0  0  0  0
  6  5  1  0  0  0  0
  7  8  1  0  0  0  0
  8 13  2  0  0  0  0
  9 15  1  0  0  0  0
 10 14  1  0  0  0  0
 10  7  2  0  0  0  0
 12 11  1  0  0  0  0
 12 13  1  0  0  0  0
 14 12  2  0  0  0  0
 15 11  2  0  0  0  0
 16  9  2  0  0  0  0
 16 14  1  0  0  0  0
 17 18  1  6  0  0  0
 17 19  1  0  0  0  0
 20 19  1  6  0  0  0
 20 25  1  0  0  0  0
 21 20  1  6  0  0  0
 21 23  1  0  0  0  0
 22 21  1  0  0  0  0
 22 23  1  0  0  0  0
 23 24  1  1  0  0  0
 26 25  1  0  0  0  0
 26 28  1  0  0  0  0
 28 27  1  0  0  0  0
 30 29  1  0  0  0  0
 32 31  1  0  0  0  0
 32 30  1  0  0  0  0
M  END
>  <MODEL>
8

>  <REMARK>
 VINA RESULT:      -7.5      2.112      6.823
  Name = 
  11 active torsions:
  status: ('A' for Active; 'I' for Inactive)
    1  A    between atoms: C_2  and  C_5
    2  A    between atoms: C_3  and  C_20
    3  A    between atoms: C_4  and  C_24
    4  A    between atoms: C_13  and  N_18
    5  A    between atoms: C_13  and  C_29
    6  A    between atoms: O_15  and  C_20
    7  A    between atoms: O_15  and  C_26
    8  A    between atoms: C_16  and  C_20
    9  A    between atoms: C_16  and  C_24
   10  A    between atoms: N_18  and  C_30
   11  A    between atoms: C_19  and  C_26
                            x       y       z     vdW  Elec       q    Type
                         _______ _______ _______ _____ _____    ______ ____

>  <TORSDO>
F 11

$$$$
=
 OpenBabel11052414443D

 32 35  0  0  1  0  0  0  0  0999 V2000
  184.9950  179.4910  141.3300 O   0  0  0  0  0  0  0  0  0  0  0  0
  184.5810  179.3560  139.9820 C   0  0  2  0  0  3  0  0  0  0  0  0
  184.4500  178.4400  142.0970 C   0  0  2  0  0  3  0  0  0  0  0  0
  182.9270  178.5400  142.1580 C   0  0  0  0  0  2  0  0  0  0  0  0
  183.0550  179.3200  139.7850 C   0  0  0  0  0  2  0  0  0  0  0  0
  182.3930  178.3410  140.7470 C   0  0  2  0  0  3  0  0  0  0  0  0
  185.0420  178.4400  143.4670 C   0  0  0  0  0  0  0  0  0  0  0  0
  184.3200  178.9940  144.5290 C   0  0  0  0  0  3  0  0  0  0  0  0
  188.5690  177.3360  146.5880 C   0  0  0  0  0  3  0  0  0  0  0  0
  186.3010  177.8780  143.7140 C   0  0  0  0  0  3  0  0  0  0  0  0
  186.5600  178.4570  147.3570 C   0  0  0  0  0  3  0  0  0  0  0  0
  186.0570  178.4510  146.0530 C   0  0  0  0  0  0  0  0  0  0  0  0
  184.8350  178.9890  145.7880 N   0  0  0  0  0  0  0  0  0  0  0  0
  186.8170  177.8810  145.0100 C   0  0  0  0  0  0  0  0  0  0  0  0
  187.8140  177.8980  147.6230 C   0  0  0  0  0  3  0  0  0  0  0  0
  188.0710  177.3290  145.2800 C   0  0  0  0  0  3  0  0  0  0  0  0
  185.4280  178.3780  139.1490 C   0  0  2  0  0  3  0  0  0  0  0  0
  186.7910  178.5740  139.3760 O   0  0  0  0  0  1  0  0  0  0  0  0
  185.1050  178.3030  137.6520 C   0  0  0  0  0  2  0  0  0  0  0  0
  184.9790  176.8820  137.1100 C   0  0  2  0  0  3  0  0  0  0  0  0
  183.8730  176.1560  137.8600 C   0  0  1  0  0  3  0  0  0  0  0  0
  182.5190  176.6480  137.3920 C   0  0  0  0  0  2  0  0  0  0  0  0
  183.0610  175.3300  136.8820 C   0  0  2  0  0  3  0  0  0  0  0  0
  182.4500  174.2840  137.5700 O   0  0  0  0  0  1  0  0  0  0  0  0
  186.1830  176.1930  137.2760 O   0  0  0  0  0  0  0  0  0  0  0  0
  187.0080  176.6560  136.2460 C   0  0  0  0  0  2  0  0  0  0  0  0
  188.8950  178.2460  136.5590 C   0  0  0  0  0  1  0  0  0  0  0  0
  188.4300  176.8160  136.7520 C   0  0  0  0  0  2  0  0  0  0  0  0
  180.9520  178.5230  140.7180 N   0  0  0  0  0  2  0  0  0  0  0  0
  180.6960  179.8020  140.0760 C   0  0  0  0  0  2  0  0  0  0  0  0
  180.0550  180.5310  142.2570 O   0  0  0  0  0  1  0  0  0  0  0  0
  179.7170  180.6120  140.9050 C   0  0  0  0  0  2  0  0  0  0  0  0
  1  3  1  0  0  0  0
  2 17  1  1  0  0  0
  2  1  1  0  0  0  0
  3  4  1  0  0  0  0
  3  7  1  1  0  0  0
  5  2  1  0  0  0  0
  5  6  1  0  0  0  0
  6 29  1  1  0  0  0
  6  4  1  0  0  0  0
  7 10  2  0  0  0  0
  7  8  1  0  0  0  0
  8 13  2  0  0  0  0
  9 15  1  0  0  0  0
 10 14  1  0  0  0  0
 11 15  2  0  0  0  0
 12 11  1  0  0  0  0
 13 12  1  0  0  0  0
 14 16  1  0  0  0  0
 14 12  2  0  0  0  0
 16  9  2  0  0  0  0
 17 18  1  6  0  0  0
 19 17  1  0  0  0  0
 20 25  1  0  0  0  0
 20 19  1  1  0  0  0
 21 20  1  6  0  0  0
 22 21  1  0  0  0  0
 23 22  1  0  0  0  0
 23 24  1  1  0  0  0
 23 21  1  0  0  0  0
 26 28  1  0  0  0  0
 26 25  1  0  0  0  0
 27 28  1  0  0  0  0
 30 29  1  0  0  0  0
 30 32  1  0  0  0  0
 32 31  1  0  0  0  0
M  END
>  <MODEL>
9

>  <REMARK>
 VINA RESULT:      -7.5      3.793      7.361
  Name = 
  11 active torsions:
  status: ('A' for Active; 'I' for Inactive)
    1  A    between atoms: C_2  and  C_5
    2  A    between atoms: C_3  and  C_20
    3  A    between atoms: C_4  and  C_24
    4  A    between atoms: C_13  and  N_18
    5  A    between atoms: C_13  and  C_29
    6  A    between atoms: O_15  and  C_20
    7  A    between atoms: O_15  and  C_26
    8  A    between atoms: C_16  and  C_20
    9  A    between atoms: C_16  and  C_24
   10  A    between atoms: N_18  and  C_30
   11  A    between atoms: C_19  and  C_26
                            x       y       z     vdW  Elec       q    Type
                         _______ _______ _______ _____ _____    ______ ____

>  <TORSDO>
F 11

$$$$
