=
 OpenBabel11052412193D

 30 32  0  0  1  0  0  0  0  0999 V2000
  183.9990  178.5910  140.0170 C   0  0  1  0  0  3  0  0  0  0  0  0
  182.5440  179.1160  140.2440 C   0  0  2  0  0  3  0  0  0  0  0  0
  184.4460  177.6660  141.0550 N   0  0  0  0  0  2  0  0  0  0  0  0
  182.8540  179.3730  143.9800 C   0  0  0  0  0  2  0  0  0  0  0  0
  182.9130  178.4750  142.7320 C   0  0  2  0  0  3  0  0  0  0  0  0
  185.1470  177.7970  143.2980 O   0  0  0  0  0  0  0  0  0  0  0  0
  184.3730  178.4050  142.2960 C   0  0  1  0  0  3  0  0  0  0  0  0
  182.0590  178.9900  141.6460 N   0  0  0  0  0  0  0  0  0  0  0  0
  183.8630  178.8930  145.0200 C   0  0  0  0  0  2  0  0  0  0  0  0
  185.2260  178.7300  144.3440 C   0  0  0  0  0  2  0  0  0  0  0  0
  180.0060  178.7500  142.7990 N   0  0  0  0  0  2  0  0  0  0  0  0
  180.7390  179.4410  141.9830 C   0  0  0  0  0  0  0  0  0  0  0  0
  185.7460  178.0810  138.2450 C   0  0  1  0  0  3  0  0  0  0  0  0
  186.0860  176.9990  137.2100 C   0  0  0  0  0  2  0  0  0  0  0  0
  186.0170  179.3310  137.6880 O   0  0  0  0  0  1  0  0  0  0  0  0
  183.6860  176.6100  138.4570 C   0  0  0  0  0  2  0  0  0  0  0  0
  182.7230  176.0300  136.2420 C   0  0  0  0  0  1  0  0  0  0  0  0
  184.2610  178.0230  138.6170 C   0  0  1  0  0  3  0  0  0  0  0  0
  184.9870  176.7870  136.3460 O   0  0  0  0  0  0  0  0  0  0  0  0
  184.0020  176.0450  137.0530 C   0  0  1  0  0  3  0  0  0  0  0  0
  180.2650  180.6410  141.4500 O   0  0  0  0  0  0  0  0  0  0  0  0
  178.9310  180.7920  140.9850 C   0  0  0  0  0  1  0  0  0  0  0  0
  181.5200  178.6970  139.1350 C   0  0  1  0  0  3  0  0  0  0  0  0
  180.8950  176.3540  139.7230 C   0  0  0  0  0  1  0  0  0  0  0  0
  180.3590  177.7690  139.5260 C   0  0  2  0  0  3  0  0  0  0  0  0
  179.3750  177.7530  138.5320 O   0  0  0  0  0  0  0  0  0  0  0  0
  179.2110  176.4050  138.2220 C   0  0  0  0  0  1  0  0  0  0  0  0
  181.1260  179.8370  138.1860 C   0  0  0  0  0  2  0  0  0  0  0  0
  181.9180  181.1190  138.4340 C   0  0  0  0  0  2  0  0  0  0  0  0
  181.0680  182.3140  138.0550 C   0  0  0  0  0  1  0  0  0  0  0  0
  1  2  1  0  0  0  0
  1  3  1  1  0  0  0
  2 23  1  6  0  0  0
  2  8  1  0  0  0  0
  4  9  1  0  0  0  0
  5  4  1  1  0  0  0
  6 10  1  0  0  0  0
  7  3  1  6  0  0  0
  7  5  1  0  0  0  0
  7  6  1  0  0  0  0
  8 12  1  0  0  0  0
  8  5  1  0  0  0  0
 10  9  1  0  0  0  0
 12 11  2  0  0  0  0
 13 15  1  6  0  0  0
 13 18  1  0  0  0  0
 14 13  1  0  0  0  0
 18 16  1  1  0  0  0
 18  1  1  0  0  0  0
 19 20  1  0  0  0  0
 19 14  1  0  0  0  0
 20 17  1  6  0  0  0
 20 16  1  0  0  0  0
 21 12  1  0  0  0  0
 22 21  1  0  0  0  0
 23 28  1  1  0  0  0
 23 25  1  0  0  0  0
 25 24  1  6  0  0  0
 26 25  1  0  0  0  0
 27 26  1  0  0  0  0
 28 29  1  0  0  0  0
 30 29  1  0  0  0  0
M  END
>  <MODEL>
1

>  <REMARK>
 VINA RESULT:      -4.9      0.000      0.000
  Name = 
  7 active torsions:
  status: ('A' for Active; 'I' for Inactive)
    1  A    between atoms: C_1  and  C_22
    2  A    between atoms: C_4  and  C_23
    3  A    between atoms: O_7  and  C_30
    4  A    between atoms: C_10  and  C_15
    5  A    between atoms: C_10  and  C_23
    6  A    between atoms: O_11  and  C_25
    7  A    between atoms: C_23  and  C_25
                            x       y       z     vdW  Elec       q    Type
                         _______ _______ _______ _____ _____    ______ ____

>  <TORSDO>
F 7

$$$$
=
 OpenBabel11052412193D

 30 32  0  0  1  0  0  0  0  0999 V2000
  183.7350  178.6400  140.7580 C   0  0  1  0  0  3  0  0  0  0  0  0
  182.3270  179.1270  141.2370 C   0  0  2  0  0  3  0  0  0  0  0  0
  184.3570  177.6900  141.6760 N   0  0  0  0  0  2  0  0  0  0  0  0
  183.2330  179.2600  144.8810 C   0  0  0  0  0  2  0  0  0  0  0  0
  183.1030  178.4080  143.6070 C   0  0  2  0  0  3  0  0  0  0  0  0
  185.4100  177.7570  143.7800 O   0  0  0  0  0  0  0  0  0  0  0  0
  184.4750  178.3840  142.9390 C   0  0  1  0  0  3  0  0  0  0  0  0
  182.0780  178.9420  142.6930 N   0  0  0  0  0  0  0  0  0  0  0  0
  184.4050  178.7660  145.7260 C   0  0  0  0  0  2  0  0  0  0  0  0
  185.6430  178.6550  144.8340 C   0  0  0  0  0  2  0  0  0  0  0  0
  180.2420  178.6190  144.1520 N   0  0  0  0  0  2  0  0  0  0  0  0
  180.8230  179.3530  143.2550 C   0  0  0  0  0  0  0  0  0  0  0  0
  185.0860  178.4960  138.6130 C   0  0  1  0  0  3  0  0  0  0  0  0
  185.3930  177.5000  137.4850 C   0  0  0  0  0  2  0  0  0  0  0  0
  184.9520  179.7690  138.0590 O   0  0  0  0  0  1  0  0  0  0  0  0
  183.4870  176.6230  139.2350 C   0  0  0  0  0  2  0  0  0  0  0  0
  182.1770  175.8290  137.2800 C   0  0  0  0  0  1  0  0  0  0  0  0
  183.7750  178.1260  139.3140 C   0  0  1  0  0  3  0  0  0  0  0  0
  184.1930  177.0510  136.8900 O   0  0  0  0  0  0  0  0  0  0  0  0
  183.5780  176.1230  137.7740 C   0  0  1  0  0  3  0  0  0  0  0  0
  180.2510  180.5600  142.8510 O   0  0  0  0  0  0  0  0  0  0  0  0
  178.9310  180.6400  142.3320 C   0  0  0  0  0  1  0  0  0  0  0  0
  181.1440  178.7250  140.2920 C   0  0  1  0  0  3  0  0  0  0  0  0
  180.7120  180.8040  138.9810 C   0  0  0  0  0  1  0  0  0  0  0  0
  181.0980  179.3310  138.8800 C   0  0  2  0  0  3  0  0  0  0  0  0
  180.1640  178.6640  138.0800 O   0  0  0  0  0  0  0  0  0  0  0  0
  180.4730  179.0560  136.7800 C   0  0  0  0  0  1  0  0  0  0  0  0
  180.7740  177.2360  140.3540 C   0  0  0  0  0  2  0  0  0  0  0  0
  179.3880  176.9910  140.9460 C   0  0  0  0  0  2  0  0  0  0  0  0
  178.9300  175.5920  140.5870 C   0  0  0  0  0  1  0  0  0  0  0  0
  1  2  1  0  0  0  0
  1  3  1  1  0  0  0
  2 23  1  6  0  0  0
  2  8  1  0  0  0  0
  4  9  1  0  0  0  0
  5  4  1  1  0  0  0
  6 10  1  0  0  0  0
  7  3  1  6  0  0  0
  7  5  1  0  0  0  0
  7  6  1  0  0  0  0
  8 12  1  0  0  0  0
  8  5  1  0  0  0  0
 10  9  1  0  0  0  0
 12 11  2  0  0  0  0
 13 15  1  6  0  0  0
 13 18  1  0  0  0  0
 14 13  1  0  0  0  0
 18 16  1  1  0  0  0
 18  1  1  0  0  0  0
 19 14  1  0  0  0  0
 19 20  1  0  0  0  0
 20 17  1  6  0  0  0
 20 16  1  0  0  0  0
 21 12  1  0  0  0  0
 22 21  1  0  0  0  0
 23 28  1  6  0  0  0
 25 24  1  1  0  0  0
 25 23  1  0  0  0  0
 26 25  1  0  0  0  0
 27 26  1  0  0  0  0
 28 29  1  0  0  0  0
 30 29  1  0  0  0  0
M  END
>  <MODEL>
2

>  <REMARK>
 VINA RESULT:      -4.8      1.151      2.287
  Name = 
  7 active torsions:
  status: ('A' for Active; 'I' for Inactive)
    1  A    between atoms: C_1  and  C_22
    2  A    between atoms: C_4  and  C_23
    3  A    between atoms: O_7  and  C_30
    4  A    between atoms: C_10  and  C_15
    5  A    between atoms: C_10  and  C_23
    6  A    between atoms: O_11  and  C_25
    7  A    between atoms: C_23  and  C_25
                            x       y       z     vdW  Elec       q    Type
                         _______ _______ _______ _____ _____    ______ ____

>  <TORSDO>
F 7

$$$$
=
 OpenBabel11052412193D

 30 32  0  0  1  0  0  0  0  0999 V2000
  181.7870  179.2660  139.9110 C   0  0  1  0  0  3  0  0  0  0  0  0
  181.5030  178.1340  138.8700 C   0  0  2  0  0  3  0  0  0  0  0  0
  180.8490  180.3810  139.8190 N   0  0  0  0  0  2  0  0  0  0  0  0
  180.5160  180.4640  136.0920 C   0  0  0  0  0  2  0  0  0  0  0  0
  180.2470  179.9610  137.5210 C   0  0  2  0  0  3  0  0  0  0  0  0
  180.4620  182.1980  138.3730 O   0  0  0  0  0  0  0  0  0  0  0  0
  180.9830  180.8970  138.4740 C   0  0  1  0  0  3  0  0  0  0  0  0
  180.6860  178.5660  137.7030 N   0  0  0  0  0  0  0  0  0  0  0  0
  180.1900  181.9520  135.9900 C   0  0  0  0  0  2  0  0  0  0  0  0
  180.8930  182.6900  137.1300 C   0  0  0  0  0  2  0  0  0  0  0  0
  179.1780  177.6180  136.1440 N   0  0  0  0  0  2  0  0  0  0  0  0
  180.3600  177.6180  136.6760 C   0  0  0  0  0  0  0  0  0  0  0  0
  183.3580  178.9750  141.8850 C   0  0  1  0  0  3  0  0  0  0  0  0
  183.3550  179.1010  143.4160 C   0  0  0  0  0  2  0  0  0  0  0  0
  184.1190  177.8610  141.5320 O   0  0  0  0  0  1  0  0  0  0  0  0
  180.8890  179.4180  142.2820 C   0  0  0  0  0  2  0  0  0  0  0  0
  179.9650  177.9890  144.0920 C   0  0  0  0  0  1  0  0  0  0  0  0
  181.9330  178.7800  141.3580 C   0  0  1  0  0  3  0  0  0  0  0  0
  182.3310  178.2990  143.9690 O   0  0  0  0  0  0  0  0  0  0  0  0
  181.0860  178.9460  143.7410 C   0  0  1  0  0  3  0  0  0  0  0  0
  181.3340  176.7200  136.2350 O   0  0  0  0  0  0  0  0  0  0  0  0
  181.0060  175.5230  135.5430 C   0  0  0  0  0  1  0  0  0  0  0  0
  181.1050  176.7560  139.5000 C   0  0  1  0  0  3  0  0  0  0  0  0
  178.9510  176.5780  140.7480 C   0  0  0  0  0  1  0  0  0  0  0  0
  179.6370  176.3090  139.4120 C   0  0  2  0  0  3  0  0  0  0  0  0
  179.5470  174.9440  139.1150 O   0  0  0  0  0  0  0  0  0  0  0  0
  178.9310  174.3830  140.2310 C   0  0  0  0  0  1  0  0  0  0  0  0
  182.1230  175.6360  139.2450 C   0  0  0  0  0  2  0  0  0  0  0  0
  183.4450  176.1510  138.6810 C   0  0  0  0  0  2  0  0  0  0  0  0
  184.0360  175.1040  137.7570 C   0  0  0  0  0  1  0  0  0  0  0  0
  1  3  1  1  0  0  0
  1 18  1  0  0  0  0
  2 23  1  1  0  0  0
  2  1  1  0  0  0  0
  5  4  1  6  0  0  0
  5  8  1  0  0  0  0
  5  7  1  0  0  0  0
  7  6  1  1  0  0  0
  7  3  1  0  0  0  0
  8  2  1  0  0  0  0
  9  4  1  0  0  0  0
  9 10  1  0  0  0  0
 10  6  1  0  0  0  0
 11 12  2  0  0  0  0
 12  8  1  0  0  0  0
 13 15  1  1  0  0  0
 13 14  1  0  0  0  0
 14 19  1  0  0  0  0
 16 20  1  0  0  0  0
 18 13  1  0  0  0  0
 18 16  1  1  0  0  0
 20 19  1  0  0  0  0
 20 17  1  6  0  0  0
 21 12  1  0  0  0  0
 22 21  1  0  0  0  0
 23 28  1  6  0  0  0
 25 23  1  0  0  0  0
 25 24  1  1  0  0  0
 26 25  1  0  0  0  0
 26 27  1  0  0  0  0
 29 28  1  0  0  0  0
 30 29  1  0  0  0  0
M  END
>  <MODEL>
3

>  <REMARK>
 VINA RESULT:      -4.8      2.340      6.052
  Name = 
  7 active torsions:
  status: ('A' for Active; 'I' for Inactive)
    1  A    between atoms: C_1  and  C_22
    2  A    between atoms: C_4  and  C_23
    3  A    between atoms: O_7  and  C_30
    4  A    between atoms: C_10  and  C_15
    5  A    between atoms: C_10  and  C_23
    6  A    between atoms: O_11  and  C_25
    7  A    between atoms: C_23  and  C_25
                            x       y       z     vdW  Elec       q    Type
                         _______ _______ _______ _____ _____    ______ ____

>  <TORSDO>
F 7

$$$$
=
 OpenBabel11052412193D

 30 32  0  0  1  0  0  0  0  0999 V2000
  183.7720  177.7300  138.8300 C   0  0  1  0  0  3  0  0  0  0  0  0
  183.6470  176.4250  137.9750 C   0  0  2  0  0  3  0  0  0  0  0  0
  184.7960  178.6460  138.3350 N   0  0  0  0  0  2  0  0  0  0  0  0
  187.3330  176.0840  137.3310 C   0  0  0  0  0  2  0  0  0  0  0  0
  186.0660  176.9450  137.1890 C   0  0  2  0  0  3  0  0  0  0  0  0
  187.1470  178.7660  138.3240 O   0  0  0  0  0  0  0  0  0  0  0  0
  186.0380  177.9050  138.3740 C   0  0  1  0  0  3  0  0  0  0  0  0
  184.8450  176.1190  137.1470 N   0  0  0  0  0  0  0  0  0  0  0  0
  188.5550  176.9790  137.5250 C   0  0  0  0  0  2  0  0  0  0  0  0
  188.2620  177.9770  138.6470 C   0  0  0  0  0  2  0  0  0  0  0  0
  185.3680  174.9930  135.1310 N   0  0  0  0  0  2  0  0  0  0  0  0
  184.8540  174.9450  136.3210 C   0  0  0  0  0  0  0  0  0  0  0  0
  181.9580  178.2800  140.5190 C   0  0  1  0  0  3  0  0  0  0  0  0
  181.0560  179.4530  140.9320 C   0  0  0  0  0  2  0  0  0  0  0  0
  181.2170  177.1010  140.5950 O   0  0  0  0  0  1  0  0  0  0  0  0
  182.5260  179.9370  138.6800 C   0  0  0  0  0  2  0  0  0  0  0  0
  180.4900  180.9410  137.6680 C   0  0  0  0  0  1  0  0  0  0  0  0
  182.4470  178.4590  139.0780 C   0  0  1  0  0  3  0  0  0  0  0  0
  180.3170  179.9150  139.8200 O   0  0  0  0  0  0  0  0  0  0  0  0
  181.1910  180.6590  138.9810 C   0  0  1  0  0  3  0  0  0  0  0  0
  184.3350  173.7490  136.8190 O   0  0  0  0  0  0  0  0  0  0  0  0
  185.0390  172.9460  137.7560 C   0  0  0  0  0  1  0  0  0  0  0  0
  182.2660  176.2480  137.2580 C   0  0  1  0  0  3  0  0  0  0  0  0
  181.5590  177.9910  135.6180 C   0  0  0  0  0  1  0  0  0  0  0  0
  182.1680  176.5990  135.7640 C   0  0  2  0  0  3  0  0  0  0  0  0
  181.3690  175.6740  135.0840 O   0  0  0  0  0  0  0  0  0  0  0  0
  180.3020  176.4240  134.5970 C   0  0  0  0  0  1  0  0  0  0  0  0
  181.5150  174.9700  137.6570 C   0  0  0  0  0  2  0  0  0  0  0  0
  180.0990  175.2450  138.1570 C   0  0  0  0  0  2  0  0  0  0  0  0
  179.6900  174.1540  139.1270 C   0  0  0  0  0  1  0  0  0  0  0  0
  1  3  1  6  0  0  0
  1 18  1  0  0  0  0
  2 23  1  6  0  0  0
  2  1  1  0  0  0  0
  3  7  1  0  0  0  0
  4  9  1  0  0  0  0
  5  4  1  1  0  0  0
  5  7  1  0  0  0  0
  6 10  1  0  0  0  0
  7  6  1  6  0  0  0
  8  5  1  0  0  0  0
  8  2  1  0  0  0  0
  9 10  1  0  0  0  0
 11 12  2  0  0  0  0
 12 21  1  0  0  0  0
 12  8  1  0  0  0  0
 13 15  1  6  0  0  0
 13 14  1  0  0  0  0
 16 20  1  0  0  0  0
 18 16  1  1  0  0  0
 18 13  1  0  0  0  0
 19 14  1  0  0  0  0
 20 17  1  6  0  0  0
 20 19  1  0  0  0  0
 21 22  1  0  0  0  0
 23 28  1  6  0  0  0
 25 24  1  1  0  0  0
 25 23  1  0  0  0  0
 26 25  1  0  0  0  0
 27 26  1  0  0  0  0
 28 29  1  0  0  0  0
 29 30  1  0  0  0  0
M  END
>  <MODEL>
4

>  <REMARK>
 VINA RESULT:      -4.6      2.721      6.209
  Name = 
  7 active torsions:
  status: ('A' for Active; 'I' for Inactive)
    1  A    between atoms: C_1  and  C_22
    2  A    between atoms: C_4  and  C_23
    3  A    between atoms: O_7  and  C_30
    4  A    between atoms: C_10  and  C_15
    5  A    between atoms: C_10  and  C_23
    6  A    between atoms: O_11  and  C_25
    7  A    between atoms: C_23  and  C_25
                            x       y       z     vdW  Elec       q    Type
                         _______ _______ _______ _____ _____    ______ ____

>  <TORSDO>
F 7

$$$$
=
 OpenBabel11052412193D

 30 32  0  0  1  0  0  0  0  0999 V2000
  185.8720  178.3660  138.7420 C   0  0  1  0  0  3  0  0  0  0  0  0
  184.4120  177.9610  138.3520 C   0  0  2  0  0  3  0  0  0  0  0  0
  186.2350  177.9680  140.1000 N   0  0  0  0  0  2  0  0  0  0  0  0
  182.9440  178.6670  141.7370 C   0  0  0  0  0  2  0  0  0  0  0  0
  183.9640  177.8700  140.9070 C   0  0  2  0  0  3  0  0  0  0  0  0
  185.7550  178.6740  142.2930 O   0  0  0  0  0  0  0  0  0  0  0  0
  185.2870  178.6280  140.9690 C   0  0  1  0  0  3  0  0  0  0  0  0
  183.5190  177.6960  139.5120 N   0  0  0  0  0  0  0  0  0  0  0  0
  183.5100  178.9570  143.1250 C   0  0  0  0  0  2  0  0  0  0  0  0
  184.9060  179.5620  142.9720 C   0  0  0  0  0  2  0  0  0  0  0  0
  181.6020  176.4020  140.0170 N   0  0  0  0  0  2  0  0  0  0  0  0
  182.1530  177.3190  139.2840 C   0  0  0  0  0  0  0  0  0  0  0  0
  187.8230  179.1190  137.3010 C   0  0  1  0  0  3  0  0  0  0  0  0
  189.2020  178.6240  136.8430 C   0  0  0  0  0  2  0  0  0  0  0  0
  187.2050  179.7680  136.2330 O   0  0  0  0  0  1  0  0  0  0  0  0
  187.7790  176.7620  138.2490 C   0  0  0  0  0  2  0  0  0  0  0  0
  188.4960  175.0720  136.5750 C   0  0  0  0  0  1  0  0  0  0  0  0
  186.9440  177.9400  137.7320 C   0  0  1  0  0  3  0  0  0  0  0  0
  189.0850  177.3610  136.2200 O   0  0  0  0  0  0  0  0  0  0  0  0
  188.8800  176.3830  137.2310 C   0  0  1  0  0  3  0  0  0  0  0  0
  181.4180  177.9660  138.2900 O   0  0  0  0  0  0  0  0  0  0  0  0
  180.9580  179.3030  138.4330 C   0  0  0  0  0  1  0  0  0  0  0  0
  184.3160  176.9300  137.1760 C   0  0  1  0  0  3  0  0  0  0  0  0
  185.0560  174.5470  137.2190 C   0  0  0  0  0  1  0  0  0  0  0  0
  183.8890  175.4890  137.5000 C   0  0  2  0  0  3  0  0  0  0  0  0
  182.7910  175.1060  136.7220 O   0  0  0  0  0  0  0  0  0  0  0  0
  182.4260  173.8590  137.2200 C   0  0  0  0  0  1  0  0  0  0  0  0
  183.6920  177.5020  135.8950 C   0  0  0  0  0  2  0  0  0  0  0  0
  184.3050  176.9180  134.6240 C   0  0  0  0  0  2  0  0  0  0  0  0
  185.8080  177.1090  134.6600 C   0  0  0  0  0  1  0  0  0  0  0  0
  1  3  1  1  0  0  0
  2 23  1  6  0  0  0
  2  1  1  0  0  0  0
  2  8  1  0  0  0  0
  4  9  1  0  0  0  0
  5  7  1  0  0  0  0
  5  4  1  1  0  0  0
  6 10  1  0  0  0  0
  7  3  1  6  0  0  0
  7  6  1  0  0  0  0
  8  5  1  0  0  0  0
 10  9  1  0  0  0  0
 12  8  1  0  0  0  0
 12 11  2  0  0  0  0
 13 15  1  6  0  0  0
 13 18  1  0  0  0  0
 14 13  1  0  0  0  0
 18 16  1  1  0  0  0
 18  1  1  0  0  0  0
 19 14  1  0  0  0  0
 19 20  1  0  0  0  0
 20 17  1  6  0  0  0
 20 16  1  0  0  0  0
 21 22  1  0  0  0  0
 21 12  1  0  0  0  0
 23 28  1  6  0  0  0
 23 25  1  0  0  0  0
 25 24  1  6  0  0  0
 26 27  1  0  0  0  0
 26 25  1  0  0  0  0
 29 30  1  0  0  0  0
 29 28  1  0  0  0  0
M  END
>  <MODEL>
5

>  <REMARK>
 VINA RESULT:      -4.3      2.132      3.876
  Name = 
  7 active torsions:
  status: ('A' for Active; 'I' for Inactive)
    1  A    between atoms: C_1  and  C_22
    2  A    between atoms: C_4  and  C_23
    3  A    between atoms: O_7  and  C_30
    4  A    between atoms: C_10  and  C_15
    5  A    between atoms: C_10  and  C_23
    6  A    between atoms: O_11  and  C_25
    7  A    between atoms: C_23  and  C_25
                            x       y       z     vdW  Elec       q    Type
                         _______ _______ _______ _____ _____    ______ ____

>  <TORSDO>
F 7

$$$$
=
 OpenBabel11052412193D

 30 32  0  0  1  0  0  0  0  0999 V2000
  184.9520  177.5680  138.6200 C   0  0  1  0  0  3  0  0  0  0  0  0
  184.9600  176.3910  137.5890 C   0  0  2  0  0  3  0  0  0  0  0  0
  185.8830  178.6390  138.2760 N   0  0  0  0  0  2  0  0  0  0  0  0
  188.6640  176.5020  136.9710 C   0  0  0  0  0  2  0  0  0  0  0  0
  187.3190  177.2470  136.9270 C   0  0  2  0  0  3  0  0  0  0  0  0
  188.2110  178.9860  138.3250 O   0  0  0  0  0  0  0  0  0  0  0  0
  187.1920  178.0230  138.2340 C   0  0  1  0  0  3  0  0  0  0  0  0
  186.1860  176.3210  136.7480 N   0  0  0  0  0  0  0  0  0  0  0  0
  189.7910  177.4740  137.3100 C   0  0  0  0  0  2  0  0  0  0  0  0
  189.3970  178.2710  138.5550 C   0  0  0  0  0  2  0  0  0  0  0  0
  186.8260  175.5460  134.6050 N   0  0  0  0  0  2  0  0  0  0  0  0
  186.3140  175.2820  135.7660 C   0  0  0  0  0  0  0  0  0  0  0  0
  183.1020  177.7300  140.3510 C   0  0  1  0  0  3  0  0  0  0  0  0
  182.0870  178.7480  140.8920 C   0  0  0  0  0  2  0  0  0  0  0  0
  182.4870  176.4810  140.2870 O   0  0  0  0  0  1  0  0  0  0  0  0
  183.4840  179.6380  138.7180 C   0  0  0  0  0  2  0  0  0  0  0  0
  181.3490  180.5360  137.8180 C   0  0  0  0  0  1  0  0  0  0  0  0
  183.5600  178.1230  138.9430 C   0  0  1  0  0  3  0  0  0  0  0  0
  181.2970  179.2570  139.8370 O   0  0  0  0  0  0  0  0  0  0  0  0
  182.0840  180.1780  139.0940 C   0  0  1  0  0  3  0  0  0  0  0  0
  185.9120  173.9830  136.0830 O   0  0  0  0  0  0  0  0  0  0  0  0
  186.5990  173.1870  137.0390 C   0  0  0  0  0  1  0  0  0  0  0  0
  183.6060  176.1830  136.8290 C   0  0  1  0  0  3  0  0  0  0  0  0
  182.5130  173.9880  136.3640 C   0  0  0  0  0  1  0  0  0  0  0  0
  182.6200  175.1340  137.3670 C   0  0  2  0  0  3  0  0  0  0  0  0
  181.3520  175.6930  137.5620 O   0  0  0  0  0  0  0  0  0  0  0  0
  180.4650  174.6960  137.1660 C   0  0  0  0  0  1  0  0  0  0  0  0
  182.9470  177.4880  136.3590 C   0  0  0  0  0  2  0  0  0  0  0  0
  182.6790  177.5110  134.8560 C   0  0  0  0  0  2  0  0  0  0  0  0
  181.1890  177.3760  134.6120 C   0  0  0  0  0  1  0  0  0  0  0  0
  1  3  1  6  0  0  0
  1 18  1  0  0  0  0
  2 23  1  6  0  0  0
  2  1  1  0  0  0  0
  4  9  1  0  0  0  0
  5  4  1  1  0  0  0
  5  7  1  0  0  0  0
  6 10  1  0  0  0  0
  7  3  1  6  0  0  0
  7  6  1  0  0  0  0
  8  5  1  0  0  0  0
  8  2  1  0  0  0  0
  9 10  1  0  0  0  0
 11 12  2  0  0  0  0
 12 21  1  0  0  0  0
 12  8  1  0  0  0  0
 13 15  1  6  0  0  0
 13 14  1  0  0  0  0
 16 20  1  0  0  0  0
 18 16  1  1  0  0  0
 18 13  1  0  0  0  0
 19 14  1  0  0  0  0
 20 17  1  6  0  0  0
 20 19  1  0  0  0  0
 21 22  1  0  0  0  0
 23 28  1  1  0  0  0
 23 25  1  0  0  0  0
 25 24  1  6  0  0  0
 25 26  1  0  0  0  0
 27 26  1  0  0  0  0
 29 28  1  0  0  0  0
 30 29  1  0  0  0  0
M  END
>  <MODEL>
6

>  <REMARK>
 VINA RESULT:      -4.2      2.899      6.297
  Name = 
  7 active torsions:
  status: ('A' for Active; 'I' for Inactive)
    1  A    between atoms: C_1  and  C_22
    2  A    between atoms: C_4  and  C_23
    3  A    between atoms: O_7  and  C_30
    4  A    between atoms: C_10  and  C_15
    5  A    between atoms: C_10  and  C_23
    6  A    between atoms: O_11  and  C_25
    7  A    between atoms: C_23  and  C_25
                            x       y       z     vdW  Elec       q    Type
                         _______ _______ _______ _____ _____    ______ ____

>  <TORSDO>
F 7

$$$$
=
 OpenBabel11052412193D

 30 32  0  0  1  0  0  0  0  0999 V2000
  188.6530  177.3720  141.0000 C   0  0  1  0  0  3  0  0  0  0  0  0
  187.1260  177.6330  141.2210 C   0  0  2  0  0  3  0  0  0  0  0  0
  189.2420  178.2340  139.9800 N   0  0  0  0  0  2  0  0  0  0  0  0
  186.3580  178.2530  137.5960 C   0  0  0  0  0  2  0  0  0  0  0  0
  187.1600  178.6680  138.8410 C   0  0  2  0  0  3  0  0  0  0  0  0
  189.2190  178.3970  137.6320 O   0  0  0  0  0  0  0  0  0  0  0  0
  188.5100  177.9600  138.7630 C   0  0  1  0  0  3  0  0  0  0  0  0
  186.4530  178.3240  140.0880 N   0  0  0  0  0  0  0  0  0  0  0  0
  187.1880  178.4840  136.3360 C   0  0  0  0  0  2  0  0  0  0  0  0
  188.5610  177.8380  136.5250 C   0  0  0  0  0  2  0  0  0  0  0  0
  184.5970  179.7500  139.7290 N   0  0  0  0  0  2  0  0  0  0  0  0
  185.0500  178.6170  140.1690 C   0  0  0  0  0  0  0  0  0  0  0  0
  190.1670  176.0200  142.5260 C   0  0  1  0  0  3  0  0  0  0  0  0
  191.4360  176.1950  143.3730 C   0  0  0  0  0  2  0  0  0  0  0  0
  189.2790  175.1980  143.2180 O   0  0  0  0  0  1  0  0  0  0  0  0
  190.5010  178.5280  142.3030 C   0  0  0  0  0  2  0  0  0  0  0  0
  190.9310  179.6100  144.4980 C   0  0  0  0  0  1  0  0  0  0  0  0
  189.4920  177.3740  142.2830 C   0  0  1  0  0  3  0  0  0  0  0  0
  191.2660  177.2520  144.2950 O   0  0  0  0  0  0  0  0  0  0  0  0
  191.3640  178.4810  143.5860 C   0  0  1  0  0  3  0  0  0  0  0  0
  184.1780  177.6630  140.6950 O   0  0  0  0  0  0  0  0  0  0  0  0
  182.8480  177.5040  140.2190 C   0  0  0  0  0  1  0  0  0  0  0  0
  186.7560  178.1580  142.6490 C   0  0  1  0  0  3  0  0  0  0  0  0
  185.6800  180.2310  143.5300 C   0  0  0  0  0  1  0  0  0  0  0  0
  185.4210  178.8990  142.8320 C   0  0  2  0  0  3  0  0  0  0  0  0
  184.5310  178.1420  143.6020 O   0  0  0  0  0  0  0  0  0  0  0  0
  183.8650  179.0780  144.3890 C   0  0  0  0  0  1  0  0  0  0  0  0
  187.0970  177.1800  143.7820 C   0  0  0  0  0  2  0  0  0  0  0  0
  187.6650  177.8760  145.0170 C   0  0  0  0  0  2  0  0  0  0  0  0
  186.8080  177.5360  146.2210 C   0  0  0  0  0  1  0  0  0  0  0  0
  1  3  1  6  0  0  0
  1  2  1  0  0  0  0
  1 18  1  0  0  0  0
  2 23  1  1  0  0  0
  5  4  1  6  0  0  0
  5  8  1  0  0  0  0
  7  6  1  6  0  0  0
  7  5  1  0  0  0  0
  7  3  1  0  0  0  0
  8 12  1  0  0  0  0
  8  2  1  0  0  0  0
  9 10  1  0  0  0  0
  9  4  1  0  0  0  0
 10  6  1  0  0  0  0
 11 12  2  0  0  0  0
 12 21  1  0  0  0  0
 13 15  1  1  0  0  0
 13 14  1  0  0  0  0
 14 19  1  0  0  0  0
 16 20  1  0  0  0  0
 18 16  1  6  0  0  0
 18 13  1  0  0  0  0
 20 19  1  0  0  0  0
 20 17  1  1  0  0  0
 22 21  1  0  0  0  0
 23 25  1  0  0  0  0
 23 28  1  1  0  0  0
 25 24  1  1  0  0  0
 25 26  1  0  0  0  0
 26 27  1  0  0  0  0
 28 29  1  0  0  0  0
 29 30  1  0  0  0  0
M  END
>  <MODEL>
7

>  <REMARK>
 VINA RESULT:      -4.1      3.701      7.500
  Name = 
  7 active torsions:
  status: ('A' for Active; 'I' for Inactive)
    1  A    between atoms: C_1  and  C_22
    2  A    between atoms: C_4  and  C_23
    3  A    between atoms: O_7  and  C_30
    4  A    between atoms: C_10  and  C_15
    5  A    between atoms: C_10  and  C_23
    6  A    between atoms: O_11  and  C_25
    7  A    between atoms: C_23  and  C_25
                            x       y       z     vdW  Elec       q    Type
                         _______ _______ _______ _____ _____    ______ ____

>  <TORSDO>
F 7

$$$$
=
 OpenBabel11052412193D

 30 32  0  0  1  0  0  0  0  0999 V2000
  187.7230  178.4760  141.0020 C   0  0  1  0  0  3  0  0  0  0  0  0
  189.2450  178.1170  140.9760 C   0  0  2  0  0  3  0  0  0  0  0  0
  186.9250  177.6650  140.0860 N   0  0  0  0  0  2  0  0  0  0  0  0
  189.3880  177.4960  137.2730 C   0  0  0  0  0  2  0  0  0  0  0  0
  188.7680  177.1170  138.6290 C   0  0  2  0  0  3  0  0  0  0  0  0
  186.5650  177.5310  137.7640 O   0  0  0  0  0  0  0  0  0  0  0  0
  187.4720  177.9080  138.7690 C   0  0  1  0  0  3  0  0  0  0  0  0
  189.6850  177.3990  139.7490 N   0  0  0  0  0  0  0  0  0  0  0  0
  188.3550  177.3330  136.1610 C   0  0  0  0  0  2  0  0  0  0  0  0
  187.0730  178.0620  136.5680 C   0  0  0  0  0  2  0  0  0  0  0  0
  191.3650  175.8650  139.0960 N   0  0  0  0  0  2  0  0  0  0  0  0
  191.0610  177.0180  139.6050 C   0  0  0  0  0  0  0  0  0  0  0  0
  185.6490  179.0050  142.3700 C   0  0  1  0  0  3  0  0  0  0  0  0
  184.8660  178.4570  143.5710 C   0  0  0  0  0  2  0  0  0  0  0  0
  185.6530  180.3970  142.4380 O   0  0  0  0  0  1  0  0  0  0  0  0
  187.2270  177.1600  143.1170 C   0  0  0  0  0  2  0  0  0  0  0  0
  187.6340  177.2170  145.5670 C   0  0  0  0  0  1  0  0  0  0  0  0
  187.0990  178.5100  142.4020 C   0  0  1  0  0  3  0  0  0  0  0  0
  185.7140  178.3420  144.6950 O   0  0  0  0  0  0  0  0  0  0  0  0
  186.5520  177.2090  144.5070 C   0  0  1  0  0  3  0  0  0  0  0  0
  192.0650  177.9090  139.9880 O   0  0  0  0  0  0  0  0  0  0  0  0
  193.4210  177.5100  140.1310 C   0  0  0  0  0  1  0  0  0  0  0  0
  189.8030  177.5510  142.3260 C   0  0  1  0  0  3  0  0  0  0  0  0
  189.5180  175.2460  143.2400 C   0  0  0  0  0  1  0  0  0  0  0  0
  190.3790  176.1260  142.3380 C   0  0  2  0  0  3  0  0  0  0  0  0
  191.6950  176.1230  142.8140 O   0  0  0  0  0  0  0  0  0  0  0  0
  191.6970  175.1730  143.8330 C   0  0  0  0  0  1  0  0  0  0  0  0
  190.6130  178.5680  143.1420 C   0  0  0  0  0  2  0  0  0  0  0  0
  190.1700  178.6480  144.6010 C   0  0  0  0  0  2  0  0  0  0  0  0
  191.2370  178.0290  145.4830 C   0  0  0  0  0  1  0  0  0  0  0  0
  1  3  1  6  0  0  0
  1 18  1  0  0  0  0
  2  1  1  0  0  0  0
  2 23  1  1  0  0  0
  5  4  1  6  0  0  0
  5  7  1  0  0  0  0
  5  8  1  0  0  0  0
  7  6  1  6  0  0  0
  7  3  1  0  0  0  0
  8  2  1  0  0  0  0
  9 10  1  0  0  0  0
  9  4  1  0  0  0  0
 10  6  1  0  0  0  0
 11 12  2  0  0  0  0
 12  8  1  0  0  0  0
 12 21  1  0  0  0  0
 13 18  1  0  0  0  0
 13 15  1  1  0  0  0
 13 14  1  0  0  0  0
 14 19  1  0  0  0  0
 16 20  1  0  0  0  0
 18 16  1  6  0  0  0
 20 19  1  0  0  0  0
 20 17  1  1  0  0  0
 21 22  1  0  0  0  0
 23 25  1  0  0  0  0
 23 28  1  6  0  0  0
 25 26  1  0  0  0  0
 25 24  1  1  0  0  0
 26 27  1  0  0  0  0
 28 29  1  0  0  0  0
 29 30  1  0  0  0  0
M  END
>  <MODEL>
8

>  <REMARK>
 VINA RESULT:      -3.9      4.647      9.263
  Name = 
  7 active torsions:
  status: ('A' for Active; 'I' for Inactive)
    1  A    between atoms: C_1  and  C_22
    2  A    between atoms: C_4  and  C_23
    3  A    between atoms: O_7  and  C_30
    4  A    between atoms: C_10  and  C_15
    5  A    between atoms: C_10  and  C_23
    6  A    between atoms: O_11  and  C_25
    7  A    between atoms: C_23  and  C_25
                            x       y       z     vdW  Elec       q    Type
                         _______ _______ _______ _____ _____    ______ ____

>  <TORSDO>
F 7

$$$$
=
 OpenBabel11052412193D

 30 32  0  0  1  0  0  0  0  0999 V2000
  185.9560  178.8470  142.7470 C   0  0  1  0  0  3  0  0  0  0  0  0
  187.1360  178.7750  141.7230 C   0  0  2  0  0  3  0  0  0  0  0  0
  184.8330  177.9840  142.3930 N   0  0  0  0  0  2  0  0  0  0  0  0
  184.9360  178.5060  138.6880 C   0  0  0  0  0  2  0  0  0  0  0  0
  185.3600  177.9070  140.0400 C   0  0  2  0  0  3  0  0  0  0  0  0
  183.0870  177.9840  140.8140 O   0  0  0  0  0  0  0  0  0  0  0  0
  184.3890  178.4340  141.0910 C   0  0  1  0  0  3  0  0  0  0  0  0
  186.7510  178.2560  140.3820 N   0  0  0  0  0  0  0  0  0  0  0  0
  183.4500  178.2520  138.4460 C   0  0  0  0  0  2  0  0  0  0  0  0
  182.6660  178.6980  139.6810 C   0  0  0  0  0  2  0  0  0  0  0  0
  187.7540  177.1150  138.5670 N   0  0  0  0  0  2  0  0  0  0  0  0
  187.7460  178.1450  139.3520 C   0  0  0  0  0  0  0  0  0  0  0  0
  185.2390  179.0150  145.1780 C   0  0  1  0  0  3  0  0  0  0  0  0
  185.3940  178.2530  146.5020 C   0  0  0  0  0  2  0  0  0  0  0  0
  185.3050  180.3830  145.4420 O   0  0  0  0  0  1  0  0  0  0  0  0
  186.9040  177.2340  144.4650 C   0  0  0  0  0  2  0  0  0  0  0  0
  188.7810  177.0150  146.0780 C   0  0  0  0  0  1  0  0  0  0  0  0
  186.3690  178.6480  144.2110 C   0  0  1  0  0  3  0  0  0  0  0  0
  186.7630  178.0700  146.8030 O   0  0  0  0  0  0  0  0  0  0  0  0
  187.2720  177.0470  145.9560 C   0  0  1  0  0  3  0  0  0  0  0  0
  188.6800  179.1690  139.1870 O   0  0  0  0  0  0  0  0  0  0  0  0
  189.3860  179.3640  137.9690 C   0  0  0  0  0  1  0  0  0  0  0  0
  188.4730  178.2080  142.3090 C   0  0  1  0  0  3  0  0  0  0  0  0
  189.1780  175.8370  142.6440 C   0  0  0  0  0  1  0  0  0  0  0  0
  189.1040  176.9790  141.6340 C   0  0  2  0  0  3  0  0  0  0  0  0
  190.3920  177.2690  141.1720 O   0  0  0  0  0  0  0  0  0  0  0  0
  190.5970  176.3780  140.1220 C   0  0  0  0  0  1  0  0  0  0  0  0
  189.4810  179.2890  142.7230 C   0  0  0  0  0  2  0  0  0  0  0  0
  190.1410  179.0030  144.0700 C   0  0  0  0  0  2  0  0  0  0  0  0
  191.6470  179.0030  143.9000 C   0  0  0  0  0  1  0  0  0  0  0  0
  1  3  1  6  0  0  0
  1 18  1  0  0  0  0
  2 23  1  1  0  0  0
  2  1  1  0  0  0  0
  5  4  1  6  0  0  0
  5  8  1  0  0  0  0
  5  7  1  0  0  0  0
  7  6  1  6  0  0  0
  7  3  1  0  0  0  0
  8  2  1  0  0  0  0
  9  4  1  0  0  0  0
  9 10  1  0  0  0  0
 10  6  1  0  0  0  0
 11 12  2  0  0  0  0
 12  8  1  0  0  0  0
 13 15  1  1  0  0  0
 13 14  1  0  0  0  0
 14 19  1  0  0  0  0
 16 20  1  0  0  0  0
 18 16  1  6  0  0  0
 18 13  1  0  0  0  0
 20 17  1  6  0  0  0
 20 19  1  0  0  0  0
 21 12  1  0  0  0  0
 22 21  1  0  0  0  0
 23 28  1  6  0  0  0
 25 23  1  0  0  0  0
 25 24  1  1  0  0  0
 26 25  1  0  0  0  0
 27 26  1  0  0  0  0
 28 29  1  0  0  0  0
 30 29  1  0  0  0  0
M  END
>  <MODEL>
9

>  <REMARK>
 VINA RESULT:      -3.8      3.478      8.127
  Name = 
  7 active torsions:
  status: ('A' for Active; 'I' for Inactive)
    1  A    between atoms: C_1  and  C_22
    2  A    between atoms: C_4  and  C_23
    3  A    between atoms: O_7  and  C_30
    4  A    between atoms: C_10  and  C_15
    5  A    between atoms: C_10  and  C_23
    6  A    between atoms: O_11  and  C_25
    7  A    between atoms: C_23  and  C_25
                            x       y       z     vdW  Elec       q    Type
                         _______ _______ _______ _____ _____    ______ ____

>  <TORSDO>
F 7

$$$$
