=
 OpenBabel11052415223D

 37 44  0  0  1  0  0  0  0  0999 V2000
  183.3110  177.9680  140.5060 C   0  0  1  0  0  3  0  0  0  0  0  0
  184.4090  177.0830  137.1040 C   0  0  0  0  0  2  0  0  0  0  0  0
  182.0750  178.4990  141.0780 C   0  0  2  0  0  3  0  0  0  0  0  0
  183.4060  178.1610  139.2010 C   0  0  2  0  0  3  0  0  0  0  0  0
  181.6690  179.5310  140.0310 C   0  0  1  0  0  3  0  0  0  0  0  0
  184.6070  177.8610  138.3820 C   0  0  0  0  0  0  0  0  0  0  0  0
  182.5410  179.0790  142.3980 C   0  0  0  0  0  2  0  0  0  0  0  0
  185.5020  178.8660  141.1730 C   0  0  0  0  0  3  0  0  0  0  0  0
  183.7760  178.2550  142.7760 C   0  0  0  0  0  2  0  0  0  0  0  0
  183.1520  177.4460  136.3160 C   0  0  0  0  0  2  0  0  0  0  0  0
  184.4380  177.8490  141.4640 C   0  0  1  0  0  3  0  0  0  0  0  0
  182.2380  178.9570  138.7010 C   0  0  2  0  0  3  0  0  0  0  0  0
  185.8630  178.2060  138.7760 C   0  0  0  0  0  0  0  0  0  0  0  0
  181.8530  177.0080  137.0090 C   0  0  2  0  0  3  0  0  0  0  0  0
  181.2290  178.0820  137.9160 C   0  0  2  0  0  3  0  0  0  0  0  0
  186.1340  178.9900  140.0040 C   0  0  0  0  0  3  0  0  0  0  0  0
  187.2050  178.5450  136.6800 C   0  0  0  0  0  3  0  0  0  0  0  0
  187.0490  177.9260  137.9300 C   0  0  0  0  0  0  0  0  0  0  0  0
  188.0020  176.9870  138.3500 C   0  0  0  0  0  3  0  0  0  0  0  0
  190.0730  175.7440  137.9840 N   0  0  0  0  0  1  0  0  0  0  0  0
  189.2610  177.3230  136.3090 C   0  0  0  0  0  3  0  0  0  0  0  0
  189.1070  176.6900  137.5450 C   0  0  0  0  0  0  0  0  0  0  0  0
  188.3090  178.2490  135.8750 C   0  0  0  0  0  3  0  0  0  0  0  0
  181.2590  174.6230  136.8730 C   0  0  1  0  0  3  0  0  0  0  0  0
  180.6270  175.2020  137.9870 O   0  0  0  0  0  0  0  0  0  0  0  0
  181.9280  175.6500  137.6980 C   0  0  2  0  0  3  0  0  0  0  0  0
  181.7740  173.2510  137.2520 C   0  0  0  0  0  1  0  0  0  0  0  0
  180.1710  179.8790  140.0350 C   0  0  2  0  0  3  0  0  0  0  0  0
  180.0020  181.2650  140.0110 O   0  0  0  0  0  1  0  0  0  0  0  0
  179.4190  179.2930  141.2310 C   0  0  0  0  0  2  0  0  0  0  0  0
  178.9320  180.3760  142.1830 C   0  0  1  0  0  3  0  0  0  0  0  0
  178.9600  179.8690  143.5720 C   0  0  0  0  0  2  0  0  0  0  0  0
  179.9750  180.7020  143.0700 O   0  0  0  0  0  0  0  0  0  0  0  0
  180.3320  178.9670  137.0600 C   0  0  0  0  0  2  0  0  0  0  0  0
  181.1040  180.1610  136.5270 C   0  0  0  0  0  3  0  0  0  0  0  0
  180.1850  181.3650  136.4860 C   0  0  0  0  0  2  0  0  0  0  0  0
  180.4970  180.6080  135.2120 C   0  0  0  0  0  2  0  0  0  0  0  0
  1  3  1  0  0  0  0
  1 11  1  0  0  0  0
  2  6  1  0  0  0  0
  3  7  1  0  0  0  0
  4  1  1  0  0  0  0
  5 28  1  0  0  0  0
  5  3  1  0  0  0  0
  6 13  2  0  0  0  0
  6  4  1  0  0  0  0
  7  9  1  0  0  0  0
  8 11  1  0  0  0  0
 10 14  1  0  0  0  0
 10  2  1  0  0  0  0
 11  9  1  0  0  0  0
 12  4  1  0  0  0  0
 12  5  1  0  0  0  0
 13 16  1  0  0  0  0
 14 26  1  0  0  0  0
 14 15  1  0  0  0  0
 15 12  1  0  0  0  0
 16  8  2  0  0  0  0
 17 18  1  0  0  0  0
 18 19  2  0  0  0  0
 18 13  1  0  0  0  0
 21 22  2  0  0  0  0
 22 20  1  0  0  0  0
 22 19  1  0  0  0  0
 23 21  1  0  0  0  0
 23 17  2  0  0  0  0
 24 27  1  0  0  0  0
 24 26  1  0  0  0  0
 24 25  1  0  0  0  0
 26 25  1  0  0  0  0
 28 30  1  0  0  0  0
 29 28  1  0  0  0  0
 30 31  1  0  0  0  0
 31 33  1  0  0  0  0
 31 32  1  0  0  0  0
 33 32  1  0  0  0  0
 34 15  1  0  0  0  0
 35 34  1  0  0  0  0
 36 35  1  0  0  0  0
 37 36  1  0  0  0  0
 37 35  1  0  0  0  0
M  END
>  <MODEL>
1

>  <REMARK>
 VINA RESULT:      -5.8      0.000      0.000
  Name = 
  7 active torsions:
  status: ('A' for Active; 'I' for Inactive)
    1  A    between atoms: C_1  and  C_5
    2  A    between atoms: C_1  and  C_36
    3  A    between atoms: C_3  and  C_30
    4  A    between atoms: C_6  and  C_31
    5  A    between atoms: C_13  and  C_20
    6  A    between atoms: C_20  and  C_30
    7  A    between atoms: C_26  and  C_33
                            x       y       z     vdW  Elec       q    Type
                         _______ _______ _______ _____ _____    ______ ____

>  <TORSDO>
F 7

$$$$
=
 OpenBabel11052415223D

 37 44  0  0  1  0  0  0  0  0999 V2000
  181.3190  176.9870  137.7260 C   0  0  1  0  0  3  0  0  0  0  0  0
  182.3940  180.3650  138.7230 C   0  0  0  0  0  2  0  0  0  0  0  0
  182.0080  175.7180  137.4990 C   0  0  2  0  0  3  0  0  0  0  0  0
  182.1290  178.0320  137.6980 C   0  0  2  0  0  3  0  0  0  0  0  0
  183.2740  176.1780  136.7840 C   0  0  1  0  0  3  0  0  0  0  0  0
  181.6920  179.4500  137.7510 C   0  0  0  0  0  0  0  0  0  0  0  0
  181.0260  174.9570  136.6310 C   0  0  0  0  0  2  0  0  0  0  0  0
  179.6130  177.8010  136.1520 C   0  0  0  0  0  3  0  0  0  0  0  0
  179.6520  175.5210  137.0040 C   0  0  0  0  0  2  0  0  0  0  0  0
  183.8990  180.1380  138.8520 C   0  0  0  0  0  2  0  0  0  0  0  0
  179.8760  176.9810  137.3810 C   0  0  1  0  0  3  0  0  0  0  0  0
  183.5240  177.6060  137.3490 C   0  0  2  0  0  3  0  0  0  0  0  0
  180.6540  179.9210  137.0080 C   0  0  0  0  0  0  0  0  0  0  0  0
  184.2580  178.8150  139.5430 C   0  0  2  0  0  3  0  0  0  0  0  0
  184.4670  177.6360  138.5780 C   0  0  2  0  0  3  0  0  0  0  0  0
  179.9330  179.0890  136.0160 C   0  0  0  0  0  3  0  0  0  0  0  0
  179.3400  181.8100  138.0140 C   0  0  0  0  0  3  0  0  0  0  0  0
  180.2500  181.3470  137.0500 C   0  0  0  0  0  0  0  0  0  0  0  0
  180.7310  182.2400  136.0820 C   0  0  0  0  0  3  0  0  0  0  0  0
  180.8310  184.4800  135.1120 N   0  0  0  0  0  1  0  0  0  0  0  0
  179.4360  184.0340  137.0650 C   0  0  0  0  0  3  0  0  0  0  0  0
  180.3300  183.5800  136.0910 C   0  0  0  0  0  0  0  0  0  0  0  0
  178.9390  183.1490  138.0240 C   0  0  0  0  0  3  0  0  0  0  0  0
  184.0090  178.7790  141.9930 C   0  0  1  0  0  3  0  0  0  0  0  0
  183.9820  177.4640  141.4980 O   0  0  0  0  0  0  0  0  0  0  0  0
  183.3510  178.4440  140.7120 C   0  0  2  0  0  3  0  0  0  0  0  0
  182.9650  178.9230  143.0790 C   0  0  0  0  0  1  0  0  0  0  0  0
  184.4500  175.1930  136.8850 C   0  0  2  0  0  3  0  0  0  0  0  0
  184.9740  174.9410  135.6150 O   0  0  0  0  0  1  0  0  0  0  0  0
  184.0710  173.8690  137.5510 C   0  0  0  0  0  2  0  0  0  0  0  0
  184.3440  172.6770  136.6460 C   0  0  1  0  0  3  0  0  0  0  0  0
  183.5080  171.5310  137.0650 C   0  0  0  0  0  2  0  0  0  0  0  0
  183.1560  172.3410  135.9710 O   0  0  0  0  0  0  0  0  0  0  0  0
  185.9190  177.6480  138.1180 C   0  0  0  0  0  2  0  0  0  0  0  0
  186.0620  178.4030  136.8080 C   0  0  0  0  0  3  0  0  0  0  0  0
  187.0510  177.6730  135.9220 C   0  0  0  0  0  2  0  0  0  0  0  0
  187.4820  178.9150  136.6740 C   0  0  0  0  0  2  0  0  0  0  0  0
  2 10  1  0  0  0  0
  3  1  1  0  0  0  0
  4  1  1  0  0  0  0
  4  6  1  0  0  0  0
  5 28  1  0  0  0  0
  5 12  1  0  0  0  0
  5  3  1  0  0  0  0
  6  2  1  0  0  0  0
  7  9  1  0  0  0  0
  7  3  1  0  0  0  0
  8 11  1  0  0  0  0
  9 11  1  0  0  0  0
 10 14  1  0  0  0  0
 11  1  1  0  0  0  0
 12  4  1  0  0  0  0
 12 15  1  0  0  0  0
 13 18  1  0  0  0  0
 13  6  2  0  0  0  0
 14 26  1  0  0  0  0
 15 14  1  0  0  0  0
 16  8  2  0  0  0  0
 16 13  1  0  0  0  0
 17 23  1  0  0  0  0
 18 17  2  0  0  0  0
 19 22  2  0  0  0  0
 19 18  1  0  0  0  0
 20 22  1  0  0  0  0
 21 23  2  0  0  0  0
 22 21  1  0  0  0  0
 24 27  1  0  0  0  0
 25 24  1  0  0  0  0
 26 25  1  0  0  0  0
 26 24  1  0  0  0  0
 28 30  1  0  0  0  0
 29 28  1  0  0  0  0
 31 32  1  0  0  0  0
 31 30  1  0  0  0  0
 33 31  1  0  0  0  0
 33 32  1  0  0  0  0
 34 15  1  0  0  0  0
 35 34  1  0  0  0  0
 36 37  1  0  0  0  0
 36 35  1  0  0  0  0
 37 35  1  0  0  0  0
M  END
>  <MODEL>
2

>  <REMARK>
 VINA RESULT:      -5.4      3.128      7.590
  Name = 
  7 active torsions:
  status: ('A' for Active; 'I' for Inactive)
    1  A    between atoms: C_1  and  C_5
    2  A    between atoms: C_1  and  C_36
    3  A    between atoms: C_3  and  C_30
    4  A    between atoms: C_6  and  C_31
    5  A    between atoms: C_13  and  C_20
    6  A    between atoms: C_20  and  C_30
    7  A    between atoms: C_26  and  C_33
                            x       y       z     vdW  Elec       q    Type
                         _______ _______ _______ _____ _____    ______ ____

>  <TORSDO>
F 7

$$$$
=
 OpenBabel11052415223D

 37 44  0  0  1  0  0  0  0  0999 V2000
  183.5170  178.7680  139.7300 C   0  0  1  0  0  3  0  0  0  0  0  0
  182.1400  178.7090  143.1450 C   0  0  0  0  0  2  0  0  0  0  0  0
  183.0300  178.3370  138.4210 C   0  0  2  0  0  3  0  0  0  0  0  0
  182.8640  178.2130  140.7380 C   0  0  2  0  0  3  0  0  0  0  0  0
  182.3430  177.0200  138.7660 C   0  0  1  0  0  3  0  0  0  0  0  0
  183.2330  178.3490  142.1690 C   0  0  0  0  0  0  0  0  0  0  0  0
  184.3090  178.1980  137.6190 C   0  0  0  0  0  2  0  0  0  0  0  0
  185.8130  178.2610  140.4560 C   0  0  0  0  0  3  0  0  0  0  0  0
  185.2870  179.1840  138.2660 C   0  0  0  0  0  2  0  0  0  0  0  0
  180.7910  178.0440  142.8760 C   0  0  0  0  0  2  0  0  0  0  0  0
  184.9240  179.2390  139.7460 C   0  0  1  0  0  3  0  0  0  0  0  0
  181.8570  177.2240  140.2300 C   0  0  2  0  0  3  0  0  0  0  0  0
  184.5150  178.2250  142.6070 C   0  0  0  0  0  0  0  0  0  0  0  0
  180.0960  178.5680  141.6100 C   0  0  2  0  0  3  0  0  0  0  0  0
  180.4080  177.7600  140.3400 C   0  0  2  0  0  3  0  0  0  0  0  0
  185.6370  177.8510  141.7140 C   0  0  0  0  0  3  0  0  0  0  0  0
  183.9680  178.9140  144.9590 C   0  0  0  0  0  3  0  0  0  0  0  0
  184.8620  178.3330  144.0450 C   0  0  0  0  0  0  0  0  0  0  0  0
  186.1200  177.9080  144.4970 C   0  0  0  0  0  3  0  0  0  0  0  0
  187.7430  177.5930  146.2940 N   0  0  0  0  0  1  0  0  0  0  0  0
  185.5670  178.6020  146.7490 C   0  0  0  0  0  3  0  0  0  0  0  0
  186.4700  178.0370  145.8440 C   0  0  0  0  0  0  0  0  0  0  0  0
  184.3180  179.0430  146.3070 C   0  0  0  0  0  3  0  0  0  0  0  0
  179.0470  180.5950  140.6860 C   0  0  1  0  0  3  0  0  0  0  0  0
  180.2480  180.3330  140.0030 O   0  0  0  0  0  0  0  0  0  0  0  0
  180.2400  180.0690  141.3840 C   0  0  2  0  0  3  0  0  0  0  0  0
  178.9310  182.0840  140.9310 C   0  0  0  0  0  1  0  0  0  0  0  0
  181.2740  176.5810  137.7520 C   0  0  2  0  0  3  0  0  0  0  0  0
  181.6240  175.3510  137.1890 O   0  0  0  0  0  1  0  0  0  0  0  0
  181.0430  177.6040  136.6380 C   0  0  0  0  0  2  0  0  0  0  0  0
  179.6730  178.2570  136.7400 C   0  0  1  0  0  3  0  0  0  0  0  0
  179.8110  179.7260  136.6300 C   0  0  0  0  0  2  0  0  0  0  0  0
  179.4060  178.9390  135.5380 O   0  0  0  0  0  0  0  0  0  0  0  0
  179.4200  176.6030  140.2560 C   0  0  0  0  0  2  0  0  0  0  0  0
  180.0480  175.3200  140.7700 C   0  0  0  0  0  3  0  0  0  0  0  0
  179.5640  174.1600  139.9250 C   0  0  0  0  0  2  0  0  0  0  0  0
  178.9630  174.4020  141.2940 C   0  0  0  0  0  2  0  0  0  0  0  0
  1 11  1  0  0  0  0
  1  4  1  0  0  0  0
  3  5  1  0  0  0  0
  3  1  1  0  0  0  0
  4  6  1  0  0  0  0
  5 12  1  0  0  0  0
  6 13  2  0  0  0  0
  6  2  1  0  0  0  0
  7  9  1  0  0  0  0
  7  3  1  0  0  0  0
  8 16  2  0  0  0  0
  9 11  1  0  0  0  0
 10  2  1  0  0  0  0
 11  8  1  0  0  0  0
 12 15  1  0  0  0  0
 12  4  1  0  0  0  0
 13 18  1  0  0  0  0
 14 10  1  0  0  0  0
 15 14  1  0  0  0  0
 16 13  1  0  0  0  0
 17 23  1  0  0  0  0
 18 19  1  0  0  0  0
 18 17  2  0  0  0  0
 19 22  2  0  0  0  0
 22 20  1  0  0  0  0
 22 21  1  0  0  0  0
 23 21  2  0  0  0  0
 24 27  1  0  0  0  0
 24 26  1  0  0  0  0
 25 24  1  0  0  0  0
 25 26  1  0  0  0  0
 26 14  1  0  0  0  0
 28  5  1  0  0  0  0
 29 28  1  0  0  0  0
 30 31  1  0  0  0  0
 30 28  1  0  0  0  0
 32 31  1  0  0  0  0
 33 32  1  0  0  0  0
 33 31  1  0  0  0  0
 34 15  1  0  0  0  0
 34 35  1  0  0  0  0
 35 37  1  0  0  0  0
 36 35  1  0  0  0  0
 36 37  1  0  0  0  0
M  END
>  <MODEL>
3

>  <REMARK>
 VINA RESULT:      -5.2      2.657      6.305
  Name = 
  7 active torsions:
  status: ('A' for Active; 'I' for Inactive)
    1  A    between atoms: C_1  and  C_5
    2  A    between atoms: C_1  and  C_36
    3  A    between atoms: C_3  and  C_30
    4  A    between atoms: C_6  and  C_31
    5  A    between atoms: C_13  and  C_20
    6  A    between atoms: C_20  and  C_30
    7  A    between atoms: C_26  and  C_33
                            x       y       z     vdW  Elec       q    Type
                         _______ _______ _______ _____ _____    ______ ____

>  <TORSDO>
F 7

$$$$
=
 OpenBabel11052415223D

 37 44  0  0  1  0  0  0  0  0999 V2000
  183.4170  178.2440  141.0470 C   0  0  1  0  0  3  0  0  0  0  0  0
  185.7450  177.3240  138.3450 C   0  0  0  0  0  2  0  0  0  0  0  0
  182.0480  178.7520  141.0910 C   0  0  2  0  0  3  0  0  0  0  0  0
  183.9990  178.4150  139.8710 C   0  0  2  0  0  3  0  0  0  0  0  0
  182.0530  179.7530  139.9400 C   0  0  1  0  0  3  0  0  0  0  0  0
  185.4270  178.1310  139.5790 C   0  0  0  0  0  0  0  0  0  0  0  0
  181.9660  179.3700  142.4720 C   0  0  0  0  0  2  0  0  0  0  0  0
  185.1740  179.2130  142.4710 C   0  0  0  0  0  3  0  0  0  0  0  0
  182.9770  178.5860  143.3140 C   0  0  0  0  0  2  0  0  0  0  0  0
  184.8760  177.6380  137.1280 C   0  0  0  0  0  2  0  0  0  0  0  0
  184.0970  178.1740  142.3640 C   0  0  1  0  0  3  0  0  0  0  0  0
  183.0960  179.1700  138.9430 C   0  0  2  0  0  3  0  0  0  0  0  0
  186.4320  178.5170  140.4120 C   0  0  0  0  0  0  0  0  0  0  0  0
  183.4190  177.1790  137.2860 C   0  0  2  0  0  3  0  0  0  0  0  0
  182.4790  178.2530  137.8570 C   0  0  2  0  0  3  0  0  0  0  0  0
  186.2010  179.3320  141.6280 C   0  0  0  0  0  3  0  0  0  0  0  0
  188.3670  178.5250  138.8100 C   0  0  0  0  0  3  0  0  0  0  0  0
  187.8550  178.2530  140.0890 C   0  0  0  0  0  0  0  0  0  0  0  0
  188.6940  177.6690  141.0490 C   0  0  0  0  0  3  0  0  0  0  0  0
  190.8740  176.8010  141.7280 N   0  0  0  0  0  1  0  0  0  0  0  0
  190.5330  177.6730  139.4730 C   0  0  0  0  0  3  0  0  0  0  0  0
  190.0290  177.3840  140.7450 C   0  0  0  0  0  0  0  0  0  0  0  0
  189.7010  178.2410  138.5050 C   0  0  0  0  0  3  0  0  0  0  0  0
  182.7710  174.8170  137.0320 C   0  0  1  0  0  3  0  0  0  0  0  0
  181.9000  175.4500  137.9360 O   0  0  0  0  0  0  0  0  0  0  0  0
  183.2500  175.8370  137.9890 C   0  0  2  0  0  3  0  0  0  0  0  0
  183.1070  173.4360  137.5510 C   0  0  0  0  0  1  0  0  0  0  0  0
  180.6610  180.0610  139.3630 C   0  0  2  0  0  3  0  0  0  0  0  0
  180.3100  181.3830  139.6410 O   0  0  0  0  0  1  0  0  0  0  0  0
  179.5720  179.1220  139.8860 C   0  0  0  0  0  2  0  0  0  0  0  0
  179.9470  177.6590  139.7060 C   0  0  1  0  0  3  0  0  0  0  0  0
  178.9310  176.8010  140.3530 C   0  0  0  0  0  2  0  0  0  0  0  0
  178.9350  177.0200  138.9650 O   0  0  0  0  0  0  0  0  0  0  0  0
  181.9590  179.0970  136.7000 C   0  0  0  0  0  2  0  0  0  0  0  0
  180.7920  178.4090  136.0140 C   0  0  0  0  0  3  0  0  0  0  0  0
  180.6000  179.0150  134.6390 C   0  0  0  0  0  2  0  0  0  0  0  0
  179.6840  179.4150  135.7760 C   0  0  0  0  0  2  0  0  0  0  0  0
  1  3  1  0  0  0  0
  1 11  1  0  0  0  0
  2  6  1  0  0  0  0
  3  7  1  0  0  0  0
  4  1  1  0  0  0  0
  5  3  1  0  0  0  0
  6  4  1  0  0  0  0
  6 13  2  0  0  0  0
  7  9  1  0  0  0  0
 10 14  1  0  0  0  0
 10  2  1  0  0  0  0
 11  8  1  0  0  0  0
 11  9  1  0  0  0  0
 12  4  1  0  0  0  0
 12  5  1  0  0  0  0
 13 16  1  0  0  0  0
 14 15  1  0  0  0  0
 14 26  1  0  0  0  0
 15 12  1  0  0  0  0
 16  8  2  0  0  0  0
 17 18  1  0  0  0  0
 18 13  1  0  0  0  0
 18 19  2  0  0  0  0
 21 22  2  0  0  0  0
 22 19  1  0  0  0  0
 22 20  1  0  0  0  0
 23 17  2  0  0  0  0
 23 21  1  0  0  0  0
 24 27  1  0  0  0  0
 24 25  1  0  0  0  0
 24 26  1  0  0  0  0
 25 26  1  0  0  0  0
 28 29  1  0  0  0  0
 28 30  1  0  0  0  0
 28  5  1  0  0  0  0
 31 30  1  0  0  0  0
 31 32  1  0  0  0  0
 33 31  1  0  0  0  0
 33 32  1  0  0  0  0
 34 15  1  0  0  0  0
 35 34  1  0  0  0  0
 36 37  1  0  0  0  0
 36 35  1  0  0  0  0
 37 35  1  0  0  0  0
M  END
>  <MODEL>
4

>  <REMARK>
 VINA RESULT:      -4.3      1.722      2.252
  Name = 
  7 active torsions:
  status: ('A' for Active; 'I' for Inactive)
    1  A    between atoms: C_1  and  C_5
    2  A    between atoms: C_1  and  C_36
    3  A    between atoms: C_3  and  C_30
    4  A    between atoms: C_6  and  C_31
    5  A    between atoms: C_13  and  C_20
    6  A    between atoms: C_20  and  C_30
    7  A    between atoms: C_26  and  C_33
                            x       y       z     vdW  Elec       q    Type
                         _______ _______ _______ _____ _____    ______ ____

>  <TORSDO>
F 7

$$$$
=
 OpenBabel11052415223D

 37 44  0  0  1  0  0  0  0  0999 V2000
  186.2610  177.8500  139.6610 C   0  0  1  0  0  3  0  0  0  0  0  0
  186.9750  176.2090  136.4420 C   0  0  0  0  0  2  0  0  0  0  0  0
  185.1080  178.5560  140.2180 C   0  0  2  0  0  3  0  0  0  0  0  0
  186.2280  177.7580  138.3420 C   0  0  2  0  0  3  0  0  0  0  0  0
  184.6310  179.3640  139.0150 C   0  0  1  0  0  3  0  0  0  0  0  0
  187.3280  177.2270  137.4980 C   0  0  0  0  0  0  0  0  0  0  0  0
  185.7260  179.3760  141.3320 C   0  0  0  0  0  2  0  0  0  0  0  0
  188.5370  178.7500  139.9100 C   0  0  0  0  0  3  0  0  0  0  0  0
  186.9650  178.5850  141.7610 C   0  0  0  0  0  2  0  0  0  0  0  0
  185.6560  176.4640  135.7150 C   0  0  0  0  0  2  0  0  0  0  0  0
  187.4760  177.8770  140.5120 C   0  0  1  0  0  3  0  0  0  0  0  0
  185.0410  178.4920  137.7930 C   0  0  2  0  0  3  0  0  0  0  0  0
  188.6280  177.5800  137.6890 C   0  0  0  0  0  0  0  0  0  0  0  0
  184.4210  176.2530  136.6040 C   0  0  2  0  0  3  0  0  0  0  0  0
  183.9290  177.5270  137.3120 C   0  0  2  0  0  3  0  0  0  0  0  0
  189.0490  178.5900  138.6880 C   0  0  0  0  0  3  0  0  0  0  0  0
  189.6410  177.2040  135.4210 C   0  0  0  0  0  3  0  0  0  0  0  0
  189.7110  177.0640  136.8170 C   0  0  0  0  0  0  0  0  0  0  0  0
  190.7940  176.3730  137.3790 C   0  0  0  0  0  3  0  0  0  0  0  0
  192.9030  175.1620  137.1440 N   0  0  0  0  0  1  0  0  0  0  0  0
  191.7330  176.0110  135.1770 C   0  0  0  0  0  3  0  0  0  0  0  0
  191.8040  175.8530  136.5640 C   0  0  0  0  0  0  0  0  0  0  0  0
  190.6500  176.6840  134.6060 C   0  0  0  0  0  3  0  0  0  0  0  0
  184.0210  173.8420  136.9060 C   0  0  1  0  0  3  0  0  0  0  0  0
  183.2350  174.5670  137.8180 O   0  0  0  0  0  0  0  0  0  0  0  0
  184.5220  175.0690  137.5600 C   0  0  2  0  0  3  0  0  0  0  0  0
  184.5930  172.6260  137.6010 C   0  0  0  0  0  1  0  0  0  0  0  0
  183.1530  179.7850  139.0830 C   0  0  2  0  0  3  0  0  0  0  0  0
  183.0520  181.1780  139.0930 O   0  0  0  0  0  1  0  0  0  0  0  0
  182.4190  179.2120  140.2970 C   0  0  0  0  0  2  0  0  0  0  0  0
  181.1470  178.4790  139.8990 C   0  0  1  0  0  3  0  0  0  0  0  0
  181.3470  177.0200  140.0380 C   0  0  0  0  0  2  0  0  0  0  0  0
  180.6660  177.7680  141.0140 O   0  0  0  0  0  0  0  0  0  0  0  0
  182.9780  178.2570  136.3730 C   0  0  0  0  0  2  0  0  0  0  0  0
  181.6180  177.5810  136.3520 C   0  0  0  0  0  3  0  0  0  0  0  0
  181.2320  177.2930  134.9160 C   0  0  0  0  0  2  0  0  0  0  0  0
  180.6220  178.4740  135.6400 C   0  0  0  0  0  2  0  0  0  0  0  0
  1  3  1  0  0  0  0
  1 11  1  0  0  0  0
  2  6  1  0  0  0  0
  3  7  1  0  0  0  0
  4  1  1  0  0  0  0
  5 28  1  0  0  0  0
  5  3  1  0  0  0  0
  6 13  2  0  0  0  0
  6  4  1  0  0  0  0
  7  9  1  0  0  0  0
  8 11  1  0  0  0  0
 10  2  1  0  0  0  0
 10 14  1  0  0  0  0
 11  9  1  0  0  0  0
 12  4  1  0  0  0  0
 12  5  1  0  0  0  0
 13 16  1  0  0  0  0
 14 15  1  0  0  0  0
 14 26  1  0  0  0  0
 15 12  1  0  0  0  0
 16  8  2  0  0  0  0
 17 18  1  0  0  0  0
 18 19  2  0  0  0  0
 18 13  1  0  0  0  0
 21 22  2  0  0  0  0
 22 20  1  0  0  0  0
 22 19  1  0  0  0  0
 23 21  1  0  0  0  0
 23 17  2  0  0  0  0
 24 26  1  0  0  0  0
 24 27  1  0  0  0  0
 24 25  1  0  0  0  0
 26 25  1  0  0  0  0
 28 29  1  0  0  0  0
 28 30  1  0  0  0  0
 31 32  1  0  0  0  0
 31 30  1  0  0  0  0
 31 33  1  0  0  0  0
 32 33  1  0  0  0  0
 34 15  1  0  0  0  0
 35 34  1  0  0  0  0
 36 37  1  0  0  0  0
 36 35  1  0  0  0  0
 37 35  1  0  0  0  0
M  END
>  <MODEL>
5

>  <REMARK>
 VINA RESULT:      -4.3      2.088      3.152
  Name = 
  7 active torsions:
  status: ('A' for Active; 'I' for Inactive)
    1  A    between atoms: C_1  and  C_5
    2  A    between atoms: C_1  and  C_36
    3  A    between atoms: C_3  and  C_30
    4  A    between atoms: C_6  and  C_31
    5  A    between atoms: C_13  and  C_20
    6  A    between atoms: C_20  and  C_30
    7  A    between atoms: C_26  and  C_33
                            x       y       z     vdW  Elec       q    Type
                         _______ _______ _______ _____ _____    ______ ____

>  <TORSDO>
F 7

$$$$
=
 OpenBabel11052415223D

 37 44  0  0  1  0  0  0  0  0999 V2000
  182.5910  176.1370  138.1070 C   0  0  1  0  0  3  0  0  0  0  0  0
  182.9620  179.6350  139.1960 C   0  0  0  0  0  2  0  0  0  0  0  0
  183.5040  175.1260  137.5780 C   0  0  2  0  0  3  0  0  0  0  0  0
  183.0610  177.3690  138.0040 C   0  0  2  0  0  3  0  0  0  0  0  0
  184.3720  175.9560  136.6380 C   0  0  1  0  0  3  0  0  0  0  0  0
  182.2960  178.6010  138.3220 C   0  0  0  0  0  0  0  0  0  0  0  0
  182.5650  174.1560  136.8890 C   0  0  0  0  0  2  0  0  0  0  0  0
  180.3800  176.5010  137.0900 C   0  0  0  0  0  3  0  0  0  0  0  0
  181.2390  174.2920  137.6420 C   0  0  0  0  0  2  0  0  0  0  0  0
  184.4530  179.8390  138.9340 C   0  0  0  0  0  2  0  0  0  0  0  0
  181.1620  175.7380  138.1180 C   0  0  1  0  0  3  0  0  0  0  0  0
  184.3770  177.3710  137.2860 C   0  0  2  0  0  3  0  0  0  0  0  0
  181.0140  178.7900  137.9080 C   0  0  0  0  0  0  0  0  0  0  0  0
  185.3150  178.6420  139.3630 C   0  0  2  0  0  3  0  0  0  0  0  0
  185.5670  177.6140  138.2490 C   0  0  2  0  0  3  0  0  0  0  0  0
  180.3030  177.8320  137.0290 C   0  0  0  0  0  3  0  0  0  0  0  0
  179.9370  180.9410  137.1840 C   0  0  0  0  0  3  0  0  0  0  0  0
  180.2750  180.0410  138.2080 C   0  0  0  0  0  0  0  0  0  0  0  0
  179.9580  180.3660  139.5350 C   0  0  0  0  0  3  0  0  0  0  0  0
  178.9650  181.8750  141.1800 N   0  0  0  0  0  1  0  0  0  0  0  0
  178.9450  182.4410  138.8050 C   0  0  0  0  0  3  0  0  0  0  0  0
  179.2910  181.5590  139.8320 C   0  0  0  0  0  0  0  0  0  0  0  0
  179.2700  182.1340  137.4820 C   0  0  0  0  0  3  0  0  0  0  0  0
  185.0670  178.9100  141.7990 C   0  0  1  0  0  3  0  0  0  0  0  0
  185.9800  177.8760  141.5290 O   0  0  0  0  0  0  0  0  0  0  0  0
  184.8770  177.9800  140.6650 C   0  0  2  0  0  3  0  0  0  0  0  0
  184.1760  178.4980  142.9500 C   0  0  0  0  0  1  0  0  0  0  0  0
  185.7500  175.3410  136.3410 C   0  0  2  0  0  3  0  0  0  0  0  0
  185.9800  175.3260  134.9640 O   0  0  0  0  0  1  0  0  0  0  0  0
  185.9110  173.9260  136.9000 C   0  0  0  0  0  2  0  0  0  0  0  0
  186.2670  172.9220  135.8140 C   0  0  1  0  0  3  0  0  0  0  0  0
  187.4940  172.1900  136.1950 C   0  0  0  0  0  2  0  0  0  0  0  0
  186.2180  171.6270  136.3620 O   0  0  0  0  0  0  0  0  0  0  0  0
  186.7910  178.0560  137.4580 C   0  0  0  0  0  2  0  0  0  0  0  0
  187.9920  178.2190  138.3730 C   0  0  0  0  0  3  0  0  0  0  0  0
  189.0450  179.0470  137.6650 C   0  0  0  0  0  2  0  0  0  0  0  0
  189.1960  177.5420  137.7510 C   0  0  0  0  0  2  0  0  0  0  0  0
  1 11  1  0  0  0  0
  3  1  1  0  0  0  0
  4  1  1  0  0  0  0
  4  6  1  0  0  0  0
  5 12  1  0  0  0  0
  5  3  1  0  0  0  0
  6  2  1  0  0  0  0
  7  3  1  0  0  0  0
  7  9  1  0  0  0  0
  8 11  1  0  0  0  0
  9 11  1  0  0  0  0
 10  2  1  0  0  0  0
 10 14  1  0  0  0  0
 12  4  1  0  0  0  0
 12 15  1  0  0  0  0
 13 18  1  0  0  0  0
 13  6  2  0  0  0  0
 14 26  1  0  0  0  0
 15 14  1  0  0  0  0
 16  8  2  0  0  0  0
 16 13  1  0  0  0  0
 17 23  2  0  0  0  0
 17 18  1  0  0  0  0
 18 19  2  0  0  0  0
 19 22  1  0  0  0  0
 21 22  2  0  0  0  0
 22 20  1  0  0  0  0
 23 21  1  0  0  0  0
 24 27  1  0  0  0  0
 25 24  1  0  0  0  0
 26 25  1  0  0  0  0
 26 24  1  0  0  0  0
 28  5  1  0  0  0  0
 28 30  1  0  0  0  0
 29 28  1  0  0  0  0
 31 32  1  0  0  0  0
 31 33  1  0  0  0  0
 31 30  1  0  0  0  0
 32 33  1  0  0  0  0
 34 15  1  0  0  0  0
 34 35  1  0  0  0  0
 36 37  1  0  0  0  0
 36 35  1  0  0  0  0
 37 35  1  0  0  0  0
M  END
>  <MODEL>
6

>  <REMARK>
 VINA RESULT:      -4.1      3.348      7.955
  Name = 
  7 active torsions:
  status: ('A' for Active; 'I' for Inactive)
    1  A    between atoms: C_1  and  C_5
    2  A    between atoms: C_1  and  C_36
    3  A    between atoms: C_3  and  C_30
    4  A    between atoms: C_6  and  C_31
    5  A    between atoms: C_13  and  C_20
    6  A    between atoms: C_20  and  C_30
    7  A    between atoms: C_26  and  C_33
                            x       y       z     vdW  Elec       q    Type
                         _______ _______ _______ _____ _____    ______ ____

>  <TORSDO>
F 7

$$$$
=
 OpenBabel11052415223D

 37 44  0  0  1  0  0  0  0  0999 V2000
  185.0950  178.2920  138.6400 C   0  0  1  0  0  3  0  0  0  0  0  0
  182.9060  178.8820  141.5420 C   0  0  0  0  0  2  0  0  0  0  0  0
  184.9240  177.6410  137.3420 C   0  0  2  0  0  3  0  0  0  0  0  0
  184.1750  177.9420  139.5230 C   0  0  2  0  0  3  0  0  0  0  0  0
  184.0850  176.4240  137.7160 C   0  0  1  0  0  3  0  0  0  0  0  0
  184.1820  178.3280  140.9570 C   0  0  0  0  0  0  0  0  0  0  0  0
  186.3500  177.3320  136.9330 C   0  0  0  0  0  2  0  0  0  0  0  0
  187.0970  177.8760  140.0090 C   0  0  0  0  0  3  0  0  0  0  0  0
  187.1990  178.3970  137.6330 C   0  0  0  0  0  2  0  0  0  0  0  0
  181.6260  178.2080  141.0500 C   0  0  0  0  0  2  0  0  0  0  0  0
  186.4820  178.7270  138.9370 C   0  0  1  0  0  3  0  0  0  0  0  0
  183.2630  176.9000  138.9480 C   0  0  2  0  0  3  0  0  0  0  0  0
  185.3030  178.2570  141.7250 C   0  0  0  0  0  0  0  0  0  0  0  0
  181.3070  178.5090  139.5780 C   0  0  2  0  0  3  0  0  0  0  0  0
  181.8720  177.4780  138.5870 C   0  0  2  0  0  3  0  0  0  0  0  0
  186.5850  177.7030  141.2290 C   0  0  0  0  0  3  0  0  0  0  0  0
  184.5300  179.7080  143.6240 C   0  0  0  0  0  3  0  0  0  0  0  0
  185.2850  178.6170  143.1640 C   0  0  0  0  0  0  0  0  0  0  0  0
  186.0760  177.9010  144.0750 C   0  0  0  0  0  3  0  0  0  0  0  0
  186.8900  177.5160  146.3450 N   0  0  0  0  0  1  0  0  0  0  0  0
  185.3260  179.3310  145.8790 C   0  0  0  0  0  3  0  0  0  0  0  0
  186.0930  178.2530  145.4280 C   0  0  0  0  0  0  0  0  0  0  0  0
  184.5470  180.0600  144.9770 C   0  0  0  0  0  3  0  0  0  0  0  0
  180.4420  180.5070  138.4270 C   0  0  1  0  0  3  0  0  0  0  0  0
  181.5690  180.0200  137.7420 O   0  0  0  0  0  0  0  0  0  0  0  0
  181.6030  179.9410  139.1450 C   0  0  2  0  0  3  0  0  0  0  0  0
  180.5030  182.0180  138.4720 C   0  0  0  0  0  1  0  0  0  0  0  0
  183.2760  175.8310  136.5490 C   0  0  2  0  0  3  0  0  0  0  0  0
  182.8620  174.5350  136.8640 O   0  0  0  0  0  1  0  0  0  0  0  0
  184.0480  175.8130  135.2290 C   0  0  0  0  0  2  0  0  0  0  0  0
  184.5970  174.4310  134.9090 C   0  0  1  0  0  3  0  0  0  0  0  0
  186.0390  174.5270  134.5950 C   0  0  0  0  0  2  0  0  0  0  0  0
  185.5850  174.1060  135.8570 O   0  0  0  0  0  0  0  0  0  0  0  0
  180.8610  176.3470  138.4490 C   0  0  0  0  0  2  0  0  0  0  0  0
  181.0110  175.3480  139.5820 C   0  0  0  0  0  3  0  0  0  0  0  0
  180.1400  174.1420  139.2970 C   0  0  0  0  0  2  0  0  0  0  0  0
  179.6830  175.1870  140.2930 C   0  0  0  0  0  2  0  0  0  0  0  0
  1 11  1  0  0  0  0
  1  4  1  0  0  0  0
  3  5  1  0  0  0  0
  3  1  1  0  0  0  0
  4  6  1  0  0  0  0
  5 12  1  0  0  0  0
  6  2  1  0  0  0  0
  6 13  2  0  0  0  0
  7  3  1  0  0  0  0
  7  9  1  0  0  0  0
  8 16  2  0  0  0  0
  9 11  1  0  0  0  0
 10  2  1  0  0  0  0
 11  8  1  0  0  0  0
 12  4  1  0  0  0  0
 13 18  1  0  0  0  0
 14 10  1  0  0  0  0
 15 12  1  0  0  0  0
 15 14  1  0  0  0  0
 16 13  1  0  0  0  0
 17 23  1  0  0  0  0
 18 17  2  0  0  0  0
 18 19  1  0  0  0  0
 19 22  2  0  0  0  0
 22 21  1  0  0  0  0
 22 20  1  0  0  0  0
 23 21  2  0  0  0  0
 24 27  1  0  0  0  0
 24 26  1  0  0  0  0
 25 24  1  0  0  0  0
 25 26  1  0  0  0  0
 26 14  1  0  0  0  0
 28 29  1  0  0  0  0
 28  5  1  0  0  0  0
 30 28  1  0  0  0  0
 31 30  1  0  0  0  0
 31 33  1  0  0  0  0
 32 31  1  0  0  0  0
 32 33  1  0  0  0  0
 34 15  1  0  0  0  0
 34 35  1  0  0  0  0
 35 37  1  0  0  0  0
 36 35  1  0  0  0  0
 36 37  1  0  0  0  0
M  END
>  <MODEL>
7

>  <REMARK>
 VINA RESULT:      -4.0      2.666      6.636
  Name = 
  7 active torsions:
  status: ('A' for Active; 'I' for Inactive)
    1  A    between atoms: C_1  and  C_5
    2  A    between atoms: C_1  and  C_36
    3  A    between atoms: C_3  and  C_30
    4  A    between atoms: C_6  and  C_31
    5  A    between atoms: C_13  and  C_20
    6  A    between atoms: C_20  and  C_30
    7  A    between atoms: C_26  and  C_33
                            x       y       z     vdW  Elec       q    Type
                         _______ _______ _______ _____ _____    ______ ____

>  <TORSDO>
F 7

$$$$
=
 OpenBabel11052415223D

 37 44  0  0  1  0  0  0  0  0999 V2000
  191.4380  176.9740  138.8290 C   0  0  1  0  0  3  0  0  0  0  0  0
  187.7710  177.1280  139.1320 C   0  0  0  0  0  2  0  0  0  0  0  0
  192.3640  176.2920  137.9270 C   0  0  2  0  0  3  0  0  0  0  0  0
  190.2230  176.4510  138.8210 C   0  0  2  0  0  3  0  0  0  0  0  0
  191.6930  174.9310  137.7680 C   0  0  1  0  0  3  0  0  0  0  0  0
  189.1230  176.8420  139.7380 C   0  0  0  0  0  0  0  0  0  0  0  0
  193.6540  176.2780  138.7220 C   0  0  0  0  0  2  0  0  0  0  0  0
  191.8180  176.9880  141.2590 C   0  0  0  0  0  3  0  0  0  0  0  0
  193.5630  177.4990  139.6410 C   0  0  0  0  0  2  0  0  0  0  0  0
  187.3700  176.2030  137.9850 C   0  0  0  0  0  2  0  0  0  0  0  0
  192.0830  177.6870  139.9590 C   0  0  1  0  0  3  0  0  0  0  0  0
  190.1770  175.2400  137.9390 C   0  0  2  0  0  3  0  0  0  0  0  0
  189.3130  177.0090  141.0760 C   0  0  0  0  0  0  0  0  0  0  0  0
  188.2000  176.4200  136.7110 C   0  0  2  0  0  3  0  0  0  0  0  0
  189.4410  175.5170  136.6050 C   0  0  2  0  0  3  0  0  0  0  0  0
  190.6030  176.7250  141.7460 C   0  0  0  0  0  3  0  0  0  0  0  0
  187.9870  176.6680  143.1810 C   0  0  0  0  0  3  0  0  0  0  0  0
  188.1960  177.3690  141.9820 C   0  0  0  0  0  0  0  0  0  0  0  0
  187.2960  178.3810  141.6180 C   0  0  0  0  0  3  0  0  0  0  0  0
  185.3190  179.7410  142.0750 N   0  0  0  0  0  1  0  0  0  0  0  0
  186.0290  178.0140  143.6480 C   0  0  0  0  0  3  0  0  0  0  0  0
  186.2200  178.7060  142.4490 C   0  0  0  0  0  0  0  0  0  0  0  0
  186.9100  176.9930  144.0130 C   0  0  0  0  0  3  0  0  0  0  0  0
  187.2780  178.6500  136.2220 C   0  0  1  0  0  3  0  0  0  0  0  0
  188.0410  178.2060  135.1280 O   0  0  0  0  0  0  0  0  0  0  0  0
  188.5250  177.8780  136.4060 C   0  0  2  0  0  3  0  0  0  0  0  0
  187.5510  180.1210  136.4540 C   0  0  0  0  0  1  0  0  0  0  0  0
  192.0910  174.1760  136.4890 C   0  0  2  0  0  3  0  0  0  0  0  0
  192.8740  173.0660  136.8130 O   0  0  0  0  0  1  0  0  0  0  0  0
  192.8390  175.0510  135.4810 C   0  0  0  0  0  2  0  0  0  0  0  0
  194.2000  174.4720  135.1260 C   0  0  1  0  0  3  0  0  0  0  0  0
  195.0730  175.5410  134.5940 C   0  0  0  0  0  2  0  0  0  0  0  0
  195.1790  175.0950  135.9230 O   0  0  0  0  0  0  0  0  0  0  0  0
  189.0200  174.2020  135.9610 C   0  0  0  0  0  2  0  0  0  0  0  0
  188.6260  173.1870  137.0190 C   0  0  0  0  0  3  0  0  0  0  0  0
  188.2740  171.8790  136.3420 C   0  0  0  0  0  2  0  0  0  0  0  0
  187.1740  172.7980  136.8290 C   0  0  0  0  0  2  0  0  0  0  0  0
  1 11  1  0  0  0  0
  2  6  1  0  0  0  0
  3  7  1  0  0  0  0
  3  1  1  0  0  0  0
  4  1  1  0  0  0  0
  4  6  1  0  0  0  0
  5  3  1  0  0  0  0
  5 12  1  0  0  0  0
  6 13  2  0  0  0  0
  7  9  1  0  0  0  0
  8 16  2  0  0  0  0
  9 11  1  0  0  0  0
 10  2  1  0  0  0  0
 11  8  1  0  0  0  0
 12  4  1  0  0  0  0
 13 16  1  0  0  0  0
 13 18  1  0  0  0  0
 14 10  1  0  0  0  0
 15 14  1  0  0  0  0
 15 12  1  0  0  0  0
 17 23  1  0  0  0  0
 18 17  2  0  0  0  0
 19 18  1  0  0  0  0
 19 22  2  0  0  0  0
 20 22  1  0  0  0  0
 21 23  2  0  0  0  0
 22 21  1  0  0  0  0
 24 26  1  0  0  0  0
 24 27  1  0  0  0  0
 25 24  1  0  0  0  0
 25 26  1  0  0  0  0
 26 14  1  0  0  0  0
 28 29  1  0  0  0  0
 28  5  1  0  0  0  0
 30 28  1  0  0  0  0
 31 30  1  0  0  0  0
 31 33  1  0  0  0  0
 32 31  1  0  0  0  0
 32 33  1  0  0  0  0
 34 15  1  0  0  0  0
 34 35  1  0  0  0  0
 36 37  1  0  0  0  0
 36 35  1  0  0  0  0
 37 35  1  0  0  0  0
M  END
>  <MODEL>
8

>  <REMARK>
 VINA RESULT:      -3.9      5.493     10.006
  Name = 
  7 active torsions:
  status: ('A' for Active; 'I' for Inactive)
    1  A    between atoms: C_1  and  C_5
    2  A    between atoms: C_1  and  C_36
    3  A    between atoms: C_3  and  C_30
    4  A    between atoms: C_6  and  C_31
    5  A    between atoms: C_13  and  C_20
    6  A    between atoms: C_20  and  C_30
    7  A    between atoms: C_26  and  C_33
                            x       y       z     vdW  Elec       q    Type
                         _______ _______ _______ _____ _____    ______ ____

>  <TORSDO>
F 7

$$$$
=
 OpenBabel11052415223D

 37 44  0  0  1  0  0  0  0  0999 V2000
  185.2230  174.6670  137.5700 C   0  0  1  0  0  3  0  0  0  0  0  0
  185.0470  178.3450  137.6240 C   0  0  0  0  0  2  0  0  0  0  0  0
  186.2780  173.6950  137.2890 C   0  0  2  0  0  3  0  0  0  0  0  0
  185.4890  175.8750  137.1030 C   0  0  2  0  0  3  0  0  0  0  0  0
  186.9880  174.3450  136.1060 C   0  0  1  0  0  3  0  0  0  0  0  0
  184.5420  177.0180  137.1120 C   0  0  0  0  0  0  0  0  0  0  0  0
  185.4960  172.4420  136.9530 C   0  0  0  0  0  2  0  0  0  0  0  0
  182.9680  174.3940  136.6250 C   0  0  0  0  0  3  0  0  0  0  0  0
  184.1760  172.5850  137.7160 C   0  0  0  0  0  2  0  0  0  0  0  0
  186.4820  178.6860  137.2270 C   0  0  0  0  0  2  0  0  0  0  0  0
  183.8770  174.0790  137.7760 C   0  0  1  0  0  3  0  0  0  0  0  0
  186.7770  175.8700  136.3350 C   0  0  2  0  0  3  0  0  0  0  0  0
  183.2400  176.8890  136.7380 C   0  0  0  0  0  0  0  0  0  0  0  0
  187.5300  177.8020  137.9200 C   0  0  2  0  0  3  0  0  0  0  0  0
  187.9260  176.5500  137.1210 C   0  0  2  0  0  3  0  0  0  0  0  0
  182.6780  175.6270  136.2030 C   0  0  0  0  0  3  0  0  0  0  0  0
  181.6360  178.4130  135.5490 C   0  0  0  0  0  3  0  0  0  0  0  0
  182.3150  178.0490  136.7230 C   0  0  0  0  0  0  0  0  0  0  0  0
  182.1560  178.8330  137.8750 C   0  0  0  0  0  3  0  0  0  0  0  0
  181.1510  180.7310  139.0370 N   0  0  0  0  0  1  0  0  0  0  0  0
  180.6290  180.2940  136.6930 C   0  0  0  0  0  3  0  0  0  0  0  0
  181.3130  179.9480  137.8620 C   0  0  0  0  0  0  0  0  0  0  0  0
  180.7920  179.5280  135.5360 C   0  0  0  0  0  3  0  0  0  0  0  0
  187.7890  178.5190  140.2610 C   0  0  1  0  0  3  0  0  0  0  0  0
  188.4270  177.2810  140.0750 O   0  0  0  0  0  0  0  0  0  0  0  0
  187.2230  177.4780  139.3780 C   0  0  2  0  0  3  0  0  0  0  0  0
  187.0630  178.5090  141.5890 C   0  0  0  0  0  1  0  0  0  0  0  0
  188.4420  173.8840  135.9100 C   0  0  2  0  0  3  0  0  0  0  0  0
  188.8460  174.1220  134.5950 O   0  0  0  0  0  1  0  0  0  0  0  0
  188.6570  172.4080  136.2510 C   0  0  0  0  0  2  0  0  0  0  0  0
  188.8180  171.5540  135.0030 C   0  0  1  0  0  3  0  0  0  0  0  0
  188.3740  170.1710  135.2840 C   0  0  0  0  0  2  0  0  0  0  0  0
  187.5510  171.0870  134.6060 O   0  0  0  0  0  0  0  0  0  0  0  0
  189.0530  176.9280  136.1680 C   0  0  0  0  0  2  0  0  0  0  0  0
  190.3670  177.0670  136.9160 C   0  0  0  0  0  3  0  0  0  0  0  0
  191.3970  176.1560  136.2790 C   0  0  0  0  0  2  0  0  0  0  0  0
  190.7180  175.7450  137.5680 C   0  0  0  0  0  2  0  0  0  0  0  0
  1 11  1  0  0  0  0
  3  1  1  0  0  0  0
  4  6  1  0  0  0  0
  4  1  1  0  0  0  0
  5 12  1  0  0  0  0
  5  3  1  0  0  0  0
  6  2  1  0  0  0  0
  7  3  1  0  0  0  0
  7  9  1  0  0  0  0
  8 11  1  0  0  0  0
  9 11  1  0  0  0  0
 10  2  1  0  0  0  0
 10 14  1  0  0  0  0
 12  4  1  0  0  0  0
 12 15  1  0  0  0  0
 13  6  2  0  0  0  0
 14 26  1  0  0  0  0
 15 14  1  0  0  0  0
 16  8  2  0  0  0  0
 16 13  1  0  0  0  0
 17 18  1  0  0  0  0
 18 13  1  0  0  0  0
 18 19  2  0  0  0  0
 21 22  2  0  0  0  0
 22 19  1  0  0  0  0
 22 20  1  0  0  0  0
 23 17  2  0  0  0  0
 23 21  1  0  0  0  0
 24 27  1  0  0  0  0
 25 24  1  0  0  0  0
 26 25  1  0  0  0  0
 26 24  1  0  0  0  0
 28  5  1  0  0  0  0
 28 30  1  0  0  0  0
 29 28  1  0  0  0  0
 31 32  1  0  0  0  0
 31 30  1  0  0  0  0
 33 31  1  0  0  0  0
 33 32  1  0  0  0  0
 34 35  1  0  0  0  0
 34 15  1  0  0  0  0
 35 37  1  0  0  0  0
 36 35  1  0  0  0  0
 36 37  1  0  0  0  0
M  END
>  <MODEL>
9

>  <REMARK>
 VINA RESULT:      -3.5      3.861      8.738
  Name = 
  7 active torsions:
  status: ('A' for Active; 'I' for Inactive)
    1  A    between atoms: C_1  and  C_5
    2  A    between atoms: C_1  and  C_36
    3  A    between atoms: C_3  and  C_30
    4  A    between atoms: C_6  and  C_31
    5  A    between atoms: C_13  and  C_20
    6  A    between atoms: C_20  and  C_30
    7  A    between atoms: C_26  and  C_33
                            x       y       z     vdW  Elec       q    Type
                         _______ _______ _______ _____ _____    ______ ____

>  <TORSDO>
F 7

$$$$
