=
 OpenBabel11052415163D

 37 44  0  0  1  0  0  0  0  0999 V2000
  187.5360  177.5230  139.6840 C   0  0  0  0  0  2  0  0  0  0  0  0
  190.4090  177.4280  143.4180 C   0  0  0  0  0  0  0  0  0  0  0  0
  186.2770  177.9050  144.1600 C   0  0  0  0  0  0  0  0  0  0  0  0
  187.9410  177.9950  138.3570 N   0  0  0  0  0  0  0  0  0  0  0  0
  183.8620  178.2000  141.3350 O   0  0  0  0  0  0  0  0  0  0  0  0
  188.5140  177.5720  145.0440 C   0  0  0  0  0  0  0  0  0  0  0  0
  185.7880  178.2210  142.9640 C   0  0  0  0  0  0  0  0  0  0  0  0
  185.4790  177.9980  137.9710 C   0  0  0  0  0  0  0  0  0  0  0  0
  187.6910  177.8010  144.0500 C   0  0  0  0  0  0  0  0  0  0  0  0
  184.3170  178.3970  142.6560 C   0  0  0  0  0  0  0  0  0  0  0  0
  187.9330  177.3990  146.3950 C   0  0  0  0  0  3  0  0  0  0  0  0
  186.8240  178.5340  137.5630 C   0  0  0  0  0  2  0  0  0  0  0  0
  188.0840  178.0590  142.7170 C   0  0  0  0  0  0  0  0  0  0  0  0
  190.5020  175.9600  143.0430 C   0  0  0  0  0  1  0  0  0  0  0  0
  184.6980  178.8020  145.7750 C   0  0  0  0  0  3  0  0  0  0  0  0
  186.5920  177.4400  146.5840 C   0  0  0  0  0  3  0  0  0  0  0  0
  189.5350  178.1610  142.3580 C   0  0  0  0  0  2  0  0  0  0  0  0
  184.7190  178.6620  139.0780 C   0  0  1  0  0  3  0  0  0  0  0  0
  184.7870  177.9050  140.3150 C   0  0  1  0  0  3  0  0  0  0  0  0
  185.5790  177.6490  145.4550 C   0  0  2  0  0  3  0  0  0  0  0  0
  186.9760  178.3150  142.0210 C   0  0  0  0  0  0  0  0  0  0  0  0
  189.8900  177.5360  144.7680 O   0  0  0  0  0  0  0  0  0  0  0  0
  183.4040  178.7920  143.5890 C   0  0  0  0  0  0  0  0  0  0  0  0
  191.8040  178.0150  143.3820 C   0  0  0  0  0  1  0  0  0  0  0  0
  185.6010  179.1320  140.1800 N   0  0  1  0  0  0  0  0  0  0  0  0
  185.0140  177.0230  137.4030 O   0  0  0  0  0  0  0  0  0  0  0  0
  186.9520  178.6600  140.5430 C   0  0  2  0  0  3  0  0  0  0  0  0
  183.7470  179.2620  144.9600 C   0  0  0  0  0  3  0  0  0  0  0  0
  180.9630  178.5750  144.1180 C   0  0  0  0  0  3  0  0  0  0  0  0
  181.9740  178.9430  143.2140 C   0  0  0  0  0  0  0  0  0  0  0  0
  181.6070  179.4050  141.9390 C   0  0  0  0  0  3  0  0  0  0  0  0
  179.9040  179.9960  140.2930 N   0  0  0  0  0  1  0  0  0  0  0  0
  179.2650  179.1620  142.4960 C   0  0  0  0  0  3  0  0  0  0  0  0
  180.2600  179.5190  141.5840 C   0  0  0  0  0  0  0  0  0  0  0  0
  179.6160  178.6880  143.7620 C   0  0  0  0  0  3  0  0  0  0  0  0
  189.7700  176.3950  138.2860 C   0  0  0  0  0  1  0  0  0  0  0  0
  188.4700  176.8440  137.6450 C   0  0  0  0  0  2  0  0  0  0  0  0
  1 27  1  0  0  0  0
  2 22  1  0  0  0  0
  3 20  1  0  0  0  0
  4  1  1  0  0  0  0
  5 10  1  0  0  0  0
  6 11  1  0  0  0  0
  7  3  2  0  0  0  0
  9  3  1  0  0  0  0
  9  6  2  0  0  0  0
 10  7  1  0  0  0  0
 10 23  2  0  0  0  0
 11 16  2  0  0  0  0
 12  8  1  0  0  0  0
 12  4  1  0  0  0  0
 13  9  1  0  0  0  0
 14  2  1  0  0  0  0
 17 13  1  0  0  0  0
 17  2  1  0  0  0  0
 18  8  1  6  0  0  0
 18 25  1  0  0  0  0
 18 19  1  0  0  0  0
 19  5  1  1  0  0  0
 20 15  1  1  0  0  0
 20 16  1  0  0  0  0
 21 13  2  0  0  0  0
 21  7  1  0  0  0  0
 22  6  1  0  0  0  0
 23 28  1  0  0  0  0
 24  2  1  0  0  0  0
 25 19  1  0  0  0  0
 25 27  1  0  0  0  0
 26  8  2  0  0  0  0
 27 21  1  0  0  0  0
 28 15  2  0  0  0  0
 30 23  1  0  0  0  0
 30 29  2  0  0  0  0
 31 30  1  0  0  0  0
 32 34  1  0  0  0  0
 33 35  2  0  0  0  0
 34 31  2  0  0  0  0
 34 33  1  0  0  0  0
 35 29  1  0  0  0  0
 37 36  1  0  0  0  0
 37  4  1  0  0  0  0
M  END
>  <MODEL>
1

>  <REMARK>
 VINA RESULT:     -11.7      0.000      0.000
  Name = 
  2 active torsions:
  status: ('A' for Active; 'I' for Inactive)
    1  A    between atoms: N_5  and  C_23
    2  A    between atoms: C_6  and  C_31
                            x       y       z     vdW  Elec       q    Type
                         _______ _______ _______ _____ _____    ______ ____

>  <TORSDO>
F 2

$$$$
=
 OpenBabel11052415163D

 37 44  0  0  1  0  0  0  0  0999 V2000
  189.2760  177.1920  139.2380 C   0  0  0  0  0  2  0  0  0  0  0  0
  190.5750  177.5830  143.7500 C   0  0  0  0  0  0  0  0  0  0  0  0
  186.4640  178.0080  142.8700 C   0  0  0  0  0  0  0  0  0  0  0  0
  190.1450  177.5340  138.1080 N   0  0  0  0  0  0  0  0  0  0  0  0
  185.2590  177.9290  139.3430 O   0  0  0  0  0  0  0  0  0  0  0  0
  188.2170  177.8400  144.5420 C   0  0  0  0  0  0  0  0  0  0  0  0
  186.4520  178.1810  141.5510 C   0  0  0  0  0  0  0  0  0  0  0  0
  187.9980  177.4200  136.8490 C   0  0  0  0  0  0  0  0  0  0  0  0
  187.8180  177.9370  143.2980 C   0  0  0  0  0  0  0  0  0  0  0  0
  185.1990  178.2780  140.7080 C   0  0  0  0  0  0  0  0  0  0  0  0
  187.1780  177.7930  145.5970 C   0  0  0  0  0  3  0  0  0  0  0  0
  189.4030  177.9510  136.9050 C   0  0  0  0  0  2  0  0  0  0  0  0
  188.6770  178.0640  142.1820 C   0  0  0  0  0  0  0  0  0  0  0  0
  190.7840  176.0870  143.5990 C   0  0  0  0  0  1  0  0  0  0  0  0
  184.4120  179.0230  143.6850 C   0  0  0  0  0  3  0  0  0  0  0  0
  185.8620  177.8140  145.2760 C   0  0  0  0  0  3  0  0  0  0  0  0
  190.1590  178.1710  142.3700 C   0  0  0  0  0  2  0  0  0  0  0  0
  186.8910  178.1750  137.5200 C   0  0  1  0  0  3  0  0  0  0  0  0
  186.4910  177.5550  138.7710 C   0  0  1  0  0  3  0  0  0  0  0  0
  185.3370  177.8700  143.8390 C   0  0  2  0  0  3  0  0  0  0  0  0
  187.9050  178.2110  141.1040 C   0  0  0  0  0  0  0  0  0  0  0  0
  189.5980  177.8180  144.7960 O   0  0  0  0  0  0  0  0  0  0  0  0
  184.0120  178.7410  141.1920 C   0  0  0  0  0  0  0  0  0  0  0  0
  191.8910  178.2050  144.1640 C   0  0  0  0  0  1  0  0  0  0  0  0
  187.3110  178.7850  138.8100 N   0  0  1  0  0  0  0  0  0  0  0  0
  187.7630  176.3760  136.2610 O   0  0  0  0  0  0  0  0  0  0  0  0
  188.4290  178.3960  139.6920 C   0  0  2  0  0  3  0  0  0  0  0  0
  183.8320  179.3650  142.5330 C   0  0  0  0  0  3  0  0  0  0  0  0
  181.8590  177.7840  140.3350 C   0  0  0  0  0  3  0  0  0  0  0  0
  182.8210  178.8080  140.3050 C   0  0  0  0  0  0  0  0  0  0  0  0
  182.6610  179.8620  139.3910 C   0  0  0  0  0  3  0  0  0  0  0  0
  181.3990  180.9820  137.6260 N   0  0  0  0  0  1  0  0  0  0  0  0
  180.5970  178.8870  138.5890 C   0  0  0  0  0  3  0  0  0  0  0  0
  181.5520  179.9040  138.5410 C   0  0  0  0  0  0  0  0  0  0  0  0
  180.7510  177.8260  139.4840 C   0  0  0  0  0  3  0  0  0  0  0  0
  192.3040  176.4330  138.3010 C   0  0  0  0  0  1  0  0  0  0  0  0
  190.8870  176.3300  137.7700 C   0  0  0  0  0  2  0  0  0  0  0  0
  1 27  1  0  0  0  0
  2 24  1  0  0  0  0
  2 22  1  0  0  0  0
  3  9  1  0  0  0  0
  3 20  1  0  0  0  0
  4  1  1  0  0  0  0
  5 10  1  0  0  0  0
  6 22  1  0  0  0  0
  6 11  1  0  0  0  0
  7  3  2  0  0  0  0
  8 12  1  0  0  0  0
  9  6  2  0  0  0  0
 10 23  2  0  0  0  0
 10  7  1  0  0  0  0
 12  4  1  0  0  0  0
 13 17  1  0  0  0  0
 13  9  1  0  0  0  0
 14  2  1  0  0  0  0
 16 11  2  0  0  0  0
 17  2  1  0  0  0  0
 18  8  1  6  0  0  0
 18 19  1  0  0  0  0
 18 25  1  0  0  0  0
 19 25  1  0  0  0  0
 19  5  1  1  0  0  0
 20 15  1  1  0  0  0
 20 16  1  0  0  0  0
 21  7  1  0  0  0  0
 21 13  2  0  0  0  0
 23 28  1  0  0  0  0
 25 27  1  0  0  0  0
 26  8  2  0  0  0  0
 27 21  1  0  0  0  0
 28 15  2  0  0  0  0
 30 29  1  0  0  0  0
 30 23  1  0  0  0  0
 31 30  2  0  0  0  0
 32 34  1  0  0  0  0
 33 35  1  0  0  0  0
 34 33  2  0  0  0  0
 34 31  1  0  0  0  0
 35 29  2  0  0  0  0
 37  4  1  0  0  0  0
 37 36  1  0  0  0  0
M  END
>  <MODEL>
2

>  <REMARK>
 VINA RESULT:     -10.0      1.733      2.330
  Name = 
  2 active torsions:
  status: ('A' for Active; 'I' for Inactive)
    1  A    between atoms: N_5  and  C_23
    2  A    between atoms: C_6  and  C_31
                            x       y       z     vdW  Elec       q    Type
                         _______ _______ _______ _____ _____    ______ ____

>  <TORSDO>
F 2

$$$$
=
 OpenBabel11052415163D

 37 44  0  0  1  0  0  0  0  0999 V2000
  184.7110  178.0720  139.0880 C   0  0  0  0  0  2  0  0  0  0  0  0
  188.6000  177.5870  136.4710 C   0  0  0  0  0  0  0  0  0  0  0  0
  189.0440  177.3620  140.6680 C   0  0  0  0  0  0  0  0  0  0  0  0
  183.5430  178.8540  138.6740 N   0  0  0  0  0  0  0  0  0  0  0  0
  186.1240  177.9160  142.9190 O   0  0  0  0  0  0  0  0  0  0  0  0
  190.0440  177.1480  138.4650 C   0  0  0  0  0  0  0  0  0  0  0  0
  187.8930  177.8510  141.1220 C   0  0  2  0  0  3  0  0  0  0  0  0
  182.9440  178.6180  141.0810 C   0  0  0  0  0  0  0  0  0  0  0  0
  189.0440  177.4670  139.2490 C   0  0  0  0  0  0  0  0  0  0  0  0
  187.4930  177.8950  142.5800 C   0  0  0  0  0  0  0  0  0  0  0  0
  191.2780  176.6280  139.0990 C   0  0  0  0  0  3  0  0  0  0  0  0
  182.7710  179.3950  139.8060 C   0  0  0  0  0  2  0  0  0  0  0  0
  187.8270  178.0420  138.8150 C   0  0  0  0  0  0  0  0  0  0  0  0
  187.9560  176.2510  136.1430 C   0  0  0  0  0  1  0  0  0  0  0  0
  190.6530  177.6980  142.4580 C   0  0  0  0  0  3  0  0  0  0  0  0
  191.3500  176.4560  140.4410 C   0  0  0  0  0  3  0  0  0  0  0  0
  187.6280  178.4010  137.3740 C   0  0  0  0  0  2  0  0  0  0  0  0
  184.0860  178.9370  141.9980 C   0  0  1  0  0  3  0  0  0  0  0  0
  185.1530  177.9580  141.8980 C   0  0  1  0  0  3  0  0  0  0  0  0
  190.1960  176.7590  141.4000 C   0  0  0  0  0  0  0  0  0  0  0  0
  187.0970  178.2890  139.9030 C   0  0  0  0  0  0  0  0  0  0  0  0
  189.8920  177.3480  137.0840 O   0  0  0  0  0  0  0  0  0  0  0  0
  188.3980  177.9690  143.5970 C   0  0  0  0  0  0  0  0  0  0  0  0
  188.8050  178.3430  135.1770 C   0  0  0  0  0  1  0  0  0  0  0  0
  185.3330  179.2810  141.2630 N   0  0  1  0  0  0  0  0  0  0  0  0
  182.1580  177.7280  141.3640 O   0  0  0  0  0  0  0  0  0  0  0  0
  185.7180  178.9230  139.8840 C   0  0  2  0  0  3  0  0  0  0  0  0
  189.8600  178.1880  143.4120 C   0  0  0  0  0  3  0  0  0  0  0  0
  188.8170  177.6930  146.0540 C   0  0  0  0  0  3  0  0  0  0  0  0
  187.9320  178.0070  145.0080 C   0  0  0  0  0  0  0  0  0  0  0  0
  186.5950  178.3060  145.3180 C   0  0  0  0  0  3  0  0  0  0  0  0
  184.8030  178.6270  146.9450 N   0  0  0  0  0  1  0  0  0  0  0  0
  187.0490  178.0120  147.6760 C   0  0  0  0  0  3  0  0  0  0  0  0
  186.1570  178.3140  146.6450 C   0  0  0  0  0  0  0  0  0  0  0  0
  188.3780  177.7000  147.3810 C   0  0  0  0  0  3  0  0  0  0  0  0
  183.2830  176.5640  137.9020 C   0  0  0  0  0  1  0  0  0  0  0  0
  182.6720  177.9520  137.9400 C   0  0  0  0  0  2  0  0  0  0  0  0
  1 27  1  0  0  0  0
  2 22  1  0  0  0  0
  2 17  1  0  0  0  0
  3  7  1  0  0  0  0
  3 20  1  0  0  0  0
  4  1  1  0  0  0  0
  4 12  1  0  0  0  0
  6 11  2  0  0  0  0
  6  9  1  0  0  0  0
  7 21  1  6  0  0  0
  7 10  1  0  0  0  0
  8 26  2  0  0  0  0
  9  3  2  0  0  0  0
 10  5  1  0  0  0  0
 10 23  2  0  0  0  0
 11 16  1  0  0  0  0
 12  8  1  0  0  0  0
 13  9  1  0  0  0  0
 13 21  2  0  0  0  0
 14  2  1  0  0  0  0
 15 28  2  0  0  0  0
 16 20  2  0  0  0  0
 17 13  1  0  0  0  0
 18  8  1  6  0  0  0
 19 18  1  0  0  0  0
 19  5  1  1  0  0  0
 20 15  1  0  0  0  0
 22  6  1  0  0  0  0
 23 30  1  0  0  0  0
 24  2  1  0  0  0  0
 25 19  1  0  0  0  0
 25 18  1  0  0  0  0
 27 21  1  0  0  0  0
 27 25  1  0  0  0  0
 28 23  1  0  0  0  0
 29 35  1  0  0  0  0
 30 31  1  0  0  0  0
 30 29  2  0  0  0  0
 31 34  2  0  0  0  0
 34 32  1  0  0  0  0
 34 33  1  0  0  0  0
 35 33  2  0  0  0  0
 36 37  1  0  0  0  0
 37  4  1  0  0  0  0
M  END
>  <MODEL>
3

>  <REMARK>
 VINA RESULT:      -9.8      2.240      5.983
  Name = 
  2 active torsions:
  status: ('A' for Active; 'I' for Inactive)
    1  A    between atoms: N_5  and  C_23
    2  A    between atoms: C_6  and  C_31
                            x       y       z     vdW  Elec       q    Type
                         _______ _______ _______ _____ _____    ______ ____

>  <TORSDO>
F 2

$$$$
=
 OpenBabel11052415163D

 37 44  0  0  1  0  0  0  0  0999 V2000
  188.8350  177.8000  141.1250 C   0  0  0  0  0  2  0  0  0  0  0  0
  184.3110  178.5250  142.2270 C   0  0  0  0  0  0  0  0  0  0  0  0
  187.0270  178.0000  145.4210 C   0  0  0  0  0  0  0  0  0  0  0  0
  189.2780  177.1620  139.8820 N   0  0  0  0  0  0  0  0  0  0  0  0
  190.6120  177.2200  144.7570 O   0  0  0  0  0  0  0  0  0  0  0  0
  184.7760  178.5380  144.6840 C   0  0  0  0  0  0  0  0  0  0  0  0
  188.1060  177.5010  144.8240 C   0  0  0  0  0  0  0  0  0  0  0  0
  191.4370  177.0110  141.1170 C   0  0  0  0  0  0  0  0  0  0  0  0
  186.0020  178.1410  144.4450 C   0  0  0  0  0  0  0  0  0  0  0  0
  189.4220  177.2270  145.5170 C   0  0  0  0  0  0  0  0  0  0  0  0
  184.4210  178.8760  146.0810 C   0  0  0  0  0  3  0  0  0  0  0  0
  190.5750  176.4750  140.0070 C   0  0  0  0  0  2  0  0  0  0  0  0
  186.4830  177.7140  143.1860 C   0  0  0  0  0  0  0  0  0  0  0  0
  184.6410  179.9290  141.7510 C   0  0  0  0  0  1  0  0  0  0  0  0
  187.1640  177.2770  147.7380 C   0  0  0  0  0  3  0  0  0  0  0  0
  185.3470  178.8100  147.0680 C   0  0  0  0  0  3  0  0  0  0  0  0
  185.5580  177.6190  142.0110 C   0  0  0  0  0  2  0  0  0  0  0  0
  191.2740  176.4800  142.5080 C   0  0  1  0  0  3  0  0  0  0  0  0
  190.5500  177.4050  143.3630 C   0  0  1  0  0  3  0  0  0  0  0  0
  186.8070  178.4070  146.8400 C   0  0  2  0  0  3  0  0  0  0  0  0
  187.7460  177.3210  143.3580 C   0  0  0  0  0  0  0  0  0  0  0  0
  183.8750  178.5870  143.6090 O   0  0  0  0  0  0  0  0  0  0  0  0
  189.5170  176.9320  146.8450 C   0  0  0  0  0  0  0  0  0  0  0  0
  183.1760  177.9940  141.3800 C   0  0  0  0  0  1  0  0  0  0  0  0
  189.8530  176.2030  142.8550 N   0  0  1  0  0  0  0  0  0  0  0  0
  192.2630  177.8790  140.8820 O   0  0  0  0  0  0  0  0  0  0  0  0
  188.6310  176.7730  142.2540 C   0  0  2  0  0  3  0  0  0  0  0  0
  188.3520  176.6720  147.7370 C   0  0  0  0  0  3  0  0  0  0  0  0
  191.5670  175.5160  147.1230 C   0  0  0  0  0  3  0  0  0  0  0  0
  190.8460  176.6760  147.4580 C   0  0  0  0  0  0  0  0  0  0  0  0
  191.3810  177.5540  148.4150 C   0  0  0  0  0  3  0  0  0  0  0  0
  193.1520  178.1940  149.9690 N   0  0  0  0  0  1  0  0  0  0  0  0
  193.3310  176.1430  148.6580 C   0  0  0  0  0  3  0  0  0  0  0  0
  192.6190  177.2920  149.0080 C   0  0  0  0  0  0  0  0  0  0  0  0
  192.8050  175.2540  147.7170 C   0  0  0  0  0  3  0  0  0  0  0  0
  189.7720  177.6240  137.5470 C   0  0  0  0  0  1  0  0  0  0  0  0
  189.4360  178.2220  138.9000 C   0  0  0  0  0  2  0  0  0  0  0  0
  1 27  1  0  0  0  0
  2 22  1  0  0  0  0
  3 20  1  0  0  0  0
  4 12  1  0  0  0  0
  4  1  1  0  0  0  0
  5 10  1  0  0  0  0
  6 11  1  0  0  0  0
  7  3  2  0  0  0  0
  7 10  1  0  0  0  0
  9  6  2  0  0  0  0
  9  3  1  0  0  0  0
 10 23  2  0  0  0  0
 11 16  2  0  0  0  0
 12  8  1  0  0  0  0
 13 21  2  0  0  0  0
 13  9  1  0  0  0  0
 14  2  1  0  0  0  0
 17  2  1  0  0  0  0
 17 13  1  0  0  0  0
 18  8  1  6  0  0  0
 18 25  1  0  0  0  0
 18 19  1  0  0  0  0
 19  5  1  1  0  0  0
 20 16  1  6  0  0  0
 20 15  1  0  0  0  0
 21  7  1  0  0  0  0
 22  6  1  0  0  0  0
 23 30  1  0  0  0  0
 23 28  1  0  0  0  0
 24  2  1  0  0  0  0
 25 19  1  0  0  0  0
 26  8  2  0  0  0  0
 27 25  1  0  0  0  0
 27 21  1  0  0  0  0
 28 15  2  0  0  0  0
 29 30  2  0  0  0  0
 29 35  1  0  0  0  0
 30 31  1  0  0  0  0
 31 34  2  0  0  0  0
 33 34  1  0  0  0  0
 34 32  1  0  0  0  0
 35 33  2  0  0  0  0
 36 37  1  0  0  0  0
 37  4  1  0  0  0  0
M  END
>  <MODEL>
4

>  <REMARK>
 VINA RESULT:      -9.7      3.250      7.494
  Name = 
  2 active torsions:
  status: ('A' for Active; 'I' for Inactive)
    1  A    between atoms: N_5  and  C_23
    2  A    between atoms: C_6  and  C_31
                            x       y       z     vdW  Elec       q    Type
                         _______ _______ _______ _____ _____    ______ ____

>  <TORSDO>
F 2

$$$$
=
 OpenBabel11052415163D

 37 44  0  0  1  0  0  0  0  0999 V2000
  188.4730  177.9990  140.0640 C   0  0  0  0  0  2  0  0  0  0  0  0
  183.7960  178.5640  140.0040 C   0  0  0  0  0  0  0  0  0  0  0  0
  185.6960  178.5100  143.7770 C   0  0  0  0  0  0  0  0  0  0  0  0
  189.2190  177.2700  139.0330 N   0  0  0  0  0  0  0  0  0  0  0  0
  189.3610  177.8790  144.0490 O   0  0  0  0  0  0  0  0  0  0  0  0
  183.6670  178.8420  142.4860 C   0  0  0  0  0  0  0  0  0  0  0  0
  186.9020  178.0190  143.5040 C   0  0  0  0  0  0  0  0  0  0  0  0
  191.0290  177.3650  140.7430 C   0  0  0  0  0  0  0  0  0  0  0  0
  184.9270  178.4960  142.5820 C   0  0  0  0  0  0  0  0  0  0  0  0
  188.0260  177.8910  144.5070 C   0  0  0  0  0  0  0  0  0  0  0  0
  182.9800  179.2940  143.7180 C   0  0  0  0  0  3  0  0  0  0  0  0
  190.4720  176.6750  139.5290 C   0  0  0  0  0  2  0  0  0  0  0  0
  185.7060  177.9770  141.5210 C   0  0  0  0  0  0  0  0  0  0  0  0
  184.1800  179.9310  139.4680 C   0  0  0  0  0  1  0  0  0  0  0  0
  185.3070  178.0250  146.1270 C   0  0  0  0  0  3  0  0  0  0  0  0
  183.6490  179.3780  144.8940 C   0  0  0  0  0  3  0  0  0  0  0  0
  185.0880  177.7150  140.1820 C   0  0  0  0  0  2  0  0  0  0  0  0
  190.5590  176.9630  142.1080 C   0  0  1  0  0  3  0  0  0  0  0  0
  189.6240  177.9230  142.6670 C   0  0  1  0  0  3  0  0  0  0  0  0
  185.1340  179.0400  145.0550 C   0  0  2  0  0  3  0  0  0  0  0  0
  186.9050  177.6770  142.0220 C   0  0  0  0  0  0  0  0  0  0  0  0
  183.0440  178.7340  141.2320 O   0  0  0  0  0  0  0  0  0  0  0  0
  187.8140  177.7320  145.8450 C   0  0  0  0  0  0  0  0  0  0  0  0
  182.9110  177.8870  138.9800 C   0  0  0  0  0  1  0  0  0  0  0  0
  189.1080  176.6400  142.1440 N   0  0  1  0  0  0  0  0  0  0  0  0
  191.8570  178.2530  140.6130 O   0  0  0  0  0  0  0  0  0  0  0  0
  188.0430  177.0760  141.2190 C   0  0  2  0  0  3  0  0  0  0  0  0
  186.4810  177.4930  146.4660 C   0  0  0  0  0  3  0  0  0  0  0  0
  188.9840  178.3370  147.9790 C   0  0  0  0  0  3  0  0  0  0  0  0
  188.9690  177.6140  146.7730 C   0  0  0  0  0  0  0  0  0  0  0  0
  190.0820  176.8230  146.4440 C   0  0  0  0  0  3  0  0  0  0  0  0
  192.2920  175.9270  146.9660 N   0  0  0  0  0  1  0  0  0  0  0  0
  191.1740  177.4520  148.5090 C   0  0  0  0  0  3  0  0  0  0  0  0
  191.1760  176.7380  147.3090 C   0  0  0  0  0  0  0  0  0  0  0  0
  190.0790  178.2530  148.8430 C   0  0  0  0  0  3  0  0  0  0  0  0
  188.3290  178.6280  137.2230 C   0  0  0  0  0  1  0  0  0  0  0  0
  189.5690  178.2360  138.0060 C   0  0  0  0  0  2  0  0  0  0  0  0
  1 27  1  0  0  0  0
  2 17  1  0  0  0  0
  2 22  1  0  0  0  0
  3 20  1  0  0  0  0
  4 12  1  0  0  0  0
  4  1  1  0  0  0  0
  5 10  1  0  0  0  0
  6  9  2  0  0  0  0
  6 11  1  0  0  0  0
  7  3  2  0  0  0  0
  7 10  1  0  0  0  0
  9  3  1  0  0  0  0
 10 23  2  0  0  0  0
 11 16  2  0  0  0  0
 12  8  1  0  0  0  0
 13 21  2  0  0  0  0
 13  9  1  0  0  0  0
 14  2  1  0  0  0  0
 15 28  2  0  0  0  0
 17 13  1  0  0  0  0
 18  8  1  6  0  0  0
 18 25  1  0  0  0  0
 18 19  1  0  0  0  0
 19  5  1  1  0  0  0
 20 16  1  6  0  0  0
 20 15  1  0  0  0  0
 21  7  1  0  0  0  0
 22  6  1  0  0  0  0
 23 28  1  0  0  0  0
 23 30  1  0  0  0  0
 24  2  1  0  0  0  0
 25 19  1  0  0  0  0
 26  8  2  0  0  0  0
 27 21  1  0  0  0  0
 27 25  1  0  0  0  0
 29 35  1  0  0  0  0
 30 29  2  0  0  0  0
 31 30  1  0  0  0  0
 31 34  2  0  0  0  0
 32 34  1  0  0  0  0
 33 35  2  0  0  0  0
 34 33  1  0  0  0  0
 36 37  1  0  0  0  0
 37  4  1  0  0  0  0
M  END
>  <MODEL>
5

>  <REMARK>
 VINA RESULT:      -9.6      2.463      6.730
  Name = 
  2 active torsions:
  status: ('A' for Active; 'I' for Inactive)
    1  A    between atoms: N_5  and  C_23
    2  A    between atoms: C_6  and  C_31
                            x       y       z     vdW  Elec       q    Type
                         _______ _______ _______ _____ _____    ______ ____

>  <TORSDO>
F 2

$$$$
=
 OpenBabel11052415163D

 37 44  0  0  1  0  0  0  0  0999 V2000
  186.9270  178.3320  144.8580 C   0  0  0  0  0  2  0  0  0  0  0  0
  191.0700  176.7500  143.2660 C   0  0  0  0  0  0  0  0  0  0  0  0
  188.2440  178.0200  140.3940 C   0  0  0  0  0  0  0  0  0  0  0  0
  186.3130  177.8860  146.1130 N   0  0  0  0  0  0  0  0  0  0  0  0
  184.8380  179.1200  141.4380 O   0  0  0  0  0  0  0  0  0  0  0  0
  190.4940  177.2520  140.8850 C   0  0  0  0  0  0  0  0  0  0  0  0
  187.1120  178.0850  141.0890 C   0  0  0  0  0  0  0  0  0  0  0  0
  184.3040  178.9890  145.1360 C   0  0  0  0  0  0  0  0  0  0  0  0
  189.2630  177.5160  141.2470 C   0  0  2  0  0  3  0  0  0  0  0  0
  185.7960  178.5960  140.5440 C   0  0  0  0  0  0  0  0  0  0  0  0
  190.8670  177.5030  139.4730 C   0  0  0  0  0  3  0  0  0  0  0  0
  184.8430  177.9770  146.1080 C   0  0  0  0  0  2  0  0  0  0  0  0
  188.7280  177.2680  142.5320 C   0  0  0  0  0  0  0  0  0  0  0  0
  191.5560  178.0670  143.8450 C   0  0  0  0  0  1  0  0  0  0  0  0
  187.5760  177.7130  138.0770 C   0  0  0  0  0  3  0  0  0  0  0  0
  189.9690  178.0220  138.6010 C   0  0  0  0  0  3  0  0  0  0  0  0
  189.5550  176.5930  143.5830 C   0  0  0  0  0  2  0  0  0  0  0  0
  184.0610  178.5960  143.7100 C   0  0  1  0  0  3  0  0  0  0  0  0
  185.0920  179.1030  142.8230 C   0  0  1  0  0  3  0  0  0  0  0  0
  188.5350  178.4020  138.9800 C   0  0  0  0  0  0  0  0  0  0  0  0
  187.4360  177.5970  142.4920 C   0  0  0  0  0  0  0  0  0  0  0  0
  191.3690  176.7220  141.8470 O   0  0  0  0  0  0  0  0  0  0  0  0
  185.4620  178.5300  139.2240 C   0  0  0  0  0  0  0  0  0  0  0  0
  191.8250  175.6280  143.9460 C   0  0  0  0  0  1  0  0  0  0  0  0
  185.1000  177.6690  143.1850 N   0  0  1  0  0  0  0  0  0  0  0  0
  184.0700  180.1280  145.5080 O   0  0  0  0  0  0  0  0  0  0  0  0
  186.4810  177.4680  143.6640 C   0  0  2  0  0  3  0  0  0  0  0  0
  186.2500  177.8040  138.1890 C   0  0  0  0  0  3  0  0  0  0  0  0
  183.7540  180.3610  139.0940 C   0  0  0  0  0  3  0  0  0  0  0  0
  184.1510  179.0540  138.7600 C   0  0  0  0  0  0  0  0  0  0  0  0
  183.2670  178.2440  138.0290 C   0  0  0  0  0  3  0  0  0  0  0  0
  181.1440  177.9050  136.8730 N   0  0  0  0  0  1  0  0  0  0  0  0
  181.6470  180.0380  137.9460 C   0  0  0  0  0  3  0  0  0  0  0  0
  182.0250  178.7340  137.6200 C   0  0  0  0  0  0  0  0  0  0  0  0
  182.5100  180.8510  138.6850 C   0  0  0  0  0  3  0  0  0  0  0  0
  187.8580  178.0570  147.9820 C   0  0  0  0  0  1  0  0  0  0  0  0
  186.8040  178.7700  147.1570 C   0  0  0  0  0  2  0  0  0  0  0  0
  1  4  1  0  0  0  0
  2 17  1  0  0  0  0
  2 14  1  0  0  0  0
  2 24  1  0  0  0  0
  3  7  2  0  0  0  0
  4 37  1  0  0  0  0
  6  9  1  0  0  0  0
  6 22  1  0  0  0  0
  7 21  1  0  0  0  0
  8 26  2  0  0  0  0
  8 12  1  0  0  0  0
  9  3  1  6  0  0  0
  9 13  1  0  0  0  0
 10  7  1  0  0  0  0
 10  5  1  0  0  0  0
 11  6  2  0  0  0  0
 12  4  1  0  0  0  0
 13 17  1  0  0  0  0
 15 28  2  0  0  0  0
 15 20  1  0  0  0  0
 16 20  2  0  0  0  0
 16 11  1  0  0  0  0
 18  8  1  1  0  0  0
 19  5  1  6  0  0  0
 19 25  1  0  0  0  0
 19 18  1  0  0  0  0
 20  3  1  0  0  0  0
 21 13  2  0  0  0  0
 21 27  1  0  0  0  0
 22  2  1  0  0  0  0
 23 10  2  0  0  0  0
 25 27  1  0  0  0  0
 25 18  1  0  0  0  0
 27  1  1  0  0  0  0
 28 23  1  0  0  0  0
 30 29  1  0  0  0  0
 30 23  1  0  0  0  0
 31 30  2  0  0  0  0
 32 34  1  0  0  0  0
 33 35  1  0  0  0  0
 34 33  2  0  0  0  0
 34 31  1  0  0  0  0
 35 29  2  0  0  0  0
 37 36  1  0  0  0  0
M  END
>  <MODEL>
6

>  <REMARK>
 VINA RESULT:      -9.4      2.380      5.586
  Name = 
  2 active torsions:
  status: ('A' for Active; 'I' for Inactive)
    1  A    between atoms: N_5  and  C_23
    2  A    between atoms: C_6  and  C_31
                            x       y       z     vdW  Elec       q    Type
                         _______ _______ _______ _____ _____    ______ ____

>  <TORSDO>
F 2

$$$$
=
 OpenBabel11052415163D

 37 44  0  0  1  0  0  0  0  0999 V2000
  184.4980  178.2480  140.3140 C   0  0  0  0  0  2  0  0  0  0  0  0
  187.3610  177.9160  136.5870 C   0  0  0  0  0  0  0  0  0  0  0  0
  189.0660  177.3040  140.4050 C   0  0  0  0  0  0  0  0  0  0  0  0
  183.2990  179.0900  140.3470 N   0  0  0  0  0  0  0  0  0  0  0  0
  187.0130  177.7160  143.4890 O   0  0  0  0  0  0  0  0  0  0  0  0
  189.3270  177.2680  137.9910 C   0  0  0  0  0  0  0  0  0  0  0  0
  188.1370  177.7750  141.2320 C   0  0  2  0  0  3  0  0  0  0  0  0
  183.4600  178.6510  142.7950 C   0  0  0  0  0  0  0  0  0  0  0  0
  188.6340  177.5360  139.0700 C   0  0  0  0  0  0  0  0  0  0  0  0
  188.2080  177.6960  142.7410 C   0  0  0  0  0  0  0  0  0  0  0  0
  190.6690  176.6650  138.1650 C   0  0  0  0  0  3  0  0  0  0  0  0
  182.9410  179.5440  141.7020 C   0  0  0  0  0  2  0  0  0  0  0  0
  187.3730  178.1740  139.0820 C   0  0  0  0  0  0  0  0  0  0  0  0
  186.5840  176.6300  136.3710 C   0  0  0  0  0  1  0  0  0  0  0  0
  191.1630  177.4410  141.6260 C   0  0  0  0  0  3  0  0  0  0  0  0
  191.1420  176.3720  139.4000 C   0  0  0  0  0  3  0  0  0  0  0  0
  186.7560  178.6670  137.8090 C   0  0  0  0  0  2  0  0  0  0  0  0
  184.8430  178.8610  143.3320 C   0  0  1  0  0  3  0  0  0  0  0  0
  185.7790  177.8710  142.8290 C   0  0  1  0  0  3  0  0  0  0  0  0
  190.3570  176.6120  140.6920 C   0  0  0  0  0  0  0  0  0  0  0  0
  187.0260  178.3390  140.3600 C   0  0  0  0  0  0  0  0  0  0  0  0
  188.7670  177.5940  136.7460 O   0  0  0  0  0  0  0  0  0  0  0  0
  189.3860  177.6580  143.4280 C   0  0  0  0  0  0  0  0  0  0  0  0
  187.1940  178.7810  135.3570 C   0  0  0  0  0  1  0  0  0  0  0  0
  185.8190  179.2420  142.2760 N   0  0  1  0  0  0  0  0  0  0  0  0
  182.7570  177.7560  143.2370 O   0  0  0  0  0  0  0  0  0  0  0  0
  185.7410  179.0020  140.8210 C   0  0  2  0  0  3  0  0  0  0  0  0
  190.7280  177.8610  142.8150 C   0  0  0  0  0  3  0  0  0  0  0  0
  188.2290  177.9380  145.6340 C   0  0  0  0  0  3  0  0  0  0  0  0
  189.3800  177.5790  144.9120 C   0  0  0  0  0  0  0  0  0  0  0  0
  190.5310  177.1960  145.6190 C   0  0  0  0  0  3  0  0  0  0  0  0
  191.6970  176.7520  147.7180 N   0  0  0  0  0  1  0  0  0  0  0  0
  189.3730  177.4980  147.7210 C   0  0  0  0  0  3  0  0  0  0  0  0
  190.5260  177.1500  147.0160 C   0  0  0  0  0  0  0  0  0  0  0  0
  188.2250  177.8940  147.0320 C   0  0  0  0  0  3  0  0  0  0  0  0
  182.6410  176.8290  139.7430 C   0  0  0  0  0  1  0  0  0  0  0  0
  182.2010  178.2770  139.8520 C   0  0  0  0  0  2  0  0  0  0  0  0
  1  4  1  0  0  0  0
  1 27  1  0  0  0  0
  2 22  1  0  0  0  0
  2 17  1  0  0  0  0
  3 20  1  0  0  0  0
  3  7  1  0  0  0  0
  4 12  1  0  0  0  0
  6 11  2  0  0  0  0
  6  9  1  0  0  0  0
  7 21  1  6  0  0  0
  7 10  1  0  0  0  0
  8 26  2  0  0  0  0
  9 13  1  0  0  0  0
  9  3  2  0  0  0  0
 10 23  2  0  0  0  0
 10  5  1  0  0  0  0
 11 16  1  0  0  0  0
 12  8  1  0  0  0  0
 13 21  2  0  0  0  0
 14  2  1  0  0  0  0
 15 28  2  0  0  0  0
 16 20  2  0  0  0  0
 17 13  1  0  0  0  0
 18  8  1  6  0  0  0
 19 18  1  0  0  0  0
 19  5  1  1  0  0  0
 20 15  1  0  0  0  0
 21 27  1  0  0  0  0
 22  6  1  0  0  0  0
 23 30  1  0  0  0  0
 24  2  1  0  0  0  0
 25 19  1  0  0  0  0
 25 18  1  0  0  0  0
 27 25  1  0  0  0  0
 28 23  1  0  0  0  0
 29 35  1  0  0  0  0
 30 31  1  0  0  0  0
 30 29  2  0  0  0  0
 31 34  2  0  0  0  0
 34 32  1  0  0  0  0
 34 33  1  0  0  0  0
 35 33  2  0  0  0  0
 36 37  1  0  0  0  0
 37  4  1  0  0  0  0
M  END
>  <MODEL>
7

>  <REMARK>
 VINA RESULT:      -9.1      2.385      7.061
  Name = 
  2 active torsions:
  status: ('A' for Active; 'I' for Inactive)
    1  A    between atoms: N_5  and  C_23
    2  A    between atoms: C_6  and  C_31
                            x       y       z     vdW  Elec       q    Type
                         _______ _______ _______ _____ _____    ______ ____

>  <TORSDO>
F 2

$$$$
=
 OpenBabel11052415163D

 37 44  0  0  1  0  0  0  0  0999 V2000
  189.0850  177.3380  144.0510 C   0  0  0  0  0  2  0  0  0  0  0  0
  184.9300  179.3630  143.1360 C   0  0  0  0  0  0  0  0  0  0  0  0
  187.2090  178.0310  139.8370 C   0  0  0  0  0  0  0  0  0  0  0  0
  189.9030  177.6520  145.2260 N   0  0  0  0  0  0  0  0  0  0  0  0
  190.6070  176.5820  140.3360 O   0  0  0  0  0  0  0  0  0  0  0  0
  185.1280  178.9590  140.6760 C   0  0  0  0  0  0  0  0  0  0  0  0
  188.4140  177.8280  140.3620 C   0  0  0  0  0  0  0  0  0  0  0  0
  191.6490  176.4420  143.9240 C   0  0  0  0  0  0  0  0  0  0  0  0
  186.3670  178.5680  140.8480 C   0  0  2  0  0  3  0  0  0  0  0  0
  189.5900  177.2390  139.6130 C   0  0  0  0  0  0  0  0  0  0  0  0
  184.5450  178.8270  139.3210 C   0  0  0  0  0  3  0  0  0  0  0  0
  191.3440  177.4360  145.0100 C   0  0  0  0  0  2  0  0  0  0  0  0
  187.0930  178.6920  142.0550 C   0  0  0  0  0  0  0  0  0  0  0  0
  184.4070  178.0600  143.7140 C   0  0  0  0  0  1  0  0  0  0  0  0
  187.5810  178.4200  137.4660 C   0  0  0  0  0  3  0  0  0  0  0  0
  185.2630  178.2860  138.3070 C   0  0  0  0  0  3  0  0  0  0  0  0
  186.4830  179.3700  143.2440 C   0  0  0  0  0  2  0  0  0  0  0  0
  191.7320  176.8990  142.4990 C   0  0  1  0  0  3  0  0  0  0  0  0
  190.5460  176.5370  141.7430 C   0  0  1  0  0  3  0  0  0  0  0  0
  186.6940  177.7630  138.4610 C   0  0  0  0  0  0  0  0  0  0  0  0
  188.3310  178.2560  141.8180 C   0  0  0  0  0  0  0  0  0  0  0  0
  184.4460  179.5030  141.7760 O   0  0  0  0  0  0  0  0  0  0  0  0
  189.7460  177.3560  138.2640 C   0  0  0  0  0  0  0  0  0  0  0  0
  184.3830  180.5030  143.9680 C   0  0  0  0  0  1  0  0  0  0  0  0
  190.7220  177.9410  142.1710 N   0  0  1  0  0  0  0  0  0  0  0  0
  191.8240  175.2670  144.2050 O   0  0  0  0  0  0  0  0  0  0  0  0
  189.4440  178.2310  142.8490 C   0  0  2  0  0  3  0  0  0  0  0  0
  188.8960  178.2090  137.3860 C   0  0  0  0  0  3  0  0  0  0  0  0
  190.8600  176.3780  136.2420 C   0  0  0  0  0  3  0  0  0  0  0  0
  190.9270  176.7500  137.5950 C   0  0  0  0  0  0  0  0  0  0  0  0
  192.1080  176.4930  138.3110 C   0  0  0  0  0  3  0  0  0  0  0  0
  194.3970  175.6510  138.4180 N   0  0  0  0  0  1  0  0  0  0  0  0
  193.1300  175.5440  136.3340 C   0  0  0  0  0  3  0  0  0  0  0  0
  193.2050  175.8980  137.6830 C   0  0  0  0  0  0  0  0  0  0  0  0
  191.9580  175.7820  135.6140 C   0  0  0  0  0  3  0  0  0  0  0  0
  188.5840  177.4920  147.2630 C   0  0  0  0  0  1  0  0  0  0  0  0
  189.4790  176.7520  146.2860 C   0  0  0  0  0  2  0  0  0  0  0  0
  1  4  1  0  0  0  0
  2 17  1  0  0  0  0
  2 14  1  0  0  0  0
  2 24  1  0  0  0  0
  3  7  2  0  0  0  0
  4 37  1  0  0  0  0
  6  9  1  0  0  0  0
  6 22  1  0  0  0  0
  7 21  1  0  0  0  0
  8 26  2  0  0  0  0
  8 12  1  0  0  0  0
  9  3  1  6  0  0  0
  9 13  1  0  0  0  0
 10  5  1  0  0  0  0
 10  7  1  0  0  0  0
 11  6  2  0  0  0  0
 12  4  1  0  0  0  0
 13 17  1  0  0  0  0
 15 20  1  0  0  0  0
 16 20  2  0  0  0  0
 16 11  1  0  0  0  0
 18  8  1  1  0  0  0
 19  5  1  6  0  0  0
 19 25  1  0  0  0  0
 19 18  1  0  0  0  0
 20  3  1  0  0  0  0
 21 13  2  0  0  0  0
 21 27  1  0  0  0  0
 22  2  1  0  0  0  0
 23 10  2  0  0  0  0
 25 18  1  0  0  0  0
 25 27  1  0  0  0  0
 27  1  1  0  0  0  0
 28 15  2  0  0  0  0
 28 23  1  0  0  0  0
 29 30  1  0  0  0  0
 30 23  1  0  0  0  0
 30 31  2  0  0  0  0
 33 34  2  0  0  0  0
 34 31  1  0  0  0  0
 34 32  1  0  0  0  0
 35 29  2  0  0  0  0
 35 33  1  0  0  0  0
 37 36  1  0  0  0  0
M  END
>  <MODEL>
8

>  <REMARK>
 VINA RESULT:      -8.9      3.146      8.567
  Name = 
  2 active torsions:
  status: ('A' for Active; 'I' for Inactive)
    1  A    between atoms: N_5  and  C_23
    2  A    between atoms: C_6  and  C_31
                            x       y       z     vdW  Elec       q    Type
                         _______ _______ _______ _____ _____    ______ ____

>  <TORSDO>
F 2

$$$$
