=
 OpenBabel11052415553D

 34 37  0  0  0  0  0  0  0  0999 V2000
  182.9870  177.9400  139.7660 C   0  0  0  0  0  0  0  0  0  0  0  0
  183.3860  177.8230  141.0420 C   0  0  0  0  0  3  0  0  0  0  0  0
  183.2430  174.7870  137.6360 C   0  0  0  0  0  3  0  0  0  0  0  0
  181.6800  175.3490  139.3630 O   0  0  0  0  0  1  0  0  0  0  0  0
  184.3660  175.0700  136.8530 C   0  0  0  0  0  0  0  0  0  0  0  0
  185.0360  176.2850  137.0430 C   0  0  0  0  0  3  0  0  0  0  0  0
  182.7820  175.6970  138.5910 C   0  0  0  0  0  0  0  0  0  0  0  0
  184.5830  177.2030  137.9910 C   0  0  0  0  0  3  0  0  0  0  0  0
  183.4470  176.9310  138.7740 C   0  0  0  0  0  0  0  0  0  0  0  0
  185.6930  173.0810  136.0170 C   0  0  0  0  0  0  0  0  0  0  0  0
  185.9320  172.2570  134.9680 F   0  0  0  0  0  0  0  0  0  0  0  0
  186.4550  172.8460  137.2780 C   0  0  0  0  0  1  0  0  0  0  0  0
  184.7920  174.0580  135.8650 C   0  0  0  0  0  3  0  0  0  0  0  0
  184.1600  180.4690  138.9570 O   0  0  0  0  0  1  0  0  0  0  0  0
  182.7780  180.3160  138.9340 C   0  0  0  0  0  0  0  0  0  0  0  0
  180.5880  181.2730  138.5290 C   0  0  0  0  0  3  0  0  0  0  0  0
  181.9800  181.3920  138.5330 C   0  0  0  0  0  3  0  0  0  0  0  0
  180.7810  178.9980  139.3300 C   0  0  0  0  0  3  0  0  0  0  0  0
  182.1780  179.1030  139.3260 C   0  0  0  0  0  0  0  0  0  0  0  0
  179.9890  180.0770  138.9300 C   0  0  0  0  0  3  0  0  0  0  0  0
  183.0640  178.8130  142.1160 C   0  0  0  0  0  2  0  0  0  0  0  0
  184.4410  178.7690  145.6440 C   0  0  0  0  0  3  0  0  0  0  0  0
  185.2960  178.1640  143.0410 C   0  0  0  0  0  3  0  0  0  0  0  0
  187.9110  177.6400  146.2930 C   0  0  0  0  0  0  0  0  0  0  0  0
  186.6110  178.1180  146.5070 C   0  0  0  0  0  3  0  0  0  0  0  0
  185.7380  178.2940  145.4290 C   0  0  0  0  0  0  0  0  0  0  0  0
  187.4630  177.5120  143.9050 C   0  0  0  0  0  3  0  0  0  0  0  0
  186.1680  177.9890  144.1180 C   0  0  0  0  0  0  0  0  0  0  0  0
  188.3300  177.3390  144.9870 C   0  0  0  0  0  3  0  0  0  0  0  0
  184.0000  178.6450  143.2610 C   0  0  0  0  0  0  0  0  0  0  0  0
  183.5730  178.9420  144.5610 C   0  0  0  0  0  3  0  0  0  0  0  0
  189.6770  176.5290  147.4230 O   0  0  0  0  0  0  0  0  0  0  0  0
  188.8250  177.4570  147.4310 C   0  0  0  0  0  0  0  0  0  0  0  0
  188.7580  178.3080  148.5280 O   0  0  0  0  0  1  0  0  0  0  0  0
  1  2  2  0  0  0  0
  2 21  1  0  0  0  0
  3  7  1  0  0  0  0
  5  6  1  0  0  0  0
  5  3  2  0  0  0  0
  6  8  2  0  0  0  0
  7  9  2  0  0  0  0
  7  4  1  0  0  0  0
  8  9  1  0  0  0  0
  9  1  1  0  0  0  0
 10 12  1  0  0  0  0
 11 10  1  0  0  0  0
 13 10  2  0  0  0  0
 13  5  1  0  0  0  0
 15 14  1  0  0  0  0
 15 19  1  0  0  0  0
 16 17  1  0  0  0  0
 16 20  2  0  0  0  0
 17 15  2  0  0  0  0
 19 18  2  0  0  0  0
 19  1  1  0  0  0  0
 20 18  1  0  0  0  0
 21 30  1  0  0  0  0
 23 30  2  0  0  0  0
 23 28  1  0  0  0  0
 24 25  1  0  0  0  0
 24 33  1  0  0  0  0
 26 22  1  0  0  0  0
 26 25  2  0  0  0  0
 27 28  2  0  0  0  0
 27 29  1  0  0  0  0
 28 26  1  0  0  0  0
 29 24  2  0  0  0  0
 30 31  1  0  0  0  0
 31 22  2  0  0  0  0
 32 33  2  0  0  0  0
 33 34  1  0  0  0  0
M  END
>  <MODEL>
1

>  <REMARK>
 VINA RESULT:      -9.7      0.000      0.000
  Name = 
  6 active torsions:
  status: ('A' for Active; 'I' for Inactive)
    1  A    between atoms: C_1  and  C_20
    2  A    between atoms: C_1  and  C_34
    3  A    between atoms: C_7  and  C_15
    4  A    between atoms: C_9  and  C_18
    5  A    between atoms: C_18  and  C_30
    6  A    between atoms: C_23  and  C_25
                            x       y       z     vdW  Elec       q    Type
                         _______ _______ _______ _____ _____    ______ ____

>  <TORSDO>
F 6

$$$$
=
 OpenBabel11052415553D

 34 37  0  0  0  0  0  0  0  0999 V2000
  183.1160  178.3090  141.9160 C   0  0  0  0  0  0  0  0  0  0  0  0
  184.1800  178.3910  142.7290 C   0  0  0  0  0  3  0  0  0  0  0  0
  184.3460  178.1330  138.3100 C   0  0  0  0  0  3  0  0  0  0  0  0
  184.8330  179.7380  140.0210 O   0  0  0  0  0  1  0  0  0  0  0  0
  183.6820  176.9950  137.8450 C   0  0  0  0  0  0  0  0  0  0  0  0
  182.8260  176.3060  138.7130 C   0  0  0  0  0  3  0  0  0  0  0  0
  184.1730  178.5820  139.6210 C   0  0  0  0  0  0  0  0  0  0  0  0
  182.6480  176.7440  140.0260 C   0  0  0  0  0  3  0  0  0  0  0  0
  183.3210  177.8810  140.5060 C   0  0  0  0  0  0  0  0  0  0  0  0
  184.8180  175.7100  135.9790 C   0  0  0  0  0  0  0  0  0  0  0  0
  184.8590  175.4790  134.6460 F   0  0  0  0  0  0  0  0  0  0  0  0
  185.7850  174.9770  136.8470 C   0  0  0  0  0  1  0  0  0  0  0  0
  183.9160  176.5820  136.4450 C   0  0  0  0  0  3  0  0  0  0  0  0
  181.3430  179.9810  140.3390 O   0  0  0  0  0  1  0  0  0  0  0  0
  180.9310  179.5330  141.5890 C   0  0  0  0  0  0  0  0  0  0  0  0
  179.2460  179.4960  143.3310 C   0  0  0  0  0  3  0  0  0  0  0  0
  179.6720  179.9100  142.0660 C   0  0  0  0  0  3  0  0  0  0  0  0
  181.3380  178.3250  143.6520 C   0  0  0  0  0  3  0  0  0  0  0  0
  181.7700  178.7240  142.3800 C   0  0  0  0  0  0  0  0  0  0  0  0
  180.0800  178.7060  144.1250 C   0  0  0  0  0  3  0  0  0  0  0  0
  184.1230  178.8860  144.1390 C   0  0  0  0  0  2  0  0  0  0  0  0
  186.6200  178.3100  146.9270 C   0  0  0  0  0  3  0  0  0  0  0  0
  186.4860  178.0680  144.1350 C   0  0  0  0  0  3  0  0  0  0  0  0
  190.0160  177.0310  146.1740 C   0  0  0  0  0  0  0  0  0  0  0  0
  188.9040  177.4990  146.8870 C   0  0  0  0  0  3  0  0  0  0  0  0
  187.7290  177.8450  146.2140 C   0  0  0  0  0  0  0  0  0  0  0  0
  188.7690  177.2550  144.0970 C   0  0  0  0  0  3  0  0  0  0  0  0
  187.6610  177.7230  144.8080 C   0  0  0  0  0  0  0  0  0  0  0  0
  189.9400  176.9120  144.7770 C   0  0  0  0  0  3  0  0  0  0  0  0
  185.3810  178.5380  144.8540 C   0  0  0  0  0  0  0  0  0  0  0  0
  185.4480  178.6540  146.2480 C   0  0  0  0  0  3  0  0  0  0  0  0
  191.5660  177.2550  147.9570 O   0  0  0  0  0  1  0  0  0  0  0  0
  191.2500  176.6690  146.8870 C   0  0  0  0  0  0  0  0  0  0  0  0
  192.0820  175.6740  146.3880 O   0  0  0  0  0  0  0  0  0  0  0  0
  1 19  1  0  0  0  0
  1  2  2  0  0  0  0
  2 21  1  0  0  0  0
  3  7  1  0  0  0  0
  5  3  2  0  0  0  0
  5  6  1  0  0  0  0
  6  8  2  0  0  0  0
  7  4  1  0  0  0  0
  7  9  2  0  0  0  0
  8  9  1  0  0  0  0
  9  1  1  0  0  0  0
 10 13  2  0  0  0  0
 10 12  1  0  0  0  0
 11 10  1  0  0  0  0
 13  5  1  0  0  0  0
 14 15  1  0  0  0  0
 15 17  2  0  0  0  0
 15 19  1  0  0  0  0
 16 20  2  0  0  0  0
 17 16  1  0  0  0  0
 18 20  1  0  0  0  0
 19 18  2  0  0  0  0
 21 30  1  0  0  0  0
 23 28  2  0  0  0  0
 23 30  1  0  0  0  0
 24 25  2  0  0  0  0
 24 33  1  0  0  0  0
 26 25  1  0  0  0  0
 26 22  2  0  0  0  0
 27 29  2  0  0  0  0
 27 28  1  0  0  0  0
 28 26  1  0  0  0  0
 29 24  1  0  0  0  0
 30 31  2  0  0  0  0
 31 22  1  0  0  0  0
 33 32  1  0  0  0  0
 34 33  2  0  0  0  0
M  END
>  <MODEL>
2

>  <REMARK>
 VINA RESULT:      -9.5      1.941      3.107
  Name = 
  6 active torsions:
  status: ('A' for Active; 'I' for Inactive)
    1  A    between atoms: C_1  and  C_20
    2  A    between atoms: C_1  and  C_34
    3  A    between atoms: C_7  and  C_15
    4  A    between atoms: C_9  and  C_18
    5  A    between atoms: C_18  and  C_30
    6  A    between atoms: C_23  and  C_25
                            x       y       z     vdW  Elec       q    Type
                         _______ _______ _______ _____ _____    ______ ____

>  <TORSDO>
F 6

$$$$
=
 OpenBabel11052415553D

 34 37  0  0  0  0  0  0  0  0999 V2000
  181.0270  179.2370  140.6390 C   0  0  0  0  0  0  0  0  0  0  0  0
  181.4370  179.7170  141.8230 C   0  0  0  0  0  3  0  0  0  0  0  0
  181.8190  181.5050  137.6770 C   0  0  0  0  0  3  0  0  0  0  0  0
  183.2960  180.2570  139.0920 O   0  0  0  0  0  1  0  0  0  0  0  0
  180.5430  181.9440  137.3130 C   0  0  0  0  0  0  0  0  0  0  0  0
  179.4380  181.5040  138.0530 C   0  0  0  0  0  3  0  0  0  0  0  0
  182.0020  180.6350  138.7550 C   0  0  0  0  0  0  0  0  0  0  0  0
  179.6080  180.6320  139.1290 C   0  0  0  0  0  3  0  0  0  0  0  0
  180.8870  180.1770  139.4940 C   0  0  0  0  0  0  0  0  0  0  0  0
  180.8110  184.1440  136.0850 C   0  0  0  0  0  0  0  0  0  0  0  0
  180.6110  184.8050  134.9200 F   0  0  0  0  0  0  0  0  0  0  0  0
  181.4420  184.8890  137.2130 C   0  0  0  0  0  1  0  0  0  0  0  0
  180.4300  182.8630  136.1620 C   0  0  0  0  0  3  0  0  0  0  0  0
  182.7490  177.2280  139.4470 O   0  0  0  0  0  1  0  0  0  0  0  0
  181.4900  176.8630  139.9120 C   0  0  0  0  0  0  0  0  0  0  0  0
  179.8040  175.1490  140.2180 C   0  0  0  0  0  3  0  0  0  0  0  0
  181.0750  175.5340  139.7840 C   0  0  0  0  0  3  0  0  0  0  0  0
  179.3520  177.4220  140.9120 C   0  0  0  0  0  3  0  0  0  0  0  0
  180.6290  177.8160  140.4910 C   0  0  0  0  0  0  0  0  0  0  0  0
  178.9420  176.0930  140.7790 C   0  0  0  0  0  3  0  0  0  0  0  0
  181.5390  178.8980  143.0710 C   0  0  0  0  0  2  0  0  0  0  0  0
  185.2360  178.1910  142.6550 C   0  0  0  0  0  3  0  0  0  0  0  0
  183.3950  178.6280  144.7260 C   0  0  0  0  0  3  0  0  0  0  0  0
  187.4460  177.9390  145.6190 C   0  0  0  0  0  0  0  0  0  0  0  0
  187.0130  177.9510  144.2870 C   0  0  0  0  0  3  0  0  0  0  0  0
  185.6670  178.1780  143.9850 C   0  0  0  0  0  0  0  0  0  0  0  0
  185.1720  178.3890  146.3560 C   0  0  0  0  0  3  0  0  0  0  0  0
  184.7400  178.3990  145.0280 C   0  0  0  0  0  0  0  0  0  0  0  0
  186.5180  178.1600  146.6500 C   0  0  0  0  0  3  0  0  0  0  0  0
  182.9680  178.6340  143.3930 C   0  0  0  0  0  0  0  0  0  0  0  0
  183.8890  178.4210  142.3600 C   0  0  0  0  0  3  0  0  0  0  0  0
  189.7700  178.1950  145.2100 O   0  0  0  0  0  0  0  0  0  0  0  0
  188.8640  177.6980  145.9310 C   0  0  0  0  0  0  0  0  0  0  0  0
  189.2180  176.9190  147.0260 O   0  0  0  0  0  1  0  0  0  0  0  0
  1  2  2  0  0  0  0
  2 21  1  0  0  0  0
  3  7  1  0  0  0  0
  5  3  2  0  0  0  0
  5  6  1  0  0  0  0
  6  8  2  0  0  0  0
  7  4  1  0  0  0  0
  7  9  2  0  0  0  0
  8  9  1  0  0  0  0
  9  1  1  0  0  0  0
 10 13  2  0  0  0  0
 10 12  1  0  0  0  0
 11 10  1  0  0  0  0
 13  5  1  0  0  0  0
 14 15  1  0  0  0  0
 15 19  1  0  0  0  0
 16 20  2  0  0  0  0
 17 15  2  0  0  0  0
 17 16  1  0  0  0  0
 19  1  1  0  0  0  0
 19 18  2  0  0  0  0
 20 18  1  0  0  0  0
 21 30  1  0  0  0  0
 22 26  1  0  0  0  0
 23 28  1  0  0  0  0
 24 33  1  0  0  0  0
 24 29  1  0  0  0  0
 25 24  2  0  0  0  0
 26 25  1  0  0  0  0
 26 28  2  0  0  0  0
 27 29  2  0  0  0  0
 28 27  1  0  0  0  0
 30 23  2  0  0  0  0
 31 22  2  0  0  0  0
 31 30  1  0  0  0  0
 32 33  2  0  0  0  0
 33 34  1  0  0  0  0
M  END
>  <MODEL>
3

>  <REMARK>
 VINA RESULT:      -9.0      3.462      5.681
  Name = 
  6 active torsions:
  status: ('A' for Active; 'I' for Inactive)
    1  A    between atoms: C_1  and  C_20
    2  A    between atoms: C_1  and  C_34
    3  A    between atoms: C_7  and  C_15
    4  A    between atoms: C_9  and  C_18
    5  A    between atoms: C_18  and  C_30
    6  A    between atoms: C_23  and  C_25
                            x       y       z     vdW  Elec       q    Type
                         _______ _______ _______ _____ _____    ______ ____

>  <TORSDO>
F 6

$$$$
=
 OpenBabel11052415553D

 34 37  0  0  0  0  0  0  0  0999 V2000
  183.3740  178.0300  139.5330 C   0  0  0  0  0  0  0  0  0  0  0  0
  183.8270  178.0180  140.7960 C   0  0  0  0  0  3  0  0  0  0  0  0
  185.9970  176.9060  137.0020 C   0  0  0  0  0  3  0  0  0  0  0  0
  185.9090  178.8910  138.3430 O   0  0  0  0  0  1  0  0  0  0  0  0
  185.4540  175.6980  136.5570 C   0  0  0  0  0  0  0  0  0  0  0  0
  184.2260  175.2720  137.0790 C   0  0  0  0  0  3  0  0  0  0  0  0
  185.3380  177.6820  137.9600 C   0  0  0  0  0  0  0  0  0  0  0  0
  183.5610  176.0380  138.0380 C   0  0  0  0  0  3  0  0  0  0  0  0
  184.1070  177.2490  138.5010 C   0  0  0  0  0  0  0  0  0  0  0  0
  187.4180  174.3710  135.6610 C   0  0  0  0  0  0  0  0  0  0  0  0
  187.9270  173.7110  134.5940 F   0  0  0  0  0  0  0  0  0  0  0  0
  188.2420  174.4330  136.9040 C   0  0  0  0  0  1  0  0  0  0  0  0
  186.2090  174.9330  135.5430 C   0  0  0  0  0  3  0  0  0  0  0  0
  180.6150  177.2090  139.8980 O   0  0  0  0  0  1  0  0  0  0  0  0
  180.8920  178.4530  139.3420 C   0  0  0  0  0  0  0  0  0  0  0  0
  180.0830  180.5220  138.3710 C   0  0  0  0  0  3  0  0  0  0  0  0
  179.8310  179.2790  138.9580 C   0  0  0  0  0  3  0  0  0  0  0  0
  182.4630  180.1210  138.5470 C   0  0  0  0  0  3  0  0  0  0  0  0
  182.2210  178.8780  139.1470 C   0  0  0  0  0  0  0  0  0  0  0  0
  181.3990  180.9410  138.1630 C   0  0  0  0  0  3  0  0  0  0  0  0
  183.2350  178.8240  141.9090 C   0  0  0  0  0  2  0  0  0  0  0  0
  184.2430  178.7710  145.5590 C   0  0  0  0  0  3  0  0  0  0  0  0
  185.3820  178.2410  143.0500 C   0  0  0  0  0  3  0  0  0  0  0  0
  187.6670  177.7570  146.5480 C   0  0  0  0  0  0  0  0  0  0  0  0
  186.3350  178.1840  146.6320 C   0  0  0  0  0  3  0  0  0  0  0  0
  185.5720  178.3470  145.4730 C   0  0  0  0  0  0  0  0  0  0  0  0
  187.4720  177.6520  144.1250 C   0  0  0  0  0  3  0  0  0  0  0  0
  186.1450  178.0790  144.2100 C   0  0  0  0  0  0  0  0  0  0  0  0
  188.2290  177.4930  145.2890 C   0  0  0  0  0  3  0  0  0  0  0  0
  184.0540  178.6710  143.1420 C   0  0  0  0  0  0  0  0  0  0  0  0
  183.4850  178.9310  144.3950 C   0  0  0  0  0  3  0  0  0  0  0  0
  187.9810  177.8820  148.8970 O   0  0  0  0  0  1  0  0  0  0  0  0
  188.4660  177.5880  147.7720 C   0  0  0  0  0  0  0  0  0  0  0  0
  189.7660  177.1010  147.6990 O   0  0  0  0  0  0  0  0  0  0  0  0
  1  2  2  0  0  0  0
  2 21  1  0  0  0  0
  3  7  1  0  0  0  0
  5  3  2  0  0  0  0
  5  6  1  0  0  0  0
  6  8  2  0  0  0  0
  7  4  1  0  0  0  0
  7  9  2  0  0  0  0
  8  9  1  0  0  0  0
  9  1  1  0  0  0  0
 10 12  1  0  0  0  0
 11 10  1  0  0  0  0
 13 10  2  0  0  0  0
 13  5  1  0  0  0  0
 15 14  1  0  0  0  0
 16 17  1  0  0  0  0
 17 15  2  0  0  0  0
 18 19  2  0  0  0  0
 19 15  1  0  0  0  0
 19  1  1  0  0  0  0
 20 16  2  0  0  0  0
 20 18  1  0  0  0  0
 21 30  1  0  0  0  0
 23 30  2  0  0  0  0
 23 28  1  0  0  0  0
 24 25  1  0  0  0  0
 24 33  1  0  0  0  0
 26 22  1  0  0  0  0
 26 25  2  0  0  0  0
 27 28  2  0  0  0  0
 27 29  1  0  0  0  0
 28 26  1  0  0  0  0
 29 24  2  0  0  0  0
 30 31  1  0  0  0  0
 31 22  2  0  0  0  0
 33 32  1  0  0  0  0
 34 33  2  0  0  0  0
M  END
>  <MODEL>
4

>  <REMARK>
 VINA RESULT:      -8.9      1.089      2.043
  Name = 
  6 active torsions:
  status: ('A' for Active; 'I' for Inactive)
    1  A    between atoms: C_1  and  C_20
    2  A    between atoms: C_1  and  C_34
    3  A    between atoms: C_7  and  C_15
    4  A    between atoms: C_9  and  C_18
    5  A    between atoms: C_18  and  C_30
    6  A    between atoms: C_23  and  C_25
                            x       y       z     vdW  Elec       q    Type
                         _______ _______ _______ _____ _____    ______ ____

>  <TORSDO>
F 6

$$$$
=
 OpenBabel11052415553D

 34 37  0  0  0  0  0  0  0  0999 V2000
  189.7880  176.4790  138.4230 C   0  0  0  0  0  0  0  0  0  0  0  0
  189.7560  176.8150  139.7220 C   0  0  0  0  0  3  0  0  0  0  0  0
  192.2690  174.0040  136.9170 C   0  0  0  0  0  3  0  0  0  0  0  0
  189.9830  173.6850  137.5620 O   0  0  0  0  0  1  0  0  0  0  0  0
  193.4170  174.7940  136.8050 C   0  0  0  0  0  0  0  0  0  0  0  0
  193.3700  176.1250  137.2390 C   0  0  0  0  0  3  0  0  0  0  0  0
  191.0850  174.5250  137.4450 C   0  0  0  0  0  0  0  0  0  0  0  0
  192.1910  176.6560  137.7650 C   0  0  0  0  0  3  0  0  0  0  0  0
  191.0290  175.8720  137.8700 C   0  0  0  0  0  0  0  0  0  0  0  0
  195.6170  173.5410  136.8830 C   0  0  0  0  0  0  0  0  0  0  0  0
  196.6460  173.0420  136.1570 F   0  0  0  0  0  0  0  0  0  0  0  0
  195.6520  173.3560  138.3640 C   0  0  0  0  0  1  0  0  0  0  0  0
  194.6310  174.1720  136.2370 C   0  0  0  0  0  3  0  0  0  0  0  0
  189.4130  179.0730  137.1770 O   0  0  0  0  0  1  0  0  0  0  0  0
  188.4940  178.0570  136.9350 C   0  0  0  0  0  0  0  0  0  0  0  0
  186.4480  177.3160  135.8680 C   0  0  0  0  0  3  0  0  0  0  0  0
  187.3990  178.3120  136.1040 C   0  0  0  0  0  3  0  0  0  0  0  0
  187.6800  175.8010  137.2960 C   0  0  0  0  0  3  0  0  0  0  0  0
  188.6460  176.7880  137.5290 C   0  0  0  0  0  0  0  0  0  0  0  0
  186.5860  176.0620  136.4660 C   0  0  0  0  0  3  0  0  0  0  0  0
  188.6050  177.5050  140.3830 C   0  0  0  0  0  2  0  0  0  0  0  0
  190.3330  177.8420  143.7350 C   0  0  0  0  0  3  0  0  0  0  0  0
  187.7380  177.4870  142.7290 C   0  0  0  0  0  3  0  0  0  0  0  0
  188.3720  177.7450  146.8780 C   0  0  0  0  0  0  0  0  0  0  0  0
  189.4560  177.8350  145.9950 C   0  0  0  0  0  3  0  0  0  0  0  0
  189.2510  177.7490  144.6150 C   0  0  0  0  0  0  0  0  0  0  0  0
  186.8630  177.4830  144.9880 C   0  0  0  0  0  3  0  0  0  0  0  0
  187.9440  177.5720  144.1080 C   0  0  0  0  0  0  0  0  0  0  0  0
  187.0760  177.5680  146.3660 C   0  0  0  0  0  3  0  0  0  0  0  0
  188.8260  177.5750  141.8530 C   0  0  0  0  0  0  0  0  0  0  0  0
  190.1200  177.7560  142.3560 C   0  0  0  0  0  3  0  0  0  0  0  0
  187.6790  177.5210  149.1370 O   0  0  0  0  0  1  0  0  0  0  0  0
  188.5940  177.8350  148.3290 C   0  0  0  0  0  0  0  0  0  0  0  0
  189.8190  178.2680  148.8250 O   0  0  0  0  0  0  0  0  0  0  0  0
  1  2  2  0  0  0  0
  2 21  1  0  0  0  0
  3  7  1  0  0  0  0
  5  3  2  0  0  0  0
  5  6  1  0  0  0  0
  6  8  2  0  0  0  0
  7  4  1  0  0  0  0
  7  9  2  0  0  0  0
  8  9  1  0  0  0  0
  9  1  1  0  0  0  0
 10 12  1  0  0  0  0
 11 10  1  0  0  0  0
 13  5  1  0  0  0  0
 13 10  2  0  0  0  0
 15 14  1  0  0  0  0
 15 19  1  0  0  0  0
 16 17  1  0  0  0  0
 16 20  2  0  0  0  0
 17 15  2  0  0  0  0
 18 19  2  0  0  0  0
 19  1  1  0  0  0  0
 20 18  1  0  0  0  0
 21 30  1  0  0  0  0
 22 26  1  0  0  0  0
 23 28  1  0  0  0  0
 24 33  1  0  0  0  0
 25 24  2  0  0  0  0
 26 25  1  0  0  0  0
 27 29  2  0  0  0  0
 28 26  2  0  0  0  0
 28 27  1  0  0  0  0
 29 24  1  0  0  0  0
 30 31  1  0  0  0  0
 30 23  2  0  0  0  0
 31 22  2  0  0  0  0
 33 34  2  0  0  0  0
 33 32  1  0  0  0  0
M  END
>  <MODEL>
5

>  <REMARK>
 VINA RESULT:      -8.9      5.036      6.737
  Name = 
  6 active torsions:
  status: ('A' for Active; 'I' for Inactive)
    1  A    between atoms: C_1  and  C_20
    2  A    between atoms: C_1  and  C_34
    3  A    between atoms: C_7  and  C_15
    4  A    between atoms: C_9  and  C_18
    5  A    between atoms: C_18  and  C_30
    6  A    between atoms: C_23  and  C_25
                            x       y       z     vdW  Elec       q    Type
                         _______ _______ _______ _____ _____    ______ ____

>  <TORSDO>
F 6

$$$$
=
 OpenBabel11052415553D

 34 37  0  0  0  0  0  0  0  0999 V2000
  181.9790  177.9330  140.5590 C   0  0  0  0  0  0  0  0  0  0  0  0
  183.0640  177.9590  141.3470 C   0  0  0  0  0  3  0  0  0  0  0  0
  182.4610  175.9630  137.3280 C   0  0  0  0  0  3  0  0  0  0  0  0
  183.3530  178.0910  137.9770 O   0  0  0  0  0  1  0  0  0  0  0  0
  181.6640  174.8400  137.5660 C   0  0  0  0  0  0  0  0  0  0  0  0
  180.9650  174.7470  138.7760 C   0  0  0  0  0  3  0  0  0  0  0  0
  182.5720  176.9820  138.2790 C   0  0  0  0  0  0  0  0  0  0  0  0
  181.0710  175.7570  139.7340 C   0  0  0  0  0  3  0  0  0  0  0  0
  181.8800  176.8840  139.5080 C   0  0  0  0  0  0  0  0  0  0  0  0
  182.4560  172.8080  136.2760 C   0  0  0  0  0  0  0  0  0  0  0  0
  182.1970  171.9670  135.2470 F   0  0  0  0  0  0  0  0  0  0  0  0
  183.6900  172.5700  137.0810 C   0  0  0  0  0  1  0  0  0  0  0  0
  181.5970  173.8050  136.5130 C   0  0  0  0  0  3  0  0  0  0  0  0
  179.8310  177.8360  142.5090 O   0  0  0  0  0  1  0  0  0  0  0  0
  179.9080  178.9080  141.6270 C   0  0  0  0  0  0  0  0  0  0  0  0
  178.9780  180.9870  140.7980 C   0  0  0  0  0  3  0  0  0  0  0  0
  178.9390  179.9130  141.6910 C   0  0  0  0  0  3  0  0  0  0  0  0
  180.9590  180.0560  139.7670 C   0  0  0  0  0  3  0  0  0  0  0  0
  180.9360  178.9810  140.6660 C   0  0  0  0  0  0  0  0  0  0  0  0
  179.9860  181.0570  139.8340 C   0  0  0  0  0  3  0  0  0  0  0  0
  183.3250  179.0070  142.3830 C   0  0  0  0  0  2  0  0  0  0  0  0
  186.7990  177.8200  143.3090 C   0  0  0  0  0  3  0  0  0  0  0  0
  184.5030  178.8120  144.5800 C   0  0  0  0  0  3  0  0  0  0  0  0
  187.9070  177.8260  146.8460 C   0  0  0  0  0  0  0  0  0  0  0  0
  187.9160  177.6590  145.4540 C   0  0  0  0  0  3  0  0  0  0  0  0
  186.7880  177.9850  144.6970 C   0  0  0  0  0  0  0  0  0  0  0  0
  185.6220  178.6530  146.7230 C   0  0  0  0  0  3  0  0  0  0  0  0
  185.6320  178.4860  145.3370 C   0  0  0  0  0  0  0  0  0  0  0  0
  186.7540  178.3240  147.4740 C   0  0  0  0  0  3  0  0  0  0  0  0
  184.5190  178.6400  143.1910 C   0  0  0  0  0  0  0  0  0  0  0  0
  185.6670  178.1490  142.5580 C   0  0  0  0  0  3  0  0  0  0  0  0
  189.4260  178.1780  148.6350 O   0  0  0  0  0  1  0  0  0  0  0  0
  189.0970  177.4810  147.6380 C   0  0  0  0  0  0  0  0  0  0  0  0
  189.8730  176.3800  147.2930 O   0  0  0  0  0  0  0  0  0  0  0  0
  1 19  1  0  0  0  0
  1  2  2  0  0  0  0
  2 21  1  0  0  0  0
  3  5  2  0  0  0  0
  3  7  1  0  0  0  0
  4  7  1  0  0  0  0
  5  6  1  0  0  0  0
  6  8  2  0  0  0  0
  7  9  2  0  0  0  0
  9  8  1  0  0  0  0
  9  1  1  0  0  0  0
 10 13  2  0  0  0  0
 10 12  1  0  0  0  0
 11 10  1  0  0  0  0
 13  5  1  0  0  0  0
 15 17  1  0  0  0  0
 15 14  1  0  0  0  0
 16 17  2  0  0  0  0
 18 20  2  0  0  0  0
 18 19  1  0  0  0  0
 19 15  2  0  0  0  0
 20 16  1  0  0  0  0
 21 30  1  0  0  0  0
 22 26  1  0  0  0  0
 23 28  1  0  0  0  0
 24 29  1  0  0  0  0
 24 33  1  0  0  0  0
 25 24  2  0  0  0  0
 26 28  2  0  0  0  0
 26 25  1  0  0  0  0
 27 29  2  0  0  0  0
 28 27  1  0  0  0  0
 30 23  2  0  0  0  0
 31 30  1  0  0  0  0
 31 22  2  0  0  0  0
 33 32  1  0  0  0  0
 34 33  2  0  0  0  0
M  END
>  <MODEL>
6

>  <REMARK>
 VINA RESULT:      -8.8      1.777      2.807
  Name = 
  6 active torsions:
  status: ('A' for Active; 'I' for Inactive)
    1  A    between atoms: C_1  and  C_20
    2  A    between atoms: C_1  and  C_34
    3  A    between atoms: C_7  and  C_15
    4  A    between atoms: C_9  and  C_18
    5  A    between atoms: C_18  and  C_30
    6  A    between atoms: C_23  and  C_25
                            x       y       z     vdW  Elec       q    Type
                         _______ _______ _______ _____ _____    ______ ____

>  <TORSDO>
F 6

$$$$
=
 OpenBabel11052415553D

 34 37  0  0  0  0  0  0  0  0999 V2000
  182.7090  177.9490  140.0480 C   0  0  0  0  0  0  0  0  0  0  0  0
  183.2050  177.8790  141.2930 C   0  0  0  0  0  3  0  0  0  0  0  0
  184.2280  175.5520  137.4990 C   0  0  0  0  0  3  0  0  0  0  0  0
  185.0740  177.6270  138.3490 O   0  0  0  0  0  1  0  0  0  0  0  0
  183.2410  174.5660  137.4220 C   0  0  0  0  0  0  0  0  0  0  0  0
  182.0810  174.7050  138.1940 C   0  0  0  0  0  3  0  0  0  0  0  0
  184.0750  176.6610  138.3360 C   0  0  0  0  0  0  0  0  0  0  0  0
  181.9190  175.8060  139.0360 C   0  0  0  0  0  3  0  0  0  0  0  0
  182.9130  176.7970  139.1290 C   0  0  0  0  0  0  0  0  0  0  0  0
  182.6450  172.9090  135.6000 C   0  0  0  0  0  0  0  0  0  0  0  0
  183.0680  171.8500  134.8710 F   0  0  0  0  0  0  0  0  0  0  0  0
  181.2730  173.4350  135.3390 C   0  0  0  0  0  1  0  0  0  0  0  0
  183.4750  173.4230  136.5140 C   0  0  0  0  0  3  0  0  0  0  0  0
  184.1870  180.2560  139.0880 O   0  0  0  0  0  1  0  0  0  0  0  0
  182.7970  180.2870  139.0950 C   0  0  0  0  0  0  0  0  0  0  0  0
  180.7430  181.5030  138.6730 C   0  0  0  0  0  3  0  0  0  0  0  0
  182.1390  181.4370  138.6500 C   0  0  0  0  0  3  0  0  0  0  0  0
  180.6520  179.2660  139.5900 C   0  0  0  0  0  3  0  0  0  0  0  0
  182.0510  179.1850  139.5590 C   0  0  0  0  0  0  0  0  0  0  0  0
  180.0010  180.4200  139.1460 C   0  0  0  0  0  3  0  0  0  0  0  0
  183.1430  178.9970  142.2850 C   0  0  0  0  0  2  0  0  0  0  0  0
  184.5990  178.7250  145.7700 C   0  0  0  0  0  3  0  0  0  0  0  0
  185.3830  178.2600  143.1170 C   0  0  0  0  0  3  0  0  0  0  0  0
  188.0620  177.5050  146.2700 C   0  0  0  0  0  0  0  0  0  0  0  0
  186.7760  177.9900  146.5420 C   0  0  0  0  0  3  0  0  0  0  0  0
  185.8820  178.2430  145.4970 C   0  0  0  0  0  0  0  0  0  0  0  0
  187.5580  177.5240  143.8890 C   0  0  0  0  0  3  0  0  0  0  0  0
  186.2770  178.0080  144.1610 C   0  0  0  0  0  0  0  0  0  0  0  0
  188.4460  177.2740  144.9390 C   0  0  0  0  0  3  0  0  0  0  0  0
  184.1010  178.7480  143.3960 C   0  0  0  0  0  0  0  0  0  0  0  0
  183.7090  178.9750  144.7200 C   0  0  0  0  0  3  0  0  0  0  0  0
  189.7590  176.2360  147.3390 O   0  0  0  0  0  0  0  0  0  0  0  0
  188.9980  177.2410  147.3730 C   0  0  0  0  0  0  0  0  0  0  0  0
  189.0540  178.0980  148.4650 O   0  0  0  0  0  1  0  0  0  0  0  0
  1  2  2  0  0  0  0
  2 21  1  0  0  0  0
  3  7  1  0  0  0  0
  5  3  2  0  0  0  0
  5  6  1  0  0  0  0
  6  8  2  0  0  0  0
  7  4  1  0  0  0  0
  7  9  2  0  0  0  0
  8  9  1  0  0  0  0
  9  1  1  0  0  0  0
 10 13  2  0  0  0  0
 11 10  1  0  0  0  0
 12 10  1  0  0  0  0
 13  5  1  0  0  0  0
 14 15  1  0  0  0  0
 15 19  1  0  0  0  0
 16 20  2  0  0  0  0
 17 16  1  0  0  0  0
 17 15  2  0  0  0  0
 19 18  2  0  0  0  0
 19  1  1  0  0  0  0
 20 18  1  0  0  0  0
 21 30  1  0  0  0  0
 23 30  2  0  0  0  0
 23 28  1  0  0  0  0
 24 25  1  0  0  0  0
 24 33  1  0  0  0  0
 26 22  1  0  0  0  0
 26 25  2  0  0  0  0
 27 28  2  0  0  0  0
 27 29  1  0  0  0  0
 28 26  1  0  0  0  0
 29 24  2  0  0  0  0
 30 31  1  0  0  0  0
 31 22  2  0  0  0  0
 32 33  2  0  0  0  0
 33 34  1  0  0  0  0
M  END
>  <MODEL>
7

>  <REMARK>
 VINA RESULT:      -8.6      1.207      1.714
  Name = 
  6 active torsions:
  status: ('A' for Active; 'I' for Inactive)
    1  A    between atoms: C_1  and  C_20
    2  A    between atoms: C_1  and  C_34
    3  A    between atoms: C_7  and  C_15
    4  A    between atoms: C_9  and  C_18
    5  A    between atoms: C_18  and  C_30
    6  A    between atoms: C_23  and  C_25
                            x       y       z     vdW  Elec       q    Type
                         _______ _______ _______ _____ _____    ______ ____

>  <TORSDO>
F 6

$$$$
=
 OpenBabel11052415553D

 34 37  0  0  0  0  0  0  0  0999 V2000
  181.2020  178.2020  140.8930 C   0  0  0  0  0  0  0  0  0  0  0  0
  181.8590  178.1560  142.0620 C   0  0  0  0  0  3  0  0  0  0  0  0
  181.3050  174.9760  138.8600 C   0  0  0  0  0  3  0  0  0  0  0  0
  183.0040  176.6320  139.1980 O   0  0  0  0  0  1  0  0  0  0  0  0
  180.0080  174.4900  139.0450 C   0  0  0  0  0  0  0  0  0  0  0  0
  179.1090  175.2320  139.8210 C   0  0  0  0  0  3  0  0  0  0  0  0
  181.7120  176.1800  139.4420 C   0  0  0  0  0  0  0  0  0  0  0  0
  179.5060  176.4330  140.4090 C   0  0  0  0  0  3  0  0  0  0  0  0
  180.8120  176.9240  140.2390 C   0  0  0  0  0  0  0  0  0  0  0  0
  179.3280  172.9910  137.1180 C   0  0  0  0  0  0  0  0  0  0  0  0
  179.0330  171.7260  136.7370 F   0  0  0  0  0  0  0  0  0  0  0  0
  179.2690  174.0650  136.0840 C   0  0  0  0  0  1  0  0  0  0  0  0
  179.6520  173.2100  138.3980 C   0  0  0  0  0  3  0  0  0  0  0  0
  178.9370  179.9020  141.5260 O   0  0  0  0  0  1  0  0  0  0  0  0
  179.8410  180.3010  140.5470 C   0  0  0  0  0  0  0  0  0  0  0  0
  180.5090  181.9200  138.8710 C   0  0  0  0  0  3  0  0  0  0  0  0
  179.6310  181.5110  139.8780 C   0  0  0  0  0  3  0  0  0  0  0  0
  181.8150  179.9090  139.1940 C   0  0  0  0  0  3  0  0  0  0  0  0
  180.9470  179.4950  140.2140 C   0  0  0  0  0  0  0  0  0  0  0  0
  181.5990  181.1180  138.5270 C   0  0  0  0  0  3  0  0  0  0  0  0
  182.3790  179.3610  142.7800 C   0  0  0  0  0  2  0  0  0  0  0  0
  184.5670  178.6410  145.7860 C   0  0  0  0  0  3  0  0  0  0  0  0
  184.7550  178.6070  142.9870 C   0  0  0  0  0  3  0  0  0  0  0  0
  188.0670  177.5100  145.3360 C   0  0  0  0  0  0  0  0  0  0  0  0
  186.8670  177.8940  145.9490 C   0  0  0  0  0  3  0  0  0  0  0  0
  185.7640  178.2600  145.1730 C   0  0  0  0  0  0  0  0  0  0  0  0
  187.0530  177.8580  143.1520 C   0  0  0  0  0  3  0  0  0  0  0  0
  185.8580  178.2420  143.7640 C   0  0  0  0  0  0  0  0  0  0  0  0
  188.1520  177.4950  143.9340 C   0  0  0  0  0  3  0  0  0  0  0  0
  183.5610  178.9920  143.6070 C   0  0  0  0  0  0  0  0  0  0  0  0
  183.4660  179.0040  145.0040 C   0  0  0  0  0  3  0  0  0  0  0  0
  189.0770  176.8350  147.3750 O   0  0  0  0  0  1  0  0  0  0  0  0
  189.2250  177.1270  146.1580 C   0  0  0  0  0  0  0  0  0  0  0  0
  190.4970  177.0820  145.5990 O   0  0  0  0  0  0  0  0  0  0  0  0
  1  2  2  0  0  0  0
  2 21  1  0  0  0  0
  3  5  2  0  0  0  0
  3  7  1  0  0  0  0
  4  7  1  0  0  0  0
  5  6  1  0  0  0  0
  6  8  2  0  0  0  0
  7  9  2  0  0  0  0
  9  8  1  0  0  0  0
  9  1  1  0  0  0  0
 10 13  2  0  0  0  0
 11 10  1  0  0  0  0
 12 10  1  0  0  0  0
 13  5  1  0  0  0  0
 15 14  1  0  0  0  0
 16 17  1  0  0  0  0
 17 15  2  0  0  0  0
 18 19  2  0  0  0  0
 19 15  1  0  0  0  0
 19  1  1  0  0  0  0
 20 16  2  0  0  0  0
 20 18  1  0  0  0  0
 21 30  1  0  0  0  0
 23 30  2  0  0  0  0
 23 28  1  0  0  0  0
 24 25  1  0  0  0  0
 24 33  1  0  0  0  0
 26 22  1  0  0  0  0
 26 25  2  0  0  0  0
 27 28  2  0  0  0  0
 27 29  1  0  0  0  0
 28 26  1  0  0  0  0
 29 24  2  0  0  0  0
 30 31  1  0  0  0  0
 31 22  2  0  0  0  0
 33 32  1  0  0  0  0
 34 33  2  0  0  0  0
M  END
>  <MODEL>
8

>  <REMARK>
 VINA RESULT:      -8.5      2.631      3.396
  Name = 
  6 active torsions:
  status: ('A' for Active; 'I' for Inactive)
    1  A    between atoms: C_1  and  C_20
    2  A    between atoms: C_1  and  C_34
    3  A    between atoms: C_7  and  C_15
    4  A    between atoms: C_9  and  C_18
    5  A    between atoms: C_18  and  C_30
    6  A    between atoms: C_23  and  C_25
                            x       y       z     vdW  Elec       q    Type
                         _______ _______ _______ _____ _____    ______ ____

>  <TORSDO>
F 6

$$$$
=
 OpenBabel11052415553D

 34 37  0  0  0  0  0  0  0  0999 V2000
  189.0000  177.5900  142.0430 C   0  0  0  0  0  0  0  0  0  0  0  0
  187.6850  177.6800  142.2950 C   0  0  0  0  0  3  0  0  0  0  0  0
  189.1950  177.7320  138.2370 C   0  0  0  0  0  3  0  0  0  0  0  0
  187.5180  178.5870  139.7210 O   0  0  0  0  0  1  0  0  0  0  0  0
  190.3830  177.0390  137.9930 C   0  0  0  0  0  0  0  0  0  0  0  0
  191.1000  176.5180  139.0780 C   0  0  0  0  0  3  0  0  0  0  0  0
  188.7220  177.9170  139.5390 C   0  0  0  0  0  0  0  0  0  0  0  0
  190.6390  176.6990  140.3830 C   0  0  0  0  0  3  0  0  0  0  0  0
  189.4510  177.4070  140.6380 C   0  0  0  0  0  0  0  0  0  0  0  0
  190.9340  175.7580  135.8780 C   0  0  0  0  0  0  0  0  0  0  0  0
  191.3540  175.8480  134.5940 F   0  0  0  0  0  0  0  0  0  0  0  0
  190.6300  174.4010  136.4200 C   0  0  0  0  0  1  0  0  0  0  0  0
  190.8170  176.8850  136.5890 C   0  0  0  0  0  3  0  0  0  0  0  0
  189.9300  175.1510  143.3130 O   0  0  0  0  0  1  0  0  0  0  0  0
  190.4220  176.3790  143.7430 C   0  0  0  0  0  0  0  0  0  0  0  0
  191.8360  177.6340  145.2600 C   0  0  0  0  0  3  0  0  0  0  0  0
  191.3480  176.4120  144.7900 C   0  0  0  0  0  3  0  0  0  0  0  0
  190.4730  178.8010  143.6370 C   0  0  0  0  0  3  0  0  0  0  0  0
  189.9870  177.5810  143.1510 C   0  0  0  0  0  0  0  0  0  0  0  0
  191.3960  178.8280  144.6860 C   0  0  0  0  0  3  0  0  0  0  0  0
  187.0970  177.7820  143.6660 C   0  0  0  0  0  2  0  0  0  0  0  0
  183.6630  179.0410  144.6470 C   0  0  0  0  0  3  0  0  0  0  0  0
  185.0010  178.1440  142.3500 C   0  0  0  0  0  3  0  0  0  0  0  0
  180.9790  179.3500  142.1100 C   0  0  0  0  0  0  0  0  0  0  0  0
  181.6540  179.3950  143.3380 C   0  0  0  0  0  3  0  0  0  0  0  0
  182.9900  178.9950  143.4230 C   0  0  0  0  0  0  0  0  0  0  0  0
  182.9930  178.5000  141.0420 C   0  0  0  0  0  3  0  0  0  0  0  0
  183.6650  178.5440  142.2660 C   0  0  0  0  0  0  0  0  0  0  0  0
  181.6570  178.9010  140.9660 C   0  0  0  0  0  3  0  0  0  0  0  0
  185.6680  178.1880  143.5800 C   0  0  0  0  0  0  0  0  0  0  0  0
  185.0000  178.6410  144.7250 C   0  0  0  0  0  3  0  0  0  0  0  0
  178.9320  180.0710  143.0700 O   0  0  0  0  0  1  0  0  0  0  0  0
  179.5730  179.7720  142.0270 C   0  0  0  0  0  0  0  0  0  0  0  0
  178.9350  179.8460  140.7940 O   0  0  0  0  0  0  0  0  0  0  0  0
  1  2  2  0  0  0  0
  1 19  1  0  0  0  0
  2 21  1  0  0  0  0
  3  7  1  0  0  0  0
  5  3  2  0  0  0  0
  5  6  1  0  0  0  0
  6  8  2  0  0  0  0
  7  4  1  0  0  0  0
  7  9  2  0  0  0  0
  8  9  1  0  0  0  0
  9  1  1  0  0  0  0
 10 12  1  0  0  0  0
 10 13  2  0  0  0  0
 11 10  1  0  0  0  0
 13  5  1  0  0  0  0
 14 15  1  0  0  0  0
 15 17  1  0  0  0  0
 17 16  2  0  0  0  0
 18 20  2  0  0  0  0
 19 18  1  0  0  0  0
 19 15  2  0  0  0  0
 20 16  1  0  0  0  0
 22 31  1  0  0  0  0
 23 30  1  0  0  0  0
 24 25  2  0  0  0  0
 25 26  1  0  0  0  0
 26 22  2  0  0  0  0
 27 28  1  0  0  0  0
 28 23  2  0  0  0  0
 28 26  1  0  0  0  0
 29 27  2  0  0  0  0
 29 24  1  0  0  0  0
 30 21  1  0  0  0  0
 30 31  2  0  0  0  0
 33 24  1  0  0  0  0
 33 32  1  0  0  0  0
 34 33  2  0  0  0  0
M  END
>  <MODEL>
9

>  <REMARK>
 VINA RESULT:      -8.4      3.722      7.747
  Name = 
  6 active torsions:
  status: ('A' for Active; 'I' for Inactive)
    1  A    between atoms: C_1  and  C_20
    2  A    between atoms: C_1  and  C_34
    3  A    between atoms: C_7  and  C_15
    4  A    between atoms: C_9  and  C_18
    5  A    between atoms: C_18  and  C_30
    6  A    between atoms: C_23  and  C_25
                            x       y       z     vdW  Elec       q    Type
                         _______ _______ _______ _____ _____    ______ ____

>  <TORSDO>
F 6

$$$$
