=
 OpenBabel11052412353D

 30 34  0  0  1  0  0  0  0  0999 V2000
  187.7150  177.6670  145.0340 C   0  0  0  0  0  0  0  0  0  0  0  0
  187.7080  177.7620  147.5360 C   0  0  0  0  0  3  0  0  0  0  0  0
  191.6090  176.6450  143.5760 C   0  0  0  0  0  2  0  0  0  0  0  0
  186.9390  177.7400  143.9140 C   0  0  0  0  0  0  0  0  0  0  0  0
  185.5150  178.1890  144.0110 C   0  0  0  0  0  0  0  0  0  0  0  0
  183.3500  178.7690  143.0400 C   0  0  0  0  0  3  0  0  0  0  0  0
  188.4360  178.7680  140.7630 C   0  0  0  0  0  2  0  0  0  0  0  0
  184.6650  178.3190  142.8830 C   0  0  0  0  0  0  0  0  0  0  0  0
  185.0010  178.5310  145.2780 C   0  0  0  0  0  0  0  0  0  0  0  0
  189.8880  177.0640  142.0070 C   0  0  2  0  0  3  0  0  0  0  0  0
  191.0990  177.6280  142.6250 N   0  0  0  0  0  0  0  0  0  0  0  0
  185.7980  178.4170  146.4140 O   0  0  0  0  0  0  0  0  0  0  0  0
  185.0860  178.0310  141.6280 F   0  0  0  0  0  0  0  0  0  0  0  0
  189.0430  177.2480  147.8700 C   0  0  0  0  0  3  0  0  0  0  0  0
  190.0500  176.2730  140.6950 C   0  0  0  0  0  2  0  0  0  0  0  0
  189.9120  176.2900  138.2270 C   0  0  0  0  0  1  0  0  0  0  0  0
  183.6860  178.9800  145.4190 C   0  0  0  0  0  3  0  0  0  0  0  0
  187.1120  177.9520  146.3600 C   0  0  0  0  0  0  0  0  0  0  0  0
  191.5550  177.1930  145.0110 C   0  0  0  0  0  2  0  0  0  0  0  0
  191.2280  176.5000  147.7440 O   0  0  0  0  0  1  0  0  0  0  0  0
  182.8610  179.0980  144.3020 C   0  0  0  0  0  3  0  0  0  0  0  0
  189.1550  177.4680  144.8440 C   0  0  0  0  0  3  0  0  0  0  0  0
  187.4580  177.2670  142.5640 C   0  0  0  0  0  2  0  0  0  0  0  0
  192.1490  177.8990  141.6500 C   0  0  0  0  0  1  0  0  0  0  0  0
  188.6900  178.0230  142.0740 C   0  0  2  0  0  3  0  0  0  0  0  0
  189.8310  177.1540  139.4700 C   0  0  1  0  0  3  0  0  0  0  0  0
  188.2350  178.5820  138.4140 F   0  0  0  0  0  0  0  0  0  0  0  0
  190.0970  176.9890  147.0990 C   0  0  0  0  0  0  0  0  0  0  0  0
  190.1800  177.2020  145.6430 C   0  0  0  0  0  0  0  0  0  0  0  0
  188.4680  177.8370  139.5550 C   0  0  2  0  0  3  0  0  0  0  0  0
  1 18  1  0  0  0  0
  2 14  1  0  0  0  0
  3 19  1  0  0  0  0
  4  5  1  0  0  0  0
  4  1  2  0  0  0  0
  5  9  1  0  0  0  0
  6 21  2  0  0  0  0
  8  6  1  0  0  0  0
  8  5  2  0  0  0  0
  9 17  2  0  0  0  0
  9 12  1  0  0  0  0
 10 15  1  6  0  0  0
 10 25  1  0  0  0  0
 10 11  1  0  0  0  0
 11  3  1  0  0  0  0
 13  8  1  0  0  0  0
 18 12  1  0  0  0  0
 18  2  2  0  0  0  0
 19 29  1  0  0  0  0
 21 17  1  0  0  0  0
 22  1  1  0  0  0  0
 22 29  2  0  0  0  0
 23  4  1  0  0  0  0
 24 11  1  0  0  0  0
 25  7  1  6  0  0  0
 25 23  1  0  0  0  0
 26 16  1  6  0  0  0
 26 30  1  0  0  0  0
 26 15  1  0  0  0  0
 28 20  1  0  0  0  0
 28 14  2  0  0  0  0
 29 28  1  0  0  0  0
 30 27  1  6  0  0  0
 30  7  1  0  0  0  0
M  END
>  <MODEL>
1

>  <REMARK>
 VINA RESULT:     -12.9      0.000      0.000
  Name = 
  0 active torsions:
  status: ('A' for Active; 'I' for Inactive)
                            x       y       z     vdW  Elec       q    Type
                         _______ _______ _______ _____ _____    ______ ____

>  <TORSDO>
F 0

$$$$
=
 OpenBabel11052412353D

 30 34  0  0  1  0  0  0  0  0999 V2000
  186.4800  178.1750  142.3700 C   0  0  0  0  0  0  0  0  0  0  0  0
  184.3620  178.8490  141.2180 C   0  0  0  0  0  3  0  0  0  0  0  0
  185.8840  177.9450  146.6040 C   0  0  0  0  0  2  0  0  0  0  0  0
  187.7690  177.7680  142.1830 C   0  0  0  0  0  0  0  0  0  0  0  0
  188.3870  177.8200  140.8210 C   0  0  0  0  0  0  0  0  0  0  0  0
  190.2550  177.5410  139.2720 C   0  0  0  0  0  3  0  0  0  0  0  0
  190.2390  178.3970  144.7780 C   0  0  0  0  0  2  0  0  0  0  0  0
  189.7300  177.4440  140.5650 C   0  0  0  0  0  0  0  0  0  0  0  0
  187.6100  178.2950  139.7470 C   0  0  0  0  0  0  0  0  0  0  0  0
  188.0410  177.4970  145.7390 C   0  0  2  0  0  3  0  0  0  0  0  0
  187.2260  178.5000  146.4430 N   0  0  0  0  0  0  0  0  0  0  0  0
  186.2850  178.6740  139.9500 O   0  0  0  0  0  0  0  0  0  0  0  0
  190.5520  176.9960  141.5450 F   0  0  0  0  0  0  0  0  0  0  0  0
  183.3860  178.8130  142.3150 C   0  0  0  0  0  3  0  0  0  0  0  0
  188.8460  176.4950  146.5890 C   0  0  0  0  0  2  0  0  0  0  0  0
  191.0290  175.8950  147.5820 C   0  0  0  0  0  1  0  0  0  0  0  0
  188.1480  178.3880  138.4600 C   0  0  0  0  0  3  0  0  0  0  0  0
  185.6680  178.5870  141.1980 C   0  0  0  0  0  0  0  0  0  0  0  0
  184.8520  178.7780  145.8270 C   0  0  0  0  0  2  0  0  0  0  0  0
  182.4000  178.6830  144.4030 O   0  0  0  0  0  1  0  0  0  0  0  0
  189.4680  178.0100  138.2230 C   0  0  0  0  0  3  0  0  0  0  0  0
  186.0190  178.3390  143.7510 C   0  0  0  0  0  3  0  0  0  0  0  0
  188.5730  177.1520  143.3190 C   0  0  0  0  0  2  0  0  0  0  0  0
  187.7460  178.8110  147.7700 C   0  0  0  0  0  1  0  0  0  0  0  0
  188.7660  178.0790  144.5160 C   0  0  2  0  0  3  0  0  0  0  0  0
  190.2760  176.9700  146.8240 C   0  0  1  0  0  3  0  0  0  0  0  0
  192.2760  177.6180  145.6910 F   0  0  0  0  0  0  0  0  0  0  0  0
  183.5550  178.6790  143.6290 C   0  0  0  0  0  0  0  0  0  0  0  0
  184.8450  178.5580  144.3300 C   0  0  0  0  0  0  0  0  0  0  0  0
  190.9570  177.2540  145.4870 C   0  0  2  0  0  3  0  0  0  0  0  0
  1 22  1  0  0  0  0
  2 14  1  0  0  0  0
  4  1  2  0  0  0  0
  4 23  1  0  0  0  0
  5  4  1  0  0  0  0
  6  8  2  0  0  0  0
  7 30  1  0  0  0  0
  8  5  1  0  0  0  0
  8 13  1  0  0  0  0
  9 12  1  0  0  0  0
  9  5  2  0  0  0  0
 10 11  1  0  0  0  0
 10 15  1  1  0  0  0
 11  3  1  0  0  0  0
 11 24  1  0  0  0  0
 12 18  1  0  0  0  0
 14 28  2  0  0  0  0
 15 26  1  0  0  0  0
 17  9  1  0  0  0  0
 18  2  2  0  0  0  0
 18  1  1  0  0  0  0
 19  3  1  0  0  0  0
 21 17  2  0  0  0  0
 21  6  1  0  0  0  0
 22 29  2  0  0  0  0
 25 23  1  6  0  0  0
 25  7  1  0  0  0  0
 25 10  1  0  0  0  0
 26 16  1  6  0  0  0
 28 29  1  0  0  0  0
 28 20  1  0  0  0  0
 29 19  1  0  0  0  0
 30 27  1  1  0  0  0
 30 26  1  0  0  0  0
M  END
>  <MODEL>
2

>  <REMARK>
 VINA RESULT:     -11.3      2.713      6.443
  Name = 
  0 active torsions:
  status: ('A' for Active; 'I' for Inactive)
                            x       y       z     vdW  Elec       q    Type
                         _______ _______ _______ _____ _____    ______ ____

>  <TORSDO>
F 0

$$$$
=
 OpenBabel11052412353D

 30 34  0  0  1  0  0  0  0  0999 V2000
  188.3980  177.6870  142.4990 C   0  0  0  0  0  0  0  0  0  0  0  0
  190.8220  177.4050  141.9410 C   0  0  0  0  0  3  0  0  0  0  0  0
  186.0750  178.1480  138.9310 C   0  0  0  0  0  2  0  0  0  0  0  0
  187.4780  177.6810  143.5070 C   0  0  0  0  0  0  0  0  0  0  0  0
  187.9250  177.6470  144.9350 C   0  0  0  0  0  0  0  0  0  0  0  0
  187.5070  177.6650  147.3410 C   0  0  0  0  0  3  0  0  0  0  0  0
  184.3960  179.5740  143.1320 C   0  0  0  0  0  2  0  0  0  0  0  0
  187.0230  177.6730  146.0290 C   0  0  0  0  0  0  0  0  0  0  0  0
  189.3060  177.6220  145.2080 C   0  0  0  0  0  0  0  0  0  0  0  0
  184.9680  178.2400  141.0210 C   0  0  2  0  0  3  0  0  0  0  0  0
  185.4610  179.0540  139.8980 N   0  0  0  0  0  0  0  0  0  0  0  0
  190.2290  177.5950  144.1650 O   0  0  0  0  0  0  0  0  0  0  0  0
  185.6800  177.7170  145.8540 F   0  0  0  0  0  0  0  0  0  0  0  0
  190.7920  177.2860  140.4770 C   0  0  0  0  0  3  0  0  0  0  0  0
  183.5120  177.7410  140.9650 C   0  0  0  0  0  2  0  0  0  0  0  0
  181.1700  178.0790  141.6810 C   0  0  0  0  0  1  0  0  0  0  0  0
  189.7760  177.6160  146.5240 C   0  0  0  0  0  3  0  0  0  0  0  0
  189.8400  177.5720  142.8260 C   0  0  0  0  0  0  0  0  0  0  0  0
  187.5790  178.4340  138.7920 C   0  0  0  0  0  2  0  0  0  0  0  0
  190.1160  177.2790  138.2650 O   0  0  0  0  0  1  0  0  0  0  0  0
  188.8780  177.6360  147.5890 C   0  0  0  0  0  3  0  0  0  0  0  0
  187.9120  177.9740  141.1460 C   0  0  0  0  0  3  0  0  0  0  0  0
  185.9870  177.5960  143.2130 C   0  0  0  0  0  2  0  0  0  0  0  0
  184.3910  179.7770  139.2210 C   0  0  0  0  0  1  0  0  0  0  0  0
  185.4520  178.7600  142.3830 C   0  0  2  0  0  3  0  0  0  0  0  0
  182.5610  178.6820  141.6970 C   0  0  1  0  0  3  0  0  0  0  0  0
  182.1370  179.6850  143.8230 F   0  0  0  0  0  0  0  0  0  0  0  0
  189.8060  177.4830  139.6050 C   0  0  0  0  0  0  0  0  0  0  0  0
  188.4370  177.9230  139.9290 C   0  0  0  0  0  0  0  0  0  0  0  0
  183.0340  178.8880  143.1340 C   0  0  2  0  0  3  0  0  0  0  0  0
  1 18  1  0  0  0  0
  1  4  2  0  0  0  0
  2 18  2  0  0  0  0
  3 11  1  0  0  0  0
  4  5  1  0  0  0  0
  5  9  2  0  0  0  0
  5  8  1  0  0  0  0
  6 21  1  0  0  0  0
  7 30  1  0  0  0  0
  8  6  2  0  0  0  0
  9 17  1  0  0  0  0
 10 15  1  1  0  0  0
 10 25  1  0  0  0  0
 11 10  1  0  0  0  0
 12  9  1  0  0  0  0
 13  8  1  0  0  0  0
 14  2  1  0  0  0  0
 15 26  1  0  0  0  0
 17 21  2  0  0  0  0
 18 12  1  0  0  0  0
 19  3  1  0  0  0  0
 19 29  1  0  0  0  0
 20 28  1  0  0  0  0
 22  1  1  0  0  0  0
 23  4  1  0  0  0  0
 24 11  1  0  0  0  0
 25  7  1  1  0  0  0
 25 23  1  0  0  0  0
 26 16  1  1  0  0  0
 26 30  1  0  0  0  0
 28 29  1  0  0  0  0
 28 14  2  0  0  0  0
 29 22  2  0  0  0  0
 30 27  1  1  0  0  0
M  END
>  <MODEL>
3

>  <REMARK>
 VINA RESULT:     -11.2      2.772      6.139
  Name = 
  0 active torsions:
  status: ('A' for Active; 'I' for Inactive)
                            x       y       z     vdW  Elec       q    Type
                         _______ _______ _______ _____ _____    ______ ____

>  <TORSDO>
F 0

$$$$
=
 OpenBabel11052412353D

 30 34  0  0  1  0  0  0  0  0999 V2000
  188.6600  177.6260  141.5700 C   0  0  0  0  0  0  0  0  0  0  0  0
  190.9270  177.2920  140.5630 C   0  0  0  0  0  3  0  0  0  0  0  0
  185.7280  178.2390  138.5100 C   0  0  0  0  0  2  0  0  0  0  0  0
  187.9440  177.6190  142.7320 C   0  0  0  0  0  0  0  0  0  0  0  0
  188.6490  177.5370  144.0510 C   0  0  0  0  0  0  0  0  0  0  0  0
  188.6880  177.5060  146.4930 C   0  0  0  0  0  3  0  0  0  0  0  0
  184.9080  179.6050  142.9780 C   0  0  0  0  0  2  0  0  0  0  0  0
  187.9690  177.5600  145.2950 C   0  0  0  0  0  0  0  0  0  0  0  0
  190.0560  177.4680  144.0590 C   0  0  0  0  0  0  0  0  0  0  0  0
  185.0340  178.3090  140.7720 C   0  0  2  0  0  3  0  0  0  0  0  0
  185.3340  179.1380  139.5930 N   0  0  0  0  0  0  0  0  0  0  0  0
  190.7660  177.4410  142.8620 O   0  0  0  0  0  0  0  0  0  0  0  0
  186.6190  177.6460  145.3750 F   0  0  0  0  0  0  0  0  0  0  0  0
  190.6210  177.2110  139.1280 C   0  0  0  0  0  3  0  0  0  0  0  0
  183.5780  177.8520  140.9800 C   0  0  0  0  0  2  0  0  0  0  0  0
  181.4230  178.2350  142.1290 C   0  0  0  0  0  1  0  0  0  0  0  0
  190.7620  177.4160  145.2640 C   0  0  0  0  0  3  0  0  0  0  0  0
  190.1340  177.4630  141.6190 C   0  0  0  0  0  0  0  0  0  0  0  0
  187.1880  178.4880  138.0980 C   0  0  0  0  0  2  0  0  0  0  0  0
  189.5450  177.2770  137.0820 O   0  0  0  0  0  1  0  0  0  0  0  0
  190.0800  177.4330  146.4790 C   0  0  0  0  0  3  0  0  0  0  0  0
  187.9390  177.9600  140.3380 C   0  0  0  0  0  3  0  0  0  0  0  0
  186.4240  177.5830  142.7210 C   0  0  0  0  0  2  0  0  0  0  0  0
  184.1800  179.9070  139.1420 C   0  0  0  0  0  1  0  0  0  0  0  0
  185.7800  178.7810  142.0300 C   0  0  2  0  0  3  0  0  0  0  0  0
  182.8100  178.7990  141.8950 C   0  0  1  0  0  3  0  0  0  0  0  0
  182.8220  179.7600  144.0820 F   0  0  0  0  0  0  0  0  0  0  0  0
  189.4960  177.4570  138.4600 C   0  0  0  0  0  0  0  0  0  0  0  0
  188.2260  177.9260  139.0430 C   0  0  0  0  0  0  0  0  0  0  0  0
  183.5500  178.9570  143.2220 C   0  0  2  0  0  3  0  0  0  0  0  0
  1 18  1  0  0  0  0
  1  4  2  0  0  0  0
  2 18  2  0  0  0  0
  3 11  1  0  0  0  0
  4  5  1  0  0  0  0
  5  9  2  0  0  0  0
  5  8  1  0  0  0  0
  7 30  1  0  0  0  0
  8 13  1  0  0  0  0
  8  6  2  0  0  0  0
  9 17  1  0  0  0  0
 10 15  1  1  0  0  0
 10 25  1  0  0  0  0
 11 10  1  0  0  0  0
 12  9  1  0  0  0  0
 14  2  1  0  0  0  0
 15 26  1  0  0  0  0
 17 21  2  0  0  0  0
 18 12  1  0  0  0  0
 19  3  1  0  0  0  0
 19 29  1  0  0  0  0
 20 28  1  0  0  0  0
 21  6  1  0  0  0  0
 22  1  1  0  0  0  0
 23  4  1  0  0  0  0
 24 11  1  0  0  0  0
 25 23  1  1  0  0  0
 25  7  1  0  0  0  0
 26 16  1  1  0  0  0
 26 30  1  0  0  0  0
 28 29  1  0  0  0  0
 28 14  2  0  0  0  0
 29 22  2  0  0  0  0
 30 27  1  1  0  0  0
M  END
>  <MODEL>
4

>  <REMARK>
 VINA RESULT:     -10.8      2.975      6.614
  Name = 
  0 active torsions:
  status: ('A' for Active; 'I' for Inactive)
                            x       y       z     vdW  Elec       q    Type
                         _______ _______ _______ _____ _____    ______ ____

>  <TORSDO>
F 0

$$$$
=
 OpenBabel11052412353D

 30 34  0  0  1  0  0  0  0  0999 V2000
  186.1390  178.3750  140.6820 C   0  0  0  0  0  0  0  0  0  0  0  0
  185.6950  178.5400  138.2230 C   0  0  0  0  0  3  0  0  0  0  0  0
  190.2760  177.5470  141.4120 C   0  0  0  0  0  2  0  0  0  0  0  0
  185.5950  178.5190  141.9250 C   0  0  0  0  0  0  0  0  0  0  0  0
  184.1190  178.7100  142.0840 C   0  0  0  0  0  0  0  0  0  0  0  0
  182.0980  178.9830  143.4280 C   0  0  0  0  0  3  0  0  0  0  0  0
  186.9940  176.6570  144.7180 C   0  0  0  0  0  2  0  0  0  0  0  0
  183.4860  178.8320  143.3470 C   0  0  0  0  0  0  0  0  0  0  0  0
  183.3150  178.7390  140.9280 C   0  0  0  0  0  0  0  0  0  0  0  0
  188.8140  177.7230  143.2640 C   0  0  2  0  0  3  0  0  0  0  0  0
  189.5560  176.7730  142.4190 N   0  0  0  0  0  0  0  0  0  0  0  0
  183.8930  178.6250  139.6660 O   0  0  0  0  0  0  0  0  0  0  0  0
  184.1830  178.7940  144.5090 F   0  0  0  0  0  0  0  0  0  0  0  0
  187.0490  178.4880  137.6580 C   0  0  0  0  0  3  0  0  0  0  0  0
  189.5030  178.2420  144.5410 C   0  0  0  0  0  2  0  0  0  0  0  0
  189.7650  178.0380  146.9900 C   0  0  0  0  0  1  0  0  0  0  0  0
  181.9290  178.8900  141.0240 C   0  0  0  0  0  3  0  0  0  0  0  0
  185.2700  178.4980  139.4850 C   0  0  0  0  0  0  0  0  0  0  0  0
  189.7670  177.2150  140.0000 C   0  0  0  0  0  2  0  0  0  0  0  0
  189.3350  178.2500  137.3930 O   0  0  0  0  0  1  0  0  0  0  0  0
  181.3210  179.0130  142.2720 C   0  0  0  0  0  3  0  0  0  0  0  0
  187.5370  177.9420  140.6050 C   0  0  0  0  0  3  0  0  0  0  0  0
  186.4730  178.5980  143.1650 C   0  0  0  0  0  2  0  0  0  0  0  0
  190.5320  175.9970  143.1740 C   0  0  0  0  0  1  0  0  0  0  0  0
  187.3280  177.3570  143.4000 C   0  0  2  0  0  3  0  0  0  0  0  0
  189.1290  177.4120  145.7650 C   0  0  1  0  0  3  0  0  0  0  0  0
  187.2680  176.6740  147.0670 F   0  0  0  0  0  0  0  0  0  0  0  0
  188.2220  178.2100  138.2250 C   0  0  0  0  0  0  0  0  0  0  0  0
  188.4370  177.8390  139.6350 C   0  0  0  0  0  0  0  0  0  0  0  0
  187.6100  177.3660  145.9190 C   0  0  2  0  0  3  0  0  0  0  0  0
  1  4  2  0  0  0  0
  2 18  2  0  0  0  0
  3 11  1  0  0  0  0
  4  5  1  0  0  0  0
  4 23  1  0  0  0  0
  5  8  2  0  0  0  0
  7 30  1  0  0  0  0
  8  6  1  0  0  0  0
  8 13  1  0  0  0  0
  9 17  2  0  0  0  0
  9  5  1  0  0  0  0
 10 25  1  0  0  0  0
 10 15  1  1  0  0  0
 11 24  1  0  0  0  0
 11 10  1  0  0  0  0
 12  9  1  0  0  0  0
 14  2  1  0  0  0  0
 14 28  2  0  0  0  0
 15 26  1  0  0  0  0
 17 21  1  0  0  0  0
 18 12  1  0  0  0  0
 18  1  1  0  0  0  0
 19  3  1  0  0  0  0
 20 28  1  0  0  0  0
 21  6  2  0  0  0  0
 22  1  1  0  0  0  0
 25 23  1  1  0  0  0
 25  7  1  0  0  0  0
 26 30  1  0  0  0  0
 26 16  1  1  0  0  0
 28 29  1  0  0  0  0
 29 19  1  0  0  0  0
 29 22  2  0  0  0  0
 30 27  1  1  0  0  0
M  END
>  <MODEL>
5

>  <REMARK>
 VINA RESULT:     -10.0      3.031      5.766
  Name = 
  0 active torsions:
  status: ('A' for Active; 'I' for Inactive)
                            x       y       z     vdW  Elec       q    Type
                         _______ _______ _______ _____ _____    ______ ____

>  <TORSDO>
F 0

$$$$
