=
 OpenBabel11052416423D

 43 48  0  0  1  0  0  0  0  0999 V2000
  182.0150  176.8760  137.9100 C   0  0  1  0  0  0  0  0  0  0  0  0
  184.1230  178.6450  144.3560 C   0  0  0  0  0  0  0  0  0  0  0  0
  182.1920  178.6170  139.6930 N   0  0  0  0  0  0  0  0  0  0  0  0
  180.9090  174.8880  136.8340 C   0  0  0  0  0  2  0  0  0  0  0  0
  184.5480  177.9730  139.3350 N   0  0  0  0  0  2  0  0  0  0  0  0
  182.6460  178.9140  142.4320 C   0  0  0  0  0  0  0  0  0  0  0  0
  185.1730  178.2970  143.6060 C   0  0  0  0  0  3  0  0  0  0  0  0
  180.0940  174.3210  137.9600 C   0  0  0  0  0  0  0  0  0  0  0  0
  184.2660  178.6770  145.8320 C   0  0  0  0  0  1  0  0  0  0  0  0
  183.7540  178.5000  141.5370 C   0  0  0  0  0  0  0  0  0  0  0  0
  182.8250  178.9770  143.7500 C   0  0  0  0  0  3  0  0  0  0  0  0
  185.1290  178.2420  142.1030 C   0  0  0  0  0  2  0  0  0  0  0  0
  184.3900  178.1490  137.9010 C   0  0  2  0  0  3  0  0  0  0  0  0
  181.3960  175.4460  139.8790 C   0  0  0  0  0  2  0  0  0  0  0  0
  183.5180  178.3930  140.2200 C   0  0  0  0  0  0  0  0  0  0  0  0
  180.9730  176.4060  136.9030 C   0  0  0  0  0  2  0  0  0  0  0  0
  181.1380  179.0810  140.5500 C   0  0  0  0  0  3  0  0  0  0  0  0
  181.8290  178.3540  138.2910 C   0  0  1  0  0  3  0  0  0  0  0  0
  182.5320  175.8750  138.9560 C   0  0  0  0  0  2  0  0  0  0  0  0
  182.9670  177.9280  137.3390 C   0  0  2  0  0  3  0  0  0  0  0  0
  180.3500  174.5410  139.2660 C   0  0  0  0  0  3  0  0  0  0  0  0
  181.3350  179.2290  141.8590 C   0  0  0  0  0  3  0  0  0  0  0  0
  179.2890  172.1250  137.6530 F   0  0  0  0  0  0  0  0  0  0  0  0
  178.9330  173.4580  137.6010 C   0  0  0  0  0  2  0  0  0  0  0  0
  185.5170  177.4780  137.1040 C   0  0  1  0  0  3  0  0  0  0  0  0
  187.2120  179.0670  137.4330 O   0  0  0  0  0  0  0  0  0  0  0  0
  186.8930  177.8940  137.5310 C   0  0  0  0  0  0  0  0  0  0  0  0
  187.8770  176.9000  138.0710 C   0  0  0  0  0  2  0  0  0  0  0  0
  188.9170  177.5680  138.8450 N   0  0  0  0  0  0  0  0  0  0  0  0
  190.1210  177.6060  138.0300 C   0  0  0  0  0  2  0  0  0  0  0  0
  190.8640  176.2930  138.1470 C   0  0  0  0  0  1  0  0  0  0  0  0
  189.1840  176.8660  140.1070 C   0  0  0  0  0  2  0  0  0  0  0  0
  189.1280  177.7500  141.3540 C   0  0  1  0  0  3  0  0  0  0  0  0
  188.2520  178.9520  141.0570 C   0  0  0  0  0  1  0  0  0  0  0  0
  188.5470  176.9670  142.5280 C   0  0  0  0  0  2  0  0  0  0  0  0
  189.1960  177.3580  143.8450 C   0  0  2  0  0  3  0  0  0  0  0  0
  188.7450  177.7220  146.2910 C   0  0  0  0  0  2  0  0  0  0  0  0
  191.3220  177.1030  145.5520 S   0  0  0  0  0  0  0  0  0  0  0  0
  189.9290  176.8590  146.7060 C   0  0  0  0  0  2  0  0  0  0  0  0
  190.3930  176.4610  144.1270 C   0  0  0  0  0  2  0  0  0  0  0  0
  188.1710  177.2330  144.9670 C   0  0  0  0  0  2  0  0  0  0  0  0
  185.3910  176.0900  137.1060 O   0  0  0  0  0  0  0  0  0  0  0  0
  185.2150  175.7400  135.7680 C   0  0  0  0  0  1  0  0  0  0  0  0
  1 16  1  6  0  0  0
  1 18  1  0  0  0  0
  1 19  1  0  0  0  0
  2  9  1  0  0  0  0
  3 15  1  0  0  0  0
  3 17  1  0  0  0  0
  4 16  1  0  0  0  0
  4  8  1  0  0  0  0
  5 15  1  0  0  0  0
  6 11  2  0  0  0  0
  7  2  2  0  0  0  0
  8 21  2  0  0  0  0
 10 12  1  0  0  0  0
 10  6  1  0  0  0  0
 11  2  1  0  0  0  0
 12  7  1  0  0  0  0
 13 25  1  6  0  0  0
 13  5  1  0  0  0  0
 15 10  2  0  0  0  0
 17 22  2  0  0  0  0
 18  3  1  1  0  0  0
 19 14  1  0  0  0  0
 20 13  1  0  0  0  0
 20  1  1  0  0  0  0
 20 18  1  0  0  0  0
 21 14  1  0  0  0  0
 22  6  1  0  0  0  0
 24 23  1  0  0  0  0
 24  8  1  0  0  0  0
 25 42  1  0  0  0  0
 25 27  1  0  0  0  0
 26 27  2  0  0  0  0
 27 28  1  0  0  0  0
 28 29  1  0  0  0  0
 29 32  1  0  0  0  0
 30 31  1  0  0  0  0
 30 29  1  0  0  0  0
 32 33  1  0  0  0  0
 33 35  1  0  0  0  0
 34 33  1  0  0  0  0
 35 36  1  0  0  0  0
 36 40  1  0  0  0  0
 36 41  1  0  0  0  0
 37 39  1  0  0  0  0
 38 39  1  0  0  0  0
 40 38  1  0  0  0  0
 41 37  1  0  0  0  0
 43 42  1  0  0  0  0
M  END
>  <MODEL>
1

>  <REMARK>
 VINA RESULT:      -8.1      0.000      0.000
  Name = 
  11 active torsions:
  status: ('A' for Active; 'I' for Inactive)
    1  A    between atoms: C_2  and  C_6
    2  A    between atoms: C_2  and  O_12
    3  A    between atoms: C_2  and  C_27
    4  A    between atoms: N_4  and  C_7
    5  A    between atoms: N_4  and  C_10
    6  A    between atoms: N_4  and  C_15
    7  A    between atoms: C_6  and  C_7
    8  A    between atoms: C_11  and  C_14
    9  A    between atoms: C_14  and  C_22
   10  A    between atoms: C_15  and  C_22
   11  A    between atoms: C_19  and  C_37
                            x       y       z     vdW  Elec       q    Type
                         _______ _______ _______ _____ _____    ______ ____

>  <TORSDO>
F 11

$$$$
=
 OpenBabel11052416423D

 43 48  0  0  1  0  0  0  0  0999 V2000
  184.9220  176.0820  136.0730 C   0  0  1  0  0  0  0  0  0  0  0  0
  183.5830  178.7570  142.4110 C   0  0  0  0  0  0  0  0  0  0  0  0
  183.7230  177.7770  137.4620 N   0  0  0  0  0  0  0  0  0  0  0  0
  185.1700  173.7840  135.0780 C   0  0  0  0  0  2  0  0  0  0  0  0
  186.0900  178.1980  138.0240 N   0  0  0  0  0  2  0  0  0  0  0  0
  182.9600  178.3140  140.0940 C   0  0  2  0  0  3  0  0  0  0  0  0
  184.8840  178.8740  142.1250 C   0  0  0  0  0  3  0  0  0  0  0  0
  184.2820  172.9520  135.9570 C   0  0  0  0  0  0  0  0  0  0  0  0
  183.1360  178.8870  143.8190 C   0  0  0  0  0  1  0  0  0  0  0  0
  184.3890  178.3920  139.7050 C   0  0  0  0  0  0  0  0  0  0  0  0
  182.5900  178.4830  141.3610 C   0  0  0  0  0  3  0  0  0  0  0  0
  185.4330  178.7650  140.7290 C   0  0  0  0  0  3  0  0  0  0  0  0
  186.4280  178.2510  136.6110 C   0  0  2  0  0  3  0  0  0  0  0  0
  184.2180  174.5780  137.9560 C   0  0  0  0  0  2  0  0  0  0  0  0
  184.7280  178.1590  138.4270 C   0  0  0  0  0  0  0  0  0  0  0  0
  184.6070  175.1830  134.8830 C   0  0  0  0  0  2  0  0  0  0  0  0
  182.3340  177.7670  137.8230 C   0  0  0  0  0  3  0  0  0  0  0  0
  184.0470  177.3470  136.0920 C   0  0  1  0  0  3  0  0  0  0  0  0
  185.3530  175.4280  137.3950 C   0  0  0  0  0  2  0  0  0  0  0  0
  185.5280  177.4250  135.6630 C   0  0  2  0  0  3  0  0  0  0  0  0
  183.9200  173.2960  137.2100 C   0  0  0  0  0  3  0  0  0  0  0  0
  181.9500  178.0200  139.0730 C   0  0  0  0  0  3  0  0  0  0  0  0
  184.2610  170.6000  136.1340 F   0  0  0  0  0  0  0  0  0  0  0  0
  183.7760  171.6650  135.4010 C   0  0  0  0  0  2  0  0  0  0  0  0
  187.9360  178.1080  136.3680 C   0  0  1  0  0  3  0  0  0  0  0  0
  189.0420  179.3610  138.0160 O   0  0  0  0  0  0  0  0  0  0  0  0
  188.7670  178.2440  137.6080 C   0  0  0  0  0  0  0  0  0  0  0  0
  189.2650  177.0400  138.3520 C   0  0  0  0  0  2  0  0  0  0  0  0
  189.9460  177.4340  139.5800 N   0  0  0  0  0  0  0  0  0  0  0  0
  191.3630  177.1550  139.4100 C   0  0  0  0  0  2  0  0  0  0  0  0
  191.5500  176.0220  138.4240 C   0  0  0  0  0  1  0  0  0  0  0  0
  189.4230  176.7060  140.7430 C   0  0  0  0  0  2  0  0  0  0  0  0
  189.1740  177.5710  141.9790 C   0  0  1  0  0  3  0  0  0  0  0  0
  188.7090  178.9410  141.5260 C   0  0  0  0  0  1  0  0  0  0  0  0
  188.1070  176.9310  142.8630 C   0  0  0  0  0  2  0  0  0  0  0  0
  188.0760  177.5500  144.2500 C   0  0  2  0  0  3  0  0  0  0  0  0
  186.5800  178.0460  146.2080 C   0  0  0  0  0  2  0  0  0  0  0  0
  189.2810  177.8400  146.6920 S   0  0  0  0  0  0  0  0  0  0  0  0
  187.5710  177.4530  147.2000 C   0  0  0  0  0  2  0  0  0  0  0  0
  189.1400  176.9140  145.1330 C   0  0  0  0  0  2  0  0  0  0  0  0
  186.6940  177.3430  144.8610 C   0  0  0  0  0  2  0  0  0  0  0  0
  188.2370  176.9270  135.6910 O   0  0  0  0  0  0  0  0  0  0  0  0
  189.3180  177.2440  134.8710 C   0  0  0  0  0  1  0  0  0  0  0  0
  1 16  1  6  0  0  0
  1 18  1  0  0  0  0
  1 19  1  0  0  0  0
  2  9  1  0  0  0  0
  3 17  1  0  0  0  0
  3 15  1  0  0  0  0
  4  8  1  0  0  0  0
  5 15  1  0  0  0  0
  6 22  1  1  0  0  0
  6 11  1  0  0  0  0
  7  2  1  0  0  0  0
  8 21  2  0  0  0  0
 10  6  1  0  0  0  0
 10 12  1  0  0  0  0
 11  2  2  0  0  0  0
 12  7  2  0  0  0  0
 13 25  1  1  0  0  0
 13  5  1  0  0  0  0
 15 10  2  0  0  0  0
 16  4  1  0  0  0  0
 17 22  2  0  0  0  0
 18  3  1  1  0  0  0
 19 14  1  0  0  0  0
 20  1  1  0  0  0  0
 20 18  1  0  0  0  0
 20 13  1  0  0  0  0
 21 14  1  0  0  0  0
 24  8  1  0  0  0  0
 24 23  1  0  0  0  0
 25 27  1  0  0  0  0
 27 26  2  0  0  0  0
 27 28  1  0  0  0  0
 28 29  1  0  0  0  0
 29 32  1  0  0  0  0
 30 29  1  0  0  0  0
 31 30  1  0  0  0  0
 32 33  1  0  0  0  0
 33 35  1  0  0  0  0
 34 33  1  0  0  0  0
 35 36  1  0  0  0  0
 36 41  1  0  0  0  0
 36 40  1  0  0  0  0
 37 39  1  0  0  0  0
 38 39  1  0  0  0  0
 40 38  1  0  0  0  0
 41 37  1  0  0  0  0
 42 25  1  0  0  0  0
 43 42  1  0  0  0  0
M  END
>  <MODEL>
2

>  <REMARK>
 VINA RESULT:      -7.6      2.085      2.856
  Name = 
  11 active torsions:
  status: ('A' for Active; 'I' for Inactive)
    1  A    between atoms: C_2  and  C_6
    2  A    between atoms: C_2  and  O_12
    3  A    between atoms: C_2  and  C_27
    4  A    between atoms: N_4  and  C_7
    5  A    between atoms: N_4  and  C_10
    6  A    between atoms: N_4  and  C_15
    7  A    between atoms: C_6  and  C_7
    8  A    between atoms: C_11  and  C_14
    9  A    between atoms: C_14  and  C_22
   10  A    between atoms: C_15  and  C_22
   11  A    between atoms: C_19  and  C_37
                            x       y       z     vdW  Elec       q    Type
                         _______ _______ _______ _____ _____    ______ ____

>  <TORSDO>
F 11

$$$$
=
 OpenBabel11052416423D

 43 48  0  0  1  0  0  0  0  0999 V2000
  189.9530  176.7780  137.6410 C   0  0  1  0  0  0  0  0  0  0  0  0
  183.0780  176.8620  136.2790 C   0  0  0  0  0  0  0  0  0  0  0  0
  188.0150  177.8840  136.5190 N   0  0  0  0  0  0  0  0  0  0  0  0
  191.7680  175.0380  137.7600 C   0  0  0  0  0  2  0  0  0  0  0  0
  187.3240  177.8660  138.8890 N   0  0  0  0  0  2  0  0  0  0  0  0
  185.3860  177.4090  135.7060 C   0  0  2  0  0  3  0  0  0  0  0  0
  183.2910  176.9780  137.5950 C   0  0  0  0  0  3  0  0  0  0  0  0
  191.2890  174.0020  136.7870 C   0  0  0  0  0  0  0  0  0  0  0  0
  181.7330  176.4660  135.7950 C   0  0  0  0  0  1  0  0  0  0  0  0
  185.7080  177.5200  137.1500 C   0  0  0  0  0  0  0  0  0  0  0  0
  184.1550  177.0980  135.3060 C   0  0  0  0  0  3  0  0  0  0  0  0
  184.6160  177.3810  138.1810 C   0  0  0  0  0  3  0  0  0  0  0  0
  188.6020  178.4390  139.2770 C   0  0  2  0  0  3  0  0  0  0  0  0
  188.8120  174.7180  136.7690 C   0  0  0  0  0  2  0  0  0  0  0  0
  186.9730  177.7790  137.5140 C   0  0  0  0  0  0  0  0  0  0  0  0
  191.4010  176.4430  137.3040 C   0  0  0  0  0  2  0  0  0  0  0  0
  187.6920  177.8420  135.1210 C   0  0  0  0  0  3  0  0  0  0  0  0
  189.4430  177.9990  136.8580 C   0  0  1  0  0  3  0  0  0  0  0  0
  188.9910  175.6280  137.9800 C   0  0  0  0  0  2  0  0  0  0  0  0
  189.8010  178.1230  138.3540 C   0  0  2  0  0  3  0  0  0  0  0  0
  190.0020  173.8560  136.4070 C   0  0  0  0  0  3  0  0  0  0  0  0
  186.4440  177.6160  134.7130 C   0  0  0  0  0  3  0  0  0  0  0  0
  191.6960  172.1140  135.4330 F   0  0  0  0  0  0  0  0  0  0  0  0
  192.3060  173.0780  136.2100 C   0  0  0  0  0  2  0  0  0  0  0  0
  188.8770  178.2850  140.7790 C   0  0  1  0  0  3  0  0  0  0  0  0
  187.5860  176.9210  142.1870 O   0  0  0  0  0  0  0  0  0  0  0  0
  187.6530  177.9840  141.5920 C   0  0  0  0  0  0  0  0  0  0  0  0
  186.5170  178.9590  141.6840 C   0  0  0  0  0  2  0  0  0  0  0  0
  185.4670  178.4500  142.5590 N   0  0  0  0  0  0  0  0  0  0  0  0
  184.3120  178.1400  141.7320 C   0  0  0  0  0  2  0  0  0  0  0  0
  183.0600  178.7110  142.3620 C   0  0  0  0  0  1  0  0  0  0  0  0
  185.1020  179.4310  143.5890 C   0  0  0  0  0  2  0  0  0  0  0  0
  185.4090  178.9950  145.0230 C   0  0  1  0  0  3  0  0  0  0  0  0
  184.1000  178.7090  145.7330 C   0  0  0  0  0  1  0  0  0  0  0  0
  186.2760  177.7400  145.0170 C   0  0  0  0  0  2  0  0  0  0  0  0
  187.6000  177.9640  145.7270 C   0  0  2  0  0  3  0  0  0  0  0  0
  188.6680  178.1690  147.9930 C   0  0  0  0  0  2  0  0  0  0  0  0
  190.2710  177.3850  145.8990 S   0  0  0  0  0  0  0  0  0  0  0  0
  189.7650  177.1740  147.6410 C   0  0  0  0  0  2  0  0  0  0  0  0
  188.6280  176.9450  145.2580 C   0  0  0  0  0  2  0  0  0  0  0  0
  187.3890  177.8410  147.2330 C   0  0  0  0  0  2  0  0  0  0  0  0
  189.8820  177.3520  141.0240 O   0  0  0  0  0  0  0  0  0  0  0  0
  190.6430  177.9000  142.0550 C   0  0  0  0  0  1  0  0  0  0  0  0
  1 16  1  6  0  0  0
  1 19  1  0  0  0  0
  1 20  1  0  0  0  0
  2  7  1  0  0  0  0
  3 15  1  0  0  0  0
  5 13  1  0  0  0  0
  6 22  1  1  0  0  0
  6 10  1  0  0  0  0
  7 12  2  0  0  0  0
  8  4  1  0  0  0  0
  9  2  1  0  0  0  0
 10 15  2  0  0  0  0
 10 12  1  0  0  0  0
 11  6  1  0  0  0  0
 11  2  2  0  0  0  0
 13 25  1  1  0  0  0
 14 19  1  0  0  0  0
 15  5  1  0  0  0  0
 16  4  1  0  0  0  0
 17  3  1  0  0  0  0
 18  3  1  1  0  0  0
 18  1  1  0  0  0  0
 18 20  1  0  0  0  0
 20 13  1  0  0  0  0
 21 14  1  0  0  0  0
 21  8  2  0  0  0  0
 22 17  2  0  0  0  0
 23 24  1  0  0  0  0
 24  8  1  0  0  0  0
 25 42  1  0  0  0  0
 25 27  1  0  0  0  0
 27 28  1  0  0  0  0
 27 26  2  0  0  0  0
 28 29  1  0  0  0  0
 29 32  1  0  0  0  0
 30 31  1  0  0  0  0
 30 29  1  0  0  0  0
 32 33  1  0  0  0  0
 33 34  1  0  0  0  0
 35 33  1  0  0  0  0
 35 36  1  0  0  0  0
 36 41  1  0  0  0  0
 38 39  1  0  0  0  0
 39 37  1  0  0  0  0
 40 36  1  0  0  0  0
 40 38  1  0  0  0  0
 41 37  1  0  0  0  0
 42 43  1  0  0  0  0
M  END
>  <MODEL>
3

>  <REMARK>
 VINA RESULT:      -7.4      2.918      7.172
  Name = 
  11 active torsions:
  status: ('A' for Active; 'I' for Inactive)
    1  A    between atoms: C_2  and  C_6
    2  A    between atoms: C_2  and  O_12
    3  A    between atoms: C_2  and  C_27
    4  A    between atoms: N_4  and  C_7
    5  A    between atoms: N_4  and  C_10
    6  A    between atoms: N_4  and  C_15
    7  A    between atoms: C_6  and  C_7
    8  A    between atoms: C_11  and  C_14
    9  A    between atoms: C_14  and  C_22
   10  A    between atoms: C_15  and  C_22
   11  A    between atoms: C_19  and  C_37
                            x       y       z     vdW  Elec       q    Type
                         _______ _______ _______ _____ _____    ______ ____

>  <TORSDO>
F 11

$$$$
=
 OpenBabel11052416423D

 43 48  0  0  1  0  0  0  0  0999 V2000
  190.0480  176.3100  137.1570 C   0  0  1  0  0  0  0  0  0  0  0  0
  183.1020  176.9910  136.5100 C   0  0  0  0  0  0  0  0  0  0  0  0
  188.1070  177.5750  136.2230 N   0  0  0  0  0  0  0  0  0  0  0  0
  191.7070  174.4180  137.1160 C   0  0  0  0  0  2  0  0  0  0  0  0
  187.6680  177.6340  138.6520 N   0  0  0  0  0  2  0  0  0  0  0  0
  185.3770  177.3280  135.6930 C   0  0  2  0  0  3  0  0  0  0  0  0
  183.4600  177.0970  137.7950 C   0  0  0  0  0  3  0  0  0  0  0  0
  191.0410  173.4210  136.2140 C   0  0  0  0  0  0  0  0  0  0  0  0
  181.6850  176.7120  136.1740 C   0  0  0  0  0  1  0  0  0  0  0  0
  185.8560  177.4200  137.0940 C   0  0  0  0  0  0  0  0  0  0  0  0
  184.0880  177.1240  135.4280 C   0  0  0  0  0  3  0  0  0  0  0  0
  184.8690  177.3850  138.2350 C   0  0  0  0  0  3  0  0  0  0  0  0
  189.0250  178.0950  138.8970 C   0  0  2  0  0  3  0  0  0  0  0  0
  188.6480  174.3530  136.4400 C   0  0  0  0  0  2  0  0  0  0  0  0
  187.1700  177.5690  137.3220 C   0  0  0  0  0  0  0  0  0  0  0  0
  191.4180  175.8460  136.6780 C   0  0  0  0  0  2  0  0  0  0  0  0
  187.6380  177.5520  134.8670 C   0  0  0  0  0  3  0  0  0  0  0  0
  189.5670  177.5660  136.4110 C   0  0  1  0  0  3  0  0  0  0  0  0
  189.0300  175.2520  137.6110 C   0  0  0  0  0  2  0  0  0  0  0  0
  190.0890  177.6680  137.8600 C   0  0  2  0  0  3  0  0  0  0  0  0
  189.7140  173.3870  135.9720 C   0  0  0  0  0  3  0  0  0  0  0  0
  186.3390  177.4350  134.5940 C   0  0  0  0  0  3  0  0  0  0  0  0
  193.1060  172.2820  136.2250 F   0  0  0  0  0  0  0  0  0  0  0  0
  191.9080  172.4070  135.5500 C   0  0  0  0  0  2  0  0  0  0  0  0
  189.4400  177.9280  140.3650 C   0  0  1  0  0  3  0  0  0  0  0  0
  187.4710  178.9210  141.1690 O   0  0  0  0  0  0  0  0  0  0  0  0
  188.3020  178.0420  141.3340 C   0  0  0  0  0  0  0  0  0  0  0  0
  188.1670  177.1030  142.4950 C   0  0  0  0  0  2  0  0  0  0  0  0
  187.9830  177.8410  143.7400 N   0  0  0  0  0  0  0  0  0  0  0  0
  189.3010  178.1520  144.2700 C   0  0  0  0  0  2  0  0  0  0  0  0
  189.8190  176.9840  145.0810 C   0  0  0  0  0  1  0  0  0  0  0  0
  187.2170  177.0610  144.7200 C   0  0  0  0  0  2  0  0  0  0  0  0
  186.0020  177.7860  145.3030 C   0  0  1  0  0  3  0  0  0  0  0  0
  186.4060  178.4300  146.6150 C   0  0  0  0  0  1  0  0  0  0  0  0
  185.5130  178.8570  144.3320 C   0  0  0  0  0  2  0  0  0  0  0  0
  184.2010  178.4680  143.6750 C   0  0  2  0  0  3  0  0  0  0  0  0
  181.7020  178.5940  143.9200 C   0  0  0  0  0  2  0  0  0  0  0  0
  182.7160  178.2860  141.3800 S   0  0  0  0  0  0  0  0  0  0  0  0
  181.5210  179.0990  142.4950 C   0  0  0  0  0  2  0  0  0  0  0  0
  184.1560  178.9830  142.2430 C   0  0  0  0  0  2  0  0  0  0  0  0
  183.0440  179.0520  144.4790 C   0  0  0  0  0  2  0  0  0  0  0  0
  190.1520  176.7470  140.5650 O   0  0  0  0  0  0  0  0  0  0  0  0
  191.3830  177.1480  141.0790 C   0  0  0  0  0  1  0  0  0  0  0  0
  1 16  1  6  0  0  0
  1 19  1  0  0  0  0
  1 20  1  0  0  0  0
  2  7  1  0  0  0  0
  3 15  1  0  0  0  0
  5 13  1  0  0  0  0
  6 22  1  1  0  0  0
  6 10  1  0  0  0  0
  7 12  2  0  0  0  0
  8  4  1  0  0  0  0
  9  2  1  0  0  0  0
 10 15  2  0  0  0  0
 10 12  1  0  0  0  0
 11  6  1  0  0  0  0
 11  2  2  0  0  0  0
 13 25  1  1  0  0  0
 14 19  1  0  0  0  0
 15  5  1  0  0  0  0
 16  4  1  0  0  0  0
 17  3  1  0  0  0  0
 18  3  1  1  0  0  0
 18  1  1  0  0  0  0
 18 20  1  0  0  0  0
 20 13  1  0  0  0  0
 21  8  2  0  0  0  0
 21 14  1  0  0  0  0
 22 17  2  0  0  0  0
 24  8  1  0  0  0  0
 24 23  1  0  0  0  0
 25 42  1  0  0  0  0
 25 27  1  0  0  0  0
 26 27  2  0  0  0  0
 27 28  1  0  0  0  0
 28 29  1  0  0  0  0
 29 30  1  0  0  0  0
 29 32  1  0  0  0  0
 30 31  1  0  0  0  0
 32 33  1  0  0  0  0
 33 34  1  0  0  0  0
 35 33  1  0  0  0  0
 36 35  1  0  0  0  0
 36 41  1  0  0  0  0
 37 41  1  0  0  0  0
 38 40  1  0  0  0  0
 38 39  1  0  0  0  0
 39 37  1  0  0  0  0
 40 36  1  0  0  0  0
 42 43  1  0  0  0  0
M  END
>  <MODEL>
4

>  <REMARK>
 VINA RESULT:      -7.3      3.363      7.608
  Name = 
  11 active torsions:
  status: ('A' for Active; 'I' for Inactive)
    1  A    between atoms: C_2  and  C_6
    2  A    between atoms: C_2  and  O_12
    3  A    between atoms: C_2  and  C_27
    4  A    between atoms: N_4  and  C_7
    5  A    between atoms: N_4  and  C_10
    6  A    between atoms: N_4  and  C_15
    7  A    between atoms: C_6  and  C_7
    8  A    between atoms: C_11  and  C_14
    9  A    between atoms: C_14  and  C_22
   10  A    between atoms: C_15  and  C_22
   11  A    between atoms: C_19  and  C_37
                            x       y       z     vdW  Elec       q    Type
                         _______ _______ _______ _____ _____    ______ ____

>  <TORSDO>
F 11

$$$$
=
 OpenBabel11052416423D

 43 48  0  0  1  0  0  0  0  0999 V2000
  181.3540  179.1620  139.2340 C   0  0  1  0  0  0  0  0  0  0  0  0
  182.7100  172.9850  136.2130 C   0  0  0  0  0  0  0  0  0  0  0  0
  180.8500  176.7230  139.0500 N   0  0  0  0  0  0  0  0  0  0  0  0
  181.1240  181.5520  138.4770 C   0  0  0  0  0  2  0  0  0  0  0  0
  183.2560  176.7350  139.6020 N   0  0  0  0  0  2  0  0  0  0  0  0
  181.2070  174.5300  137.3580 C   0  0  2  0  0  3  0  0  0  0  0  0
  183.7940  173.4340  136.8550 C   0  0  0  0  0  3  0  0  0  0  0  0
  180.6350  181.4000  137.0660 C   0  0  0  0  0  0  0  0  0  0  0  0
  182.8610  171.9190  135.1930 C   0  0  0  0  0  1  0  0  0  0  0  0
  182.3670  175.1060  138.0820 C   0  0  0  0  0  0  0  0  0  0  0  0
  181.3750  173.5400  136.4840 C   0  0  0  0  0  3  0  0  0  0  0  0
  183.7410  174.5060  137.9090 C   0  0  0  0  0  3  0  0  0  0  0  0
  183.0080  177.6360  140.7150 C   0  0  2  0  0  3  0  0  0  0  0  0
  181.4130  178.9650  136.7310 C   0  0  0  0  0  2  0  0  0  0  0  0
  182.1650  176.1400  138.9120 C   0  0  0  0  0  0  0  0  0  0  0  0
  180.5680  180.4610  139.3790 C   0  0  0  0  0  2  0  0  0  0  0  0
  179.7180  176.1240  138.4010 C   0  0  0  0  0  3  0  0  0  0  0  0
  180.5920  177.9570  139.8100 C   0  0  1  0  0  3  0  0  0  0  0  0
  182.2550  178.9820  138.0020 C   0  0  0  0  0  2  0  0  0  0  0  0
  181.7840  178.5700  140.5770 C   0  0  2  0  0  3  0  0  0  0  0  0
  180.8090  180.2900  136.3190 C   0  0  0  0  0  3  0  0  0  0  0  0
  179.8680  175.0780  137.5900 C   0  0  0  0  0  3  0  0  0  0  0  0
  180.4570  182.8690  135.2300 F   0  0  0  0  0  0  0  0  0  0  0  0
  179.9160  182.5560  136.4600 C   0  0  0  0  0  2  0  0  0  0  0  0
  184.2910  178.3130  141.2140 C   0  0  1  0  0  3  0  0  0  0  0  0
  184.9810  179.7390  139.4820 O   0  0  0  0  0  0  0  0  0  0  0  0
  185.2260  178.7260  140.1170 C   0  0  0  0  0  0  0  0  0  0  0  0
  186.4460  177.9200  139.7850 C   0  0  0  0  0  2  0  0  0  0  0  0
  187.6600  178.6700  140.0870 N   0  0  0  0  0  0  0  0  0  0  0  0
  188.7400  178.1040  139.2940 C   0  0  0  0  0  2  0  0  0  0  0  0
  188.8330  178.8220  137.9650 C   0  0  0  0  0  1  0  0  0  0  0  0
  187.9940  178.6010  141.5160 C   0  0  0  0  0  2  0  0  0  0  0  0
  188.8400  177.3900  141.9150 C   0  0  1  0  0  3  0  0  0  0  0  0
  190.1810  177.8830  142.4230 C   0  0  0  0  0  1  0  0  0  0  0  0
  188.1360  176.5950  143.0110 C   0  0  0  0  0  2  0  0  0  0  0  0
  188.1420  177.3330  144.3380 C   0  0  2  0  0  3  0  0  0  0  0  0
  186.6930  178.0270  146.2710 C   0  0  0  0  0  2  0  0  0  0  0  0
  189.3980  177.8120  146.7240 S   0  0  0  0  0  0  0  0  0  0  0  0
  187.6910  177.5040  147.2940 C   0  0  0  0  0  2  0  0  0  0  0  0
  189.2110  176.7560  145.2560 C   0  0  0  0  0  2  0  0  0  0  0  0
  186.7680  177.2070  144.9890 C   0  0  0  0  0  2  0  0  0  0  0  0
  184.0110  179.3830  142.0620 O   0  0  0  0  0  0  0  0  0  0  0  0
  184.9270  179.2680  143.1060 C   0  0  0  0  0  1  0  0  0  0  0  0
  1 19  1  6  0  0  0
  1 16  1  0  0  0  0
  1 18  1  0  0  0  0
  1 20  1  0  0  0  0
  2 11  2  0  0  0  0
  2  7  1  0  0  0  0
  4 16  1  0  0  0  0
  5 13  1  0  0  0  0
  6 11  1  6  0  0  0
  6 22  1  0  0  0  0
  6 10  1  0  0  0  0
  7 12  2  0  0  0  0
  8  4  1  0  0  0  0
  9  2  1  0  0  0  0
 10 15  2  0  0  0  0
 12 10  1  0  0  0  0
 13 25  1  6  0  0  0
 14 19  1  0  0  0  0
 15  3  1  0  0  0  0
 15  5  1  0  0  0  0
 17  3  1  0  0  0  0
 18  3  1  6  0  0  0
 18 20  1  0  0  0  0
 20 13  1  0  0  0  0
 21 14  1  0  0  0  0
 21  8  2  0  0  0  0
 22 17  2  0  0  0  0
 23 24  1  0  0  0  0
 24  8  1  0  0  0  0
 25 42  1  0  0  0  0
 26 27  2  0  0  0  0
 27 25  1  0  0  0  0
 28 29  1  0  0  0  0
 28 27  1  0  0  0  0
 29 32  1  0  0  0  0
 30 29  1  0  0  0  0
 31 30  1  0  0  0  0
 32 33  1  0  0  0  0
 33 34  1  0  0  0  0
 33 35  1  0  0  0  0
 35 36  1  0  0  0  0
 36 41  1  0  0  0  0
 36 40  1  0  0  0  0
 37 39  1  0  0  0  0
 38 39  1  0  0  0  0
 40 38  1  0  0  0  0
 41 37  1  0  0  0  0
 42 43  1  0  0  0  0
M  END
>  <MODEL>
5

>  <REMARK>
 VINA RESULT:      -6.7      2.751      5.357
  Name = 
  11 active torsions:
  status: ('A' for Active; 'I' for Inactive)
    1  A    between atoms: C_2  and  C_6
    2  A    between atoms: C_2  and  O_12
    3  A    between atoms: C_2  and  C_27
    4  A    between atoms: N_4  and  C_7
    5  A    between atoms: N_4  and  C_10
    6  A    between atoms: N_4  and  C_15
    7  A    between atoms: C_6  and  C_7
    8  A    between atoms: C_11  and  C_14
    9  A    between atoms: C_14  and  C_22
   10  A    between atoms: C_15  and  C_22
   11  A    between atoms: C_19  and  C_37
                            x       y       z     vdW  Elec       q    Type
                         _______ _______ _______ _____ _____    ______ ____

>  <TORSDO>
F 11

$$$$
=
 OpenBabel11052416423D

 43 48  0  0  1  0  0  0  0  0999 V2000
  182.8260  178.7200  138.6050 C   0  0  1  0  0  0  0  0  0  0  0  0
  180.5670  172.4520  136.4290 C   0  0  0  0  0  0  0  0  0  0  0  0
  182.2850  176.3420  139.1470 N   0  0  0  0  0  0  0  0  0  0  0  0
  182.1840  181.1230  138.2230 C   0  0  0  0  0  2  0  0  0  0  0  0
  183.9680  176.1150  137.3550 N   0  0  0  0  0  2  0  0  0  0  0  0
  180.8860  174.1320  138.1700 C   0  0  0  0  0  0  0  0  0  0  0  0
  181.6880  172.7890  135.7830 C   0  0  0  0  0  3  0  0  0  0  0  0
  180.7120  181.0260  137.9460 C   0  0  0  0  0  0  0  0  0  0  0  0
  179.7050  171.3800  135.8740 C   0  0  0  0  0  1  0  0  0  0  0  0
  182.1230  174.5880  137.4900 C   0  0  0  0  0  0  0  0  0  0  0  0
  180.1620  173.1340  137.6670 C   0  0  0  0  0  3  0  0  0  0  0  0
  182.6290  173.8570  136.2710 C   0  0  0  0  0  2  0  0  0  0  0  0
  184.8530  177.0320  138.0550 C   0  0  2  0  0  3  0  0  0  0  0  0
  180.6830  178.5280  137.3100 C   0  0  0  0  0  2  0  0  0  0  0  0
  182.7940  175.6340  137.9960 C   0  0  0  0  0  0  0  0  0  0  0  0
  182.6270  180.0880  139.2460 C   0  0  0  0  0  2  0  0  0  0  0  0
  181.1260  175.8610  139.8430 C   0  0  0  0  0  3  0  0  0  0  0  0
  182.8780  177.5930  139.6500 C   0  0  1  0  0  3  0  0  0  0  0  0
  182.2040  178.4570  137.2240 C   0  0  0  0  0  2  0  0  0  0  0  0
  184.1700  178.0830  138.9600 C   0  0  2  0  0  3  0  0  0  0  0  0
  180.0950  179.9080  137.5120 C   0  0  0  0  0  3  0  0  0  0  0  0
  180.4450  174.8080  139.3930 C   0  0  0  0  0  3  0  0  0  0  0  0
  180.6530  183.3840  137.9720 F   0  0  0  0  0  0  0  0  0  0  0  0
  179.8900  182.2500  138.1630 C   0  0  0  0  0  2  0  0  0  0  0  0
  185.9630  177.5770  137.1460 C   0  0  1  0  0  3  0  0  0  0  0  0
  187.6800  179.1120  137.5970 O   0  0  0  0  0  0  0  0  0  0  0  0
  187.1830  178.0370  137.8870 C   0  0  0  0  0  0  0  0  0  0  0  0
  187.8000  177.2020  138.9700 C   0  0  0  0  0  2  0  0  0  0  0  0
  188.8000  177.9660  139.7070 N   0  0  0  0  0  0  0  0  0  0  0  0
  189.9890  177.1370  139.8310 C   0  0  0  0  0  2  0  0  0  0  0  0
  190.2210  176.3750  138.5440 C   0  0  0  0  0  1  0  0  0  0  0  0
  188.3120  178.3500  141.0370 C   0  0  0  0  0  2  0  0  0  0  0  0
  188.7690  177.4330  142.1740 C   0  0  1  0  0  3  0  0  0  0  0  0
  189.5940  178.2470  143.1510 C   0  0  0  0  0  1  0  0  0  0  0  0
  187.5580  176.8410  142.8900 C   0  0  0  0  0  2  0  0  0  0  0  0
  186.7290  177.9130  143.5780 C   0  0  2  0  0  3  0  0  0  0  0  0
  184.6100  179.2520  143.3990 C   0  0  0  0  0  2  0  0  0  0  0  0
  185.6840  178.9020  145.9080 S   0  0  0  0  0  0  0  0  0  0  0  0
  184.2090  178.9340  144.8330 C   0  0  0  0  0  2  0  0  0  0  0  0
  186.4340  177.5070  145.0150 C   0  0  0  0  0  2  0  0  0  0  0  0
  185.4250  178.1080  142.8100 C   0  0  0  0  0  2  0  0  0  0  0  0
  186.2980  176.6690  136.1450 O   0  0  0  0  0  0  0  0  0  0  0  0
  186.2570  177.4030  134.9610 C   0  0  0  0  0  1  0  0  0  0  0  0
  1 19  1  6  0  0  0
  1 20  1  0  0  0  0
  1 16  1  0  0  0  0
  1 18  1  0  0  0  0
  2 11  1  0  0  0  0
  3 17  1  0  0  0  0
  4 16  1  0  0  0  0
  5 15  1  0  0  0  0
  5 13  1  0  0  0  0
  6 22  1  0  0  0  0
  7 12  1  0  0  0  0
  7  2  2  0  0  0  0
  8 24  1  0  0  0  0
  8  4  1  0  0  0  0
  9  2  1  0  0  0  0
 10 15  2  0  0  0  0
 10  6  1  0  0  0  0
 11  6  2  0  0  0  0
 12 10  1  0  0  0  0
 13 25  1  6  0  0  0
 13 20  1  0  0  0  0
 14 21  1  0  0  0  0
 15  3  1  0  0  0  0
 18  3  1  6  0  0  0
 19 14  1  0  0  0  0
 20 18  1  0  0  0  0
 21  8  2  0  0  0  0
 22 17  2  0  0  0  0
 23 24  1  0  0  0  0
 25 27  1  0  0  0  0
 26 27  2  0  0  0  0
 27 28  1  0  0  0  0
 28 29  1  0  0  0  0
 29 30  1  0  0  0  0
 29 32  1  0  0  0  0
 31 30  1  0  0  0  0
 32 33  1  0  0  0  0
 33 35  1  0  0  0  0
 33 34  1  0  0  0  0
 35 36  1  0  0  0  0
 36 40  1  0  0  0  0
 37 39  1  0  0  0  0
 39 38  1  0  0  0  0
 40 38  1  0  0  0  0
 41 37  1  0  0  0  0
 41 36  1  0  0  0  0
 42 25  1  0  0  0  0
 43 42  1  0  0  0  0
M  END
>  <MODEL>
6

>  <REMARK>
 VINA RESULT:      -6.4      2.553      5.338
  Name = 
  11 active torsions:
  status: ('A' for Active; 'I' for Inactive)
    1  A    between atoms: C_2  and  C_6
    2  A    between atoms: C_2  and  O_12
    3  A    between atoms: C_2  and  C_27
    4  A    between atoms: N_4  and  C_7
    5  A    between atoms: N_4  and  C_10
    6  A    between atoms: N_4  and  C_15
    7  A    between atoms: C_6  and  C_7
    8  A    between atoms: C_11  and  C_14
    9  A    between atoms: C_14  and  C_22
   10  A    between atoms: C_15  and  C_22
   11  A    between atoms: C_19  and  C_37
                            x       y       z     vdW  Elec       q    Type
                         _______ _______ _______ _____ _____    ______ ____

>  <TORSDO>
F 11

$$$$
=
 OpenBabel11052416423D

 43 48  0  0  1  0  0  0  0  0999 V2000
  181.4090  179.4240  139.2110 C   0  0  1  0  0  0  0  0  0  0  0  0
  181.4790  173.0020  136.4060 C   0  0  0  0  0  0  0  0  0  0  0  0
  180.5750  177.0700  139.2530 N   0  0  0  0  0  0  0  0  0  0  0  0
  181.3730  181.7900  138.3520 C   0  0  0  0  0  2  0  0  0  0  0  0
  183.0190  176.7780  139.4410 N   0  0  0  0  0  2  0  0  0  0  0  0
  180.3820  174.7820  137.6640 C   0  0  2  0  0  3  0  0  0  0  0  0
  182.6980  173.3250  136.8510 C   0  0  0  0  0  3  0  0  0  0  0  0
  180.6560  181.6480  137.0410 C   0  0  0  0  0  0  0  0  0  0  0  0
  181.3330  171.8840  135.4410 C   0  0  0  0  0  1  0  0  0  0  0  0
  181.7040  175.2240  138.1720 C   0  0  0  0  0  0  0  0  0  0  0  0
  180.2840  173.7440  136.8360 C   0  0  0  0  0  3  0  0  0  0  0  0
  182.9460  174.4360  137.8340 C   0  0  0  0  0  3  0  0  0  0  0  0
  183.0630  177.7490  140.5210 C   0  0  2  0  0  3  0  0  0  0  0  0
  181.0540  179.1190  136.7440 C   0  0  0  0  0  2  0  0  0  0  0  0
  181.7670  176.3090  138.9580 C   0  0  0  0  0  0  0  0  0  0  0  0
  180.8290  180.8220  139.3920 C   0  0  0  0  0  2  0  0  0  0  0  0
  179.2890  176.6050  138.8160 C   0  0  0  0  0  3  0  0  0  0  0  0
  180.5980  178.3580  139.9660 C   0  0  1  0  0  3  0  0  0  0  0  0
  182.0780  179.0730  137.8730 C   0  0  0  0  0  2  0  0  0  0  0  0
  181.9630  178.8340  140.5090 C   0  0  2  0  0  3  0  0  0  0  0  0
  180.5690  180.4960  136.3460 C   0  0  0  0  0  3  0  0  0  0  0  0
  179.1760  175.5160  138.0580 C   0  0  0  0  0  3  0  0  0  0  0  0
  180.3540  183.9810  137.2130 F   0  0  0  0  0  0  0  0  0  0  0  0
  180.0060  182.8660  136.4790 C   0  0  0  0  0  2  0  0  0  0  0  0
  184.4850  178.2650  140.7830 C   0  0  1  0  0  3  0  0  0  0  0  0
  184.9490  179.8450  139.1100 O   0  0  0  0  0  0  0  0  0  0  0  0
  185.1960  178.7330  139.5490 C   0  0  0  0  0  0  0  0  0  0  0  0
  186.1980  177.8650  138.8470 C   0  0  0  0  0  2  0  0  0  0  0  0
  186.9520  178.6340  137.8630 N   0  0  0  0  0  0  0  0  0  0  0  0
  186.6960  178.0510  136.5560 C   0  0  0  0  0  2  0  0  0  0  0  0
  185.6450  176.9680  136.6710 C   0  0  0  0  0  1  0  0  0  0  0  0
  188.3910  178.6150  138.1520 C   0  0  0  0  0  2  0  0  0  0  0  0
  188.8850  177.3450  138.8480 C   0  0  1  0  0  3  0  0  0  0  0  0
  189.4910  176.4260  137.8070 C   0  0  0  0  0  1  0  0  0  0  0  0
  189.9350  177.6960  139.8990 C   0  0  0  0  0  2  0  0  0  0  0  0
  189.6220  177.0630  141.2440 C   0  0  2  0  0  3  0  0  0  0  0  0
  190.6230  176.4320  143.4620 C   0  0  0  0  0  2  0  0  0  0  0  0
  187.9050  176.8470  143.3670 S   0  0  0  0  0  0  0  0  0  0  0  0
  189.4910  177.0920  144.2360 C   0  0  0  0  0  2  0  0  0  0  0  0
  188.4460  177.7730  141.8980 C   0  0  0  0  0  2  0  0  0  0  0  0
  190.8530  177.1540  142.1400 C   0  0  0  0  0  2  0  0  0  0  0  0
  184.5010  179.2460  141.7720 O   0  0  0  0  0  0  0  0  0  0  0  0
  184.4880  178.5460  142.9770 C   0  0  0  0  0  1  0  0  0  0  0  0
  1 19  1  6  0  0  0
  1 16  1  0  0  0  0
  1 18  1  0  0  0  0
  1 20  1  0  0  0  0
  2 11  2  0  0  0  0
  2  7  1  0  0  0  0
  4 16  1  0  0  0  0
  5 13  1  0  0  0  0
  6 11  1  6  0  0  0
  6 22  1  0  0  0  0
  6 10  1  0  0  0  0
  7 12  2  0  0  0  0
  8  4  1  0  0  0  0
  9  2  1  0  0  0  0
 10 15  2  0  0  0  0
 12 10  1  0  0  0  0
 13 25  1  6  0  0  0
 14 19  1  0  0  0  0
 15  3  1  0  0  0  0
 15  5  1  0  0  0  0
 17  3  1  0  0  0  0
 18  3  1  6  0  0  0
 18 20  1  0  0  0  0
 20 13  1  0  0  0  0
 21 14  1  0  0  0  0
 21  8  2  0  0  0  0
 22 17  2  0  0  0  0
 24  8  1  0  0  0  0
 24 23  1  0  0  0  0
 25 42  1  0  0  0  0
 26 27  2  0  0  0  0
 27 25  1  0  0  0  0
 28 27  1  0  0  0  0
 29 32  1  0  0  0  0
 29 28  1  0  0  0  0
 30 31  1  0  0  0  0
 30 29  1  0  0  0  0
 32 33  1  0  0  0  0
 33 35  1  0  0  0  0
 34 33  1  0  0  0  0
 35 36  1  0  0  0  0
 36 40  1  0  0  0  0
 36 41  1  0  0  0  0
 37 39  1  0  0  0  0
 38 39  1  0  0  0  0
 40 38  1  0  0  0  0
 41 37  1  0  0  0  0
 42 43  1  0  0  0  0
M  END
>  <MODEL>
7

>  <REMARK>
 VINA RESULT:      -6.4      2.830      5.625
  Name = 
  11 active torsions:
  status: ('A' for Active; 'I' for Inactive)
    1  A    between atoms: C_2  and  C_6
    2  A    between atoms: C_2  and  O_12
    3  A    between atoms: C_2  and  C_27
    4  A    between atoms: N_4  and  C_7
    5  A    between atoms: N_4  and  C_10
    6  A    between atoms: N_4  and  C_15
    7  A    between atoms: C_6  and  C_7
    8  A    between atoms: C_11  and  C_14
    9  A    between atoms: C_14  and  C_22
   10  A    between atoms: C_15  and  C_22
   11  A    between atoms: C_19  and  C_37
                            x       y       z     vdW  Elec       q    Type
                         _______ _______ _______ _____ _____    ______ ____

>  <TORSDO>
F 11

$$$$
=
 OpenBabel11052416423D

 43 48  0  0  1  0  0  0  0  0999 V2000
  180.8750  179.7620  139.3360 C   0  0  1  0  0  0  0  0  0  0  0  0
  182.1020  173.3800  136.7090 C   0  0  0  0  0  0  0  0  0  0  0  0
  180.2950  177.3320  139.2770 N   0  0  0  0  0  0  0  0  0  0  0  0
  180.7450  182.1100  138.4380 C   0  0  0  0  0  2  0  0  0  0  0  0
  182.6860  177.3000  139.8930 N   0  0  0  0  0  2  0  0  0  0  0  0
  180.6230  175.0360  137.7230 C   0  0  2  0  0  3  0  0  0  0  0  0
  183.1830  173.8310  137.3540 C   0  0  0  0  0  3  0  0  0  0  0  0
  180.2870  181.8920  137.0260 C   0  0  0  0  0  0  0  0  0  0  0  0
  182.2440  172.2530  135.7560 C   0  0  0  0  0  1  0  0  0  0  0  0
  181.7820  175.6150  138.4440 C   0  0  0  0  0  0  0  0  0  0  0  0
  180.7800  173.9930  136.9110 C   0  0  0  0  0  3  0  0  0  0  0  0
  183.1390  174.9630  138.3430 C   0  0  0  0  0  3  0  0  0  0  0  0
  182.4390  178.2720  140.9460 C   0  0  2  0  0  3  0  0  0  0  0  0
  180.9920  179.4190  136.8510 C   0  0  0  0  0  2  0  0  0  0  0  0
  181.5930  176.7020  139.2090 C   0  0  0  0  0  0  0  0  0  0  0  0
  180.1300  181.0900  139.3860 C   0  0  0  0  0  2  0  0  0  0  0  0
  179.1610  176.7340  138.6320 C   0  0  0  0  0  3  0  0  0  0  0  0
  180.0600  178.6160  139.9580 C   0  0  1  0  0  3  0  0  0  0  0  0
  181.8010  179.4820  138.1410 C   0  0  0  0  0  2  0  0  0  0  0  0
  181.2510  179.2350  140.7210 C   0  0  2  0  0  3  0  0  0  0  0  0
  180.4430  180.7360  136.3480 C   0  0  0  0  0  3  0  0  0  0  0  0
  179.2970  175.6380  137.8860 C   0  0  0  0  0  3  0  0  0  0  0  0
  180.5630  183.8520  135.7420 F   0  0  0  0  0  0  0  0  0  0  0  0
  179.6220  183.0340  136.3350 C   0  0  0  0  0  2  0  0  0  0  0  0
  183.7310  178.9350  141.4410 C   0  0  1  0  0  3  0  0  0  0  0  0
  183.0100  178.4780  143.6270 O   0  0  0  0  0  0  0  0  0  0  0  0
  183.9440  178.8200  142.9210 C   0  0  0  0  0  0  0  0  0  0  0  0
  185.2750  179.1170  143.5440 C   0  0  0  0  0  2  0  0  0  0  0  0
  185.9120  177.8930  144.0160 N   0  0  0  0  0  0  0  0  0  0  0  0
  186.6440  178.2140  145.2310 C   0  0  0  0  0  2  0  0  0  0  0  0
  185.6780  178.6180  146.3240 C   0  0  0  0  0  1  0  0  0  0  0  0
  186.8240  177.3380  143.0090 C   0  0  0  0  0  2  0  0  0  0  0  0
  188.3060  177.4100  143.3820 C   0  0  1  0  0  3  0  0  0  0  0  0
  188.8710  176.0020  143.4000 C   0  0  0  0  0  1  0  0  0  0  0  0
  189.0650  178.2550  142.3630 C   0  0  0  0  0  2  0  0  0  0  0  0
  189.1420  177.5730  141.0080 C   0  0  2  0  0  3  0  0  0  0  0  0
  188.3220  177.6950  138.6350 C   0  0  0  0  0  2  0  0  0  0  0  0
  190.6940  176.3780  139.0940 S   0  0  0  0  0  0  0  0  0  0  0  0
  189.7270  177.5410  138.0700 C   0  0  0  0  0  2  0  0  0  0  0  0
  190.5930  177.4310  140.5730 C   0  0  0  0  0  2  0  0  0  0  0  0
  188.3670  178.3980  139.9860 C   0  0  0  0  0  2  0  0  0  0  0  0
  184.8440  178.4780  140.7380 O   0  0  0  0  0  0  0  0  0  0  0  0
  184.9500  179.3240  139.6360 C   0  0  0  0  0  1  0  0  0  0  0  0
  1 19  1  6  0  0  0
  1 16  1  0  0  0  0
  1 18  1  0  0  0  0
  1 20  1  0  0  0  0
  2 11  2  0  0  0  0
  2  7  1  0  0  0  0
  4 16  1  0  0  0  0
  5 13  1  0  0  0  0
  6 11  1  6  0  0  0
  6 22  1  0  0  0  0
  6 10  1  0  0  0  0
  7 12  2  0  0  0  0
  8  4  1  0  0  0  0
  9  2  1  0  0  0  0
 10 15  2  0  0  0  0
 12 10  1  0  0  0  0
 13 25  1  6  0  0  0
 14 19  1  0  0  0  0
 15  3  1  0  0  0  0
 15  5  1  0  0  0  0
 17  3  1  0  0  0  0
 18  3  1  6  0  0  0
 18 20  1  0  0  0  0
 20 13  1  0  0  0  0
 21 14  1  0  0  0  0
 21  8  2  0  0  0  0
 22 17  2  0  0  0  0
 23 24  1  0  0  0  0
 24  8  1  0  0  0  0
 25 27  1  0  0  0  0
 27 28  1  0  0  0  0
 27 26  2  0  0  0  0
 28 29  1  0  0  0  0
 29 30  1  0  0  0  0
 30 31  1  0  0  0  0
 32 33  1  0  0  0  0
 32 29  1  0  0  0  0
 33 34  1  0  0  0  0
 35 33  1  0  0  0  0
 36 35  1  0  0  0  0
 37 41  1  0  0  0  0
 38 40  1  0  0  0  0
 39 37  1  0  0  0  0
 39 38  1  0  0  0  0
 40 36  1  0  0  0  0
 41 36  1  0  0  0  0
 42 25  1  0  0  0  0
 43 42  1  0  0  0  0
M  END
>  <MODEL>
8

>  <REMARK>
 VINA RESULT:      -6.2      3.184      6.306
  Name = 
  11 active torsions:
  status: ('A' for Active; 'I' for Inactive)
    1  A    between atoms: C_2  and  C_6
    2  A    between atoms: C_2  and  O_12
    3  A    between atoms: C_2  and  C_27
    4  A    between atoms: N_4  and  C_7
    5  A    between atoms: N_4  and  C_10
    6  A    between atoms: N_4  and  C_15
    7  A    between atoms: C_6  and  C_7
    8  A    between atoms: C_11  and  C_14
    9  A    between atoms: C_14  and  C_22
   10  A    between atoms: C_15  and  C_22
   11  A    between atoms: C_19  and  C_37
                            x       y       z     vdW  Elec       q    Type
                         _______ _______ _______ _____ _____    ______ ____

>  <TORSDO>
F 11

$$$$
=
 OpenBabel11052416423D

 43 48  0  0  1  0  0  0  0  0999 V2000
  187.1760  175.7390  135.9910 C   0  0  1  0  0  0  0  0  0  0  0  0
  181.3130  178.0050  139.0910 C   0  0  0  0  0  0  0  0  0  0  0  0
  185.2090  177.2780  135.9660 N   0  0  0  0  0  0  0  0  0  0  0  0
  188.2740  173.5140  135.5700 C   0  0  0  0  0  2  0  0  0  0  0  0
  186.2980  177.8330  138.1110 N   0  0  0  0  0  2  0  0  0  0  0  0
  182.6860  177.6330  137.1080 C   0  0  2  0  0  3  0  0  0  0  0  0
  182.3690  178.2240  139.8820 C   0  0  0  0  0  3  0  0  0  0  0  0
  187.1000  172.5810  135.4940 C   0  0  0  0  0  0  0  0  0  0  0  0
  179.9500  178.0350  139.6760 C   0  0  0  0  0  1  0  0  0  0  0  0
  183.9060  177.8270  137.9290 C   0  0  0  0  0  0  0  0  0  0  0  0
  181.4770  177.7150  137.6590 C   0  0  0  0  0  3  0  0  0  0  0  0
  183.7870  178.2210  139.3810 C   0  0  0  0  0  3  0  0  0  0  0  0
  187.5780  177.9770  137.4370 C   0  0  2  0  0  3  0  0  0  0  0  0
  185.4210  174.1010  136.7260 C   0  0  0  0  0  2  0  0  0  0  0  0
  185.1080  177.6800  137.3500 C   0  0  0  0  0  0  0  0  0  0  0  0
  187.9390  174.8790  134.9900 C   0  0  0  0  0  2  0  0  0  0  0  0
  184.0300  177.1550  135.1570 C   0  0  0  0  0  3  0  0  0  0  0  0
  186.4870  176.9380  135.3190 C   0  0  1  0  0  3  0  0  0  0  0  0
  186.5150  175.0520  137.1970 C   0  0  0  0  0  2  0  0  0  0  0  0
  187.7710  177.1390  136.1520 C   0  0  2  0  0  3  0  0  0  0  0  0
  185.8930  172.8380  136.0380 C   0  0  0  0  0  3  0  0  0  0  0  0
  182.8180  177.3200  135.6830 C   0  0  0  0  0  3  0  0  0  0  0  0
  188.5360  170.7620  135.0560 F   0  0  0  0  0  0  0  0  0  0  0  0
  187.2930  171.2910  134.7730 C   0  0  0  0  0  2  0  0  0  0  0  0
  188.7590  177.9490  138.4170 C   0  0  1  0  0  3  0  0  0  0  0  0
  187.5370  178.9290  140.1650 O   0  0  0  0  0  0  0  0  0  0  0  0
  188.3560  178.0800  139.8550 C   0  0  0  0  0  0  0  0  0  0  0  0
  188.9410  177.1930  140.9140 C   0  0  0  0  0  2  0  0  0  0  0  0
  189.9000  177.9260  141.7330 N   0  0  0  0  0  0  0  0  0  0  0  0
  191.1820  177.2470  141.6280 C   0  0  0  0  0  2  0  0  0  0  0  0
  191.7960  177.0920  143.0030 C   0  0  0  0  0  1  0  0  0  0  0  0
  189.4740  177.9860  143.1370 C   0  0  0  0  0  2  0  0  0  0  0  0
  188.2790  177.0940  143.4790 C   0  0  1  0  0  3  0  0  0  0  0  0
  188.7600  175.6610  143.5930 C   0  0  0  0  0  1  0  0  0  0  0  0
  187.6570  177.5340  144.8020 C   0  0  0  0  0  2  0  0  0  0  0  0
  186.1560  177.7390  144.6800 C   0  0  2  0  0  3  0  0  0  0  0  0
  184.1400  178.6640  145.8630 C   0  0  0  0  0  2  0  0  0  0  0  0
  184.0330  178.4850  143.1190 S   0  0  0  0  0  0  0  0  0  0  0  0
  183.6950  179.4450  144.6350 C   0  0  0  0  0  2  0  0  0  0  0  0
  185.8310  178.4850  143.3940 C   0  0  0  0  0  2  0  0  0  0  0  0
  185.6580  178.5300  145.8850 C   0  0  0  0  0  2  0  0  0  0  0  0
  189.5620  176.8270  138.2220 O   0  0  0  0  0  0  0  0  0  0  0  0
  190.8610  177.3220  138.1310 C   0  0  0  0  0  1  0  0  0  0  0  0
  1 16  1  6  0  0  0
  1 20  1  0  0  0  0
  1 19  1  0  0  0  0
  2  9  1  0  0  0  0
  2  7  1  0  0  0  0
  3 15  1  0  0  0  0
  6 22  1  1  0  0  0
  6 11  1  0  0  0  0
  6 10  1  0  0  0  0
  8  4  1  0  0  0  0
  8 21  2  0  0  0  0
 10 12  1  0  0  0  0
 11  2  2  0  0  0  0
 12  7  2  0  0  0  0
 13  5  1  0  0  0  0
 13 25  1  1  0  0  0
 14 19  1  0  0  0  0
 15 10  2  0  0  0  0
 15  5  1  0  0  0  0
 16  4  1  0  0  0  0
 17 22  2  0  0  0  0
 17  3  1  0  0  0  0
 18  3  1  1  0  0  0
 18  1  1  0  0  0  0
 18 20  1  0  0  0  0
 20 13  1  0  0  0  0
 21 14  1  0  0  0  0
 24 23  1  0  0  0  0
 24  8  1  0  0  0  0
 25 27  1  0  0  0  0
 27 26  2  0  0  0  0
 27 28  1  0  0  0  0
 28 29  1  0  0  0  0
 29 32  1  0  0  0  0
 30 29  1  0  0  0  0
 30 31  1  0  0  0  0
 32 33  1  0  0  0  0
 33 34  1  0  0  0  0
 33 35  1  0  0  0  0
 36 35  1  0  0  0  0
 36 41  1  0  0  0  0
 37 41  1  0  0  0  0
 38 40  1  0  0  0  0
 38 39  1  0  0  0  0
 39 37  1  0  0  0  0
 40 36  1  0  0  0  0
 42 25  1  0  0  0  0
 43 42  1  0  0  0  0
M  END
>  <MODEL>
9

>  <REMARK>
 VINA RESULT:      -5.9      2.842      5.358
  Name = 
  11 active torsions:
  status: ('A' for Active; 'I' for Inactive)
    1  A    between atoms: C_2  and  C_6
    2  A    between atoms: C_2  and  O_12
    3  A    between atoms: C_2  and  C_27
    4  A    between atoms: N_4  and  C_7
    5  A    between atoms: N_4  and  C_10
    6  A    between atoms: N_4  and  C_15
    7  A    between atoms: C_6  and  C_7
    8  A    between atoms: C_11  and  C_14
    9  A    between atoms: C_14  and  C_22
   10  A    between atoms: C_15  and  C_22
   11  A    between atoms: C_19  and  C_37
                            x       y       z     vdW  Elec       q    Type
                         _______ _______ _______ _____ _____    ______ ____

>  <TORSDO>
F 11

$$$$
