=
 OpenBabel11052413073D

 31 35  0  0  1  0  0  0  0  0999 V2000
  185.7320  178.2220  144.6520 C   0  0  0  0  0  0  0  0  0  0  0  0
  189.4420  177.5740  143.8910 C   0  0  2  0  0  3  0  0  0  0  0  0
  190.0200  177.2170  145.2510 C   0  0  0  0  0  0  0  0  0  0  0  0
  188.8490  177.6470  138.6800 O   0  0  0  0  0  0  0  0  0  0  0  0
  189.9270  177.0480  138.9400 C   0  0  0  0  0  0  0  0  0  0  0  0
  190.1770  177.5920  147.6500 C   0  0  0  0  0  0  0  0  0  0  0  0
  187.9380  177.7270  143.7620 C   0  0  0  0  0  0  0  0  0  0  0  0
  185.2040  178.2220  143.3590 C   0  0  0  0  0  3  0  0  0  0  0  0
  189.5680  177.8480  146.4200 C   0  0  0  0  0  3  0  0  0  0  0  0
  189.4540  177.0070  141.4550 C   0  0  0  0  0  0  0  0  0  0  0  0
  184.9250  178.4640  145.7130 F   0  0  0  0  0  0  0  0  0  0  0  0
  191.7190  175.7270  144.0910 C   0  0  0  0  0  2  0  0  0  0  0  0
  189.6990  178.2040  148.8000 O   0  0  0  0  0  1  0  0  0  0  0  0
  188.2440  177.4750  141.3260 N   0  0  0  0  0  0  0  0  0  0  0  0
  189.9420  176.5940  142.8190 C   0  0  1  0  0  3  0  0  0  0  0  0
  190.2610  176.7330  140.3010 N   0  0  0  0  0  2  0  0  0  0  0  0
  187.0950  177.9890  144.8520 C   0  0  0  0  0  3  0  0  0  0  0  0
  191.2690  176.7260  147.7220 C   0  0  0  0  0  3  0  0  0  0  0  0
  187.3970  177.7310  142.4580 C   0  0  0  0  0  0  0  0  0  0  0  0
  186.0360  177.9800  142.2630 C   0  0  0  0  0  3  0  0  0  0  0  0
  191.3950  176.4900  142.8860 N   0  0  0  0  0  2  0  0  0  0  0  0
  191.1640  176.3880  145.3250 C   0  0  0  0  0  0  0  0  0  0  0  0
  191.7620  176.1270  146.5610 C   0  0  0  0  0  3  0  0  0  0  0  0
  192.7590  175.9660  135.8890 C   0  0  0  0  0  0  0  0  0  0  0  0
  192.2390  176.6520  138.1450 C   0  0  0  0  0  3  0  0  0  0  0  0
  189.0150  176.3020  136.1230 C   0  0  0  0  0  1  0  0  0  0  0  0
  193.6920  175.6200  134.9220 O   0  0  0  0  0  1  0  0  0  0  0  0
  193.1800  176.3040  137.1740 C   0  0  0  0  0  3  0  0  0  0  0  0
  190.4480  176.3200  136.5410 C   0  0  0  0  0  0  0  0  0  0  0  0
  190.8650  176.6670  137.8530 C   0  0  0  0  0  0  0  0  0  0  0  0
  191.3990  175.9740  135.5760 C   0  0  0  0  0  3  0  0  0  0  0  0
  1 17  1  0  0  0  0
  1 11  1  0  0  0  0
  2  7  1  1  0  0  0
  2  3  1  0  0  0  0
  3 22  2  0  0  0  0
  3  9  1  0  0  0  0
  4  5  2  0  0  0  0
  5 16  1  0  0  0  0
  6 18  1  0  0  0  0
  6 13  1  0  0  0  0
  7 17  2  0  0  0  0
  8  1  2  0  0  0  0
  9  6  2  0  0  0  0
 12 22  1  0  0  0  0
 14 10  2  0  0  0  0
 14 19  1  0  0  0  0
 15 10  1  6  0  0  0
 15 21  1  0  0  0  0
 15  2  1  0  0  0  0
 16 10  1  0  0  0  0
 19  7  1  0  0  0  0
 20 19  2  0  0  0  0
 20  8  1  0  0  0  0
 21 12  1  0  0  0  0
 22 23  1  0  0  0  0
 23 18  2  0  0  0  0
 24 28  1  0  0  0  0
 26 29  1  0  0  0  0
 27 24  1  0  0  0  0
 28 25  2  0  0  0  0
 29 30  2  0  0  0  0
 30 25  1  0  0  0  0
 30  5  1  0  0  0  0
 31 24  2  0  0  0  0
 31 29  1  0  0  0  0
M  END
>  <MODEL>
1

>  <REMARK>
 VINA RESULT:     -11.0      0.000      0.000
  Name = 
  1 active torsions:
  status: ('A' for Active; 'I' for Inactive)
    1  A    between atoms: C_9  and  C_22
                            x       y       z     vdW  Elec       q    Type
                         _______ _______ _______ _____ _____    ______ ____

>  <TORSDO>
F 1

$$$$
=
 OpenBabel11052413073D

 31 35  0  0  1  0  0  0  0  0999 V2000
  185.1730  178.4570  145.6410 C   0  0  0  0  0  0  0  0  0  0  0  0
  188.7060  177.9020  144.2350 C   0  0  2  0  0  3  0  0  0  0  0  0
  189.5040  177.4740  145.4560 C   0  0  0  0  0  0  0  0  0  0  0  0
  187.2500  178.2640  139.2090 O   0  0  0  0  0  0  0  0  0  0  0  0
  188.3580  177.6650  139.2510 C   0  0  0  0  0  0  0  0  0  0  0  0
  190.0600  177.7140  147.8140 C   0  0  0  0  0  0  0  0  0  0  0  0
  187.2010  178.0420  144.3680 C   0  0  0  0  0  0  0  0  0  0  0  0
  184.4360  178.5240  144.4570 C   0  0  0  0  0  3  0  0  0  0  0  0
  189.2520  178.0320  146.7190 C   0  0  0  0  0  3  0  0  0  0  0  0
  188.3120  177.4740  141.8020 C   0  0  0  0  0  0  0  0  0  0  0  0
  184.5550  178.6270  146.8340 F   0  0  0  0  0  0  0  0  0  0  0  0
  190.9900  176.0760  143.9450 C   0  0  0  0  0  2  0  0  0  0  0  0
  189.7790  178.2530  149.0610 O   0  0  0  0  0  1  0  0  0  0  0  0
  187.0960  177.9330  141.9050 N   0  0  0  0  0  0  0  0  0  0  0  0
  189.0220  176.9910  143.0390 C   0  0  1  0  0  3  0  0  0  0  0  0
  188.9160  177.2770  140.5160 N   0  0  0  0  0  2  0  0  0  0  0  0
  186.5510  178.2310  145.5970 C   0  0  0  0  0  3  0  0  0  0  0  0
  191.1510  176.8590  147.6520 C   0  0  0  0  0  3  0  0  0  0  0  0
  186.4500  178.1140  143.1750 C   0  0  0  0  0  0  0  0  0  0  0  0
  185.0740  178.3560  143.2250 C   0  0  0  0  0  3  0  0  0  0  0  0
  190.4670  176.9020  142.8560 N   0  0  0  0  0  2  0  0  0  0  0  0
  190.6470  176.6570  145.2900 C   0  0  0  0  0  0  0  0  0  0  0  0
  191.4450  176.3340  146.3920 C   0  0  0  0  0  3  0  0  0  0  0  0
  190.6150  176.7030  135.7180 C   0  0  0  0  0  0  0  0  0  0  0  0
  190.2730  176.5900  138.1060 C   0  0  0  0  0  3  0  0  0  0  0  0
  187.4680  178.6210  136.4910 C   0  0  0  0  0  1  0  0  0  0  0  0
  191.3600  176.3790  134.5940 O   0  0  0  0  0  1  0  0  0  0  0  0
  191.0240  176.2630  136.9760 C   0  0  0  0  0  3  0  0  0  0  0  0
  188.6940  177.8010  136.7160 C   0  0  0  0  0  0  0  0  0  0  0  0
  189.1020  177.3590  138.0020 C   0  0  0  0  0  0  0  0  0  0  0  0
  189.4550  177.4670  135.5900 C   0  0  0  0  0  3  0  0  0  0  0  0
  1 11  1  0  0  0  0
  2  7  1  1  0  0  0
  2  3  1  0  0  0  0
  3  9  1  0  0  0  0
  4  5  2  0  0  0  0
  5 16  1  0  0  0  0
  6 13  1  0  0  0  0
  7 17  2  0  0  0  0
  8  1  2  0  0  0  0
  9  6  2  0  0  0  0
 10 14  2  0  0  0  0
 12 22  1  0  0  0  0
 14 19  1  0  0  0  0
 15 10  1  6  0  0  0
 15  2  1  0  0  0  0
 16 10  1  0  0  0  0
 17  1  1  0  0  0  0
 18  6  1  0  0  0  0
 19 20  2  0  0  0  0
 19  7  1  0  0  0  0
 20  8  1  0  0  0  0
 21 15  1  0  0  0  0
 21 12  1  0  0  0  0
 22  3  2  0  0  0  0
 22 23  1  0  0  0  0
 23 18  2  0  0  0  0
 24 28  1  0  0  0  0
 26 29  1  0  0  0  0
 27 24  1  0  0  0  0
 28 25  2  0  0  0  0
 29 30  2  0  0  0  0
 30 25  1  0  0  0  0
 30  5  1  0  0  0  0
 31 24  2  0  0  0  0
 31 29  1  0  0  0  0
M  END
>  <MODEL>
2

>  <REMARK>
 VINA RESULT:     -11.0      1.193      1.496
  Name = 
  1 active torsions:
  status: ('A' for Active; 'I' for Inactive)
    1  A    between atoms: C_9  and  C_22
                            x       y       z     vdW  Elec       q    Type
                         _______ _______ _______ _____ _____    ______ ____

>  <TORSDO>
F 1

$$$$
=
 OpenBabel11052413073D

 31 35  0  0  1  0  0  0  0  0999 V2000
  191.5250  177.3090  141.2260 C   0  0  0  0  0  0  0  0  0  0  0  0
  188.8230  177.0650  143.9480 C   0  0  2  0  0  3  0  0  0  0  0  0
  189.6290  177.0130  145.2350 C   0  0  0  0  0  0  0  0  0  0  0  0
  184.8260  178.0630  140.7010 O   0  0  0  0  0  0  0  0  0  0  0  0
  184.4390  178.2980  141.8770 C   0  0  0  0  0  0  0  0  0  0  0  0
  191.5360  176.1970  146.5090 C   0  0  0  0  0  0  0  0  0  0  0  0
  189.5540  177.3440  142.6480 C   0  0  0  0  0  0  0  0  0  0  0  0
  190.7450  177.6750  140.1270 C   0  0  0  0  0  3  0  0  0  0  0  0
  190.8540  176.3310  145.2970 C   0  0  0  0  0  3  0  0  0  0  0  0
  186.7910  178.0250  142.8490 C   0  0  0  0  0  0  0  0  0  0  0  0
  192.8560  177.1100  141.0760 F   0  0  0  0  0  0  0  0  0  0  0  0
  187.7130  178.1730  146.4330 C   0  0  0  0  0  2  0  0  0  0  0  0
  192.7590  175.5440  146.5470 O   0  0  0  0  0  1  0  0  0  0  0  0
  187.3600  177.9260  141.6800 N   0  0  0  0  0  0  0  0  0  0  0  0
  187.6500  178.0480  144.0860 C   0  0  1  0  0  3  0  0  0  0  0  0
  185.3820  178.2700  142.9600 N   0  0  0  0  0  2  0  0  0  0  0  0
  190.9300  177.1300  142.4780 C   0  0  0  0  0  3  0  0  0  0  0  0
  190.9840  176.7140  147.6820 C   0  0  0  0  0  3  0  0  0  0  0  0
  188.7730  177.7120  141.5310 C   0  0  0  0  0  0  0  0  0  0  0  0
  189.3700  177.8730  140.2780 C   0  0  0  0  0  3  0  0  0  0  0  0
  186.8960  177.7470  145.2970 N   0  0  0  0  0  2  0  0  0  0  0  0
  189.0500  177.4800  146.4390 C   0  0  0  0  0  0  0  0  0  0  0  0
  189.7420  177.3520  147.6470 C   0  0  0  0  0  3  0  0  0  0  0  0
  180.2770  179.1510  142.5520 C   0  0  0  0  0  0  0  0  0  0  0  0
  182.1080  178.5720  141.0870 C   0  0  0  0  0  3  0  0  0  0  0  0
  183.3890  178.9670  144.6650 C   0  0  0  0  0  1  0  0  0  0  0  0
  178.9310  179.4220  142.7430 O   0  0  0  0  0  1  0  0  0  0  0  0
  180.7520  178.8440  141.2770 C   0  0  0  0  0  3  0  0  0  0  0  0
  182.5180  178.9120  143.4550 C   0  0  0  0  0  0  0  0  0  0  0  0
  183.0120  178.5990  142.1610 C   0  0  0  0  0  0  0  0  0  0  0  0
  181.1570  179.1840  143.6340 C   0  0  0  0  0  3  0  0  0  0  0  0
  1 17  1  0  0  0  0
  2  7  1  6  0  0  0
  2 15  1  0  0  0  0
  2  3  1  0  0  0  0
  3  9  2  0  0  0  0
  3 22  1  0  0  0  0
  4  5  2  0  0  0  0
  5 30  1  0  0  0  0
  5 16  1  0  0  0  0
  6 13  1  0  0  0  0
  6 18  2  0  0  0  0
  8 20  1  0  0  0  0
  8  1  2  0  0  0  0
  9  6  1  0  0  0  0
 10 16  1  0  0  0  0
 11  1  1  0  0  0  0
 12 22  1  0  0  0  0
 14 10  2  0  0  0  0
 15 10  1  6  0  0  0
 15 21  1  0  0  0  0
 17  7  2  0  0  0  0
 19 14  1  0  0  0  0
 19  7  1  0  0  0  0
 20 19  2  0  0  0  0
 21 12  1  0  0  0  0
 22 23  2  0  0  0  0
 23 18  1  0  0  0  0
 24 27  1  0  0  0  0
 24 31  1  0  0  0  0
 25 28  1  0  0  0  0
 25 30  2  0  0  0  0
 28 24  2  0  0  0  0
 29 31  2  0  0  0  0
 29 26  1  0  0  0  0
 30 29  1  0  0  0  0
M  END
>  <MODEL>
3

>  <REMARK>
 VINA RESULT:     -10.5      3.638      7.454
  Name = 
  1 active torsions:
  status: ('A' for Active; 'I' for Inactive)
    1  A    between atoms: C_9  and  C_22
                            x       y       z     vdW  Elec       q    Type
                         _______ _______ _______ _____ _____    ______ ____

>  <TORSDO>
F 1

$$$$
=
 OpenBabel11052413073D

 31 35  0  0  1  0  0  0  0  0999 V2000
  187.3410  177.9190  136.2260 C   0  0  0  0  0  0  0  0  0  0  0  0
  189.7070  176.8730  139.0680 C   0  0  2  0  0  3  0  0  0  0  0  0
  191.0500  176.7330  138.3700 C   0  0  0  0  0  0  0  0  0  0  0  0
  186.2420  177.7970  142.8960 O   0  0  0  0  0  0  0  0  0  0  0  0
  187.3940  177.7870  143.4080 C   0  0  0  0  0  0  0  0  0  0  0  0
  192.3830  176.0030  136.4690 C   0  0  0  0  0  0  0  0  0  0  0  0
  188.5430  177.4530  138.2860 C   0  0  0  0  0  0  0  0  0  0  0  0
  186.2310  178.3400  136.9620 C   0  0  0  0  0  3  0  0  0  0  0  0
  191.1390  176.2290  137.0630 C   0  0  0  0  0  3  0  0  0  0  0  0
  188.5530  177.6990  141.1290 C   0  0  0  0  0  0  0  0  0  0  0  0
  187.3020  177.9350  134.8720 F   0  0  0  0  0  0  0  0  0  0  0  0
  192.1980  177.4100  140.5320 C   0  0  0  0  0  2  0  0  0  0  0  0
  192.4530  175.5310  135.1670 O   0  0  0  0  0  1  0  0  0  0  0  0
  187.4470  177.8660  140.4590 N   0  0  0  0  0  0  0  0  0  0  0  0
  189.8630  177.6480  140.3860 C   0  0  1  0  0  3  0  0  0  0  0  0
  188.5530  177.7230  142.5630 N   0  0  0  0  0  2  0  0  0  0  0  0
  188.4870  177.4640  136.8850 C   0  0  0  0  0  3  0  0  0  0  0  0
  193.5550  176.2470  137.1870 C   0  0  0  0  0  3  0  0  0  0  0  0
  187.4160  177.8780  139.0230 C   0  0  0  0  0  0  0  0  0  0  0  0
  186.2670  178.3170  138.3580 C   0  0  0  0  0  3  0  0  0  0  0  0
  190.9340  177.0570  141.1800 N   0  0  0  0  0  2  0  0  0  0  0  0
  192.2420  176.9200  139.1100 C   0  0  0  0  0  0  0  0  0  0  0  0
  193.4840  176.7020  138.5060 C   0  0  0  0  0  3  0  0  0  0  0  0
  188.0440  177.8780  147.6590 C   0  0  0  0  0  0  0  0  0  0  0  0
  188.8170  177.4630  145.4090 C   0  0  0  0  0  3  0  0  0  0  0  0
  185.1870  178.6530  145.3320 C   0  0  0  0  0  1  0  0  0  0  0  0
  188.2790  177.9000  149.0260 O   0  0  0  0  0  1  0  0  0  0  0  0
  189.0560  177.4840  146.7840 C   0  0  0  0  0  3  0  0  0  0  0  0
  186.5470  178.2360  145.7830 C   0  0  0  0  0  0  0  0  0  0  0  0
  187.5690  177.8360  144.8830 C   0  0  0  0  0  0  0  0  0  0  0  0
  186.7970  178.2530  147.1590 C   0  0  0  0  0  3  0  0  0  0  0  0
  1 17  2  0  0  0  0
  1  8  1  0  0  0  0
  2  7  1  6  0  0  0
  2 15  1  0  0  0  0
  3  2  1  0  0  0  0
  3 22  1  0  0  0  0
  4  5  2  0  0  0  0
  5 30  1  0  0  0  0
  6  9  1  0  0  0  0
  6 18  2  0  0  0  0
  7 19  2  0  0  0  0
  8 20  2  0  0  0  0
  9  3  2  0  0  0  0
 10 16  1  0  0  0  0
 11  1  1  0  0  0  0
 12 21  1  0  0  0  0
 13  6  1  0  0  0  0
 14 10  2  0  0  0  0
 15 10  1  1  0  0  0
 15 21  1  0  0  0  0
 16  5  1  0  0  0  0
 17  7  1  0  0  0  0
 18 23  1  0  0  0  0
 19 14  1  0  0  0  0
 20 19  1  0  0  0  0
 22 12  1  0  0  0  0
 23 22  2  0  0  0  0
 24 27  1  0  0  0  0
 25 28  1  0  0  0  0
 26 29  1  0  0  0  0
 28 24  2  0  0  0  0
 29 31  2  0  0  0  0
 30 25  2  0  0  0  0
 30 29  1  0  0  0  0
 31 24  1  0  0  0  0
M  END
>  <MODEL>
4

>  <REMARK>
 VINA RESULT:     -10.2      2.721      8.386
  Name = 
  1 active torsions:
  status: ('A' for Active; 'I' for Inactive)
    1  A    between atoms: C_9  and  C_22
                            x       y       z     vdW  Elec       q    Type
                         _______ _______ _______ _____ _____    ______ ____

>  <TORSDO>
F 1

$$$$
=
 OpenBabel11052413073D

 31 35  0  0  1  0  0  0  0  0999 V2000
  186.5550  178.2480  147.3640 C   0  0  0  0  0  0  0  0  0  0  0  0
  189.1700  177.5850  144.6270 C   0  0  2  0  0  3  0  0  0  0  0  0
  190.2680  176.8400  145.3680 C   0  0  0  0  0  0  0  0  0  0  0  0
  186.0690  179.0860  140.6720 O   0  0  0  0  0  0  0  0  0  0  0  0
  186.9890  178.3700  140.1940 C   0  0  0  0  0  0  0  0  0  0  0  0
  191.6800  176.5500  147.3290 C   0  0  0  0  0  0  0  0  0  0  0  0
  187.8690  177.8650  145.3560 C   0  0  0  0  0  0  0  0  0  0  0  0
  185.4620  178.6280  146.5830 C   0  0  0  0  0  3  0  0  0  0  0  0
  190.5990  177.1650  146.6920 C   0  0  0  0  0  3  0  0  0  0  0  0
  187.8450  177.6890  142.5080 C   0  0  0  0  0  0  0  0  0  0  0  0
  186.4560  178.2510  148.7150 F   0  0  0  0  0  0  0  0  0  0  0  0
  190.8240  175.6060  143.2180 C   0  0  0  0  0  2  0  0  0  0  0  0
  191.9760  176.8620  148.6480 O   0  0  0  0  0  1  0  0  0  0  0  0
  186.8540  178.2540  143.1400 N   0  0  0  0  0  0  0  0  0  0  0  0
  188.8590  176.8960  143.2900 C   0  0  1  0  0  3  0  0  0  0  0  0
  187.8910  177.6810  141.0740 N   0  0  0  0  0  2  0  0  0  0  0  0
  187.7580  177.8820  146.7540 C   0  0  0  0  0  3  0  0  0  0  0  0
  192.4650  175.6260  146.6370 C   0  0  0  0  0  3  0  0  0  0  0  0
  186.7600  178.2540  144.5740 C   0  0  0  0  0  0  0  0  0  0  0  0
  185.5640  178.6340  145.1900 C   0  0  0  0  0  3  0  0  0  0  0  0
  190.0960  176.6830  142.5460 N   0  0  0  0  0  2  0  0  0  0  0  0
  191.1060  175.9480  144.6570 C   0  0  0  0  0  0  0  0  0  0  0  0
  192.1790  175.3280  145.3030 C   0  0  0  0  0  3  0  0  0  0  0  0
  187.6260  177.9960  135.9570 C   0  0  0  0  0  0  0  0  0  0  0  0
  188.4540  178.3510  138.1980 C   0  0  0  0  0  3  0  0  0  0  0  0
  184.6680  177.8450  138.2820 C   0  0  0  0  0  1  0  0  0  0  0  0
  187.8580  177.8780  134.5940 O   0  0  0  0  0  1  0  0  0  0  0  0
  188.6900  178.2340  136.8270 C   0  0  0  0  0  3  0  0  0  0  0  0
  186.0830  177.9900  137.8300 C   0  0  0  0  0  0  0  0  0  0  0  0
  187.1580  178.2320  138.7250 C   0  0  0  0  0  0  0  0  0  0  0  0
  186.3300  177.8740  136.4580 C   0  0  0  0  0  3  0  0  0  0  0  0
  1 11  1  0  0  0  0
  2  7  1  1  0  0  0
  2  3  1  0  0  0  0
  3  9  1  0  0  0  0
  5  4  2  0  0  0  0
  5 16  1  0  0  0  0
  6 13  1  0  0  0  0
  7 17  2  0  0  0  0
  8  1  2  0  0  0  0
  9  6  2  0  0  0  0
 10 14  2  0  0  0  0
 12 22  1  0  0  0  0
 14 19  1  0  0  0  0
 15 10  1  6  0  0  0
 15  2  1  0  0  0  0
 16 10  1  0  0  0  0
 17  1  1  0  0  0  0
 18  6  1  0  0  0  0
 19 20  2  0  0  0  0
 19  7  1  0  0  0  0
 20  8  1  0  0  0  0
 21 12  1  0  0  0  0
 21 15  1  0  0  0  0
 22 23  1  0  0  0  0
 22  3  2  0  0  0  0
 23 18  2  0  0  0  0
 24 31  2  0  0  0  0
 24 28  1  0  0  0  0
 25 30  1  0  0  0  0
 27 24  1  0  0  0  0
 28 25  2  0  0  0  0
 29 26  1  0  0  0  0
 29 30  2  0  0  0  0
 30  5  1  0  0  0  0
 31 29  1  0  0  0  0
M  END
>  <MODEL>
5

>  <REMARK>
 VINA RESULT:     -10.0      2.545      3.243
  Name = 
  1 active torsions:
  status: ('A' for Active; 'I' for Inactive)
    1  A    between atoms: C_9  and  C_22
                            x       y       z     vdW  Elec       q    Type
                         _______ _______ _______ _____ _____    ______ ____

>  <TORSDO>
F 1

$$$$
=
 OpenBabel11052413073D

 31 35  0  0  1  0  0  0  0  0999 V2000
  184.3490  178.7270  145.3550 C   0  0  0  0  0  0  0  0  0  0  0  0
  184.9070  178.1920  141.5910 C   0  0  2  0  0  3  0  0  0  0  0  0
  183.6440  178.7630  140.9670 C   0  0  0  0  0  0  0  0  0  0  0  0
  189.9420  176.8050  142.0780 O   0  0  0  0  0  0  0  0  0  0  0  0
  189.7520  177.1660  140.8860 C   0  0  0  0  0  0  0  0  0  0  0  0
  181.2270  179.0510  140.9630 C   0  0  0  0  0  0  0  0  0  0  0  0
  185.1300  178.3880  143.0790 C   0  0  0  0  0  0  0  0  0  0  0  0
  185.6390  178.4950  145.8390 C   0  0  0  0  0  3  0  0  0  0  0  0
  182.3960  178.6190  141.5930 C   0  0  0  0  0  3  0  0  0  0  0  0
  187.3950  178.0300  141.3810 C   0  0  0  0  0  0  0  0  0  0  0  0
  183.3420  179.0020  146.2190 F   0  0  0  0  0  0  0  0  0  0  0  0
  184.9950  179.3950  138.9120 C   0  0  0  0  0  2  0  0  0  0  0  0
  180.0060  178.9270  141.6080 O   0  0  0  0  0  1  0  0  0  0  0  0
  187.5060  177.8600  142.6690 N   0  0  0  0  0  0  0  0  0  0  0  0
  186.1500  178.6750  140.8290 C   0  0  1  0  0  3  0  0  0  0  0  0
  188.4990  177.7580  140.5080 N   0  0  0  0  0  2  0  0  0  0  0  0
  184.0930  178.6610  143.9840 C   0  0  0  0  0  3  0  0  0  0  0  0
  181.2880  179.6030  139.6820 C   0  0  0  0  0  3  0  0  0  0  0  0
  186.4300  178.1510  143.5760 C   0  0  0  0  0  0  0  0  0  0  0  0
  186.6770  178.2040  144.9510 C   0  0  0  0  0  3  0  0  0  0  0  0
  185.9790  178.4300  139.4020 N   0  0  0  0  0  2  0  0  0  0  0  0
  183.6870  179.2680  139.6460 C   0  0  0  0  0  0  0  0  0  0  0  0
  182.5150  179.7090  139.0250 C   0  0  0  0  0  3  0  0  0  0  0  0
  192.9160  176.6790  138.0130 C   0  0  0  0  0  0  0  0  0  0  0  0
  192.1340  177.2770  140.2190 C   0  0  0  0  0  3  0  0  0  0  0  0
  189.1840  176.1790  138.0530 C   0  0  0  0  0  1  0  0  0  0  0  0
  193.9540  176.5290  137.1050 O   0  0  0  0  0  1  0  0  0  0  0  0
  193.1800  177.1280  139.3060 C   0  0  0  0  0  3  0  0  0  0  0  0
  190.5520  176.5240  138.5400 C   0  0  0  0  0  0  0  0  0  0  0  0
  190.8090  176.9810  139.8590 C   0  0  0  0  0  0  0  0  0  0  0  0
  191.6080  176.3780  137.6340 C   0  0  0  0  0  3  0  0  0  0  0  0
  1  8  1  0  0  0  0
  1 11  1  0  0  0  0
  2  3  1  6  0  0  0
  2  7  1  0  0  0  0
  3  9  1  0  0  0  0
  5  4  2  0  0  0  0
  6  9  2  0  0  0  0
  6 13  1  0  0  0  0
  7 19  2  0  0  0  0
  7 17  1  0  0  0  0
 10 14  2  0  0  0  0
 12 21  1  0  0  0  0
 12 22  1  0  0  0  0
 14 19  1  0  0  0  0
 15 21  1  6  0  0  0
 15 10  1  0  0  0  0
 15  2  1  0  0  0  0
 16  5  1  0  0  0  0
 16 10  1  0  0  0  0
 17  1  2  0  0  0  0
 18  6  1  0  0  0  0
 19 20  1  0  0  0  0
 20  8  2  0  0  0  0
 22  3  2  0  0  0  0
 23 22  1  0  0  0  0
 23 18  2  0  0  0  0
 24 28  1  0  0  0  0
 26 29  1  0  0  0  0
 27 24  1  0  0  0  0
 28 25  2  0  0  0  0
 29 30  2  0  0  0  0
 30 25  1  0  0  0  0
 30  5  1  0  0  0  0
 31 24  2  0  0  0  0
 31 29  1  0  0  0  0
M  END
>  <MODEL>
6

>  <REMARK>
 VINA RESULT:      -9.9      2.987      6.014
  Name = 
  1 active torsions:
  status: ('A' for Active; 'I' for Inactive)
    1  A    between atoms: C_9  and  C_22
                            x       y       z     vdW  Elec       q    Type
                         _______ _______ _______ _____ _____    ______ ____

>  <TORSDO>
F 1

$$$$
=
 OpenBabel11052413073D

 31 35  0  0  1  0  0  0  0  0999 V2000
  183.3760  179.2130  139.3070 C   0  0  0  0  0  0  0  0  0  0  0  0
  186.9390  177.8090  139.6220 C   0  0  2  0  0  3  0  0  0  0  0  0
  187.4960  177.9540  138.2160 C   0  0  0  0  0  0  0  0  0  0  0  0
  186.8520  177.5410  144.8600 O   0  0  0  0  0  0  0  0  0  0  0  0
  188.0560  177.5320  144.4900 C   0  0  0  0  0  0  0  0  0  0  0  0
  187.2270  177.7860  135.8030 C   0  0  0  0  0  0  0  0  0  0  0  0
  185.5890  178.4300  139.9320 C   0  0  0  0  0  0  0  0  0  0  0  0
  183.0390  179.3560  140.6550 C   0  0  0  0  0  3  0  0  0  0  0  0
  186.6830  177.7570  137.0890 C   0  0  0  0  0  3  0  0  0  0  0  0
  187.4540  178.0520  142.0580 C   0  0  0  0  0  0  0  0  0  0  0  0
  182.4710  179.5190  138.3470 F   0  0  0  0  0  0  0  0  0  0  0  0
  189.8140  178.2530  139.2100 C   0  0  0  0  0  2  0  0  0  0  0  0
  186.4040  177.6170  134.6990 O   0  0  0  0  0  1  0  0  0  0  0  0
  186.1930  178.2530  142.3190 N   0  0  0  0  0  0  0  0  0  0  0  0
  187.9640  178.2900  140.6610 C   0  0  1  0  0  3  0  0  0  0  0  0
  188.3840  177.7640  143.1120 N   0  0  0  0  0  2  0  0  0  0  0  0
  184.6400  178.7390  138.9470 C   0  0  0  0  0  3  0  0  0  0  0  0
  188.5980  177.9800  135.6280 C   0  0  0  0  0  3  0  0  0  0  0  0
  185.2400  178.5740  141.2930 C   0  0  0  0  0  0  0  0  0  0  0  0
  183.9680  179.0340  141.6460 C   0  0  0  0  0  3  0  0  0  0  0  0
  189.2500  177.6480  140.4170 N   0  0  0  0  0  2  0  0  0  0  0  0
  188.8920  178.0900  138.0310 C   0  0  0  0  0  0  0  0  0  0  0  0
  189.4290  178.1290  136.7410 C   0  0  0  0  0  3  0  0  0  0  0  0
  191.3060  176.7530  147.1980 C   0  0  0  0  0  0  0  0  0  0  0  0
  190.3930  176.8630  144.9650 C   0  0  0  0  0  3  0  0  0  0  0  0
  187.7190  177.8580  147.5070 C   0  0  0  0  0  1  0  0  0  0  0  0
  192.3700  176.4960  148.0510 O   0  0  0  0  0  1  0  0  0  0  0  0
  191.4650  176.6040  145.8210 C   0  0  0  0  0  3  0  0  0  0  0  0
  188.9970  177.4240  146.8690 C   0  0  0  0  0  0  0  0  0  0  0  0
  189.1470  177.2760  145.4660 C   0  0  0  0  0  0  0  0  0  0  0  0
  190.0780  177.1620  147.7180 C   0  0  0  0  0  3  0  0  0  0  0  0
  1  8  1  0  0  0  0
  2  3  1  6  0  0  0
  2  7  1  0  0  0  0
  2 15  1  0  0  0  0
  5  4  2  0  0  0  0
  5 30  1  0  0  0  0
  6  9  1  0  0  0  0
  7 19  2  0  0  0  0
  8 20  2  0  0  0  0
  9  3  2  0  0  0  0
 10 14  2  0  0  0  0
 10 16  1  0  0  0  0
 11  1  1  0  0  0  0
 12 21  1  0  0  0  0
 13  6  1  0  0  0  0
 15 21  1  1  0  0  0
 15 10  1  0  0  0  0
 16  5  1  0  0  0  0
 17  1  2  0  0  0  0
 17  7  1  0  0  0  0
 18  6  2  0  0  0  0
 18 23  1  0  0  0  0
 19 20  1  0  0  0  0
 19 14  1  0  0  0  0
 22  3  1  0  0  0  0
 22 12  1  0  0  0  0
 23 22  2  0  0  0  0
 24 31  1  0  0  0  0
 24 27  1  0  0  0  0
 25 30  2  0  0  0  0
 25 28  1  0  0  0  0
 28 24  2  0  0  0  0
 29 26  1  0  0  0  0
 29 31  2  0  0  0  0
 30 29  1  0  0  0  0
M  END
>  <MODEL>
7

>  <REMARK>
 VINA RESULT:      -9.8      2.930      8.208
  Name = 
  1 active torsions:
  status: ('A' for Active; 'I' for Inactive)
    1  A    between atoms: C_9  and  C_22
                            x       y       z     vdW  Elec       q    Type
                         _______ _______ _______ _____ _____    ______ ____

>  <TORSDO>
F 1

$$$$
=
 OpenBabel11052413073D

 31 35  0  0  1  0  0  0  0  0999 V2000
  189.8630  177.5280  147.3670 C   0  0  0  0  0  0  0  0  0  0  0  0
  187.6280  177.4460  144.2420 C   0  0  2  0  0  3  0  0  0  0  0  0
  186.3250  178.0570  144.7290 C   0  0  0  0  0  0  0  0  0  0  0  0
  191.4990  176.1240  140.9580 O   0  0  0  0  0  0  0  0  0  0  0  0
  190.5610  176.6160  140.2750 C   0  0  0  0  0  0  0  0  0  0  0  0
  184.6010  178.2910  146.4320 C   0  0  0  0  0  0  0  0  0  0  0  0
  188.8300  177.4720  145.1680 C   0  0  0  0  0  0  0  0  0  0  0  0
  191.1100  177.2690  146.7940 C   0  0  0  0  0  3  0  0  0  0  0  0
  185.8500  177.8140  146.0280 C   0  0  0  0  0  3  0  0  0  0  0  0
  189.2630  177.3640  142.3500 C   0  0  0  0  0  0  0  0  0  0  0  0
  189.7530  177.6780  148.7080 F   0  0  0  0  0  0  0  0  0  0  0  0
  185.9180  178.9540  142.3880 C   0  0  0  0  0  2  0  0  0  0  0  0
  184.1600  178.0650  147.7270 O   0  0  0  0  0  1  0  0  0  0  0  0
  190.2220  177.0480  143.1750 N   0  0  0  0  0  0  0  0  0  0  0  0
  188.0280  178.0420  142.8830 C   0  0  1  0  0  3  0  0  0  0  0  0
  189.4370  177.2210  140.9330 N   0  0  0  0  0  2  0  0  0  0  0  0
  188.7260  177.6150  146.5590 C   0  0  0  0  0  3  0  0  0  0  0  0
  183.7950  178.9890  145.5310 C   0  0  0  0  0  3  0  0  0  0  0  0
  190.0940  177.2080  144.5970 C   0  0  0  0  0  0  0  0  0  0  0  0
  191.2250  177.1060  145.4110 C   0  0  0  0  0  3  0  0  0  0  0  0
  186.9020  177.9600  141.9600 N   0  0  0  0  0  2  0  0  0  0  0  0
  185.4760  178.7130  143.8070 C   0  0  0  0  0  0  0  0  0  0  0  0
  184.2310  179.1980  144.2210 C   0  0  0  0  0  3  0  0  0  0  0  0
  190.7680  176.3770  135.9860 C   0  0  0  0  0  0  0  0  0  0  0  0
  191.3650  175.5660  138.1810 C   0  0  0  0  0  3  0  0  0  0  0  0
  189.0720  178.6060  138.5020 C   0  0  0  0  0  1  0  0  0  0  0  0
  190.8500  176.2780  134.6040 O   0  0  0  0  0  1  0  0  0  0  0  0
  191.4490  175.4650  136.7910 C   0  0  0  0  0  3  0  0  0  0  0  0
  189.9120  177.4980  137.9610 C   0  0  0  0  0  0  0  0  0  0  0  0
  190.6000  176.5750  138.7910 C   0  0  0  0  0  0  0  0  0  0  0  0
  190.0030  177.3870  136.5690 C   0  0  0  0  0  3  0  0  0  0  0  0
  1 11  1  0  0  0  0
  2  3  1  1  0  0  0
  2  7  1  0  0  0  0
  3  9  1  0  0  0  0
  5 16  1  0  0  0  0
  5  4  2  0  0  0  0
  6 13  1  0  0  0  0
  7 17  1  0  0  0  0
  8  1  1  0  0  0  0
  9  6  2  0  0  0  0
 10 15  1  0  0  0  0
 10 14  2  0  0  0  0
 12 22  1  0  0  0  0
 14 19  1  0  0  0  0
 15 21  1  6  0  0  0
 15  2  1  0  0  0  0
 16 10  1  0  0  0  0
 17  1  2  0  0  0  0
 18  6  1  0  0  0  0
 19  7  2  0  0  0  0
 19 20  1  0  0  0  0
 20  8  2  0  0  0  0
 21 12  1  0  0  0  0
 22 23  1  0  0  0  0
 22  3  2  0  0  0  0
 23 18  2  0  0  0  0
 24 31  2  0  0  0  0
 24 28  1  0  0  0  0
 25 30  1  0  0  0  0
 27 24  1  0  0  0  0
 28 25  2  0  0  0  0
 29 26  1  0  0  0  0
 29 30  2  0  0  0  0
 30  5  1  0  0  0  0
 31 29  1  0  0  0  0
M  END
>  <MODEL>
8

>  <REMARK>
 VINA RESULT:      -9.7      2.039      4.325
  Name = 
  1 active torsions:
  status: ('A' for Active; 'I' for Inactive)
    1  A    between atoms: C_9  and  C_22
                            x       y       z     vdW  Elec       q    Type
                         _______ _______ _______ _____ _____    ______ ____

>  <TORSDO>
F 1

$$$$
=
 OpenBabel11052413073D

 31 35  0  0  1  0  0  0  0  0999 V2000
  184.0230  178.7170  144.4390 C   0  0  0  0  0  0  0  0  0  0  0  0
  187.8200  178.1450  144.2980 C   0  0  2  0  0  3  0  0  0  0  0  0
  188.1790  177.8350  145.7420 C   0  0  0  0  0  0  0  0  0  0  0  0
  188.0680  178.0770  139.0590 O   0  0  0  0  0  0  0  0  0  0  0  0
  189.1030  177.5120  139.5050 C   0  0  0  0  0  0  0  0  0  0  0  0
  187.9430  178.2720  148.1240 C   0  0  0  0  0  0  0  0  0  0  0  0
  186.3530  178.2560  143.9260 C   0  0  0  0  0  0  0  0  0  0  0  0
  183.7090  178.6720  143.0790 C   0  0  0  0  0  3  0  0  0  0  0  0
  187.5330  178.4830  146.8060 C   0  0  0  0  0  3  0  0  0  0  0  0
  188.2340  177.5190  141.9120 C   0  0  0  0  0  0  0  0  0  0  0  0
  183.0520  178.9640  145.3500 F   0  0  0  0  0  0  0  0  0  0  0  0
  190.0740  176.3620  144.9110 C   0  0  0  0  0  2  0  0  0  0  0  0
  187.2740  178.8990  149.1660 O   0  0  0  0  0  1  0  0  0  0  0  0
  187.0510  177.9540  141.5780 N   0  0  0  0  0  0  0  0  0  0  0  0
  188.5050  177.1520  143.3470 C   0  0  1  0  0  3  0  0  0  0  0  0
  189.2210  177.2380  140.9090 N   0  0  0  0  0  2  0  0  0  0  0  0
  185.3410  178.5240  144.8600 C   0  0  0  0  0  3  0  0  0  0  0  0
  189.0270  177.4360  148.3940 C   0  0  0  0  0  3  0  0  0  0  0  0
  186.0280  178.2160  142.5530 C   0  0  0  0  0  0  0  0  0  0  0  0
  184.7100  178.4250  142.1370 C   0  0  0  0  0  3  0  0  0  0  0  0
  189.9310  177.0860  143.6480 N   0  0  0  0  0  2  0  0  0  0  0  0
  189.3140  177.0370  146.0210 C   0  0  0  0  0  0  0  0  0  0  0  0
  189.7120  176.8220  147.3440 C   0  0  0  0  0  3  0  0  0  0  0  0
  192.2080  176.3740  136.7540 C   0  0  0  0  0  0  0  0  0  0  0  0
  189.8810  176.7510  137.2800 C   0  0  0  0  0  3  0  0  0  0  0  0
  192.0390  177.5030  140.3420 C   0  0  0  0  0  1  0  0  0  0  0  0
  193.1910  176.0030  135.8480 O   0  0  0  0  0  1  0  0  0  0  0  0
  190.8680  176.3780  136.3670 C   0  0  0  0  0  3  0  0  0  0  0  0
  191.5770  177.1200  138.9760 C   0  0  0  0  0  0  0  0  0  0  0  0
  190.2110  177.1280  138.5920 C   0  0  0  0  0  0  0  0  0  0  0  0
  192.5590  176.7440  138.0530 C   0  0  0  0  0  3  0  0  0  0  0  0
  1 17  1  0  0  0  0
  1 11  1  0  0  0  0
  2  7  1  1  0  0  0
  2  3  1  0  0  0  0
  3 22  2  0  0  0  0
  3  9  1  0  0  0  0
  4  5  2  0  0  0  0
  5 16  1  0  0  0  0
  6 18  1  0  0  0  0
  6 13  1  0  0  0  0
  7 17  2  0  0  0  0
  8  1  2  0  0  0  0
  9  6  2  0  0  0  0
 12 22  1  0  0  0  0
 14 10  2  0  0  0  0
 14 19  1  0  0  0  0
 15 10  1  6  0  0  0
 15 21  1  0  0  0  0
 15  2  1  0  0  0  0
 16 10  1  0  0  0  0
 19  7  1  0  0  0  0
 20 19  2  0  0  0  0
 20  8  1  0  0  0  0
 21 12  1  0  0  0  0
 22 23  1  0  0  0  0
 23 18  2  0  0  0  0
 24 31  1  0  0  0  0
 25 30  2  0  0  0  0
 27 24  1  0  0  0  0
 28 24  2  0  0  0  0
 28 25  1  0  0  0  0
 29 26  1  0  0  0  0
 30 29  1  0  0  0  0
 30  5  1  0  0  0  0
 31 29  2  0  0  0  0
M  END
>  <MODEL>
9

>  <REMARK>
 VINA RESULT:      -9.6      1.352      2.101
  Name = 
  1 active torsions:
  status: ('A' for Active; 'I' for Inactive)
    1  A    between atoms: C_9  and  C_22
                            x       y       z     vdW  Elec       q    Type
                         _______ _______ _______ _____ _____    ______ ____

>  <TORSDO>
F 1

$$$$
