=
 OpenBabel11052416323D

 43 49  0  0  1  0  0  0  0  0999 V2000
  191.6420  176.3630  147.0910 C   0  0  0  0  0  0  0  0  0  0  0  0
  186.9510  177.3830  145.6130 C   0  0  1  0  0  3  0  0  0  0  0  0
  189.3600  177.1880  147.0360 C   0  0  0  0  0  0  0  0  0  0  0  0
  191.6800  176.3550  145.6950 C   0  0  0  0  0  3  0  0  0  0  0  0
  192.8330  175.9330  147.8670 C   0  0  0  0  0  1  0  0  0  0  0  0
  189.3900  177.1550  145.6180 C   0  0  0  0  0  0  0  0  0  0  0  0
  190.4860  176.7780  147.7580 C   0  0  0  0  0  3  0  0  0  0  0  0
  190.5610  176.7580  144.9620 C   0  0  0  0  0  3  0  0  0  0  0  0
  187.9430  177.1630  143.4540 C   0  0  1  0  0  3  0  0  0  0  0  0
  188.2110  177.6970  144.8560 C   0  0  1  0  0  3  0  0  0  0  0  0
  186.9690  178.1270  146.9380 C   0  0  0  0  0  2  0  0  0  0  0  0
  185.8280  177.6480  144.6360 C   0  0  2  0  0  3  0  0  0  0  0  0
  186.4170  177.1220  143.3260 C   0  0  0  0  0  2  0  0  0  0  0  0
  188.1090  177.5680  147.8060 C   0  0  0  0  0  2  0  0  0  0  0  0
  185.5190  179.1440  144.5220 C   0  0  0  0  0  2  0  0  0  0  0  0
  184.0440  179.4380  144.7680 C   0  0  0  0  0  2  0  0  0  0  0  0
  183.4620  178.9890  140.9870 C   0  0  0  0  0  2  0  0  0  0  0  0
  180.9640  179.1950  142.5550 C   0  0  0  0  0  2  0  0  0  0  0  0
  181.0110  178.3410  141.2840 C   0  0  0  0  0  2  0  0  0  0  0  0
  184.1190  178.8630  142.3560 C   0  0  0  0  0  2  0  0  0  0  0  0
  183.2630  179.4700  143.4630 C   0  0  0  0  0  3  0  0  0  0  0  0
  182.4070  177.9040  140.8270 C   0  0  0  0  0  2  0  0  0  0  0  0
  181.9400  178.7280  143.6240 C   0  0  0  0  0  2  0  0  0  0  0  0
  188.4770  178.1360  142.4100 C   0  0  0  0  0  2  0  0  0  0  0  0
  188.8080  177.4290  141.1060 C   0  0  1  0  0  3  0  0  0  0  0  0
  189.0590  175.6580  138.3730 C   0  0  0  0  0  1  0  0  0  0  0  0
  189.3330  177.0890  137.9040 C   0  0  2  0  0  0  0  0  0  0  0  0
  188.7230  178.3600  139.9540 C   0  0  2  0  0  3  0  0  0  0  0  0
  190.2680  177.0900  141.0640 C   0  0  0  0  0  2  0  0  0  0  0  0
  187.3480  178.3630  139.2950 C   0  0  0  0  0  2  0  0  0  0  0  0
  189.7900  177.9450  139.0340 N   0  0  1  0  0  0  0  0  0  0  0  0
  188.0200  177.6300  137.2840 C   0  0  0  0  0  2  0  0  0  0  0  0
  190.7530  177.2800  139.7510 O   0  0  0  0  0  0  0  0  0  0  0  0
  187.5030  178.7500  137.9590 O   0  0  0  0  0  0  0  0  0  0  0  0
  190.4350  177.0880  136.8340 C   0  0  0  0  0  2  0  0  0  0  0  0
  190.8050  175.7020  136.2980 C   0  0  1  0  0  3  0  0  0  0  0  0
  190.5360  175.6480  134.9430 F   0  0  0  0  0  0  0  0  0  0  0  0
  192.2480  175.3960  136.5330 C   0  0  0  0  0  0  0  0  0  0  0  0
  194.4920  175.0770  135.5030 C   0  0  0  0  0  2  0  0  0  0  0  0
  193.9890  174.3320  137.7880 C   0  0  0  0  0  3  0  0  0  0  0  0
  194.9110  174.5560  136.8480 C   0  0  0  0  0  3  0  0  0  0  0  0
  192.6120  174.6650  137.5480 N   0  0  0  0  0  0  0  0  0  0  0  0
  193.2860  176.0110  135.6340 C   0  0  0  0  0  2  0  0  0  0  0  0
  1  7  1  0  0  0  0
  1  5  1  0  0  0  0
  2 11  1  1  0  0  0
  3  7  2  0  0  0  0
  3 14  1  0  0  0  0
  4  1  2  0  0  0  0
  6  3  1  0  0  0  0
  8  6  2  0  0  0  0
  8  4  1  0  0  0  0
  9 24  1  6  0  0  0
  9 10  1  0  0  0  0
 10  2  1  0  0  0  0
 10  6  1  1  0  0  0
 11 14  1  0  0  0  0
 12 15  1  6  0  0  0
 12  2  1  0  0  0  0
 13  9  1  0  0  0  0
 13 12  1  0  0  0  0
 15 16  1  0  0  0  0
 17 20  1  0  0  0  0
 18 23  1  0  0  0  0
 19 18  1  0  0  0  0
 20 21  1  0  0  0  0
 21 23  1  0  0  0  0
 21 16  1  0  0  0  0
 22 17  1  0  0  0  0
 22 19  1  0  0  0  0
 25 24  1  1  0  0  0
 27 26  1  1  0  0  0
 27 31  1  0  0  0  0
 28 30  1  6  0  0  0
 28 25  1  0  0  0  0
 29 25  1  0  0  0  0
 31 33  1  1  0  0  0
 31 28  1  0  0  0  0
 32 27  1  0  0  0  0
 32 34  1  0  0  0  0
 33 29  1  0  0  0  0
 34 30  1  0  0  0  0
 35 27  1  0  0  0  0
 36 37  1  6  0  0  0
 36 38  1  0  0  0  0
 36 35  1  0  0  0  0
 38 42  2  0  0  0  0
 39 43  1  0  0  0  0
 39 41  1  0  0  0  0
 41 40  2  0  0  0  0
 42 40  1  0  0  0  0
 43 38  1  0  0  0  0
M  END
>  <MODEL>
1

>  <REMARK>
 VINA RESULT:     -10.2      0.000      0.000
  Name = 
  8 active torsions:
  status: ('A' for Active; 'I' for Inactive)
    1  A    between atoms: C_1  and  C_28
    2  A    between atoms: C_1  and  C_34
    3  A    between atoms: C_2  and  C_13
    4  A    between atoms: C_4  and  C_22
    5  A    between atoms: C_11  and  C_14
    6  A    between atoms: C_13  and  C_27
    7  A    between atoms: C_14  and  C_22
    8  A    between atoms: C_28  and  C_35
                            x       y       z     vdW  Elec       q    Type
                         _______ _______ _______ _____ _____    ______ ____

>  <TORSDO>
F 8

$$$$
=
 OpenBabel11052416323D

 43 49  0  0  1  0  0  0  0  0999 V2000
  191.3220  176.4690  146.8330 C   0  0  0  0  0  0  0  0  0  0  0  0
  186.7790  177.4620  144.9340 C   0  0  1  0  0  3  0  0  0  0  0  0
  189.0040  177.1530  146.6140 C   0  0  0  0  0  0  0  0  0  0  0  0
  191.5320  176.7190  145.4750 C   0  0  0  0  0  3  0  0  0  0  0  0
  192.4410  175.9760  147.6770 C   0  0  0  0  0  1  0  0  0  0  0  0
  189.2090  177.3820  145.2300 C   0  0  0  0  0  0  0  0  0  0  0  0
  190.0620  176.6850  147.3990 C   0  0  0  0  0  3  0  0  0  0  0  0
  190.4810  177.1820  144.6790 C   0  0  0  0  0  3  0  0  0  0  0  0
  188.0430  177.7000  142.9240 C   0  0  1  0  0  3  0  0  0  0  0  0
  188.0920  177.9830  144.4210 C   0  0  1  0  0  3  0  0  0  0  0  0
  186.5720  177.9500  146.3580 C   0  0  0  0  0  2  0  0  0  0  0  0
  185.7660  177.8330  143.8750 C   0  0  2  0  0  3  0  0  0  0  0  0
  186.5530  177.5920  142.5850 C   0  0  0  0  0  2  0  0  0  0  0  0
  187.6410  177.3100  147.2620 C   0  0  0  0  0  2  0  0  0  0  0  0
  185.3500  179.3040  143.9820 C   0  0  0  0  0  2  0  0  0  0  0  0
  183.8640  179.4520  144.2860 C   0  0  0  0  0  2  0  0  0  0  0  0
  180.6210  178.3760  142.5080 C   0  0  0  0  0  2  0  0  0  0  0  0
  183.0470  178.0500  140.8500 C   0  0  0  0  0  2  0  0  0  0  0  0
  181.7030  178.3850  140.1960 C   0  0  0  0  0  2  0  0  0  0  0  0
  181.5550  179.1470  143.4330 C   0  0  0  0  0  2  0  0  0  0  0  0
  183.0150  178.7530  143.2350 C   0  0  0  0  0  3  0  0  0  0  0  0
  180.6480  179.0020  141.1210 C   0  0  0  0  0  2  0  0  0  0  0  0
  183.5110  179.1100  141.8370 C   0  0  0  0  0  2  0  0  0  0  0  0
  188.6180  178.8770  142.1470 C   0  0  0  0  0  2  0  0  0  0  0  0
  188.7350  178.5650  140.6650 C   0  0  1  0  0  3  0  0  0  0  0  0
  189.3980  178.2280  137.4840 C   0  0  0  0  0  1  0  0  0  0  0  0
  189.2930  176.7860  137.9880 C   0  0  2  0  0  0  0  0  0  0  0  0
  189.1940  177.1720  140.4440 C   0  0  2  0  0  3  0  0  0  0  0  0
  187.3710  178.4950  140.0480 C   0  0  0  0  0  2  0  0  0  0  0  0
  190.7100  177.0610  140.3150 C   0  0  0  0  0  2  0  0  0  0  0  0
  188.4900  176.7120  139.2390 N   0  0  1  0  0  0  0  0  0  0  0  0
  190.7370  176.2710  138.2150 C   0  0  0  0  0  2  0  0  0  0  0  0
  187.3450  177.4540  139.0920 O   0  0  0  0  0  0  0  0  0  0  0  0
  191.0020  175.9250  139.5530 O   0  0  0  0  0  0  0  0  0  0  0  0
  188.6050  175.9100  136.9300 C   0  0  0  0  0  2  0  0  0  0  0  0
  187.1660  176.3160  136.6020 C   0  0  1  0  0  3  0  0  0  0  0  0
  187.1110  176.8090  135.3110 F   0  0  0  0  0  0  0  0  0  0  0  0
  186.2310  175.1580  136.7340 C   0  0  0  0  0  0  0  0  0  0  0  0
  183.8580  174.4130  136.8280 C   0  0  0  0  0  2  0  0  0  0  0  0
  185.7080  172.9690  137.5520 C   0  0  0  0  0  3  0  0  0  0  0  0
  184.4100  173.0820  137.2550 C   0  0  0  0  0  3  0  0  0  0  0  0
  186.5910  174.0890  137.3860 N   0  0  0  0  0  0  0  0  0  0  0  0
  184.9000  175.2040  136.0340 C   0  0  0  0  0  2  0  0  0  0  0  0
  1  7  1  0  0  0  0
  1  5  1  0  0  0  0
  2 11  1  1  0  0  0
  3 14  1  0  0  0  0
  3  7  2  0  0  0  0
  4  1  2  0  0  0  0
  6  3  1  0  0  0  0
  8  6  2  0  0  0  0
  8  4  1  0  0  0  0
  9 24  1  6  0  0  0
  9 10  1  0  0  0  0
 10  2  1  0  0  0  0
 10  6  1  1  0  0  0
 11 14  1  0  0  0  0
 12 15  1  1  0  0  0
 12  2  1  0  0  0  0
 13  9  1  0  0  0  0
 13 12  1  0  0  0  0
 15 16  1  0  0  0  0
 17 20  1  0  0  0  0
 18 23  1  0  0  0  0
 19 18  1  0  0  0  0
 19 22  1  0  0  0  0
 21 20  1  0  0  0  0
 21 16  1  0  0  0  0
 22 17  1  0  0  0  0
 23 21  1  0  0  0  0
 25 24  1  1  0  0  0
 27 26  1  6  0  0  0
 27 32  1  0  0  0  0
 27 31  1  0  0  0  0
 28 30  1  6  0  0  0
 28 25  1  0  0  0  0
 29 25  1  0  0  0  0
 31 33  1  6  0  0  0
 31 28  1  0  0  0  0
 32 34  1  0  0  0  0
 33 29  1  0  0  0  0
 34 30  1  0  0  0  0
 35 27  1  0  0  0  0
 36 37  1  6  0  0  0
 36 38  1  0  0  0  0
 36 35  1  0  0  0  0
 38 42  2  0  0  0  0
 39 41  1  0  0  0  0
 41 40  2  0  0  0  0
 42 40  1  0  0  0  0
 43 38  1  0  0  0  0
 43 39  1  0  0  0  0
M  END
>  <MODEL>
2

>  <REMARK>
 VINA RESULT:      -9.4      2.023      3.752
  Name = 
  8 active torsions:
  status: ('A' for Active; 'I' for Inactive)
    1  A    between atoms: C_1  and  C_28
    2  A    between atoms: C_1  and  C_34
    3  A    between atoms: C_2  and  C_13
    4  A    between atoms: C_4  and  C_22
    5  A    between atoms: C_11  and  C_14
    6  A    between atoms: C_13  and  C_27
    7  A    between atoms: C_14  and  C_22
    8  A    between atoms: C_28  and  C_35
                            x       y       z     vdW  Elec       q    Type
                         _______ _______ _______ _____ _____    ______ ____

>  <TORSDO>
F 8

$$$$
=
 OpenBabel11052416323D

 43 49  0  0  1  0  0  0  0  0999 V2000
  181.0480  178.4500  139.3200 C   0  0  0  0  0  0  0  0  0  0  0  0
  183.3830  179.4070  143.6640 C   0  0  1  0  0  3  0  0  0  0  0  0
  181.5580  178.6120  141.6880 C   0  0  0  0  0  0  0  0  0  0  0  0
  182.4120  178.4470  139.0190 C   0  0  0  0  0  3  0  0  0  0  0  0
  180.0480  178.3620  138.2260 C   0  0  0  0  0  1  0  0  0  0  0  0
  182.9420  178.6360  141.3810 C   0  0  0  0  0  0  0  0  0  0  0  0
  180.6240  178.5330  140.6500 C   0  0  0  0  0  3  0  0  0  0  0  0
  183.3540  178.5300  140.0470 C   0  0  0  0  0  3  0  0  0  0  0  0
  185.3170  179.2170  142.2770 C   0  0  1  0  0  3  0  0  0  0  0  0
  183.9360  178.6160  142.5110 C   0  0  1  0  0  3  0  0  0  0  0  0
  182.1370  178.7150  144.1910 C   0  0  0  0  0  2  0  0  0  0  0  0
  184.5570  179.6200  144.5930 C   0  0  2  0  0  3  0  0  0  0  0  0
  185.7000  179.8690  143.6090 C   0  0  0  0  0  2  0  0  0  0  0  0
  181.0460  178.7650  143.1080 C   0  0  0  0  0  2  0  0  0  0  0  0
  184.8390  178.3740  145.4400 C   0  0  0  0  0  2  0  0  0  0  0  0
  185.4880  178.7310  146.7720 C   0  0  0  0  0  2  0  0  0  0  0  0
  189.0500  178.1740  148.1270 C   0  0  0  0  0  2  0  0  0  0  0  0
  188.8230  177.8050  145.2030 C   0  0  0  0  0  2  0  0  0  0  0  0
  189.8370  176.9880  146.0080 C   0  0  0  0  0  2  0  0  0  0  0  0
  187.5280  178.1950  148.0790 C   0  0  0  0  0  2  0  0  0  0  0  0
  187.0010  178.5900  146.7030 C   0  0  0  0  0  3  0  0  0  0  0  0
  189.5610  176.8790  147.5120 C   0  0  0  0  0  2  0  0  0  0  0  0
  187.3850  177.5670  145.6370 C   0  0  0  0  0  2  0  0  0  0  0  0
  186.3260  178.1150  141.9840 C   0  0  0  0  0  2  0  0  0  0  0  0
  187.1570  178.4330  140.7520 C   0  0  1  0  0  3  0  0  0  0  0  0
  189.1840  179.4740  138.4110 C   0  0  0  0  0  1  0  0  0  0  0  0
  189.3380  177.9520  138.3720 C   0  0  2  0  0  0  0  0  0  0  0  0
  188.0820  177.3200  140.4260 C   0  0  2  0  0  3  0  0  0  0  0  0
  186.2880  178.4200  139.5310 C   0  0  0  0  0  2  0  0  0  0  0  0
  189.4560  177.4830  141.0680 C   0  0  0  0  0  2  0  0  0  0  0  0
  188.1460  177.2780  138.9590 N   0  0  1  0  0  0  0  0  0  0  0  0
  190.6260  177.5980  139.1570 C   0  0  0  0  0  2  0  0  0  0  0  0
  187.0040  177.8490  138.4540 O   0  0  0  0  0  0  0  0  0  0  0  0
  190.3900  176.7930  140.2860 O   0  0  0  0  0  0  0  0  0  0  0  0
  189.4840  177.4770  136.9190 C   0  0  0  0  0  2  0  0  0  0  0  0
  189.4600  175.9570  136.7360 C   0  0  1  0  0  3  0  0  0  0  0  0
  188.6280  175.6350  135.6810 F   0  0  0  0  0  0  0  0  0  0  0  0
  190.8290  175.4200  136.4750 C   0  0  0  0  0  0  0  0  0  0  0  0
  192.8690  174.3840  137.4540 C   0  0  0  0  0  2  0  0  0  0  0  0
  192.8670  175.3960  135.2170 C   0  0  0  0  0  3  0  0  0  0  0  0
  193.5080  174.6500  136.1200 C   0  0  0  0  0  3  0  0  0  0  0  0
  191.5390  175.8740  135.4810 N   0  0  0  0  0  0  0  0  0  0  0  0
  191.3480  174.2870  137.3180 C   0  0  0  0  0  2  0  0  0  0  0  0
  1  7  1  0  0  0  0
  2 11  1  1  0  0  0
  2 12  1  0  0  0  0
  3 14  1  0  0  0  0
  4  1  2  0  0  0  0
  4  8  1  0  0  0  0
  5  1  1  0  0  0  0
  6  3  1  0  0  0  0
  7  3  2  0  0  0  0
  8  6  2  0  0  0  0
  9 24  1  1  0  0  0
  9 10  1  0  0  0  0
  9 13  1  0  0  0  0
 10  6  1  6  0  0  0
 10  2  1  0  0  0  0
 12 15  1  6  0  0  0
 13 12  1  0  0  0  0
 14 11  1  0  0  0  0
 15 16  1  0  0  0  0
 18 23  1  0  0  0  0
 18 19  1  0  0  0  0
 19 22  1  0  0  0  0
 20 17  1  0  0  0  0
 21 16  1  0  0  0  0
 21 20  1  0  0  0  0
 22 17  1  0  0  0  0
 23 21  1  0  0  0  0
 25 24  1  1  0  0  0
 27 26  1  1  0  0  0
 27 31  1  0  0  0  0
 27 32  1  0  0  0  0
 28 25  1  0  0  0  0
 28 30  1  1  0  0  0
 29 25  1  0  0  0  0
 31 33  1  6  0  0  0
 31 28  1  0  0  0  0
 32 34  1  0  0  0  0
 33 29  1  0  0  0  0
 34 30  1  0  0  0  0
 35 27  1  0  0  0  0
 36 37  1  6  0  0  0
 36 35  1  0  0  0  0
 38 36  1  0  0  0  0
 38 43  1  0  0  0  0
 40 42  1  0  0  0  0
 40 41  2  0  0  0  0
 41 39  1  0  0  0  0
 42 38  2  0  0  0  0
 43 39  1  0  0  0  0
M  END
>  <MODEL>
3

>  <REMARK>
 VINA RESULT:      -8.8      1.351      6.371
  Name = 
  8 active torsions:
  status: ('A' for Active; 'I' for Inactive)
    1  A    between atoms: C_1  and  C_28
    2  A    between atoms: C_1  and  C_34
    3  A    between atoms: C_2  and  C_13
    4  A    between atoms: C_4  and  C_22
    5  A    between atoms: C_11  and  C_14
    6  A    between atoms: C_13  and  C_27
    7  A    between atoms: C_14  and  C_22
    8  A    between atoms: C_28  and  C_35
                            x       y       z     vdW  Elec       q    Type
                         _______ _______ _______ _____ _____    ______ ____

>  <TORSDO>
F 8

$$$$
=
 OpenBabel11052416323D

 43 49  0  0  1  0  0  0  0  0999 V2000
  191.1290  176.5830  146.7500 C   0  0  0  0  0  0  0  0  0  0  0  0
  186.4860  177.4720  145.0490 C   0  0  1  0  0  3  0  0  0  0  0  0
  188.7830  177.1960  146.6360 C   0  0  0  0  0  0  0  0  0  0  0  0
  191.2780  176.8720  145.3920 C   0  0  0  0  0  3  0  0  0  0  0  0
  192.2940  176.1070  147.5380 C   0  0  0  0  0  1  0  0  0  0  0  0
  188.9270  177.4640  145.2510 C   0  0  0  0  0  0  0  0  0  0  0  0
  189.8850  176.7440  147.3690 C   0  0  0  0  0  3  0  0  0  0  0  0
  190.1830  177.3190  144.6480 C   0  0  0  0  0  3  0  0  0  0  0  0
  187.6640  177.7990  142.9990 C   0  0  1  0  0  3  0  0  0  0  0  0
  187.7610  178.0470  144.5000 C   0  0  1  0  0  3  0  0  0  0  0  0
  186.3190  177.9190  146.4920 C   0  0  0  0  0  2  0  0  0  0  0  0
  185.4220  177.8350  144.0380 C   0  0  2  0  0  3  0  0  0  0  0  0
  186.1660  177.6500  142.7140 C   0  0  0  0  0  2  0  0  0  0  0  0
  187.4410  177.2930  147.3380 C   0  0  0  0  0  2  0  0  0  0  0  0
  184.9640  179.2890  144.1980 C   0  0  0  0  0  2  0  0  0  0  0  0
  183.5090  179.3780  144.6400 C   0  0  0  0  0  2  0  0  0  0  0  0
  180.1450  178.2590  143.1340 C   0  0  0  0  0  2  0  0  0  0  0  0
  182.3600  178.3190  141.1760 C   0  0  0  0  0  2  0  0  0  0  0  0
  180.9260  178.6190  140.7300 C   0  0  0  0  0  2  0  0  0  0  0  0
  181.1360  178.9900  144.0310 C   0  0  0  0  0  2  0  0  0  0  0  0
  182.5810  178.7390  143.6170 C   0  0  0  0  0  3  0  0  0  0  0  0
  179.9570  179.0400  141.8420 C   0  0  0  0  0  2  0  0  0  0  0  0
  182.8740  179.2920  142.2260 C   0  0  0  0  0  2  0  0  0  0  0  0
  188.1710  179.0120  142.2310 C   0  0  0  0  0  2  0  0  0  0  0  0
  188.6250  178.6370  140.8300 C   0  0  1  0  0  3  0  0  0  0  0  0
  189.9370  178.2380  137.8650 C   0  0  0  0  0  1  0  0  0  0  0  0
  189.9990  176.8370  138.4810 C   0  0  2  0  0  0  0  0  0  0  0  0
  189.3610  177.3490  140.8310 C   0  0  2  0  0  3  0  0  0  0  0  0
  187.4400  178.2630  139.9910 C   0  0  0  0  0  2  0  0  0  0  0  0
  190.8690  177.5280  140.9840 C   0  0  0  0  0  2  0  0  0  0  0  0
  188.9960  176.6860  139.5720 N   0  0  1  0  0  0  0  0  0  0  0  0
  191.4410  176.6300  139.0100 C   0  0  0  0  0  2  0  0  0  0  0  0
  187.7870  177.1800  139.1520 O   0  0  0  0  0  0  0  0  0  0  0  0
  191.5020  176.4260  140.4000 O   0  0  0  0  0  0  0  0  0  0  0  0
  189.6960  175.7800  137.4090 C   0  0  0  0  0  2  0  0  0  0  0  0
  190.5710  174.5260  137.4800 C   0  0  1  0  0  3  0  0  0  0  0  0
  189.7760  173.4040  137.3470 F   0  0  0  0  0  0  0  0  0  0  0  0
  191.6140  174.5290  136.4110 C   0  0  0  0  0  0  0  0  0  0  0  0
  192.9080  173.1690  134.7760 C   0  0  0  0  0  2  0  0  0  0  0  0
  193.5930  175.4390  135.4150 C   0  0  0  0  0  3  0  0  0  0  0  0
  193.7540  174.3980  134.5950 C   0  0  0  0  0  3  0  0  0  0  0  0
  192.5620  175.4240  136.4150 N   0  0  0  0  0  0  0  0  0  0  0  0
  191.5110  173.5410  135.2810 C   0  0  0  0  0  2  0  0  0  0  0  0
  1  7  1  0  0  0  0
  1  5  1  0  0  0  0
  2 11  1  1  0  0  0
  3 14  1  0  0  0  0
  3  7  2  0  0  0  0
  4  1  2  0  0  0  0
  6  3  1  0  0  0  0
  8  6  2  0  0  0  0
  8  4  1  0  0  0  0
  9 24  1  6  0  0  0
  9 10  1  0  0  0  0
 10  2  1  0  0  0  0
 10  6  1  1  0  0  0
 11 14  1  0  0  0  0
 12 15  1  1  0  0  0
 12  2  1  0  0  0  0
 13  9  1  0  0  0  0
 13 12  1  0  0  0  0
 15 16  1  0  0  0  0
 17 20  1  0  0  0  0
 18 23  1  0  0  0  0
 19 18  1  0  0  0  0
 19 22  1  0  0  0  0
 21 20  1  0  0  0  0
 21 16  1  0  0  0  0
 22 17  1  0  0  0  0
 23 21  1  0  0  0  0
 25 28  1  0  0  0  0
 25 24  1  1  0  0  0
 27 26  1  6  0  0  0
 27 32  1  0  0  0  0
 27 31  1  0  0  0  0
 28 30  1  6  0  0  0
 29 25  1  0  0  0  0
 31 33  1  6  0  0  0
 31 28  1  0  0  0  0
 32 34  1  0  0  0  0
 33 29  1  0  0  0  0
 34 30  1  0  0  0  0
 35 36  1  0  0  0  0
 35 27  1  0  0  0  0
 36 37  1  6  0  0  0
 38 42  2  0  0  0  0
 38 36  1  0  0  0  0
 39 43  1  0  0  0  0
 40 42  1  0  0  0  0
 41 39  1  0  0  0  0
 41 40  2  0  0  0  0
 43 38  1  0  0  0  0
M  END
>  <MODEL>
4

>  <REMARK>
 VINA RESULT:      -8.7      1.262      2.144
  Name = 
  8 active torsions:
  status: ('A' for Active; 'I' for Inactive)
    1  A    between atoms: C_1  and  C_28
    2  A    between atoms: C_1  and  C_34
    3  A    between atoms: C_2  and  C_13
    4  A    between atoms: C_4  and  C_22
    5  A    between atoms: C_11  and  C_14
    6  A    between atoms: C_13  and  C_27
    7  A    between atoms: C_14  and  C_22
    8  A    between atoms: C_28  and  C_35
                            x       y       z     vdW  Elec       q    Type
                         _______ _______ _______ _____ _____    ______ ____

>  <TORSDO>
F 8

$$$$
=
 OpenBabel11052416323D

 43 49  0  0  1  0  0  0  0  0999 V2000
  181.4020  178.0480  138.8290 C   0  0  0  0  0  0  0  0  0  0  0  0
  183.3090  179.4450  143.2610 C   0  0  1  0  0  3  0  0  0  0  0  0
  181.7000  178.4090  141.2100 C   0  0  0  0  0  0  0  0  0  0  0  0
  182.7850  178.1010  138.6400 C   0  0  0  0  0  3  0  0  0  0  0  0
  180.5030  177.8260  137.6670 C   0  0  0  0  0  1  0  0  0  0  0  0
  183.1030  178.4880  141.0150 C   0  0  0  0  0  0  0  0  0  0  0  0
  180.8630  178.2030  140.1090 C   0  0  0  0  0  3  0  0  0  0  0  0
  183.6310  178.3120  139.7310 C   0  0  0  0  0  3  0  0  0  0  0  0
  185.3600  179.2660  142.0530 C   0  0  1  0  0  3  0  0  0  0  0  0
  183.9970  178.6060  142.2200 C   0  0  1  0  0  3  0  0  0  0  0  0
  182.0600  178.7230  143.7370 C   0  0  0  0  0  2  0  0  0  0  0  0
  184.3870  179.7900  144.2630 C   0  0  2  0  0  3  0  0  0  0  0  0
  185.5960  180.0330  143.3580 C   0  0  0  0  0  2  0  0  0  0  0  0
  181.0630  178.6340  142.5680 C   0  0  0  0  0  2  0  0  0  0  0  0
  184.6600  178.6270  145.2230 C   0  0  0  0  0  2  0  0  0  0  0  0
  185.6630  179.0080  146.3050 C   0  0  0  0  0  2  0  0  0  0  0  0
  188.6580  176.9170  145.0840 C   0  0  0  0  0  2  0  0  0  0  0  0
  188.3890  176.9990  148.0270 C   0  0  0  0  0  2  0  0  0  0  0  0
  189.7730  176.8910  147.3810 C   0  0  0  0  0  2  0  0  0  0  0  0
  187.6040  178.0160  145.1210 C   0  0  0  0  0  2  0  0  0  0  0  0
  186.7820  177.9830  146.4050 C   0  0  0  0  0  3  0  0  0  0  0  0
  189.8610  177.3380  145.9170 C   0  0  0  0  0  2  0  0  0  0  0  0
  187.6420  178.2640  147.6330 C   0  0  0  0  0  2  0  0  0  0  0  0
  186.4460  178.2050  141.9270 C   0  0  0  0  0  2  0  0  0  0  0  0
  187.2800  178.4060  140.6720 C   0  0  1  0  0  3  0  0  0  0  0  0
  189.2930  179.2410  138.2390 C   0  0  0  0  0  1  0  0  0  0  0  0
  189.5110  177.7330  138.3890 C   0  0  2  0  0  0  0  0  0  0  0  0
  188.2550  177.3030  140.4940 C   0  0  2  0  0  3  0  0  0  0  0  0
  186.4280  178.2060  139.4550 C   0  0  0  0  0  2  0  0  0  0  0  0
  189.6120  177.6030  141.1230 C   0  0  0  0  0  2  0  0  0  0  0  0
  188.3410  177.0850  139.0430 N   0  0  1  0  0  0  0  0  0  0  0  0
  190.8020  177.5350  139.2220 C   0  0  0  0  0  2  0  0  0  0  0  0
  187.1830  177.5390  138.4630 O   0  0  0  0  0  0  0  0  0  0  0  0
  190.5840  176.8650  140.4400 O   0  0  0  0  0  0  0  0  0  0  0  0
  189.6970  177.0910  137.0060 C   0  0  0  0  0  2  0  0  0  0  0  0
  188.9940  177.8230  135.8610 C   0  0  1  0  0  3  0  0  0  0  0  0
  189.8680  177.9590  134.7990 F   0  0  0  0  0  0  0  0  0  0  0  0
  187.7740  177.0860  135.4120 C   0  0  0  0  0  0  0  0  0  0  0  0
  185.2880  177.0690  135.3010 C   0  0  0  0  0  2  0  0  0  0  0  0
  186.6230  175.0460  134.9120 C   0  0  0  0  0  3  0  0  0  0  0  0
  185.4290  175.6410  134.8550 C   0  0  0  0  0  3  0  0  0  0  0  0
  187.7860  175.7860  135.3170 N   0  0  0  0  0  0  0  0  0  0  0  0
  186.5580  177.8640  134.9890 C   0  0  0  0  0  2  0  0  0  0  0  0
  1  7  1  0  0  0  0
  2 11  1  1  0  0  0
  2 12  1  0  0  0  0
  3 14  1  0  0  0  0
  4  1  2  0  0  0  0
  4  8  1  0  0  0  0
  5  1  1  0  0  0  0
  6  3  1  0  0  0  0
  7  3  2  0  0  0  0
  8  6  2  0  0  0  0
  9 24  1  1  0  0  0
  9 10  1  0  0  0  0
  9 13  1  0  0  0  0
 10  6  1  6  0  0  0
 10  2  1  0  0  0  0
 12 15  1  1  0  0  0
 13 12  1  0  0  0  0
 14 11  1  0  0  0  0
 15 16  1  0  0  0  0
 16 21  1  0  0  0  0
 17 20  1  0  0  0  0
 17 22  1  0  0  0  0
 19 18  1  0  0  0  0
 20 21  1  0  0  0  0
 21 23  1  0  0  0  0
 22 19  1  0  0  0  0
 23 18  1  0  0  0  0
 25 24  1  1  0  0  0
 27 26  1  6  0  0  0
 27 31  1  0  0  0  0
 27 32  1  0  0  0  0
 28 25  1  0  0  0  0
 28 30  1  6  0  0  0
 29 25  1  0  0  0  0
 31 33  1  6  0  0  0
 31 28  1  0  0  0  0
 32 34  1  0  0  0  0
 33 29  1  0  0  0  0
 34 30  1  0  0  0  0
 35 27  1  0  0  0  0
 36 37  1  6  0  0  0
 36 35  1  0  0  0  0
 38 36  1  0  0  0  0
 40 42  1  0  0  0  0
 41 40  2  0  0  0  0
 41 39  1  0  0  0  0
 42 38  2  0  0  0  0
 43 39  1  0  0  0  0
 43 38  1  0  0  0  0
M  END
>  <MODEL>
5

>  <REMARK>
 VINA RESULT:      -8.6      2.173      6.893
  Name = 
  8 active torsions:
  status: ('A' for Active; 'I' for Inactive)
    1  A    between atoms: C_1  and  C_28
    2  A    between atoms: C_1  and  C_34
    3  A    between atoms: C_2  and  C_13
    4  A    between atoms: C_4  and  C_22
    5  A    between atoms: C_11  and  C_14
    6  A    between atoms: C_13  and  C_27
    7  A    between atoms: C_14  and  C_22
    8  A    between atoms: C_28  and  C_35
                            x       y       z     vdW  Elec       q    Type
                         _______ _______ _______ _____ _____    ______ ____

>  <TORSDO>
F 8

$$$$
=
 OpenBabel11052416323D

 43 49  0  0  1  0  0  0  0  0999 V2000
  185.2450  178.5340  145.1840 C   0  0  0  0  0  0  0  0  0  0  0  0
  181.8260  178.3780  141.5070 C   0  0  1  0  0  3  0  0  0  0  0  0
  183.2380  178.9090  143.8720 C   0  0  0  0  0  0  0  0  0  0  0  0
  185.9620  178.2500  144.0190 C   0  0  0  0  0  3  0  0  0  0  0  0
  185.9270  178.4890  146.5020 C   0  0  0  0  0  1  0  0  0  0  0  0
  183.9590  178.5950  142.6910 C   0  0  0  0  0  0  0  0  0  0  0  0
  183.8880  178.8610  145.1090 C   0  0  0  0  0  3  0  0  0  0  0  0
  185.3220  178.2900  142.7770 C   0  0  0  0  0  3  0  0  0  0  0  0
  183.7590  177.9070  140.1890 C   0  0  1  0  0  3  0  0  0  0  0  0
  183.2740  178.7520  141.3610 C   0  0  1  0  0  3  0  0  0  0  0  0
  181.1490  179.3650  142.4430 C   0  0  0  0  0  2  0  0  0  0  0  0
  181.3120  178.2340  140.0920 C   0  0  2  0  0  3  0  0  0  0  0  0
  182.4960  177.5680  139.3900 C   0  0  0  0  0  2  0  0  0  0  0  0
  181.7500  179.2060  143.8500 C   0  0  0  0  0  2  0  0  0  0  0  0
  181.0100  179.5970  139.4590 C   0  0  0  0  0  2  0  0  0  0  0  0
  180.8030  179.4880  137.9540 C   0  0  0  0  0  2  0  0  0  0  0  0
  180.4960  183.3210  137.7350 C   0  0  0  0  0  2  0  0  0  0  0  0
  179.9550  181.9410  135.1780 C   0  0  0  0  0  2  0  0  0  0  0  0
  180.5830  183.3380  135.1840 C   0  0  0  0  0  2  0  0  0  0  0  0
  180.9890  181.9510  138.1830 C   0  0  0  0  0  2  0  0  0  0  0  0
  180.3800  180.8220  137.3580 C   0  0  0  0  0  3  0  0  0  0  0  0
  181.2610  183.7570  136.4940 C   0  0  0  0  0  2  0  0  0  0  0  0
  180.8030  180.9010  135.8940 C   0  0  0  0  0  2  0  0  0  0  0  0
  184.6770  178.7280  139.2920 C   0  0  0  0  0  2  0  0  0  0  0  0
  185.8150  177.8870  138.7390 C   0  0  1  0  0  3  0  0  0  0  0  0
  187.9100  175.6840  137.5450 C   0  0  0  0  0  1  0  0  0  0  0  0
  188.0590  176.8760  136.5970 C   0  0  2  0  0  0  0  0  0  0  0  0
  186.1610  178.2950  137.3550 C   0  0  2  0  0  3  0  0  0  0  0  0
  187.0940  178.2300  139.4430 C   0  0  0  0  0  2  0  0  0  0  0  0
  185.4090  177.4950  136.2960 C   0  0  0  0  0  2  0  0  0  0  0  0
  187.6180  178.1390  137.2520 N   0  0  1  0  0  0  0  0  0  0  0  0
  187.2140  176.5710  135.3350 C   0  0  0  0  0  2  0  0  0  0  0  0
  188.1570  178.2140  138.5110 O   0  0  0  0  0  0  0  0  0  0  0  0
  186.1730  177.4930  135.1240 O   0  0  0  0  0  0  0  0  0  0  0  0
  189.5320  177.0420  136.1920 C   0  0  0  0  0  2  0  0  0  0  0  0
  190.2810  175.7290  135.9500 C   0  0  1  0  0  3  0  0  0  0  0  0
  190.5070  175.5740  134.5950 F   0  0  0  0  0  0  0  0  0  0  0  0
  191.5840  175.7040  136.6800 C   0  0  0  0  0  0  0  0  0  0  0  0
  193.5260  174.3270  137.4040 C   0  0  0  0  0  2  0  0  0  0  0  0
  193.0400  176.5190  138.3990 C   0  0  0  0  0  3  0  0  0  0  0  0
  193.8960  175.5020  138.2650 C   0  0  0  0  0  3  0  0  0  0  0  0
  191.8080  176.5330  137.6610 N   0  0  0  0  0  0  0  0  0  0  0  0
  192.6690  174.7710  136.2160 C   0  0  0  0  0  2  0  0  0  0  0  0
  1  5  1  0  0  0  0
  2 11  1  6  0  0  0
  3  7  2  0  0  0  0
  4  1  2  0  0  0  0
  6  8  2  0  0  0  0
  6  3  1  0  0  0  0
  7  1  1  0  0  0  0
  8  4  1  0  0  0  0
  9 24  1  6  0  0  0
  9 10  1  0  0  0  0
 10  2  1  0  0  0  0
 10  6  1  1  0  0  0
 11 14  1  0  0  0  0
 12 15  1  6  0  0  0
 12  2  1  0  0  0  0
 13 12  1  0  0  0  0
 13  9  1  0  0  0  0
 14  3  1  0  0  0  0
 16 15  1  0  0  0  0
 17 20  1  0  0  0  0
 18 19  1  0  0  0  0
 18 23  1  0  0  0  0
 19 22  1  0  0  0  0
 21 16  1  0  0  0  0
 21 20  1  0  0  0  0
 22 17  1  0  0  0  0
 23 21  1  0  0  0  0
 25 24  1  1  0  0  0
 25 29  1  0  0  0  0
 27 31  1  0  0  0  0
 27 26  1  1  0  0  0
 28 30  1  6  0  0  0
 28 25  1  0  0  0  0
 31 28  1  0  0  0  0
 31 33  1  1  0  0  0
 32 27  1  0  0  0  0
 33 29  1  0  0  0  0
 34 32  1  0  0  0  0
 34 30  1  0  0  0  0
 35 27  1  0  0  0  0
 36 37  1  6  0  0  0
 36 35  1  0  0  0  0
 36 38  1  0  0  0  0
 38 42  2  0  0  0  0
 39 41  1  0  0  0  0
 41 40  2  0  0  0  0
 42 40  1  0  0  0  0
 43 38  1  0  0  0  0
 43 39  1  0  0  0  0
M  END
>  <MODEL>
6

>  <REMARK>
 VINA RESULT:      -8.6      2.937      5.362
  Name = 
  8 active torsions:
  status: ('A' for Active; 'I' for Inactive)
    1  A    between atoms: C_1  and  C_28
    2  A    between atoms: C_1  and  C_34
    3  A    between atoms: C_2  and  C_13
    4  A    between atoms: C_4  and  C_22
    5  A    between atoms: C_11  and  C_14
    6  A    between atoms: C_13  and  C_27
    7  A    between atoms: C_14  and  C_22
    8  A    between atoms: C_28  and  C_35
                            x       y       z     vdW  Elec       q    Type
                         _______ _______ _______ _____ _____    ______ ____

>  <TORSDO>
F 8

$$$$
=
 OpenBabel11052416323D

 43 49  0  0  1  0  0  0  0  0999 V2000
  190.5800  176.6690  136.0340 C   0  0  0  0  0  0  0  0  0  0  0  0
  190.8320  176.7030  141.0510 C   0  0  1  0  0  3  0  0  0  0  0  0
  191.4070  176.8440  138.3100 C   0  0  0  0  0  0  0  0  0  0  0  0
  189.2910  176.9850  136.4710 C   0  0  0  0  0  3  0  0  0  0  0  0
  190.8310  176.4090  134.5940 C   0  0  0  0  0  1  0  0  0  0  0  0
  190.0940  177.1400  138.7570 C   0  0  0  0  0  0  0  0  0  0  0  0
  191.6320  176.5980  136.9510 C   0  0  0  0  0  3  0  0  0  0  0  0
  189.0520  177.2280  137.8260 C   0  0  0  0  0  3  0  0  0  0  0  0
  188.5190  177.2480  140.8270 C   0  0  1  0  0  3  0  0  0  0  0  0
  189.8850  177.5040  140.2020 C   0  0  1  0  0  3  0  0  0  0  0  0
  192.2590  177.1070  140.7210 C   0  0  0  0  0  2  0  0  0  0  0  0
  190.3280  176.8710  142.4670 C   0  0  2  0  0  3  0  0  0  0  0  0
  188.8120  176.8300  142.2720 C   0  0  0  0  0  2  0  0  0  0  0  0
  192.5690  176.6920  139.2730 C   0  0  0  0  0  2  0  0  0  0  0  0
  190.7560  178.2160  143.0640 C   0  0  0  0  0  2  0  0  0  0  0  0
  191.1570  178.0840  144.5280 C   0  0  0  0  0  2  0  0  0  0  0  0
  189.4740  176.6090  147.6630 C   0  0  0  0  0  2  0  0  0  0  0  0
  187.5560  177.5640  145.6250 C   0  0  0  0  0  2  0  0  0  0  0  0
  187.2010  177.6340  147.1130 C   0  0  0  0  0  2  0  0  0  0  0  0
  190.5010  177.3300  146.7980 C   0  0  0  0  0  2  0  0  0  0  0  0
  190.0280  177.4920  145.3570 C   0  0  0  0  0  3  0  0  0  0  0  0
  188.3880  177.5880  148.0840 C   0  0  0  0  0  2  0  0  0  0  0  0
  188.7900  178.3790  145.2670 C   0  0  0  0  0  2  0  0  0  0  0  0
  187.7080  178.5360  140.8650 C   0  0  0  0  0  2  0  0  0  0  0  0
  186.2390  178.2800  140.5750 C   0  0  1  0  0  3  0  0  0  0  0  0
  183.1550  177.2680  140.2010 C   0  0  0  0  0  1  0  0  0  0  0  0
  183.0060  178.6800  140.7730 C   0  0  2  0  0  0  0  0  0  0  0  0
  185.3690  179.1720  141.3800 C   0  0  2  0  0  3  0  0  0  0  0  0
  185.8990  178.7560  139.1950 C   0  0  0  0  0  2  0  0  0  0  0  0
  184.9420  178.5470  142.7050 C   0  0  0  0  0  2  0  0  0  0  0  0
  184.2270  179.4940  140.5140 N   0  0  1  0  0  0  0  0  0  0  0  0
  182.7370  178.5370  142.2920 C   0  0  0  0  0  2  0  0  0  0  0  0
  184.6110  179.3390  139.2060 O   0  0  0  0  0  0  0  0  0  0  0  0
  183.7310  179.1280  143.0940 O   0  0  0  0  0  0  0  0  0  0  0  0
  181.8140  179.3890  140.1120 C   0  0  0  0  0  2  0  0  0  0  0  0
  181.3930  178.8080  138.7610 C   0  0  1  0  0  3  0  0  0  0  0  0
  180.1920  178.1380  138.9040 F   0  0  0  0  0  0  0  0  0  0  0  0
  181.2460  179.8790  137.7300 C   0  0  0  0  0  0  0  0  0  0  0  0
  180.6540  182.2540  137.2800 C   0  0  0  0  0  2  0  0  0  0  0  0
  180.7800  180.5810  135.4880 C   0  0  0  0  0  3  0  0  0  0  0  0
  180.6770  181.8680  135.8280 C   0  0  0  0  0  3  0  0  0  0  0  0
  180.9510  179.5740  136.4970 N   0  0  0  0  0  0  0  0  0  0  0  0
  181.5270  181.3080  138.1080 C   0  0  0  0  0  2  0  0  0  0  0  0
  1  4  2  0  0  0  0
  1  7  1  0  0  0  0
  2 11  1  1  0  0  0
  2 12  1  0  0  0  0
  3  6  1  0  0  0  0
  3 14  1  0  0  0  0
  4  8  1  0  0  0  0
  5  1  1  0  0  0  0
  7  3  2  0  0  0  0
  8  6  2  0  0  0  0
  9 24  1  1  0  0  0
  9 13  1  0  0  0  0
 10  6  1  6  0  0  0
 10  9  1  0  0  0  0
 10  2  1  0  0  0  0
 12 15  1  6  0  0  0
 13 12  1  0  0  0  0
 14 11  1  0  0  0  0
 15 16  1  0  0  0  0
 16 21  1  0  0  0  0
 17 22  1  0  0  0  0
 18 19  1  0  0  0  0
 19 22  1  0  0  0  0
 20 17  1  0  0  0  0
 21 20  1  0  0  0  0
 23 21  1  0  0  0  0
 23 18  1  0  0  0  0
 25 24  1  1  0  0  0
 25 28  1  0  0  0  0
 27 26  1  6  0  0  0
 27 32  1  0  0  0  0
 28 30  1  1  0  0  0
 29 33  1  0  0  0  0
 29 25  1  0  0  0  0
 30 34  1  0  0  0  0
 31 33  1  6  0  0  0
 31 27  1  0  0  0  0
 31 28  1  0  0  0  0
 32 34  1  0  0  0  0
 35 27  1  0  0  0  0
 36 37  1  1  0  0  0
 36 35  1  0  0  0  0
 38 43  1  0  0  0  0
 38 36  1  0  0  0  0
 39 43  1  0  0  0  0
 40 41  2  0  0  0  0
 40 42  1  0  0  0  0
 41 39  1  0  0  0  0
 42 38  2  0  0  0  0
M  END
>  <MODEL>
7

>  <REMARK>
 VINA RESULT:      -8.6      3.454      8.842
  Name = 
  8 active torsions:
  status: ('A' for Active; 'I' for Inactive)
    1  A    between atoms: C_1  and  C_28
    2  A    between atoms: C_1  and  C_34
    3  A    between atoms: C_2  and  C_13
    4  A    between atoms: C_4  and  C_22
    5  A    between atoms: C_11  and  C_14
    6  A    between atoms: C_13  and  C_27
    7  A    between atoms: C_14  and  C_22
    8  A    between atoms: C_28  and  C_35
                            x       y       z     vdW  Elec       q    Type
                         _______ _______ _______ _____ _____    ______ ____

>  <TORSDO>
F 8

$$$$
=
 OpenBabel11052416323D

 43 49  0  0  1  0  0  0  0  0999 V2000
  181.5020  178.1560  139.1580 C   0  0  0  0  0  0  0  0  0  0  0  0
  183.3940  179.4280  143.6340 C   0  0  1  0  0  3  0  0  0  0  0  0
  181.7320  178.5920  141.5350 C   0  0  0  0  0  0  0  0  0  0  0  0
  182.8780  177.9390  139.0570 C   0  0  0  0  0  3  0  0  0  0  0  0
  180.6420  178.0380  137.9520 C   0  0  0  0  0  1  0  0  0  0  0  0
  183.1330  178.3980  141.4270 C   0  0  0  0  0  0  0  0  0  0  0  0
  180.9330  178.4820  140.3920 C   0  0  0  0  0  3  0  0  0  0  0  0
  183.6880  178.0510  140.1900 C   0  0  0  0  0  3  0  0  0  0  0  0
  185.4370  178.8000  142.5710 C   0  0  1  0  0  3  0  0  0  0  0  0
  183.9660  178.4170  142.6810 C   0  0  1  0  0  3  0  0  0  0  0  0
  182.0060  178.9800  144.0620 C   0  0  0  0  0  2  0  0  0  0  0  0
  184.4620  179.6240  144.6870 C   0  0  2  0  0  3  0  0  0  0  0  0
  185.7420  179.5840  143.8520 C   0  0  0  0  0  2  0  0  0  0  0  0
  181.0760  179.0110  142.8370 C   0  0  0  0  0  2  0  0  0  0  0  0
  184.4560  178.4880  145.7150 C   0  0  0  0  0  2  0  0  0  0  0  0
  185.1330  178.8990  147.0170 C   0  0  0  0  0  2  0  0  0  0  0  0
  188.3180  176.9720  146.0290 C   0  0  0  0  0  2  0  0  0  0  0  0
  188.3040  177.8780  148.8440 C   0  0  0  0  0  2  0  0  0  0  0  0
  189.6230  177.7750  148.0710 C   0  0  0  0  0  2  0  0  0  0  0  0
  187.0990  177.8780  145.9030 C   0  0  0  0  0  2  0  0  0  0  0  0
  186.4140  178.1120  147.2450 C   0  0  0  0  0  3  0  0  0  0  0  0
  189.5010  177.7790  146.5430 C   0  0  0  0  0  2  0  0  0  0  0  0
  187.3210  178.8560  148.2200 C   0  0  0  0  0  2  0  0  0  0  0  0
  186.3070  177.5500  142.5650 C   0  0  0  0  0  2  0  0  0  0  0  0
  187.7680  177.8870  142.3220 C   0  0  1  0  0  3  0  0  0  0  0  0
  190.9310  178.7030  142.3210 C   0  0  0  0  0  1  0  0  0  0  0  0
  190.8980  177.3800  141.5520 C   0  0  2  0  0  0  0  0  0  0  0  0
  188.5480  176.6760  141.9680 C   0  0  2  0  0  3  0  0  0  0  0  0
  187.9080  178.6720  141.0520 C   0  0  0  0  0  2  0  0  0  0  0  0
  189.1810  176.0020  143.1810 C   0  0  0  0  0  2  0  0  0  0  0  0
  189.5450  177.1230  140.9850 N   0  0  1  0  0  0  0  0  0  0  0  0
  191.3150  176.2620  142.5400 C   0  0  0  0  0  2  0  0  0  0  0  0
  189.0800  178.2620  140.3780 O   0  0  0  0  0  0  0  0  0  0  0  0
  190.3110  175.2990  142.7510 O   0  0  0  0  0  0  0  0  0  0  0  0
  191.8990  177.4250  140.3870 C   0  0  0  0  0  2  0  0  0  0  0  0
  191.4140  176.7530  139.1000 C   0  0  1  0  0  3  0  0  0  0  0  0
  190.9310  177.7160  138.2340 F   0  0  0  0  0  0  0  0  0  0  0  0
  192.5140  175.9920  138.4370 C   0  0  0  0  0  0  0  0  0  0  0  0
  193.1170  174.0390  137.0160 C   0  0  0  0  0  2  0  0  0  0  0  0
  194.7910  175.2550  138.3380 C   0  0  0  0  0  3  0  0  0  0  0  0
  194.5390  174.3470  137.3920 C   0  0  0  0  0  3  0  0  0  0  0  0
  193.7170  175.9960  138.9380 N   0  0  0  0  0  0  0  0  0  0  0  0
  192.2410  175.2880  137.1350 C   0  0  0  0  0  2  0  0  0  0  0  0
  1  7  1  0  0  0  0
  2 11  1  1  0  0  0
  2 12  1  0  0  0  0
  3 14  1  0  0  0  0
  4  1  2  0  0  0  0
  4  8  1  0  0  0  0
  5  1  1  0  0  0  0
  6  3  1  0  0  0  0
  7  3  2  0  0  0  0
  8  6  2  0  0  0  0
  9 24  1  1  0  0  0
  9 10  1  0  0  0  0
  9 13  1  0  0  0  0
 10  6  1  6  0  0  0
 10  2  1  0  0  0  0
 12 15  1  1  0  0  0
 13 12  1  0  0  0  0
 14 11  1  0  0  0  0
 15 16  1  0  0  0  0
 16 21  1  0  0  0  0
 17 22  1  0  0  0  0
 19 18  1  0  0  0  0
 20 17  1  0  0  0  0
 20 21  1  0  0  0  0
 21 23  1  0  0  0  0
 22 19  1  0  0  0  0
 23 18  1  0  0  0  0
 25 24  1  6  0  0  0
 27 26  1  1  0  0  0
 27 32  1  0  0  0  0
 28 25  1  0  0  0  0
 28 30  1  1  0  0  0
 29 25  1  0  0  0  0
 31 33  1  1  0  0  0
 31 27  1  0  0  0  0
 31 28  1  0  0  0  0
 32 34  1  0  0  0  0
 33 29  1  0  0  0  0
 34 30  1  0  0  0  0
 35 27  1  0  0  0  0
 36 37  1  6  0  0  0
 36 35  1  0  0  0  0
 38 42  2  0  0  0  0
 38 36  1  0  0  0  0
 39 43  1  0  0  0  0
 39 41  1  0  0  0  0
 40 42  1  0  0  0  0
 41 40  2  0  0  0  0
 43 38  1  0  0  0  0
M  END
>  <MODEL>
8

>  <REMARK>
 VINA RESULT:      -8.5      1.823      6.456
  Name = 
  8 active torsions:
  status: ('A' for Active; 'I' for Inactive)
    1  A    between atoms: C_1  and  C_28
    2  A    between atoms: C_1  and  C_34
    3  A    between atoms: C_2  and  C_13
    4  A    between atoms: C_4  and  C_22
    5  A    between atoms: C_11  and  C_14
    6  A    between atoms: C_13  and  C_27
    7  A    between atoms: C_14  and  C_22
    8  A    between atoms: C_28  and  C_35
                            x       y       z     vdW  Elec       q    Type
                         _______ _______ _______ _____ _____    ______ ____

>  <TORSDO>
F 8

$$$$
=
 OpenBabel11052416323D

 43 49  0  0  1  0  0  0  0  0999 V2000
  187.1040  177.8220  144.4020 C   0  0  0  0  0  0  0  0  0  0  0  0
  182.8730  178.2020  141.7210 C   0  0  1  0  0  3  0  0  0  0  0  0
  184.8410  178.3650  143.7140 C   0  0  0  0  0  0  0  0  0  0  0  0
  187.5020  177.7520  143.0650 C   0  0  0  0  0  3  0  0  0  0  0  0
  188.0930  177.5750  145.4830 C   0  0  0  0  0  1  0  0  0  0  0  0
  185.2380  178.2680  142.3560 C   0  0  0  0  0  0  0  0  0  0  0  0
  185.7790  178.1260  144.7240 C   0  0  0  0  0  3  0  0  0  0  0  0
  186.5730  177.9830  142.0470 C   0  0  0  0  0  3  0  0  0  0  0  0
  184.4060  178.0000  139.9030 C   0  0  1  0  0  3  0  0  0  0  0  0
  184.2460  178.6280  141.2830 C   0  0  1  0  0  3  0  0  0  0  0  0
  182.4710  179.0050  142.9480 C   0  0  0  0  0  2  0  0  0  0  0  0
  182.0190  178.2840  140.4760 C   0  0  2  0  0  3  0  0  0  0  0  0
  182.9770  177.7700  139.4000 C   0  0  0  0  0  2  0  0  0  0  0  0
  183.4010  178.6280  144.1130 C   0  0  0  0  0  2  0  0  0  0  0  0
  181.5960  179.7250  140.1740 C   0  0  0  0  0  2  0  0  0  0  0  0
  180.5390  179.7880  139.0790 C   0  0  0  0  0  2  0  0  0  0  0  0
  180.8050  181.1550  135.4880 C   0  0  0  0  0  2  0  0  0  0  0  0
  181.3040  183.1910  137.5730 C   0  0  0  0  0  2  0  0  0  0  0  0
  180.6640  183.5910  136.2400 C   0  0  0  0  0  2  0  0  0  0  0  0
  180.3340  180.3050  136.6610 C   0  0  0  0  0  2  0  0  0  0  0  0
  180.9360  180.7660  137.9840 C   0  0  0  0  0  3  0  0  0  0  0  0
  180.0100  182.4520  135.4480 C   0  0  0  0  0  2  0  0  0  0  0  0
  180.4810  182.1760  138.3510 C   0  0  0  0  0  2  0  0  0  0  0  0
  185.0870  178.9780  138.9560 C   0  0  0  0  0  2  0  0  0  0  0  0
  185.8050  178.2560  137.8280 C   0  0  1  0  0  3  0  0  0  0  0  0
  187.4020  177.1840  135.1870 C   0  0  0  0  0  1  0  0  0  0  0  0
  188.1590  176.5440  136.3540 C   0  0  2  0  0  0  0  0  0  0  0  0
  187.1210  177.7370  138.2750 C   0  0  2  0  0  3  0  0  0  0  0  0
  185.1050  176.9670  137.5180 C   0  0  0  0  0  2  0  0  0  0  0  0
  188.2630  178.7160  138.0170 C   0  0  0  0  0  2  0  0  0  0  0  0
  187.3020  176.4620  137.5690 N   0  0  1  0  0  0  0  0  0  0  0  0
  189.4210  177.4050  136.6130 C   0  0  0  0  0  2  0  0  0  0  0  0
  186.0660  175.9740  137.2240 O   0  0  0  0  0  0  0  0  0  0  0  0
  189.4490  177.9840  137.8950 O   0  0  0  0  0  0  0  0  0  0  0  0
  188.5880  175.1170  135.9790 C   0  0  0  0  0  2  0  0  0  0  0  0
  189.2130  174.3150  137.1230 C   0  0  1  0  0  3  0  0  0  0  0  0
  188.5880  173.0850  137.2160 F   0  0  0  0  0  0  0  0  0  0  0  0
  190.6780  174.1160  136.9120 C   0  0  0  0  0  0  0  0  0  0  0  0
  192.4530  172.6580  135.9540 C   0  0  0  0  0  2  0  0  0  0  0  0
  192.9550  174.4160  137.5940 C   0  0  0  0  0  3  0  0  0  0  0  0
  193.4180  173.5240  136.7140 C   0  0  0  0  0  3  0  0  0  0  0  0
  191.5410  174.6100  137.7550 N   0  0  0  0  0  0  0  0  0  0  0  0
  191.1530  173.4140  135.6690 C   0  0  0  0  0  2  0  0  0  0  0  0
  1  7  1  0  0  0  0
  1  5  1  0  0  0  0
  2 11  1  1  0  0  0
  3 14  1  0  0  0  0
  3  7  2  0  0  0  0
  4  1  2  0  0  0  0
  6  3  1  0  0  0  0
  8  6  2  0  0  0  0
  8  4  1  0  0  0  0
  9 24  1  6  0  0  0
  9 10  1  0  0  0  0
 10  2  1  0  0  0  0
 10  6  1  1  0  0  0
 11 14  1  0  0  0  0
 12 15  1  6  0  0  0
 12  2  1  0  0  0  0
 13  9  1  0  0  0  0
 13 12  1  0  0  0  0
 16 15  1  0  0  0  0
 17 20  1  0  0  0  0
 18 23  1  0  0  0  0
 19 18  1  0  0  0  0
 20 21  1  0  0  0  0
 21 23  1  0  0  0  0
 21 16  1  0  0  0  0
 22 17  1  0  0  0  0
 22 19  1  0  0  0  0
 25 28  1  0  0  0  0
 25 24  1  1  0  0  0
 27 26  1  6  0  0  0
 27 32  1  0  0  0  0
 27 31  1  0  0  0  0
 28 30  1  6  0  0  0
 29 25  1  0  0  0  0
 31 33  1  6  0  0  0
 31 28  1  0  0  0  0
 32 34  1  0  0  0  0
 33 29  1  0  0  0  0
 34 30  1  0  0  0  0
 35 27  1  0  0  0  0
 35 36  1  0  0  0  0
 36 37  1  6  0  0  0
 38 36  1  0  0  0  0
 38 42  2  0  0  0  0
 39 41  1  0  0  0  0
 40 42  1  0  0  0  0
 41 40  2  0  0  0  0
 43 39  1  0  0  0  0
 43 38  1  0  0  0  0
M  END
>  <MODEL>
9

>  <REMARK>
 VINA RESULT:      -8.1      2.954      4.935
  Name = 
  8 active torsions:
  status: ('A' for Active; 'I' for Inactive)
    1  A    between atoms: C_1  and  C_28
    2  A    between atoms: C_1  and  C_34
    3  A    between atoms: C_2  and  C_13
    4  A    between atoms: C_4  and  C_22
    5  A    between atoms: C_11  and  C_14
    6  A    between atoms: C_13  and  C_27
    7  A    between atoms: C_14  and  C_22
    8  A    between atoms: C_28  and  C_35
                            x       y       z     vdW  Elec       q    Type
                         _______ _______ _______ _____ _____    ______ ____

>  <TORSDO>
F 8

$$$$
