=
 OpenBabel11052414333D

 32 38  0  0  1  0  0  0  0  0999 V2000
  189.9240  177.2540  142.4230 C   0  0  0  0  0  0  0  0  0  0  0  0
  188.1460  177.7990  144.0140 C   0  0  1  0  0  3  0  0  0  0  0  0
  191.0600  177.9630  142.4220 C   0  0  0  0  0  3  0  0  0  0  0  0
  189.2820  176.8450  143.7070 C   0  0  2  0  0  3  0  0  0  0  0  0
  187.0140  178.6000  146.1710 C   0  0  2  0  0  3  0  0  0  0  0  0
  183.4250  178.6650  142.2280 C   0  0  0  0  0  2  0  0  0  0  0  0
  187.0710  177.6020  142.9060 C   0  0  2  0  0  3  0  0  0  0  0  0
  183.8110  179.2000  144.3740 C   0  0  0  0  0  2  0  0  0  0  0  0
  185.1940  178.5460  144.4380 C   0  0  2  0  0  3  0  0  0  0  0  0
  190.2190  176.7480  144.9000 C   0  0  2  0  0  3  0  0  0  0  0  0
  186.0820  179.4260  145.2950 C   0  0  0  0  0  2  0  0  0  0  0  0
  189.2150  176.9910  146.3910 S   0  0  0  0  0  0  0  0  0  0  0  0
  191.3550  177.7350  144.8430 C   0  0  0  0  0  3  0  0  0  0  0  0
  187.6920  177.9140  141.5200 C   0  0  0  0  0  2  0  0  0  0  0  0
  189.0080  177.1510  141.2380 C   0  0  1  0  0  3  0  0  0  0  0  0
  185.7930  178.4580  143.0260 C   0  0  2  0  0  3  0  0  0  0  0  0
  187.7140  177.4460  145.4380 C   0  0  2  0  0  3  0  0  0  0  0  0
  191.7670  178.2550  143.6830 C   0  0  0  0  0  3  0  0  0  0  0  0
  182.9610  178.4600  143.5370 O   0  0  0  0  0  0  0  0  0  0  0  0
  184.7470  177.9290  142.0350 C   0  0  0  0  0  2  0  0  0  0  0  0
  188.9320  176.6510  137.8900 C   0  0  1  0  0  0  0  0  0  0  0  0
  187.7840  175.8880  137.3790 C   0  0  0  0  0  2  0  0  0  0  0  0
  190.2000  175.9110  138.1560 C   0  0  2  0  0  3  0  0  0  0  0  0
  189.6530  177.5010  139.9590 N   0  0  1  0  0  0  0  0  0  0  0  0
  188.4900  176.8110  136.5660 O   0  0  0  0  0  0  0  0  0  0  0  0
  190.5240  176.3720  139.5740 C   0  0  0  0  0  2  0  0  0  0  0  0
  188.6670  177.7290  138.8930 C   0  0  1  0  0  3  0  0  0  0  0  0
  188.9010  179.0990  138.2780 C   0  0  0  0  0  1  0  0  0  0  0  0
  192.3640  176.7130  137.6620 O   0  0  0  0  0  0  0  0  0  0  0  0
  191.2790  176.3650  137.2250 C   0  0  0  0  0  3  0  0  0  0  0  0
  186.2410  178.0780  147.3740 C   0  0  0  0  0  2  0  0  0  0  0  0
  187.0700  178.2320  148.6330 C   0  0  0  0  0  1  0  0  0  0  0  0
  1  4  1  0  0  0  0
  2 17  1  0  0  0  0
  3  1  2  0  0  0  0
  3 18  1  0  0  0  0
  4  2  1  0  0  0  0
  4 10  1  0  0  0  0
  5 31  1  0  0  0  0
  6 19  1  0  0  0  0
  7 16  1  0  0  0  0
  7  2  1  0  0  0  0
  8  9  1  0  0  0  0
  9 11  1  0  0  0  0
 10 12  1  0  0  0  0
 11  5  1  0  0  0  0
 13 10  1  0  0  0  0
 14  7  1  0  0  0  0
 15 14  1  0  0  0  0
 15  1  1  0  0  0  0
 16  9  1  0  0  0  0
 17  5  1  0  0  0  0
 17 12  1  0  0  0  0
 18 13  2  0  0  0  0
 19  8  1  0  0  0  0
 20  6  1  0  0  0  0
 20 16  1  0  0  0  0
 21 23  1  0  0  0  0
 21 27  1  0  0  0  0
 22 21  1  0  0  0  0
 23 26  1  0  0  0  0
 24 15  1  0  0  0  0
 25 22  1  0  0  0  0
 25 21  1  0  0  0  0
 26 24  1  0  0  0  0
 27 24  1  0  0  0  0
 28 27  1  0  0  0  0
 30 29  2  0  0  0  0
 30 23  1  0  0  0  0
 31 32  1  0  0  0  0
M  END
>  <MODEL>
1

>  <REMARK>
 VINA RESULT:      -9.0      0.000      0.000
  Name = 
  3 active torsions:
  status: ('A' for Active; 'I' for Inactive)
    1  A    between atoms: C_6  and  C_13
    2  A    between atoms: C_15  and  C_26
    3  A    between atoms: N_16  and  C_27
                            x       y       z     vdW  Elec       q    Type
                         _______ _______ _______ _____ _____    ______ ____

>  <TORSDO>
F 3

$$$$
=
 OpenBabel11052414333D

 32 38  0  0  1  0  0  0  0  0999 V2000
  185.8320  178.3670  139.7180 C   0  0  0  0  0  0  0  0  0  0  0  0
  186.4130  178.1740  142.0870 C   0  0  1  0  0  3  0  0  0  0  0  0
  184.8470  177.6160  139.2080 C   0  0  0  0  0  3  0  0  0  0  0  0
  185.6850  179.0110  141.0560 C   0  0  2  0  0  3  0  0  0  0  0  0
  186.1310  177.7920  144.6070 C   0  0  2  0  0  3  0  0  0  0  0  0
  191.2860  177.2430  143.3590 C   0  0  0  0  0  2  0  0  0  0  0  0
  187.9280  178.2340  141.7380 C   0  0  2  0  0  3  0  0  0  0  0  0
  189.7580  177.0520  144.9920 C   0  0  0  0  0  2  0  0  0  0  0  0
  188.6030  177.6430  144.1790 C   0  0  2  0  0  3  0  0  0  0  0  0
  184.2540  179.2600  141.5030 C   0  0  2  0  0  3  0  0  0  0  0  0
  187.3450  176.8760  144.5360 C   0  0  0  0  0  2  0  0  0  0  0  0
  184.2600  179.3120  143.3160 S   0  0  0  0  0  0  0  0  0  0  0  0
  183.2840  178.2260  140.9920 C   0  0  0  0  0  3  0  0  0  0  0  0
  188.1550  177.6710  140.3120 C   0  0  0  0  0  2  0  0  0  0  0  0
  187.2520  178.3150  139.2330 C   0  0  1  0  0  3  0  0  0  0  0  0
  188.8830  177.4700  142.6770 C   0  0  2  0  0  3  0  0  0  0  0  0
  186.0110  178.7760  143.4340 C   0  0  2  0  0  3  0  0  0  0  0  0
  183.5500  177.5040  139.9000 C   0  0  0  0  0  3  0  0  0  0  0  0
  190.9660  177.6820  144.6530 O   0  0  0  0  0  0  0  0  0  0  0  0
  190.3280  177.8760  142.3540 C   0  0  0  0  0  2  0  0  0  0  0  0
  189.2980  176.5180  137.2200 C   0  0  1  0  0  0  0  0  0  0  0  0
  190.4950  175.9520  137.8600 C   0  0  0  0  0  2  0  0  0  0  0  0
  189.4390  177.8210  136.5070 C   0  0  2  0  0  3  0  0  0  0  0  0
  187.3970  177.7290  137.8880 N   0  0  1  0  0  0  0  0  0  0  0  0
  189.9230  175.3740  136.6980 O   0  0  0  0  0  0  0  0  0  0  0  0
  188.2840  178.6170  137.1080 C   0  0  0  0  0  2  0  0  0  0  0  0
  187.9910  176.3850  137.9370 C   0  0  1  0  0  3  0  0  0  0  0  0
  187.0820  175.4090  137.2100 C   0  0  0  0  0  1  0  0  0  0  0  0
  188.0760  177.5800  134.5940 O   0  0  0  0  0  0  0  0  0  0  0  0
  189.2110  177.6440  135.0390 C   0  0  0  0  0  3  0  0  0  0  0  0
  186.1440  178.5400  145.9330 C   0  0  0  0  0  2  0  0  0  0  0  0
  184.9080  178.1920  146.7390 C   0  0  0  0  0  1  0  0  0  0  0  0
  1  4  1  0  0  0  0
  2 17  1  0  0  0  0
  3  1  2  0  0  0  0
  3 18  1  0  0  0  0
  4 10  1  0  0  0  0
  4  2  1  0  0  0  0
  5 31  1  0  0  0  0
  6 19  1  0  0  0  0
  7  2  1  0  0  0  0
  7 16  1  0  0  0  0
  9 11  1  0  0  0  0
  9  8  1  0  0  0  0
 10 12  1  0  0  0  0
 11  5  1  0  0  0  0
 12 17  1  0  0  0  0
 13 10  1  0  0  0  0
 14  7  1  0  0  0  0
 15  1  1  0  0  0  0
 15 14  1  0  0  0  0
 16  9  1  0  0  0  0
 17  5  1  0  0  0  0
 18 13  2  0  0  0  0
 19  8  1  0  0  0  0
 20 16  1  0  0  0  0
 20  6  1  0  0  0  0
 21 22  1  0  0  0  0
 21 27  1  0  0  0  0
 23 26  1  0  0  0  0
 23 21  1  0  0  0  0
 24 27  1  0  0  0  0
 24 15  1  0  0  0  0
 25 21  1  0  0  0  0
 25 22  1  0  0  0  0
 26 24  1  0  0  0  0
 28 27  1  0  0  0  0
 29 30  2  0  0  0  0
 30 23  1  0  0  0  0
 31 32  1  0  0  0  0
M  END
>  <MODEL>
2

>  <REMARK>
 VINA RESULT:      -8.5      2.326      4.799
  Name = 
  3 active torsions:
  status: ('A' for Active; 'I' for Inactive)
    1  A    between atoms: C_6  and  C_13
    2  A    between atoms: C_15  and  C_26
    3  A    between atoms: N_16  and  C_27
                            x       y       z     vdW  Elec       q    Type
                         _______ _______ _______ _____ _____    ______ ____

>  <TORSDO>
F 3

$$$$
=
 OpenBabel11052414333D

 32 38  0  0  1  0  0  0  0  0999 V2000
  183.8560  179.0470  142.6820 C   0  0  0  0  0  0  0  0  0  0  0  0
  186.0490  178.3340  143.5030 C   0  0  1  0  0  3  0  0  0  0  0  0
  182.7480  178.4320  143.1160 C   0  0  0  0  0  3  0  0  0  0  0  0
  184.9620  179.3820  143.6270 C   0  0  2  0  0  3  0  0  0  0  0  0
  187.8350  177.4090  145.0930 C   0  0  2  0  0  3  0  0  0  0  0  0
  189.6750  177.1180  140.0960 C   0  0  0  0  0  2  0  0  0  0  0  0
  186.6440  178.4610  142.0700 C   0  0  2  0  0  3  0  0  0  0  0  0
  190.0750  176.5810  142.2390 C   0  0  0  0  0  2  0  0  0  0  0  0
  188.8740  177.3430  142.8050 C   0  0  2  0  0  3  0  0  0  0  0  0
  184.5490  179.5340  145.0820 C   0  0  2  0  0  3  0  0  0  0  0  0
  188.3020  176.5240  143.9450 C   0  0  0  0  0  2  0  0  0  0  0  0
  186.0140  179.1870  146.0940 S   0  0  0  0  0  0  0  0  0  0  0  0
  183.3980  178.6440  145.4680 C   0  0  0  0  0  3  0  0  0  0  0  0
  185.5280  178.2230  141.0210 C   0  0  0  0  0  2  0  0  0  0  0  0
  184.2680  179.0950  141.2400 C   0  0  1  0  0  3  0  0  0  0  0  0
  187.8010  177.5030  141.7180 C   0  0  2  0  0  3  0  0  0  0  0  0
  187.0090  178.6280  144.6560 C   0  0  2  0  0  3  0  0  0  0  0  0
  182.5420  178.1790  144.5540 C   0  0  0  0  0  3  0  0  0  0  0  0
  190.6090  177.2630  141.1340 O   0  0  0  0  0  0  0  0  0  0  0  0
  188.4400  177.9620  140.4000 C   0  0  0  0  0  2  0  0  0  0  0  0
  183.4990  177.8060  138.2040 C   0  0  1  0  0  0  0  0  0  0  0  0
  184.5950  177.1280  137.4960 C   0  0  0  0  0  2  0  0  0  0  0  0
  183.2290  179.2340  137.8700 C   0  0  2  0  0  3  0  0  0  0  0  0
  183.1670  178.8180  140.2990 N   0  0  1  0  0  0  0  0  0  0  0  0
  183.2350  176.8100  137.2490 O   0  0  0  0  0  0  0  0  0  0  0  0
  183.1950  179.8660  139.2580 C   0  0  0  0  0  2  0  0  0  0  0  0
  183.3110  177.5030  139.6580 C   0  0  1  0  0  3  0  0  0  0  0  0
  182.0400  176.6980  139.8750 C   0  0  0  0  0  1  0  0  0  0  0  0
  180.8800  179.4700  137.9070 O   0  0  0  0  0  0  0  0  0  0  0  0
  181.8870  179.3790  137.2230 C   0  0  0  0  0  3  0  0  0  0  0  0
  189.0410  177.8470  145.9120 C   0  0  0  0  0  2  0  0  0  0  0  0
  189.0540  177.1280  147.2460 C   0  0  0  0  0  1  0  0  0  0  0  0
  1  3  2  0  0  0  0
  1  4  1  0  0  0  0
  2  4  1  0  0  0  0
  2 17  1  0  0  0  0
  3 18  1  0  0  0  0
  4 10  1  0  0  0  0
  5 31  1  0  0  0  0
  6 20  1  0  0  0  0
  6 19  1  0  0  0  0
  7  2  1  0  0  0  0
  8  9  1  0  0  0  0
  9 11  1  0  0  0  0
 10 13  1  0  0  0  0
 10 12  1  0  0  0  0
 11  5  1  0  0  0  0
 14 15  1  0  0  0  0
 14  7  1  0  0  0  0
 15  1  1  0  0  0  0
 16  7  1  0  0  0  0
 16  9  1  0  0  0  0
 17  5  1  0  0  0  0
 17 12  1  0  0  0  0
 18 13  2  0  0  0  0
 19  8  1  0  0  0  0
 20 16  1  0  0  0  0
 21 27  1  0  0  0  0
 22 21  1  0  0  0  0
 23 21  1  0  0  0  0
 23 26  1  0  0  0  0
 24 15  1  0  0  0  0
 25 22  1  0  0  0  0
 25 21  1  0  0  0  0
 26 24  1  0  0  0  0
 27 28  1  0  0  0  0
 27 24  1  0  0  0  0
 30 23  1  0  0  0  0
 30 29  2  0  0  0  0
 31 32  1  0  0  0  0
M  END
>  <MODEL>
3

>  <REMARK>
 VINA RESULT:      -7.5      2.928      6.076
  Name = 
  3 active torsions:
  status: ('A' for Active; 'I' for Inactive)
    1  A    between atoms: C_6  and  C_13
    2  A    between atoms: C_15  and  C_26
    3  A    between atoms: N_16  and  C_27
                            x       y       z     vdW  Elec       q    Type
                         _______ _______ _______ _____ _____    ______ ____

>  <TORSDO>
F 3

$$$$
=
 OpenBabel11052414333D

 32 38  0  0  1  0  0  0  0  0999 V2000
  189.2960  177.2490  141.5310 C   0  0  0  0  0  0  0  0  0  0  0  0
  188.6270  177.4490  143.8770 C   0  0  1  0  0  3  0  0  0  0  0  0
  190.3940  177.8780  141.0940 C   0  0  0  0  0  3  0  0  0  0  0  0
  189.2910  176.5530  142.8520 C   0  0  2  0  0  3  0  0  0  0  0  0
  188.8300  177.7200  146.4190 C   0  0  2  0  0  3  0  0  0  0  0  0
  183.8590  178.9780  144.9550 C   0  0  0  0  0  2  0  0  0  0  0  0
  187.1360  177.6000  143.4570 C   0  0  2  0  0  3  0  0  0  0  0  0
  185.3160  178.9200  146.6620 C   0  0  0  0  0  2  0  0  0  0  0  0
  186.4230  178.2050  145.8830 C   0  0  2  0  0  3  0  0  0  0  0  0
  190.6530  176.1060  143.3550 C   0  0  2  0  0  3  0  0  0  0  0  0
  187.7500  178.7890  146.3240 C   0  0  0  0  0  2  0  0  0  0  0  0
  190.5500  176.0030  145.1630 S   0  0  0  0  0  0  0  0  0  0  0  0
  191.7730  177.0170  142.9260 C   0  0  0  0  0  3  0  0  0  0  0  0
  187.0560  178.2280  142.0420 C   0  0  0  0  0  2  0  0  0  0  0  0
  187.9210  177.5010  140.9840 C   0  0  1  0  0  3  0  0  0  0  0  0
  186.2430  178.4560  144.3770 C   0  0  2  0  0  3  0  0  0  0  0  0
  188.8790  176.7620  145.2190 C   0  0  2  0  0  3  0  0  0  0  0  0
  191.6590  177.7980  141.8480 C   0  0  0  0  0  3  0  0  0  0  0  0
  184.0550  178.4640  146.2470 O   0  0  0  0  0  0  0  0  0  0  0  0
  184.7760  178.2530  143.9740 C   0  0  0  0  0  2  0  0  0  0  0  0
  187.7090  176.9230  137.6550 C   0  0  1  0  0  0  0  0  0  0  0  0
  187.3800  175.5450  137.2600 C   0  0  0  0  0  2  0  0  0  0  0  0
  189.1470  177.3180  137.6800 C   0  0  2  0  0  3  0  0  0  0  0  0
  187.9200  178.1390  139.6550 N   0  0  1  0  0  0  0  0  0  0  0  0
  187.0880  176.6520  136.4240 O   0  0  0  0  0  0  0  0  0  0  0  0
  189.2610  177.9450  139.0660 C   0  0  0  0  0  2  0  0  0  0  0  0
  186.9160  177.5420  138.7620 C   0  0  1  0  0  3  0  0  0  0  0  0
  186.0120  178.6380  138.2220 C   0  0  0  0  0  1  0  0  0  0  0  0
  189.1300  179.5230  136.8370 O   0  0  0  0  0  0  0  0  0  0  0  0
  189.4260  178.3550  136.6390 C   0  0  0  0  0  3  0  0  0  0  0  0
  188.6540  176.9430  147.7160 C   0  0  0  0  0  2  0  0  0  0  0  0
  188.3060  177.8890  148.8480 C   0  0  0  0  0  1  0  0  0  0  0  0
  1  4  1  0  0  0  0
  2 17  1  0  0  0  0
  3  1  2  0  0  0  0
  3 18  1  0  0  0  0
  4 10  1  0  0  0  0
  4  2  1  0  0  0  0
  5 31  1  0  0  0  0
  6 19  1  0  0  0  0
  7  2  1  0  0  0  0
  7 16  1  0  0  0  0
  9 11  1  0  0  0  0
  9  8  1  0  0  0  0
 10 12  1  0  0  0  0
 11  5  1  0  0  0  0
 12 17  1  0  0  0  0
 13 10  1  0  0  0  0
 14  7  1  0  0  0  0
 15  1  1  0  0  0  0
 15 14  1  0  0  0  0
 16  9  1  0  0  0  0
 17  5  1  0  0  0  0
 18 13  2  0  0  0  0
 19  8  1  0  0  0  0
 20 16  1  0  0  0  0
 20  6  1  0  0  0  0
 21 23  1  0  0  0  0
 21 27  1  0  0  0  0
 22 21  1  0  0  0  0
 23 26  1  0  0  0  0
 24 15  1  0  0  0  0
 25 22  1  0  0  0  0
 25 21  1  0  0  0  0
 26 24  1  0  0  0  0
 27 24  1  0  0  0  0
 28 27  1  0  0  0  0
 30 29  2  0  0  0  0
 30 23  1  0  0  0  0
 31 32  1  0  0  0  0
M  END
>  <MODEL>
4

>  <REMARK>
 VINA RESULT:      -7.5      1.641      2.003
  Name = 
  3 active torsions:
  status: ('A' for Active; 'I' for Inactive)
    1  A    between atoms: C_6  and  C_13
    2  A    between atoms: C_15  and  C_26
    3  A    between atoms: N_16  and  C_27
                            x       y       z     vdW  Elec       q    Type
                         _______ _______ _______ _____ _____    ______ ____

>  <TORSDO>
F 3

$$$$
=
 OpenBabel11052414333D

 32 38  0  0  1  0  0  0  0  0999 V2000
  188.4210  177.9800  140.1640 C   0  0  0  0  0  0  0  0  0  0  0  0
  185.9980  178.1850  139.8810 C   0  0  1  0  0  3  0  0  0  0  0  0
  189.0560  176.8910  139.7140 C   0  0  0  0  0  3  0  0  0  0  0  0
  187.3470  178.6270  139.3540 C   0  0  2  0  0  3  0  0  0  0  0  0
  183.6690  177.9160  138.8430 C   0  0  2  0  0  3  0  0  0  0  0  0
  183.1120  179.1530  144.0000 C   0  0  0  0  0  2  0  0  0  0  0  0
  185.8610  178.7560  141.3230 C   0  0  2  0  0  3  0  0  0  0  0  0
  182.0340  178.5510  142.1250 C   0  0  0  0  0  2  0  0  0  0  0  0
  183.2660  178.6280  141.2190 C   0  0  2  0  0  3  0  0  0  0  0  0
  187.4270  178.3810  137.8560 C   0  0  2  0  0  3  0  0  0  0  0  0
  183.1780  177.4920  140.2200 C   0  0  0  0  0  2  0  0  0  0  0  0
  185.7500  178.5670  137.1920 S   0  0  0  0  0  0  0  0  0  0  0  0
  188.0040  177.0340  137.5060 C   0  0  0  0  0  3  0  0  0  0  0  0
  187.0070  178.2060  142.2100 C   0  0  0  0  0  2  0  0  0  0  0  0
  188.4170  178.4030  141.6050 C   0  0  1  0  0  3  0  0  0  0  0  0
  184.5410  178.4550  142.0600 C   0  0  2  0  0  3  0  0  0  0  0  0
  184.9890  178.7020  138.8560 C   0  0  2  0  0  3  0  0  0  0  0  0
  188.7960  176.3750  138.3560 C   0  0  0  0  0  3  0  0  0  0  0  0
  182.0940  179.5440  143.1160 O   0  0  0  0  0  0  0  0  0  0  0  0
  184.4690  179.3250  143.3230 C   0  0  0  0  0  2  0  0  0  0  0  0
  189.3590  177.4640  144.7190 C   0  0  1  0  0  0  0  0  0  0  0  0
  188.3150  177.5230  145.7530 C   0  0  0  0  0  2  0  0  0  0  0  0
  190.2830  178.6280  144.5920 C   0  0  2  0  0  3  0  0  0  0  0  0
  189.5090  177.8090  142.3990 N   0  0  1  0  0  0  0  0  0  0  0  0
  189.4260  176.6490  145.8610 O   0  0  0  0  0  0  0  0  0  0  0  0
  190.2040  178.9110  143.0950 C   0  0  0  0  0  2  0  0  0  0  0  0
  189.0030  176.8570  143.3980 C   0  0  1  0  0  3  0  0  0  0  0  0
  189.7080  175.5220  143.2180 C   0  0  0  0  0  1  0  0  0  0  0  0
  191.8820  177.4240  145.8450 O   0  0  0  0  0  0  0  0  0  0  0  0
  191.6810  178.2310  144.9520 C   0  0  0  0  0  3  0  0  0  0  0  0
  182.5780  178.7160  138.1450 C   0  0  0  0  0  2  0  0  0  0  0  0
  181.9500  177.8880  137.0410 C   0  0  0  0  0  1  0  0  0  0  0  0
  1 15  1  0  0  0  0
  2  7  1  0  0  0  0
  3  1  2  0  0  0  0
  4  2  1  0  0  0  0
  4  1  1  0  0  0  0
  5 17  1  0  0  0  0
  5 11  1  0  0  0  0
  7 16  1  0  0  0  0
  7 14  1  0  0  0  0
  8 19  1  0  0  0  0
  9 16  1  0  0  0  0
  9  8  1  0  0  0  0
 10  4  1  0  0  0  0
 11  9  1  0  0  0  0
 12 10  1  0  0  0  0
 12 17  1  0  0  0  0
 13 10  1  0  0  0  0
 13 18  2  0  0  0  0
 15 14  1  0  0  0  0
 15 24  1  0  0  0  0
 16 20  1  0  0  0  0
 17  2  1  0  0  0  0
 18  3  1  0  0  0  0
 19  6  1  0  0  0  0
 20  6  1  0  0  0  0
 21 22  1  0  0  0  0
 21 25  1  0  0  0  0
 22 25  1  0  0  0  0
 23 21  1  0  0  0  0
 23 30  1  0  0  0  0
 24 26  1  0  0  0  0
 24 27  1  0  0  0  0
 26 23  1  0  0  0  0
 27 21  1  0  0  0  0
 28 27  1  0  0  0  0
 30 29  2  0  0  0  0
 31  5  1  0  0  0  0
 32 31  1  0  0  0  0
M  END
>  <MODEL>
5

>  <REMARK>
 VINA RESULT:      -7.3      3.232      6.284
  Name = 
  3 active torsions:
  status: ('A' for Active; 'I' for Inactive)
    1  A    between atoms: C_6  and  C_13
    2  A    between atoms: C_15  and  C_26
    3  A    between atoms: N_16  and  C_27
                            x       y       z     vdW  Elec       q    Type
                         _______ _______ _______ _____ _____    ______ ____

>  <TORSDO>
F 3

$$$$
=
 OpenBabel11052414333D

 32 38  0  0  1  0  0  0  0  0999 V2000
  187.1630  177.7490  141.7870 C   0  0  0  0  0  0  0  0  0  0  0  0
  188.6430  177.4530  143.7140 C   0  0  1  0  0  3  0  0  0  0  0  0
  187.5170  178.5720  140.7930 C   0  0  0  0  0  3  0  0  0  0  0  0
  188.1640  176.8370  142.4160 C   0  0  2  0  0  3  0  0  0  0  0  0
  190.8080  177.2970  145.0790 C   0  0  2  0  0  3  0  0  0  0  0  0
  186.7430  178.1840  148.4140 C   0  0  0  0  0  2  0  0  0  0  0  0
  187.4230  177.4940  144.6790 C   0  0  2  0  0  3  0  0  0  0  0  0
  188.9740  178.0040  148.2380 C   0  0  0  0  0  2  0  0  0  0  0  0
  188.9690  177.5750  146.7680 C   0  0  2  0  0  3  0  0  0  0  0  0
  189.3520  176.4760  141.5400 C   0  0  2  0  0  3  0  0  0  0  0  0
  190.1580  178.2280  146.0920 C   0  0  0  0  0  2  0  0  0  0  0  0
  190.7230  176.0460  142.6480 S   0  0  0  0  0  0  0  0  0  0  0  0
  189.7460  177.5760  140.5900 C   0  0  0  0  0  3  0  0  0  0  0  0
  186.2910  178.3460  144.0500 C   0  0  0  0  0  2  0  0  0  0  0  0
  185.9180  177.9250  142.6080 C   0  0  1  0  0  3  0  0  0  0  0  0
  187.6790  178.0620  146.0900 C   0  0  2  0  0  3  0  0  0  0  0  0
  189.8170  176.5770  144.1530 C   0  0  2  0  0  3  0  0  0  0  0  0
  188.8720  178.5140  140.2140 C   0  0  0  0  0  3  0  0  0  0  0  0
  187.8540  177.4790  148.9030 O   0  0  0  0  0  0  0  0  0  0  0  0
  186.4630  177.7580  146.9750 C   0  0  0  0  0  2  0  0  0  0  0  0
  183.2020  177.9300  140.5860 C   0  0  1  0  0  0  0  0  0  0  0  0
  182.6640  176.6100  140.2270 C   0  0  0  0  0  2  0  0  0  0  0  0
  184.1430  178.5850  139.6300 C   0  0  2  0  0  3  0  0  0  0  0  0
  184.9030  178.7810  141.9680 N   0  0  1  0  0  0  0  0  0  0  0  0
  181.8530  177.7720  140.2290 O   0  0  0  0  0  0  0  0  0  0  0  0
  185.2960  178.9600  140.5560 C   0  0  0  0  0  2  0  0  0  0  0  0
  183.5650  178.1740  142.0170 C   0  0  1  0  0  3  0  0  0  0  0  0
  182.5930  179.1540  142.6540 C   0  0  0  0  0  1  0  0  0  0  0  0
  184.2360  180.7870  138.7850 O   0  0  0  0  0  0  0  0  0  0  0  0
  183.5340  179.8280  139.0620 C   0  0  0  0  0  3  0  0  0  0  0  0
  191.6820  176.2890  145.8120 C   0  0  0  0  0  2  0  0  0  0  0  0
  191.8820  176.7220  147.2510 C   0  0  0  0  0  1  0  0  0  0  0  0
  1  4  1  0  0  0  0
  1 15  1  0  0  0  0
  2 17  1  0  0  0  0
  2  7  1  0  0  0  0
  3  1  2  0  0  0  0
  4  2  1  0  0  0  0
  5 31  1  0  0  0  0
  5 11  1  0  0  0  0
  6 19  1  0  0  0  0
  7 16  1  0  0  0  0
  8 19  1  0  0  0  0
  9  8  1  0  0  0  0
 10  4  1  0  0  0  0
 10 12  1  0  0  0  0
 11  9  1  0  0  0  0
 12 17  1  0  0  0  0
 13 10  1  0  0  0  0
 14  7  1  0  0  0  0
 15 14  1  0  0  0  0
 16  9  1  0  0  0  0
 16 20  1  0  0  0  0
 17  5  1  0  0  0  0
 18 13  2  0  0  0  0
 18  3  1  0  0  0  0
 20  6  1  0  0  0  0
 21 27  1  0  0  0  0
 22 25  1  0  0  0  0
 22 21  1  0  0  0  0
 23 26  1  0  0  0  0
 23 21  1  0  0  0  0
 24 27  1  0  0  0  0
 24 15  1  0  0  0  0
 25 21  1  0  0  0  0
 26 24  1  0  0  0  0
 27 28  1  0  0  0  0
 29 30  2  0  0  0  0
 30 23  1  0  0  0  0
 31 32  1  0  0  0  0
M  END
>  <MODEL>
6

>  <REMARK>
 VINA RESULT:      -7.3      2.890      5.399
  Name = 
  3 active torsions:
  status: ('A' for Active; 'I' for Inactive)
    1  A    between atoms: C_6  and  C_13
    2  A    between atoms: C_15  and  C_26
    3  A    between atoms: N_16  and  C_27
                            x       y       z     vdW  Elec       q    Type
                         _______ _______ _______ _____ _____    ______ ____

>  <TORSDO>
F 3

$$$$
=
 OpenBabel11052414333D

 32 38  0  0  1  0  0  0  0  0999 V2000
  190.0550  177.4190  139.4830 C   0  0  0  0  0  0  0  0  0  0  0  0
  188.0000  177.5500  138.1610 C   0  0  1  0  0  3  0  0  0  0  0  0
  190.7840  176.2960  139.4760 C   0  0  0  0  0  3  0  0  0  0  0  0
  189.4590  177.9500  138.2220 C   0  0  2  0  0  3  0  0  0  0  0  0
  186.3360  177.1250  136.2570 C   0  0  2  0  0  3  0  0  0  0  0  0
  183.6580  178.9430  140.4940 C   0  0  0  0  0  2  0  0  0  0  0  0
  187.2760  178.2820  139.3290 C   0  0  2  0  0  3  0  0  0  0  0  0
  183.4720  178.1100  138.4180 C   0  0  0  0  0  2  0  0  0  0  0  0
  184.9750  178.1010  138.1300 C   0  0  2  0  0  3  0  0  0  0  0  0
  190.1670  177.5330  136.9440 C   0  0  2  0  0  3  0  0  0  0  0  0
  185.2860  176.8550  137.3250 C   0  0  0  0  0  2  0  0  0  0  0  0
  188.9470  177.6130  135.6040 S   0  0  0  0  0  0  0  0  0  0  0  0
  190.7900  176.1640  137.0300 C   0  0  0  0  0  3  0  0  0  0  0  0
  187.9080  177.8580  140.6790 C   0  0  0  0  0  2  0  0  0  0  0  0
  189.4470  178.0060  140.7240 C   0  0  1  0  0  3  0  0  0  0  0  0
  185.7570  178.0480  139.4530 C   0  0  2  0  0  3  0  0  0  0  0  0
  187.5490  177.9280  136.7500 C   0  0  2  0  0  3  0  0  0  0  0  0
  191.1160  175.6210  138.2060 C   0  0  0  0  0  3  0  0  0  0  0  0
  183.1340  179.2120  139.2200 O   0  0  0  0  0  0  0  0  0  0  0  0
  185.1790  179.0570  140.4550 C   0  0  0  0  0  2  0  0  0  0  0  0
  188.9240  177.4530  144.0240 C   0  0  1  0  0  0  0  0  0  0  0  0
  187.5400  177.6170  144.4920 C   0  0  0  0  0  2  0  0  0  0  0  0
  189.8550  178.6090  144.1780 C   0  0  2  0  0  3  0  0  0  0  0  0
  190.0690  177.5270  141.9720 N   0  0  1  0  0  0  0  0  0  0  0  0
  188.4630  176.7800  145.1670 O   0  0  0  0  0  0  0  0  0  0  0  0
  190.4380  178.7130  142.7710 C   0  0  0  0  0  2  0  0  0  0  0  0
  189.1490  176.6900  142.7560 C   0  0  1  0  0  3  0  0  0  0  0  0
  189.8120  175.3540  143.0490 C   0  0  0  0  0  1  0  0  0  0  0  0
  191.7970  177.4520  144.8590 O   0  0  0  0  0  0  0  0  0  0  0  0
  190.9460  178.2790  145.1470 C   0  0  0  0  0  3  0  0  0  0  0  0
  185.6810  177.8200  135.0720 C   0  0  0  0  0  2  0  0  0  0  0  0
  184.4680  177.0350  134.6120 C   0  0  0  0  0  1  0  0  0  0  0  0
  1 15  1  0  0  0  0
  2  4  1  0  0  0  0
  2  7  1  0  0  0  0
  3  1  2  0  0  0  0
  4  1  1  0  0  0  0
  5 17  1  0  0  0  0
  5 11  1  0  0  0  0
  7 16  1  0  0  0  0
  7 14  1  0  0  0  0
  8 19  1  0  0  0  0
  9  8  1  0  0  0  0
  9 16  1  0  0  0  0
 10 13  1  0  0  0  0
 10  4  1  0  0  0  0
 11  9  1  0  0  0  0
 12 17  1  0  0  0  0
 12 10  1  0  0  0  0
 13 18  2  0  0  0  0
 14 15  1  0  0  0  0
 15 24  1  0  0  0  0
 16 20  1  0  0  0  0
 17  2  1  0  0  0  0
 18  3  1  0  0  0  0
 19  6  1  0  0  0  0
 20  6  1  0  0  0  0
 21 23  1  0  0  0  0
 21 22  1  0  0  0  0
 21 25  1  0  0  0  0
 22 25  1  0  0  0  0
 23 30  1  0  0  0  0
 24 27  1  0  0  0  0
 24 26  1  0  0  0  0
 26 23  1  0  0  0  0
 27 28  1  0  0  0  0
 27 21  1  0  0  0  0
 29 30  2  0  0  0  0
 31  5  1  0  0  0  0
 32 31  1  0  0  0  0
M  END
>  <MODEL>
7

>  <REMARK>
 VINA RESULT:      -7.0      3.277      6.859
  Name = 
  3 active torsions:
  status: ('A' for Active; 'I' for Inactive)
    1  A    between atoms: C_6  and  C_13
    2  A    between atoms: C_15  and  C_26
    3  A    between atoms: N_16  and  C_27
                            x       y       z     vdW  Elec       q    Type
                         _______ _______ _______ _____ _____    ______ ____

>  <TORSDO>
F 3

$$$$
=
 OpenBabel11052414333D

 32 38  0  0  1  0  0  0  0  0999 V2000
  186.0490  178.3730  143.7730 C   0  0  0  0  0  0  0  0  0  0  0  0
  185.3240  178.4870  141.4390 C   0  0  1  0  0  3  0  0  0  0  0  0
  185.8150  179.4030  144.5960 C   0  0  0  0  0  3  0  0  0  0  0  0
  185.0070  177.9180  142.8060 C   0  0  2  0  0  3  0  0  0  0  0  0
  183.9170  179.1080  139.3870 C   0  0  2  0  0  3  0  0  0  0  0  0
  188.7640  177.6080  137.7470 C   0  0  0  0  0  2  0  0  0  0  0  0
  186.6620  177.8420  140.9740 C   0  0  2  0  0  3  0  0  0  0  0  0
  186.7880  178.4620  137.1100 C   0  0  0  0  0  2  0  0  0  0  0  0
  186.1120  178.2950  138.4730 C   0  0  2  0  0  3  0  0  0  0  0  0
  183.5750  178.2520  143.1900 C   0  0  2  0  0  3  0  0  0  0  0  0
  185.2170  179.4970  138.6970 C   0  0  0  0  0  2  0  0  0  0  0  0
  182.6100  178.3180  141.6560 S   0  0  0  0  0  0  0  0  0  0  0  0
  183.4520  179.5380  143.9650 C   0  0  0  0  0  3  0  0  0  0  0  0
  187.7840  178.1870  141.9870 C   0  0  0  0  0  2  0  0  0  0  0  0
  187.4230  177.8590  143.4560 C   0  0  1  0  0  3  0  0  0  0  0  0
  187.1770  178.2530  139.5800 C   0  0  2  0  0  3  0  0  0  0  0  0
  184.0940  178.1670  140.5870 C   0  0  2  0  0  3  0  0  0  0  0  0
  184.4840  180.0360  144.6520 C   0  0  0  0  0  3  0  0  0  0  0  0
  187.6820  177.4050  136.8760 O   0  0  0  0  0  0  0  0  0  0  0  0
  188.3260  177.3160  139.1790 C   0  0  0  0  0  2  0  0  0  0  0  0
  190.4160  177.0290  144.8050 C   0  0  1  0  0  0  0  0  0  0  0  0
  191.1210  175.9060  144.1680 C   0  0  0  0  0  2  0  0  0  0  0  0
  189.5860  176.7380  146.0100 C   0  0  2  0  0  3  0  0  0  0  0  0
  188.4470  178.2590  144.4380 N   0  0  1  0  0  0  0  0  0  0  0  0
  191.8130  176.9140  144.8850 O   0  0  0  0  0  0  0  0  0  0  0  0
  188.2700  177.4150  145.6370 C   0  0  0  0  0  2  0  0  0  0  0  0
  189.8090  178.0700  143.9170 C   0  0  1  0  0  3  0  0  0  0  0  0
  190.5740  179.3780  144.0290 C   0  0  0  0  0  1  0  0  0  0  0  0
  189.4300  177.8770  148.0720 O   0  0  0  0  0  0  0  0  0  0  0  0
  190.1630  177.4040  147.2190 C   0  0  0  0  0  3  0  0  0  0  0  0
  182.9690  178.4970  138.3650 C   0  0  0  0  0  2  0  0  0  0  0  0
  181.9070  179.5050  137.9700 C   0  0  0  0  0  1  0  0  0  0  0  0
  1  3  2  0  0  0  0
  2  4  1  0  0  0  0
  3 18  1  0  0  0  0
  4 10  1  0  0  0  0
  4  1  1  0  0  0  0
  5 17  1  0  0  0  0
  6 20  1  0  0  0  0
  7  2  1  0  0  0  0
  7 14  1  0  0  0  0
  8  9  1  0  0  0  0
  9 11  1  0  0  0  0
  9 16  1  0  0  0  0
 10 13  1  0  0  0  0
 11  5  1  0  0  0  0
 12 10  1  0  0  0  0
 13 18  2  0  0  0  0
 14 15  1  0  0  0  0
 15  1  1  0  0  0  0
 15 24  1  0  0  0  0
 16  7  1  0  0  0  0
 17  2  1  0  0  0  0
 17 12  1  0  0  0  0
 19  8  1  0  0  0  0
 19  6  1  0  0  0  0
 20 16  1  0  0  0  0
 21 25  1  0  0  0  0
 21 23  1  0  0  0  0
 22 21  1  0  0  0  0
 22 25  1  0  0  0  0
 23 30  1  0  0  0  0
 24 26  1  0  0  0  0
 26 23  1  0  0  0  0
 27 28  1  0  0  0  0
 27 24  1  0  0  0  0
 27 21  1  0  0  0  0
 30 29  2  0  0  0  0
 31  5  1  0  0  0  0
 32 31  1  0  0  0  0
M  END
>  <MODEL>
8

>  <REMARK>
 VINA RESULT:      -6.8      3.099      6.986
  Name = 
  3 active torsions:
  status: ('A' for Active; 'I' for Inactive)
    1  A    between atoms: C_6  and  C_13
    2  A    between atoms: C_15  and  C_26
    3  A    between atoms: N_16  and  C_27
                            x       y       z     vdW  Elec       q    Type
                         _______ _______ _______ _____ _____    ______ ____

>  <TORSDO>
F 3

$$$$
=
 OpenBabel11052414333D

 32 38  0  0  1  0  0  0  0  0999 V2000
  188.1400  177.1310  137.7080 C   0  0  0  0  0  0  0  0  0  0  0  0
  187.7150  177.6220  140.0680 C   0  0  1  0  0  3  0  0  0  0  0  0
  187.3980  176.2170  137.0720 C   0  0  0  0  0  3  0  0  0  0  0  0
  187.5090  178.1050  138.6480 C   0  0  2  0  0  3  0  0  0  0  0  0
  186.4300  177.9230  142.2660 C   0  0  2  0  0  3  0  0  0  0  0  0
  191.6130  177.3450  143.3790 C   0  0  0  0  0  2  0  0  0  0  0  0
  189.2450  177.6690  140.3500 C   0  0  2  0  0  3  0  0  0  0  0  0
  189.5510  177.5190  144.2510 C   0  0  0  0  0  2  0  0  0  0  0  0
  188.8540  177.8010  142.9180 C   0  0  2  0  0  3  0  0  0  0  0  0
  186.0370  178.3850  138.4000 C   0  0  2  0  0  3  0  0  0  0  0  0
  187.5150  177.0910  142.9360 C   0  0  0  0  0  2  0  0  0  0  0  0
  185.3220  178.9280  139.9770 S   0  0  0  0  0  0  0  0  0  0  0  0
  185.2920  177.1990  137.8460 C   0  0  0  0  0  3  0  0  0  0  0  0
  189.9880  176.7530  139.3440 C   0  0  0  0  0  2  0  0  0  0  0  0
  189.6290  177.0290  137.8640 C   0  0  1  0  0  3  0  0  0  0  0  0
  189.6990  177.2430  141.7620 C   0  0  2  0  0  3  0  0  0  0  0  0
  186.8460  178.5430  140.9240 C   0  0  2  0  0  3  0  0  0  0  0  0
  185.9270  176.2240  137.1900 C   0  0  0  0  0  3  0  0  0  0  0  0
  190.8290  178.1000  144.2660 O   0  0  0  0  0  0  0  0  0  0  0  0
  191.1740  177.6260  141.9450 C   0  0  0  0  0  2  0  0  0  0  0  0
  192.3990  175.1850  137.2380 C   0  0  1  0  0  0  0  0  0  0  0  0
  193.3800  175.1040  138.3300 C   0  0  0  0  0  2  0  0  0  0  0  0
  192.6190  176.2100  136.1770 C   0  0  2  0  0  3  0  0  0  0  0  0
  190.2640  176.1100  136.9030 N   0  0  1  0  0  0  0  0  0  0  0  0
  193.2800  174.0950  137.3390 O   0  0  0  0  0  0  0  0  0  0  0  0
  191.2520  176.8870  136.1270 C   0  0  0  0  0  2  0  0  0  0  0  0
  190.9530  175.0010  137.5780 C   0  0  1  0  0  3  0  0  0  0  0  0
  190.4400  173.6810  137.0270 C   0  0  0  0  0  1  0  0  0  0  0  0
  194.0210  175.1550  134.5970 O   0  0  0  0  0  0  0  0  0  0  0  0
  192.8980  175.5540  134.8610 C   0  0  0  0  0  3  0  0  0  0  0  0
  185.9570  179.0020  143.2300 C   0  0  0  0  0  2  0  0  0  0  0  0
  185.2130  178.3730  144.3920 C   0  0  0  0  0  1  0  0  0  0  0  0
  1 15  1  0  0  0  0
  1  4  1  0  0  0  0
  2  7  1  0  0  0  0
  2 17  1  0  0  0  0
  3 18  1  0  0  0  0
  3  1  2  0  0  0  0
  4  2  1  0  0  0  0
  5 11  1  0  0  0  0
  5 31  1  0  0  0  0
  6 19  1  0  0  0  0
  7 16  1  0  0  0  0
  8 19  1  0  0  0  0
  9 11  1  0  0  0  0
  9  8  1  0  0  0  0
 10  4  1  0  0  0  0
 10 12  1  0  0  0  0
 12 17  1  0  0  0  0
 13 10  1  0  0  0  0
 14  7  1  0  0  0  0
 15 14  1  0  0  0  0
 16 20  1  0  0  0  0
 16  9  1  0  0  0  0
 17  5  1  0  0  0  0
 18 13  2  0  0  0  0
 20  6  1  0  0  0  0
 21 25  1  0  0  0  0
 21 27  1  0  0  0  0
 21 22  1  0  0  0  0
 23 21  1  0  0  0  0
 24 27  1  0  0  0  0
 24 15  1  0  0  0  0
 25 22  1  0  0  0  0
 26 23  1  0  0  0  0
 26 24  1  0  0  0  0
 28 27  1  0  0  0  0
 29 30  2  0  0  0  0
 30 23  1  0  0  0  0
 31 32  1  0  0  0  0
M  END
>  <MODEL>
9

>  <REMARK>
 VINA RESULT:      -6.7      2.806      5.474
  Name = 
  3 active torsions:
  status: ('A' for Active; 'I' for Inactive)
    1  A    between atoms: C_6  and  C_13
    2  A    between atoms: C_15  and  C_26
    3  A    between atoms: N_16  and  C_27
                            x       y       z     vdW  Elec       q    Type
                         _______ _______ _______ _____ _____    ______ ____

>  <TORSDO>
F 3

$$$$
