=
 OpenBabel11052415193D

 37 41  0  0  1  0  0  0  0  0999 V2000
  179.6950  177.2350  137.6310 C   0  0  0  0  0  0  0  0  0  0  0  0
  182.3880  178.8710  139.3740 C   0  0  2  0  0  3  0  0  0  0  0  0
  181.4690  176.3560  139.0770 C   0  0  0  0  0  2  0  0  0  0  0  0
  181.5250  178.8960  140.6520 C   0  0  0  0  0  2  0  0  0  0  0  0
  181.5570  178.6170  138.0980 C   0  0  2  0  0  3  0  0  0  0  0  0
  182.3120  178.5850  141.9250 C   0  0  1  0  0  3  0  0  0  0  0  0
  183.7940  175.5860  138.5990 C   0  0  0  0  0  1  0  0  0  0  0  0
  180.3440  179.5150  137.8380 C   0  0  1  0  0  3  0  0  0  0  0  0
  178.9870  176.2340  138.3080 O   0  0  0  0  0  1  0  0  0  0  0  0
  185.6330  178.7950  140.0250 C   0  0  0  0  0  1  0  0  0  0  0  0
  182.9460  176.4740  139.4900 C   0  0  1  0  0  3  0  0  0  0  0  0
  179.1690  178.5940  138.0470 C   0  0  0  0  0  2  0  0  0  0  0  0
  183.4550  177.8570  139.4380 N   0  0  2  0  0  0  0  0  0  0  0  0
  181.1470  177.2040  137.9130 N   0  0  2  0  0  0  0  0  0  0  0  0
  183.8200  178.8360  141.7550 C   0  0  2  0  0  3  0  0  0  0  0  0
  179.4960  177.0740  136.2590 O   0  0  0  0  0  1  0  0  0  0  0  0
  184.3990  178.0770  140.5440 C   0  0  2  0  0  3  0  0  0  0  0  0
  185.8510  177.8930  142.8770 C   0  0  0  0  0  3  0  0  0  0  0  0
  184.5890  178.4860  142.9970 C   0  0  0  0  0  0  0  0  0  0  0  0
  184.0620  178.7420  144.2720 C   0  0  0  0  0  3  0  0  0  0  0  0
  184.2810  178.6560  146.6440 F   0  0  0  0  0  0  0  0  0  0  0  0
  186.0530  177.8170  145.2900 C   0  0  0  0  0  3  0  0  0  0  0  0
  184.7930  178.4080  145.4160 C   0  0  0  0  0  0  0  0  0  0  0  0
  186.5820  177.5590  144.0210 C   0  0  0  0  0  3  0  0  0  0  0  0
  179.0760  181.6450  138.1990 C   0  0  0  0  0  2  0  0  0  0  0  0
  179.6400  182.6710  137.2310 C   0  0  1  0  0  3  0  0  0  0  0  0
  181.4520  181.6920  138.3810 C   0  0  0  0  0  2  0  0  0  0  0  0
  181.0980  182.6060  137.2990 N   0  0  0  0  0  0  0  0  0  0  0  0
  180.2510  180.8110  138.6570 C   0  0  2  0  0  3  0  0  0  0  0  0
  179.1850  182.3640  135.8150 C   0  0  0  0  0  2  0  0  0  0  0  0
  180.2700  181.9430  135.0450 O   0  0  0  0  0  1  0  0  0  0  0  0
  181.6650  183.9380  137.5590 C   0  0  0  0  0  2  0  0  0  0  0  0
  180.9650  185.0530  136.8340 C   0  0  0  0  0  0  0  0  0  0  0  0
  181.1710  185.2300  135.6050 O   0  0  0  0  0  0  0  0  0  0  0  0
  180.0770  185.8760  137.5130 O   0  0  0  0  0  1  0  0  0  0  0  0
  181.7250  179.3410  143.0850 C   0  0  0  0  0  3  0  0  0  0  0  0
  180.5340  179.0330  143.6020 C   0  0  0  0  0  2  0  0  0  0  0  0
  1 14  1  0  0  0  0
  1 12  1  0  0  0  0
  1  9  1  0  0  0  0
  2 13  1  0  0  0  0
  2  4  1  1  0  0  0
  3 11  1  0  0  0  0
  4  6  1  0  0  0  0
  5  2  1  0  0  0  0
  6 36  1  0  0  0  0
  7 11  1  0  0  0  0
  8 12  1  0  0  0  0
  8  5  1  0  0  0  0
  8 29  1  0  0  0  0
 10 17  1  0  0  0  0
 13 11  1  0  0  0  0
 13 17  1  0  0  0  0
 14  5  1  0  0  0  0
 14  3  1  0  0  0  0
 15  6  1  0  0  0  0
 15 19  1  0  0  0  0
 16  1  1  0  0  0  0
 17 15  1  0  0  0  0
 18 19  2  0  0  0  0
 18 24  1  0  0  0  0
 19 20  1  0  0  0  0
 20 23  2  0  0  0  0
 22 23  1  0  0  0  0
 23 21  1  0  0  0  0
 24 22  2  0  0  0  0
 25 29  1  0  0  0  0
 26 28  1  0  0  0  0
 26 25  1  0  0  0  0
 27 29  1  0  0  0  0
 28 32  1  0  0  0  0
 28 27  1  0  0  0  0
 30 26  1  0  0  0  0
 31 30  1  0  0  0  0
 33 35  1  0  0  0  0
 33 32  1  0  0  0  0
 34 33  2  0  0  0  0
 36 37  2  0  0  0  0
M  END
>  <MODEL>
1

>  <REMARK>
 VINA RESULT:      -7.0      0.000      0.000
  Name = 
  6 active torsions:
  status: ('A' for Active; 'I' for Inactive)
    1  A    between atoms: C_5  and  C_12
    2  A    between atoms: C_6  and  C_31
    3  A    between atoms: C_7  and  C_14
    4  A    between atoms: C_11  and  C_26
    5  A    between atoms: C_20  and  C_36
    6  A    between atoms: C_26  and  N_33
                            x       y       z     vdW  Elec       q    Type
                         _______ _______ _______ _____ _____    ______ ____

>  <TORSDO>
F 6

$$$$
=
 OpenBabel11052415193D

 37 41  0  0  1  0  0  0  0  0999 V2000
  180.5370  180.1430  138.0330 C   0  0  0  0  0  0  0  0  0  0  0  0
  182.4510  177.0940  138.1020 C   0  0  2  0  0  3  0  0  0  0  0  0
  180.8930  178.4060  136.3400 C   0  0  0  0  0  2  0  0  0  0  0  0
  181.1680  176.3150  138.4570 C   0  0  0  0  0  2  0  0  0  0  0  0
  182.3140  178.6120  138.3440 C   0  0  2  0  0  3  0  0  0  0  0  0
  181.0540  174.9700  137.7390 C   0  0  1  0  0  3  0  0  0  0  0  0
  182.6510  178.1020  134.5940 C   0  0  0  0  0  1  0  0  0  0  0  0
  181.8350  179.0810  139.7210 C   0  0  1  0  0  3  0  0  0  0  0  0
  179.2660  180.1070  137.4460 O   0  0  0  0  0  1  0  0  0  0  0  0
  184.6580  175.2460  136.4680 C   0  0  0  0  0  1  0  0  0  0  0  0
  181.9010  177.4210  135.7230 C   0  0  1  0  0  3  0  0  0  0  0  0
  180.4530  179.6200  139.4530 C   0  0  0  0  0  2  0  0  0  0  0  0
  182.8650  176.8870  136.7040 N   0  0  2  0  0  0  0  0  0  0  0  0
  181.5300  179.3230  137.3050 N   0  0  2  0  0  0  0  0  0  0  0  0
  182.4180  174.4470  137.2590 C   0  0  2  0  0  3  0  0  0  0  0  0
  180.9780  181.4670  138.0640 O   0  0  0  0  0  1  0  0  0  0  0  0
  183.1600  175.4800  136.3880 C   0  0  2  0  0  3  0  0  0  0  0  0
  181.4110  173.0630  135.4310 C   0  0  0  0  0  3  0  0  0  0  0  0
  182.2890  173.1470  136.5170 C   0  0  0  0  0  0  0  0  0  0  0  0
  183.0320  172.0180  136.8980 C   0  0  0  0  0  3  0  0  0  0  0  0
  183.6140  169.7320  136.5650 F   0  0  0  0  0  0  0  0  0  0  0  0
  182.0190  170.7400  135.1100 C   0  0  0  0  0  3  0  0  0  0  0  0
  182.8960  170.8180  136.1950 C   0  0  0  0  0  0  0  0  0  0  0  0
  181.2760  171.8610  134.7270 C   0  0  0  0  0  3  0  0  0  0  0  0
  180.5850  178.0860  141.6510 C   0  0  0  0  0  2  0  0  0  0  0  0
  180.8610  178.9610  142.8610 C   0  0  1  0  0  3  0  0  0  0  0  0
  182.9340  178.4260  141.8710 C   0  0  0  0  0  2  0  0  0  0  0  0
  182.2970  179.2280  142.9120 N   0  0  0  0  0  0  0  0  0  0  0  0
  181.8720  178.0500  140.8580 C   0  0  2  0  0  3  0  0  0  0  0  0
  180.1050  180.2740  142.7450 C   0  0  0  0  0  2  0  0  0  0  0  0
  178.9310  180.2160  143.4960 O   0  0  0  0  0  1  0  0  0  0  0  0
  182.8450  178.8720  144.2290 C   0  0  0  0  0  2  0  0  0  0  0  0
  184.3400  178.9970  144.3230 C   0  0  0  0  0  0  0  0  0  0  0  0
  184.8880  180.1180  144.1630 O   0  0  0  0  0  0  0  0  0  0  0  0
  185.1160  177.8800  144.6050 O   0  0  0  0  0  1  0  0  0  0  0  0
  180.3300  173.9850  138.6140 C   0  0  0  0  0  3  0  0  0  0  0  0
  179.9320  174.2940  139.8500 C   0  0  0  0  0  2  0  0  0  0  0  0
  1 16  1  0  0  0  0
  1 12  1  0  0  0  0
  2  5  1  0  0  0  0
  2  4  1  6  0  0  0
  3 14  1  0  0  0  0
  5  8  1  0  0  0  0
  6  4  1  0  0  0  0
  6 36  1  0  0  0  0
  7 11  1  0  0  0  0
  8 29  1  0  0  0  0
  9  1  1  0  0  0  0
 11  3  1  0  0  0  0
 11 13  1  0  0  0  0
 12  8  1  0  0  0  0
 13  2  1  0  0  0  0
 14  1  1  0  0  0  0
 14  5  1  0  0  0  0
 15  6  1  0  0  0  0
 17 10  1  0  0  0  0
 17 13  1  0  0  0  0
 17 15  1  0  0  0  0
 18 19  1  0  0  0  0
 19 20  2  0  0  0  0
 19 15  1  0  0  0  0
 22 23  2  0  0  0  0
 23 21  1  0  0  0  0
 23 20  1  0  0  0  0
 24 22  1  0  0  0  0
 24 18  2  0  0  0  0
 25 26  1  0  0  0  0
 26 28  1  0  0  0  0
 27 28  1  0  0  0  0
 28 32  1  0  0  0  0
 29 25  1  0  0  0  0
 29 27  1  0  0  0  0
 30 26  1  0  0  0  0
 30 31  1  0  0  0  0
 32 33  1  0  0  0  0
 33 35  1  0  0  0  0
 34 33  2  0  0  0  0
 36 37  2  0  0  0  0
M  END
>  <MODEL>
2

>  <REMARK>
 VINA RESULT:      -6.6      4.227      7.338
  Name = 
  6 active torsions:
  status: ('A' for Active; 'I' for Inactive)
    1  A    between atoms: C_5  and  C_12
    2  A    between atoms: C_6  and  C_31
    3  A    between atoms: C_7  and  C_14
    4  A    between atoms: C_11  and  C_26
    5  A    between atoms: C_20  and  C_36
    6  A    between atoms: C_26  and  N_33
                            x       y       z     vdW  Elec       q    Type
                         _______ _______ _______ _____ _____    ______ ____

>  <TORSDO>
F 6

$$$$
=
 OpenBabel11052415193D

 37 41  0  0  1  0  0  0  0  0999 V2000
  188.2720  178.1620  139.2200 C   0  0  0  0  0  0  0  0  0  0  0  0
  186.0540  176.7730  136.7470 C   0  0  2  0  0  3  0  0  0  0  0  0
  185.8350  177.8980  139.1850 C   0  0  0  0  0  2  0  0  0  0  0  0
  186.0680  175.4330  137.5100 C   0  0  0  0  0  2  0  0  0  0  0  0
  187.2180  177.7030  137.1530 C   0  0  2  0  0  3  0  0  0  0  0  0
  184.7000  174.7520  137.5700 C   0  0  1  0  0  3  0  0  0  0  0  0
  184.0020  179.3560  138.3220 C   0  0  0  0  0  1  0  0  0  0  0  0
  188.6410  177.1390  137.1040 C   0  0  1  0  0  3  0  0  0  0  0  0
  188.0400  177.8430  140.5640 O   0  0  0  0  0  1  0  0  0  0  0  0
  183.2520  177.2500  135.0510 C   0  0  0  0  0  1  0  0  0  0  0  0
  184.5650  177.9470  138.3190 C   0  0  1  0  0  3  0  0  0  0  0  0
  189.0310  177.0310  138.5560 C   0  0  0  0  0  2  0  0  0  0  0  0
  184.7920  177.5100  136.9290 N   0  0  2  0  0  0  0  0  0  0  0  0
  187.0240  178.3820  138.4570 N   0  0  2  0  0  0  0  0  0  0  0  0
  183.7580  175.2360  136.4550 C   0  0  2  0  0  3  0  0  0  0  0  0
  189.0480  179.3220  139.1630 O   0  0  0  0  0  1  0  0  0  0  0  0
  183.6140  176.7710  136.4450 C   0  0  2  0  0  3  0  0  0  0  0  0
  182.0550  173.5940  135.6340 C   0  0  0  0  0  3  0  0  0  0  0  0
  182.4030  174.5940  136.5490 C   0  0  0  0  0  0  0  0  0  0  0  0
  181.4840  174.9830  137.5350 C   0  0  0  0  0  3  0  0  0  0  0  0
  179.3430  174.7520  138.5570 F   0  0  0  0  0  0  0  0  0  0  0  0
  179.8850  173.3740  136.6890 C   0  0  0  0  0  3  0  0  0  0  0  0
  180.2280  174.3740  137.6040 C   0  0  0  0  0  0  0  0  0  0  0  0
  180.7980  172.9840  135.7040 C   0  0  0  0  0  3  0  0  0  0  0  0
  189.5350  174.8000  137.1870 C   0  0  0  0  0  2  0  0  0  0  0  0
  191.0090  174.8720  136.8290 C   0  0  1  0  0  3  0  0  0  0  0  0
  189.8080  176.0520  135.1770 C   0  0  0  0  0  2  0  0  0  0  0  0
  191.1500  175.7230  135.6490 N   0  0  0  0  0  0  0  0  0  0  0  0
  188.8440  175.8320  136.3250 C   0  0  2  0  0  3  0  0  0  0  0  0
  191.8020  175.4670  137.9810 C   0  0  0  0  0  2  0  0  0  0  0  0
  192.2360  176.7510  137.6480 O   0  0  0  0  0  1  0  0  0  0  0  0
  191.9010  175.0280  134.5940 C   0  0  0  0  0  2  0  0  0  0  0  0
  193.3870  175.2400  134.6590 C   0  0  0  0  0  0  0  0  0  0  0  0
  193.8510  176.4050  134.7690 O   0  0  0  0  0  1  0  0  0  0  0  0
  194.2490  174.1530  134.6150 O   0  0  0  0  0  0  0  0  0  0  0  0
  184.8740  173.2580  137.5740 C   0  0  0  0  0  3  0  0  0  0  0  0
  186.0530  172.6820  137.3320 C   0  0  0  0  0  2  0  0  0  0  0  0
  1  9  1  0  0  0  0
  2 13  1  0  0  0  0
  2  5  1  0  0  0  0
  2  4  1  1  0  0  0
  4  6  1  0  0  0  0
  5 14  1  0  0  0  0
  6 36  1  0  0  0  0
  8  5  1  0  0  0  0
  8 12  1  0  0  0  0
 10 17  1  0  0  0  0
 11  7  1  0  0  0  0
 11  3  1  0  0  0  0
 12  1  1  0  0  0  0
 13 11  1  0  0  0  0
 14  3  1  0  0  0  0
 14  1  1  0  0  0  0
 15 19  1  0  0  0  0
 15  6  1  0  0  0  0
 16  1  1  0  0  0  0
 17 15  1  0  0  0  0
 17 13  1  0  0  0  0
 18 24  2  0  0  0  0
 18 19  1  0  0  0  0
 19 20  2  0  0  0  0
 20 23  1  0  0  0  0
 22 23  2  0  0  0  0
 23 21  1  0  0  0  0
 24 22  1  0  0  0  0
 26 25  1  0  0  0  0
 26 30  1  0  0  0  0
 27 28  1  0  0  0  0
 27 29  1  0  0  0  0
 28 26  1  0  0  0  0
 29  8  1  0  0  0  0
 29 25  1  0  0  0  0
 31 30  1  0  0  0  0
 32 33  1  0  0  0  0
 32 28  1  0  0  0  0
 33 34  1  0  0  0  0
 35 33  2  0  0  0  0
 37 36  2  0  0  0  0
M  END
>  <MODEL>
3

>  <REMARK>
 VINA RESULT:      -6.2      6.599     10.084
  Name = 
  6 active torsions:
  status: ('A' for Active; 'I' for Inactive)
    1  A    between atoms: C_5  and  C_12
    2  A    between atoms: C_6  and  C_31
    3  A    between atoms: C_7  and  C_14
    4  A    between atoms: C_11  and  C_26
    5  A    between atoms: C_20  and  C_36
    6  A    between atoms: C_26  and  N_33
                            x       y       z     vdW  Elec       q    Type
                         _______ _______ _______ _____ _____    ______ ____

>  <TORSDO>
F 6

$$$$
=
 OpenBabel11052415193D

 37 41  0  0  1  0  0  0  0  0999 V2000
  180.1280  181.1050  136.3430 C   0  0  0  0  0  0  0  0  0  0  0  0
  181.1140  178.7450  138.8770 C   0  0  2  0  0  3  0  0  0  0  0  0
  180.5200  181.3690  138.7490 C   0  0  0  0  0  2  0  0  0  0  0  0
  182.5770  179.2020  138.7100 C   0  0  0  0  0  2  0  0  0  0  0  0
  180.2200  179.1640  137.6900 C   0  0  2  0  0  3  0  0  0  0  0  0
  183.3350  179.3150  140.0340 C   0  0  1  0  0  3  0  0  0  0  0  0
  179.0260  181.1060  140.7300 C   0  0  0  0  0  1  0  0  0  0  0  0
  180.6790  178.7920  136.2770 C   0  0  1  0  0  3  0  0  0  0  0  0
  180.7260  182.3720  136.3570 O   0  0  0  0  0  1  0  0  0  0  0  0
  180.4660  177.6100  141.9180 C   0  0  0  0  0  1  0  0  0  0  0  0
  180.3700  180.7260  140.1380 C   0  0  1  0  0  3  0  0  0  0  0  0
  181.0550  180.1170  135.6660 C   0  0  0  0  0  2  0  0  0  0  0  0
  180.5040  179.2580  140.1160 N   0  0  2  0  0  0  0  0  0  0  0  0
  179.8310  180.5940  137.6990 N   0  0  2  0  0  0  0  0  0  0  0  0
  182.6900  178.4750  141.1490 C   0  0  2  0  0  3  0  0  0  0  0  0
  178.9380  181.1800  135.6160 O   0  0  0  0  0  1  0  0  0  0  0  0
  181.1950  178.8070  141.3340 C   0  0  2  0  0  3  0  0  0  0  0  0
  182.8290  179.3780  143.4810 C   0  0  0  0  0  3  0  0  0  0  0  0
  183.4150  178.6280  142.4560 C   0  0  0  0  0  0  0  0  0  0  0  0
  184.6700  178.0340  142.6620 C   0  0  0  0  0  3  0  0  0  0  0  0
  186.5390  177.6150  144.0790 F   0  0  0  0  0  0  0  0  0  0  0  0
  184.7380  178.9380  144.9060 C   0  0  0  0  0  3  0  0  0  0  0  0
  185.3290  178.1890  143.8840 C   0  0  0  0  0  0  0  0  0  0  0  0
  183.4890  179.5330  144.7050 C   0  0  0  0  0  3  0  0  0  0  0  0
  181.6620  176.9740  134.8610 C   0  0  0  0  0  2  0  0  0  0  0  0
  180.9150  175.6940  135.1940 C   0  0  1  0  0  3  0  0  0  0  0  0
  181.6090  176.6710  137.2250 C   0  0  0  0  0  2  0  0  0  0  0  0
  180.8180  175.5890  136.6480 N   0  0  0  0  0  0  0  0  0  0  0  0
  181.7870  177.7360  136.1620 C   0  0  2  0  0  3  0  0  0  0  0  0
  179.5190  175.7300  134.5940 C   0  0  0  0  0  2  0  0  0  0  0  0
  178.9480  174.4570  134.6400 O   0  0  0  0  0  1  0  0  0  0  0  0
  181.3280  174.2890  137.1090 C   0  0  0  0  0  2  0  0  0  0  0  0
  180.2940  173.4310  137.7830 C   0  0  0  0  0  0  0  0  0  0  0  0
  179.2000  173.9340  138.1470 O   0  0  0  0  0  1  0  0  0  0  0  0
  180.5370  172.0790  137.9870 O   0  0  0  0  0  0  0  0  0  0  0  0
  184.7850  178.9830  139.8220 C   0  0  0  0  0  3  0  0  0  0  0  0
  185.1880  178.1510  138.8590 C   0  0  0  0  0  2  0  0  0  0  0  0
  1  9  1  0  0  0  0
  1 14  1  0  0  0  0
  2  4  1  6  0  0  0
  2 13  1  0  0  0  0
  3 11  1  0  0  0  0
  4  6  1  0  0  0  0
  5 14  1  0  0  0  0
  5  2  1  0  0  0  0
  6 15  1  0  0  0  0
  8  5  1  0  0  0  0
 11  7  1  0  0  0  0
 12  8  1  0  0  0  0
 12  1  1  0  0  0  0
 13 11  1  0  0  0  0
 13 17  1  0  0  0  0
 14  3  1  0  0  0  0
 15 17  1  0  0  0  0
 15 19  1  0  0  0  0
 16  1  1  0  0  0  0
 17 10  1  0  0  0  0
 18 24  1  0  0  0  0
 19 20  1  0  0  0  0
 19 18  2  0  0  0  0
 20 23  2  0  0  0  0
 23 21  1  0  0  0  0
 23 22  1  0  0  0  0
 24 22  2  0  0  0  0
 25 26  1  0  0  0  0
 25 29  1  0  0  0  0
 26 28  1  0  0  0  0
 28 32  1  0  0  0  0
 28 27  1  0  0  0  0
 29  8  1  0  0  0  0
 29 27  1  0  0  0  0
 30 31  1  0  0  0  0
 30 26  1  0  0  0  0
 32 33  1  0  0  0  0
 33 35  2  0  0  0  0
 33 34  1  0  0  0  0
 36  6  1  0  0  0  0
 37 36  2  0  0  0  0
M  END
>  <MODEL>
4

>  <REMARK>
 VINA RESULT:      -6.1      2.142      5.815
  Name = 
  6 active torsions:
  status: ('A' for Active; 'I' for Inactive)
    1  A    between atoms: C_5  and  C_12
    2  A    between atoms: C_6  and  C_31
    3  A    between atoms: C_7  and  C_14
    4  A    between atoms: C_11  and  C_26
    5  A    between atoms: C_20  and  C_36
    6  A    between atoms: C_26  and  N_33
                            x       y       z     vdW  Elec       q    Type
                         _______ _______ _______ _____ _____    ______ ____

>  <TORSDO>
F 6

$$$$
=
 OpenBabel11052415193D

 37 41  0  0  1  0  0  0  0  0999 V2000
  187.9960  176.7720  137.9780 C   0  0  0  0  0  0  0  0  0  0  0  0
  188.4330  178.4090  141.1550 C   0  0  2  0  0  3  0  0  0  0  0  0
  189.6450  176.4480  139.7620 C   0  0  0  0  0  2  0  0  0  0  0  0
  187.6520  177.2660  141.8330 C   0  0  0  0  0  2  0  0  0  0  0  0
  188.2180  178.4530  139.6260 C   0  0  2  0  0  3  0  0  0  0  0  0
  188.2420  176.8400  143.1780 C   0  0  1  0  0  3  0  0  0  0  0  0
  191.8530  177.5180  140.2200 C   0  0  0  0  0  1  0  0  0  0  0  0
  186.7790  178.4790  139.1020 C   0  0  1  0  0  3  0  0  0  0  0  0
  188.1370  175.3780  137.9320 O   0  0  0  0  0  1  0  0  0  0  0  0
  190.6210  179.8440  143.1820 C   0  0  0  0  0  1  0  0  0  0  0  0
  190.5160  177.1360  140.8270 C   0  0  1  0  0  3  0  0  0  0  0  0
  186.6060  177.1220  138.4700 C   0  0  0  0  0  2  0  0  0  0  0  0
  189.8810  178.3310  141.4130 N   0  0  2  0  0  0  0  0  0  0  0  0
  188.9740  177.4200  138.8780 N   0  0  2  0  0  0  0  0  0  0  0  0
  189.1170  177.9380  143.8060 C   0  0  2  0  0  3  0  0  0  0  0  0
  188.1600  177.2810  136.6880 O   0  0  0  0  0  1  0  0  0  0  0  0
  190.2210  178.4190  142.8420 C   0  0  2  0  0  3  0  0  0  0  0  0
  190.9090  176.7440  145.0850 C   0  0  0  0  0  3  0  0  0  0  0  0
  189.7270  177.4930  145.1050 C   0  0  0  0  0  0  0  0  0  0  0  0
  189.1290  177.8150  146.3330 C   0  0  0  0  0  3  0  0  0  0  0  0
  189.1330  177.7020  148.7140 F   0  0  0  0  0  0  0  0  0  0  0  0
  190.8930  176.6430  147.5060 C   0  0  0  0  0  3  0  0  0  0  0  0
  189.7120  177.3900  147.5310 C   0  0  0  0  0  0  0  0  0  0  0  0
  191.4920  176.3200  146.2840 C   0  0  0  0  0  3  0  0  0  0  0  0
  184.7630  177.6340  140.3260 C   0  0  0  0  0  2  0  0  0  0  0  0
  183.5640  177.8610  139.4220 C   0  0  1  0  0  3  0  0  0  0  0  0
  184.7620  179.8880  139.5520 C   0  0  0  0  0  2  0  0  0  0  0  0
  183.6450  179.2190  138.8910 N   0  0  0  0  0  0  0  0  0  0  0  0
  185.6770  178.8200  140.1150 C   0  0  2  0  0  3  0  0  0  0  0  0
  183.5750  176.8660  138.2740 C   0  0  0  0  0  2  0  0  0  0  0  0
  183.1400  175.6170  138.7210 O   0  0  0  0  0  1  0  0  0  0  0  0
  182.3960  179.9520  139.1450 C   0  0  0  0  0  2  0  0  0  0  0  0
  181.6290  180.3040  137.9020 C   0  0  0  0  0  0  0  0  0  0  0  0
  181.3400  179.4080  137.0670 O   0  0  0  0  0  0  0  0  0  0  0  0
  181.2250  181.6140  137.6800 O   0  0  0  0  0  1  0  0  0  0  0  0
  187.1420  176.3800  144.0950 C   0  0  0  0  0  3  0  0  0  0  0  0
  186.2140  177.2160  144.5630 C   0  0  0  0  0  2  0  0  0  0  0  0
  1 12  1  0  0  0  0
  1 14  1  0  0  0  0
  2 13  1  0  0  0  0
  2  4  1  6  0  0  0
  3 11  1  0  0  0  0
  4  6  1  0  0  0  0
  5  2  1  0  0  0  0
  6 15  1  0  0  0  0
  6 36  1  0  0  0  0
  7 11  1  0  0  0  0
  8  5  1  0  0  0  0
  8 29  1  0  0  0  0
  9  1  1  0  0  0  0
 11 13  1  0  0  0  0
 12  8  1  0  0  0  0
 13 17  1  0  0  0  0
 14  5  1  0  0  0  0
 14  3  1  0  0  0  0
 15 19  1  0  0  0  0
 16  1  1  0  0  0  0
 17 10  1  0  0  0  0
 17 15  1  0  0  0  0
 18 19  2  0  0  0  0
 18 24  1  0  0  0  0
 19 20  1  0  0  0  0
 20 23  2  0  0  0  0
 22 23  1  0  0  0  0
 23 21  1  0  0  0  0
 24 22  2  0  0  0  0
 26 25  1  0  0  0  0
 27 29  1  0  0  0  0
 28 32  1  0  0  0  0
 28 26  1  0  0  0  0
 28 27  1  0  0  0  0
 29 25  1  0  0  0  0
 30 31  1  0  0  0  0
 30 26  1  0  0  0  0
 33 32  1  0  0  0  0
 34 33  2  0  0  0  0
 35 33  1  0  0  0  0
 36 37  2  0  0  0  0
M  END
>  <MODEL>
5

>  <REMARK>
 VINA RESULT:      -6.0      4.063      6.547
  Name = 
  6 active torsions:
  status: ('A' for Active; 'I' for Inactive)
    1  A    between atoms: C_5  and  C_12
    2  A    between atoms: C_6  and  C_31
    3  A    between atoms: C_7  and  C_14
    4  A    between atoms: C_11  and  C_26
    5  A    between atoms: C_20  and  C_36
    6  A    between atoms: C_26  and  N_33
                            x       y       z     vdW  Elec       q    Type
                         _______ _______ _______ _____ _____    ______ ____

>  <TORSDO>
F 6

$$$$
=
 OpenBabel11052415193D

 37 41  0  0  1  0  0  0  0  0999 V2000
  188.6410  178.7980  137.5710 C   0  0  0  0  0  0  0  0  0  0  0  0
  189.1570  176.6580  140.4210 C   0  0  2  0  0  3  0  0  0  0  0  0
  188.3110  179.1750  139.9710 C   0  0  0  0  0  2  0  0  0  0  0  0
  190.5420  177.3010  140.6330 C   0  0  0  0  0  2  0  0  0  0  0  0
  188.5860  176.9220  139.0110 C   0  0  2  0  0  3  0  0  0  0  0  0
  190.8800  177.5490  142.1040 C   0  0  1  0  0  3  0  0  0  0  0  0
  186.3650  178.7670  141.4810 C   0  0  0  0  0  1  0  0  0  0  0  0
  189.4630  176.5770  137.8040 C   0  0  1  0  0  3  0  0  0  0  0  0
  189.0540  180.1330  137.6700 O   0  0  0  0  0  1  0  0  0  0  0  0
  187.8270  175.5280  143.2340 C   0  0  0  0  0  1  0  0  0  0  0  0
  187.8570  178.5550  141.3040 C   0  0  1  0  0  3  0  0  0  0  0  0
  189.8330  177.9240  137.2370 C   0  0  0  0  0  2  0  0  0  0  0  0
  188.1670  177.1170  141.4110 N   0  0  2  0  0  0  0  0  0  0  0  0
  188.0410  178.2870  138.8230 N   0  0  2  0  0  0  0  0  0  0  0  0
  190.0560  176.6610  143.0500 C   0  0  2  0  0  3  0  0  0  0  0  0
  187.7020  178.6940  136.5440 O   0  0  0  0  0  1  0  0  0  0  0  0
  188.5400  176.7950  142.7970 C   0  0  2  0  0  3  0  0  0  0  0  0
  189.5950  177.8870  145.1850 C   0  0  0  0  0  3  0  0  0  0  0  0
  190.3630  176.9430  144.4930 C   0  0  0  0  0  0  0  0  0  0  0  0
  191.4080  176.2800  145.1550 C   0  0  0  0  0  3  0  0  0  0  0  0
  192.6870  175.9170  147.1320 F   0  0  0  0  0  0  0  0  0  0  0  0
  190.9070  177.5010  147.1840 C   0  0  0  0  0  3  0  0  0  0  0  0
  191.6790  176.5590  146.4970 C   0  0  0  0  0  0  0  0  0  0  0  0
  189.8650  178.1650  146.5280 C   0  0  0  0  0  3  0  0  0  0  0  0
  191.8650  176.1340  137.2440 C   0  0  0  0  0  2  0  0  0  0  0  0
  191.8810  175.2620  136.0010 C   0  0  1  0  0  3  0  0  0  0  0  0
  190.4070  174.2740  137.5550 C   0  0  0  0  0  2  0  0  0  0  0  0
  190.9090  174.1870  136.1870 N   0  0  0  0  0  0  0  0  0  0  0  0
  190.6790  175.6750  138.0620 C   0  0  2  0  0  3  0  0  0  0  0  0
  191.5030  176.0810  134.7790 C   0  0  0  0  0  2  0  0  0  0  0  0
  190.1200  176.0520  134.5940 O   0  0  0  0  0  1  0  0  0  0  0  0
  191.5340  172.8760  135.9610 C   0  0  0  0  0  2  0  0  0  0  0  0
  193.0370  172.9060  135.9650 C   0  0  0  0  0  0  0  0  0  0  0  0
  193.6690  172.8630  134.8780 O   0  0  0  0  0  0  0  0  0  0  0  0
  193.7290  173.0000  137.1650 O   0  0  0  0  0  1  0  0  0  0  0  0
  192.3610  177.4080  142.3180 C   0  0  0  0  0  3  0  0  0  0  0  0
  193.1990  177.1330  141.3160 C   0  0  0  0  0  2  0  0  0  0  0  0
  1  9  1  0  0  0  0
  1 14  1  0  0  0  0
  2  4  1  6  0  0  0
  2 13  1  0  0  0  0
  3 11  1  0  0  0  0
  4  6  1  0  0  0  0
  5  2  1  0  0  0  0
  6 36  1  0  0  0  0
  6 15  1  0  0  0  0
  8 29  1  0  0  0  0
  8  5  1  0  0  0  0
 11 13  1  0  0  0  0
 11  7  1  0  0  0  0
 12  1  1  0  0  0  0
 12  8  1  0  0  0  0
 13 17  1  0  0  0  0
 14  5  1  0  0  0  0
 14  3  1  0  0  0  0
 15 19  1  0  0  0  0
 16  1  1  0  0  0  0
 17 15  1  0  0  0  0
 17 10  1  0  0  0  0
 18 24  1  0  0  0  0
 19 20  1  0  0  0  0
 19 18  2  0  0  0  0
 20 23  2  0  0  0  0
 23 21  1  0  0  0  0
 23 22  1  0  0  0  0
 24 22  2  0  0  0  0
 25 29  1  0  0  0  0
 26 28  1  0  0  0  0
 26 25  1  0  0  0  0
 27 29  1  0  0  0  0
 28 27  1  0  0  0  0
 30 26  1  0  0  0  0
 31 30  1  0  0  0  0
 32 33  1  0  0  0  0
 32 28  1  0  0  0  0
 33 35  1  0  0  0  0
 34 33  2  0  0  0  0
 37 36  2  0  0  0  0
M  END
>  <MODEL>
6

>  <REMARK>
 VINA RESULT:      -5.9      6.921     10.327
  Name = 
  6 active torsions:
  status: ('A' for Active; 'I' for Inactive)
    1  A    between atoms: C_5  and  C_12
    2  A    between atoms: C_6  and  C_31
    3  A    between atoms: C_7  and  C_14
    4  A    between atoms: C_11  and  C_26
    5  A    between atoms: C_20  and  C_36
    6  A    between atoms: C_26  and  N_33
                            x       y       z     vdW  Elec       q    Type
                         _______ _______ _______ _____ _____    ______ ____

>  <TORSDO>
F 6

$$$$
=
 OpenBabel11052415193D

 37 41  0  0  1  0  0  0  0  0999 V2000
  191.0800  175.6100  135.8510 C   0  0  0  0  0  0  0  0  0  0  0  0
  187.9190  175.0820  137.4930 C   0  0  2  0  0  3  0  0  0  0  0  0
  188.9150  174.8320  135.0020 C   0  0  0  0  0  2  0  0  0  0  0  0
  187.4630  176.4800  137.0290 C   0  0  0  0  0  2  0  0  0  0  0  0
  189.4490  174.8950  137.4080 C   0  0  2  0  0  3  0  0  0  0  0  0
  186.0040  176.5240  136.5710 C   0  0  1  0  0  3  0  0  0  0  0  0
  187.8930  172.5610  134.8460 C   0  0  0  0  0  1  0  0  0  0  0  0
  190.3400  175.9400  138.0880 C   0  0  1  0  0  3  0  0  0  0  0  0
  191.0710  176.2280  134.5940 O   0  0  0  0  0  1  0  0  0  0  0  0
  185.3940  172.9800  137.8920 C   0  0  0  0  0  1  0  0  0  0  0  0
  187.6630  173.9900  135.3000 C   0  0  1  0  0  3  0  0  0  0  0  0
  190.9820  176.6660  136.9330 C   0  0  0  0  0  2  0  0  0  0  0  0
  187.2810  174.0000  136.7240 N   0  0  2  0  0  0  0  0  0  0  0  0
  189.9570  174.6650  136.0340 N   0  0  2  0  0  0  0  0  0  0  0  0
  185.1770  175.3630  137.1450 C   0  0  2  0  0  3  0  0  0  0  0  0
  192.2830  174.9190  136.0010 O   0  0  0  0  0  1  0  0  0  0  0  0
  185.8140  173.9920  136.8410 C   0  0  2  0  0  3  0  0  0  0  0  0
  183.5040  175.2570  135.2840 C   0  0  0  0  0  3  0  0  0  0  0  0
  183.7570  175.3900  136.6540 C   0  0  0  0  0  0  0  0  0  0  0  0
  182.6850  175.5500  137.5460 C   0  0  0  0  0  3  0  0  0  0  0  0
  180.3400  175.7290  137.9310 F   0  0  0  0  0  0  0  0  0  0  0  0
  181.1240  175.4390  135.6990 C   0  0  0  0  0  3  0  0  0  0  0  0
  181.3720  175.5750  137.0680 C   0  0  0  0  0  0  0  0  0  0  0  0
  182.1890  175.2800  134.8070 C   0  0  0  0  0  3  0  0  0  0  0  0
  190.6120  177.9820  139.5130 C   0  0  0  0  0  2  0  0  0  0  0  0
  191.2250  177.5310  140.8280 C   0  0  1  0  0  3  0  0  0  0  0  0
  189.3700  176.1440  140.3850 C   0  0  0  0  0  2  0  0  0  0  0  0
  190.5010  176.3480  141.2850 N   0  0  0  0  0  0  0  0  0  0  0  0
  189.6640  176.8810  139.0940 C   0  0  2  0  0  3  0  0  0  0  0  0
  192.6910  177.1850  140.6330 C   0  0  0  0  0  2  0  0  0  0  0  0
  193.0650  177.4190  139.3080 O   0  0  0  0  0  1  0  0  0  0  0  0
  190.0220  176.5330  142.6630 C   0  0  0  0  0  2  0  0  0  0  0  0
  191.1030  176.4470  143.7030 C   0  0  0  0  0  0  0  0  0  0  0  0
  191.3340  177.4320  144.4520 O   0  0  0  0  0  1  0  0  0  0  0  0
  191.8370  175.2780  143.8520 O   0  0  0  0  0  0  0  0  0  0  0  0
  185.4120  177.8700  136.8840 C   0  0  0  0  0  3  0  0  0  0  0  0
  185.4130  178.3750  138.1190 C   0  0  0  0  0  2  0  0  0  0  0  0
  1 16  1  0  0  0  0
  1 14  1  0  0  0  0
  1 12  1  0  0  0  0
  2  4  1  6  0  0  0
  3 11  1  0  0  0  0
  3 14  1  0  0  0  0
  5  2  1  0  0  0  0
  5  8  1  0  0  0  0
  6 36  1  0  0  0  0
  6  4  1  0  0  0  0
  6 15  1  0  0  0  0
  7 11  1  0  0  0  0
  8 29  1  0  0  0  0
  9  1  1  0  0  0  0
 11 13  1  0  0  0  0
 12  8  1  0  0  0  0
 13 17  1  0  0  0  0
 13  2  1  0  0  0  0
 14  5  1  0  0  0  0
 17 15  1  0  0  0  0
 17 10  1  0  0  0  0
 18 19  1  0  0  0  0
 19 15  1  0  0  0  0
 19 20  2  0  0  0  0
 22 23  2  0  0  0  0
 23 20  1  0  0  0  0
 23 21  1  0  0  0  0
 24 18  2  0  0  0  0
 24 22  1  0  0  0  0
 25 26  1  0  0  0  0
 26 28  1  0  0  0  0
 27 28  1  0  0  0  0
 28 32  1  0  0  0  0
 29 25  1  0  0  0  0
 29 27  1  0  0  0  0
 30 26  1  0  0  0  0
 31 30  1  0  0  0  0
 32 33  1  0  0  0  0
 33 35  2  0  0  0  0
 33 34  1  0  0  0  0
 36 37  2  0  0  0  0
M  END
>  <MODEL>
7

>  <REMARK>
 VINA RESULT:      -5.9      7.095     10.468
  Name = 
  6 active torsions:
  status: ('A' for Active; 'I' for Inactive)
    1  A    between atoms: C_5  and  C_12
    2  A    between atoms: C_6  and  C_31
    3  A    between atoms: C_7  and  C_14
    4  A    between atoms: C_11  and  C_26
    5  A    between atoms: C_20  and  C_36
    6  A    between atoms: C_26  and  N_33
                            x       y       z     vdW  Elec       q    Type
                         _______ _______ _______ _____ _____    ______ ____

>  <TORSDO>
F 6

$$$$
=
 OpenBabel11052415193D

 37 41  0  0  1  0  0  0  0  0999 V2000
  189.3360  176.9500  135.5960 C   0  0  0  0  0  0  0  0  0  0  0  0
  186.5260  176.2650  137.7400 C   0  0  2  0  0  3  0  0  0  0  0  0
  186.9480  176.6810  135.1120 C   0  0  0  0  0  2  0  0  0  0  0  0
  186.2210  177.7760  137.7960 C   0  0  0  0  0  2  0  0  0  0  0  0
  187.9560  175.9640  137.2440 C   0  0  2  0  0  3  0  0  0  0  0  0
  184.7280  178.0990  137.7300 C   0  0  1  0  0  3  0  0  0  0  0  0
  185.5580  174.6740  134.5940 C   0  0  0  0  0  1  0  0  0  0  0  0
  189.1240  176.6620  137.9480 C   0  0  1  0  0  3  0  0  0  0  0  0
  189.1780  177.9170  134.5940 O   0  0  0  0  0  1  0  0  0  0  0  0
  183.8220  174.3990  138.1460 C   0  0  0  0  0  1  0  0  0  0  0  0
  185.6600  175.9150  135.4600 C   0  0  1  0  0  3  0  0  0  0  0  0
  189.6310  177.6350  136.9150 C   0  0  0  0  0  2  0  0  0  0  0  0
  185.5780  175.5330  136.8820 N   0  0  2  0  0  0  0  0  0  0  0  0
  188.1340  176.1090  135.7790 N   0  0  2  0  0  0  0  0  0  0  0  0
  183.8530  176.9060  138.1490 C   0  0  2  0  0  3  0  0  0  0  0  0
  190.4160  176.1310  135.2610 O   0  0  0  0  0  1  0  0  0  0  0  0
  184.1830  175.6340  137.3400 C   0  0  2  0  0  3  0  0  0  0  0  0
  181.8940  177.7700  136.8500 C   0  0  0  0  0  3  0  0  0  0  0  0
  182.3880  177.2190  138.0380 C   0  0  0  0  0  0  0  0  0  0  0  0
  181.5110  176.9710  139.1050 C   0  0  0  0  0  3  0  0  0  0  0  0
  179.3090  177.0300  140.0140 F   0  0  0  0  0  0  0  0  0  0  0  0
  179.6630  177.8200  137.7940 C   0  0  0  0  0  3  0  0  0  0  0  0
  180.1520  177.2710  138.9830 C   0  0  0  0  0  0  0  0  0  0  0  0
  180.5330  178.0700  136.7280 C   0  0  0  0  0  3  0  0  0  0  0  0
  189.8630  178.3710  139.6230 C   0  0  0  0  0  2  0  0  0  0  0  0
  190.8800  177.6990  140.5300 C   0  0  1  0  0  3  0  0  0  0  0  0
  188.9800  176.3050  140.4200 C   0  0  0  0  0  2  0  0  0  0  0  0
  190.3470  176.3960  140.9230 N   0  0  0  0  0  0  0  0  0  0  0  0
  188.8260  177.3180  139.3040 C   0  0  2  0  0  3  0  0  0  0  0  0
  192.1950  177.5080  139.7940 C   0  0  0  0  0  2  0  0  0  0  0  0
  192.1740  176.3080  139.0810 O   0  0  0  0  0  1  0  0  0  0  0  0
  190.3580  176.2500  142.3860 C   0  0  0  0  0  2  0  0  0  0  0  0
  189.1520  176.8320  143.0670 C   0  0  0  0  0  0  0  0  0  0  0  0
  189.1300  178.0540  143.3700 O   0  0  0  0  0  1  0  0  0  0  0  0
  188.0540  176.0300  143.3480 O   0  0  0  0  0  0  0  0  0  0  0  0
  184.4380  179.3390  138.5290 C   0  0  0  0  0  3  0  0  0  0  0  0
  184.5380  179.3640  139.8600 C   0  0  0  0  0  2  0  0  0  0  0  0
  1 14  1  0  0  0  0
  1 12  1  0  0  0  0
  2  4  1  6  0  0  0
  3 11  1  0  0  0  0
  3 14  1  0  0  0  0
  5  2  1  0  0  0  0
  5  8  1  0  0  0  0
  6  4  1  0  0  0  0
  6 15  1  0  0  0  0
  6 36  1  0  0  0  0
  7 11  1  0  0  0  0
  8 29  1  0  0  0  0
  9  1  1  0  0  0  0
 11 13  1  0  0  0  0
 12  8  1  0  0  0  0
 13 17  1  0  0  0  0
 13  2  1  0  0  0  0
 14  5  1  0  0  0  0
 16  1  1  0  0  0  0
 17 10  1  0  0  0  0
 17 15  1  0  0  0  0
 18 19  1  0  0  0  0
 19 15  1  0  0  0  0
 19 20  2  0  0  0  0
 22 23  2  0  0  0  0
 23 20  1  0  0  0  0
 23 21  1  0  0  0  0
 24 18  2  0  0  0  0
 24 22  1  0  0  0  0
 25 26  1  0  0  0  0
 26 28  1  0  0  0  0
 27 28  1  0  0  0  0
 28 32  1  0  0  0  0
 29 25  1  0  0  0  0
 29 27  1  0  0  0  0
 30 26  1  0  0  0  0
 31 30  1  0  0  0  0
 32 33  1  0  0  0  0
 33 35  2  0  0  0  0
 33 34  1  0  0  0  0
 36 37  2  0  0  0  0
M  END
>  <MODEL>
8

>  <REMARK>
 VINA RESULT:      -5.8      5.589      9.139
  Name = 
  6 active torsions:
  status: ('A' for Active; 'I' for Inactive)
    1  A    between atoms: C_5  and  C_12
    2  A    between atoms: C_6  and  C_31
    3  A    between atoms: C_7  and  C_14
    4  A    between atoms: C_11  and  C_26
    5  A    between atoms: C_20  and  C_36
    6  A    between atoms: C_26  and  N_33
                            x       y       z     vdW  Elec       q    Type
                         _______ _______ _______ _____ _____    ______ ____

>  <TORSDO>
F 6

$$$$
=
 OpenBabel11052415193D

 37 41  0  0  1  0  0  0  0  0999 V2000
  188.6670  178.7990  137.6150 C   0  0  0  0  0  0  0  0  0  0  0  0
  189.2230  176.6170  140.4250 C   0  0  2  0  0  3  0  0  0  0  0  0
  188.3210  179.1230  140.0200 C   0  0  0  0  0  2  0  0  0  0  0  0
  190.5930  177.2880  140.6540 C   0  0  0  0  0  2  0  0  0  0  0  0
  188.6510  176.8950  139.0180 C   0  0  2  0  0  3  0  0  0  0  0  0
  190.9210  177.5160  142.1300 C   0  0  1  0  0  3  0  0  0  0  0  0
  186.3810  178.6430  141.5160 C   0  0  0  0  0  1  0  0  0  0  0  0
  189.5390  176.5940  137.8080 C   0  0  1  0  0  3  0  0  0  0  0  0
  189.0490  180.1410  137.7400 O   0  0  0  0  0  1  0  0  0  0  0  0
  187.9110  175.4040  143.2110 C   0  0  0  0  0  1  0  0  0  0  0  0
  187.8780  178.4680  141.3400 C   0  0  1  0  0  3  0  0  0  0  0  0
  189.8790  177.9600  137.2680 C   0  0  0  0  0  2  0  0  0  0  0  0
  188.2210  177.0350  141.4200 N   0  0  2  0  0  0  0  0  0  0  0  0
  188.0750  178.2520  138.8550 N   0  0  2  0  0  0  0  0  0  0  0  0
  190.1140  176.5900  143.0570 C   0  0  2  0  0  3  0  0  0  0  0  0
  187.7330  178.6940  136.5820 O   0  0  0  0  0  1  0  0  0  0  0  0
  188.5970  176.6950  142.8010 C   0  0  2  0  0  3  0  0  0  0  0  0
  191.5520  176.2860  145.0840 C   0  0  0  0  0  3  0  0  0  0  0  0
  190.4110  176.8530  144.5060 C   0  0  0  0  0  0  0  0  0  0  0  0
  189.5610  177.6520  145.2860 C   0  0  0  0  0  3  0  0  0  0  0  0
  189.0320  178.6530  147.3830 F   0  0  0  0  0  0  0  0  0  0  0  0
  190.9970  177.3160  147.2060 C   0  0  0  0  0  3  0  0  0  0  0  0
  189.8540  177.8820  146.6330 C   0  0  0  0  0  0  0  0  0  0  0  0
  191.8460  176.5180  146.4320 C   0  0  0  0  0  3  0  0  0  0  0  0
  191.9230  176.1560  137.1740 C   0  0  0  0  0  2  0  0  0  0  0  0
  191.9020  175.2370  135.9640 C   0  0  1  0  0  3  0  0  0  0  0  0
  190.5000  174.2930  137.6090 C   0  0  0  0  0  2  0  0  0  0  0  0
  190.9500  174.1600  136.2260 N   0  0  0  0  0  0  0  0  0  0  0  0
  190.7740  175.7150  138.0530 C   0  0  2  0  0  3  0  0  0  0  0  0
  191.4690  176.0070  134.7280 C   0  0  0  0  0  2  0  0  0  0  0  0
  190.0800  175.9520  134.5940 O   0  0  0  0  0  1  0  0  0  0  0  0
  191.5830  172.8480  136.0250 C   0  0  0  0  0  2  0  0  0  0  0  0
  190.8690  171.9710  135.0360 C   0  0  0  0  0  0  0  0  0  0  0  0
  189.7400  172.3100  134.5950 O   0  0  0  0  0  1  0  0  0  0  0  0
  191.4600  170.7950  134.5940 O   0  0  0  0  0  0  0  0  0  0  0  0
  192.4040  177.4040  142.3460 C   0  0  0  0  0  3  0  0  0  0  0  0
  193.2310  176.9840  141.3860 C   0  0  0  0  0  2  0  0  0  0  0  0
  1  9  1  0  0  0  0
  1 14  1  0  0  0  0
  2  4  1  1  0  0  0
  2 13  1  0  0  0  0
  3 11  1  0  0  0  0
  4  6  1  0  0  0  0
  5  2  1  0  0  0  0
  6 36  1  0  0  0  0
  6 15  1  0  0  0  0
  8 29  1  0  0  0  0
  8  5  1  0  0  0  0
 11 13  1  0  0  0  0
 11  7  1  0  0  0  0
 12  1  1  0  0  0  0
 12  8  1  0  0  0  0
 13 17  1  0  0  0  0
 14  5  1  0  0  0  0
 14  3  1  0  0  0  0
 15 19  1  0  0  0  0
 16  1  1  0  0  0  0
 17 15  1  0  0  0  0
 17 10  1  0  0  0  0
 18 24  1  0  0  0  0
 19 18  2  0  0  0  0
 19 20  1  0  0  0  0
 20 23  2  0  0  0  0
 23 22  1  0  0  0  0
 23 21  1  0  0  0  0
 24 22  2  0  0  0  0
 25 29  1  0  0  0  0
 26 28  1  0  0  0  0
 26 25  1  0  0  0  0
 27 29  1  0  0  0  0
 28 27  1  0  0  0  0
 30 26  1  0  0  0  0
 31 30  1  0  0  0  0
 32 28  1  0  0  0  0
 33 32  1  0  0  0  0
 34 33  1  0  0  0  0
 35 33  2  0  0  0  0
 37 36  2  0  0  0  0
M  END
>  <MODEL>
9

>  <REMARK>
 VINA RESULT:      -5.7      6.543     10.163
  Name = 
  6 active torsions:
  status: ('A' for Active; 'I' for Inactive)
    1  A    between atoms: C_5  and  C_12
    2  A    between atoms: C_6  and  C_31
    3  A    between atoms: C_7  and  C_14
    4  A    between atoms: C_11  and  C_26
    5  A    between atoms: C_20  and  C_36
    6  A    between atoms: C_26  and  N_33
                            x       y       z     vdW  Elec       q    Type
                         _______ _______ _______ _____ _____    ______ ____

>  <TORSDO>
F 6

$$$$
