=
 OpenBabel11052416083D

 43 48  0  0  1  0  0  0  0  0999 V2000
  181.4680  179.1990  140.7360 C   0  0  0  0  0  0  0  0  0  0  0  0
  185.0680  178.3150  144.1730 C   0  0  0  0  0  0  0  0  0  0  0  0
  187.4410  177.7730  142.7220 C   0  0  0  0  0  0  0  0  0  0  0  0
  182.6860  178.8870  142.7850 C   0  0  0  0  0  0  0  0  0  0  0  0
  182.5260  178.9400  139.9660 C   0  0  0  0  0  3  0  0  0  0  0  0
  180.1630  179.5310  140.1060 C   0  0  0  0  0  1  0  0  0  0  0  0
  183.8680  178.6020  142.0650 C   0  0  0  0  0  0  0  0  0  0  0  0
  181.5760  179.1620  142.1660 N   0  0  0  0  0  0  0  0  0  0  0  0
  183.8650  178.5970  140.5560 C   0  0  0  0  0  2  0  0  0  0  0  0
  186.2360  178.0410  142.0560 O   0  0  0  0  0  0  0  0  0  0  0  0
  185.0540  178.3200  142.7610 C   0  0  0  0  0  0  0  0  0  0  0  0
  183.8820  178.5930  144.8710 C   0  0  0  0  0  3  0  0  0  0  0  0
  186.2210  178.0430  144.8230 C   0  0  0  0  0  0  0  0  0  0  0  0
  187.4560  177.7680  144.0610 C   0  0  0  0  0  3  0  0  0  0  0  0
  182.7030  178.8790  144.1810 C   0  0  0  0  0  3  0  0  0  0  0  0
  188.6360  177.5140  141.9640 N   0  0  0  0  0  0  0  0  0  0  0  0
  189.5090  176.3950  142.3130 C   0  0  0  0  0  1  0  0  0  0  0  0
  188.8850  178.2300  140.7130 C   0  0  2  0  0  3  0  0  0  0  0  0
  188.5750  177.3360  139.5220 C   0  0  2  0  0  3  0  0  0  0  0  0
  190.0090  177.5660  139.9360 C   0  0  0  0  0  2  0  0  0  0  0  0
  188.2450  178.2120  138.3290 C   0  0  0  0  0  2  0  0  0  0  0  0
  187.4420  177.4250  137.3070 C   0  0  2  0  0  3  0  0  0  0  0  0
  186.6350  174.9130  136.9310 S   0  0  0  0  0  0  0  0  0  0  0  0
  186.0700  177.2710  137.7560 N   0  0  0  0  0  2  0  0  0  0  0  0
  188.0290  176.0440  137.1500 C   0  0  1  0  0  3  0  0  0  0  0  0
  185.4980  176.2670  136.9580 N   0  0  0  0  0  2  0  0  0  0  0  0
  190.2960  175.4940  136.1130 N   0  0  0  0  0  0  0  0  0  0  0  0
  188.9550  175.9900  135.9710 C   0  0  0  0  0  0  0  0  0  0  0  0
  191.2280  175.5890  135.0020 C   0  0  0  0  0  1  0  0  0  0  0  0
  188.5530  176.4030  134.8480 O   0  0  0  0  0  0  0  0  0  0  0  0
  190.8030  175.0060  137.3910 C   0  0  0  0  0  2  0  0  0  0  0  0
  192.3270  175.0060  137.4100 C   0  0  0  0  0  2  0  0  0  0  0  0
  194.0700  176.0770  138.6490 O   0  0  0  0  0  1  0  0  0  0  0  0
  192.8740  176.3110  137.9670 C   0  0  0  0  0  2  0  0  0  0  0  0
  186.2900  177.9780  146.3210 C   0  0  0  0  0  2  0  0  0  0  0  0
  189.9240  176.9020  146.4070 C   0  0  0  0  0  3  0  0  0  0  0  0
  190.3340  177.3920  147.6520 C   0  0  0  0  0  0  0  0  0  0  0  0
  188.1090  178.2920  148.0200 C   0  0  0  0  0  3  0  0  0  0  0  0
  188.6100  177.1020  145.9700 C   0  0  0  0  0  3  0  0  0  0  0  0
  187.7030  177.8000  146.7730 C   0  0  0  0  0  0  0  0  0  0  0  0
  189.4210  178.0910  148.4560 C   0  0  0  0  0  3  0  0  0  0  0  0
  192.4240  176.2680  147.4770 O   0  0  0  0  0  1  0  0  0  0  0  0
  191.6440  177.1780  148.0750 O   0  0  0  0  0  0  0  0  0  0  0  0
  1  8  1  0  0  0  0
  2 13  2  0  0  0  0
  2 12  1  0  0  0  0
  3 14  2  0  0  0  0
  4 15  1  0  0  0  0
  5  9  1  0  0  0  0
  5  1  2  0  0  0  0
  6  1  1  0  0  0  0
  7 11  2  0  0  0  0
  7  4  1  0  0  0  0
  8  4  2  0  0  0  0
  9  7  1  0  0  0  0
 10  3  1  0  0  0  0
 10 11  1  0  0  0  0
 11  2  1  0  0  0  0
 13 35  1  0  0  0  0
 14 13  1  0  0  0  0
 15 12  2  0  0  0  0
 16 17  1  0  0  0  0
 16  3  1  0  0  0  0
 18 16  1  1  0  0  0
 19 21  1  6  0  0  0
 19 20  1  0  0  0  0
 19 18  1  0  0  0  0
 20 18  1  0  0  0  0
 22 24  1  0  0  0  0
 22 21  1  1  0  0  0
 23 26  1  0  0  0  0
 23 25  1  0  0  0  0
 25 28  1  6  0  0  0
 25 22  1  0  0  0  0
 26 24  1  0  0  0  0
 27 31  1  0  0  0  0
 28 27  1  0  0  0  0
 29 27  1  0  0  0  0
 30 28  2  0  0  0  0
 31 32  1  0  0  0  0
 32 34  1  0  0  0  0
 34 33  1  0  0  0  0
 35 40  1  0  0  0  0
 36 37  1  0  0  0  0
 37 43  1  0  0  0  0
 37 41  2  0  0  0  0
 38 41  1  0  0  0  0
 39 36  2  0  0  0  0
 39 40  1  0  0  0  0
 40 38  2  0  0  0  0
 42 43  1  0  0  0  0
M  END
>  <MODEL>
1

>  <REMARK>
 VINA RESULT:     -10.0      0.000      0.000
  Name = 
  11 active torsions:
  status: ('A' for Active; 'I' for Inactive)
    1  A    between atoms: C_1  and  C_34
    2  A    between atoms: C_1  and  C_35
    3  A    between atoms: N_2  and  C_6
    4  A    between atoms: N_2  and  C_13
    5  A    between atoms: C_3  and  C_4
    6  A    between atoms: C_3  and  C_12
    7  A    between atoms: N_11  and  C_36
    8  A    between atoms: C_14  and  C_22
    9  A    between atoms: C_19  and  O_37
   10  A    between atoms: C_29  and  C_31
   11  A    between atoms: C_29  and  C_36
                            x       y       z     vdW  Elec       q    Type
                         _______ _______ _______ _____ _____    ______ ____

>  <TORSDO>
F 11

$$$$
=
 OpenBabel11052416083D

 43 48  0  0  1  0  0  0  0  0999 V2000
  191.4050  176.4020  147.1050 C   0  0  0  0  0  0  0  0  0  0  0  0
  186.9670  177.9190  145.2200 C   0  0  0  0  0  0  0  0  0  0  0  0
  187.3270  178.1490  142.4180 C   0  0  0  0  0  0  0  0  0  0  0  0
  189.1200  177.1020  146.8390 C   0  0  0  0  0  0  0  0  0  0  0  0
  191.6780  176.4990  145.8030 C   0  0  0  0  0  3  0  0  0  0  0  0
  192.4660  175.9620  148.0480 C   0  0  0  0  0  1  0  0  0  0  0  0
  189.3000  177.2330  145.4430 C   0  0  0  0  0  0  0  0  0  0  0  0
  190.0980  176.7180  147.6050 N   0  0  0  0  0  0  0  0  0  0  0  0
  190.6390  176.9410  144.8100 C   0  0  0  0  0  2  0  0  0  0  0  0
  188.3880  177.7650  143.2510 O   0  0  0  0  0  0  0  0  0  0  0  0
  188.2230  177.6370  144.6390 C   0  0  0  0  0  0  0  0  0  0  0  0
  186.8100  177.7910  146.6090 C   0  0  0  0  0  3  0  0  0  0  0  0
  185.9420  178.3050  144.4280 C   0  0  0  0  0  0  0  0  0  0  0  0
  186.1340  178.4180  142.9670 C   0  0  0  0  0  3  0  0  0  0  0  0
  187.8780  177.3840  147.4090 C   0  0  0  0  0  3  0  0  0  0  0  0
  187.5290  178.2470  140.9970 N   0  0  0  0  0  0  0  0  0  0  0  0
  186.4130  178.5570  140.1060 C   0  0  0  0  0  1  0  0  0  0  0  0
  188.8830  178.2470  140.4450 C   0  0  2  0  0  3  0  0  0  0  0  0
  189.0290  177.1490  139.4030 C   0  0  2  0  0  3  0  0  0  0  0  0
  189.5970  176.9500  140.7880 C   0  0  0  0  0  2  0  0  0  0  0  0
  190.1440  177.5280  138.4470 C   0  0  0  0  0  2  0  0  0  0  0  0
  191.0410  176.3290  138.1870 C   0  0  2  0  0  3  0  0  0  0  0  0
  192.3960  175.2740  136.1480 S   0  0  0  0  0  0  0  0  0  0  0  0
  192.4370  176.7190  138.2640 N   0  0  0  0  0  2  0  0  0  0  0  0
  190.7900  175.7960  136.7970 C   0  0  1  0  0  3  0  0  0  0  0  0
  193.1760  175.6760  137.6840 N   0  0  0  0  0  2  0  0  0  0  0  0
  188.5530  174.7370  136.1750 N   0  0  0  0  0  0  0  0  0  0  0  0
  189.8270  174.6470  136.8330 C   0  0  0  0  0  0  0  0  0  0  0  0
  187.5700  173.6790  136.3450 C   0  0  0  0  0  1  0  0  0  0  0  0
  190.1360  173.5990  137.4650 O   0  0  0  0  0  0  0  0  0  0  0  0
  188.1540  175.9280  135.4320 C   0  0  0  0  0  2  0  0  0  0  0  0
  187.1630  176.7650  136.2330 C   0  0  0  0  0  2  0  0  0  0  0  0
  187.3330  179.0630  136.8770 O   0  0  0  0  0  1  0  0  0  0  0  0
  187.1700  178.2160  135.7780 C   0  0  0  0  0  2  0  0  0  0  0  0
  184.5970  178.6630  144.9880 C   0  0  0  0  0  2  0  0  0  0  0  0
  182.9840  178.4780  141.5630 C   0  0  0  0  0  3  0  0  0  0  0  0
  181.6630  178.8370  141.8540 C   0  0  0  0  0  0  0  0  0  0  0  0
  182.2490  179.0550  144.2000 C   0  0  0  0  0  3  0  0  0  0  0  0
  183.9360  178.4120  142.5860 C   0  0  0  0  0  3  0  0  0  0  0  0
  183.5690  178.6960  143.9050 C   0  0  0  0  0  0  0  0  0  0  0  0
  181.2980  179.1220  143.1780 C   0  0  0  0  0  3  0  0  0  0  0  0
  180.2520  180.0820  140.3970 O   0  0  0  0  0  1  0  0  0  0  0  0
  180.7280  178.9040  140.8230 O   0  0  0  0  0  0  0  0  0  0  0  0
  1  8  1  0  0  0  0
  1  6  1  0  0  0  0
  2 12  1  0  0  0  0
  3 14  2  0  0  0  0
  3 10  1  0  0  0  0
  4 15  1  0  0  0  0
  4  8  2  0  0  0  0
  5  1  2  0  0  0  0
  7  4  1  0  0  0  0
  9  7  1  0  0  0  0
  9  5  1  0  0  0  0
 10 11  1  0  0  0  0
 11  2  1  0  0  0  0
 11  7  2  0  0  0  0
 12 15  2  0  0  0  0
 13 35  1  0  0  0  0
 13  2  2  0  0  0  0
 14 13  1  0  0  0  0
 16  3  1  0  0  0  0
 17 16  1  0  0  0  0
 18 20  1  0  0  0  0
 18 16  1  1  0  0  0
 19 21  1  6  0  0  0
 19 18  1  0  0  0  0
 19 20  1  0  0  0  0
 22 24  1  0  0  0  0
 22 21  1  6  0  0  0
 23 25  1  0  0  0  0
 23 26  1  0  0  0  0
 25 28  1  1  0  0  0
 25 22  1  0  0  0  0
 26 24  1  0  0  0  0
 27 29  1  0  0  0  0
 27 28  1  0  0  0  0
 28 30  2  0  0  0  0
 31 27  1  0  0  0  0
 31 32  1  0  0  0  0
 34 32  1  0  0  0  0
 34 33  1  0  0  0  0
 36 37  2  0  0  0  0
 36 39  1  0  0  0  0
 37 41  1  0  0  0  0
 39 40  2  0  0  0  0
 40 38  1  0  0  0  0
 40 35  1  0  0  0  0
 41 38  2  0  0  0  0
 42 43  1  0  0  0  0
 43 37  1  0  0  0  0
M  END
>  <MODEL>
2

>  <REMARK>
 VINA RESULT:      -9.8      2.494      6.837
  Name = 
  11 active torsions:
  status: ('A' for Active; 'I' for Inactive)
    1  A    between atoms: C_1  and  C_34
    2  A    between atoms: C_1  and  C_35
    3  A    between atoms: N_2  and  C_6
    4  A    between atoms: N_2  and  C_13
    5  A    between atoms: C_3  and  C_4
    6  A    between atoms: C_3  and  C_12
    7  A    between atoms: N_11  and  C_36
    8  A    between atoms: C_14  and  C_22
    9  A    between atoms: C_19  and  O_37
   10  A    between atoms: C_29  and  C_31
   11  A    between atoms: C_29  and  C_36
                            x       y       z     vdW  Elec       q    Type
                         _______ _______ _______ _____ _____    ______ ____

>  <TORSDO>
F 11

$$$$
=
 OpenBabel11052416083D

 43 48  0  0  1  0  0  0  0  0999 V2000
  181.5590  179.1310  141.3730 C   0  0  0  0  0  0  0  0  0  0  0  0
  185.3350  178.2600  144.6190 C   0  0  0  0  0  0  0  0  0  0  0  0
  187.5460  177.4130  143.0620 C   0  0  0  0  0  0  0  0  0  0  0  0
  182.9030  178.8990  143.3530 C   0  0  0  0  0  0  0  0  0  0  0  0
  182.5340  178.7250  140.5580 C   0  0  0  0  0  3  0  0  0  0  0  0
  180.2380  179.5100  140.8070 C   0  0  0  0  0  1  0  0  0  0  0  0
  184.0030  178.4610  142.5820 C   0  0  0  0  0  0  0  0  0  0  0  0
  181.7720  179.2060  142.7890 N   0  0  0  0  0  0  0  0  0  0  0  0
  183.8860  178.3290  141.0830 C   0  0  0  0  0  2  0  0  0  0  0  0
  186.3170  177.7180  142.4600 O   0  0  0  0  0  0  0  0  0  0  0  0
  185.2150  178.1470  143.2160 C   0  0  0  0  0  0  0  0  0  0  0  0
  184.2290  178.6890  145.3690 C   0  0  0  0  0  3  0  0  0  0  0  0
  186.5110  177.9550  145.2100 C   0  0  0  0  0  0  0  0  0  0  0  0
  187.6630  177.5200  144.3920 C   0  0  0  0  0  3  0  0  0  0  0  0
  183.0250  179.0070  144.7400 C   0  0  0  0  0  3  0  0  0  0  0  0
  188.6590  176.9970  142.2500 N   0  0  0  0  0  0  0  0  0  0  0  0
  189.7420  176.2030  142.8240 C   0  0  0  0  0  1  0  0  0  0  0  0
  188.6220  177.1820  140.8000 C   0  0  2  0  0  3  0  0  0  0  0  0
  189.9360  177.7670  140.3070 C   0  0  2  0  0  3  0  0  0  0  0  0
  188.7240  178.6560  140.4490 C   0  0  0  0  0  2  0  0  0  0  0  0
  190.1220  177.3910  138.8500 C   0  0  0  0  0  2  0  0  0  0  0  0
  191.3170  176.4650  138.6960 C   0  0  2  0  0  3  0  0  0  0  0  0
  193.3450  176.1120  137.0020 S   0  0  0  0  0  0  0  0  0  0  0  0
  192.5150  177.0980  139.2170 N   0  0  0  0  0  2  0  0  0  0  0  0
  191.5520  176.1730  137.2340 C   0  0  1  0  0  3  0  0  0  0  0  0
  193.6030  176.3530  138.7360 N   0  0  0  0  0  2  0  0  0  0  0  0
  189.8230  174.8450  135.9080 N   0  0  0  0  0  0  0  0  0  0  0  0
  190.9150  174.8740  136.8410 C   0  0  0  0  0  0  0  0  0  0  0  0
  189.1170  173.5990  135.6530 C   0  0  0  0  0  1  0  0  0  0  0  0
  191.3350  173.7990  137.3510 O   0  0  0  0  0  0  0  0  0  0  0  0
  189.3050  176.0620  135.2920 C   0  0  0  0  0  2  0  0  0  0  0  0
  188.0390  176.5350  135.9970 C   0  0  0  0  0  2  0  0  0  0  0  0
  187.0820  178.5390  136.8870 O   0  0  0  0  0  1  0  0  0  0  0  0
  187.8370  178.0330  135.8260 C   0  0  0  0  0  2  0  0  0  0  0  0
  186.6890  178.0110  146.6990 C   0  0  0  0  0  2  0  0  0  0  0  0
  190.2260  176.6460  146.7030 C   0  0  0  0  0  3  0  0  0  0  0  0
  190.7850  177.3160  147.7970 C   0  0  0  0  0  0  0  0  0  0  0  0
  188.6760  178.4630  148.1610 C   0  0  0  0  0  3  0  0  0  0  0  0
  188.8960  176.8820  146.3400 C   0  0  0  0  0  3  0  0  0  0  0  0
  188.1210  177.7930  147.0650 C   0  0  0  0  0  0  0  0  0  0  0  0
  190.0050  178.2280  148.5240 C   0  0  0  0  0  3  0  0  0  0  0  0
  192.7510  175.9780  147.7020 O   0  0  0  0  0  1  0  0  0  0  0  0
  192.1100  177.0650  148.1500 O   0  0  0  0  0  0  0  0  0  0  0  0
  1  8  1  0  0  0  0
  2 13  2  0  0  0  0
  2 12  1  0  0  0  0
  3 14  2  0  0  0  0
  4 15  1  0  0  0  0
  5  9  1  0  0  0  0
  5  1  2  0  0  0  0
  6  1  1  0  0  0  0
  7 11  2  0  0  0  0
  7  4  1  0  0  0  0
  8  4  2  0  0  0  0
  9  7  1  0  0  0  0
 10  3  1  0  0  0  0
 10 11  1  0  0  0  0
 11  2  1  0  0  0  0
 13 35  1  0  0  0  0
 14 13  1  0  0  0  0
 15 12  2  0  0  0  0
 16 17  1  0  0  0  0
 16  3  1  0  0  0  0
 18 16  1  1  0  0  0
 19 21  1  6  0  0  0
 19 20  1  0  0  0  0
 19 18  1  0  0  0  0
 20 18  1  0  0  0  0
 22 21  1  6  0  0  0
 22 24  1  0  0  0  0
 23 25  1  0  0  0  0
 23 26  1  0  0  0  0
 25 28  1  1  0  0  0
 25 22  1  0  0  0  0
 26 24  1  0  0  0  0
 27 28  1  0  0  0  0
 28 30  2  0  0  0  0
 29 27  1  0  0  0  0
 31 27  1  0  0  0  0
 31 32  1  0  0  0  0
 34 32  1  0  0  0  0
 34 33  1  0  0  0  0
 35 40  1  0  0  0  0
 36 37  1  0  0  0  0
 37 43  1  0  0  0  0
 37 41  2  0  0  0  0
 38 41  1  0  0  0  0
 39 36  2  0  0  0  0
 39 40  1  0  0  0  0
 40 38  2  0  0  0  0
 42 43  1  0  0  0  0
M  END
>  <MODEL>
3

>  <REMARK>
 VINA RESULT:      -9.8      1.843      2.920
  Name = 
  11 active torsions:
  status: ('A' for Active; 'I' for Inactive)
    1  A    between atoms: C_1  and  C_34
    2  A    between atoms: C_1  and  C_35
    3  A    between atoms: N_2  and  C_6
    4  A    between atoms: N_2  and  C_13
    5  A    between atoms: C_3  and  C_4
    6  A    between atoms: C_3  and  C_12
    7  A    between atoms: N_11  and  C_36
    8  A    between atoms: C_14  and  C_22
    9  A    between atoms: C_19  and  O_37
   10  A    between atoms: C_29  and  C_31
   11  A    between atoms: C_29  and  C_36
                            x       y       z     vdW  Elec       q    Type
                         _______ _______ _______ _____ _____    ______ ____

>  <TORSDO>
F 11

$$$$
=
 OpenBabel11052416083D

 43 48  0  0  1  0  0  0  0  0999 V2000
  191.3560  176.3880  146.8860 C   0  0  0  0  0  0  0  0  0  0  0  0
  186.9360  177.9150  144.9680 C   0  0  0  0  0  0  0  0  0  0  0  0
  187.3150  178.1410  142.1690 C   0  0  0  0  0  0  0  0  0  0  0  0
  189.0750  177.0940  146.6030 C   0  0  0  0  0  0  0  0  0  0  0  0
  191.6380  176.4820  145.5850 C   0  0  0  0  0  3  0  0  0  0  0  0
  192.4100  175.9460  147.8370 C   0  0  0  0  0  1  0  0  0  0  0  0
  189.2650  177.2220  145.2080 C   0  0  0  0  0  0  0  0  0  0  0  0
  190.0470  176.7090  147.3760 N   0  0  0  0  0  0  0  0  0  0  0  0
  190.6070  176.9260  144.5850 C   0  0  0  0  0  2  0  0  0  0  0  0
  188.3700  177.7540  143.0090 O   0  0  0  0  0  0  0  0  0  0  0  0
  188.1950  177.6290  144.3960 C   0  0  0  0  0  0  0  0  0  0  0  0
  186.7680  177.7900  146.3560 C   0  0  0  0  0  3  0  0  0  0  0  0
  185.9180  178.3030  144.1680 C   0  0  0  0  0  0  0  0  0  0  0  0
  186.1200  178.4130  142.7080 C   0  0  0  0  0  3  0  0  0  0  0  0
  187.8300  177.3800  147.1640 C   0  0  0  0  0  3  0  0  0  0  0  0
  187.5280  178.2360  140.7480 N   0  0  0  0  0  0  0  0  0  0  0  0
  186.4220  178.5600  139.8510 C   0  0  0  0  0  1  0  0  0  0  0  0
  188.8860  178.2190  140.2050 C   0  0  2  0  0  3  0  0  0  0  0  0
  189.1140  176.9520  139.3950 C   0  0  2  0  0  3  0  0  0  0  0  0
  189.6780  177.0630  140.7910 C   0  0  0  0  0  2  0  0  0  0  0  0
  190.2130  177.2130  138.3820 C   0  0  0  0  0  2  0  0  0  0  0  0
  190.0170  176.3330  137.1590 C   0  0  2  0  0  3  0  0  0  0  0  0
  190.2980  173.7670  136.4980 S   0  0  0  0  0  0  0  0  0  0  0  0
  188.7320  175.6600  137.2230 N   0  0  0  0  0  2  0  0  0  0  0  0
  191.0880  175.2720  137.1160 C   0  0  1  0  0  3  0  0  0  0  0  0
  188.7720  174.6310  136.2690 N   0  0  0  0  0  2  0  0  0  0  0  0
  193.5700  175.7060  136.7080 N   0  0  0  0  0  0  0  0  0  0  0  0
  192.2180  175.6910  136.2230 C   0  0  0  0  0  0  0  0  0  0  0  0
  194.6330  176.2570  135.8830 C   0  0  0  0  0  1  0  0  0  0  0  0
  191.9710  176.0490  135.0380 O   0  0  0  0  0  0  0  0  0  0  0  0
  193.9030  175.2990  138.0690 C   0  0  0  0  0  2  0  0  0  0  0  0
  194.7420  174.0260  138.0700 C   0  0  0  0  0  2  0  0  0  0  0  0
  195.7800  175.2250  139.8610 O   0  0  0  0  0  1  0  0  0  0  0  0
  195.9630  174.1690  138.9650 C   0  0  0  0  0  2  0  0  0  0  0  0
  184.5690  178.6650  144.7190 C   0  0  0  0  0  2  0  0  0  0  0  0
  181.2910  179.1820  142.8890 C   0  0  0  0  0  3  0  0  0  0  0  0
  181.6150  178.7410  141.6000 C   0  0  0  0  0  0  0  0  0  0  0  0
  183.8800  178.2750  142.3400 C   0  0  0  0  0  3  0  0  0  0  0  0
  182.2570  179.1670  143.9000 C   0  0  0  0  0  3  0  0  0  0  0  0
  183.5530  178.7180  143.6260 C   0  0  0  0  0  0  0  0  0  0  0  0
  182.9150  178.2900  141.3290 C   0  0  0  0  0  3  0  0  0  0  0  0
  180.8790  179.3150  139.4110 O   0  0  0  0  0  1  0  0  0  0  0  0
  180.6390  178.7570  140.6050 O   0  0  0  0  0  0  0  0  0  0  0  0
  1  8  1  0  0  0  0
  1  6  1  0  0  0  0
  2 12  1  0  0  0  0
  3 14  2  0  0  0  0
  3 10  1  0  0  0  0
  4 15  1  0  0  0  0
  4  8  2  0  0  0  0
  5  1  2  0  0  0  0
  7  4  1  0  0  0  0
  9  7  1  0  0  0  0
  9  5  1  0  0  0  0
 10 11  1  0  0  0  0
 11  2  1  0  0  0  0
 11  7  2  0  0  0  0
 12 15  2  0  0  0  0
 13 35  1  0  0  0  0
 13  2  2  0  0  0  0
 14 13  1  0  0  0  0
 16  3  1  0  0  0  0
 17 16  1  0  0  0  0
 18 16  1  1  0  0  0
 18 20  1  0  0  0  0
 19 21  1  6  0  0  0
 19 18  1  0  0  0  0
 19 20  1  0  0  0  0
 22 24  1  0  0  0  0
 22 21  1  1  0  0  0
 23 25  1  0  0  0  0
 25 28  1  6  0  0  0
 25 22  1  0  0  0  0
 26 23  1  0  0  0  0
 26 24  1  0  0  0  0
 27 31  1  0  0  0  0
 28 27  1  0  0  0  0
 29 27  1  0  0  0  0
 30 28  2  0  0  0  0
 31 32  1  0  0  0  0
 32 34  1  0  0  0  0
 34 33  1  0  0  0  0
 36 39  1  0  0  0  0
 37 36  2  0  0  0  0
 38 40  1  0  0  0  0
 40 39  2  0  0  0  0
 40 35  1  0  0  0  0
 41 37  1  0  0  0  0
 41 38  2  0  0  0  0
 42 43  1  0  0  0  0
 43 37  1  0  0  0  0
M  END
>  <MODEL>
4

>  <REMARK>
 VINA RESULT:      -9.5      2.349      6.511
  Name = 
  11 active torsions:
  status: ('A' for Active; 'I' for Inactive)
    1  A    between atoms: C_1  and  C_34
    2  A    between atoms: C_1  and  C_35
    3  A    between atoms: N_2  and  C_6
    4  A    between atoms: N_2  and  C_13
    5  A    between atoms: C_3  and  C_4
    6  A    between atoms: C_3  and  C_12
    7  A    between atoms: N_11  and  C_36
    8  A    between atoms: C_14  and  C_22
    9  A    between atoms: C_19  and  O_37
   10  A    between atoms: C_29  and  C_31
   11  A    between atoms: C_29  and  C_36
                            x       y       z     vdW  Elec       q    Type
                         _______ _______ _______ _____ _____    ______ ____

>  <TORSDO>
F 11

$$$$
=
 OpenBabel11052416083D

 43 48  0  0  1  0  0  0  0  0999 V2000
  181.8360  179.0100  141.7280 C   0  0  0  0  0  0  0  0  0  0  0  0
  185.6710  178.3070  144.9450 C   0  0  0  0  0  0  0  0  0  0  0  0
  187.9730  177.8510  143.3560 C   0  0  0  0  0  0  0  0  0  0  0  0
  183.1880  178.7680  143.7010 C   0  0  0  0  0  0  0  0  0  0  0  0
  182.8560  178.7880  140.8960 C   0  0  0  0  0  3  0  0  0  0  0  0
  180.4830  179.2830  141.1760 C   0  0  0  0  0  1  0  0  0  0  0  0
  184.3350  178.5250  142.9130 C   0  0  0  0  0  0  0  0  0  0  0  0
  182.0320  178.9910  143.1490 N   0  0  0  0  0  0  0  0  0  0  0  0
  184.2420  178.5060  141.4060 C   0  0  0  0  0  2  0  0  0  0  0  0
  186.7200  178.0620  142.7630 O   0  0  0  0  0  0  0  0  0  0  0  0
  185.5720  178.2990  143.5360 C   0  0  0  0  0  0  0  0  0  0  0  0
  184.5190  178.5420  145.7130 C   0  0  0  0  0  3  0  0  0  0  0  0
  186.8720  178.0890  145.5260 C   0  0  0  0  0  0  0  0  0  0  0  0
  188.0700  177.8580  144.6920 C   0  0  0  0  0  3  0  0  0  0  0  0
  183.2900  178.7730  145.0940 C   0  0  0  0  0  3  0  0  0  0  0  0
  189.1300  177.6340  142.5280 N   0  0  0  0  0  0  0  0  0  0  0  0
  190.4750  177.8000  143.0730 C   0  0  0  0  0  1  0  0  0  0  0  0
  188.9840  177.0440  141.1980 C   0  0  2  0  0  3  0  0  0  0  0  0
  189.5340  177.9860  140.1390 C   0  0  2  0  0  3  0  0  0  0  0  0
  188.0420  177.8780  140.3480 C   0  0  0  0  0  2  0  0  0  0  0  0
  189.9360  177.1720  138.9240 C   0  0  0  0  0  2  0  0  0  0  0  0
  189.3720  177.8010  137.6610 C   0  0  2  0  0  3  0  0  0  0  0  0
  186.9840  178.2280  136.5560 S   0  0  0  0  0  0  0  0  0  0  0  0
  188.9370  179.1600  137.9280 N   0  0  0  0  0  2  0  0  0  0  0  0
  188.1690  177.0190  137.1940 C   0  0  1  0  0  3  0  0  0  0  0  0
  188.1320  179.5420  136.8430 N   0  0  0  0  0  2  0  0  0  0  0  0
  187.8930  174.7620  136.0350 N   0  0  0  0  0  0  0  0  0  0  0  0
  188.5550  176.0330  136.1320 C   0  0  0  0  0  0  0  0  0  0  0  0
  188.3770  173.7580  135.1010 C   0  0  0  0  0  1  0  0  0  0  0  0
  189.4840  176.3210  135.3270 O   0  0  0  0  0  0  0  0  0  0  0  0
  186.8130  174.3870  136.9420 C   0  0  0  0  0  2  0  0  0  0  0  0
  185.4710  174.3760  136.2200 C   0  0  0  0  0  2  0  0  0  0  0  0
  183.8490  174.5570  137.9690 O   0  0  0  0  0  1  0  0  0  0  0  0
  184.4560  175.2610  136.9250 C   0  0  0  0  0  2  0  0  0  0  0  0
  187.0350  178.0400  147.0170 C   0  0  0  0  0  2  0  0  0  0  0  0
  190.5040  176.5130  147.0900 C   0  0  0  0  0  3  0  0  0  0  0  0
  191.1120  177.2460  148.1150 C   0  0  0  0  0  0  0  0  0  0  0  0
  189.0660  178.5200  148.4080 C   0  0  0  0  0  3  0  0  0  0  0  0
  189.1800  176.7800  146.7260 C   0  0  0  0  0  3  0  0  0  0  0  0
  188.4610  177.7850  147.3810 C   0  0  0  0  0  0  0  0  0  0  0  0
  190.3880  178.2530  148.7720 C   0  0  0  0  0  3  0  0  0  0  0  0
  193.0210  175.8240  148.0850 O   0  0  0  0  0  1  0  0  0  0  0  0
  192.4300  176.9640  148.4700 O   0  0  0  0  0  0  0  0  0  0  0  0
  1  8  1  0  0  0  0
  2 13  2  0  0  0  0
  2 12  1  0  0  0  0
  3 14  2  0  0  0  0
  4 15  1  0  0  0  0
  5  9  1  0  0  0  0
  5  1  2  0  0  0  0
  6  1  1  0  0  0  0
  7 11  2  0  0  0  0
  7  4  1  0  0  0  0
  8  4  2  0  0  0  0
  9  7  1  0  0  0  0
 10  3  1  0  0  0  0
 10 11  1  0  0  0  0
 11  2  1  0  0  0  0
 13 35  1  0  0  0  0
 14 13  1  0  0  0  0
 15 12  2  0  0  0  0
 16 17  1  0  0  0  0
 16  3  1  0  0  0  0
 18 16  1  1  0  0  0
 19 21  1  6  0  0  0
 19 20  1  0  0  0  0
 19 18  1  0  0  0  0
 20 18  1  0  0  0  0
 22 24  1  0  0  0  0
 22 21  1  1  0  0  0
 23 26  1  0  0  0  0
 23 25  1  0  0  0  0
 25 28  1  6  0  0  0
 25 22  1  0  0  0  0
 26 24  1  0  0  0  0
 27 28  1  0  0  0  0
 27 31  1  0  0  0  0
 29 27  1  0  0  0  0
 30 28  2  0  0  0  0
 32 34  1  0  0  0  0
 32 31  1  0  0  0  0
 34 33  1  0  0  0  0
 35 40  1  0  0  0  0
 36 37  1  0  0  0  0
 37 43  1  0  0  0  0
 37 41  2  0  0  0  0
 38 41  1  0  0  0  0
 39 36  2  0  0  0  0
 39 40  1  0  0  0  0
 40 38  2  0  0  0  0
 42 43  1  0  0  0  0
M  END
>  <MODEL>
5

>  <REMARK>
 VINA RESULT:      -9.2      1.799      2.852
  Name = 
  11 active torsions:
  status: ('A' for Active; 'I' for Inactive)
    1  A    between atoms: C_1  and  C_34
    2  A    between atoms: C_1  and  C_35
    3  A    between atoms: N_2  and  C_6
    4  A    between atoms: N_2  and  C_13
    5  A    between atoms: C_3  and  C_4
    6  A    between atoms: C_3  and  C_12
    7  A    between atoms: N_11  and  C_36
    8  A    between atoms: C_14  and  C_22
    9  A    between atoms: C_19  and  O_37
   10  A    between atoms: C_29  and  C_31
   11  A    between atoms: C_29  and  C_36
                            x       y       z     vdW  Elec       q    Type
                         _______ _______ _______ _____ _____    ______ ____

>  <TORSDO>
F 11

$$$$
=
 OpenBabel11052416083D

 43 48  0  0  1  0  0  0  0  0999 V2000
  191.3290  176.4230  146.9170 C   0  0  0  0  0  0  0  0  0  0  0  0
  186.8080  178.0380  145.3350 C   0  0  0  0  0  0  0  0  0  0  0  0
  186.9880  178.2790  142.5170 C   0  0  0  0  0  0  0  0  0  0  0  0
  189.0460  177.1680  146.8050 C   0  0  0  0  0  0  0  0  0  0  0  0
  191.5180  176.5230  145.6000 C   0  0  0  0  0  3  0  0  0  0  0  0
  192.4410  175.9560  147.7860 C   0  0  0  0  0  1  0  0  0  0  0  0
  189.1370  177.3050  145.4010 C   0  0  0  0  0  0  0  0  0  0  0  0
  190.0640  176.7610  147.5030 N   0  0  0  0  0  0  0  0  0  0  0  0
  190.4250  176.9920  144.6800 C   0  0  0  0  0  2  0  0  0  0  0  0
  188.0930  177.8690  143.2760 O   0  0  0  0  0  0  0  0  0  0  0  0
  188.0170  177.7360  144.6710 C   0  0  0  0  0  0  0  0  0  0  0  0
  186.7390  177.9040  146.7310 C   0  0  0  0  0  3  0  0  0  0  0  0
  185.7420  178.4490  144.6130 C   0  0  0  0  0  0  0  0  0  0  0  0
  185.8400  178.5670  143.1430 C   0  0  0  0  0  3  0  0  0  0  0  0
  187.8490  177.4710  147.4570 C   0  0  0  0  0  3  0  0  0  0  0  0
  187.0990  178.3830  141.0860 N   0  0  0  0  0  0  0  0  0  0  0  0
  185.9160  178.6220  140.2630 C   0  0  0  0  0  1  0  0  0  0  0  0
  188.4160  178.4600  140.4530 C   0  0  2  0  0  3  0  0  0  0  0  0
  188.5040  177.4760  139.2970 C   0  0  2  0  0  3  0  0  0  0  0  0
  189.1600  177.1460  140.6160 C   0  0  0  0  0  2  0  0  0  0  0  0
  189.5530  177.9680  138.3180 C   0  0  0  0  0  2  0  0  0  0  0  0
  188.9800  178.0070  136.9110 C   0  0  2  0  0  3  0  0  0  0  0  0
  186.9980  176.8590  135.5470 S   0  0  0  0  0  0  0  0  0  0  0  0
  187.8330  178.8950  136.8600 N   0  0  0  0  0  2  0  0  0  0  0  0
  188.5100  176.6290  136.5130 C   0  0  1  0  0  3  0  0  0  0  0  0
  187.1650  178.6170  135.6570 N   0  0  0  0  0  2  0  0  0  0  0  0
  189.7890  174.5130  135.8810 N   0  0  0  0  0  0  0  0  0  0  0  0
  189.5580  175.9200  135.7090 C   0  0  0  0  0  0  0  0  0  0  0  0
  190.9070  173.8710  135.2090 C   0  0  0  0  0  1  0  0  0  0  0  0
  190.2540  176.5750  134.8840 O   0  0  0  0  0  0  0  0  0  0  0  0
  189.0080  173.7160  136.8210 C   0  0  0  0  0  2  0  0  0  0  0  0
  188.3510  172.5320  136.1210 C   0  0  0  0  0  2  0  0  0  0  0  0
  186.4860  173.4130  137.3320 O   0  0  0  0  0  1  0  0  0  0  0  0
  186.8390  172.5640  136.2800 C   0  0  0  0  0  2  0  0  0  0  0  0
  184.4430  178.8290  145.2630 C   0  0  0  0  0  2  0  0  0  0  0  0
  182.5510  178.9250  141.9800 C   0  0  0  0  0  3  0  0  0  0  0  0
  181.2280  178.7750  142.4120 C   0  0  0  0  0  0  0  0  0  0  0  0
  182.0050  178.6310  144.7080 C   0  0  0  0  0  3  0  0  0  0  0  0
  183.5970  178.9320  142.9080 C   0  0  0  0  0  3  0  0  0  0  0  0
  183.3260  178.7810  144.2720 C   0  0  0  0  0  0  0  0  0  0  0  0
  180.9600  178.6250  143.7810 C   0  0  0  0  0  3  0  0  0  0  0  0
  179.0970  179.5190  141.6600 O   0  0  0  0  0  1  0  0  0  0  0  0
  180.1960  178.7760  141.4760 O   0  0  0  0  0  0  0  0  0  0  0  0
  1  8  1  0  0  0  0
  1  6  1  0  0  0  0
  2 12  1  0  0  0  0
  3 14  2  0  0  0  0
  3 10  1  0  0  0  0
  4 15  1  0  0  0  0
  4  8  2  0  0  0  0
  5  1  2  0  0  0  0
  7  4  1  0  0  0  0
  9  7  1  0  0  0  0
  9  5  1  0  0  0  0
 10 11  1  0  0  0  0
 11  2  1  0  0  0  0
 11  7  2  0  0  0  0
 12 15  2  0  0  0  0
 13 35  1  0  0  0  0
 13  2  2  0  0  0  0
 14 13  1  0  0  0  0
 16  3  1  0  0  0  0
 17 16  1  0  0  0  0
 18 20  1  0  0  0  0
 18 16  1  1  0  0  0
 19 21  1  6  0  0  0
 19 18  1  0  0  0  0
 19 20  1  0  0  0  0
 22 21  1  1  0  0  0
 23 26  1  0  0  0  0
 23 25  1  0  0  0  0
 24 22  1  0  0  0  0
 25 28  1  6  0  0  0
 25 22  1  0  0  0  0
 26 24  1  0  0  0  0
 27 31  1  0  0  0  0
 28 27  1  0  0  0  0
 29 27  1  0  0  0  0
 30 28  2  0  0  0  0
 32 34  1  0  0  0  0
 32 31  1  0  0  0  0
 34 33  1  0  0  0  0
 36 37  2  0  0  0  0
 36 39  1  0  0  0  0
 37 41  1  0  0  0  0
 39 40  2  0  0  0  0
 40 38  1  0  0  0  0
 40 35  1  0  0  0  0
 41 38  2  0  0  0  0
 43 42  1  0  0  0  0
 43 37  1  0  0  0  0
M  END
>  <MODEL>
6

>  <REMARK>
 VINA RESULT:      -9.2      2.424      6.550
  Name = 
  11 active torsions:
  status: ('A' for Active; 'I' for Inactive)
    1  A    between atoms: C_1  and  C_34
    2  A    between atoms: C_1  and  C_35
    3  A    between atoms: N_2  and  C_6
    4  A    between atoms: N_2  and  C_13
    5  A    between atoms: C_3  and  C_4
    6  A    between atoms: C_3  and  C_12
    7  A    between atoms: N_11  and  C_36
    8  A    between atoms: C_14  and  C_22
    9  A    between atoms: C_19  and  O_37
   10  A    between atoms: C_29  and  C_31
   11  A    between atoms: C_29  and  C_36
                            x       y       z     vdW  Elec       q    Type
                         _______ _______ _______ _____ _____    ______ ____

>  <TORSDO>
F 11

$$$$
=
 OpenBabel11052416083D

 43 48  0  0  1  0  0  0  0  0999 V2000
  184.7010  176.9110  136.0270 C   0  0  0  0  0  0  0  0  0  0  0  0
  189.3690  175.1580  136.8570 C   0  0  0  0  0  0  0  0  0  0  0  0
  190.3090  176.4640  139.1900 C   0  0  0  0  0  0  0  0  0  0  0  0
  186.7920  175.7330  135.8810 C   0  0  0  0  0  0  0  0  0  0  0  0
  185.0600  177.5900  137.1190 C   0  0  0  0  0  3  0  0  0  0  0  0
  183.3530  177.1250  135.4380 C   0  0  0  0  0  1  0  0  0  0  0  0
  187.2700  176.3940  137.0350 C   0  0  0  0  0  0  0  0  0  0  0  0
  185.6020  175.9770  135.4170 N   0  0  0  0  0  0  0  0  0  0  0  0
  186.4130  177.4090  137.7500 C   0  0  0  0  0  3  0  0  0  0  0  0
  189.0380  176.7470  138.6700 O   0  0  0  0  0  0  0  0  0  0  0  0
  188.5550  176.1020  137.5210 C   0  0  0  0  0  0  0  0  0  0  0  0
  188.8800  174.5180  135.7080 C   0  0  0  0  0  2  0  0  0  0  0  0
  190.6020  174.8900  137.3420 C   0  0  0  0  0  0  0  0  0  0  0  0
  191.0840  175.5700  138.5630 C   0  0  0  0  0  3  0  0  0  0  0  0
  187.6010  174.8020  135.2270 C   0  0  0  0  0  3  0  0  0  0  0  0
  190.7610  177.1310  140.3830 N   0  0  0  0  0  0  0  0  0  0  0  0
  192.1560  177.5410  140.5230 C   0  0  0  0  0  1  0  0  0  0  0  0
  189.7940  177.5930  141.3780 C   0  0  2  0  0  3  0  0  0  0  0  0
  190.3300  177.3620  142.7820 C   0  0  2  0  0  3  0  0  0  0  0  0
  189.2910  176.4270  142.2110 C   0  0  0  0  0  2  0  0  0  0  0  0
  189.6650  178.3440  143.7260 C   0  0  0  0  0  2  0  0  0  0  0  0
  190.1600  178.1250  145.1460 C   0  0  2  0  0  3  0  0  0  0  0  0
  190.3580  176.1180  146.8880 S   0  0  0  0  0  0  0  0  0  0  0  0
  191.5080  177.5850  145.1310 N   0  0  0  0  0  2  0  0  0  0  0  0
  189.2740  177.1260  145.8480 C   0  0  1  0  0  3  0  0  0  0  0  0
  191.7570  177.0950  146.4220 N   0  0  0  0  0  2  0  0  0  0  0  0
  186.9110  178.0380  146.1580 N   0  0  0  0  0  0  0  0  0  0  0  0
  188.2350  177.8230  146.6730 C   0  0  0  0  0  0  0  0  0  0  0  0
  185.9610  178.8460  146.9040 C   0  0  0  0  0  1  0  0  0  0  0  0
  188.5350  178.2400  147.8260 O   0  0  0  0  0  0  0  0  0  0  0  0
  186.5180  177.5730  144.8310 C   0  0  0  0  0  2  0  0  0  0  0  0
  185.3540  178.3930  144.2870 C   0  0  0  0  0  2  0  0  0  0  0  0
  185.5060  179.5880  142.2200 O   0  0  0  0  0  1  0  0  0  0  0  0
  185.2900  178.3220  142.7690 C   0  0  0  0  0  2  0  0  0  0  0  0
  191.5330  173.9320  136.6580 C   0  0  0  0  0  2  0  0  0  0  0  0
  195.2250  174.7820  136.7480 C   0  0  0  0  0  3  0  0  0  0  0  0
  195.2840  175.8750  135.8760 C   0  0  0  0  0  0  0  0  0  0  0  0
  192.8940  175.6850  135.4910 C   0  0  0  0  0  3  0  0  0  0  0  0
  194.0050  174.1440  136.9930 C   0  0  0  0  0  3  0  0  0  0  0  0
  192.8400  174.5910  136.3620 C   0  0  0  0  0  0  0  0  0  0  0  0
  194.1130  176.3230  135.2460 C   0  0  0  0  0  3  0  0  0  0  0  0
  197.6150  176.1170  136.2910 O   0  0  0  0  0  1  0  0  0  0  0  0
  196.5060  176.5050  135.6470 O   0  0  0  0  0  0  0  0  0  0  0  0
  1  5  1  0  0  0  0
  2 13  2  0  0  0  0
  2 11  1  0  0  0  0
  3 16  1  0  0  0  0
  4  7  1  0  0  0  0
  5  9  2  0  0  0  0
  6  1  1  0  0  0  0
  7 11  2  0  0  0  0
  7  9  1  0  0  0  0
  8  4  1  0  0  0  0
  8  1  2  0  0  0  0
 10  3  1  0  0  0  0
 11 10  1  0  0  0  0
 12  2  1  0  0  0  0
 13 14  1  0  0  0  0
 14  3  2  0  0  0  0
 15 12  1  0  0  0  0
 15  4  2  0  0  0  0
 16 17  1  0  0  0  0
 18 16  1  6  0  0  0
 18 20  1  0  0  0  0
 18 19  1  0  0  0  0
 19 21  1  1  0  0  0
 20 19  1  0  0  0  0
 22 21  1  6  0  0  0
 22 25  1  0  0  0  0
 24 22  1  0  0  0  0
 24 26  1  0  0  0  0
 25 28  1  1  0  0  0
 25 23  1  0  0  0  0
 26 23  1  0  0  0  0
 27 28  1  0  0  0  0
 27 29  1  0  0  0  0
 28 30  2  0  0  0  0
 31 27  1  0  0  0  0
 32 31  1  0  0  0  0
 33 34  1  0  0  0  0
 34 32  1  0  0  0  0
 35 13  1  0  0  0  0
 36 39  1  0  0  0  0
 37 36  2  0  0  0  0
 38 40  1  0  0  0  0
 40 35  1  0  0  0  0
 40 39  2  0  0  0  0
 41 38  2  0  0  0  0
 41 37  1  0  0  0  0
 43 37  1  0  0  0  0
 43 42  1  0  0  0  0
M  END
>  <MODEL>
7

>  <REMARK>
 VINA RESULT:      -9.1      3.060      9.354
  Name = 
  11 active torsions:
  status: ('A' for Active; 'I' for Inactive)
    1  A    between atoms: C_1  and  C_34
    2  A    between atoms: C_1  and  C_35
    3  A    between atoms: N_2  and  C_6
    4  A    between atoms: N_2  and  C_13
    5  A    between atoms: C_3  and  C_4
    6  A    between atoms: C_3  and  C_12
    7  A    between atoms: N_11  and  C_36
    8  A    between atoms: C_14  and  C_22
    9  A    between atoms: C_19  and  O_37
   10  A    between atoms: C_29  and  C_31
   11  A    between atoms: C_29  and  C_36
                            x       y       z     vdW  Elec       q    Type
                         _______ _______ _______ _____ _____    ______ ____

>  <TORSDO>
F 11

$$$$
=
 OpenBabel11052416083D

 43 48  0  0  1  0  0  0  0  0999 V2000
  184.9590  178.5950  145.2920 C   0  0  0  0  0  0  0  0  0  0  0  0
  182.4240  178.8570  140.9260 C   0  0  0  0  0  0  0  0  0  0  0  0
  184.2640  178.1480  138.8910 C   0  0  0  0  0  0  0  0  0  0  0  0
  183.2650  178.8960  143.6130 C   0  0  0  0  0  0  0  0  0  0  0  0
  185.9020  178.2670  144.4060 C   0  0  0  0  0  3  0  0  0  0  0  0
  185.2920  178.6290  146.7400 C   0  0  0  0  0  1  0  0  0  0  0  0
  184.1840  178.5580  142.5940 C   0  0  0  0  0  0  0  0  0  0  0  0
  183.6290  178.9130  144.8610 N   0  0  0  0  0  0  0  0  0  0  0  0
  185.6150  178.2210  142.9310 C   0  0  0  0  0  2  0  0  0  0  0  0
  184.6610  178.1960  140.2350 O   0  0  0  0  0  0  0  0  0  0  0  0
  183.7600  178.5360  141.2550 C   0  0  0  0  0  0  0  0  0  0  0  0
  181.5280  179.1980  141.9520 C   0  0  0  0  0  3  0  0  0  0  0  0
  182.0360  178.8280  139.6320 C   0  0  0  0  0  0  0  0  0  0  0  0
  182.9980  178.4520  138.5760 C   0  0  0  0  0  3  0  0  0  0  0  0
  181.9460  179.2140  143.2830 C   0  0  0  0  0  3  0  0  0  0  0  0
  185.2130  177.7740  137.8750 N   0  0  0  0  0  0  0  0  0  0  0  0
  184.8320  176.8550  136.8050 C   0  0  0  0  0  1  0  0  0  0  0  0
  186.4980  178.4640  137.7790 C   0  0  2  0  0  3  0  0  0  0  0  0
  187.6400  177.4600  137.8010 C   0  0  2  0  0  3  0  0  0  0  0  0
  187.3110  178.2530  139.0440 C   0  0  0  0  0  2  0  0  0  0  0  0
  188.8430  178.0750  137.1120 C   0  0  0  0  0  2  0  0  0  0  0  0
  189.8070  176.9860  136.6710 C   0  0  2  0  0  3  0  0  0  0  0  0
  190.2310  174.4000  137.1560 S   0  0  0  0  0  0  0  0  0  0  0  0
  189.2090  176.1790  135.6220 N   0  0  0  0  0  2  0  0  0  0  0  0
  190.1130  176.0730  137.8330 C   0  0  1  0  0  3  0  0  0  0  0  0
  189.9910  175.0180  135.5160 N   0  0  0  0  0  2  0  0  0  0  0  0
  191.3920  176.9780  139.8470 N   0  0  0  0  0  0  0  0  0  0  0  0
  191.3930  176.4730  138.5020 C   0  0  0  0  0  0  0  0  0  0  0  0
  192.6160  177.5030  140.4280 C   0  0  0  0  0  1  0  0  0  0  0  0
  192.4800  176.3810  137.8670 O   0  0  0  0  0  0  0  0  0  0  0  0
  190.1610  177.1010  140.6200 C   0  0  0  0  0  2  0  0  0  0  0  0
  190.4620  177.3240  142.0980 C   0  0  0  0  0  2  0  0  0  0  0  0
  191.1700  176.2000  144.0870 O   0  0  0  0  0  1  0  0  0  0  0  0
  190.5520  176.0060  142.8490 C   0  0  0  0  0  2  0  0  0  0  0  0
  180.6440  179.2020  139.2130 C   0  0  0  0  0  2  0  0  0  0  0  0
  180.4210  181.2470  136.0300 C   0  0  0  0  0  3  0  0  0  0  0  0
  180.8040  182.5150  136.4820 C   0  0  0  0  0  0  0  0  0  0  0  0
  181.0560  181.6270  138.7280 C   0  0  0  0  0  3  0  0  0  0  0  0
  180.3600  180.1720  136.9220 C   0  0  0  0  0  3  0  0  0  0  0  0
  180.6730  180.3610  138.2720 C   0  0  0  0  0  0  0  0  0  0  0  0
  181.1190  182.7010  137.8360 C   0  0  0  0  0  3  0  0  0  0  0  0
  180.8670  184.8450  136.0030 O   0  0  0  0  0  1  0  0  0  0  0  0
  180.8670  183.5740  135.5790 O   0  0  0  0  0  0  0  0  0  0  0  0
  1  6  1  0  0  0  0
  2 11  1  0  0  0  0
  2 12  1  0  0  0  0
  3 10  1  0  0  0  0
  4  8  2  0  0  0  0
  5  1  2  0  0  0  0
  7  9  1  0  0  0  0
  7  4  1  0  0  0  0
  8  1  1  0  0  0  0
  9  5  1  0  0  0  0
 10 11  1  0  0  0  0
 11  7  2  0  0  0  0
 12 15  2  0  0  0  0
 13  2  2  0  0  0  0
 14  3  2  0  0  0  0
 14 13  1  0  0  0  0
 15  4  1  0  0  0  0
 16  3  1  0  0  0  0
 17 16  1  0  0  0  0
 18 19  1  0  0  0  0
 18 16  1  1  0  0  0
 18 20  1  0  0  0  0
 19 21  1  6  0  0  0
 19 20  1  0  0  0  0
 22 21  1  1  0  0  0
 22 25  1  0  0  0  0
 23 25  1  0  0  0  0
 24 22  1  0  0  0  0
 25 28  1  6  0  0  0
 26 24  1  0  0  0  0
 26 23  1  0  0  0  0
 27 29  1  0  0  0  0
 27 31  1  0  0  0  0
 28 27  1  0  0  0  0
 30 28  2  0  0  0  0
 31 32  1  0  0  0  0
 32 34  1  0  0  0  0
 34 33  1  0  0  0  0
 35 13  1  0  0  0  0
 36 37  2  0  0  0  0
 36 39  1  0  0  0  0
 37 41  1  0  0  0  0
 39 40  2  0  0  0  0
 40 38  1  0  0  0  0
 40 35  1  0  0  0  0
 41 38  2  0  0  0  0
 43 42  1  0  0  0  0
 43 37  1  0  0  0  0
M  END
>  <MODEL>
8

>  <REMARK>
 VINA RESULT:      -9.0      3.059      7.671
  Name = 
  11 active torsions:
  status: ('A' for Active; 'I' for Inactive)
    1  A    between atoms: C_1  and  C_34
    2  A    between atoms: C_1  and  C_35
    3  A    between atoms: N_2  and  C_6
    4  A    between atoms: N_2  and  C_13
    5  A    between atoms: C_3  and  C_4
    6  A    between atoms: C_3  and  C_12
    7  A    between atoms: N_11  and  C_36
    8  A    between atoms: C_14  and  C_22
    9  A    between atoms: C_19  and  O_37
   10  A    between atoms: C_29  and  C_31
   11  A    between atoms: C_29  and  C_36
                            x       y       z     vdW  Elec       q    Type
                         _______ _______ _______ _____ _____    ______ ____

>  <TORSDO>
F 11

$$$$
=
 OpenBabel11052416083D

 43 48  0  0  1  0  0  0  0  0999 V2000
  190.9860  176.5470  146.5460 C   0  0  0  0  0  0  0  0  0  0  0  0
  189.8930  177.5730  141.7180 C   0  0  0  0  0  0  0  0  0  0  0  0
  187.1630  178.3300  141.6610 C   0  0  0  0  0  0  0  0  0  0  0  0
  191.0940  176.8730  144.1660 C   0  0  0  0  0  0  0  0  0  0  0  0
  189.6930  176.8710  146.6190 C   0  0  0  0  0  3  0  0  0  0  0  0
  191.7220  176.1780  147.7830 C   0  0  0  0  0  1  0  0  0  0  0  0
  189.7290  177.2360  144.1320 C   0  0  0  0  0  0  0  0  0  0  0  0
  191.6720  176.5530  145.2870 N   0  0  0  0  0  0  0  0  0  0  0  0
  188.9050  177.2500  145.3960 C   0  0  0  0  0  3  0  0  0  0  0  0
  187.7810  177.9570  142.8640 O   0  0  0  0  0  0  0  0  0  0  0  0
  189.1340  177.5880  142.9090 C   0  0  0  0  0  0  0  0  0  0  0  0
  191.2460  177.2010  141.7710 C   0  0  0  0  0  2  0  0  0  0  0  0
  189.3020  177.9170  140.5530 C   0  0  0  0  0  0  0  0  0  0  0  0
  187.8800  178.3170  140.5300 C   0  0  0  0  0  3  0  0  0  0  0  0
  191.8400  176.8570  142.9860 C   0  0  0  0  0  3  0  0  0  0  0  0
  185.7780  178.7230  141.6590 N   0  0  0  0  0  0  0  0  0  0  0  0
  185.1890  179.3600  140.4830 C   0  0  0  0  0  1  0  0  0  0  0  0
  184.8930  178.3060  142.7450 C   0  0  2  0  0  3  0  0  0  0  0  0
  183.7140  179.2590  142.8610 C   0  0  2  0  0  3  0  0  0  0  0  0
  184.8600  179.3590  143.8390 C   0  0  0  0  0  2  0  0  0  0  0  0
  182.5560  178.5260  143.5110 C   0  0  0  0  0  2  0  0  0  0  0  0
  181.2350  179.1100  143.0390 C   0  0  2  0  0  3  0  0  0  0  0  0
  178.9310  178.2350  142.0260 S   0  0  0  0  0  0  0  0  0  0  0  0
  180.2370  179.0100  144.0890 N   0  0  0  0  0  2  0  0  0  0  0  0
  180.7280  178.3320  141.8490 C   0  0  1  0  0  3  0  0  0  0  0  0
  178.9930  179.2390  143.4800 N   0  0  0  0  0  2  0  0  0  0  0  0
  181.9230  178.3430  139.5950 N   0  0  0  0  0  0  0  0  0  0  0  0
  181.1060  179.0130  140.5680 C   0  0  0  0  0  0  0  0  0  0  0  0
  182.4070  179.0650  138.4300 C   0  0  0  0  0  1  0  0  0  0  0  0
  180.7130  180.1930  140.3540 O   0  0  0  0  0  0  0  0  0  0  0  0
  182.3990  176.9780  139.7990 C   0  0  0  0  0  2  0  0  0  0  0  0
  183.4100  176.5860  138.7280 C   0  0  0  0  0  2  0  0  0  0  0  0
  183.5550  175.1830  136.7960 O   0  0  0  0  0  1  0  0  0  0  0  0
  183.0610  175.2460  138.1010 C   0  0  0  0  0  2  0  0  0  0  0  0
  190.0410  177.8770  139.2470 C   0  0  0  0  0  2  0  0  0  0  0  0
  187.9610  178.2170  136.0960 C   0  0  0  0  0  3  0  0  0  0  0  0
  187.2970  176.9850  136.0630 C   0  0  0  0  0  0  0  0  0  0  0  0
  188.4460  176.3210  138.0960 C   0  0  0  0  0  3  0  0  0  0  0  0
  188.8620  178.5020  137.1270 C   0  0  0  0  0  3  0  0  0  0  0  0
  189.1080  177.5530  138.1260 C   0  0  0  0  0  0  0  0  0  0  0  0
  187.5450  176.0370  137.0660 C   0  0  0  0  0  3  0  0  0  0  0  0
  185.3420  177.5160  134.8130 O   0  0  0  0  0  1  0  0  0  0  0  0
  186.3970  176.7200  135.0320 O   0  0  0  0  0  0  0  0  0  0  0  0
  1  5  1  0  0  0  0
  1  6  1  0  0  0  0
  2 12  1  0  0  0  0
  2 11  1  0  0  0  0
  3 10  1  0  0  0  0
  4  8  1  0  0  0  0
  7  4  1  0  0  0  0
  7  9  1  0  0  0  0
  8  1  2  0  0  0  0
  9  5  2  0  0  0  0
 10 11  1  0  0  0  0
 11  7  2  0  0  0  0
 12 15  1  0  0  0  0
 13  2  2  0  0  0  0
 14 13  1  0  0  0  0
 14  3  2  0  0  0  0
 15  4  2  0  0  0  0
 16  3  1  0  0  0  0
 17 16  1  0  0  0  0
 18 16  1  6  0  0  0
 18 19  1  0  0  0  0
 18 20  1  0  0  0  0
 19 21  1  1  0  0  0
 19 20  1  0  0  0  0
 22 21  1  1  0  0  0
 22 24  1  0  0  0  0
 23 26  1  0  0  0  0
 25 28  1  6  0  0  0
 25 23  1  0  0  0  0
 25 22  1  0  0  0  0
 26 24  1  0  0  0  0
 27 31  1  0  0  0  0
 27 28  1  0  0  0  0
 29 27  1  0  0  0  0
 30 28  2  0  0  0  0
 32 31  1  0  0  0  0
 33 34  1  0  0  0  0
 34 32  1  0  0  0  0
 35 13  1  0  0  0  0
 36 39  1  0  0  0  0
 37 36  2  0  0  0  0
 37 41  1  0  0  0  0
 38 40  1  0  0  0  0
 39 40  2  0  0  0  0
 40 35  1  0  0  0  0
 41 38  2  0  0  0  0
 42 43  1  0  0  0  0
 43 37  1  0  0  0  0
M  END
>  <MODEL>
9

>  <REMARK>
 VINA RESULT:      -8.9      3.361      9.005
  Name = 
  11 active torsions:
  status: ('A' for Active; 'I' for Inactive)
    1  A    between atoms: C_1  and  C_34
    2  A    between atoms: C_1  and  C_35
    3  A    between atoms: N_2  and  C_6
    4  A    between atoms: N_2  and  C_13
    5  A    between atoms: C_3  and  C_4
    6  A    between atoms: C_3  and  C_12
    7  A    between atoms: N_11  and  C_36
    8  A    between atoms: C_14  and  C_22
    9  A    between atoms: C_19  and  O_37
   10  A    between atoms: C_29  and  C_31
   11  A    between atoms: C_29  and  C_36
                            x       y       z     vdW  Elec       q    Type
                         _______ _______ _______ _____ _____    ______ ____

>  <TORSDO>
F 11

$$$$
