=
 OpenBabel11052416553D

 32 36  0  0  1  0  0  0  0  0999 V2000
  186.5200  178.3130  140.9830 C   0  0  1  0  0  3  0  0  0  0  0  0
  185.1920  178.7890  145.7700 C   0  0  0  0  0  3  0  0  0  0  0  0
  183.8450  178.6790  145.4160 C   0  0  0  0  0  3  0  0  0  0  0  0
  184.7180  178.7420  139.1860 C   0  0  1  0  0  3  0  0  0  0  0  0
  183.8100  177.6220  138.9110 N   0  0  0  0  0  0  0  0  0  0  0  0
  184.8990  177.3620  136.6140 C   0  0  0  0  0  1  0  0  0  0  0  0
  186.1800  178.7390  144.7830 C   0  0  0  0  0  3  0  0  0  0  0  0
  186.8640  178.4940  142.4090 N   0  0  0  0  0  0  0  0  0  0  0  0
  184.4710  178.4880  143.0790 C   0  0  0  0  0  0  0  0  0  0  0  0
  184.1200  178.3260  141.6630 C   0  0  0  0  0  0  0  0  0  0  0  0
  183.1470  175.9670  137.3760 O   0  0  0  0  0  0  0  0  0  0  0  0
  183.9010  176.9420  137.6420 C   0  0  0  0  0  0  0  0  0  0  0  0
  183.4860  178.5260  144.0760 C   0  0  0  0  0  3  0  0  0  0  0  0
  185.8360  178.5870  143.4290 C   0  0  0  0  0  0  0  0  0  0  0  0
  183.0410  177.6300  141.2960 C   0  0  0  0  0  3  0  0  0  0  0  0
  184.0780  180.0460  138.7430 C   0  0  0  0  0  1  0  0  0  0  0  0
  181.7260  176.6640  139.5670 N   0  0  0  0  0  2  0  0  0  0  0  0
  185.1180  178.8470  140.6680 C   0  0  1  0  0  3  0  0  0  0  0  0
  182.8020  177.3000  139.8910 C   0  0  0  0  0  0  0  0  0  0  0  0
  188.2100  178.2990  139.0410 C   0  0  0  0  0  0  0  0  0  0  0  0
  189.0330  178.9570  138.3550 O   0  0  0  0  0  0  0  0  0  0  0  0
  187.9690  176.8670  138.7070 C   0  0  0  0  0  1  0  0  0  0  0  0
  187.5210  178.9460  140.1210 N   0  0  0  0  0  2  0  0  0  0  0  0
  188.2510  178.2510  142.8030 C   0  0  0  0  0  2  0  0  0  0  0  0
  188.6170  176.7980  142.5620 C   0  0  0  0  0  2  0  0  0  0  0  0
  188.9460  176.1640  143.8250 N   0  0  0  0  0  2  0  0  0  0  0  0
  189.1390  177.7670  146.7590 C   0  0  1  0  0  3  0  0  0  0  0  0
  189.5640  177.1820  144.6560 C   0  0  2  0  0  3  0  0  0  0  0  0
  191.3040  176.8090  144.8610 S   0  0  0  0  0  0  0  0  0  0  0  0
  188.1240  177.1780  147.7190 C   0  0  0  0  0  1  0  0  0  0  0  0
  190.4830  177.3710  147.1730 C   0  0  0  0  0  2  0  0  0  0  0  0
  189.8340  176.6200  145.9990 C   0  0  1  0  0  0  0  0  0  0  0  0
  1 23  1  6  0  0  0
  1  8  1  0  0  0  0
  3  2  1  0  0  0  0
  4 16  1  1  0  0  0
  4 18  1  0  0  0  0
  5  4  1  0  0  0  0
  5 19  1  0  0  0  0
  6 12  1  0  0  0  0
  7  2  2  0  0  0  0
  8 24  1  0  0  0  0
  8 14  1  0  0  0  0
  9 14  2  0  0  0  0
  9 13  1  0  0  0  0
 10  9  1  0  0  0  0
 11 12  2  0  0  0  0
 12  5  1  0  0  0  0
 13  3  2  0  0  0  0
 14  7  1  0  0  0  0
 15 10  2  0  0  0  0
 17 19  2  0  0  0  0
 18  1  1  0  0  0  0
 18 10  1  1  0  0  0
 19 15  1  0  0  0  0
 20 23  1  0  0  0  0
 21 20  2  0  0  0  0
 22 20  1  0  0  0  0
 25 24  1  0  0  0  0
 25 26  1  0  0  0  0
 27 31  1  0  0  0  0
 27 30  1  1  0  0  0
 28 26  1  6  0  0  0
 28 29  1  0  0  0  0
 28 32  1  0  0  0  0
 29 32  1  0  0  0  0
 32 27  1  0  0  0  0
 32 31  1  1  0  0  0
M  END
>  <MODEL>
1

>  <REMARK>
 VINA RESULT:      -8.0      0.000      0.000
  Name = 
  5 active torsions:
  status: ('A' for Active; 'I' for Inactive)
    1  A    between atoms: C_2  and  N_12
    2  A    between atoms: C_3  and  N_28
    3  A    between atoms: C_9  and  N_14
    4  A    between atoms: C_9  and  C_21
    5  A    between atoms: N_12  and  C_21
                            x       y       z     vdW  Elec       q    Type
                         _______ _______ _______ _____ _____    ______ ____

>  <TORSDO>
F 5

$$$$
=
 OpenBabel11052416553D

 32 36  0  0  1  0  0  0  0  0999 V2000
  185.1010  178.4890  140.1710 C   0  0  1  0  0  3  0  0  0  0  0  0
  184.9000  179.1200  145.1170 C   0  0  0  0  0  3  0  0  0  0  0  0
  183.5070  179.0250  145.0810 C   0  0  0  0  0  3  0  0  0  0  0  0
  182.9420  178.9000  138.8160 C   0  0  1  0  0  3  0  0  0  0  0  0
  181.9830  177.7900  138.7890 N   0  0  0  0  0  0  0  0  0  0  0  0
  182.5190  177.4470  136.3140 C   0  0  0  0  0  1  0  0  0  0  0  0
  185.6370  179.0260  143.9340 C   0  0  0  0  0  3  0  0  0  0  0  0
  185.7620  178.7030  141.4750 N   0  0  0  0  0  0  0  0  0  0  0  0
  183.5830  178.7580  142.6700 C   0  0  0  0  0  0  0  0  0  0  0  0
  182.9180  178.5630  141.3760 C   0  0  0  0  0  0  0  0  0  0  0  0
  180.9710  176.1050  137.4960 O   0  0  0  0  0  0  0  0  0  0  0  0
  181.7760  177.0730  137.5540 C   0  0  0  0  0  0  0  0  0  0  0  0
  182.8510  178.8410  143.8630 C   0  0  0  0  0  3  0  0  0  0  0  0
  184.9930  178.8420  142.6980 C   0  0  0  0  0  0  0  0  0  0  0  0
  181.7770  177.8760  141.2850 C   0  0  0  0  0  3  0  0  0  0  0  0
  182.2340  180.2020  138.4900 C   0  0  0  0  0  1  0  0  0  0  0  0
  180.0920  176.8860  139.9290 N   0  0  0  0  0  2  0  0  0  0  0  0
  183.6700  179.0390  140.1650 C   0  0  1  0  0  3  0  0  0  0  0  0
  181.2210  177.5120  139.9820 C   0  0  0  0  0  0  0  0  0  0  0  0
  186.2870  178.3980  137.8880 C   0  0  0  0  0  0  0  0  0  0  0  0
  186.9420  179.0220  137.0140 O   0  0  0  0  0  0  0  0  0  0  0  0
  185.9380  176.9680  137.6490 C   0  0  0  0  0  1  0  0  0  0  0  0
  185.8870  179.0800  139.0840 N   0  0  0  0  0  2  0  0  0  0  0  0
  187.1990  178.4460  141.5520 C   0  0  0  0  0  2  0  0  0  0  0  0
  187.4710  177.2590  142.4560 C   0  0  0  0  0  2  0  0  0  0  0  0
  188.8460  176.8240  142.2870 N   0  0  0  0  0  2  0  0  0  0  0  0
  189.3120  177.9760  145.3960 C   0  0  1  0  0  3  0  0  0  0  0  0
  189.6440  177.5840  143.2330 C   0  0  2  0  0  3  0  0  0  0  0  0
  191.2690  176.8450  143.3720 S   0  0  0  0  0  0  0  0  0  0  0  0
  188.1840  177.4890  146.2850 C   0  0  0  0  0  1  0  0  0  0  0  0
  190.5410  177.2680  145.7450 C   0  0  0  0  0  2  0  0  0  0  0  0
  189.7740  176.8170  144.4920 C   0  0  1  0  0  0  0  0  0  0  0  0
  1 23  1  6  0  0  0
  1  8  1  0  0  0  0
  3  2  1  0  0  0  0
  4 16  1  1  0  0  0
  4 18  1  0  0  0  0
  5  4  1  0  0  0  0
  5 19  1  0  0  0  0
  6 12  1  0  0  0  0
  7  2  2  0  0  0  0
  8 24  1  0  0  0  0
  8 14  1  0  0  0  0
  9 14  2  0  0  0  0
  9 13  1  0  0  0  0
 10  9  1  0  0  0  0
 11 12  2  0  0  0  0
 12  5  1  0  0  0  0
 13  3  2  0  0  0  0
 14  7  1  0  0  0  0
 15 10  2  0  0  0  0
 17 19  2  0  0  0  0
 18  1  1  0  0  0  0
 18 10  1  1  0  0  0
 19 15  1  0  0  0  0
 20 23  1  0  0  0  0
 21 20  2  0  0  0  0
 22 20  1  0  0  0  0
 24 25  1  0  0  0  0
 26 25  1  0  0  0  0
 27 31  1  0  0  0  0
 27 30  1  1  0  0  0
 28 26  1  6  0  0  0
 28 29  1  0  0  0  0
 28 32  1  0  0  0  0
 29 32  1  0  0  0  0
 32 27  1  0  0  0  0
 32 31  1  1  0  0  0
M  END
>  <MODEL>
2

>  <REMARK>
 VINA RESULT:      -7.7      1.448      1.641
  Name = 
  5 active torsions:
  status: ('A' for Active; 'I' for Inactive)
    1  A    between atoms: C_2  and  N_12
    2  A    between atoms: C_3  and  N_28
    3  A    between atoms: C_9  and  N_14
    4  A    between atoms: C_9  and  C_21
    5  A    between atoms: N_12  and  C_21
                            x       y       z     vdW  Elec       q    Type
                         _______ _______ _______ _____ _____    ______ ____

>  <TORSDO>
F 5

$$$$
=
 OpenBabel11052416553D

 32 36  0  0  1  0  0  0  0  0999 V2000
  189.0740  177.2680  139.9510 C   0  0  1  0  0  3  0  0  0  0  0  0
  185.6580  178.4720  143.3840 C   0  0  0  0  0  3  0  0  0  0  0  0
  184.7850  178.8940  142.3800 C   0  0  0  0  0  3  0  0  0  0  0  0
  188.8270  178.2950  137.5960 C   0  0  1  0  0  3  0  0  0  0  0  0
  187.8790  177.6220  136.7010 N   0  0  0  0  0  0  0  0  0  0  0  0
  189.8490  176.8340  135.2790 C   0  0  0  0  0  1  0  0  0  0  0  0
  186.9230  177.9810  143.0500 C   0  0  0  0  0  3  0  0  0  0  0  0
  188.6330  177.3650  141.3580 N   0  0  0  0  0  0  0  0  0  0  0  0
  186.4500  178.3530  140.6990 C   0  0  0  0  0  0  0  0  0  0  0  0
  186.8870  178.2760  139.3000 C   0  0  0  0  0  0  0  0  0  0  0  0
  187.6010  176.2990  134.7760 O   0  0  0  0  0  0  0  0  0  0  0  0
  188.3850  176.9000  135.5580 C   0  0  0  0  0  0  0  0  0  0  0  0
  185.1770  178.8320  141.0420 C   0  0  0  0  0  3  0  0  0  0  0  0
  187.3360  177.9130  141.7070 C   0  0  0  0  0  0  0  0  0  0  0  0
  186.0120  178.0540  138.3160 C   0  0  0  0  0  3  0  0  0  0  0  0
  189.0520  179.7220  137.1300 C   0  0  0  0  0  1  0  0  0  0  0  0
  185.5930  177.6140  136.0170 N   0  0  0  0  0  2  0  0  0  0  0  0
  188.3710  178.3030  139.0660 C   0  0  1  0  0  3  0  0  0  0  0  0
  186.4670  177.7800  136.9540 C   0  0  0  0  0  0  0  0  0  0  0  0
  191.3860  176.5520  139.0760 C   0  0  0  0  0  0  0  0  0  0  0  0
  192.6220  176.7840  139.0490 O   0  0  0  0  0  0  0  0  0  0  0  0
  190.8480  175.4020  138.2940 C   0  0  0  0  0  1  0  0  0  0  0  0
  190.5290  177.4020  139.8500 N   0  0  0  0  0  2  0  0  0  0  0  0
  189.3870  176.6060  142.3540 C   0  0  0  0  0  2  0  0  0  0  0  0
  189.9100  177.5330  143.4360 C   0  0  0  0  0  2  0  0  0  0  0  0
  190.3600  176.7500  144.5720 N   0  0  0  0  0  2  0  0  0  0  0  0
  188.3190  178.0870  146.8650 C   0  0  1  0  0  3  0  0  0  0  0  0
  190.1750  177.5780  145.7500 C   0  0  2  0  0  3  0  0  0  0  0  0
  191.0910  176.8780  147.1210 S   0  0  0  0  0  0  0  0  0  0  0  0
  186.8980  177.6300  146.5970 C   0  0  0  0  0  1  0  0  0  0  0  0
  188.8220  177.4230  148.0660 C   0  0  0  0  0  2  0  0  0  0  0  0
  189.2710  176.8860  146.6970 C   0  0  1  0  0  0  0  0  0  0  0  0
  1 23  1  1  0  0  0
  1  8  1  0  0  0  0
  3  2  2  0  0  0  0
  4 16  1  6  0  0  0
  4 18  1  0  0  0  0
  5 19  1  0  0  0  0
  5  4  1  0  0  0  0
  6 12  1  0  0  0  0
  7  2  1  0  0  0  0
  8 14  1  0  0  0  0
  8 24  1  0  0  0  0
  9 13  2  0  0  0  0
  9 14  1  0  0  0  0
 10  9  1  0  0  0  0
 11 12  2  0  0  0  0
 12  5  1  0  0  0  0
 13  3  1  0  0  0  0
 14  7  2  0  0  0  0
 15 10  2  0  0  0  0
 17 19  2  0  0  0  0
 18 10  1  6  0  0  0
 18  1  1  0  0  0  0
 19 15  1  0  0  0  0
 20 23  1  0  0  0  0
 21 20  2  0  0  0  0
 22 20  1  0  0  0  0
 24 25  1  0  0  0  0
 25 26  1  0  0  0  0
 27 30  1  6  0  0  0
 27 31  1  0  0  0  0
 28 26  1  6  0  0  0
 28 32  1  0  0  0  0
 28 29  1  0  0  0  0
 32 27  1  0  0  0  0
 32 29  1  0  0  0  0
 32 31  1  6  0  0  0
M  END
>  <MODEL>
3

>  <REMARK>
 VINA RESULT:      -7.3      2.312      3.455
  Name = 
  5 active torsions:
  status: ('A' for Active; 'I' for Inactive)
    1  A    between atoms: C_2  and  N_12
    2  A    between atoms: C_3  and  N_28
    3  A    between atoms: C_9  and  N_14
    4  A    between atoms: C_9  and  C_21
    5  A    between atoms: N_12  and  C_21
                            x       y       z     vdW  Elec       q    Type
                         _______ _______ _______ _____ _____    ______ ____

>  <TORSDO>
F 5

$$$$
=
 OpenBabel11052416553D

 32 36  0  0  1  0  0  0  0  0999 V2000
  185.3150  177.6100  138.4760 C   0  0  1  0  0  3  0  0  0  0  0  0
  180.8820  177.9050  140.7480 C   0  0  0  0  0  3  0  0  0  0  0  0
  180.4820  176.7130  140.1430 C   0  0  0  0  0  3  0  0  0  0  0  0
  185.5140  176.0590  136.4220 C   0  0  1  0  0  3  0  0  0  0  0  0
  185.7130  174.6350  136.7130 N   0  0  0  0  0  0  0  0  0  0  0  0
  188.0910  174.8270  135.7980 C   0  0  0  0  0  1  0  0  0  0  0  0
  182.1510  178.4300  140.4890 C   0  0  0  0  0  3  0  0  0  0  0  0
  184.3660  178.2980  139.3760 N   0  0  0  0  0  0  0  0  0  0  0  0
  182.6160  176.5750  138.9970 C   0  0  0  0  0  0  0  0  0  0  0  0
  183.5460  175.8940  138.0870 C   0  0  0  0  0  0  0  0  0  0  0  0
  187.1980  172.8110  136.6550 O   0  0  0  0  0  0  0  0  0  0  0  0
  186.9860  174.0280  136.4060 C   0  0  0  0  0  0  0  0  0  0  0  0
  181.3470  176.0470  139.2720 C   0  0  0  0  0  3  0  0  0  0  0  0
  183.0340  177.7740  139.6140 C   0  0  0  0  0  0  0  0  0  0  0  0
  183.5450  174.5640  137.9680 C   0  0  0  0  0  3  0  0  0  0  0  0
  184.9530  176.2260  135.0210 C   0  0  0  0  0  1  0  0  0  0  0  0
  184.5390  172.5920  137.0880 N   0  0  0  0  0  2  0  0  0  0  0  0
  184.5850  176.7600  137.4300 C   0  0  1  0  0  3  0  0  0  0  0  0
  184.5960  173.8760  137.2200 C   0  0  0  0  0  0  0  0  0  0  0  0
  187.6420  178.5030  137.8350 C   0  0  0  0  0  0  0  0  0  0  0  0
  188.3030  179.3780  137.2200 O   0  0  0  0  0  0  0  0  0  0  0  0
  188.3690  177.4140  138.5490 C   0  0  0  0  0  1  0  0  0  0  0  0
  186.2100  178.5720  137.8280 N   0  0  0  0  0  2  0  0  0  0  0  0
  184.9070  179.3250  140.2660 C   0  0  0  0  0  2  0  0  0  0  0  0
  185.6040  178.6790  141.4490 C   0  0  0  0  0  2  0  0  0  0  0  0
  185.3050  179.4270  142.6570 N   0  0  0  0  0  2  0  0  0  0  0  0
  186.0540  177.7010  145.4270 C   0  0  1  0  0  3  0  0  0  0  0  0
  184.9230  178.4560  143.6670 C   0  0  2  0  0  3  0  0  0  0  0  0
  183.4790  179.0460  144.5470 S   0  0  0  0  0  0  0  0  0  0  0  0
  187.4390  178.0940  145.9030 C   0  0  0  0  0  1  0  0  0  0  0  0
  185.0550  178.2490  146.3420 C   0  0  0  0  0  2  0  0  0  0  0  0
  185.2890  178.9720  145.0050 C   0  0  1  0  0  0  0  0  0  0  0  0
  1 23  1  6  0  0  0
  1  8  1  0  0  0  0
  3  2  2  0  0  0  0
  4 16  1  6  0  0  0
  4  5  1  0  0  0  0
  4 18  1  0  0  0  0
  5 19  1  0  0  0  0
  6 12  1  0  0  0  0
  7  2  1  0  0  0  0
  8 14  1  0  0  0  0
  8 24  1  0  0  0  0
  9 13  2  0  0  0  0
  9 14  1  0  0  0  0
 10  9  1  0  0  0  0
 12 11  2  0  0  0  0
 12  5  1  0  0  0  0
 13  3  1  0  0  0  0
 14  7  2  0  0  0  0
 15 10  2  0  0  0  0
 17 19  2  0  0  0  0
 18 10  1  1  0  0  0
 18  1  1  0  0  0  0
 19 15  1  0  0  0  0
 20 22  1  0  0  0  0
 21 20  2  0  0  0  0
 23 20  1  0  0  0  0
 24 25  1  0  0  0  0
 25 26  1  0  0  0  0
 27 30  1  1  0  0  0
 27 31  1  0  0  0  0
 28 26  1  6  0  0  0
 28 29  1  0  0  0  0
 28 32  1  0  0  0  0
 29 32  1  0  0  0  0
 32 27  1  0  0  0  0
 32 31  1  1  0  0  0
M  END
>  <MODEL>
4

>  <REMARK>
 VINA RESULT:      -6.9      2.709      4.656
  Name = 
  5 active torsions:
  status: ('A' for Active; 'I' for Inactive)
    1  A    between atoms: C_2  and  N_12
    2  A    between atoms: C_3  and  N_28
    3  A    between atoms: C_9  and  N_14
    4  A    between atoms: C_9  and  C_21
    5  A    between atoms: N_12  and  C_21
                            x       y       z     vdW  Elec       q    Type
                         _______ _______ _______ _____ _____    ______ ____

>  <TORSDO>
F 5

$$$$
=
 OpenBabel11052416553D

 32 36  0  0  1  0  0  0  0  0999 V2000
  184.8330  178.4260  140.1970 C   0  0  1  0  0  3  0  0  0  0  0  0
  184.8980  178.7960  145.1730 C   0  0  0  0  0  3  0  0  0  0  0  0
  183.5140  178.9820  145.1860 C   0  0  0  0  0  3  0  0  0  0  0  0
  182.7660  179.3370  138.9490 C   0  0  1  0  0  3  0  0  0  0  0  0
  181.6020  178.4450  138.9010 N   0  0  0  0  0  0  0  0  0  0  0  0
  181.9910  178.1460  136.3940 C   0  0  0  0  0  1  0  0  0  0  0  0
  185.5690  178.6240  143.9590 C   0  0  0  0  0  3  0  0  0  0  0  0
  185.5590  178.4270  141.4840 N   0  0  0  0  0  0  0  0  0  0  0  0
  183.4700  178.8470  142.7630 C   0  0  0  0  0  0  0  0  0  0  0  0
  182.7440  178.8640  141.4880 C   0  0  0  0  0  0  0  0  0  0  0  0
  180.2360  177.0740  137.5630 O   0  0  0  0  0  0  0  0  0  0  0  0
  181.2210  177.8570  137.6400 C   0  0  0  0  0  0  0  0  0  0  0  0
  182.8010  179.0040  143.9860 C   0  0  0  0  0  3  0  0  0  0  0  0
  184.8670  178.6460  142.7410 C   0  0  0  0  0  0  0  0  0  0  0  0
  181.4850  178.4260  141.4050 C   0  0  0  0  0  3  0  0  0  0  0  0
  182.3250  180.7720  138.7180 C   0  0  0  0  0  1  0  0  0  0  0  0
  179.5990  177.8730  140.0650 N   0  0  0  0  0  2  0  0  0  0  0  0
  183.5430  179.2500  140.2750 C   0  0  1  0  0  3  0  0  0  0  0  0
  180.8330  178.2560  140.1070 C   0  0  0  0  0  0  0  0  0  0  0  0
  185.9360  178.2190  137.8800 C   0  0  0  0  0  0  0  0  0  0  0  0
  186.6770  178.7500  137.0140 O   0  0  0  0  0  0  0  0  0  0  0  0
  185.3270  176.8880  137.5960 C   0  0  0  0  0  1  0  0  0  0  0  0
  185.6920  178.9100  139.1130 N   0  0  0  0  0  2  0  0  0  0  0  0
  186.9160  177.8840  141.4930 C   0  0  0  0  0  2  0  0  0  0  0  0
  187.9310  179.0100  141.4140 C   0  0  0  0  0  2  0  0  0  0  0  0
  188.6760  178.9070  140.1720 N   0  0  0  0  0  2  0  0  0  0  0  0
  189.5260  176.3710  138.1580 C   0  0  1  0  0  3  0  0  0  0  0  0
  189.0090  177.5040  140.0000 C   0  0  2  0  0  3  0  0  0  0  0  0
  190.4880  177.1220  140.9360 S   0  0  0  0  0  0  0  0  0  0  0  0
  189.6450  176.8800  136.7340 C   0  0  0  0  0  1  0  0  0  0  0  0
  190.8590  176.0730  138.6780 C   0  0  0  0  0  2  0  0  0  0  0  0
  190.1870  177.3860  139.1110 C   0  0  1  0  0  0  0  0  0  0  0  0
  1 23  1  6  0  0  0
  1 18  1  0  0  0  0
  1  8  1  0  0  0  0
  2  3  1  0  0  0  0
  4 16  1  1  0  0  0
  4 18  1  0  0  0  0
  5  4  1  0  0  0  0
  5 19  1  0  0  0  0
  6 12  1  0  0  0  0
  7  2  2  0  0  0  0
  8 24  1  0  0  0  0
  8 14  1  0  0  0  0
  9 13  1  0  0  0  0
 10  9  1  0  0  0  0
 11 12  2  0  0  0  0
 12  5  1  0  0  0  0
 13  3  2  0  0  0  0
 14  9  2  0  0  0  0
 14  7  1  0  0  0  0
 15 10  2  0  0  0  0
 17 19  2  0  0  0  0
 18 10  1  1  0  0  0
 19 15  1  0  0  0  0
 20 23  1  0  0  0  0
 21 20  2  0  0  0  0
 22 20  1  0  0  0  0
 25 24  1  0  0  0  0
 26 25  1  0  0  0  0
 27 30  1  6  0  0  0
 27 31  1  0  0  0  0
 27 32  1  0  0  0  0
 28 26  1  1  0  0  0
 28 29  1  0  0  0  0
 32 31  1  6  0  0  0
 32 28  1  0  0  0  0
 32 29  1  0  0  0  0
M  END
>  <MODEL>
5

>  <REMARK>
 VINA RESULT:      -6.9      2.614      3.905
  Name = 
  5 active torsions:
  status: ('A' for Active; 'I' for Inactive)
    1  A    between atoms: C_2  and  N_12
    2  A    between atoms: C_3  and  N_28
    3  A    between atoms: C_9  and  N_14
    4  A    between atoms: C_9  and  C_21
    5  A    between atoms: N_12  and  C_21
                            x       y       z     vdW  Elec       q    Type
                         _______ _______ _______ _____ _____    ______ ____

>  <TORSDO>
F 5

$$$$
=
 OpenBabel11052416553D

 32 36  0  0  1  0  0  0  0  0999 V2000
  188.3630  177.5330  139.9540 C   0  0  1  0  0  3  0  0  0  0  0  0
  183.7390  179.4110  139.9980 C   0  0  0  0  0  3  0  0  0  0  0  0
  183.4900  178.8510  138.7430 C   0  0  0  0  0  3  0  0  0  0  0  0
  189.3450  176.8080  137.6800 C   0  0  1  0  0  3  0  0  0  0  0  0
  188.9410  175.4810  137.2030 N   0  0  0  0  0  0  0  0  0  0  0  0
  191.3300  174.6620  137.5930 C   0  0  0  0  0  1  0  0  0  0  0  0
  184.9870  179.2420  140.6040 C   0  0  0  0  0  3  0  0  0  0  0  0
  187.2880  178.3090  140.6080 N   0  0  0  0  0  0  0  0  0  0  0  0
  185.7490  177.9660  138.6870 C   0  0  0  0  0  0  0  0  0  0  0  0
  186.8170  177.2090  138.0230 C   0  0  0  0  0  0  0  0  0  0  0  0
  189.6060  173.2660  136.7710 O   0  0  0  0  0  0  0  0  0  0  0  0
  189.9210  174.4220  137.1610 C   0  0  0  0  0  0  0  0  0  0  0  0
  184.4900  178.1280  138.0910 C   0  0  0  0  0  3  0  0  0  0  0  0
  186.0060  178.5190  139.9600 C   0  0  0  0  0  0  0  0  0  0  0  0
  186.5360  176.1840  137.2140 C   0  0  0  0  0  3  0  0  0  0  0  0
  189.8190  177.6540  136.5120 C   0  0  0  0  0  1  0  0  0  0  0  0
  187.2920  174.3540  135.8970 N   0  0  0  0  0  2  0  0  0  0  0  0
  188.2240  177.5510  138.4280 C   0  0  1  0  0  3  0  0  0  0  0  0
  187.5950  175.3090  136.7130 C   0  0  0  0  0  0  0  0  0  0  0  0
  190.5600  177.3700  141.2850 C   0  0  0  0  0  0  0  0  0  0  0  0
  191.6810  177.8800  141.5360 O   0  0  0  0  0  0  0  0  0  0  0  0
  190.1800  176.0920  141.9520 C   0  0  0  0  0  1  0  0  0  0  0  0
  189.6820  178.0260  140.3600 N   0  0  0  0  0  2  0  0  0  0  0  0
  187.4260  178.5780  142.0380 C   0  0  0  0  0  2  0  0  0  0  0  0
  186.7330  177.4950  142.8440 C   0  0  0  0  0  2  0  0  0  0  0  0
  187.5550  177.1370  143.9850 N   0  0  0  0  0  2  0  0  0  0  0  0
  185.4540  179.1790  145.6050 C   0  0  1  0  0  3  0  0  0  0  0  0
  187.3310  178.1540  144.9970 C   0  0  2  0  0  3  0  0  0  0  0  0
  187.7790  177.5040  146.6060 S   0  0  0  0  0  0  0  0  0  0  0  0
  184.0480  178.9750  145.0750 C   0  0  0  0  0  1  0  0  0  0  0  0
  185.5480  178.6200  146.9520 C   0  0  0  0  0  2  0  0  0  0  0  0
  186.1270  177.8040  145.7840 C   0  0  1  0  0  0  0  0  0  0  0  0
  1 23  1  6  0  0  0
  1  8  1  0  0  0  0
  2  7  1  0  0  0  0
  3  2  2  0  0  0  0
  4 16  1  6  0  0  0
  4 18  1  0  0  0  0
  5  4  1  0  0  0  0
  8 24  1  0  0  0  0
  9 14  1  0  0  0  0
 10  9  1  0  0  0  0
 11 12  2  0  0  0  0
 12  5  1  0  0  0  0
 12  6  1  0  0  0  0
 13  9  2  0  0  0  0
 13  3  1  0  0  0  0
 14  7  2  0  0  0  0
 14  8  1  0  0  0  0
 15 10  2  0  0  0  0
 17 19  2  0  0  0  0
 18 10  1  1  0  0  0
 18  1  1  0  0  0  0
 19  5  1  0  0  0  0
 19 15  1  0  0  0  0
 20 21  2  0  0  0  0
 20 22  1  0  0  0  0
 23 20  1  0  0  0  0
 24 25  1  0  0  0  0
 25 26  1  0  0  0  0
 27 30  1  6  0  0  0
 27 32  1  0  0  0  0
 27 31  1  0  0  0  0
 28 26  1  6  0  0  0
 28 32  1  0  0  0  0
 28 29  1  0  0  0  0
 32 29  1  0  0  0  0
 32 31  1  6  0  0  0
M  END
>  <MODEL>
6

>  <REMARK>
 VINA RESULT:      -6.8      2.651      4.834
  Name = 
  5 active torsions:
  status: ('A' for Active; 'I' for Inactive)
    1  A    between atoms: C_2  and  N_12
    2  A    between atoms: C_3  and  N_28
    3  A    between atoms: C_9  and  N_14
    4  A    between atoms: C_9  and  C_21
    5  A    between atoms: N_12  and  C_21
                            x       y       z     vdW  Elec       q    Type
                         _______ _______ _______ _____ _____    ______ ____

>  <TORSDO>
F 5

$$$$
=
 OpenBabel11052416553D

 32 36  0  0  1  0  0  0  0  0999 V2000
  187.1730  178.1470  142.0280 C   0  0  1  0  0  3  0  0  0  0  0  0
  183.6310  178.7980  145.4820 C   0  0  0  0  0  3  0  0  0  0  0  0
  184.5380  178.4610  146.4880 C   0  0  0  0  0  3  0  0  0  0  0  0
  189.2570  176.7730  142.6840 C   0  0  1  0  0  3  0  0  0  0  0  0
  190.2940  177.5000  143.4250 N   0  0  0  0  0  0  0  0  0  0  0  0
  191.8130  177.3290  141.3770 C   0  0  0  0  0  1  0  0  0  0  0  0
  184.0370  178.7960  144.1450 C   0  0  0  0  0  3  0  0  0  0  0  0
  185.7860  178.4880  142.4100 N   0  0  0  0  0  0  0  0  0  0  0  0
  186.2610  178.1000  144.8190 C   0  0  0  0  0  0  0  0  0  0  0  0
  187.6350  177.7430  144.4450 C   0  0  0  0  0  0  0  0  0  0  0  0
  192.4640  178.4080  143.3790 O   0  0  0  0  0  0  0  0  0  0  0  0
  191.5550  177.7740  142.7790 C   0  0  0  0  0  0  0  0  0  0  0  0
  185.8500  178.1170  146.1590 C   0  0  0  0  0  3  0  0  0  0  0  0
  185.3540  178.4500  143.7950 C   0  0  0  0  0  0  0  0  0  0  0  0
  188.6610  178.0100  145.2570 C   0  0  0  0  0  3  0  0  0  0  0  0
  189.4000  175.2810  142.9250 C   0  0  0  0  0  1  0  0  0  0  0  0
  191.0090  178.0630  145.6310 N   0  0  0  0  0  2  0  0  0  0  0  0
  187.8280  177.2140  143.0520 C   0  0  1  0  0  3  0  0  0  0  0  0
  190.0420  177.8380  144.8040 C   0  0  0  0  0  0  0  0  0  0  0  0
  188.1230  177.9320  139.6450 C   0  0  0  0  0  0  0  0  0  0  0  0
  188.0760  177.3320  138.5410 O   0  0  0  0  0  0  0  0  0  0  0  0
  189.1310  179.0130  139.8400 C   0  0  0  0  0  1  0  0  0  0  0  0
  187.2130  177.5550  140.6870 N   0  0  0  0  0  2  0  0  0  0  0  0
  184.9620  179.1720  141.4150 C   0  0  0  0  0  2  0  0  0  0  0  0
  183.8060  178.2850  140.9930 C   0  0  0  0  0  2  0  0  0  0  0  0
  182.8600  179.0590  140.2100 N   0  0  0  0  0  2  0  0  0  0  0  0
  180.2390  178.1440  142.0820 C   0  0  1  0  0  3  0  0  0  0  0  0
  181.5770  178.3890  140.3230 C   0  0  2  0  0  3  0  0  0  0  0  0
  180.3940  179.1760  139.2320 S   0  0  0  0  0  0  0  0  0  0  0  0
  180.4250  178.6660  143.4940 C   0  0  0  0  0  1  0  0  0  0  0  0
  179.1800  178.9050  141.4220 C   0  0  0  0  0  2  0  0  0  0  0  0
  180.6410  179.2470  141.0830 C   0  0  1  0  0  0  0  0  0  0  0  0
  1 23  1  6  0  0  0
  1  8  1  0  0  0  0
  1 18  1  0  0  0  0
  2  3  1  0  0  0  0
  4 16  1  1  0  0  0
  4 18  1  0  0  0  0
  4  5  1  0  0  0  0
  5 19  1  0  0  0  0
  6 12  1  0  0  0  0
  7  2  2  0  0  0  0
  8 14  1  0  0  0  0
  9 13  1  0  0  0  0
 10  9  1  0  0  0  0
 10 15  2  0  0  0  0
 12 11  2  0  0  0  0
 12  5  1  0  0  0  0
 13  3  2  0  0  0  0
 14  7  1  0  0  0  0
 14  9  2  0  0  0  0
 18 10  1  1  0  0  0
 19 15  1  0  0  0  0
 19 17  2  0  0  0  0
 20 22  1  0  0  0  0
 20 23  1  0  0  0  0
 21 20  2  0  0  0  0
 24  8  1  0  0  0  0
 25 24  1  0  0  0  0
 26 25  1  0  0  0  0
 27 30  1  1  0  0  0
 28 26  1  6  0  0  0
 28 32  1  0  0  0  0
 29 28  1  0  0  0  0
 29 32  1  0  0  0  0
 31 27  1  0  0  0  0
 32 31  1  1  0  0  0
 32 27  1  0  0  0  0
M  END
>  <MODEL>
7

>  <REMARK>
 VINA RESULT:      -6.7      3.088      7.027
  Name = 
  5 active torsions:
  status: ('A' for Active; 'I' for Inactive)
    1  A    between atoms: C_2  and  N_12
    2  A    between atoms: C_3  and  N_28
    3  A    between atoms: C_9  and  N_14
    4  A    between atoms: C_9  and  C_21
    5  A    between atoms: N_12  and  C_21
                            x       y       z     vdW  Elec       q    Type
                         _______ _______ _______ _____ _____    ______ ____

>  <TORSDO>
F 5

$$$$
=
 OpenBabel11052416553D

 32 36  0  0  1  0  0  0  0  0999 V2000
  185.5790  177.8300  139.2660 C   0  0  1  0  0  3  0  0  0  0  0  0
  181.3250  178.6340  141.7480 C   0  0  0  0  0  3  0  0  0  0  0  0
  180.6760  177.6790  140.9630 C   0  0  0  0  0  3  0  0  0  0  0  0
  185.4300  176.6660  136.9680 C   0  0  1  0  0  3  0  0  0  0  0  0
  185.3220  175.2030  136.9970 N   0  0  0  0  0  0  0  0  0  0  0  0
  187.6810  175.0540  136.0260 C   0  0  0  0  0  1  0  0  0  0  0  0
  182.6760  178.9190  141.5290 C   0  0  0  0  0  3  0  0  0  0  0  0
  184.8060  178.5280  140.3140 N   0  0  0  0  0  0  0  0  0  0  0  0
  182.7250  177.3060  139.7170 C   0  0  0  0  0  0  0  0  0  0  0  0
  183.4830  176.6200  138.6630 C   0  0  0  0  0  0  0  0  0  0  0  0
  186.3830  173.1490  136.5570 O   0  0  0  0  0  0  0  0  0  0  0  0
  186.4340  174.4080  136.5330 C   0  0  0  0  0  0  0  0  0  0  0  0
  181.3740  177.0150  139.9530 C   0  0  0  0  0  3  0  0  0  0  0  0
  183.3930  178.2610  140.5150 C   0  0  0  0  0  0  0  0  0  0  0  0
  183.1970  175.3630  138.3150 C   0  0  0  0  0  3  0  0  0  0  0  0
  184.9100  177.1950  135.6430 C   0  0  0  0  0  1  0  0  0  0  0  0
  183.7410  173.4170  137.0620 N   0  0  0  0  0  2  0  0  0  0  0  0
  184.6780  177.3530  138.1220 C   0  0  1  0  0  3  0  0  0  0  0  0
  184.0720  174.6160  137.4130 C   0  0  0  0  0  0  0  0  0  0  0  0
  188.0570  178.3980  138.8610 C   0  0  0  0  0  0  0  0  0  0  0  0
  188.8870  179.1990  138.3610 O   0  0  0  0  0  0  0  0  0  0  0  0
  188.5560  177.1680  139.5410 C   0  0  0  0  0  1  0  0  0  0  0  0
  186.6560  178.6840  138.7570 N   0  0  0  0  0  2  0  0  0  0  0  0
  185.5580  179.2420  141.3440 C   0  0  0  0  0  2  0  0  0  0  0  0
  186.2300  178.2560  142.2810 C   0  0  0  0  0  2  0  0  0  0  0  0
  185.7400  178.4590  143.6330 N   0  0  0  0  0  2  0  0  0  0  0  0
  188.5620  176.9200  144.5690 C   0  0  1  0  0  3  0  0  0  0  0  0
  186.4130  177.4840  144.4720 C   0  0  2  0  0  3  0  0  0  0  0  0
  186.2080  177.9340  146.1930 S   0  0  0  0  0  0  0  0  0  0  0  0
  189.7270  177.4830  143.7780 C   0  0  0  0  0  1  0  0  0  0  0  0
  188.6520  177.3800  145.9530 C   0  0  0  0  0  2  0  0  0  0  0  0
  187.6530  178.0810  145.0180 C   0  0  1  0  0  0  0  0  0  0  0  0
  1 23  1  6  0  0  0
  1  8  1  0  0  0  0
  3  2  2  0  0  0  0
  4 16  1  6  0  0  0
  4  5  1  0  0  0  0
  4 18  1  0  0  0  0
  5 19  1  0  0  0  0
  6 12  1  0  0  0  0
  7  2  1  0  0  0  0
  8 14  1  0  0  0  0
  8 24  1  0  0  0  0
  9 13  2  0  0  0  0
  9 14  1  0  0  0  0
 10  9  1  0  0  0  0
 12 11  2  0  0  0  0
 12  5  1  0  0  0  0
 13  3  1  0  0  0  0
 14  7  2  0  0  0  0
 15 10  2  0  0  0  0
 17 19  2  0  0  0  0
 18 10  1  1  0  0  0
 18  1  1  0  0  0  0
 19 15  1  0  0  0  0
 20 22  1  0  0  0  0
 21 20  2  0  0  0  0
 23 20  1  0  0  0  0
 24 25  1  0  0  0  0
 25 26  1  0  0  0  0
 27 30  1  6  0  0  0
 27 32  1  0  0  0  0
 27 31  1  0  0  0  0
 28 26  1  6  0  0  0
 28 32  1  0  0  0  0
 28 29  1  0  0  0  0
 32 31  1  6  0  0  0
 32 29  1  0  0  0  0
M  END
>  <MODEL>
8

>  <REMARK>
 VINA RESULT:      -6.6      2.182      3.635
  Name = 
  5 active torsions:
  status: ('A' for Active; 'I' for Inactive)
    1  A    between atoms: C_2  and  N_12
    2  A    between atoms: C_3  and  N_28
    3  A    between atoms: C_9  and  N_14
    4  A    between atoms: C_9  and  C_21
    5  A    between atoms: N_12  and  C_21
                            x       y       z     vdW  Elec       q    Type
                         _______ _______ _______ _____ _____    ______ ____

>  <TORSDO>
F 5

$$$$
=
 OpenBabel11052416553D

 32 36  0  0  1  0  0  0  0  0999 V2000
  187.1770  178.1720  141.9420 C   0  0  1  0  0  3  0  0  0  0  0  0
  183.4900  178.8700  145.2300 C   0  0  0  0  0  3  0  0  0  0  0  0
  184.3460  178.5240  146.2780 C   0  0  0  0  0  3  0  0  0  0  0  0
  189.2130  176.7750  142.6940 C   0  0  1  0  0  3  0  0  0  0  0  0
  190.2240  177.4910  143.4810 N   0  0  0  0  0  0  0  0  0  0  0  0
  191.8320  177.2990  141.5040 C   0  0  0  0  0  1  0  0  0  0  0  0
  183.9560  178.8610  143.9130 C   0  0  0  0  0  3  0  0  0  0  0  0
  185.7790  178.5290  142.2600 N   0  0  0  0  0  0  0  0  0  0  0  0
  186.1390  178.1400  144.6880 C   0  0  0  0  0  0  0  0  0  0  0  0
  187.5250  177.7670  144.3780 C   0  0  0  0  0  0  0  0  0  0  0  0
  192.4040  178.3740  143.5320 O   0  0  0  0  0  0  0  0  0  0  0  0
  191.5160  177.7500  142.8920 C   0  0  0  0  0  0  0  0  0  0  0  0
  185.6680  178.1640  146.0090 C   0  0  0  0  0  3  0  0  0  0  0  0
  185.2830  178.4990  143.6240 C   0  0  0  0  0  0  0  0  0  0  0  0
  188.5160  178.0230  145.2360 C   0  0  0  0  0  3  0  0  0  0  0  0
  189.3280  175.2820  142.9430 C   0  0  0  0  0  1  0  0  0  0  0  0
  190.8450  178.0500  145.7160 N   0  0  0  0  0  2  0  0  0  0  0  0
  187.7750  177.2330  142.9960 C   0  0  1  0  0  3  0  0  0  0  0  0
  189.9130  177.8350  144.8460 C   0  0  0  0  0  0  0  0  0  0  0  0
  188.2200  177.9540  139.5980 C   0  0  0  0  0  0  0  0  0  0  0  0
  188.2180  177.3520  138.4950 O   0  0  0  0  0  0  0  0  0  0  0  0
  189.2160  179.0400  139.8290 C   0  0  0  0  0  1  0  0  0  0  0  0
  187.2720  177.5770  140.6050 N   0  0  0  0  0  2  0  0  0  0  0  0
  185.0090  179.2210  141.2280 C   0  0  0  0  0  2  0  0  0  0  0  0
  183.9710  178.2870  140.6340 C   0  0  0  0  0  2  0  0  0  0  0  0
  183.4430  178.8640  139.4110 N   0  0  0  0  0  2  0  0  0  0  0  0
  182.1780  175.9810  138.2700 C   0  0  1  0  0  3  0  0  0  0  0  0
  182.2890  178.0650  139.0370 C   0  0  2  0  0  3  0  0  0  0  0  0
  181.2240  177.8510  140.4620 S   0  0  0  0  0  0  0  0  0  0  0  0
  183.3080  175.0010  138.0210 C   0  0  0  0  0  1  0  0  0  0  0  0
  181.4210  175.5560  139.4460 C   0  0  0  0  0  2  0  0  0  0  0  0
  182.4290  176.7060  139.6070 C   0  0  1  0  0  0  0  0  0  0  0  0
  1 23  1  6  0  0  0
  1  8  1  0  0  0  0
  1 18  1  0  0  0  0
  2  3  1  0  0  0  0
  4 16  1  1  0  0  0
  4 18  1  0  0  0  0
  4  5  1  0  0  0  0
  5 19  1  0  0  0  0
  6 12  1  0  0  0  0
  7  2  2  0  0  0  0
  8 14  1  0  0  0  0
  9 13  1  0  0  0  0
 10  9  1  0  0  0  0
 10 15  2  0  0  0  0
 12  5  1  0  0  0  0
 12 11  2  0  0  0  0
 13  3  2  0  0  0  0
 14  7  1  0  0  0  0
 14  9  2  0  0  0  0
 18 10  1  1  0  0  0
 19 15  1  0  0  0  0
 19 17  2  0  0  0  0
 20 22  1  0  0  0  0
 20 23  1  0  0  0  0
 21 20  2  0  0  0  0
 24  8  1  0  0  0  0
 25 24  1  0  0  0  0
 26 25  1  0  0  0  0
 27 30  1  1  0  0  0
 27 31  1  0  0  0  0
 27 32  1  0  0  0  0
 28 26  1  1  0  0  0
 28 32  1  0  0  0  0
 28 29  1  0  0  0  0
 32 31  1  1  0  0  0
 32 29  1  0  0  0  0
M  END
>  <MODEL>
9

>  <REMARK>
 VINA RESULT:      -6.5      2.720      6.993
  Name = 
  5 active torsions:
  status: ('A' for Active; 'I' for Inactive)
    1  A    between atoms: C_2  and  N_12
    2  A    between atoms: C_3  and  N_28
    3  A    between atoms: C_9  and  N_14
    4  A    between atoms: C_9  and  C_21
    5  A    between atoms: N_12  and  C_21
                            x       y       z     vdW  Elec       q    Type
                         _______ _______ _______ _____ _____    ______ ____

>  <TORSDO>
F 5

$$$$
