=
 OpenBabel11052412303D

 30 33  0  0  0  0  0  0  0  0999 V2000
  188.0680  177.5420  143.8000 C   0  0  0  0  0  3  0  0  0  0  0  0
  187.5340  177.6760  146.1690 C   0  0  0  0  0  0  0  0  0  0  0  0
  184.2900  179.0160  142.8270 N   0  0  0  0  0  0  0  0  0  0  0  0
  187.7200  177.7040  142.4540 C   0  0  0  0  0  0  0  0  0  0  0  0
  183.9170  179.2230  141.5360 C   0  0  0  0  0  3  0  0  0  0  0  0
  186.6250  177.9840  147.1850 C   0  0  0  0  0  3  0  0  0  0  0  0
  188.7950  177.1960  146.5080 O   0  0  0  0  0  1  0  0  0  0  0  0
  185.5200  178.5270  143.1550 C   0  0  0  0  0  0  0  0  0  0  0  0
  185.3530  178.4670  146.8710 C   0  0  0  0  0  3  0  0  0  0  0  0
  187.1690  177.8520  144.8240 C   0  0  0  0  0  0  0  0  0  0  0  0
  186.4450  178.2130  142.1280 C   0  0  0  0  0  0  0  0  0  0  0  0
  184.8030  178.9400  140.4970 C   0  0  0  0  0  3  0  0  0  0  0  0
  186.0670  178.4370  140.7980 C   0  0  0  0  0  3  0  0  0  0  0  0
  184.9820  178.6460  145.5360 C   0  0  0  0  0  3  0  0  0  0  0  0
  185.8810  178.3420  144.5020 C   0  0  0  0  0  0  0  0  0  0  0  0
  190.6530  176.2200  140.9280 O   0  0  0  0  0  0  0  0  0  0  0  0
  190.0240  176.9410  141.7480 C   0  0  0  0  0  0  0  0  0  0  0  0
  188.6800  177.3590  141.4370 N   0  0  0  0  0  0  0  0  0  0  0  0
  191.0570  176.4950  143.9610 N   0  0  0  0  0  0  0  0  0  0  0  0
  191.0730  178.6190  143.2740 N   0  0  0  0  0  2  0  0  0  0  0  0
  190.7050  177.3550  142.9910 C   0  0  0  0  0  0  0  0  0  0  0  0
  191.6550  177.2120  144.8960 N   0  0  0  0  0  0  0  0  0  0  0  0
  191.6640  178.4930  144.4790 C   0  0  0  0  0  3  0  0  0  0  0  0
  188.2750  177.4620  140.0390 C   0  0  0  0  0  2  0  0  0  0  0  0
  189.1690  178.4510  139.3100 C   0  0  0  0  0  2  0  0  0  0  0  0
  189.4630  177.9560  137.9070 C   0  0  0  0  0  2  0  0  0  0  0  0
  189.4250  176.5000  137.8760 N   0  0  0  0  0  0  0  0  0  0  0  0
  191.7120  176.3760  137.2650 N   0  0  0  0  0  1  0  0  0  0  0  0
  190.4580  175.7750  137.5810 C   0  0  0  0  0  0  0  0  0  0  0  0
  190.3390  174.3580  137.5720 N   0  0  0  0  0  1  0  0  0  0  0  0
  1 10  1  0  0  0  0
  2  7  1  0  0  0  0
  2  6  1  0  0  0  0
  3  8  1  0  0  0  0
  4  1  2  0  0  0  0
  5  3  2  0  0  0  0
  8 15  1  0  0  0  0
  9  6  2  0  0  0  0
 10  2  2  0  0  0  0
 11  4  1  0  0  0  0
 11  8  2  0  0  0  0
 12 13  2  0  0  0  0
 12  5  1  0  0  0  0
 13 11  1  0  0  0  0
 14  9  1  0  0  0  0
 15 10  1  0  0  0  0
 15 14  2  0  0  0  0
 16 17  2  0  0  0  0
 17 21  1  0  0  0  0
 18 17  1  0  0  0  0
 18  4  1  0  0  0  0
 19 22  1  0  0  0  0
 20 23  1  0  0  0  0
 21 20  1  0  0  0  0
 21 19  2  0  0  0  0
 23 22  2  0  0  0  0
 24 18  1  0  0  0  0
 25 24  1  0  0  0  0
 26 25  1  0  0  0  0
 27 26  1  0  0  0  0
 28 29  1  0  0  0  0
 29 27  2  0  0  0  0
 30 29  1  0  0  0  0
M  END
>  <MODEL>
1

>  <REMARK>
 VINA RESULT:      -8.7      0.000      0.000
  Name = 
  6 active torsions:
  status: ('A' for Active; 'I' for Inactive)
    1  A    between atoms: C_4  and  N_13
    2  A    between atoms: N_7  and  C_16
    3  A    between atoms: C_8  and  C_12
    4  A    between atoms: N_13  and  C_27
    5  A    between atoms: C_16  and  C_30
    6  A    between atoms: C_27  and  C_30
                            x       y       z     vdW  Elec       q    Type
                         _______ _______ _______ _____ _____    ______ ____

>  <TORSDO>
F 6

$$$$
=
 OpenBabel11052412303D

 30 33  0  0  0  0  0  0  0  0999 V2000
  188.0910  177.5800  143.7560 C   0  0  0  0  0  3  0  0  0  0  0  0
  187.6280  177.6780  146.1420 C   0  0  0  0  0  0  0  0  0  0  0  0
  184.2510  178.9760  142.9170 N   0  0  0  0  0  0  0  0  0  0  0  0
  187.6970  177.7470  142.4230 C   0  0  0  0  0  0  0  0  0  0  0  0
  183.8340  179.1880  141.6410 C   0  0  0  0  0  3  0  0  0  0  0  0
  186.7450  177.9540  147.1890 C   0  0  0  0  0  3  0  0  0  0  0  0
  188.9090  177.2240  146.4360 O   0  0  0  0  0  1  0  0  0  0  0  0
  185.5010  178.5120  143.2010 C   0  0  0  0  0  0  0  0  0  0  0  0
  185.4530  178.4110  146.9190 C   0  0  0  0  0  3  0  0  0  0  0  0
  187.2170  177.8580  144.8110 C   0  0  0  0  0  0  0  0  0  0  0  0
  186.4000  178.2300  142.1430 C   0  0  0  0  0  0  0  0  0  0  0  0
  184.6920  178.9350  140.5720 C   0  0  0  0  0  3  0  0  0  0  0  0
  185.9770  178.4580  140.8270 C   0  0  0  0  0  3  0  0  0  0  0  0
  185.0360  178.5950  145.5990 C   0  0  0  0  0  3  0  0  0  0  0  0
  185.9080  178.3220  144.5340 C   0  0  0  0  0  0  0  0  0  0  0  0
  190.5440  176.2440  140.7590 O   0  0  0  0  0  0  0  0  0  0  0  0
  189.9560  176.9300  141.6380 C   0  0  0  0  0  0  0  0  0  0  0  0
  188.6320  177.4350  141.3730 N   0  0  0  0  0  0  0  0  0  0  0  0
  190.9920  176.2670  143.7940 N   0  0  0  0  0  0  0  0  0  0  0  0
  191.0850  178.4380  143.2800 N   0  0  0  0  0  2  0  0  0  0  0  0
  190.6650  177.2160  142.9010 C   0  0  0  0  0  0  0  0  0  0  0  0
  191.6270  176.8830  144.7760 N   0  0  0  0  0  0  0  0  0  0  0  0
  191.6820  178.1920  144.4630 C   0  0  0  0  0  3  0  0  0  0  0  0
  188.2230  177.6620  139.9920 C   0  0  0  0  0  2  0  0  0  0  0  0
  189.1820  178.6290  139.3170 C   0  0  0  0  0  2  0  0  0  0  0  0
  188.8990  178.6940  137.8280 C   0  0  0  0  0  2  0  0  0  0  0  0
  187.4720  178.5410  137.5860 N   0  0  0  0  0  0  0  0  0  0  0  0
  187.8420  176.7440  136.0840 N   0  0  0  0  0  1  0  0  0  0  0  0
  186.9870  177.6450  136.7850 C   0  0  0  0  0  0  0  0  0  0  0  0
  185.5790  177.5590  136.6010 N   0  0  0  0  0  1  0  0  0  0  0  0
  1 10  1  0  0  0  0
  2  7  1  0  0  0  0
  2  6  1  0  0  0  0
  3  8  1  0  0  0  0
  4  1  2  0  0  0  0
  5  3  2  0  0  0  0
  8 15  1  0  0  0  0
  9  6  2  0  0  0  0
 10  2  2  0  0  0  0
 11  4  1  0  0  0  0
 11  8  2  0  0  0  0
 12 13  2  0  0  0  0
 12  5  1  0  0  0  0
 13 11  1  0  0  0  0
 14  9  1  0  0  0  0
 15 10  1  0  0  0  0
 15 14  2  0  0  0  0
 16 17  2  0  0  0  0
 17 21  1  0  0  0  0
 18 17  1  0  0  0  0
 18  4  1  0  0  0  0
 19 22  1  0  0  0  0
 20 23  1  0  0  0  0
 21 20  1  0  0  0  0
 21 19  2  0  0  0  0
 23 22  2  0  0  0  0
 24 18  1  0  0  0  0
 25 24  1  0  0  0  0
 26 25  1  0  0  0  0
 27 26  1  0  0  0  0
 28 29  1  0  0  0  0
 29 27  2  0  0  0  0
 30 29  1  0  0  0  0
M  END
>  <MODEL>
2

>  <REMARK>
 VINA RESULT:      -8.6      1.278      1.593
  Name = 
  6 active torsions:
  status: ('A' for Active; 'I' for Inactive)
    1  A    between atoms: C_4  and  N_13
    2  A    between atoms: N_7  and  C_16
    3  A    between atoms: C_8  and  C_12
    4  A    between atoms: N_13  and  C_27
    5  A    between atoms: C_16  and  C_30
    6  A    between atoms: C_27  and  C_30
                            x       y       z     vdW  Elec       q    Type
                         _______ _______ _______ _____ _____    ______ ____

>  <TORSDO>
F 6

$$$$
=
 OpenBabel11052412303D

 30 33  0  0  0  0  0  0  0  0999 V2000
  188.5660  177.7830  143.9320 C   0  0  0  0  0  3  0  0  0  0  0  0
  189.0370  177.7340  146.3180 C   0  0  0  0  0  0  0  0  0  0  0  0
  184.5240  178.4620  144.7070 N   0  0  0  0  0  0  0  0  0  0  0  0
  187.6730  177.9070  142.8610 C   0  0  0  0  0  0  0  0  0  0  0  0
  183.6240  178.6240  143.7010 C   0  0  0  0  0  3  0  0  0  0  0  0
  188.5870  177.8170  147.6380 C   0  0  0  0  0  3  0  0  0  0  0  0
  190.3890  177.5190  146.0730 O   0  0  0  0  0  1  0  0  0  0  0  0
  185.8460  178.2310  144.4630 C   0  0  0  0  0  0  0  0  0  0  0  0
  187.2340  178.0320  147.9090 C   0  0  0  0  0  3  0  0  0  0  0  0
  188.1270  177.8680  145.2560 C   0  0  0  0  0  0  0  0  0  0  0  0
  186.3080  178.1470  143.1260 C   0  0  0  0  0  0  0  0  0  0  0  0
  184.0400  178.5620  142.3720 C   0  0  0  0  0  3  0  0  0  0  0  0
  185.3840  178.3250  142.0890 C   0  0  0  0  0  3  0  0  0  0  0  0
  186.3220  178.1680  146.8600 C   0  0  0  0  0  3  0  0  0  0  0  0
  186.7550  178.0880  145.5280 C   0  0  0  0  0  0  0  0  0  0  0  0
  189.3960  176.5230  139.9890 O   0  0  0  0  0  0  0  0  0  0  0  0
  189.2900  176.9540  141.1680 C   0  0  0  0  0  0  0  0  0  0  0  0
  188.1750  177.7990  141.5160 N   0  0  0  0  0  0  0  0  0  0  0  0
  191.3480  177.4150  142.4780 N   0  0  0  0  0  0  0  0  0  0  0  0
  190.3750  175.4380  142.8320 N   0  0  0  0  0  2  0  0  0  0  0  0
  190.3360  176.5970  142.1470 C   0  0  0  0  0  0  0  0  0  0  0  0
  192.0640  176.7750  143.3860 N   0  0  0  0  0  0  0  0  0  0  0  0
  191.4750  175.5830  143.5970 C   0  0  0  0  0  3  0  0  0  0  0  0
  187.5400  178.5980  140.4730 C   0  0  0  0  0  2  0  0  0  0  0  0
  187.3760  177.7700  139.2100 C   0  0  0  0  0  2  0  0  0  0  0  0
  186.4980  178.5030  138.2140 C   0  0  0  0  0  2  0  0  0  0  0  0
  185.1310  178.0090  138.2980 N   0  0  0  0  0  0  0  0  0  0  0  0
  184.3390  180.1040  139.0740 N   0  0  0  0  0  1  0  0  0  0  0  0
  184.1400  178.7440  138.6940 C   0  0  0  0  0  0  0  0  0  0  0  0
  182.8320  178.1870  138.7490 N   0  0  0  0  0  1  0  0  0  0  0  0
  1 10  1  0  0  0  0
  2  6  1  0  0  0  0
  4 11  1  0  0  0  0
  4  1  2  0  0  0  0
  5  3  2  0  0  0  0
  6  9  2  0  0  0  0
  7  2  1  0  0  0  0
  8  3  1  0  0  0  0
  8 15  1  0  0  0  0
 10 15  1  0  0  0  0
 10  2  2  0  0  0  0
 11  8  2  0  0  0  0
 12  5  1  0  0  0  0
 13 12  2  0  0  0  0
 13 11  1  0  0  0  0
 14  9  1  0  0  0  0
 15 14  2  0  0  0  0
 16 17  2  0  0  0  0
 17 18  1  0  0  0  0
 17 21  1  0  0  0  0
 18  4  1  0  0  0  0
 19 22  1  0  0  0  0
 20 23  1  0  0  0  0
 21 19  2  0  0  0  0
 21 20  1  0  0  0  0
 22 23  2  0  0  0  0
 24 18  1  0  0  0  0
 25 24  1  0  0  0  0
 26 27  1  0  0  0  0
 26 25  1  0  0  0  0
 27 29  2  0  0  0  0
 29 30  1  0  0  0  0
 29 28  1  0  0  0  0
M  END
>  <MODEL>
3

>  <REMARK>
 VINA RESULT:      -8.4      2.175      3.165
  Name = 
  6 active torsions:
  status: ('A' for Active; 'I' for Inactive)
    1  A    between atoms: C_4  and  N_13
    2  A    between atoms: N_7  and  C_16
    3  A    between atoms: C_8  and  C_12
    4  A    between atoms: N_13  and  C_27
    5  A    between atoms: C_16  and  C_30
    6  A    between atoms: C_27  and  C_30
                            x       y       z     vdW  Elec       q    Type
                         _______ _______ _______ _____ _____    ______ ____

>  <TORSDO>
F 6

$$$$
=
 OpenBabel11052412303D

 30 33  0  0  0  0  0  0  0  0999 V2000
  183.4340  179.0380  140.1680 C   0  0  0  0  0  3  0  0  0  0  0  0
  185.5590  178.6790  141.2950 C   0  0  0  0  0  0  0  0  0  0  0  0
  181.4120  178.7210  143.8020 N   0  0  0  0  0  0  0  0  0  0  0  0
  182.0390  179.1570  140.1900 C   0  0  0  0  0  0  0  0  0  0  0  0
  180.0630  178.8620  143.8810 C   0  0  0  0  0  3  0  0  0  0  0  0
  186.2760  178.4370  142.4700 C   0  0  0  0  0  3  0  0  0  0  0  0
  186.2470  178.7950  140.0910 O   0  0  0  0  0  1  0  0  0  0  0  0
  182.0810  178.8140  142.6170 C   0  0  0  0  0  0  0  0  0  0  0  0
  185.6080  178.3180  143.6900 C   0  0  0  0  0  3  0  0  0  0  0  0
  184.1610  178.8020  141.3380 C   0  0  0  0  0  0  0  0  0  0  0  0
  181.3590  179.0590  141.4230 C   0  0  0  0  0  0  0  0  0  0  0  0
  179.3170  179.1180  142.7310 C   0  0  0  0  0  3  0  0  0  0  0  0
  179.9690  179.2170  141.5030 C   0  0  0  0  0  3  0  0  0  0  0  0
  184.2180  178.4400  143.7430 C   0  0  0  0  0  3  0  0  0  0  0  0
  183.4810  178.6820  142.5740 C   0  0  0  0  0  0  0  0  0  0  0  0
  179.5700  178.7500  137.5690 O   0  0  0  0  0  0  0  0  0  0  0  0
  180.5030  178.3890  138.3360 C   0  0  0  0  0  0  0  0  0  0  0  0
  181.3370  179.3890  138.9550 N   0  0  0  0  0  0  0  0  0  0  0  0
  181.6640  176.2390  137.9000 N   0  0  0  0  0  0  0  0  0  0  0  0
  180.0370  176.1900  139.4270 N   0  0  0  0  0  0  0  0  0  0  0  0
  180.7240  176.9450  138.5480 C   0  0  0  0  0  0  0  0  0  0  0  0
  181.5830  175.0010  138.3560 N   0  0  0  0  0  2  0  0  0  0  0  0
  180.6010  174.9750  139.2770 C   0  0  0  0  0  3  0  0  0  0  0  0
  181.4990  180.6820  138.2980 C   0  0  0  0  0  2  0  0  0  0  0  0
  180.5770  181.7090  138.9330 C   0  0  0  0  0  2  0  0  0  0  0  0
  179.6890  182.3390  137.8780 C   0  0  0  0  0  2  0  0  0  0  0  0
  180.2570  183.6070  137.4420 N   0  0  0  0  0  0  0  0  0  0  0  0
  180.7000  182.7530  135.2760 N   0  0  0  0  0  1  0  0  0  0  0  0
  180.7220  183.7960  136.2470 C   0  0  0  0  0  0  0  0  0  0  0  0
  181.2610  185.0650  135.8980 N   0  0  0  0  0  1  0  0  0  0  0  0
  1  4  2  0  0  0  0
  1 10  1  0  0  0  0
  2 10  2  0  0  0  0
  2  6  1  0  0  0  0
  3  5  1  0  0  0  0
  4 11  1  0  0  0  0
  6  9  2  0  0  0  0
  7  2  1  0  0  0  0
  8  3  2  0  0  0  0
  9 14  1  0  0  0  0
 10 15  1  0  0  0  0
 11 13  2  0  0  0  0
 11  8  1  0  0  0  0
 12  5  2  0  0  0  0
 13 12  1  0  0  0  0
 15  8  1  0  0  0  0
 15 14  2  0  0  0  0
 16 17  2  0  0  0  0
 17 21  1  0  0  0  0
 17 18  1  0  0  0  0
 18  4  1  0  0  0  0
 19 22  1  0  0  0  0
 19 21  2  0  0  0  0
 21 20  1  0  0  0  0
 22 23  1  0  0  0  0
 23 20  2  0  0  0  0
 24 25  1  0  0  0  0
 24 18  1  0  0  0  0
 26 25  1  0  0  0  0
 27 26  1  0  0  0  0
 28 29  1  0  0  0  0
 29 27  2  0  0  0  0
 30 29  1  0  0  0  0
M  END
>  <MODEL>
4

>  <REMARK>
 VINA RESULT:      -8.2      5.511      8.743
  Name = 
  6 active torsions:
  status: ('A' for Active; 'I' for Inactive)
    1  A    between atoms: C_4  and  N_13
    2  A    between atoms: N_7  and  C_16
    3  A    between atoms: C_8  and  C_12
    4  A    between atoms: N_13  and  C_27
    5  A    between atoms: C_16  and  C_30
    6  A    between atoms: C_27  and  C_30
                            x       y       z     vdW  Elec       q    Type
                         _______ _______ _______ _____ _____    ______ ____

>  <TORSDO>
F 6

$$$$
=
 OpenBabel11052412303D

 30 33  0  0  0  0  0  0  0  0999 V2000
  186.9740  178.1420  144.5400 C   0  0  0  0  0  3  0  0  0  0  0  0
  186.5550  178.2580  146.9330 C   0  0  0  0  0  0  0  0  0  0  0  0
  190.8400  176.7450  145.2460 N   0  0  0  0  0  0  0  0  0  0  0  0
  187.8140  177.8680  143.4540 C   0  0  0  0  0  0  0  0  0  0  0  0
  191.6810  176.4330  144.2260 C   0  0  0  0  0  3  0  0  0  0  0  0
  187.0030  178.0870  148.2450 C   0  0  0  0  0  3  0  0  0  0  0  0
  185.2600  178.7130  146.7100 O   0  0  0  0  0  1  0  0  0  0  0  0
  189.5770  177.2110  145.0250 C   0  0  0  0  0  0  0  0  0  0  0  0
  188.2990  177.6310  148.4930 C   0  0  0  0  0  3  0  0  0  0  0  0
  187.4100  177.9710  145.8560 C   0  0  0  0  0  0  0  0  0  0  0  0
  189.1180  177.3860  143.6960 C   0  0  0  0  0  0  0  0  0  0  0  0
  191.2630  176.5770  142.9030 C   0  0  0  0  0  3  0  0  0  0  0  0
  189.9790  177.0530  142.6430 C   0  0  0  0  0  3  0  0  0  0  0  0
  189.1560  177.3420  147.4290 C   0  0  0  0  0  3  0  0  0  0  0  0
  188.7240  177.5070  146.1040 C   0  0  0  0  0  0  0  0  0  0  0  0
  185.9900  179.3810  140.7120 O   0  0  0  0  0  0  0  0  0  0  0  0
  186.1260  178.8340  141.8390 C   0  0  0  0  0  0  0  0  0  0  0  0
  187.3190  178.0730  142.1170 N   0  0  0  0  0  0  0  0  0  0  0  0
  184.8890  180.0470  143.6160 N   0  0  0  0  0  0  0  0  0  0  0  0
  184.0650  178.0590  143.0210 N   0  0  0  0  0  2  0  0  0  0  0  0
  185.0370  178.9710  142.8260 C   0  0  0  0  0  0  0  0  0  0  0  0
  183.8080  179.8280  144.3450 N   0  0  0  0  0  0  0  0  0  0  0  0
  183.3130  178.6290  143.9840 C   0  0  0  0  0  3  0  0  0  0  0  0
  188.0460  177.4650  141.0080 C   0  0  0  0  0  2  0  0  0  0  0  0
  188.6810  178.5440  140.1470 C   0  0  0  0  0  2  0  0  0  0  0  0
  189.0240  177.9870  138.7780 C   0  0  0  0  0  2  0  0  0  0  0  0
  187.8310  177.4300  138.1560 N   0  0  0  0  0  0  0  0  0  0  0  0
  187.5110  179.3780  136.8440 N   0  0  0  0  0  1  0  0  0  0  0  0
  187.1370  178.0690  137.2670 C   0  0  0  0  0  0  0  0  0  0  0  0
  185.9830  177.4550  136.7060 N   0  0  0  0  0  1  0  0  0  0  0  0
  1 10  1  0  0  0  0
  2  6  1  0  0  0  0
  4 11  1  0  0  0  0
  4  1  2  0  0  0  0
  5  3  2  0  0  0  0
  6  9  2  0  0  0  0
  7  2  1  0  0  0  0
  8  3  1  0  0  0  0
  8 15  1  0  0  0  0
 10 15  1  0  0  0  0
 10  2  2  0  0  0  0
 11  8  2  0  0  0  0
 12  5  1  0  0  0  0
 13 12  2  0  0  0  0
 13 11  1  0  0  0  0
 14  9  1  0  0  0  0
 15 14  2  0  0  0  0
 16 17  2  0  0  0  0
 17 18  1  0  0  0  0
 17 21  1  0  0  0  0
 18  4  1  0  0  0  0
 19 22  1  0  0  0  0
 20 23  1  0  0  0  0
 21 20  1  0  0  0  0
 21 19  2  0  0  0  0
 23 22  2  0  0  0  0
 24 18  1  0  0  0  0
 25 24  1  0  0  0  0
 26 25  1  0  0  0  0
 27 26  1  0  0  0  0
 28 29  1  0  0  0  0
 29 27  2  0  0  0  0
 30 29  1  0  0  0  0
M  END
>  <MODEL>
5

>  <REMARK>
 VINA RESULT:      -8.2      2.097      4.862
  Name = 
  6 active torsions:
  status: ('A' for Active; 'I' for Inactive)
    1  A    between atoms: C_4  and  N_13
    2  A    between atoms: N_7  and  C_16
    3  A    between atoms: C_8  and  C_12
    4  A    between atoms: N_13  and  C_27
    5  A    between atoms: C_16  and  C_30
    6  A    between atoms: C_27  and  C_30
                            x       y       z     vdW  Elec       q    Type
                         _______ _______ _______ _____ _____    ______ ____

>  <TORSDO>
F 6

$$$$
=
 OpenBabel11052412303D

 30 33  0  0  0  0  0  0  0  0999 V2000
  186.9790  178.1520  144.5250 C   0  0  0  0  0  3  0  0  0  0  0  0
  186.5720  178.2510  146.9210 C   0  0  0  0  0  0  0  0  0  0  0  0
  190.8460  176.7430  145.2020 N   0  0  0  0  0  0  0  0  0  0  0  0
  187.8130  177.8840  143.4330 C   0  0  0  0  0  0  0  0  0  0  0  0
  191.6810  176.4350  144.1760 C   0  0  0  0  0  3  0  0  0  0  0  0
  187.0270  178.0710  148.2290 C   0  0  0  0  0  3  0  0  0  0  0  0
  185.2760  178.7110  146.7080 O   0  0  0  0  0  1  0  0  0  0  0  0
  189.5830  177.2120  144.9910 C   0  0  0  0  0  0  0  0  0  0  0  0
  188.3230  177.6110  148.4680 C   0  0  0  0  0  3  0  0  0  0  0  0
  187.4210  177.9700  145.8380 C   0  0  0  0  0  0  0  0  0  0  0  0
  189.1170  177.3970  143.6650 C   0  0  0  0  0  0  0  0  0  0  0  0
  191.2570  176.5900  142.8570 C   0  0  0  0  0  3  0  0  0  0  0  0
  189.9730  177.0690  142.6060 C   0  0  0  0  0  3  0  0  0  0  0  0
  189.1740  177.3270  147.3980 C   0  0  0  0  0  3  0  0  0  0  0  0
  188.7360  177.5030  146.0770 C   0  0  0  0  0  0  0  0  0  0  0  0
  185.9740  179.4150  140.7120 O   0  0  0  0  0  0  0  0  0  0  0  0
  186.1160  178.8590  141.8330 C   0  0  0  0  0  0  0  0  0  0  0  0
  187.3120  178.0980  142.1000 N   0  0  0  0  0  0  0  0  0  0  0  0
  184.8790  180.0600  143.6190 N   0  0  0  0  0  0  0  0  0  0  0  0
  184.0680  178.0670  143.0250 N   0  0  0  0  0  2  0  0  0  0  0  0
  185.0320  178.9870  142.8270 C   0  0  0  0  0  0  0  0  0  0  0  0
  183.8040  179.8320  144.3530 N   0  0  0  0  0  0  0  0  0  0  0  0
  183.3170  178.6290  143.9930 C   0  0  0  0  0  3  0  0  0  0  0  0
  188.0350  177.5000  140.9830 C   0  0  0  0  0  2  0  0  0  0  0  0
  188.6820  178.5860  140.1400 C   0  0  0  0  0  2  0  0  0  0  0  0
  189.0610  178.0360  138.7780 C   0  0  0  0  0  2  0  0  0  0  0  0
  189.7880  176.7840  138.9330 N   0  0  0  0  0  0  0  0  0  0  0  0
  190.1110  176.5940  136.5920 N   0  0  0  0  0  1  0  0  0  0  0  0
  190.2700  176.1220  137.9280 C   0  0  0  0  0  0  0  0  0  0  0  0
  190.9680  174.9040  138.1620 N   0  0  0  0  0  1  0  0  0  0  0  0
  1 10  1  0  0  0  0
  2  6  1  0  0  0  0
  4 11  1  0  0  0  0
  4  1  2  0  0  0  0
  5  3  2  0  0  0  0
  6  9  2  0  0  0  0
  7  2  1  0  0  0  0
  8  3  1  0  0  0  0
  8 15  1  0  0  0  0
 10 15  1  0  0  0  0
 10  2  2  0  0  0  0
 11  8  2  0  0  0  0
 12  5  1  0  0  0  0
 13 12  2  0  0  0  0
 13 11  1  0  0  0  0
 14  9  1  0  0  0  0
 15 14  2  0  0  0  0
 16 17  2  0  0  0  0
 17 18  1  0  0  0  0
 17 21  1  0  0  0  0
 18  4  1  0  0  0  0
 19 22  1  0  0  0  0
 20 23  1  0  0  0  0
 21 20  1  0  0  0  0
 21 19  2  0  0  0  0
 23 22  2  0  0  0  0
 24 18  1  0  0  0  0
 25 24  1  0  0  0  0
 26 27  1  0  0  0  0
 26 25  1  0  0  0  0
 28 29  1  0  0  0  0
 29 30  1  0  0  0  0
 29 27  2  0  0  0  0
M  END
>  <MODEL>
6

>  <REMARK>
 VINA RESULT:      -8.1      1.760      4.613
  Name = 
  6 active torsions:
  status: ('A' for Active; 'I' for Inactive)
    1  A    between atoms: C_4  and  N_13
    2  A    between atoms: N_7  and  C_16
    3  A    between atoms: C_8  and  C_12
    4  A    between atoms: N_13  and  C_27
    5  A    between atoms: C_16  and  C_30
    6  A    between atoms: C_27  and  C_30
                            x       y       z     vdW  Elec       q    Type
                         _______ _______ _______ _____ _____    ______ ____

>  <TORSDO>
F 6

$$$$
=
 OpenBabel11052412303D

 30 33  0  0  0  0  0  0  0  0999 V2000
  186.0390  177.8250  142.2210 C   0  0  0  0  0  3  0  0  0  0  0  0
  183.8480  178.2200  141.2420 C   0  0  0  0  0  0  0  0  0  0  0  0
  184.5630  178.7840  146.0020 N   0  0  0  0  0  0  0  0  0  0  0  0
  186.9010  177.7930  143.3230 C   0  0  0  0  0  0  0  0  0  0  0  0
  185.3520  178.7340  147.1080 C   0  0  0  0  0  3  0  0  0  0  0  0
  182.5080  178.5870  141.3920 C   0  0  0  0  0  3  0  0  0  0  0  0
  184.3250  177.8910  139.9770 O   0  0  0  0  0  1  0  0  0  0  0  0
  185.0390  178.4800  144.7600 C   0  0  0  0  0  0  0  0  0  0  0  0
  182.0060  178.9210  142.6510 C   0  0  0  0  0  3  0  0  0  0  0  0
  184.6960  178.1860  142.3610 C   0  0  0  0  0  0  0  0  0  0  0  0
  186.3970  178.1070  144.6030 C   0  0  0  0  0  0  0  0  0  0  0  0
  186.6900  178.3580  146.9970 C   0  0  0  0  0  3  0  0  0  0  0  0
  187.2080  178.0440  145.7420 C   0  0  0  0  0  3  0  0  0  0  0  0
  182.8420  178.8890  143.7700 C   0  0  0  0  0  3  0  0  0  0  0  0
  184.1900  178.5240  143.6390 C   0  0  0  0  0  0  0  0  0  0  0  0
  190.2480  177.8240  141.9320 O   0  0  0  0  0  0  0  0  0  0  0  0
  188.9930  177.7200  141.9040 C   0  0  0  0  0  0  0  0  0  0  0  0
  188.2790  177.4250  143.1220 N   0  0  0  0  0  0  0  0  0  0  0  0
  187.5600  178.9530  140.2950 N   0  0  0  0  0  0  0  0  0  0  0  0
  188.3570  176.9870  139.6020 N   0  0  0  0  0  0  0  0  0  0  0  0
  188.3000  177.8780  140.6100 C   0  0  0  0  0  0  0  0  0  0  0  0
  187.1200  178.7560  139.0650 N   0  0  0  0  0  2  0  0  0  0  0  0
  187.6020  177.5690  138.6490 C   0  0  0  0  0  3  0  0  0  0  0  0
  188.9670  176.7050  144.1890 C   0  0  0  0  0  2  0  0  0  0  0  0
  189.9790  177.6160  144.8640 C   0  0  0  0  0  2  0  0  0  0  0  0
  191.3130  176.9070  145.0000 C   0  0  0  0  0  2  0  0  0  0  0  0
  191.7350  176.9040  146.3930 N   0  0  0  0  0  0  0  0  0  0  0  0
  192.5500  174.6850  146.2220 N   0  0  0  0  0  1  0  0  0  0  0  0
  192.3030  175.8830  146.9540 C   0  0  0  0  0  0  0  0  0  0  0  0
  192.6860  175.9590  148.3220 N   0  0  0  0  0  1  0  0  0  0  0  0
  1 10  2  0  0  0  0
  1  4  1  0  0  0  0
  2  6  2  0  0  0  0
  2 10  1  0  0  0  0
  3  5  2  0  0  0  0
  4 11  2  0  0  0  0
  6  9  1  0  0  0  0
  7  2  1  0  0  0  0
  8  3  1  0  0  0  0
  9 14  2  0  0  0  0
 10 15  1  0  0  0  0
 11  8  1  0  0  0  0
 11 13  1  0  0  0  0
 12  5  1  0  0  0  0
 13 12  2  0  0  0  0
 15 14  1  0  0  0  0
 15  8  2  0  0  0  0
 17 16  2  0  0  0  0
 17 18  1  0  0  0  0
 18  4  1  0  0  0  0
 18 24  1  0  0  0  0
 19 21  2  0  0  0  0
 20 21  1  0  0  0  0
 21 17  1  0  0  0  0
 22 19  1  0  0  0  0
 23 22  1  0  0  0  0
 23 20  2  0  0  0  0
 24 25  1  0  0  0  0
 25 26  1  0  0  0  0
 26 27  1  0  0  0  0
 27 29  2  0  0  0  0
 28 29  1  0  0  0  0
 29 30  1  0  0  0  0
M  END
>  <MODEL>
7

>  <REMARK>
 VINA RESULT:      -8.0      2.258      5.784
  Name = 
  6 active torsions:
  status: ('A' for Active; 'I' for Inactive)
    1  A    between atoms: C_4  and  N_13
    2  A    between atoms: N_7  and  C_16
    3  A    between atoms: C_8  and  C_12
    4  A    between atoms: N_13  and  C_27
    5  A    between atoms: C_16  and  C_30
    6  A    between atoms: C_27  and  C_30
                            x       y       z     vdW  Elec       q    Type
                         _______ _______ _______ _____ _____    ______ ____

>  <TORSDO>
F 6

$$$$
=
 OpenBabel11052412303D

 30 33  0  0  0  0  0  0  0  0999 V2000
  183.6410  178.1390  141.0290 C   0  0  0  0  0  3  0  0  0  0  0  0
  185.2960  178.4990  142.7740 C   0  0  0  0  0  0  0  0  0  0  0  0
  180.5750  179.1170  143.6820 N   0  0  0  0  0  0  0  0  0  0  0  0
  182.3130  178.1060  140.5860 C   0  0  0  0  0  0  0  0  0  0  0  0
  179.2740  179.1330  143.2910 C   0  0  0  0  0  3  0  0  0  0  0  0
  185.6010  178.8360  144.0950 C   0  0  0  0  0  3  0  0  0  0  0  0
  186.3280  178.1870  141.8960 O   0  0  0  0  0  1  0  0  0  0  0  0
  181.5840  178.7900  142.8240 C   0  0  0  0  0  0  0  0  0  0  0  0
  184.5830  179.1540  144.9950 C   0  0  0  0  0  3  0  0  0  0  0  0
  183.9580  178.4790  142.3460 C   0  0  0  0  0  0  0  0  0  0  0  0
  181.2790  178.4480  141.4830 C   0  0  0  0  0  0  0  0  0  0  0  0
  178.9330  178.8160  141.9770 C   0  0  0  0  0  3  0  0  0  0  0  0
  179.9390  178.4760  141.0750 C   0  0  0  0  0  3  0  0  0  0  0  0
  183.2490  179.1380  144.5790 C   0  0  0  0  0  3  0  0  0  0  0  0
  182.9230  178.8020  143.2560 C   0  0  0  0  0  0  0  0  0  0  0  0
  182.4210  178.2030  136.9650 O   0  0  0  0  0  0  0  0  0  0  0  0
  182.2060  178.6550  138.1210 C   0  0  0  0  0  0  0  0  0  0  0  0
  182.0400  177.7380  139.2210 N   0  0  0  0  0  0  0  0  0  0  0  0
  183.1250  180.8840  138.7130 N   0  0  0  0  0  0  0  0  0  0  0  0
  180.9980  180.8410  138.0390 N   0  0  0  0  0  2  0  0  0  0  0  0
  182.1030  180.1170  138.2990 C   0  0  0  0  0  0  0  0  0  0  0  0
  182.6760  182.1270  138.7330 N   0  0  0  0  0  0  0  0  0  0  0  0
  181.3920  182.0980  138.3260 C   0  0  0  0  0  3  0  0  0  0  0  0
  181.5540  176.3890  138.9510 C   0  0  0  0  0  2  0  0  0  0  0  0
  182.6900  175.3890  139.0840 C   0  0  0  0  0  2  0  0  0  0  0  0
  183.1150  174.8930  137.7160 C   0  0  0  0  0  2  0  0  0  0  0  0
  184.2040  173.9350  137.8500 N   0  0  0  0  0  0  0  0  0  0  0  0
  185.5600  175.1490  136.3300 N   0  0  0  0  0  1  0  0  0  0  0  0
  185.3260  174.0530  137.2130 C   0  0  0  0  0  0  0  0  0  0  0  0
  186.3420  173.0750  137.3970 N   0  0  0  0  0  1  0  0  0  0  0  0
  1 10  1  0  0  0  0
  2  6  1  0  0  0  0
  4  1  2  0  0  0  0
  4 11  1  0  0  0  0
  5  3  1  0  0  0  0
  6  9  2  0  0  0  0
  7  2  1  0  0  0  0
  8 15  1  0  0  0  0
  8  3  2  0  0  0  0
 10  2  2  0  0  0  0
 10 15  1  0  0  0  0
 11  8  1  0  0  0  0
 12  5  2  0  0  0  0
 13 11  2  0  0  0  0
 13 12  1  0  0  0  0
 14  9  1  0  0  0  0
 15 14  2  0  0  0  0
 16 17  2  0  0  0  0
 17 21  1  0  0  0  0
 17 18  1  0  0  0  0
 18  4  1  0  0  0  0
 19 22  1  0  0  0  0
 20 21  1  0  0  0  0
 20 23  1  0  0  0  0
 21 19  2  0  0  0  0
 23 22  2  0  0  0  0
 24 25  1  0  0  0  0
 24 18  1  0  0  0  0
 26 27  1  0  0  0  0
 26 25  1  0  0  0  0
 28 29  1  0  0  0  0
 29 30  1  0  0  0  0
 29 27  2  0  0  0  0
M  END
>  <MODEL>
8

>  <REMARK>
 VINA RESULT:      -8.0      4.838      6.928
  Name = 
  6 active torsions:
  status: ('A' for Active; 'I' for Inactive)
    1  A    between atoms: C_4  and  N_13
    2  A    between atoms: N_7  and  C_16
    3  A    between atoms: C_8  and  C_12
    4  A    between atoms: N_13  and  C_27
    5  A    between atoms: C_16  and  C_30
    6  A    between atoms: C_27  and  C_30
                            x       y       z     vdW  Elec       q    Type
                         _______ _______ _______ _____ _____    ______ ____

>  <TORSDO>
F 6

$$$$
=
 OpenBabel11052412303D

 30 33  0  0  0  0  0  0  0  0999 V2000
  187.4340  178.3280  140.5420 C   0  0  0  0  0  3  0  0  0  0  0  0
  185.3650  178.9210  141.6730 C   0  0  0  0  0  0  0  0  0  0  0  0
  189.0250  176.8980  144.1230 N   0  0  0  0  0  0  0  0  0  0  0  0
  188.7340  177.8080  140.5570 C   0  0  0  0  0  0  0  0  0  0  0  0
  190.2690  176.3530  144.1820 C   0  0  0  0  0  3  0  0  0  0  0  0
  184.6060  178.9830  142.8440 C   0  0  0  0  0  3  0  0  0  0  0  0
  184.8180  179.3900  140.4830 O   0  0  0  0  0  1  0  0  0  0  0  0
  188.5000  177.3760  142.9580 C   0  0  0  0  0  0  0  0  0  0  0  0
  185.1320  178.5180  144.0510 C   0  0  0  0  0  3  0  0  0  0  0  0
  186.6650  178.3900  141.7060 C   0  0  0  0  0  0  0  0  0  0  0  0
  189.2660  177.3150  141.7680 C   0  0  0  0  0  0  0  0  0  0  0  0
  191.0490  176.2620  143.0300 C   0  0  0  0  0  3  0  0  0  0  0  0
  190.5430  176.7430  141.8240 C   0  0  0  0  0  3  0  0  0  0  0  0
  186.4230  177.9870  144.0930 C   0  0  0  0  0  3  0  0  0  0  0  0
  187.2010  177.9170  142.9280 C   0  0  0  0  0  0  0  0  0  0  0  0
  189.5870  178.4160  137.0870 O   0  0  0  0  0  0  0  0  0  0  0  0
  188.8830  177.9860  138.0400 C   0  0  0  0  0  0  0  0  0  0  0  0
  189.4900  177.7770  139.3310 N   0  0  0  0  0  0  0  0  0  0  0  0
  186.5160  178.6290  137.6590 N   0  0  0  0  0  0  0  0  0  0  0  0
  186.9630  176.4420  137.6210 N   0  0  0  0  0  0  0  0  0  0  0  0
  187.4610  177.6830  137.7850 C   0  0  0  0  0  0  0  0  0  0  0  0
  185.3820  177.9940  137.4190 N   0  0  0  0  0  2  0  0  0  0  0  0
  185.6550  176.6750  137.3970 C   0  0  0  0  0  3  0  0  0  0  0  0
  190.9200  177.5020  139.4050 C   0  0  0  0  0  2  0  0  0  0  0  0
  191.2320  176.1800  138.7230 C   0  0  0  0  0  2  0  0  0  0  0  0
  192.2730  176.3820  137.6390 C   0  0  0  0  0  2  0  0  0  0  0  0
  193.6050  176.1400  138.1770 N   0  0  0  0  0  0  0  0  0  0  0  0
  193.6960  173.9880  137.1870 N   0  0  0  0  0  1  0  0  0  0  0  0
  194.2570  175.0390  137.9690 C   0  0  0  0  0  0  0  0  0  0  0  0
  195.5550  174.8780  138.5300 N   0  0  0  0  0  1  0  0  0  0  0  0
  1  4  2  0  0  0  0
  1 10  1  0  0  0  0
  2 10  2  0  0  0  0
  2  6  1  0  0  0  0
  3  5  1  0  0  0  0
  4 11  1  0  0  0  0
  6  9  2  0  0  0  0
  7  2  1  0  0  0  0
  8  3  2  0  0  0  0
  9 14  1  0  0  0  0
 10 15  1  0  0  0  0
 11 13  2  0  0  0  0
 11  8  1  0  0  0  0
 12  5  2  0  0  0  0
 13 12  1  0  0  0  0
 15  8  1  0  0  0  0
 15 14  2  0  0  0  0
 16 17  2  0  0  0  0
 17 18  1  0  0  0  0
 18 24  1  0  0  0  0
 18  4  1  0  0  0  0
 19 21  2  0  0  0  0
 20 21  1  0  0  0  0
 21 17  1  0  0  0  0
 22 19  1  0  0  0  0
 23 22  1  0  0  0  0
 23 20  2  0  0  0  0
 25 24  1  0  0  0  0
 26 27  1  0  0  0  0
 26 25  1  0  0  0  0
 28 29  1  0  0  0  0
 29 27  2  0  0  0  0
 29 30  1  0  0  0  0
M  END
>  <MODEL>
9

>  <REMARK>
 VINA RESULT:      -8.0      2.585      5.206
  Name = 
  6 active torsions:
  status: ('A' for Active; 'I' for Inactive)
    1  A    between atoms: C_4  and  N_13
    2  A    between atoms: N_7  and  C_16
    3  A    between atoms: C_8  and  C_12
    4  A    between atoms: N_13  and  C_27
    5  A    between atoms: C_16  and  C_30
    6  A    between atoms: C_27  and  C_30
                            x       y       z     vdW  Elec       q    Type
                         _______ _______ _______ _____ _____    ______ ____

>  <TORSDO>
F 6

$$$$
