=
 OpenBabel11052412323D

 30 32  0  0  1  0  0  0  0  0999 V2000
  187.4660  177.9930  142.4090 N   0  0  0  0  0  0  0  0  0  0  0  0
  186.3280  178.5280  140.3700 C   0  0  0  0  0  0  0  0  0  0  0  0
  184.0330  178.7000  144.6870 C   0  0  0  0  0  3  0  0  0  0  0  0
  187.5280  177.8460  143.7590 C   0  0  0  0  0  0  0  0  0  0  0  0
  184.0720  178.5280  146.0720 C   0  0  0  0  0  3  0  0  0  0  0  0
  188.7590  177.4040  144.3550 N   0  0  0  0  0  0  0  0  0  0  0  0
  185.1580  178.9230  139.7150 C   0  0  0  0  0  3  0  0  0  0  0  0
  187.7730  178.2270  139.4190 Cl  0  0  0  0  0  0  0  0  0  0  0  0
  185.1800  178.4800  143.9060 C   0  0  0  0  0  0  0  0  0  0  0  0
  183.9920  179.1730  140.4410 C   0  0  0  0  0  3  0  0  0  0  0  0
  186.3330  178.3820  141.7670 C   0  0  0  0  0  0  0  0  0  0  0  0
  186.3820  178.0820  144.5400 C   0  0  0  0  0  0  0  0  0  0  0  0
  185.2580  178.1330  146.6940 C   0  0  0  0  0  3  0  0  0  0  0  0
  186.4060  177.9100  145.9320 C   0  0  0  0  0  3  0  0  0  0  0  0
  183.9890  179.0290  141.8300 C   0  0  0  0  0  3  0  0  0  0  0  0
  185.1540  178.6350  142.5070 C   0  0  0  0  0  0  0  0  0  0  0  0
  190.4590  179.0260  143.5880 C   0  0  0  0  0  1  0  0  0  0  0  0
  189.7840  178.3600  144.7770 C   0  0  2  0  0  3  0  0  0  0  0  0
  191.9930  177.6570  145.3870 O   0  0  0  0  0  0  0  0  0  0  0  0
  190.7740  177.7320  145.7100 C   0  0  0  0  0  0  0  0  0  0  0  0
  190.3100  177.1790  146.9430 N   0  0  0  0  0  0  0  0  0  0  0  0
  188.7980  178.4470  148.4950 O   0  0  0  0  0  0  0  0  0  0  0  0
  189.5430  177.8220  147.7300 C   0  0  0  0  0  0  0  0  0  0  0  0
  189.1680  176.0150  144.1920 C   0  0  0  0  0  2  0  0  0  0  0  0
  189.2060  175.6320  142.7210 C   0  0  0  0  0  2  0  0  0  0  0  0
  190.4690  176.0480  142.1370 N   0  0  0  0  0  2  0  0  0  0  0  0
  190.2250  176.3010  140.7820 N   0  0  0  0  0  2  0  0  0  0  0  0
  192.4420  177.5190  140.5700 C   0  0  0  0  0  1  0  0  0  0  0  0
  191.1730  177.0060  139.9810 C   0  0  0  0  0  0  0  0  0  0  0  0
  190.9310  177.2050  138.7620 O   0  0  0  0  0  0  0  0  0  0  0  0
  1  4  1  0  0  0  0
  2 11  1  0  0  0  0
  3  5  2  0  0  0  0
  4  6  1  0  0  0  0
  4 12  2  0  0  0  0
  5 13  1  0  0  0  0
  6 18  1  0  0  0  0
  7  2  2  0  0  0  0
  7 10  1  0  0  0  0
  8  2  1  0  0  0  0
  9 12  1  0  0  0  0
  9  3  1  0  0  0  0
 10 15  2  0  0  0  0
 11  1  2  0  0  0  0
 11 16  1  0  0  0  0
 12 14  1  0  0  0  0
 14 13  2  0  0  0  0
 15 16  1  0  0  0  0
 16  9  2  0  0  0  0
 18 17  1  6  0  0  0
 18 20  1  0  0  0  0
 19 20  2  0  0  0  0
 20 21  1  0  0  0  0
 21 23  2  0  0  0  0
 23 22  2  0  0  0  0
 24  6  1  0  0  0  0
 25 24  1  0  0  0  0
 26 25  1  0  0  0  0
 27 26  1  0  0  0  0
 29 28  1  0  0  0  0
 29 27  1  0  0  0  0
 30 29  2  0  0  0  0
M  END
>  <MODEL>
1

>  <REMARK>
 VINA RESULT:      -7.6      0.000      0.000
  Name = 
  7 active torsions:
  status: ('A' for Active; 'I' for Inactive)
    1  A    between atoms: N_5  and  C_12
    2  A    between atoms: N_7  and  N_16
    3  A    between atoms: C_8  and  C_12
    4  A    between atoms: C_8  and  N_13
    5  A    between atoms: N_13  and  C_27
    6  A    between atoms: N_16  and  C_30
    7  A    between atoms: C_27  and  C_30
                            x       y       z     vdW  Elec       q    Type
                         _______ _______ _______ _____ _____    ______ ____

>  <TORSDO>
F 7

$$$$
=
 OpenBabel11052412323D

 30 32  0  0  1  0  0  0  0  0999 V2000
  183.6390  178.7800  141.2310 N   0  0  0  0  0  0  0  0  0  0  0  0
  185.3650  178.7980  142.8930 C   0  0  0  0  0  0  0  0  0  0  0  0
  180.6340  178.8170  144.1360 C   0  0  0  0  0  3  0  0  0  0  0  0
  182.3390  178.7620  140.8350 C   0  0  0  0  0  0  0  0  0  0  0  0
  179.2930  178.8250  143.7460 C   0  0  0  0  0  3  0  0  0  0  0  0
  182.0390  178.7800  139.4300 N   0  0  0  0  0  0  0  0  0  0  0  0
  185.7350  178.8130  144.2400 C   0  0  0  0  0  3  0  0  0  0  0  0
  186.6230  178.7840  141.6670 Cl  0  0  0  0  0  0  0  0  0  0  0  0
  181.6580  178.7910  143.1740 C   0  0  0  0  0  0  0  0  0  0  0  0
  184.7600  178.8210  145.2400 C   0  0  0  0  0  3  0  0  0  0  0  0
  184.0050  178.7900  142.5400 C   0  0  0  0  0  0  0  0  0  0  0  0
  181.3150  178.7710  141.8010 C   0  0  0  0  0  0  0  0  0  0  0  0
  178.9590  178.8090  142.3910 C   0  0  0  0  0  3  0  0  0  0  0  0
  179.9640  178.7840  141.4240 C   0  0  0  0  0  3  0  0  0  0  0  0
  183.4070  178.8140  144.8980 C   0  0  0  0  0  3  0  0  0  0  0  0
  183.0140  178.7970  143.5490 C   0  0  0  0  0  0  0  0  0  0  0  0
  181.9760  176.3130  139.5610 C   0  0  0  0  0  1  0  0  0  0  0  0
  181.9110  177.5390  138.6650 C   0  0  2  0  0  3  0  0  0  0  0  0
  182.5450  177.7120  136.3590 O   0  0  0  0  0  0  0  0  0  0  0  0
  182.9060  177.4750  137.5460 C   0  0  0  0  0  0  0  0  0  0  0  0
  184.2520  177.0950  137.8380 N   0  0  0  0  0  0  0  0  0  0  0  0
  186.0590  178.7840  138.2630 O   0  0  0  0  0  0  0  0  0  0  0  0
  185.1690  177.9510  138.0540 C   0  0  0  0  0  0  0  0  0  0  0  0
  182.2440  180.0110  138.6770 C   0  0  0  0  0  2  0  0  0  0  0  0
  180.9300  180.7500  138.4800 C   0  0  0  0  0  2  0  0  0  0  0  0
  181.0400  181.6560  137.3500 N   0  0  0  0  0  2  0  0  0  0  0  0
  181.5990  182.8440  137.8360 N   0  0  0  0  0  2  0  0  0  0  0  0
  180.8760  184.0860  135.7430 C   0  0  0  0  0  1  0  0  0  0  0  0
  181.5250  184.0550  137.0840 C   0  0  0  0  0  0  0  0  0  0  0  0
  182.0250  185.1100  137.5540 O   0  0  0  0  0  0  0  0  0  0  0  0
  1 11  1  0  0  0  0
  2  7  1  0  0  0  0
  4  1  2  0  0  0  0
  4 12  1  0  0  0  0
  5  3  1  0  0  0  0
  6  4  1  0  0  0  0
  7 10  2  0  0  0  0
  8  2  1  0  0  0  0
  9 16  1  0  0  0  0
  9  3  2  0  0  0  0
 11  2  2  0  0  0  0
 11 16  1  0  0  0  0
 12  9  1  0  0  0  0
 13  5  2  0  0  0  0
 14 12  2  0  0  0  0
 14 13  1  0  0  0  0
 15 10  1  0  0  0  0
 16 15  2  0  0  0  0
 18  6  1  0  0  0  0
 18 17  1  1  0  0  0
 19 20  2  0  0  0  0
 20 21  1  0  0  0  0
 20 18  1  0  0  0  0
 21 23  2  0  0  0  0
 23 22  2  0  0  0  0
 24  6  1  0  0  0  0
 25 24  1  0  0  0  0
 26 27  1  0  0  0  0
 26 25  1  0  0  0  0
 28 29  1  0  0  0  0
 29 30  2  0  0  0  0
 29 27  1  0  0  0  0
M  END
>  <MODEL>
2

>  <REMARK>
 VINA RESULT:      -7.6      5.026      8.608
  Name = 
  7 active torsions:
  status: ('A' for Active; 'I' for Inactive)
    1  A    between atoms: N_5  and  C_12
    2  A    between atoms: N_7  and  N_16
    3  A    between atoms: C_8  and  C_12
    4  A    between atoms: C_8  and  N_13
    5  A    between atoms: N_13  and  C_27
    6  A    between atoms: N_16  and  C_30
    7  A    between atoms: C_27  and  C_30
                            x       y       z     vdW  Elec       q    Type
                         _______ _______ _______ _____ _____    ______ ____

>  <TORSDO>
F 7

$$$$
=
 OpenBabel11052412323D

 30 32  0  0  1  0  0  0  0  0999 V2000
  187.9640  177.7800  144.4300 N   0  0  0  0  0  0  0  0  0  0  0  0
  186.9360  177.7340  146.5940 C   0  0  0  0  0  0  0  0  0  0  0  0
  184.3900  178.9250  142.5890 C   0  0  0  0  0  3  0  0  0  0  0  0
  187.9440  177.9570  143.0820 C   0  0  0  0  0  0  0  0  0  0  0  0
  184.3580  179.1370  141.2100 C   0  0  0  0  0  3  0  0  0  0  0  0
  189.1630  177.7940  142.3400 N   0  0  0  0  0  0  0  0  0  0  0  0
  185.7980  177.9070  147.3870 C   0  0  0  0  0  3  0  0  0  0  0  0
  188.4410  177.2550  147.3610 Cl  0  0  0  0  0  0  0  0  0  0  0  0
  185.5790  178.5270  143.2240 C   0  0  0  0  0  0  0  0  0  0  0  0
  184.5850  178.2840  146.8080 C   0  0  0  0  0  3  0  0  0  0  0  0
  186.8600  177.9410  145.2060 C   0  0  0  0  0  0  0  0  0  0  0  0
  186.7480  178.3410  142.4470 C   0  0  0  0  0  0  0  0  0  0  0  0
  185.5130  178.9560  140.4470 C   0  0  0  0  0  3  0  0  0  0  0  0
  186.7020  178.5610  141.0630 C   0  0  0  0  0  3  0  0  0  0  0  0
  184.5020  178.4920  145.4310 C   0  0  0  0  0  3  0  0  0  0  0  0
  185.6330  178.3230  144.6150 C   0  0  0  0  0  0  0  0  0  0  0  0
  190.2240  175.6200  142.8460 C   0  0  0  0  0  1  0  0  0  0  0  0
  189.5530  176.4920  141.7970 C   0  0  2  0  0  3  0  0  0  0  0  0
  191.6500  176.6340  140.6450 O   0  0  0  0  0  0  0  0  0  0  0  0
  190.3900  176.6350  140.5630 C   0  0  0  0  0  0  0  0  0  0  0  0
  189.7410  176.8220  139.3030 N   0  0  0  0  0  0  0  0  0  0  0  0
  189.0930  179.0940  138.4540 O   0  0  0  0  0  0  0  0  0  0  0  0
  189.4120  177.9740  138.8720 C   0  0  0  0  0  0  0  0  0  0  0  0
  190.2030  178.8090  142.4510 C   0  0  0  0  0  2  0  0  0  0  0  0
  190.6090  179.0110  143.9020 C   0  0  0  0  0  2  0  0  0  0  0  0
  191.5410  177.9720  144.3020 N   0  0  0  0  0  2  0  0  0  0  0  0
  191.5540  177.9550  145.7020 N   0  0  0  0  0  2  0  0  0  0  0  0
  192.0450  175.4650  145.7060 C   0  0  0  0  0  1  0  0  0  0  0  0
  191.8110  176.7510  146.4230 C   0  0  0  0  0  0  0  0  0  0  0  0
  191.8290  176.7710  147.6810 O   0  0  0  0  0  0  0  0  0  0  0  0
  1 11  1  0  0  0  0
  2  8  1  0  0  0  0
  2  7  1  0  0  0  0
  3  9  1  0  0  0  0
  4  1  2  0  0  0  0
  5  3  2  0  0  0  0
  6 24  1  0  0  0  0
  6  4  1  0  0  0  0
  9 16  1  0  0  0  0
 10  7  2  0  0  0  0
 11  2  2  0  0  0  0
 12  4  1  0  0  0  0
 12  9  2  0  0  0  0
 13 14  2  0  0  0  0
 13  5  1  0  0  0  0
 14 12  1  0  0  0  0
 15 10  1  0  0  0  0
 16 11  1  0  0  0  0
 16 15  2  0  0  0  0
 18  6  1  0  0  0  0
 18 17  1  1  0  0  0
 20 19  2  0  0  0  0
 20 18  1  0  0  0  0
 21 20  1  0  0  0  0
 22 23  2  0  0  0  0
 23 21  2  0  0  0  0
 24 25  1  0  0  0  0
 25 26  1  0  0  0  0
 26 27  1  0  0  0  0
 27 29  1  0  0  0  0
 28 29  1  0  0  0  0
 29 30  2  0  0  0  0
M  END
>  <MODEL>
3

>  <REMARK>
 VINA RESULT:      -7.5      2.110      5.407
  Name = 
  7 active torsions:
  status: ('A' for Active; 'I' for Inactive)
    1  A    between atoms: N_5  and  C_12
    2  A    between atoms: N_7  and  N_16
    3  A    between atoms: C_8  and  C_12
    4  A    between atoms: C_8  and  N_13
    5  A    between atoms: N_13  and  C_27
    6  A    between atoms: N_16  and  C_30
    7  A    between atoms: C_27  and  C_30
                            x       y       z     vdW  Elec       q    Type
                         _______ _______ _______ _____ _____    ______ ____

>  <TORSDO>
F 7

$$$$
=
 OpenBabel11052412323D

 30 32  0  0  1  0  0  0  0  0999 V2000
  187.0080  177.6960  143.4730 N   0  0  0  0  0  0  0  0  0  0  0  0
  184.6980  178.2380  143.1400 C   0  0  0  0  0  0  0  0  0  0  0  0
  186.7660  178.5180  147.5640 C   0  0  0  0  0  3  0  0  0  0  0  0
  188.1220  177.5610  144.2400 C   0  0  0  0  0  0  0  0  0  0  0  0
  187.8950  178.3600  148.3710 C   0  0  0  0  0  3  0  0  0  0  0  0
  189.3360  177.0930  143.6280 N   0  0  0  0  0  0  0  0  0  0  0  0
  183.4740  178.6570  143.6680 C   0  0  0  0  0  3  0  0  0  0  0  0
  184.8060  177.8890  141.4220 Cl  0  0  0  0  0  0  0  0  0  0  0  0
  186.8320  178.2590  146.1850 C   0  0  0  0  0  0  0  0  0  0  0  0
  183.3550  178.9460  145.0290 C   0  0  0  0  0  3  0  0  0  0  0  0
  185.8160  178.1070  143.9800 C   0  0  0  0  0  0  0  0  0  0  0  0
  188.0580  177.8370  145.6180 C   0  0  0  0  0  0  0  0  0  0  0  0
  189.1020  177.9400  147.8100 C   0  0  0  0  0  3  0  0  0  0  0  0
  189.1830  177.6790  146.4410 C   0  0  0  0  0  3  0  0  0  0  0  0
  184.4610  178.8170  145.8710 C   0  0  0  0  0  3  0  0  0  0  0  0
  185.7000  178.3990  145.3600 C   0  0  0  0  0  0  0  0  0  0  0  0
  190.3420  179.3450  143.7920 C   0  0  0  0  0  1  0  0  0  0  0  0
  190.2960  178.0260  143.0370 C   0  0  2  0  0  3  0  0  0  0  0  0
  188.9730  178.7550  141.1760 O   0  0  0  0  0  0  0  0  0  0  0  0
  190.0470  178.2210  141.5720 C   0  0  0  0  0  0  0  0  0  0  0  0
  191.0180  177.7510  140.6350 N   0  0  0  0  0  0  0  0  0  0  0  0
  190.5470  175.8630  139.0510 O   0  0  0  0  0  0  0  0  0  0  0  0
  190.7790  176.7940  139.8310 C   0  0  0  0  0  0  0  0  0  0  0  0
  189.4410  175.6920  143.2420 C   0  0  0  0  0  2  0  0  0  0  0  0
  190.8960  175.2880  143.0630 C   0  0  0  0  0  2  0  0  0  0  0  0
  191.4280  174.7960  144.3210 N   0  0  0  0  0  2  0  0  0  0  0  0
  191.9180  175.9080  145.0170 N   0  0  0  0  0  2  0  0  0  0  0  0
  191.4060  174.7920  147.2390 C   0  0  0  0  0  1  0  0  0  0  0  0
  191.9350  175.9360  146.4440 C   0  0  0  0  0  0  0  0  0  0  0  0
  192.3950  176.9440  147.0400 O   0  0  0  0  0  0  0  0  0  0  0  0
  1 11  2  0  0  0  0
  1  4  1  0  0  0  0
  2  7  2  0  0  0  0
  2 11  1  0  0  0  0
  3  5  2  0  0  0  0
  4 12  2  0  0  0  0
  6  4  1  0  0  0  0
  7 10  1  0  0  0  0
  8  2  1  0  0  0  0
  9  3  1  0  0  0  0
 10 15  2  0  0  0  0
 11 16  1  0  0  0  0
 12  9  1  0  0  0  0
 12 14  1  0  0  0  0
 13  5  1  0  0  0  0
 14 13  2  0  0  0  0
 16 15  1  0  0  0  0
 16  9  2  0  0  0  0
 18  6  1  0  0  0  0
 18 17  1  1  0  0  0
 19 20  2  0  0  0  0
 20 18  1  0  0  0  0
 21 20  1  0  0  0  0
 22 23  2  0  0  0  0
 23 21  2  0  0  0  0
 24  6  1  0  0  0  0
 25 24  1  0  0  0  0
 25 26  1  0  0  0  0
 26 27  1  0  0  0  0
 27 29  1  0  0  0  0
 29 30  2  0  0  0  0
 29 28  1  0  0  0  0
M  END
>  <MODEL>
4

>  <REMARK>
 VINA RESULT:      -7.5      1.907      4.554
  Name = 
  7 active torsions:
  status: ('A' for Active; 'I' for Inactive)
    1  A    between atoms: N_5  and  C_12
    2  A    between atoms: N_7  and  N_16
    3  A    between atoms: C_8  and  C_12
    4  A    between atoms: C_8  and  N_13
    5  A    between atoms: N_13  and  C_27
    6  A    between atoms: N_16  and  C_30
    7  A    between atoms: C_27  and  C_30
                            x       y       z     vdW  Elec       q    Type
                         _______ _______ _______ _____ _____    ______ ____

>  <TORSDO>
F 7

$$$$
=
 OpenBabel11052412323D

 30 32  0  0  1  0  0  0  0  0999 V2000
  184.2810  178.0000  141.6840 N   0  0  0  0  0  0  0  0  0  0  0  0
  185.7050  178.1260  143.6060 C   0  0  0  0  0  0  0  0  0  0  0  0
  180.9680  179.3190  143.8640 C   0  0  0  0  0  3  0  0  0  0  0  0
  183.0820  178.1180  141.0540 C   0  0  0  0  0  0  0  0  0  0  0  0
  179.7350  179.4710  143.2260 C   0  0  0  0  0  3  0  0  0  0  0  0
  183.0030  177.8330  139.6480 N   0  0  0  0  0  0  0  0  0  0  0  0
  185.8670  178.4160  144.9640 C   0  0  0  0  0  3  0  0  0  0  0  0
  187.0940  177.5730  142.6840 Cl  0  0  0  0  0  0  0  0  0  0  0  0
  182.0900  178.8640  143.1500 C   0  0  0  0  0  0  0  0  0  0  0  0
  184.7840  178.8540  145.7270 C   0  0  0  0  0  3  0  0  0  0  0  0
  184.4440  178.2750  143.0040 C   0  0  0  0  0  0  0  0  0  0  0  0
  181.9570  178.5580  141.7740 C   0  0  0  0  0  0  0  0  0  0  0  0
  179.6080  179.1720  141.8690 C   0  0  0  0  0  3  0  0  0  0  0  0
  180.7130  178.7190  141.1460 C   0  0  0  0  0  3  0  0  0  0  0  0
  183.5280  179.0060  145.1360 C   0  0  0  0  0  3  0  0  0  0  0  0
  183.3430  178.7190  143.7730 C   0  0  0  0  0  0  0  0  0  0  0  0
  183.5630  176.1240  137.9520 C   0  0  0  0  0  1  0  0  0  0  0  0
  182.7150  176.4830  139.1620 C   0  0  2  0  0  3  0  0  0  0  0  0
  180.6220  177.1050  138.1720 O   0  0  0  0  0  0  0  0  0  0  0  0
  181.2520  176.2900  138.9030 C   0  0  0  0  0  0  0  0  0  0  0  0
  180.5740  175.2000  139.5330 N   0  0  0  0  0  0  0  0  0  0  0  0
  178.9310  175.5440  141.3990 O   0  0  0  0  0  0  0  0  0  0  0  0
  179.7410  175.3750  140.4790 C   0  0  0  0  0  0  0  0  0  0  0  0
  183.5860  178.7730  138.6990 C   0  0  0  0  0  2  0  0  0  0  0  0
  184.9180  179.3010  139.2090 C   0  0  0  0  0  2  0  0  0  0  0  0
  186.0080  178.5960  138.5570 N   0  0  0  0  0  2  0  0  0  0  0  0
  187.0990  178.6370  139.4340 N   0  0  0  0  0  2  0  0  0  0  0  0
  188.3750  176.9880  137.9850 C   0  0  0  0  0  1  0  0  0  0  0  0
  188.2790  177.8760  139.1790 C   0  0  0  0  0  0  0  0  0  0  0  0
  189.2480  177.9450  139.9780 O   0  0  0  0  0  0  0  0  0  0  0  0
  1 11  1  0  0  0  0
  2  7  1  0  0  0  0
  4  1  2  0  0  0  0
  4 12  1  0  0  0  0
  5  3  1  0  0  0  0
  6  4  1  0  0  0  0
  7 10  2  0  0  0  0
  8  2  1  0  0  0  0
  9 16  1  0  0  0  0
  9  3  2  0  0  0  0
 11  2  2  0  0  0  0
 11 16  1  0  0  0  0
 12  9  1  0  0  0  0
 13  5  2  0  0  0  0
 14 12  2  0  0  0  0
 14 13  1  0  0  0  0
 15 10  1  0  0  0  0
 16 15  2  0  0  0  0
 18 17  1  6  0  0  0
 18  6  1  0  0  0  0
 19 20  2  0  0  0  0
 20 18  1  0  0  0  0
 20 21  1  0  0  0  0
 21 23  2  0  0  0  0
 23 22  2  0  0  0  0
 24 25  1  0  0  0  0
 24  6  1  0  0  0  0
 26 25  1  0  0  0  0
 26 27  1  0  0  0  0
 28 29  1  0  0  0  0
 29 27  1  0  0  0  0
 29 30  2  0  0  0  0
M  END
>  <MODEL>
5

>  <REMARK>
 VINA RESULT:      -7.2      4.393      7.182
  Name = 
  7 active torsions:
  status: ('A' for Active; 'I' for Inactive)
    1  A    between atoms: N_5  and  C_12
    2  A    between atoms: N_7  and  N_16
    3  A    between atoms: C_8  and  C_12
    4  A    between atoms: C_8  and  N_13
    5  A    between atoms: N_13  and  C_27
    6  A    between atoms: N_16  and  C_30
    7  A    between atoms: C_27  and  C_30
                            x       y       z     vdW  Elec       q    Type
                         _______ _______ _______ _____ _____    ______ ____

>  <TORSDO>
F 7

$$$$
=
 OpenBabel11052412323D

 30 32  0  0  1  0  0  0  0  0999 V2000
  185.5890  178.6200  139.9720 N   0  0  0  0  0  0  0  0  0  0  0  0
  187.9420  178.2540  140.2290 C   0  0  0  0  0  0  0  0  0  0  0  0
  184.9840  178.6210  144.1080 C   0  0  0  0  0  3  0  0  0  0  0  0
  184.3290  178.7880  140.4540 C   0  0  0  0  0  0  0  0  0  0  0  0
  183.7010  178.8180  144.6210 C   0  0  0  0  0  3  0  0  0  0  0  0
  183.2520  179.0100  139.5280 N   0  0  0  0  0  0  0  0  0  0  0  0
  189.0440  178.0650  141.0680 C   0  0  0  0  0  3  0  0  0  0  0  0
  188.1890  178.2570  138.4900 Cl  0  0  0  0  0  0  0  0  0  0  0  0
  185.2050  178.6050  142.7200 C   0  0  0  0  0  0  0  0  0  0  0  0
  188.8820  178.0540  142.4540 C   0  0  0  0  0  3  0  0  0  0  0  0
  186.6630  178.4320  140.7820 C   0  0  0  0  0  0  0  0  0  0  0  0
  184.1080  178.7890  141.8440 C   0  0  0  0  0  0  0  0  0  0  0  0
  182.6220  179.0030  143.7540 C   0  0  0  0  0  3  0  0  0  0  0  0
  182.8250  178.9890  142.3740 C   0  0  0  0  0  3  0  0  0  0  0  0
  187.6150  178.2320  143.0120 C   0  0  0  0  0  3  0  0  0  0  0  0
  186.4940  178.4210  142.1870 C   0  0  0  0  0  0  0  0  0  0  0  0
  182.5670  176.6560  139.8450 C   0  0  0  0  0  1  0  0  0  0  0  0
  182.4960  177.8920  138.9620 C   0  0  2  0  0  3  0  0  0  0  0  0
  182.2390  178.0610  136.5850 O   0  0  0  0  0  0  0  0  0  0  0  0
  182.9100  177.6030  137.5520 C   0  0  0  0  0  0  0  0  0  0  0  0
  184.0440  176.7630  137.3210 N   0  0  0  0  0  0  0  0  0  0  0  0
  186.0080  177.5110  135.9510 O   0  0  0  0  0  0  0  0  0  0  0  0
  185.0400  177.1420  136.6260 C   0  0  0  0  0  0  0  0  0  0  0  0
  183.1550  180.2940  138.8470 C   0  0  0  0  0  2  0  0  0  0  0  0
  181.7420  180.8490  138.9360 C   0  0  0  0  0  2  0  0  0  0  0  0
  181.3830  181.4830  137.6800 N   0  0  0  0  0  2  0  0  0  0  0  0
  181.2330  182.8500  137.9450 N   0  0  0  0  0  2  0  0  0  0  0  0
  180.8050  183.3190  135.4870 C   0  0  0  0  0  1  0  0  0  0  0  0
  180.9370  183.7750  136.8990 C   0  0  0  0  0  0  0  0  0  0  0  0
  180.7940  184.9960  137.1710 O   0  0  0  0  0  0  0  0  0  0  0  0
  1  4  2  0  0  0  0
  1 11  1  0  0  0  0
  2 11  2  0  0  0  0
  2  7  1  0  0  0  0
  3  5  1  0  0  0  0
  4 12  1  0  0  0  0
  6  4  1  0  0  0  0
  7 10  2  0  0  0  0
  8  2  1  0  0  0  0
  9  3  2  0  0  0  0
 10 15  1  0  0  0  0
 11 16  1  0  0  0  0
 12 14  2  0  0  0  0
 12  9  1  0  0  0  0
 13  5  2  0  0  0  0
 14 13  1  0  0  0  0
 16  9  1  0  0  0  0
 16 15  2  0  0  0  0
 18  6  1  0  0  0  0
 18 17  1  1  0  0  0
 19 20  2  0  0  0  0
 20 18  1  0  0  0  0
 21 20  1  0  0  0  0
 22 23  2  0  0  0  0
 23 21  2  0  0  0  0
 24 25  1  0  0  0  0
 24  6  1  0  0  0  0
 26 27  1  0  0  0  0
 26 25  1  0  0  0  0
 28 29  1  0  0  0  0
 29 30  2  0  0  0  0
 29 27  1  0  0  0  0
M  END
>  <MODEL>
6

>  <REMARK>
 VINA RESULT:      -7.1      4.755      8.357
  Name = 
  7 active torsions:
  status: ('A' for Active; 'I' for Inactive)
    1  A    between atoms: N_5  and  C_12
    2  A    between atoms: N_7  and  N_16
    3  A    between atoms: C_8  and  C_12
    4  A    between atoms: C_8  and  N_13
    5  A    between atoms: N_13  and  C_27
    6  A    between atoms: N_16  and  C_30
    7  A    between atoms: C_27  and  C_30
                            x       y       z     vdW  Elec       q    Type
                         _______ _______ _______ _____ _____    ______ ____

>  <TORSDO>
F 7

$$$$
=
 OpenBabel11052412323D

 30 32  0  0  1  0  0  0  0  0999 V2000
  183.6220  178.6650  141.3820 N   0  0  0  0  0  0  0  0  0  0  0  0
  185.3260  178.6840  143.0660 C   0  0  0  0  0  0  0  0  0  0  0  0
  180.5820  178.9180  144.2410 C   0  0  0  0  0  3  0  0  0  0  0  0
  182.3270  178.6780  140.9690 C   0  0  0  0  0  0  0  0  0  0  0  0
  179.2480  178.9590  143.8320 C   0  0  0  0  0  3  0  0  0  0  0  0
  182.0450  178.6550  139.5590 N   0  0  0  0  0  0  0  0  0  0  0  0
  185.6790  178.7370  144.4170 C   0  0  0  0  0  3  0  0  0  0  0  0
  186.5980  178.5800  141.8600 Cl  0  0  0  0  0  0  0  0  0  0  0  0
  181.6170  178.8200  143.2950 C   0  0  0  0  0  0  0  0  0  0  0  0
  184.6920  178.8170  145.4020 C   0  0  0  0  0  3  0  0  0  0  0  0
  183.9710  178.7110  142.6940 C   0  0  0  0  0  0  0  0  0  0  0  0
  181.2920  178.7600  141.9190 C   0  0  0  0  0  0  0  0  0  0  0  0
  178.9310  178.9040  142.4740 C   0  0  0  0  0  3  0  0  0  0  0  0
  179.9470  178.8060  141.5220 C   0  0  0  0  0  3  0  0  0  0  0  0
  183.3440  178.8450  145.0410 C   0  0  0  0  0  3  0  0  0  0  0  0
  182.9680  178.7910  143.6890 C   0  0  0  0  0  0  0  0  0  0  0  0
  182.9770  177.1860  137.8040 C   0  0  0  0  0  1  0  0  0  0  0  0
  181.8820  177.3910  138.8390 C   0  0  2  0  0  3  0  0  0  0  0  0
  180.2290  177.8650  137.1690 O   0  0  0  0  0  0  0  0  0  0  0  0
  180.5130  177.2670  138.2450 C   0  0  0  0  0  0  0  0  0  0  0  0
  179.5230  176.5040  138.9390 N   0  0  0  0  0  0  0  0  0  0  0  0
  180.1250  174.6310  140.4980 O   0  0  0  0  0  0  0  0  0  0  0  0
  179.8280  175.5540  139.7300 C   0  0  0  0  0  0  0  0  0  0  0  0
  182.3040  179.8480  138.7640 C   0  0  0  0  0  2  0  0  0  0  0  0
  181.1350  180.8170  138.8450 C   0  0  0  0  0  2  0  0  0  0  0  0
  181.4660  182.0460  138.1470 N   0  0  0  0  0  2  0  0  0  0  0  0
  180.2680  182.7540  137.9830 N   0  0  0  0  0  2  0  0  0  0  0  0
  181.5420  184.8030  137.1950 C   0  0  0  0  0  1  0  0  0  0  0  0
  180.2660  184.0990  137.5060 C   0  0  0  0  0  0  0  0  0  0  0  0
  179.1730  184.7030  137.3550 O   0  0  0  0  0  0  0  0  0  0  0  0
  1 11  1  0  0  0  0
  2  7  1  0  0  0  0
  4  1  2  0  0  0  0
  4 12  1  0  0  0  0
  5  3  1  0  0  0  0
  6  4  1  0  0  0  0
  7 10  2  0  0  0  0
  8  2  1  0  0  0  0
  9 16  1  0  0  0  0
  9  3  2  0  0  0  0
 11  2  2  0  0  0  0
 11 16  1  0  0  0  0
 12  9  1  0  0  0  0
 13  5  2  0  0  0  0
 14 12  2  0  0  0  0
 14 13  1  0  0  0  0
 15 10  1  0  0  0  0
 16 15  2  0  0  0  0
 18 17  1  6  0  0  0
 18  6  1  0  0  0  0
 19 20  2  0  0  0  0
 20 18  1  0  0  0  0
 20 21  1  0  0  0  0
 21 23  2  0  0  0  0
 23 22  2  0  0  0  0
 24 25  1  0  0  0  0
 24  6  1  0  0  0  0
 26 25  1  0  0  0  0
 27 26  1  0  0  0  0
 28 29  1  0  0  0  0
 29 27  1  0  0  0  0
 30 29  2  0  0  0  0
M  END
>  <MODEL>
7

>  <REMARK>
 VINA RESULT:      -6.9      5.871      9.143
  Name = 
  7 active torsions:
  status: ('A' for Active; 'I' for Inactive)
    1  A    between atoms: N_5  and  C_12
    2  A    between atoms: N_7  and  N_16
    3  A    between atoms: C_8  and  C_12
    4  A    between atoms: C_8  and  N_13
    5  A    between atoms: N_13  and  C_27
    6  A    between atoms: N_16  and  C_30
    7  A    between atoms: C_27  and  C_30
                            x       y       z     vdW  Elec       q    Type
                         _______ _______ _______ _____ _____    ______ ____

>  <TORSDO>
F 7

$$$$
=
 OpenBabel11052412323D

 30 32  0  0  1  0  0  0  0  0999 V2000
  188.6660  177.3350  140.1510 N   0  0  0  0  0  0  0  0  0  0  0  0
  188.5390  177.8230  142.4930 C   0  0  0  0  0  0  0  0  0  0  0  0
  192.8400  177.1380  140.2650 C   0  0  0  0  0  3  0  0  0  0  0  0
  189.3460  177.0770  139.0020 C   0  0  0  0  0  0  0  0  0  0  0  0
  193.5520  176.8480  139.0990 C   0  0  0  0  0  3  0  0  0  0  0  0
  188.6050  176.8320  137.7950 N   0  0  0  0  0  0  0  0  0  0  0  0
  189.1880  178.0400  143.7120 C   0  0  0  0  0  3  0  0  0  0  0  0
  186.7850  177.9020  142.4390 Cl  0  0  0  0  0  0  0  0  0  0  0  0
  191.4370  177.2210  140.2430 C   0  0  0  0  0  0  0  0  0  0  0  0
  190.5810  177.9870  143.7890 C   0  0  0  0  0  3  0  0  0  0  0  0
  189.2910  177.5510  141.3380 C   0  0  0  0  0  0  0  0  0  0  0  0
  190.7510  177.0100  139.0230 C   0  0  0  0  0  0  0  0  0  0  0  0
  192.8720  176.6370  137.8990 C   0  0  0  0  0  3  0  0  0  0  0  0
  191.4800  176.7170  137.8610 C   0  0  0  0  0  3  0  0  0  0  0  0
  191.3350  177.7170  142.6470 C   0  0  0  0  0  3  0  0  0  0  0  0
  190.7030  177.4970  141.4120 C   0  0  0  0  0  0  0  0  0  0  0  0
  188.9730  179.2110  137.2340 C   0  0  0  0  0  1  0  0  0  0  0  0
  188.2300  177.9270  136.9000 C   0  0  2  0  0  3  0  0  0  0  0  0
  186.0910  177.8450  135.8210 O   0  0  0  0  0  0  0  0  0  0  0  0
  186.7450  178.1270  136.8630 C   0  0  0  0  0  0  0  0  0  0  0  0
  186.0940  178.6860  138.0060 N   0  0  0  0  0  0  0  0  0  0  0  0
  183.9350  177.7680  138.9000 O   0  0  0  0  0  0  0  0  0  0  0  0
  184.9990  178.2200  138.4600 C   0  0  0  0  0  0  0  0  0  0  0  0
  187.8890  175.5720  137.6450 C   0  0  0  0  0  2  0  0  0  0  0  0
  188.4180  174.7870  136.4550 C   0  0  0  0  0  2  0  0  0  0  0  0
  188.8810  173.4830  136.8940 N   0  0  0  0  0  2  0  0  0  0  0  0
  190.2260  173.6300  137.2550 N   0  0  0  0  0  2  0  0  0  0  0  0
  190.9710  172.6870  135.0200 C   0  0  0  0  0  1  0  0  0  0  0  0
  191.2750  173.2650  136.3590 C   0  0  0  0  0  0  0  0  0  0  0  0
  192.4730  173.4230  136.7080 O   0  0  0  0  0  0  0  0  0  0  0  0
  1 11  1  0  0  0  0
  2  7  1  0  0  0  0
  4 12  1  0  0  0  0
  4  1  2  0  0  0  0
  5  3  2  0  0  0  0
  6  4  1  0  0  0  0
  7 10  2  0  0  0  0
  8  2  1  0  0  0  0
  9  3  1  0  0  0  0
  9 16  1  0  0  0  0
 11 16  1  0  0  0  0
 11  2  2  0  0  0  0
 12  9  2  0  0  0  0
 13  5  1  0  0  0  0
 14 13  2  0  0  0  0
 14 12  1  0  0  0  0
 15 10  1  0  0  0  0
 16 15  2  0  0  0  0
 18 17  1  1  0  0  0
 18  6  1  0  0  0  0
 19 20  2  0  0  0  0
 20 18  1  0  0  0  0
 20 21  1  0  0  0  0
 21 23  2  0  0  0  0
 23 22  2  0  0  0  0
 24  6  1  0  0  0  0
 25 26  1  0  0  0  0
 25 24  1  0  0  0  0
 26 27  1  0  0  0  0
 28 29  1  0  0  0  0
 29 30  2  0  0  0  0
 29 27  1  0  0  0  0
M  END
>  <MODEL>
8

>  <REMARK>
 VINA RESULT:      -6.8      4.180      7.655
  Name = 
  7 active torsions:
  status: ('A' for Active; 'I' for Inactive)
    1  A    between atoms: N_5  and  C_12
    2  A    between atoms: N_7  and  N_16
    3  A    between atoms: C_8  and  C_12
    4  A    between atoms: C_8  and  N_13
    5  A    between atoms: N_13  and  C_27
    6  A    between atoms: N_16  and  C_30
    7  A    between atoms: C_27  and  C_30
                            x       y       z     vdW  Elec       q    Type
                         _______ _______ _______ _____ _____    ______ ____

>  <TORSDO>
F 7

$$$$
=
 OpenBabel11052412323D

 30 32  0  0  1  0  0  0  0  0999 V2000
  188.2690  177.7970  145.0260 N   0  0  0  0  0  0  0  0  0  0  0  0
  186.5550  178.1340  146.6660 C   0  0  0  0  0  0  0  0  0  0  0  0
  185.6270  178.5810  141.8840 C   0  0  0  0  0  3  0  0  0  0  0  0
  188.7270  177.7320  143.7480 C   0  0  0  0  0  0  0  0  0  0  0  0
  186.0870  178.5440  140.5660 C   0  0  0  0  0  3  0  0  0  0  0  0
  190.1170  177.4430  143.5200 N   0  0  0  0  0  0  0  0  0  0  0  0
  185.2260  178.4400  146.9680 C   0  0  0  0  0  3  0  0  0  0  0  0
  187.6710  177.8050  147.9820 Cl  0  0  0  0  0  0  0  0  0  0  0  0
  186.4980  178.3080  142.9520 C   0  0  0  0  0  0  0  0  0  0  0  0
  184.3120  178.7030  145.9460 C   0  0  0  0  0  3  0  0  0  0  0  0
  186.9770  178.0890  145.3260 C   0  0  0  0  0  0  0  0  0  0  0  0
  187.8500  177.9900  142.6790 C   0  0  0  0  0  0  0  0  0  0  0  0
  187.4220  178.2340  140.3000 C   0  0  0  0  0  3  0  0  0  0  0  0
  188.2990  177.9600  141.3500 C   0  0  0  0  0  3  0  0  0  0  0  0
  184.7230  178.6620  144.6130 C   0  0  0  0  0  3  0  0  0  0  0  0
  186.0540  178.3550  144.2870 C   0  0  0  0  0  0  0  0  0  0  0  0
  189.4430  175.0850  143.2190 C   0  0  0  0  0  1  0  0  0  0  0  0
  190.5920  176.0670  143.3760 C   0  0  2  0  0  3  0  0  0  0  0  0
  192.3430  174.7410  144.3370 O   0  0  0  0  0  0  0  0  0  0  0  0
  191.5150  175.6820  144.4920 C   0  0  0  0  0  0  0  0  0  0  0  0
  191.4100  176.3630  145.7440 N   0  0  0  0  0  0  0  0  0  0  0  0
  192.6820  175.6280  147.7800 O   0  0  0  0  0  0  0  0  0  0  0  0
  192.0550  175.9910  146.7760 C   0  0  0  0  0  0  0  0  0  0  0  0
  191.1110  178.4660  143.8160 C   0  0  0  0  0  2  0  0  0  0  0  0
  192.1350  178.5660  142.6970 C   0  0  0  0  0  2  0  0  0  0  0  0
  191.6140  177.9380  141.4960 N   0  0  0  0  0  2  0  0  0  0  0  0
  192.7170  177.6010  140.7020 N   0  0  0  0  0  2  0  0  0  0  0  0
  191.1850  176.7530  138.8640 C   0  0  0  0  0  1  0  0  0  0  0  0
  192.5460  177.0330  139.4040 C   0  0  0  0  0  0  0  0  0  0  0  0
  193.5570  176.7540  138.7100 O   0  0  0  0  0  0  0  0  0  0  0  0
  1 11  1  0  0  0  0
  2  7  1  0  0  0  0
  2  8  1  0  0  0  0
  3  9  1  0  0  0  0
  4  1  2  0  0  0  0
  5  3  2  0  0  0  0
  6  4  1  0  0  0  0
  6 24  1  0  0  0  0
  9 16  1  0  0  0  0
 10  7  2  0  0  0  0
 11  2  2  0  0  0  0
 12  9  2  0  0  0  0
 12  4  1  0  0  0  0
 13  5  1  0  0  0  0
 13 14  2  0  0  0  0
 14 12  1  0  0  0  0
 15 10  1  0  0  0  0
 16 15  2  0  0  0  0
 16 11  1  0  0  0  0
 18 17  1  1  0  0  0
 18  6  1  0  0  0  0
 18 20  1  0  0  0  0
 19 20  2  0  0  0  0
 20 21  1  0  0  0  0
 21 23  2  0  0  0  0
 23 22  2  0  0  0  0
 25 24  1  0  0  0  0
 26 25  1  0  0  0  0
 27 26  1  0  0  0  0
 28 29  1  0  0  0  0
 29 27  1  0  0  0  0
 30 29  2  0  0  0  0
M  END
>  <MODEL>
9

>  <REMARK>
 VINA RESULT:      -6.8      2.396      4.041
  Name = 
  7 active torsions:
  status: ('A' for Active; 'I' for Inactive)
    1  A    between atoms: N_5  and  C_12
    2  A    between atoms: N_7  and  N_16
    3  A    between atoms: C_8  and  C_12
    4  A    between atoms: C_8  and  N_13
    5  A    between atoms: N_13  and  C_27
    6  A    between atoms: N_16  and  C_30
    7  A    between atoms: C_27  and  C_30
                            x       y       z     vdW  Elec       q    Type
                         _______ _______ _______ _____ _____    ______ ____

>  <TORSDO>
F 7

$$$$
