=
 OpenBabel11052416193D

 43 48  0  0  1  0  0  0  0  0999 V2000
  187.9530  177.8930  148.4200 C   0  0  0  0  0  0  0  0  0  0  0  0
  186.2000  178.4560  143.6680 C   0  0  0  0  0  0  0  0  0  0  0  0
  188.2430  177.5670  141.7390 C   0  0  0  0  0  0  0  0  0  0  0  0
  186.6110  178.4730  146.4540 C   0  0  0  0  0  0  0  0  0  0  0  0
  188.8420  177.2130  147.6970 C   0  0  0  0  0  3  0  0  0  0  0  0
  188.1300  178.0200  149.7570 F   0  0  0  0  0  0  0  0  0  0  0  0
  187.5220  177.7870  145.6170 C   0  0  0  0  0  0  0  0  0  0  0  0
  186.7940  178.5270  147.7760 C   0  0  0  0  0  3  0  0  0  0  0  0
  188.6900  177.0270  146.2110 C   0  0  0  0  0  3  0  0  0  0  0  0
  188.1750  176.5440  143.2140 S   0  0  0  0  0  0  0  0  0  0  0  0
  187.2880  177.7440  144.2260 C   0  0  0  0  0  0  0  0  0  0  0  0
  185.2910  179.0890  144.5270 C   0  0  0  0  0  3  0  0  0  0  0  0
  186.0660  178.6210  142.3340 C   0  0  2  0  0  3  0  0  0  0  0  0
  187.1950  178.3260  141.4170 C   0  0  0  0  0  3  0  0  0  0  0  0
  185.4910  179.0940  145.9060 C   0  0  0  0  0  3  0  0  0  0  0  0
  189.3700  177.4780  140.8540 N   0  0  0  0  0  0  0  0  0  0  0  0
  189.2340  177.2870  139.4550 C   0  0  0  0  0  3  0  0  0  0  0  0
  190.7560  177.5270  141.3060 C   0  0  0  0  0  2  0  0  0  0  0  0
  190.3790  177.2160  138.8080 C   0  0  0  0  0  0  0  0  0  0  0  0
  191.8310  177.3350  139.8380 S   0  0  0  0  0  0  0  0  0  0  0  0
  190.4640  176.9650  137.3390 C   0  0  0  0  0  2  0  0  0  0  0  0
  189.8910  175.5900  136.9760 C   0  0  2  0  0  3  0  0  0  0  0  0
  189.4990  175.6170  134.6370 O   0  0  0  0  0  0  0  0  0  0  0  0
  190.9670  174.7720  136.3280 C   0  0  0  0  0  2  0  0  0  0  0  0
  188.8340  175.6510  135.8780 C   0  0  1  0  0  0  0  0  0  0  0  0
  188.0110  174.5250  135.9870 O   0  0  0  0  0  1  0  0  0  0  0  0
  190.7190  174.9430  134.8430 C   0  0  0  0  0  2  0  0  0  0  0  0
  187.9570  176.9050  135.9730 C   0  0  0  0  0  2  0  0  0  0  0  0
  186.5460  176.5540  135.9680 N   0  0  0  0  0  0  0  0  0  0  0  0
  184.3740  177.2670  136.9360 C   0  0  0  0  0  2  0  0  0  0  0  0
  184.4880  176.7560  134.6090 C   0  0  0  0  0  2  0  0  0  0  0  0
  183.9470  176.3250  135.9000 N   0  0  0  0  0  2  0  0  0  0  0  0
  186.0100  176.9590  134.6690 C   0  0  0  0  0  2  0  0  0  0  0  0
  185.9070  177.3530  137.0140 C   0  0  0  0  0  2  0  0  0  0  0  0
  184.9010  179.2360  141.8400 O   0  0  0  0  0  0  0  0  0  0  0  0
  184.6400  179.6250  139.5630 O   0  0  0  0  0  0  0  0  0  0  0  0
  184.3040  178.9870  140.5970 C   0  0  0  0  0  0  0  0  0  0  0  0
  183.2520  177.9370  140.4950 C   0  0  0  0  0  2  0  0  0  0  0  0
  182.0320  178.6380  142.9560 F   0  0  0  0  0  0  0  0  0  0  0  0
  181.3450  178.8430  141.8020 C   0  0  0  0  0  0  0  0  0  0  0  0
  181.8900  178.5440  140.6180 C   0  0  0  0  0  3  0  0  0  0  0  0
  180.0190  180.6510  142.6970 N   0  0  0  0  0  1  0  0  0  0  0  0
  179.9870  179.4600  141.8630 C   0  0  0  0  0  2  0  0  0  0  0  0
  1  6  1  0  0  0  0
  2 11  2  0  0  0  0
  2 12  1  0  0  0  0
  3 10  1  0  0  0  0
  4  8  2  0  0  0  0
  5  1  2  0  0  0  0
  7  9  2  0  0  0  0
  7  4  1  0  0  0  0
  8  1  1  0  0  0  0
  9  5  1  0  0  0  0
 10 11  1  0  0  0  0
 11  7  1  0  0  0  0
 12 15  2  0  0  0  0
 13 35  1  1  0  0  0
 13  2  1  0  0  0  0
 14  3  2  0  0  0  0
 14 13  1  0  0  0  0
 15  4  1  0  0  0  0
 16 18  1  0  0  0  0
 16  3  1  0  0  0  0
 17 16  1  0  0  0  0
 19 17  2  0  0  0  0
 19 20  1  0  0  0  0
 20 18  1  0  0  0  0
 21 19  1  0  0  0  0
 22 21  1  6  0  0  0
 23 27  1  0  0  0  0
 23 25  1  0  0  0  0
 24 22  1  0  0  0  0
 25 28  1  0  0  0  0
 25 26  1  1  0  0  0
 25 22  1  0  0  0  0
 27 24  1  0  0  0  0
 29 28  1  0  0  0  0
 29 34  1  0  0  0  0
 30 34  1  0  0  0  0
 31 33  1  0  0  0  0
 31 32  1  0  0  0  0
 32 30  1  0  0  0  0
 33 29  1  0  0  0  0
 36 37  2  0  0  0  0
 37 35  1  0  0  0  0
 38 37  1  0  0  0  0
 38 41  1  0  0  0  0
 40 43  1  0  0  0  0
 40 39  1  0  0  0  0
 41 40  2  0  0  0  0
 43 42  1  0  0  0  0
M  END
>  <MODEL>
1

>  <REMARK>
 VINA RESULT:      -9.3      0.000      0.000
  Name = 
  10 active torsions:
  status: ('A' for Active; 'I' for Inactive)
    1  A    between atoms: O_1  and  C_34
    2  A    between atoms: O_1  and  C_35
    3  A    between atoms: N_2  and  C_13
    4  A    between atoms: C_3  and  C_4
    5  A    between atoms: C_3  and  C_12
    6  A    between atoms: N_11  and  C_14
    7  A    between atoms: C_14  and  C_22
    8  A    between atoms: C_19  and  C_37
    9  A    between atoms: C_28  and  C_35
   10  A    between atoms: C_28  and  C_39
                            x       y       z     vdW  Elec       q    Type
                         _______ _______ _______ _____ _____    ______ ____

>  <TORSDO>
F 10

$$$$
=
 OpenBabel11052416193D

 43 48  0  0  1  0  0  0  0  0999 V2000
  187.8850  177.7880  148.3520 C   0  0  0  0  0  0  0  0  0  0  0  0
  186.5650  178.3420  143.4600 C   0  0  0  0  0  0  0  0  0  0  0  0
  188.7270  177.3430  141.7250 C   0  0  0  0  0  0  0  0  0  0  0  0
  186.7390  178.3880  146.2710 C   0  0  0  0  0  0  0  0  0  0  0  0
  188.8040  177.0620  147.7160 C   0  0  0  0  0  3  0  0  0  0  0  0
  187.9530  177.9300  149.6970 F   0  0  0  0  0  0  0  0  0  0  0  0
  187.6890  177.6540  145.5240 C   0  0  0  0  0  0  0  0  0  0  0  0
  186.8100  178.4570  147.6030 C   0  0  0  0  0  3  0  0  0  0  0  0
  188.7700  176.8580  146.2250 C   0  0  0  0  0  3  0  0  0  0  0  0
  188.4930  176.3470  143.2020 S   0  0  0  0  0  0  0  0  0  0  0  0
  187.5730  177.5980  144.1190 C   0  0  0  0  0  0  0  0  0  0  0  0
  185.6130  179.0240  144.2300 C   0  0  0  0  0  3  0  0  0  0  0  0
  186.5520  178.4900  142.1180 C   0  0  2  0  0  3  0  0  0  0  0  0
  187.7410  178.1370  141.3050 C   0  0  0  0  0  3  0  0  0  0  0  0
  185.6950  179.0430  145.6210 C   0  0  0  0  0  3  0  0  0  0  0  0
  189.9210  177.1950  140.9410 N   0  0  0  0  0  0  0  0  0  0  0  0
  189.9830  176.3730  139.7860 C   0  0  0  0  0  3  0  0  0  0  0  0
  191.1900  177.8320  141.2760 C   0  0  0  0  0  2  0  0  0  0  0  0
  191.1650  176.3520  139.2050 C   0  0  0  0  0  0  0  0  0  0  0  0
  192.4200  177.3230  140.0210 S   0  0  0  0  0  0  0  0  0  0  0  0
  191.4630  175.5110  138.0090 C   0  0  0  0  0  2  0  0  0  0  0  0
  192.3790  176.2470  137.0250 C   0  0  2  0  0  3  0  0  0  0  0  0
  193.3790  174.5850  135.6590 O   0  0  0  0  0  0  0  0  0  0  0  0
  191.7090  176.2990  135.6850 C   0  0  0  0  0  2  0  0  0  0  0  0
  193.6600  175.4810  136.7080 C   0  0  1  0  0  0  0  0  0  0  0  0
  194.6320  176.3920  136.2840 O   0  0  0  0  0  1  0  0  0  0  0  0
  192.3110  175.1370  134.9220 C   0  0  0  0  0  2  0  0  0  0  0  0
  194.2050  174.7190  137.9210 C   0  0  0  0  0  2  0  0  0  0  0  0
  195.6010  175.0480  138.1570 N   0  0  0  0  0  0  0  0  0  0  0  0
  197.3360  174.9550  139.9320 C   0  0  0  0  0  2  0  0  0  0  0  0
  197.9000  174.2370  137.7290 C   0  0  0  0  0  2  0  0  0  0  0  0
  198.1350  175.2640  138.7450 N   0  0  0  0  0  2  0  0  0  0  0  0
  196.4020  174.0610  137.4340 C   0  0  0  0  0  2  0  0  0  0  0  0
  195.8380  174.8890  139.5930 C   0  0  0  0  0  2  0  0  0  0  0  0
  185.4590  179.1420  141.5190 O   0  0  0  0  0  0  0  0  0  0  0  0
  184.7310  178.7740  139.3420 O   0  0  0  0  0  0  0  0  0  0  0  0
  184.5830  178.5830  140.5790 C   0  0  0  0  0  0  0  0  0  0  0  0
  183.4540  177.7350  141.0550 C   0  0  0  0  0  2  0  0  0  0  0  0
  182.3600  178.5300  143.5460 F   0  0  0  0  0  0  0  0  0  0  0  0
  181.7180  178.8900  142.4030 C   0  0  0  0  0  0  0  0  0  0  0  0
  182.2100  178.5520  141.2060 C   0  0  0  0  0  3  0  0  0  0  0  0
  180.2260  180.3750  141.2210 N   0  0  0  0  0  1  0  0  0  0  0  0
  180.4810  179.7200  142.4940 C   0  0  0  0  0  2  0  0  0  0  0  0
  1  6  1  0  0  0  0
  2 11  2  0  0  0  0
  2 12  1  0  0  0  0
  3 10  1  0  0  0  0
  4  8  1  0  0  0  0
  5  1  1  0  0  0  0
  7  9  1  0  0  0  0
  7  4  2  0  0  0  0
  8  1  2  0  0  0  0
  9  5  2  0  0  0  0
 10 11  1  0  0  0  0
 11  7  1  0  0  0  0
 12 15  2  0  0  0  0
 13 35  1  1  0  0  0
 13  2  1  0  0  0  0
 14  3  2  0  0  0  0
 14 13  1  0  0  0  0
 15  4  1  0  0  0  0
 16 18  1  0  0  0  0
 16  3  1  0  0  0  0
 17 16  1  0  0  0  0
 19 17  2  0  0  0  0
 19 20  1  0  0  0  0
 20 18  1  0  0  0  0
 21 19  1  0  0  0  0
 22 21  1  1  0  0  0
 23 25  1  0  0  0  0
 24 22  1  0  0  0  0
 25 26  1  6  0  0  0
 25 22  1  0  0  0  0
 25 28  1  0  0  0  0
 27 23  1  0  0  0  0
 27 24  1  0  0  0  0
 28 29  1  0  0  0  0
 29 34  1  0  0  0  0
 31 32  1  0  0  0  0
 32 30  1  0  0  0  0
 33 31  1  0  0  0  0
 33 29  1  0  0  0  0
 34 30  1  0  0  0  0
 36 37  2  0  0  0  0
 37 38  1  0  0  0  0
 37 35  1  0  0  0  0
 38 41  1  0  0  0  0
 40 43  1  0  0  0  0
 40 39  1  0  0  0  0
 41 40  2  0  0  0  0
 42 43  1  0  0  0  0
M  END
>  <MODEL>
2

>  <REMARK>
 VINA RESULT:      -9.0      3.049      5.006
  Name = 
  10 active torsions:
  status: ('A' for Active; 'I' for Inactive)
    1  A    between atoms: O_1  and  C_34
    2  A    between atoms: O_1  and  C_35
    3  A    between atoms: N_2  and  C_13
    4  A    between atoms: C_3  and  C_4
    5  A    between atoms: C_3  and  C_12
    6  A    between atoms: N_11  and  C_14
    7  A    between atoms: C_14  and  C_22
    8  A    between atoms: C_19  and  C_37
    9  A    between atoms: C_28  and  C_35
   10  A    between atoms: C_28  and  C_39
                            x       y       z     vdW  Elec       q    Type
                         _______ _______ _______ _____ _____    ______ ____

>  <TORSDO>
F 10

$$$$
=
 OpenBabel11052416193D

 43 48  0  0  1  0  0  0  0  0999 V2000
  191.6670  176.7100  147.6400 C   0  0  0  0  0  0  0  0  0  0  0  0
  187.4590  177.3750  144.8430 C   0  0  0  0  0  0  0  0  0  0  0  0
  188.1400  177.2760  141.9780 C   0  0  0  0  0  0  0  0  0  0  0  0
  189.3780  177.1610  146.8940 C   0  0  0  0  0  0  0  0  0  0  0  0
  192.0720  176.3710  146.4160 C   0  0  0  0  0  3  0  0  0  0  0  0
  192.5530  176.7160  148.6640 F   0  0  0  0  0  0  0  0  0  0  0  0
  189.7360  176.8360  145.5650 C   0  0  0  0  0  0  0  0  0  0  0  0
  190.2710  177.1000  147.8850 C   0  0  0  0  0  3  0  0  0  0  0  0
  191.1280  176.3330  145.2440 C   0  0  0  0  0  3  0  0  0  0  0  0
  189.0730  176.1000  142.9640 S   0  0  0  0  0  0  0  0  0  0  0  0
  188.7600  176.9030  144.5480 C   0  0  0  0  0  0  0  0  0  0  0  0
  187.1220  177.6470  146.1760 C   0  0  0  0  0  3  0  0  0  0  0  0
  186.5670  177.6600  143.8690 C   0  0  2  0  0  3  0  0  0  0  0  0
  186.9990  177.7760  142.4550 C   0  0  0  0  0  3  0  0  0  0  0  0
  188.0690  177.5370  147.1920 C   0  0  0  0  0  3  0  0  0  0  0  0
  188.5600  177.5850  140.6400 N   0  0  0  0  0  0  0  0  0  0  0  0
  189.6960  176.9870  140.0350 C   0  0  0  0  0  3  0  0  0  0  0  0
  187.8970  178.5690  139.7920 C   0  0  0  0  0  2  0  0  0  0  0  0
  189.9350  177.4040  138.8090 C   0  0  0  0  0  0  0  0  0  0  0  0
  188.8050  178.6470  138.2070 S   0  0  0  0  0  0  0  0  0  0  0  0
  191.1100  176.9440  138.0120 C   0  0  0  0  0  2  0  0  0  0  0  0
  191.2550  175.4190  138.0640 C   0  0  2  0  0  3  0  0  0  0  0  0
  191.6510  174.7010  135.8380 O   0  0  0  0  0  0  0  0  0  0  0  0
  192.7080  175.0660  137.9540 C   0  0  0  0  0  2  0  0  0  0  0  0
  190.6660  174.7170  136.8440 C   0  0  1  0  0  0  0  0  0  0  0  0
  190.3500  173.4020  137.1960 O   0  0  0  0  0  1  0  0  0  0  0  0
  192.9020  174.7420  136.4870 C   0  0  0  0  0  2  0  0  0  0  0  0
  189.3960  175.4020  136.3280 C   0  0  0  0  0  2  0  0  0  0  0  0
  188.2580  174.4990  136.3890 N   0  0  0  0  0  0  0  0  0  0  0  0
  185.8670  174.4440  137.0580 C   0  0  0  0  0  2  0  0  0  0  0  0
  186.5050  173.4670  134.9790 C   0  0  0  0  0  2  0  0  0  0  0  0
  186.0040  173.1850  136.3250 N   0  0  0  0  0  2  0  0  0  0  0  0
  187.7950  174.3010  135.0150 C   0  0  0  0  0  2  0  0  0  0  0  0
  187.2110  175.1860  137.1470 C   0  0  0  0  0  2  0  0  0  0  0  0
  185.2540  178.0130  144.2340 O   0  0  0  0  0  0  0  0  0  0  0  0
  184.6600  180.2290  143.8640 O   0  0  0  0  0  0  0  0  0  0  0  0
  184.4720  179.0050  143.6300 C   0  0  0  0  0  0  0  0  0  0  0  0
  183.3970  178.6020  142.6800 C   0  0  0  0  0  2  0  0  0  0  0  0
  183.2510  176.8900  140.4240 F   0  0  0  0  0  0  0  0  0  0  0  0
  183.6810  178.1680  140.2510 C   0  0  0  0  0  0  0  0  0  0  0  0
  183.7470  179.0140  141.2850 C   0  0  0  0  0  3  0  0  0  0  0  0
  184.5610  179.9900  138.9350 N   0  0  0  0  0  1  0  0  0  0  0  0
  184.0290  178.6380  138.8780 C   0  0  0  0  0  2  0  0  0  0  0  0
  1  8  1  0  0  0  0
  1  6  1  0  0  0  0
  2 12  1  0  0  0  0
  3 14  2  0  0  0  0
  3 10  1  0  0  0  0
  4 15  1  0  0  0  0
  4  8  2  0  0  0  0
  5  1  2  0  0  0  0
  7  4  1  0  0  0  0
  9  7  2  0  0  0  0
  9  5  1  0  0  0  0
 10 11  1  0  0  0  0
 11  2  2  0  0  0  0
 11  7  1  0  0  0  0
 12 15  2  0  0  0  0
 13 35  1  1  0  0  0
 13  2  1  0  0  0  0
 14 13  1  0  0  0  0
 16  3  1  0  0  0  0
 17 16  1  0  0  0  0
 18 16  1  0  0  0  0
 19 17  2  0  0  0  0
 20 19  1  0  0  0  0
 20 18  1  0  0  0  0
 21 19  1  0  0  0  0
 22 21  1  6  0  0  0
 23 27  1  0  0  0  0
 23 25  1  0  0  0  0
 24 22  1  0  0  0  0
 25 26  1  1  0  0  0
 25 22  1  0  0  0  0
 27 24  1  0  0  0  0
 28 29  1  0  0  0  0
 28 25  1  0  0  0  0
 29 34  1  0  0  0  0
 30 34  1  0  0  0  0
 31 33  1  0  0  0  0
 31 32  1  0  0  0  0
 32 30  1  0  0  0  0
 33 29  1  0  0  0  0
 37 36  2  0  0  0  0
 37 35  1  0  0  0  0
 38 37  1  0  0  0  0
 40 39  1  0  0  0  0
 40 41  2  0  0  0  0
 41 38  1  0  0  0  0
 43 42  1  0  0  0  0
 43 40  1  0  0  0  0
M  END
>  <MODEL>
3

>  <REMARK>
 VINA RESULT:      -9.0      2.347      2.963
  Name = 
  10 active torsions:
  status: ('A' for Active; 'I' for Inactive)
    1  A    between atoms: O_1  and  C_34
    2  A    between atoms: O_1  and  C_35
    3  A    between atoms: N_2  and  C_13
    4  A    between atoms: C_3  and  C_4
    5  A    between atoms: C_3  and  C_12
    6  A    between atoms: N_11  and  C_14
    7  A    between atoms: C_14  and  C_22
    8  A    between atoms: C_19  and  C_37
    9  A    between atoms: C_28  and  C_35
   10  A    between atoms: C_28  and  C_39
                            x       y       z     vdW  Elec       q    Type
                         _______ _______ _______ _____ _____    ______ ____

>  <TORSDO>
F 10

$$$$
=
 OpenBabel11052416193D

 43 48  0  0  1  0  0  0  0  0999 V2000
  191.6130  176.8320  147.7860 C   0  0  0  0  0  0  0  0  0  0  0  0
  187.4840  177.3730  144.8480 C   0  0  0  0  0  0  0  0  0  0  0  0
  188.2520  177.2130  142.0080 C   0  0  0  0  0  0  0  0  0  0  0  0
  189.3420  177.2350  146.9600 C   0  0  0  0  0  0  0  0  0  0  0  0
  192.0590  176.4690  146.5830 C   0  0  0  0  0  3  0  0  0  0  0  0
  192.4680  176.8750  148.8350 F   0  0  0  0  0  0  0  0  0  0  0  0
  189.7440  176.8820  145.6510 C   0  0  0  0  0  0  0  0  0  0  0  0
  190.2060  177.2100  147.9790 C   0  0  0  0  0  3  0  0  0  0  0  0
  191.1510  176.3890  145.3850 C   0  0  0  0  0  3  0  0  0  0  0  0
  189.1690  176.0740  143.0500 S   0  0  0  0  0  0  0  0  0  0  0  0
  188.7990  176.9110  144.6040 C   0  0  0  0  0  0  0  0  0  0  0  0
  187.1040  177.6730  146.1630 C   0  0  0  0  0  3  0  0  0  0  0  0
  186.6180  177.6230  143.8420 C   0  0  2  0  0  3  0  0  0  0  0  0
  187.0920  177.7090  142.4380 C   0  0  0  0  0  3  0  0  0  0  0  0
  188.0210  177.6010  147.2090 C   0  0  0  0  0  3  0  0  0  0  0  0
  188.7090  177.4940  140.6760 N   0  0  0  0  0  0  0  0  0  0  0  0
  189.8330  176.8490  140.0980 C   0  0  0  0  0  3  0  0  0  0  0  0
  188.0980  178.4950  139.8080 C   0  0  0  0  0  2  0  0  0  0  0  0
  190.1100  177.2460  138.8730 C   0  0  0  0  0  0  0  0  0  0  0  0
  189.0390  178.5250  138.2390 S   0  0  0  0  0  0  0  0  0  0  0  0
  191.2820  176.7360  138.1030 C   0  0  0  0  0  2  0  0  0  0  0  0
  190.8480  176.1390  136.7600 C   0  0  2  0  0  3  0  0  0  0  0  0
  191.6370  173.9020  136.7280 O   0  0  0  0  0  0  0  0  0  0  0  0
  189.6690  175.2410  136.9860 C   0  0  0  0  0  2  0  0  0  0  0  0
  191.8740  175.1740  136.1720 C   0  0  1  0  0  0  0  0  0  0  0  0
  191.6850  175.1110  134.7880 O   0  0  0  0  0  1  0  0  0  0  0  0
  190.2720  173.8540  137.0760 C   0  0  0  0  0  2  0  0  0  0  0  0
  193.3170  175.6100  136.4470 C   0  0  0  0  0  2  0  0  0  0  0  0
  194.1010  174.5060  136.9760 N   0  0  0  0  0  0  0  0  0  0  0  0
  196.2890  173.3710  136.6770 C   0  0  0  0  0  2  0  0  0  0  0  0
  195.5420  173.8720  138.8860 C   0  0  0  0  0  2  0  0  0  0  0  0
  195.8200  172.7920  137.9360 N   0  0  0  0  0  2  0  0  0  0  0  0
  194.5850  174.9180  138.2940 C   0  0  0  0  0  2  0  0  0  0  0  0
  195.2480  174.3340  136.0830 C   0  0  0  0  0  2  0  0  0  0  0  0
  185.2910  177.9670  144.1580 O   0  0  0  0  0  0  0  0  0  0  0  0
  184.8070  180.2220  143.8720 O   0  0  0  0  0  0  0  0  0  0  0  0
  184.5570  179.0180  143.5930 C   0  0  0  0  0  0  0  0  0  0  0  0
  183.4620  178.7050  142.6330 C   0  0  0  0  0  2  0  0  0  0  0  0
  183.2510  176.9400  140.4240 F   0  0  0  0  0  0  0  0  0  0  0  0
  183.7730  178.1790  140.2260 C   0  0  0  0  0  0  0  0  0  0  0  0
  183.8730  179.0500  141.2360 C   0  0  0  0  0  3  0  0  0  0  0  0
  184.4300  180.0160  138.8040 N   0  0  0  0  0  1  0  0  0  0  0  0
  184.1850  178.5830  138.8490 C   0  0  0  0  0  2  0  0  0  0  0  0
  1  8  1  0  0  0  0
  1  6  1  0  0  0  0
  2 12  1  0  0  0  0
  3 14  2  0  0  0  0
  3 10  1  0  0  0  0
  4 15  1  0  0  0  0
  4  8  2  0  0  0  0
  5  1  2  0  0  0  0
  7  4  1  0  0  0  0
  9  7  2  0  0  0  0
  9  5  1  0  0  0  0
 10 11  1  0  0  0  0
 11  2  2  0  0  0  0
 11  7  1  0  0  0  0
 12 15  2  0  0  0  0
 13 35  1  1  0  0  0
 13  2  1  0  0  0  0
 14 13  1  0  0  0  0
 16  3  1  0  0  0  0
 17 16  1  0  0  0  0
 18 16  1  0  0  0  0
 19 17  2  0  0  0  0
 20 19  1  0  0  0  0
 20 18  1  0  0  0  0
 21 19  1  0  0  0  0
 22 24  1  0  0  0  0
 22 21  1  1  0  0  0
 23 27  1  0  0  0  0
 24 27  1  0  0  0  0
 25 26  1  6  0  0  0
 25 28  1  0  0  0  0
 25 23  1  0  0  0  0
 25 22  1  0  0  0  0
 28 29  1  0  0  0  0
 29 33  1  0  0  0  0
 30 32  1  0  0  0  0
 32 31  1  0  0  0  0
 33 31  1  0  0  0  0
 34 30  1  0  0  0  0
 34 29  1  0  0  0  0
 37 36  2  0  0  0  0
 37 35  1  0  0  0  0
 38 37  1  0  0  0  0
 40 39  1  0  0  0  0
 40 41  2  0  0  0  0
 41 38  1  0  0  0  0
 42 43  1  0  0  0  0
 43 40  1  0  0  0  0
M  END
>  <MODEL>
4

>  <REMARK>
 VINA RESULT:      -9.0      2.947      4.962
  Name = 
  10 active torsions:
  status: ('A' for Active; 'I' for Inactive)
    1  A    between atoms: O_1  and  C_34
    2  A    between atoms: O_1  and  C_35
    3  A    between atoms: N_2  and  C_13
    4  A    between atoms: C_3  and  C_4
    5  A    between atoms: C_3  and  C_12
    6  A    between atoms: N_11  and  C_14
    7  A    between atoms: C_14  and  C_22
    8  A    between atoms: C_19  and  C_37
    9  A    between atoms: C_28  and  C_35
   10  A    between atoms: C_28  and  C_39
                            x       y       z     vdW  Elec       q    Type
                         _______ _______ _______ _____ _____    ______ ____

>  <TORSDO>
F 10

$$$$
=
 OpenBabel11052416193D

 43 48  0  0  1  0  0  0  0  0999 V2000
  183.5290  178.5570  143.7170 C   0  0  0  0  0  0  0  0  0  0  0  0
  188.5770  177.8790  143.5360 C   0  0  0  0  0  0  0  0  0  0  0  0
  189.4210  177.4080  140.7520 C   0  0  0  0  0  0  0  0  0  0  0  0
  185.8880  178.2340  144.2940 C   0  0  0  0  0  0  0  0  0  0  0  0
  183.7890  178.6340  142.4120 C   0  0  0  0  0  3  0  0  0  0  0  0
  182.2490  178.6310  144.1530 F   0  0  0  0  0  0  0  0  0  0  0  0
  186.2410  178.2850  142.9260 C   0  0  0  0  0  0  0  0  0  0  0  0
  184.6180  178.3680  144.6870 C   0  0  0  0  0  3  0  0  0  0  0  0
  185.1930  178.5710  141.8710 C   0  0  0  0  0  3  0  0  0  0  0  0
  188.1110  178.6290  140.8940 S   0  0  0  0  0  0  0  0  0  0  0  0
  187.5950  178.1490  142.5540 C   0  0  0  0  0  0  0  0  0  0  0  0
  188.2030  177.8790  144.8870 C   0  0  0  0  0  3  0  0  0  0  0  0
  189.8390  177.5290  143.2040 C   0  0  2  0  0  3  0  0  0  0  0  0
  190.1730  177.1250  141.8170 C   0  0  0  0  0  3  0  0  0  0  0  0
  186.8740  178.0590  145.2630 C   0  0  0  0  0  3  0  0  0  0  0  0
  189.7290  176.8300  139.4750 N   0  0  0  0  0  0  0  0  0  0  0  0
  190.8720  176.0170  139.2560 C   0  0  0  0  0  3  0  0  0  0  0  0
  188.9320  177.0550  138.2740 C   0  0  0  0  0  2  0  0  0  0  0  0
  190.9970  175.5880  138.0170 C   0  0  0  0  0  0  0  0  0  0  0  0
  189.7300  176.1560  136.8950 S   0  0  0  0  0  0  0  0  0  0  0  0
  192.1550  174.7660  137.5590 C   0  0  0  0  0  2  0  0  0  0  0  0
  193.4850  175.4780  137.8280 C   0  0  2  0  0  3  0  0  0  0  0  0
  194.9950  174.7490  136.1500 O   0  0  0  0  0  0  0  0  0  0  0  0
  193.6430  176.5980  136.8440 C   0  0  0  0  0  2  0  0  0  0  0  0
  194.7030  174.6130  137.5210 C   0  0  1  0  0  0  0  0  0  0  0  0
  195.7860  175.0850  138.2690 O   0  0  0  0  0  1  0  0  0  0  0  0
  194.5140  176.0130  135.7520 C   0  0  0  0  0  2  0  0  0  0  0  0
  194.4790  173.1370  137.8690 C   0  0  0  0  0  2  0  0  0  0  0  0
  195.1170  172.2700  136.8910 N   0  0  0  0  0  0  0  0  0  0  0  0
  196.8080  170.4590  136.7260 C   0  0  0  0  0  2  0  0  0  0  0  0
  194.7420  170.2180  135.5600 C   0  0  0  0  0  2  0  0  0  0  0  0
  196.1850  170.4110  135.4030 N   0  0  0  0  0  2  0  0  0  0  0  0
  194.1250  171.2720  136.4930 C   0  0  0  0  0  2  0  0  0  0  0  0
  196.2190  171.5950  137.5790 C   0  0  0  0  0  2  0  0  0  0  0  0
  190.7950  177.3890  144.2270 O   0  0  0  0  0  0  0  0  0  0  0  0
  191.7340  175.3100  143.7800 O   0  0  0  0  0  0  0  0  0  0  0  0
  191.4090  176.1920  144.6200 C   0  0  0  0  0  0  0  0  0  0  0  0
  191.6910  175.9620  146.0640 C   0  0  0  0  0  2  0  0  0  0  0  0
  189.2690  175.9590  147.5380 F   0  0  0  0  0  0  0  0  0  0  0  0
  190.0430  177.0760  147.5510 C   0  0  0  0  0  0  0  0  0  0  0  0
  191.2020  177.1140  146.8850 C   0  0  0  0  0  3  0  0  0  0  0  0
  188.2460  178.0620  148.8260 N   0  0  0  0  0  1  0  0  0  0  0  0
  189.6120  178.2500  148.3660 C   0  0  0  0  0  2  0  0  0  0  0  0
  1  6  1  0  0  0  0
  1  8  1  0  0  0  0
  2 12  1  0  0  0  0
  3 10  1  0  0  0  0
  3 14  2  0  0  0  0
  4  8  2  0  0  0  0
  4 15  1  0  0  0  0
  5  1  2  0  0  0  0
  7  4  1  0  0  0  0
  9  5  1  0  0  0  0
  9  7  2  0  0  0  0
 10 11  1  0  0  0  0
 11  7  1  0  0  0  0
 11  2  2  0  0  0  0
 12 15  2  0  0  0  0
 13  2  1  0  0  0  0
 13 35  1  1  0  0  0
 14 13  1  0  0  0  0
 16  3  1  0  0  0  0
 17 16  1  0  0  0  0
 18 16  1  0  0  0  0
 19 17  2  0  0  0  0
 20 19  1  0  0  0  0
 20 18  1  0  0  0  0
 21 19  1  0  0  0  0
 22 21  1  6  0  0  0
 23 25  1  0  0  0  0
 24 22  1  0  0  0  0
 25 22  1  0  0  0  0
 25 28  1  0  0  0  0
 25 26  1  1  0  0  0
 27 23  1  0  0  0  0
 27 24  1  0  0  0  0
 29 34  1  0  0  0  0
 29 28  1  0  0  0  0
 30 34  1  0  0  0  0
 31 33  1  0  0  0  0
 32 31  1  0  0  0  0
 32 30  1  0  0  0  0
 33 29  1  0  0  0  0
 35 37  1  0  0  0  0
 36 37  2  0  0  0  0
 37 38  1  0  0  0  0
 38 41  1  0  0  0  0
 39 40  1  0  0  0  0
 40 43  1  0  0  0  0
 41 40  2  0  0  0  0
 43 42  1  0  0  0  0
M  END
>  <MODEL>
5

>  <REMARK>
 VINA RESULT:      -8.8      4.261      7.346
  Name = 
  10 active torsions:
  status: ('A' for Active; 'I' for Inactive)
    1  A    between atoms: O_1  and  C_34
    2  A    between atoms: O_1  and  C_35
    3  A    between atoms: N_2  and  C_13
    4  A    between atoms: C_3  and  C_4
    5  A    between atoms: C_3  and  C_12
    6  A    between atoms: N_11  and  C_14
    7  A    between atoms: C_14  and  C_22
    8  A    between atoms: C_19  and  C_37
    9  A    between atoms: C_28  and  C_35
   10  A    between atoms: C_28  and  C_39
                            x       y       z     vdW  Elec       q    Type
                         _______ _______ _______ _____ _____    ______ ____

>  <TORSDO>
F 10

$$$$
=
 OpenBabel11052416193D

 43 48  0  0  1  0  0  0  0  0999 V2000
  191.4980  176.7830  147.5990 C   0  0  0  0  0  0  0  0  0  0  0  0
  187.0290  177.8400  145.3870 C   0  0  0  0  0  0  0  0  0  0  0  0
  187.2910  177.6300  142.4600 C   0  0  0  0  0  0  0  0  0  0  0  0
  189.1830  177.4580  147.1610 C   0  0  0  0  0  0  0  0  0  0  0  0
  191.6920  176.3870  146.3420 C   0  0  0  0  0  3  0  0  0  0  0  0
  192.5140  176.7120  148.4910 F   0  0  0  0  0  0  0  0  0  0  0  0
  189.3180  177.0780  145.8060 C   0  0  0  0  0  0  0  0  0  0  0  0
  190.1950  177.3190  148.0220 C   0  0  0  0  0  3  0  0  0  0  0  0
  190.5940  176.4300  145.3120 C   0  0  0  0  0  3  0  0  0  0  0  0
  188.2290  176.3780  143.3420 S   0  0  0  0  0  0  0  0  0  0  0  0
  188.2220  177.2320  144.9300 C   0  0  0  0  0  0  0  0  0  0  0  0
  186.9100  178.1640  146.7460 C   0  0  0  0  0  3  0  0  0  0  0  0
  186.0430  178.2020  144.5380 C   0  0  2  0  0  3  0  0  0  0  0  0
  186.2840  178.2520  143.0750 C   0  0  0  0  0  3  0  0  0  0  0  0
  187.9740  177.9710  147.6250 C   0  0  0  0  0  3  0  0  0  0  0  0
  187.5500  177.8750  141.0690 N   0  0  0  0  0  0  0  0  0  0  0  0
  188.8060  177.6090  140.4640 C   0  0  0  0  0  3  0  0  0  0  0  0
  186.5730  178.4590  140.1570 C   0  0  0  0  0  2  0  0  0  0  0  0
  188.8590  177.9090  139.1820 C   0  0  0  0  0  0  0  0  0  0  0  0
  187.3630  178.6150  138.5150 S   0  0  0  0  0  0  0  0  0  0  0  0
  190.1000  177.7590  138.3680 C   0  0  0  0  0  2  0  0  0  0  0  0
  190.7520  176.3900  138.5930 C   0  0  2  0  0  3  0  0  0  0  0  0
  191.9310  175.8670  136.6030 O   0  0  0  0  0  0  0  0  0  0  0  0
  192.2130  176.5880  138.8680 C   0  0  0  0  0  2  0  0  0  0  0  0
  190.7800  175.5240  137.3380 C   0  0  1  0  0  0  0  0  0  0  0  0
  190.8650  174.1830  137.7230 O   0  0  0  0  0  1  0  0  0  0  0  0
  192.8770  176.3570  137.5260 C   0  0  0  0  0  2  0  0  0  0  0  0
  189.5280  175.7020  136.4720 C   0  0  0  0  0  2  0  0  0  0  0  0
  188.6280  174.5710  136.6210 N   0  0  0  0  0  0  0  0  0  0  0  0
  186.2720  174.0390  137.1980 C   0  0  0  0  0  2  0  0  0  0  0  0
  187.2670  172.9720  135.3110 C   0  0  0  0  0  2  0  0  0  0  0  0
  186.7470  172.7620  136.6640 N   0  0  0  0  0  2  0  0  0  0  0  0
  188.3240  174.0860  135.2740 C   0  0  0  0  0  2  0  0  0  0  0  0
  187.3980  175.0840  137.2280 C   0  0  0  0  0  2  0  0  0  0  0  0
  184.8360  178.6930  145.0690 O   0  0  0  0  0  0  0  0  0  0  0  0
  183.7830  180.4180  143.9210 O   0  0  0  0  0  0  0  0  0  0  0  0
  183.7710  179.2270  144.3320 C   0  0  0  0  0  0  0  0  0  0  0  0
  182.6000  178.3610  144.0200 C   0  0  0  0  0  2  0  0  0  0  0  0
  179.8770  177.6430  144.3480 F   0  0  0  0  0  0  0  0  0  0  0  0
  180.1760  178.8020  143.7040 C   0  0  0  0  0  0  0  0  0  0  0  0
  181.4470  179.1880  143.5440 C   0  0  0  0  0  3  0  0  0  0  0  0
  179.6030  180.7870  142.4570 N   0  0  0  0  0  1  0  0  0  0  0  0
  179.0650  179.6740  143.2220 C   0  0  0  0  0  2  0  0  0  0  0  0
  1  8  1  0  0  0  0
  1  6  1  0  0  0  0
  2 12  1  0  0  0  0
  3 14  2  0  0  0  0
  3 10  1  0  0  0  0
  4 15  1  0  0  0  0
  4  8  2  0  0  0  0
  5  1  2  0  0  0  0
  7  4  1  0  0  0  0
  9  7  2  0  0  0  0
  9  5  1  0  0  0  0
 10 11  1  0  0  0  0
 11  2  2  0  0  0  0
 11  7  1  0  0  0  0
 12 15  2  0  0  0  0
 13 35  1  1  0  0  0
 13  2  1  0  0  0  0
 14 13  1  0  0  0  0
 16  3  1  0  0  0  0
 17 16  1  0  0  0  0
 18 16  1  0  0  0  0
 19 17  2  0  0  0  0
 20 19  1  0  0  0  0
 20 18  1  0  0  0  0
 21 19  1  0  0  0  0
 22 21  1  6  0  0  0
 22 24  1  0  0  0  0
 23 25  1  0  0  0  0
 23 27  1  0  0  0  0
 25 26  1  1  0  0  0
 25 22  1  0  0  0  0
 27 24  1  0  0  0  0
 28 29  1  0  0  0  0
 28 25  1  0  0  0  0
 29 34  1  0  0  0  0
 30 34  1  0  0  0  0
 31 32  1  0  0  0  0
 32 30  1  0  0  0  0
 33 31  1  0  0  0  0
 33 29  1  0  0  0  0
 36 37  2  0  0  0  0
 37 35  1  0  0  0  0
 38 37  1  0  0  0  0
 40 39  1  0  0  0  0
 41 40  2  0  0  0  0
 41 38  1  0  0  0  0
 42 43  1  0  0  0  0
 43 40  1  0  0  0  0
M  END
>  <MODEL>
6

>  <REMARK>
 VINA RESULT:      -8.8      2.415      3.034
  Name = 
  10 active torsions:
  status: ('A' for Active; 'I' for Inactive)
    1  A    between atoms: O_1  and  C_34
    2  A    between atoms: O_1  and  C_35
    3  A    between atoms: N_2  and  C_13
    4  A    between atoms: C_3  and  C_4
    5  A    between atoms: C_3  and  C_12
    6  A    between atoms: N_11  and  C_14
    7  A    between atoms: C_14  and  C_22
    8  A    between atoms: C_19  and  C_37
    9  A    between atoms: C_28  and  C_35
   10  A    between atoms: C_28  and  C_39
                            x       y       z     vdW  Elec       q    Type
                         _______ _______ _______ _____ _____    ______ ____

>  <TORSDO>
F 10

$$$$
=
 OpenBabel11052416193D

 43 48  0  0  1  0  0  0  0  0999 V2000
  183.6280  178.7480  143.9550 C   0  0  0  0  0  0  0  0  0  0  0  0
  188.4730  177.3190  143.2750 C   0  0  0  0  0  0  0  0  0  0  0  0
  189.0980  177.2500  140.3960 C   0  0  0  0  0  0  0  0  0  0  0  0
  185.9210  177.9510  144.2860 C   0  0  0  0  0  0  0  0  0  0  0  0
  183.8380  179.0260  142.6680 C   0  0  0  0  0  3  0  0  0  0  0  0
  182.4010  178.9430  144.4930 F   0  0  0  0  0  0  0  0  0  0  0  0
  186.2150  178.2000  142.9250 C   0  0  0  0  0  0  0  0  0  0  0  0
  184.7110  178.2090  144.7900 C   0  0  0  0  0  3  0  0  0  0  0  0
  185.1850  178.8430  142.0200 C   0  0  0  0  0  3  0  0  0  0  0  0
  188.0230  178.6160  140.8500 S   0  0  0  0  0  0  0  0  0  0  0  0
  187.5080  177.9220  142.4330 C   0  0  0  0  0  0  0  0  0  0  0  0
  188.1650  177.1250  144.6290 C   0  0  0  0  0  3  0  0  0  0  0  0
  189.6400  176.8400  142.7920 C   0  0  2  0  0  3  0  0  0  0  0  0
  189.8370  176.6560  141.3330 C   0  0  0  0  0  3  0  0  0  0  0  0
  186.9050  177.4410  145.1310 C   0  0  0  0  0  3  0  0  0  0  0  0
  189.2450  176.8800  139.0160 N   0  0  0  0  0  0  0  0  0  0  0  0
  188.1710  176.3730  138.2390 C   0  0  0  0  0  3  0  0  0  0  0  0
  190.5110  176.9430  138.2950 C   0  0  0  0  0  2  0  0  0  0  0  0
  188.4980  176.0760  136.9990 C   0  0  0  0  0  0  0  0  0  0  0  0
  190.2170  176.3390  136.5940 S   0  0  0  0  0  0  0  0  0  0  0  0
  187.5350  175.4790  136.0280 C   0  0  0  0  0  2  0  0  0  0  0  0
  186.5530  174.5330  136.7290 C   0  0  2  0  0  3  0  0  0  0  0  0
  184.9800  173.8550  135.0880 O   0  0  0  0  0  0  0  0  0  0  0  0
  186.8810  173.1220  136.3440 C   0  0  0  0  0  2  0  0  0  0  0  0
  185.1190  174.6740  136.2250 C   0  0  1  0  0  0  0  0  0  0  0  0
  184.2500  174.2240  137.2230 O   0  0  0  0  0  1  0  0  0  0  0  0
  185.9200  172.8120  135.2160 C   0  0  0  0  0  2  0  0  0  0  0  0
  184.7560  176.1220  135.8800 C   0  0  0  0  0  2  0  0  0  0  0  0
  183.9220  176.7090  136.9150 N   0  0  0  0  0  0  0  0  0  0  0  0
  183.9520  178.4960  138.6390 C   0  0  0  0  0  2  0  0  0  0  0  0
  182.0280  178.2670  137.2490 C   0  0  0  0  0  2  0  0  0  0  0  0
  182.5370  178.1250  138.6150 N   0  0  0  0  0  2  0  0  0  0  0  0
  182.8870  177.4900  136.2390 C   0  0  0  0  0  2  0  0  0  0  0  0
  184.7750  177.6190  137.6820 C   0  0  0  0  0  2  0  0  0  0  0  0
  190.6030  176.3600  143.6980 O   0  0  0  0  0  0  0  0  0  0  0  0
  191.9960  178.1850  144.0610 O   0  0  0  0  0  0  0  0  0  0  0  0
  191.4370  177.1460  144.5040 C   0  0  0  0  0  0  0  0  0  0  0  0
  191.6600  176.7470  145.9220 C   0  0  0  0  0  2  0  0  0  0  0  0
  189.3980  176.0140  147.4660 F   0  0  0  0  0  0  0  0  0  0  0  0
  189.8610  177.2900  147.5450 C   0  0  0  0  0  0  0  0  0  0  0  0
  190.9360  177.6730  146.8490 C   0  0  0  0  0  3  0  0  0  0  0  0
  187.8830  177.7390  148.8550 N   0  0  0  0  0  1  0  0  0  0  0  0
  189.1870  178.2520  148.4660 C   0  0  0  0  0  2  0  0  0  0  0  0
  1  6  1  0  0  0  0
  1  8  1  0  0  0  0
  2 12  1  0  0  0  0
  3 10  1  0  0  0  0
  3 14  2  0  0  0  0
  4  8  2  0  0  0  0
  4 15  1  0  0  0  0
  5  1  2  0  0  0  0
  7  4  1  0  0  0  0
  9  5  1  0  0  0  0
  9  7  2  0  0  0  0
 10 11  1  0  0  0  0
 11  7  1  0  0  0  0
 11  2  2  0  0  0  0
 12 15  2  0  0  0  0
 13  2  1  0  0  0  0
 13 35  1  1  0  0  0
 14 13  1  0  0  0  0
 16  3  1  0  0  0  0
 17 16  1  0  0  0  0
 18 16  1  0  0  0  0
 19 17  2  0  0  0  0
 20 19  1  0  0  0  0
 20 18  1  0  0  0  0
 21 19  1  0  0  0  0
 22 21  1  6  0  0  0
 23 27  1  0  0  0  0
 23 25  1  0  0  0  0
 24 22  1  0  0  0  0
 25 22  1  0  0  0  0
 25 26  1  1  0  0  0
 27 24  1  0  0  0  0
 28 25  1  0  0  0  0
 28 29  1  0  0  0  0
 29 34  1  0  0  0  0
 31 32  1  0  0  0  0
 32 30  1  0  0  0  0
 33 29  1  0  0  0  0
 33 31  1  0  0  0  0
 34 30  1  0  0  0  0
 35 37  1  0  0  0  0
 36 37  2  0  0  0  0
 37 38  1  0  0  0  0
 38 41  1  0  0  0  0
 39 40  1  0  0  0  0
 40 43  1  0  0  0  0
 41 40  2  0  0  0  0
 43 42  1  0  0  0  0
M  END
>  <MODEL>
7

>  <REMARK>
 VINA RESULT:      -8.7      2.909      5.608
  Name = 
  10 active torsions:
  status: ('A' for Active; 'I' for Inactive)
    1  A    between atoms: O_1  and  C_34
    2  A    between atoms: O_1  and  C_35
    3  A    between atoms: N_2  and  C_13
    4  A    between atoms: C_3  and  C_4
    5  A    between atoms: C_3  and  C_12
    6  A    between atoms: N_11  and  C_14
    7  A    between atoms: C_14  and  C_22
    8  A    between atoms: C_19  and  C_37
    9  A    between atoms: C_28  and  C_35
   10  A    between atoms: C_28  and  C_39
                            x       y       z     vdW  Elec       q    Type
                         _______ _______ _______ _____ _____    ______ ____

>  <TORSDO>
F 10

$$$$
=
 OpenBabel11052416193D

 43 48  0  0  1  0  0  0  0  0999 V2000
  187.8220  177.8690  148.3220 C   0  0  0  0  0  0  0  0  0  0  0  0
  186.5250  178.4200  143.4240 C   0  0  0  0  0  0  0  0  0  0  0  0
  188.6760  177.3810  141.6990 C   0  0  0  0  0  0  0  0  0  0  0  0
  186.6910  178.4770  146.2350 C   0  0  0  0  0  0  0  0  0  0  0  0
  188.7310  177.1260  147.6920 C   0  0  0  0  0  3  0  0  0  0  0  0
  187.8880  178.0160  149.6660 F   0  0  0  0  0  0  0  0  0  0  0  0
  187.6320  177.7240  145.4940 C   0  0  0  0  0  0  0  0  0  0  0  0
  186.7600  178.5510  147.5670 C   0  0  0  0  0  3  0  0  0  0  0  0
  188.6990  176.9160  146.2020 C   0  0  0  0  0  3  0  0  0  0  0  0
  188.4230  176.3960  143.1800 S   0  0  0  0  0  0  0  0  0  0  0  0
  187.5190  177.6640  144.0890 C   0  0  0  0  0  0  0  0  0  0  0  0
  185.5810  179.1200  144.1880 C   0  0  0  0  0  3  0  0  0  0  0  0
  186.5170  178.5630  142.0810 C   0  0  2  0  0  3  0  0  0  0  0  0
  187.7040  178.1870  141.2730 C   0  0  0  0  0  3  0  0  0  0  0  0
  185.6590  179.1450  145.5790 C   0  0  0  0  0  3  0  0  0  0  0  0
  189.8700  177.2110  140.9190 N   0  0  0  0  0  0  0  0  0  0  0  0
  189.9240  176.3810  139.7700 C   0  0  0  0  0  3  0  0  0  0  0  0
  191.1460  177.8330  141.2530 C   0  0  0  0  0  2  0  0  0  0  0  0
  191.1070  176.3390  139.1920 C   0  0  0  0  0  0  0  0  0  0  0  0
  192.3720  177.2980  140.0060 S   0  0  0  0  0  0  0  0  0  0  0  0
  191.3960  175.4850  138.0030 C   0  0  0  0  0  2  0  0  0  0  0  0
  192.2340  176.2410  136.9660 C   0  0  2  0  0  3  0  0  0  0  0  0
  193.0380  174.6190  135.4330 O   0  0  0  0  0  0  0  0  0  0  0  0
  191.4360  176.3770  135.7030 C   0  0  0  0  0  2  0  0  0  0  0  0
  193.4510  175.4560  136.4880 C   0  0  1  0  0  0  0  0  0  0  0  0
  194.4050  176.3590  136.0090 O   0  0  0  0  0  1  0  0  0  0  0  0
  191.9210  175.2350  134.8330 C   0  0  0  0  0  2  0  0  0  0  0  0
  194.0890  174.6220  137.6050 C   0  0  0  0  0  2  0  0  0  0  0  0
  195.4800  174.9940  137.8010 N   0  0  0  0  0  0  0  0  0  0  0  0
  197.3750  174.6320  139.3640 C   0  0  0  0  0  2  0  0  0  0  0  0
  197.7700  174.4760  137.0170 C   0  0  0  0  0  2  0  0  0  0  0  0
  198.0420  175.2610  138.2230 N   0  0  0  0  0  2  0  0  0  0  0  0
  196.2630  174.2590  136.8070 C   0  0  0  0  0  2  0  0  0  0  0  0
  195.8580  174.5320  139.1380 C   0  0  0  0  0  2  0  0  0  0  0  0
  185.4360  179.2290  141.4750 O   0  0  0  0  0  0  0  0  0  0  0  0
  183.5520  177.8680  141.4110 O   0  0  0  0  0  0  0  0  0  0  0  0
  184.3650  178.6190  140.8080 C   0  0  0  0  0  0  0  0  0  0  0  0
  184.1790  178.8730  139.3520 C   0  0  0  0  0  2  0  0  0  0  0  0
  184.0550  177.6030  136.8200 F   0  0  0  0  0  0  0  0  0  0  0  0
  185.2700  177.7990  137.3960 C   0  0  0  0  0  0  0  0  0  0  0  0
  185.3760  178.4110  138.5810 C   0  0  0  0  0  3  0  0  0  0  0  0
  187.0570  176.1800  137.2840 N   0  0  0  0  0  1  0  0  0  0  0  0
  186.4990  177.3710  136.6650 C   0  0  0  0  0  2  0  0  0  0  0  0
  1  6  1  0  0  0  0
  2 11  2  0  0  0  0
  2 12  1  0  0  0  0
  3 10  1  0  0  0  0
  4  8  1  0  0  0  0
  5  1  1  0  0  0  0
  7  9  1  0  0  0  0
  7  4  2  0  0  0  0
  8  1  2  0  0  0  0
  9  5  2  0  0  0  0
 10 11  1  0  0  0  0
 11  7  1  0  0  0  0
 12 15  2  0  0  0  0
 13 35  1  1  0  0  0
 13  2  1  0  0  0  0
 14  3  2  0  0  0  0
 14 13  1  0  0  0  0
 15  4  1  0  0  0  0
 16 18  1  0  0  0  0
 16  3  1  0  0  0  0
 17 16  1  0  0  0  0
 19 17  2  0  0  0  0
 19 20  1  0  0  0  0
 20 18  1  0  0  0  0
 21 19  1  0  0  0  0
 22 21  1  1  0  0  0
 23 25  1  0  0  0  0
 24 22  1  0  0  0  0
 25 26  1  6  0  0  0
 25 22  1  0  0  0  0
 25 28  1  0  0  0  0
 27 23  1  0  0  0  0
 27 24  1  0  0  0  0
 28 29  1  0  0  0  0
 29 34  1  0  0  0  0
 31 32  1  0  0  0  0
 32 30  1  0  0  0  0
 33 31  1  0  0  0  0
 33 29  1  0  0  0  0
 34 30  1  0  0  0  0
 37 36  2  0  0  0  0
 37 35  1  0  0  0  0
 38 37  1  0  0  0  0
 39 40  1  0  0  0  0
 40 41  2  0  0  0  0
 41 38  1  0  0  0  0
 43 42  1  0  0  0  0
 43 40  1  0  0  0  0
M  END
>  <MODEL>
8

>  <REMARK>
 VINA RESULT:      -8.3      3.161      5.525
  Name = 
  10 active torsions:
  status: ('A' for Active; 'I' for Inactive)
    1  A    between atoms: O_1  and  C_34
    2  A    between atoms: O_1  and  C_35
    3  A    between atoms: N_2  and  C_13
    4  A    between atoms: C_3  and  C_4
    5  A    between atoms: C_3  and  C_12
    6  A    between atoms: N_11  and  C_14
    7  A    between atoms: C_14  and  C_22
    8  A    between atoms: C_19  and  C_37
    9  A    between atoms: C_28  and  C_35
   10  A    between atoms: C_28  and  C_39
                            x       y       z     vdW  Elec       q    Type
                         _______ _______ _______ _____ _____    ______ ____

>  <TORSDO>
F 10

$$$$
=
 OpenBabel11052416193D

 43 48  0  0  1  0  0  0  0  0999 V2000
  188.2640  177.2700  145.4440 C   0  0  0  0  0  0  0  0  0  0  0  0
  190.8350  177.2730  141.0430 C   0  0  0  0  0  0  0  0  0  0  0  0
  188.9450  177.1980  138.7840 C   0  0  0  0  0  0  0  0  0  0  0  0
  190.0220  177.2000  143.7390 C   0  0  0  0  0  0  0  0  0  0  0  0
  187.3080  177.5110  144.5460 C   0  0  0  0  0  3  0  0  0  0  0  0
  187.9380  177.1340  146.7510 F   0  0  0  0  0  0  0  0  0  0  0  0
  189.0630  177.4330  142.7260 C   0  0  0  0  0  0  0  0  0  0  0  0
  189.6660  177.1280  145.0240 C   0  0  0  0  0  3  0  0  0  0  0  0
  187.6130  177.6850  143.0820 C   0  0  0  0  0  3  0  0  0  0  0  0
  188.3720  178.2180  140.1460 S   0  0  0  0  0  0  0  0  0  0  0  0
  189.4810  177.5120  141.3800 C   0  0  0  0  0  0  0  0  0  0  0  0
  191.7680  177.0890  142.0730 C   0  0  0  0  0  3  0  0  0  0  0  0
  191.2340  177.1250  139.7610 C   0  0  2  0  0  3  0  0  0  0  0  0
  190.2420  176.9090  138.6790 C   0  0  0  0  0  3  0  0  0  0  0  0
  191.3670  177.0570  143.4070 C   0  0  0  0  0  3  0  0  0  0  0  0
  188.0290  176.7960  137.7530 N   0  0  0  0  0  0  0  0  0  0  0  0
  186.6390  177.0790  137.8080 C   0  0  0  0  0  3  0  0  0  0  0  0
  188.4230  176.0230  136.5810 C   0  0  0  0  0  2  0  0  0  0  0  0
  185.9560  176.6190  136.7800 C   0  0  0  0  0  0  0  0  0  0  0  0
  186.9220  175.7170  135.5810 S   0  0  0  0  0  0  0  0  0  0  0  0
  184.4750  176.7590  136.6660 C   0  0  0  0  0  2  0  0  0  0  0  0
  183.7500  175.7810  137.5970 C   0  0  2  0  0  3  0  0  0  0  0  0
  181.4960  176.5100  137.7210 O   0  0  0  0  0  0  0  0  0  0  0  0
  182.9250  174.8430  136.7670 C   0  0  0  0  0  2  0  0  0  0  0  0
  182.6890  176.4510  138.4650 C   0  0  1  0  0  0  0  0  0  0  0  0
  182.4820  175.6650  139.6020 O   0  0  0  0  0  1  0  0  0  0  0  0
  181.5350  175.4450  136.7970 C   0  0  0  0  0  2  0  0  0  0  0  0
  183.1000  177.8580  138.9150 C   0  0  0  0  0  2  0  0  0  0  0  0
  183.2010  177.9320  140.3630 N   0  0  0  0  0  0  0  0  0  0  0  0
  184.5470  179.0010  142.1550 C   0  0  0  0  0  2  0  0  0  0  0  0
  182.1700  179.0030  142.3410 C   0  0  0  0  0  2  0  0  0  0  0  0
  183.4100  178.4710  142.9080 N   0  0  0  0  0  2  0  0  0  0  0  0
  182.0800  178.7480  140.8280 C   0  0  0  0  0  2  0  0  0  0  0  0
  184.4520  178.6290  140.6660 C   0  0  0  0  0  2  0  0  0  0  0  0
  192.6090  177.0070  139.4880 O   0  0  0  0  0  0  0  0  0  0  0  0
  193.5870  177.1280  137.3830 O   0  0  0  0  0  0  0  0  0  0  0  0
  193.1740  176.4260  138.3450 C   0  0  0  0  0  0  0  0  0  0  0  0
  193.2950  174.9430  138.2710 C   0  0  0  0  0  2  0  0  0  0  0  0
  195.4980  174.9240  140.0560 F   0  0  0  0  0  0  0  0  0  0  0  0
  195.7020  174.5720  138.7590 C   0  0  0  0  0  0  0  0  0  0  0  0
  194.6870  174.5490  137.8880 C   0  0  0  0  0  3  0  0  0  0  0  0
  197.7280  175.2510  137.6380 N   0  0  0  0  0  1  0  0  0  0  0  0
  197.0670  174.1540  138.3250 C   0  0  0  0  0  2  0  0  0  0  0  0
  1  6  1  0  0  0  0
  2 11  2  0  0  0  0
  2 12  1  0  0  0  0
  3 10  1  0  0  0  0
  4  8  2  0  0  0  0
  5  1  2  0  0  0  0
  7  9  2  0  0  0  0
  7  4  1  0  0  0  0
  8  1  1  0  0  0  0
  9  5  1  0  0  0  0
 10 11  1  0  0  0  0
 11  7  1  0  0  0  0
 12 15  2  0  0  0  0
 13 35  1  1  0  0  0
 13  2  1  0  0  0  0
 14  3  2  0  0  0  0
 14 13  1  0  0  0  0
 15  4  1  0  0  0  0
 16 17  1  0  0  0  0
 16  3  1  0  0  0  0
 18 16  1  0  0  0  0
 19 17  2  0  0  0  0
 20 18  1  0  0  0  0
 20 19  1  0  0  0  0
 21 19  1  0  0  0  0
 22 21  1  6  0  0  0
 22 25  1  0  0  0  0
 23 25  1  0  0  0  0
 24 27  1  0  0  0  0
 24 22  1  0  0  0  0
 25 28  1  0  0  0  0
 25 26  1  1  0  0  0
 27 23  1  0  0  0  0
 28 29  1  0  0  0  0
 29 34  1  0  0  0  0
 29 33  1  0  0  0  0
 30 32  1  0  0  0  0
 31 32  1  0  0  0  0
 33 31  1  0  0  0  0
 34 30  1  0  0  0  0
 36 37  2  0  0  0  0
 37 35  1  0  0  0  0
 38 37  1  0  0  0  0
 40 39  1  0  0  0  0
 41 38  1  0  0  0  0
 41 40  2  0  0  0  0
 42 43  1  0  0  0  0
 43 40  1  0  0  0  0
M  END
>  <MODEL>
9

>  <REMARK>
 VINA RESULT:      -8.1      3.814      8.077
  Name = 
  10 active torsions:
  status: ('A' for Active; 'I' for Inactive)
    1  A    between atoms: O_1  and  C_34
    2  A    between atoms: O_1  and  C_35
    3  A    between atoms: N_2  and  C_13
    4  A    between atoms: C_3  and  C_4
    5  A    between atoms: C_3  and  C_12
    6  A    between atoms: N_11  and  C_14
    7  A    between atoms: C_14  and  C_22
    8  A    between atoms: C_19  and  C_37
    9  A    between atoms: C_28  and  C_35
   10  A    between atoms: C_28  and  C_39
                            x       y       z     vdW  Elec       q    Type
                         _______ _______ _______ _____ _____    ______ ____

>  <TORSDO>
F 10

$$$$
