=
 OpenBabel11052414003D

 34 38  0  0  1  0  0  0  0  0999 V2000
  182.8340  178.8510  140.2590 C   0  0  0  0  0  0  0  0  0  0  0  0
  184.6430  178.6170  142.0030 C   0  0  0  0  0  0  0  0  0  0  0  0
  185.1990  178.3690  139.6380 C   0  0  0  0  0  0  0  0  0  0  0  0
  187.3870  178.8870  137.8740 O   0  0  0  0  0  0  0  0  0  0  0  0
  182.6280  180.7650  138.7180 C   0  0  0  0  0  1  0  0  0  0  0  0
  183.7310  178.8220  143.0320 O   0  0  0  0  0  1  0  0  0  0  0  0
  186.8980  178.2650  141.3330 N   0  0  0  0  0  0  0  0  0  0  0  0
  184.2410  178.6000  140.6540 C   0  0  0  0  0  0  0  0  0  0  0  0
  187.6600  178.0840  138.9830 C   0  0  2  0  0  3  0  0  0  0  0  0
  181.8930  178.7720  141.0920 O   0  0  0  0  0  0  0  0  0  0  0  0
  184.7250  178.2420  138.2160 C   0  0  0  0  0  0  0  0  0  0  0  0
  182.5320  179.2560  138.8500 C   0  0  1  0  0  3  0  0  0  0  0  0
  185.9830  178.4350  142.3170 C   0  0  0  0  0  3  0  0  0  0  0  0
  186.9350  178.0040  136.8870 C   0  0  0  0  0  2  0  0  0  0  0  0
  185.5010  177.5180  137.1430 C   0  0  1  0  0  3  0  0  0  0  0  0
  186.5650  178.2510  140.0130 C   0  0  0  0  0  0  0  0  0  0  0  0
  183.4780  178.6030  137.8870 C   0  0  0  0  0  3  0  0  0  0  0  0
  186.4160  173.8250  137.2190 C   0  0  0  0  0  0  0  0  0  0  0  0
  185.1750  173.2740  137.5430 C   0  0  0  0  0  3  0  0  0  0  0  0
  185.4140  176.0280  137.2710 C   0  0  0  0  0  0  0  0  0  0  0  0
  184.0960  174.0840  137.7230 N   0  0  0  0  0  0  0  0  0  0  0  0
  186.5340  175.2080  137.0840 C   0  0  0  0  0  3  0  0  0  0  0  0
  184.1910  175.4360  137.5950 C   0  0  0  0  0  3  0  0  0  0  0  0
  187.4940  173.0260  137.0400 F   0  0  0  0  0  0  0  0  0  0  0  0
  189.0420  178.4310  139.5220 C   0  0  0  0  0  2  0  0  0  0  0  0
  189.8390  177.1620  139.7630 C   0  0  0  0  0  2  0  0  0  0  0  0
  190.8960  177.3940  140.8320 C   0  0  0  0  0  2  0  0  0  0  0  0
  190.3720  175.2990  142.8440 O   0  0  0  0  0  1  0  0  0  0  0  0
  190.2530  177.6200  142.1950 C   0  0  1  0  0  3  0  0  0  0  0  0
  189.4980  176.3780  142.6950 C   0  0  2  0  0  3  0  0  0  0  0  0
  189.3800  177.8160  144.8260 C   0  0  0  0  0  2  0  0  0  0  0  0
  190.8960  177.8700  144.6650 C   0  0  0  0  0  2  0  0  0  0  0  0
  191.3010  178.1090  143.2050 C   0  0  0  0  0  2  0  0  0  0  0  0
  188.7830  176.6480  144.0280 C   0  0  0  0  0  2  0  0  0  0  0  0
  1  8  1  0  0  0  0
  1 10  2  0  0  0  0
  2 13  1  0  0  0  0
  2  6  1  0  0  0  0
  3 16  2  0  0  0  0
  3  8  1  0  0  0  0
  4  9  1  0  0  0  0
  7 13  2  0  0  0  0
  8  2  2  0  0  0  0
  9 25  1  1  0  0  0
  9 16  1  0  0  0  0
 11  3  1  0  0  0  0
 12  5  1  1  0  0  0
 12  1  1  0  0  0  0
 14 15  1  0  0  0  0
 14  4  1  0  0  0  0
 15 20  1  1  0  0  0
 15 11  1  0  0  0  0
 16  7  1  0  0  0  0
 17 11  2  0  0  0  0
 17 12  1  0  0  0  0
 18 19  1  0  0  0  0
 19 21  2  0  0  0  0
 20 23  2  0  0  0  0
 22 18  2  0  0  0  0
 22 20  1  0  0  0  0
 23 21  1  0  0  0  0
 24 18  1  0  0  0  0
 25 26  1  0  0  0  0
 26 27  1  0  0  0  0
 29 27  1  6  0  0  0
 29 30  1  0  0  0  0
 29 33  1  0  0  0  0
 30 28  1  1  0  0  0
 30 34  1  0  0  0  0
 32 31  1  0  0  0  0
 33 32  1  0  0  0  0
 34 31  1  0  0  0  0
M  END
>  <MODEL>
1

>  <REMARK>
 VINA RESULT:      -8.1      0.000      0.000
  Name = 
  5 active torsions:
  status: ('A' for Active; 'I' for Inactive)
    1  A    between atoms: C_3  and  C_13
    2  A    between atoms: C_3  and  C_17
    3  A    between atoms: C_12  and  C_28
    4  A    between atoms: C_17  and  C_29
    5  A    between atoms: C_18  and  C_29
                            x       y       z     vdW  Elec       q    Type
                         _______ _______ _______ _____ _____    ______ ____

>  <TORSDO>
F 5

$$$$
=
 OpenBabel11052414003D

 34 38  0  0  1  0  0  0  0  0999 V2000
  183.8690  176.2370  136.2100 C   0  0  0  0  0  0  0  0  0  0  0  0
  185.9830  177.5220  136.7100 C   0  0  0  0  0  0  0  0  0  0  0  0
  184.1340  177.5630  138.3040 C   0  0  0  0  0  0  0  0  0  0  0  0
  183.7260  177.7250  141.1280 O   0  0  0  0  0  0  0  0  0  0  0  0
  183.1840  174.1790  137.3840 C   0  0  0  0  0  1  0  0  0  0  0  0
  186.5510  177.1330  135.5030 O   0  0  0  0  0  1  0  0  0  0  0  0
  186.2080  178.6780  138.7780 N   0  0  0  0  0  0  0  0  0  0  0  0
  184.6810  177.1290  137.0730 C   0  0  0  0  0  0  0  0  0  0  0  0
  184.4780  178.7500  140.5490 C   0  0  2  0  0  3  0  0  0  0  0  0
  184.1590  176.0530  134.9990 O   0  0  0  0  0  0  0  0  0  0  0  0
  182.7010  177.2240  138.6140 C   0  0  0  0  0  0  0  0  0  0  0  0
  182.7100  175.5000  136.8060 C   0  0  1  0  0  3  0  0  0  0  0  0
  186.7250  178.3100  137.5810 C   0  0  0  0  0  3  0  0  0  0  0  0
  182.3950  178.1430  141.0160 C   0  0  0  0  0  2  0  0  0  0  0  0
  181.8520  178.0080  139.5860 C   0  0  1  0  0  3  0  0  0  0  0  0
  184.9590  178.3160  139.1830 C   0  0  0  0  0  0  0  0  0  0  0  0
  182.0500  176.3140  137.8790 C   0  0  0  0  0  3  0  0  0  0  0  0
  181.0040  180.8190  137.1650 C   0  0  0  0  0  0  0  0  0  0  0  0
  180.4880  181.7600  138.0570 C   0  0  0  0  0  3  0  0  0  0  0  0
  181.3870  179.3160  139.0230 C   0  0  0  0  0  0  0  0  0  0  0  0
  180.4290  181.4770  139.3870 N   0  0  0  0  0  0  0  0  0  0  0  0
  181.4540  179.5910  137.6520 C   0  0  0  0  0  3  0  0  0  0  0  0
  180.8640  180.2860  139.8820 C   0  0  0  0  0  3  0  0  0  0  0  0
  181.0650  181.0930  135.8400 F   0  0  0  0  0  0  0  0  0  0  0  0
  185.6160  179.1250  141.4890 C   0  0  0  0  0  2  0  0  0  0  0  0
  185.5480  178.2810  142.7500 C   0  0  0  0  0  2  0  0  0  0  0  0
  186.8540  177.5310  142.9570 C   0  0  0  0  0  2  0  0  0  0  0  0
  189.1760  178.5700  144.4560 O   0  0  0  0  0  1  0  0  0  0  0  0
  187.1230  177.3010  144.4400 C   0  0  1  0  0  3  0  0  0  0  0  0
  188.6240  177.3250  144.7700 C   0  0  2  0  0  3  0  0  0  0  0  0
  187.6790  177.2720  147.1620 C   0  0  0  0  0  2  0  0  0  0  0  0
  186.9010  178.4990  146.6960 C   0  0  0  0  0  2  0  0  0  0  0  0
  186.3250  178.3020  145.2880 C   0  0  0  0  0  2  0  0  0  0  0  0
  188.8840  177.0060  146.2500 C   0  0  0  0  0  2  0  0  0  0  0  0
  1 12  1  0  0  0  0
  1  8  1  0  0  0  0
  2  8  2  0  0  0  0
  2 13  1  0  0  0  0
  3 11  1  0  0  0  0
  3 16  2  0  0  0  0
  6  2  1  0  0  0  0
  7 16  1  0  0  0  0
  8  3  1  0  0  0  0
  9  4  1  0  0  0  0
  9 25  1  1  0  0  0
 10  1  2  0  0  0  0
 11 15  1  0  0  0  0
 12  5  1  1  0  0  0
 12 17  1  0  0  0  0
 13  7  2  0  0  0  0
 14  4  1  0  0  0  0
 15 20  1  6  0  0  0
 15 14  1  0  0  0  0
 16  9  1  0  0  0  0
 17 11  2  0  0  0  0
 18 22  2  0  0  0  0
 18 19  1  0  0  0  0
 19 21  2  0  0  0  0
 20 23  2  0  0  0  0
 21 23  1  0  0  0  0
 22 20  1  0  0  0  0
 24 18  1  0  0  0  0
 25 26  1  0  0  0  0
 26 27  1  0  0  0  0
 29 27  1  6  0  0  0
 29 30  1  0  0  0  0
 29 33  1  0  0  0  0
 30 28  1  1  0  0  0
 30 34  1  0  0  0  0
 32 31  1  0  0  0  0
 33 32  1  0  0  0  0
 34 31  1  0  0  0  0
M  END
>  <MODEL>
2

>  <REMARK>
 VINA RESULT:      -7.7      3.008      5.497
  Name = 
  5 active torsions:
  status: ('A' for Active; 'I' for Inactive)
    1  A    between atoms: C_3  and  C_13
    2  A    between atoms: C_3  and  C_17
    3  A    between atoms: C_12  and  C_28
    4  A    between atoms: C_17  and  C_29
    5  A    between atoms: C_18  and  C_29
                            x       y       z     vdW  Elec       q    Type
                         _______ _______ _______ _____ _____    ______ ____

>  <TORSDO>
F 5

$$$$
=
 OpenBabel11052414003D

 34 38  0  0  1  0  0  0  0  0999 V2000
  191.0570  174.3660  137.1430 C   0  0  0  0  0  0  0  0  0  0  0  0
  188.6360  173.8960  136.6080 C   0  0  0  0  0  0  0  0  0  0  0  0
  189.2500  175.9870  137.7080 C   0  0  0  0  0  0  0  0  0  0  0  0
  188.3890  178.7110  137.7950 O   0  0  0  0  0  0  0  0  0  0  0  0
  192.4400  176.0380  135.9700 C   0  0  0  0  0  1  0  0  0  0  0  0
  188.9560  172.6540  136.0710 O   0  0  0  0  0  1  0  0  0  0  0  0
  186.9770  175.5350  137.0770 N   0  0  0  0  0  0  0  0  0  0  0  0
  189.6220  174.7380  137.1550 C   0  0  0  0  0  0  0  0  0  0  0  0
  187.4280  177.7450  138.1020 C   0  0  2  0  0  3  0  0  0  0  0  0
  191.4270  173.1790  136.9440 O   0  0  0  0  0  0  0  0  0  0  0  0
  190.3060  176.8150  138.3900 C   0  0  0  0  0  0  0  0  0  0  0  0
  192.0910  175.4350  137.3190 C   0  0  1  0  0  3  0  0  0  0  0  0
  187.3130  174.3160  136.5910 C   0  0  0  0  0  3  0  0  0  0  0  0
  189.0310  178.9830  139.0080 C   0  0  0  0  0  2  0  0  0  0  0  0
  189.9960  177.8650  139.4300 C   0  0  1  0  0  3  0  0  0  0  0  0
  187.8920  176.3930  137.6090 C   0  0  0  0  0  0  0  0  0  0  0  0
  191.6010  176.5100  138.2420 C   0  0  0  0  0  3  0  0  0  0  0  0
  190.1740  175.9250  142.6990 C   0  0  0  0  0  0  0  0  0  0  0  0
  188.9220  176.2360  143.2330 C   0  0  0  0  0  3  0  0  0  0  0  0
  189.6440  177.2760  140.7610 C   0  0  0  0  0  0  0  0  0  0  0  0
  188.0680  177.0410  142.5450 N   0  0  0  0  0  0  0  0  0  0  0  0
  190.5350  176.4490  141.4570 C   0  0  0  0  0  3  0  0  0  0  0  0
  188.4010  177.5620  141.3320 C   0  0  0  0  0  3  0  0  0  0  0  0
  191.0290  175.1250  143.3780 F   0  0  0  0  0  0  0  0  0  0  0  0
  186.0900  178.1680  137.5090 C   0  0  0  0  0  2  0  0  0  0  0  0
  184.9700  177.8700  138.4900 C   0  0  0  0  0  2  0  0  0  0  0  0
  184.1770  179.1320  138.7880 C   0  0  0  0  0  2  0  0  0  0  0  0
  182.5180  177.2080  140.2920 O   0  0  0  0  0  1  0  0  0  0  0  0
  183.8390  179.2270  140.2720 C   0  0  1  0  0  3  0  0  0  0  0  0
  182.4910  178.5700  140.6050 C   0  0  2  0  0  3  0  0  0  0  0  0
  183.3300  179.0200  142.9950 C   0  0  0  0  0  2  0  0  0  0  0  0
  184.5530  178.2380  142.5280 C   0  0  0  0  0  2  0  0  0  0  0  0
  184.9880  178.6600  141.1180 C   0  0  0  0  0  2  0  0  0  0  0  0
  182.1230  178.7490  142.0860 C   0  0  0  0  0  2  0  0  0  0  0  0
  1  8  1  0  0  0  0
  1 12  1  0  0  0  0
  2  8  1  0  0  0  0
  3 11  1  0  0  0  0
  4  9  1  0  0  0  0
  4 14  1  0  0  0  0
  6  2  1  0  0  0  0
  7 16  2  0  0  0  0
  8  3  2  0  0  0  0
  9 25  1  6  0  0  0
 10  1  2  0  0  0  0
 11 15  1  0  0  0  0
 12  5  1  6  0  0  0
 12 17  1  0  0  0  0
 13  2  2  0  0  0  0
 13  7  1  0  0  0  0
 14 15  1  0  0  0  0
 15 20  1  1  0  0  0
 16  3  1  0  0  0  0
 16  9  1  0  0  0  0
 17 11  2  0  0  0  0
 18 19  1  0  0  0  0
 18 24  1  0  0  0  0
 20 23  2  0  0  0  0
 20 22  1  0  0  0  0
 21 19  2  0  0  0  0
 22 18  2  0  0  0  0
 23 21  1  0  0  0  0
 25 26  1  0  0  0  0
 26 27  1  0  0  0  0
 29 27  1  6  0  0  0
 29 30  1  0  0  0  0
 29 33  1  0  0  0  0
 30 28  1  1  0  0  0
 30 34  1  0  0  0  0
 32 31  1  0  0  0  0
 33 32  1  0  0  0  0
 34 31  1  0  0  0  0
M  END
>  <MODEL>
3

>  <REMARK>
 VINA RESULT:      -7.6      2.818      7.130
  Name = 
  5 active torsions:
  status: ('A' for Active; 'I' for Inactive)
    1  A    between atoms: C_3  and  C_13
    2  A    between atoms: C_3  and  C_17
    3  A    between atoms: C_12  and  C_28
    4  A    between atoms: C_17  and  C_29
    5  A    between atoms: C_18  and  C_29
                            x       y       z     vdW  Elec       q    Type
                         _______ _______ _______ _____ _____    ______ ____

>  <TORSDO>
F 5

$$$$
=
 OpenBabel11052414003D

 34 38  0  0  1  0  0  0  0  0999 V2000
  191.0520  174.4070  137.1030 C   0  0  0  0  0  0  0  0  0  0  0  0
  188.6230  173.9420  136.6000 C   0  0  0  0  0  0  0  0  0  0  0  0
  189.2540  176.0210  137.7140 C   0  0  0  0  0  0  0  0  0  0  0  0
  188.3940  178.7430  137.8440 O   0  0  0  0  0  0  0  0  0  0  0  0
  192.4170  176.0920  135.9280 C   0  0  0  0  0  1  0  0  0  0  0  0
  188.9340  172.7060  136.0440 O   0  0  0  0  0  1  0  0  0  0  0  0
  186.9710  175.5750  137.1130 N   0  0  0  0  0  0  0  0  0  0  0  0
  189.6170  174.7780  137.1410 C   0  0  0  0  0  0  0  0  0  0  0  0
  187.4380  177.7730  138.1550 C   0  0  2  0  0  3  0  0  0  0  0  0
  191.4180  173.2210  136.8850 O   0  0  0  0  0  0  0  0  0  0  0  0
  190.3190  176.8410  138.3890 C   0  0  0  0  0  0  0  0  0  0  0  0
  192.0880  175.4730  137.2750 C   0  0  1  0  0  3  0  0  0  0  0  0
  187.2990  174.3620  136.6070 C   0  0  0  0  0  3  0  0  0  0  0  0
  189.0550  179.0020  139.0500 C   0  0  0  0  0  2  0  0  0  0  0  0
  190.0250  177.8790  139.4440 C   0  0  1  0  0  3  0  0  0  0  0  0
  187.8940  176.4270  137.6400 C   0  0  0  0  0  0  0  0  0  0  0  0
  191.6120  176.5380  138.2170 C   0  0  0  0  0  3  0  0  0  0  0  0
  188.2250  176.9900  142.6770 C   0  0  0  0  0  0  0  0  0  0  0  0
  189.1460  176.0990  143.2300 C   0  0  0  0  0  3  0  0  0  0  0  0
  189.6940  177.2750  140.7740 C   0  0  0  0  0  0  0  0  0  0  0  0
  190.2990  175.8140  142.5680 N   0  0  0  0  0  0  0  0  0  0  0  0
  188.5010  177.5790  141.4430 C   0  0  0  0  0  3  0  0  0  0  0  0
  190.5890  176.3780  141.3630 C   0  0  0  0  0  3  0  0  0  0  0  0
  187.0740  177.2790  143.3290 F   0  0  0  0  0  0  0  0  0  0  0  0
  186.0910  178.2020  137.5870 C   0  0  0  0  0  2  0  0  0  0  0  0
  184.9840  177.8840  138.5780 C   0  0  0  0  0  2  0  0  0  0  0  0
  184.1050  179.1040  138.8000 C   0  0  0  0  0  2  0  0  0  0  0  0
  182.4030  177.1460  140.2080 O   0  0  0  0  0  1  0  0  0  0  0  0
  183.6650  179.2020  140.2560 C   0  0  1  0  0  3  0  0  0  0  0  0
  182.3160  178.5090  140.5040 C   0  0  2  0  0  3  0  0  0  0  0  0
  182.9770  179.0030  142.9410 C   0  0  0  0  0  2  0  0  0  0  0  0
  184.2520  178.2530  142.5650 C   0  0  0  0  0  2  0  0  0  0  0  0
  184.7690  178.6750  141.1840 C   0  0  0  0  0  2  0  0  0  0  0  0
  181.8440  178.6900  141.9550 C   0  0  0  0  0  2  0  0  0  0  0  0
  1  8  1  0  0  0  0
  1 12  1  0  0  0  0
  2 13  2  0  0  0  0
  2  8  1  0  0  0  0
  3 11  1  0  0  0  0
  4  9  1  0  0  0  0
  4 14  1  0  0  0  0
  6  2  1  0  0  0  0
  7 16  2  0  0  0  0
  8  3  2  0  0  0  0
  9 25  1  6  0  0  0
 10  1  2  0  0  0  0
 11 15  1  0  0  0  0
 12  5  1  6  0  0  0
 12 17  1  0  0  0  0
 13  7  1  0  0  0  0
 14 15  1  0  0  0  0
 15 20  1  1  0  0  0
 16  3  1  0  0  0  0
 16  9  1  0  0  0  0
 17 11  2  0  0  0  0
 18 19  1  0  0  0  0
 18 24  1  0  0  0  0
 20 23  2  0  0  0  0
 20 22  1  0  0  0  0
 21 19  2  0  0  0  0
 22 18  2  0  0  0  0
 23 21  1  0  0  0  0
 25 26  1  0  0  0  0
 26 27  1  0  0  0  0
 29 27  1  6  0  0  0
 29 30  1  0  0  0  0
 29 33  1  0  0  0  0
 30 28  1  1  0  0  0
 30 34  1  0  0  0  0
 32 31  1  0  0  0  0
 33 32  1  0  0  0  0
 34 31  1  0  0  0  0
M  END
>  <MODEL>
4

>  <REMARK>
 VINA RESULT:      -7.6      2.909      7.221
  Name = 
  5 active torsions:
  status: ('A' for Active; 'I' for Inactive)
    1  A    between atoms: C_3  and  C_13
    2  A    between atoms: C_3  and  C_17
    3  A    between atoms: C_12  and  C_28
    4  A    between atoms: C_17  and  C_29
    5  A    between atoms: C_18  and  C_29
                            x       y       z     vdW  Elec       q    Type
                         _______ _______ _______ _____ _____    ______ ____

>  <TORSDO>
F 5

$$$$
=
 OpenBabel11052414003D

 34 38  0  0  1  0  0  0  0  0999 V2000
  180.2730  180.1600  139.3740 C   0  0  0  0  0  0  0  0  0  0  0  0
  180.4120  179.4010  141.7770 C   0  0  0  0  0  0  0  0  0  0  0  0
  182.3730  179.2220  140.3330 C   0  0  0  0  0  0  0  0  0  0  0  0
  185.2190  179.3830  140.5340 O   0  0  0  0  0  0  0  0  0  0  0  0
  181.3660  182.1870  138.4910 C   0  0  0  0  0  1  0  0  0  0  0  0
  179.0770  179.7210  141.9960 O   0  0  0  0  0  1  0  0  0  0  0  0
  182.4790  178.6170  142.6550 N   0  0  0  0  0  0  0  0  0  0  0  0
  181.0150  179.5780  140.5170 C   0  0  0  0  0  0  0  0  0  0  0  0
  184.5890  178.4560  141.3670 C   0  0  2  0  0  3  0  0  0  0  0  0
  179.0150  180.2250  139.3720 O   0  0  0  0  0  0  0  0  0  0  0  0
  182.9600  179.3120  138.9500 C   0  0  0  0  0  0  0  0  0  0  0  0
  181.0370  180.7300  138.2200 C   0  0  1  0  0  3  0  0  0  0  0  0
  181.1680  178.9070  142.8320 C   0  0  0  0  0  3  0  0  0  0  0  0
  185.4460  178.6990  139.3340 C   0  0  0  0  0  2  0  0  0  0  0  0
  184.1660  178.5210  138.5060 C   0  0  1  0  0  3  0  0  0  0  0  0
  183.1150  178.7790  141.4610 C   0  0  0  0  0  0  0  0  0  0  0  0
  182.3030  179.9620  137.9810 C   0  0  0  0  0  3  0  0  0  0  0  0
  182.3800  175.1620  138.3900 C   0  0  0  0  0  0  0  0  0  0  0  0
  183.3300  174.4060  137.7010 C   0  0  0  0  0  3  0  0  0  0  0  0
  183.8490  177.0810  138.2420 C   0  0  0  0  0  0  0  0  0  0  0  0
  184.4970  174.9800  137.3000 N   0  0  0  0  0  0  0  0  0  0  0  0
  182.6420  176.5050  138.6600 C   0  0  0  0  0  3  0  0  0  0  0  0
  184.7720  176.2890  137.5540 C   0  0  0  0  0  3  0  0  0  0  0  0
  181.2170  174.5990  138.7910 F   0  0  0  0  0  0  0  0  0  0  0  0
  185.2850  178.4490  142.7220 C   0  0  0  0  0  2  0  0  0  0  0  0
  186.4730  177.5040  142.6910 C   0  0  0  0  0  2  0  0  0  0  0  0
  187.2870  177.6340  143.9680 C   0  0  0  0  0  2  0  0  0  0  0  0
  189.4260  177.1350  145.9410 O   0  0  0  0  0  1  0  0  0  0  0  0
  188.7820  177.6210  143.6670 C   0  0  1  0  0  3  0  0  0  0  0  0
  189.6240  178.0290  144.8850 C   0  0  2  0  0  3  0  0  0  0  0  0
  191.5140  177.2580  143.3200 C   0  0  0  0  0  2  0  0  0  0  0  0
  190.6990  175.9700  143.2540 C   0  0  0  0  0  2  0  0  0  0  0  0
  189.2000  176.2570  143.1000 C   0  0  0  0  0  2  0  0  0  0  0  0
  191.1200  178.0960  144.5440 C   0  0  0  0  0  2  0  0  0  0  0  0
  1  8  1  0  0  0  0
  2  6  1  0  0  0  0
  2 13  1  0  0  0  0
  3  8  1  0  0  0  0
  3 16  2  0  0  0  0
  4  9  1  0  0  0  0
  7 13  2  0  0  0  0
  8  2  2  0  0  0  0
  9 16  1  0  0  0  0
  9 25  1  1  0  0  0
 10  1  2  0  0  0  0
 11  3  1  0  0  0  0
 12  5  1  1  0  0  0
 12  1  1  0  0  0  0
 14  4  1  0  0  0  0
 15 20  1  1  0  0  0
 15 11  1  0  0  0  0
 15 14  1  0  0  0  0
 16  7  1  0  0  0  0
 17 12  1  0  0  0  0
 17 11  2  0  0  0  0
 18 22  1  0  0  0  0
 18 24  1  0  0  0  0
 19 18  2  0  0  0  0
 20 22  2  0  0  0  0
 21 23  2  0  0  0  0
 21 19  1  0  0  0  0
 23 20  1  0  0  0  0
 26 25  1  0  0  0  0
 26 27  1  0  0  0  0
 29 27  1  1  0  0  0
 29 30  1  0  0  0  0
 30 28  1  1  0  0  0
 31 34  1  0  0  0  0
 32 31  1  0  0  0  0
 33 32  1  0  0  0  0
 33 29  1  0  0  0  0
 34 30  1  0  0  0  0
M  END
>  <MODEL>
5

>  <REMARK>
 VINA RESULT:      -7.3      2.374      3.507
  Name = 
  5 active torsions:
  status: ('A' for Active; 'I' for Inactive)
    1  A    between atoms: C_3  and  C_13
    2  A    between atoms: C_3  and  C_17
    3  A    between atoms: C_12  and  C_28
    4  A    between atoms: C_17  and  C_29
    5  A    between atoms: C_18  and  C_29
                            x       y       z     vdW  Elec       q    Type
                         _______ _______ _______ _____ _____    ______ ____

>  <TORSDO>
F 5

$$$$
=
 OpenBabel11052414003D

 34 38  0  0  1  0  0  0  0  0999 V2000
  180.0850  179.2490  140.6160 C   0  0  0  0  0  0  0  0  0  0  0  0
  181.2350  178.7060  142.7950 C   0  0  0  0  0  0  0  0  0  0  0  0
  182.5500  178.9100  140.7490 C   0  0  0  0  0  0  0  0  0  0  0  0
  185.1530  179.7650  139.9360 O   0  0  0  0  0  0  0  0  0  0  0  0
  180.2620  181.4170  139.4530 C   0  0  0  0  0  1  0  0  0  0  0  0
  180.0250  178.7090  143.4790 O   0  0  0  0  0  1  0  0  0  0  0  0
  183.6040  178.5030  142.8680 N   0  0  0  0  0  0  0  0  0  0  0  0
  181.2980  178.9390  141.4090 C   0  0  0  0  0  0  0  0  0  0  0  0
  185.1030  178.7700  140.9150 C   0  0  2  0  0  3  0  0  0  0  0  0
  178.9310  179.0090  141.0590 O   0  0  0  0  0  0  0  0  0  0  0  0
  182.5770  179.0470  139.2500 C   0  0  0  0  0  0  0  0  0  0  0  0
  180.2320  179.9090  139.2800 C   0  0  1  0  0  3  0  0  0  0  0  0
  182.4080  178.4790  143.5040 C   0  0  0  0  0  3  0  0  0  0  0  0
  185.1110  179.0780  138.7170 C   0  0  0  0  0  2  0  0  0  0  0  0
  183.7100  178.5420  138.3900 C   0  0  1  0  0  3  0  0  0  0  0  0
  183.7230  178.7340  141.5310 C   0  0  0  0  0  0  0  0  0  0  0  0
  181.4850  179.4540  138.5920 C   0  0  0  0  0  3  0  0  0  0  0  0
  184.6100  175.0000  137.3310 C   0  0  0  0  0  0  0  0  0  0  0  0
  183.5920  174.2900  137.9700 C   0  0  0  0  0  3  0  0  0  0  0  0
  183.6900  177.0540  138.2210 C   0  0  0  0  0  0  0  0  0  0  0  0
  182.6600  174.9510  138.7070 N   0  0  0  0  0  0  0  0  0  0  0  0
  184.6580  176.3880  137.4590 C   0  0  0  0  0  3  0  0  0  0  0  0
  182.6880  176.3050  138.8440 C   0  0  0  0  0  3  0  0  0  0  0  0
  185.5430  174.3480  136.5960 F   0  0  0  0  0  0  0  0  0  0  0  0
  186.2050  179.0210  141.9360 C   0  0  0  0  0  2  0  0  0  0  0  0
  186.3130  177.8390  142.8840 C   0  0  0  0  0  2  0  0  0  0  0  0
  187.7720  177.5000  143.1450 C   0  0  0  0  0  2  0  0  0  0  0  0
  189.9120  178.6270  144.8360 O   0  0  0  0  0  1  0  0  0  0  0  0
  188.0020  177.1700  144.6150 C   0  0  1  0  0  3  0  0  0  0  0  0
  189.4770  177.3120  145.0190 C   0  0  2  0  0  3  0  0  0  0  0  0
  188.4460  176.9600  147.3500 C   0  0  0  0  0  2  0  0  0  0  0  0
  187.5670  178.1400  146.9480 C   0  0  0  0  0  2  0  0  0  0  0  0
  187.0720  178.0110  145.5020 C   0  0  0  0  0  2  0  0  0  0  0  0
  189.7090  176.8930  146.4790 C   0  0  0  0  0  2  0  0  0  0  0  0
  1 10  2  0  0  0  0
  1  8  1  0  0  0  0
  2  6  1  0  0  0  0
  2 13  1  0  0  0  0
  3  8  1  0  0  0  0
  3 16  2  0  0  0  0
  4  9  1  0  0  0  0
  7 13  2  0  0  0  0
  8  2  2  0  0  0  0
  9 16  1  0  0  0  0
  9 25  1  1  0  0  0
 11  3  1  0  0  0  0
 12  5  1  1  0  0  0
 12  1  1  0  0  0  0
 14  4  1  0  0  0  0
 15 20  1  1  0  0  0
 15 14  1  0  0  0  0
 15 11  1  0  0  0  0
 16  7  1  0  0  0  0
 17 11  2  0  0  0  0
 17 12  1  0  0  0  0
 18 22  2  0  0  0  0
 18 19  1  0  0  0  0
 19 21  2  0  0  0  0
 20 23  2  0  0  0  0
 21 23  1  0  0  0  0
 22 20  1  0  0  0  0
 24 18  1  0  0  0  0
 25 26  1  0  0  0  0
 26 27  1  0  0  0  0
 29 27  1  6  0  0  0
 29 30  1  0  0  0  0
 29 33  1  0  0  0  0
 30 28  1  1  0  0  0
 30 34  1  0  0  0  0
 32 31  1  0  0  0  0
 33 32  1  0  0  0  0
 34 31  1  0  0  0  0
M  END
>  <MODEL>
6

>  <REMARK>
 VINA RESULT:      -7.1      2.299      3.109
  Name = 
  5 active torsions:
  status: ('A' for Active; 'I' for Inactive)
    1  A    between atoms: C_3  and  C_13
    2  A    between atoms: C_3  and  C_17
    3  A    between atoms: C_12  and  C_28
    4  A    between atoms: C_17  and  C_29
    5  A    between atoms: C_18  and  C_29
                            x       y       z     vdW  Elec       q    Type
                         _______ _______ _______ _____ _____    ______ ____

>  <TORSDO>
F 5

$$$$
=
 OpenBabel11052414003D

 34 38  0  0  1  0  0  0  0  0999 V2000
  183.0000  178.7260  140.2880 C   0  0  0  0  0  0  0  0  0  0  0  0
  185.1370  178.8280  141.6260 C   0  0  0  0  0  0  0  0  0  0  0  0
  185.2260  178.3460  139.2340 C   0  0  0  0  0  0  0  0  0  0  0  0
  186.9540  178.8080  137.0060 O   0  0  0  0  0  0  0  0  0  0  0  0
  182.3080  180.4270  138.6430 C   0  0  0  0  0  1  0  0  0  0  0  0
  184.4360  179.0860  142.7990 O   0  0  0  0  0  1  0  0  0  0  0  0
  187.2340  178.5620  140.5350 N   0  0  0  0  0  0  0  0  0  0  0  0
  184.4750  178.6250  140.4010 C   0  0  0  0  0  0  0  0  0  0  0  0
  187.5190  178.1620  138.1070 C   0  0  2  0  0  3  0  0  0  0  0  0
  182.2580  178.6780  141.3050 O   0  0  0  0  0  0  0  0  0  0  0  0
  184.4890  178.0190  137.9640 C   0  0  0  0  0  0  0  0  0  0  0  0
  182.3830  178.9410  138.9420 C   0  0  1  0  0  3  0  0  0  0  0  0
  186.5240  178.7810  141.6680 C   0  0  0  0  0  3  0  0  0  0  0  0
  186.3970  177.7850  136.2300 C   0  0  0  0  0  2  0  0  0  0  0  0
  185.0970  177.2310  136.8290 C   0  0  1  0  0  3  0  0  0  0  0  0
  186.6440  178.3700  139.3220 C   0  0  0  0  0  0  0  0  0  0  0  0
  183.1730  178.2490  137.8710 C   0  0  0  0  0  3  0  0  0  0  0  0
  186.4120  173.6850  137.2520 C   0  0  0  0  0  0  0  0  0  0  0  0
  185.2530  173.0490  137.6990 C   0  0  0  0  0  3  0  0  0  0  0  0
  185.1790  175.7640  137.1210 C   0  0  0  0  0  0  0  0  0  0  0  0
  184.1010  173.7570  137.8480 N   0  0  0  0  0  0  0  0  0  0  0  0
  186.3730  175.0500  136.9630 C   0  0  0  0  0  3  0  0  0  0  0  0
  184.0420  175.0880  137.5710 C   0  0  0  0  0  3  0  0  0  0  0  0
  187.5620  172.9870  137.1020 F   0  0  0  0  0  0  0  0  0  0  0  0
  188.9430  178.6680  138.3050 C   0  0  0  0  0  2  0  0  0  0  0  0
  189.9270  177.7280  137.6290 C   0  0  0  0  0  2  0  0  0  0  0  0
  189.6630  176.2920  138.0510 C   0  0  0  0  0  2  0  0  0  0  0  0
  190.4320  174.9510  135.5370 O   0  0  0  0  0  1  0  0  0  0  0  0
  190.9040  175.4290  137.8540 C   0  0  1  0  0  3  0  0  0  0  0  0
  190.7010  174.3570  136.7730 C   0  0  2  0  0  3  0  0  0  0  0  0
  193.2270  174.0680  137.1670 C   0  0  0  0  0  2  0  0  0  0  0  0
  193.2680  175.5640  136.8710 C   0  0  0  0  0  2  0  0  0  0  0  0
  192.1290  176.3120  137.5760 C   0  0  0  0  0  2  0  0  0  0  0  0
  191.9270  173.4400  136.6450 C   0  0  0  0  0  2  0  0  0  0  0  0
  1  8  1  0  0  0  0
  1 10  2  0  0  0  0
  2 13  1  0  0  0  0
  2  6  1  0  0  0  0
  3 16  2  0  0  0  0
  3  8  1  0  0  0  0
  4  9  1  0  0  0  0
  7 13  2  0  0  0  0
  8  2  2  0  0  0  0
  9 25  1  1  0  0  0
  9 16  1  0  0  0  0
 11  3  1  0  0  0  0
 12  5  1  6  0  0  0
 12  1  1  0  0  0  0
 14 15  1  0  0  0  0
 14  4  1  0  0  0  0
 15 20  1  1  0  0  0
 15 11  1  0  0  0  0
 16  7  1  0  0  0  0
 17 11  2  0  0  0  0
 17 12  1  0  0  0  0
 18 19  1  0  0  0  0
 19 21  2  0  0  0  0
 20 23  2  0  0  0  0
 22 20  1  0  0  0  0
 22 18  2  0  0  0  0
 23 21  1  0  0  0  0
 24 18  1  0  0  0  0
 26 27  1  0  0  0  0
 26 25  1  0  0  0  0
 29 27  1  6  0  0  0
 30 28  1  6  0  0  0
 30 29  1  0  0  0  0
 32 31  1  0  0  0  0
 32 33  1  0  0  0  0
 33 29  1  0  0  0  0
 34 30  1  0  0  0  0
 34 31  1  0  0  0  0
M  END
>  <MODEL>
7

>  <REMARK>
 VINA RESULT:      -7.1      2.384      3.483
  Name = 
  5 active torsions:
  status: ('A' for Active; 'I' for Inactive)
    1  A    between atoms: C_3  and  C_13
    2  A    between atoms: C_3  and  C_17
    3  A    between atoms: C_12  and  C_28
    4  A    between atoms: C_17  and  C_29
    5  A    between atoms: C_18  and  C_29
                            x       y       z     vdW  Elec       q    Type
                         _______ _______ _______ _____ _____    ______ ____

>  <TORSDO>
F 5

$$$$
=
 OpenBabel11052414003D

 34 38  0  0  1  0  0  0  0  0999 V2000
  184.8440  175.9510  135.9750 C   0  0  0  0  0  0  0  0  0  0  0  0
  186.6460  177.3960  136.9910 C   0  0  0  0  0  0  0  0  0  0  0  0
  184.4220  177.3460  137.9970 C   0  0  0  0  0  0  0  0  0  0  0  0
  183.2210  177.5510  140.5820 O   0  0  0  0  0  0  0  0  0  0  0  0
  183.9800  173.8810  136.9990 C   0  0  0  0  0  1  0  0  0  0  0  0
  187.5560  177.0160  136.0120 O   0  0  0  0  0  1  0  0  0  0  0  0
  186.2050  178.6160  138.9850 N   0  0  0  0  0  0  0  0  0  0  0  0
  185.3220  176.9200  136.9910 C   0  0  0  0  0  0  0  0  0  0  0  0
  184.0430  178.6110  140.1930 C   0  0  2  0  0  3  0  0  0  0  0  0
  185.4760  175.7570  134.9040 O   0  0  0  0  0  0  0  0  0  0  0  0
  182.9840  176.9140  137.9070 C   0  0  0  0  0  0  0  0  0  0  0  0
  183.6100  175.1500  136.2530 C   0  0  1  0  0  3  0  0  0  0  0  0
  187.0620  178.2560  138.0000 C   0  0  0  0  0  3  0  0  0  0  0  0
  181.9540  177.8700  140.0820 C   0  0  0  0  0  2  0  0  0  0  0  0
  181.8490  177.6610  138.5640 C   0  0  1  0  0  3  0  0  0  0  0  0
  184.9170  178.1770  139.0380 C   0  0  0  0  0  0  0  0  0  0  0  0
  182.6240  175.9420  137.0590 C   0  0  0  0  0  3  0  0  0  0  0  0
  181.1850  181.3180  137.7490 C   0  0  0  0  0  0  0  0  0  0  0  0
  180.8070  181.2030  136.4100 C   0  0  0  0  0  3  0  0  0  0  0  0
  181.4830  178.9180  137.8360 C   0  0  0  0  0  0  0  0  0  0  0  0
  180.7720  179.9810  135.8150 N   0  0  0  0  0  0  0  0  0  0  0  0
  181.5250  180.1690  138.4630 C   0  0  0  0  0  3  0  0  0  0  0  0
  181.1000  178.8470  136.4940 C   0  0  0  0  0  3  0  0  0  0  0  0
  181.2230  182.5320  138.3480 F   0  0  0  0  0  0  0  0  0  0  0  0
  184.8420  179.0900  141.3980 C   0  0  0  0  0  2  0  0  0  0  0  0
  184.9080  177.9940  142.4470 C   0  0  0  0  0  2  0  0  0  0  0  0
  185.9570  178.3270  143.4960 C   0  0  0  0  0  2  0  0  0  0  0  0
  188.4390  178.9960  142.0460 O   0  0  0  0  0  1  0  0  0  0  0  0
  187.1730  177.4170  143.3600 C   0  0  1  0  0  3  0  0  0  0  0  0
  187.9580  177.6840  142.0670 C   0  0  2  0  0  3  0  0  0  0  0  0
  189.6020  176.0770  143.2190 C   0  0  0  0  0  2  0  0  0  0  0  0
  189.5070  177.0780  144.3660 C   0  0  0  0  0  2  0  0  0  0  0  0
  188.0590  177.5220  144.6100 C   0  0  0  0  0  2  0  0  0  0  0  0
  189.1290  176.7040  141.9010 C   0  0  0  0  0  2  0  0  0  0  0  0
  1 12  1  0  0  0  0
  1  8  1  0  0  0  0
  2  8  2  0  0  0  0
  2 13  1  0  0  0  0
  3 16  2  0  0  0  0
  6  2  1  0  0  0  0
  7 16  1  0  0  0  0
  8  3  1  0  0  0  0
  9  4  1  0  0  0  0
  9 25  1  1  0  0  0
 10  1  2  0  0  0  0
 11  3  1  0  0  0  0
 11 15  1  0  0  0  0
 12  5  1  1  0  0  0
 12 17  1  0  0  0  0
 13  7  2  0  0  0  0
 14  4  1  0  0  0  0
 15 20  1  6  0  0  0
 15 14  1  0  0  0  0
 16  9  1  0  0  0  0
 17 11  2  0  0  0  0
 18 24  1  0  0  0  0
 18 22  1  0  0  0  0
 19 18  2  0  0  0  0
 20 22  2  0  0  0  0
 21 19  1  0  0  0  0
 21 23  2  0  0  0  0
 23 20  1  0  0  0  0
 25 26  1  0  0  0  0
 26 27  1  0  0  0  0
 29 27  1  1  0  0  0
 29 33  1  0  0  0  0
 30 28  1  1  0  0  0
 30 29  1  0  0  0  0
 31 32  1  0  0  0  0
 32 33  1  0  0  0  0
 34 30  1  0  0  0  0
 34 31  1  0  0  0  0
M  END
>  <MODEL>
8

>  <REMARK>
 VINA RESULT:      -7.1      2.956      5.460
  Name = 
  5 active torsions:
  status: ('A' for Active; 'I' for Inactive)
    1  A    between atoms: C_3  and  C_13
    2  A    between atoms: C_3  and  C_17
    3  A    between atoms: C_12  and  C_28
    4  A    between atoms: C_17  and  C_29
    5  A    between atoms: C_18  and  C_29
                            x       y       z     vdW  Elec       q    Type
                         _______ _______ _______ _____ _____    ______ ____

>  <TORSDO>
F 5

$$$$
=
 OpenBabel11052414003D

 34 38  0  0  1  0  0  0  0  0999 V2000
  180.7930  177.2860  137.1710 C   0  0  0  0  0  0  0  0  0  0  0  0
  180.9440  177.5180  139.6800 C   0  0  0  0  0  0  0  0  0  0  0  0
  182.9700  177.6610  138.3250 C   0  0  0  0  0  0  0  0  0  0  0  0
  185.4890  179.0100  138.3510 O   0  0  0  0  0  0  0  0  0  0  0  0
  181.1080  179.1460  135.5830 C   0  0  0  0  0  1  0  0  0  0  0  0
  179.5740  177.3280  139.8180 O   0  0  0  0  0  1  0  0  0  0  0  0
  183.0400  177.9830  140.7040 N   0  0  0  0  0  0  0  0  0  0  0  0
  181.5690  177.4800  138.4190 C   0  0  0  0  0  0  0  0  0  0  0  0
  185.1780  178.2530  139.4830 C   0  0  2  0  0  3  0  0  0  0  0  0
  179.6180  176.8350  137.1920 O   0  0  0  0  0  0  0  0  0  0  0  0
  183.6280  177.5010  136.9810 C   0  0  0  0  0  0  0  0  0  0  0  0
  181.4020  177.6840  135.8630 C   0  0  1  0  0  3  0  0  0  0  0  0
  181.7080  177.7620  140.8130 C   0  0  0  0  0  3  0  0  0  0  0  0
  186.0970  178.1110  137.4680 C   0  0  0  0  0  2  0  0  0  0  0  0
  185.0880  177.1620  136.8050 C   0  0  1  0  0  3  0  0  0  0  0  0
  183.6930  177.9680  139.5090 C   0  0  0  0  0  0  0  0  0  0  0  0
  182.8850  177.4580  135.8680 C   0  0  0  0  0  3  0  0  0  0  0  0
  184.6830  173.4360  137.4670 C   0  0  0  0  0  0  0  0  0  0  0  0
  186.0230  173.0650  137.5920 C   0  0  0  0  0  3  0  0  0  0  0  0
  185.3860  175.7210  137.0860 C   0  0  0  0  0  0  0  0  0  0  0  0
  187.0030  174.0000  137.4650 N   0  0  0  0  0  0  0  0  0  0  0  0
  184.3650  174.7710  137.2120 C   0  0  0  0  0  3  0  0  0  0  0  0
  186.7150  175.3070  137.2170 C   0  0  0  0  0  3  0  0  0  0  0  0
  183.7020  172.5120  137.5910 F   0  0  0  0  0  0  0  0  0  0  0  0
  185.6640  178.9900  140.7240 C   0  0  0  0  0  2  0  0  0  0  0  0
  187.0600  178.5200  141.0940 C   0  0  0  0  0  2  0  0  0  0  0  0
  187.0970  178.0530  142.5400 C   0  0  0  0  0  2  0  0  0  0  0  0
  187.8940  176.8740  145.1260 O   0  0  0  0  0  1  0  0  0  0  0  0
  188.5310  177.8430  143.0100 C   0  0  1  0  0  3  0  0  0  0  0  0
  188.6550  177.8900  144.5410 C   0  0  2  0  0  3  0  0  0  0  0  0
  191.0320  177.0950  143.9630 C   0  0  0  0  0  2  0  0  0  0  0  0
  190.2930  175.9910  143.2120 C   0  0  0  0  0  2  0  0  0  0  0  0
  189.1020  176.5460  142.4200 C   0  0  0  0  0  2  0  0  0  0  0  0
  190.1160  177.7640  144.9970 C   0  0  0  0  0  2  0  0  0  0  0  0
  1 10  2  0  0  0  0
  1  8  1  0  0  0  0
  2  6  1  0  0  0  0
  2 13  1  0  0  0  0
  3  8  1  0  0  0  0
  3 16  2  0  0  0  0
  4  9  1  0  0  0  0
  7 13  2  0  0  0  0
  8  2  2  0  0  0  0
  9 16  1  0  0  0  0
  9 25  1  1  0  0  0
 11  3  1  0  0  0  0
 12  5  1  1  0  0  0
 12 17  1  0  0  0  0
 12  1  1  0  0  0  0
 14  4  1  0  0  0  0
 15 11  1  0  0  0  0
 15 20  1  1  0  0  0
 15 14  1  0  0  0  0
 16  7  1  0  0  0  0
 17 11  2  0  0  0  0
 18 24  1  0  0  0  0
 18 19  1  0  0  0  0
 20 22  1  0  0  0  0
 20 23  2  0  0  0  0
 21 19  2  0  0  0  0
 22 18  2  0  0  0  0
 23 21  1  0  0  0  0
 25 26  1  0  0  0  0
 26 27  1  0  0  0  0
 29 27  1  1  0  0  0
 29 30  1  0  0  0  0
 30 34  1  0  0  0  0
 30 28  1  1  0  0  0
 31 34  1  0  0  0  0
 32 31  1  0  0  0  0
 33 29  1  0  0  0  0
 33 32  1  0  0  0  0
M  END
>  <MODEL>
9

>  <REMARK>
 VINA RESULT:      -6.5      2.152      3.121
  Name = 
  5 active torsions:
  status: ('A' for Active; 'I' for Inactive)
    1  A    between atoms: C_3  and  C_13
    2  A    between atoms: C_3  and  C_17
    3  A    between atoms: C_12  and  C_28
    4  A    between atoms: C_17  and  C_29
    5  A    between atoms: C_18  and  C_29
                            x       y       z     vdW  Elec       q    Type
                         _______ _______ _______ _____ _____    ______ ____

>  <TORSDO>
F 5

$$$$
