=
 OpenBabel11052413343D

 28 32  0  0  1  0  0  0  0  0999 V2000
  188.7140  177.2990  141.2360 C   0  0  1  0  0  3  0  0  0  0  0  0
  183.7160  178.8190  141.7840 C   0  0  0  0  0  3  0  0  0  0  0  0
  188.0380  177.7900  146.0970 O   0  0  0  0  0  1  0  0  0  0  0  0
  183.4150  178.6760  144.1880 C   0  0  0  0  0  0  0  0  0  0  0  0
  185.7680  178.7210  143.2710 C   0  0  2  0  0  3  0  0  0  0  0  0
  181.4870  178.7790  142.7280 C   0  0  0  0  0  0  0  0  0  0  0  0
  184.2710  178.7050  143.0680 C   0  0  0  0  0  0  0  0  0  0  0  0
  185.3400  178.7980  145.7280 C   0  0  0  0  0  2  0  0  0  0  0  0
  182.0290  178.6980  144.0120 C   0  0  0  0  0  3  0  0  0  0  0  0
  188.4920  177.6930  143.7360 C   0  0  1  0  0  3  0  0  0  0  0  0
  186.5070  177.9640  142.1730 C   0  0  0  0  0  2  0  0  0  0  0  0
  183.9470  178.6110  145.4820 O   0  0  0  0  0  0  0  0  0  0  0  0
  189.6110  175.6950  142.9960 C   0  0  0  0  0  2  0  0  0  0  0  0
  187.6560  178.3220  144.8630 C   0  0  1  0  0  3  0  0  0  0  0  0
  188.5140  176.2340  143.8180 N   0  0  0  0  0  2  0  0  0  0  0  0
  180.1430  178.8030  142.5610 F   0  0  0  0  0  0  0  0  0  0  0  0
  182.3290  178.8490  141.6150 C   0  0  0  0  0  3  0  0  0  0  0  0
  186.1580  178.1240  144.6310 C   0  0  2  0  0  3  0  0  0  0  0  0
  189.9390  176.5400  141.7500 C   0  0  0  0  0  2  0  0  0  0  0  0
  188.0190  178.1270  142.3320 C   0  0  2  0  0  3  0  0  0  0  0  0
  189.0540  178.1110  139.9780 C   0  0  1  0  0  3  0  0  0  0  0  0
  190.3740  177.7600  139.4590 N   0  0  0  0  0  2  0  0  0  0  0  0
  189.3750  176.4920  137.5810 N   0  0  0  0  0  0  0  0  0  0  0  0
  187.9810  178.0550  138.8780 C   0  0  0  0  0  2  0  0  0  0  0  0
  191.6870  176.5770  137.9480 O   0  0  0  0  0  0  0  0  0  0  0  0
  190.5310  176.9150  138.3170 C   0  0  0  0  0  0  0  0  0  0  0  0
  189.5120  175.7010  136.3700 C   0  0  0  0  0  1  0  0  0  0  0  0
  188.0360  176.7350  138.1080 C   0  0  0  0  0  2  0  0  0  0  0  0
  1 19  1  1  0  0  0
  1 20  1  0  0  0  0
  2  7  1  0  0  0  0
  4 12  1  0  0  0  0
  5 11  1  6  0  0  0
  5 18  1  0  0  0  0
  6  9  2  0  0  0  0
  7  5  1  0  0  0  0
  7  4  2  0  0  0  0
  9  4  1  0  0  0  0
 10 15  1  6  0  0  0
 10 14  1  0  0  0  0
 12  8  1  0  0  0  0
 13 15  1  0  0  0  0
 14  3  1  1  0  0  0
 16  6  1  0  0  0  0
 17  2  2  0  0  0  0
 17  6  1  0  0  0  0
 18 14  1  0  0  0  0
 18  8  1  1  0  0  0
 19 13  1  0  0  0  0
 20 11  1  1  0  0  0
 20 10  1  0  0  0  0
 21 24  1  6  0  0  0
 21  1  1  0  0  0  0
 22 21  1  0  0  0  0
 23 28  1  0  0  0  0
 23 26  1  0  0  0  0
 25 26  2  0  0  0  0
 26 22  1  0  0  0  0
 27 23  1  0  0  0  0
 28 24  1  0  0  0  0
M  END
>  <MODEL>
1

>  <REMARK>
 VINA RESULT:      -9.1      0.000      0.000
  Name = 
  1 active torsions:
  status: ('A' for Active; 'I' for Inactive)
    1  A    between atoms: C_1  and  C_2
                            x       y       z     vdW  Elec       q    Type
                         _______ _______ _______ _____ _____    ______ ____

>  <TORSDO>
F 1

$$$$
=
 OpenBabel11052413343D

 28 32  0  0  1  0  0  0  0  0999 V2000
  190.7330  176.7970  145.1100 C   0  0  1  0  0  3  0  0  0  0  0  0
  185.9690  178.3300  143.5150 C   0  0  0  0  0  3  0  0  0  0  0  0
  188.3740  178.1660  149.2200 O   0  0  0  0  0  1  0  0  0  0  0  0
  184.8120  178.6280  145.6280 C   0  0  0  0  0  0  0  0  0  0  0  0
  187.3350  178.5330  145.6430 C   0  0  2  0  0  3  0  0  0  0  0  0
  183.5510  178.4370  143.5700 C   0  0  0  0  0  0  0  0  0  0  0  0
  186.0150  178.4610  144.9120 C   0  0  0  0  0  0  0  0  0  0  0  0
  186.0520  179.0560  147.7180 C   0  0  0  0  0  2  0  0  0  0  0  0
  183.5860  178.6000  144.9570 C   0  0  0  0  0  3  0  0  0  0  0  0
  189.6440  177.6420  147.2450 C   0  0  1  0  0  3  0  0  0  0  0  0
  188.3780  177.5960  145.0430 C   0  0  0  0  0  2  0  0  0  0  0  0
  184.8350  178.8090  147.0160 O   0  0  0  0  0  0  0  0  0  0  0  0
  190.8420  175.5560  147.3290 C   0  0  0  0  0  2  0  0  0  0  0  0
  188.4950  178.4570  147.8580 C   0  0  1  0  0  3  0  0  0  0  0  0
  189.5540  176.2230  147.5840 N   0  0  0  0  0  2  0  0  0  0  0  0
  182.3610  178.4130  142.9220 F   0  0  0  0  0  0  0  0  0  0  0  0
  184.7410  178.3110  142.8480 C   0  0  0  0  0  3  0  0  0  0  0  0
  187.1730  178.2010  147.1330 C   0  0  2  0  0  3  0  0  0  0  0  0
  191.6450  176.1610  146.1620 C   0  0  0  0  0  2  0  0  0  0  0  0
  189.7370  177.8040  145.7130 C   0  0  2  0  0  3  0  0  0  0  0  0
  191.5500  177.3680  143.9420 C   0  0  1  0  0  3  0  0  0  0  0  0
  191.4790  176.5000  142.7690 N   0  0  0  0  0  2  0  0  0  0  0  0
  189.9490  178.0690  141.6150 N   0  0  0  0  0  0  0  0  0  0  0  0
  191.2160  178.8260  143.5880 C   0  0  0  0  0  2  0  0  0  0  0  0
  190.5560  176.0030  140.6930 O   0  0  0  0  0  0  0  0  0  0  0  0
  190.6450  176.8150  141.6520 C   0  0  0  0  0  0  0  0  0  0  0  0
  189.1600  178.4490  140.4560 C   0  0  0  0  0  1  0  0  0  0  0  0
  189.9120  178.9250  142.7960 C   0  0  0  0  0  2  0  0  0  0  0  0
  1 20  1  0  0  0  0
  1 19  1  1  0  0  0
  2  7  1  0  0  0  0
  4 12  1  0  0  0  0
  5 11  1  6  0  0  0
  5 18  1  0  0  0  0
  6  9  2  0  0  0  0
  7  4  2  0  0  0  0
  7  5  1  0  0  0  0
  9  4  1  0  0  0  0
 10 15  1  6  0  0  0
 10 14  1  0  0  0  0
 12  8  1  0  0  0  0
 13 15  1  0  0  0  0
 14  3  1  1  0  0  0
 16  6  1  0  0  0  0
 17  2  2  0  0  0  0
 17  6  1  0  0  0  0
 18  8  1  1  0  0  0
 18 14  1  0  0  0  0
 19 13  1  0  0  0  0
 20 11  1  6  0  0  0
 20 10  1  0  0  0  0
 21 24  1  6  0  0  0
 21  1  1  0  0  0  0
 22 21  1  0  0  0  0
 23 26  1  0  0  0  0
 23 28  1  0  0  0  0
 25 26  2  0  0  0  0
 26 22  1  0  0  0  0
 27 23  1  0  0  0  0
 28 24  1  0  0  0  0
M  END
>  <MODEL>
2

>  <REMARK>
 VINA RESULT:      -9.1      2.391      3.605
  Name = 
  1 active torsions:
  status: ('A' for Active; 'I' for Inactive)
    1  A    between atoms: C_1  and  C_2
                            x       y       z     vdW  Elec       q    Type
                         _______ _______ _______ _____ _____    ______ ____

>  <TORSDO>
F 1

$$$$
=
 OpenBabel11052413343D

 28 32  0  0  1  0  0  0  0  0999 V2000
  184.3430  178.6660  142.2410 C   0  0  1  0  0  3  0  0  0  0  0  0
  189.2440  177.4310  140.8090 C   0  0  0  0  0  3  0  0  0  0  0  0
  186.7150  177.6960  146.4560 O   0  0  0  0  0  1  0  0  0  0  0  0
  190.3770  177.3320  142.9540 C   0  0  0  0  0  0  0  0  0  0  0  0
  187.8530  177.2300  142.9210 C   0  0  2  0  0  3  0  0  0  0  0  0
  191.6610  177.5160  140.9100 C   0  0  0  0  0  0  0  0  0  0  0  0
  189.1790  177.3680  142.2100 C   0  0  0  0  0  0  0  0  0  0  0  0
  189.1290  176.9150  145.0420 C   0  0  0  0  0  2  0  0  0  0  0  0
  191.6100  177.4210  142.3030 C   0  0  0  0  0  3  0  0  0  0  0  0
  185.4500  178.0180  144.4350 C   0  0  1  0  0  3  0  0  0  0  0  0
  186.7540  178.0510  142.2550 C   0  0  0  0  0  2  0  0  0  0  0  0
  190.3380  177.2200  144.3490 O   0  0  0  0  0  0  0  0  0  0  0  0
  184.0930  180.0060  144.3900 C   0  0  0  0  0  2  0  0  0  0  0  0
  186.6460  177.3280  145.1100 C   0  0  1  0  0  3  0  0  0  0  0  0
  185.4230  179.4560  144.7010 N   0  0  0  0  0  2  0  0  0  0  0  0
  192.8590  177.6000  140.2820 F   0  0  0  0  0  0  0  0  0  0  0  0
  190.4810  177.5110  140.1630 C   0  0  0  0  0  3  0  0  0  0  0  0
  187.9590  177.6490  144.3940 C   0  0  2  0  0  3  0  0  0  0  0  0
  183.3630  179.2820  143.2430 C   0  0  0  0  0  2  0  0  0  0  0  0
  185.4020  177.7720  142.9130 C   0  0  2  0  0  3  0  0  0  0  0  0
  183.5970  177.9750  141.0910 C   0  0  1  0  0  3  0  0  0  0  0  0
  182.1660  178.2620  141.1370 N   0  0  0  0  0  2  0  0  0  0  0  0
  182.3460  179.8200  139.2210 N   0  0  0  0  0  0  0  0  0  0  0  0
  184.1850  178.2520  139.6970 C   0  0  0  0  0  2  0  0  0  0  0  0
  180.3380  179.4860  140.3810 O   0  0  0  0  0  0  0  0  0  0  0  0
  181.5620  179.2130  140.2580 C   0  0  0  0  0  0  0  0  0  0  0  0
  181.7380  180.7280  138.2630 C   0  0  0  0  0  1  0  0  0  0  0  0
  183.7930  179.6400  139.1910 C   0  0  0  0  0  2  0  0  0  0  0  0
  1 20  1  0  0  0  0
  1 19  1  1  0  0  0
  2  7  1  0  0  0  0
  4 12  1  0  0  0  0
  5 11  1  6  0  0  0
  5 18  1  0  0  0  0
  6  9  2  0  0  0  0
  7  5  1  0  0  0  0
  7  4  2  0  0  0  0
  9  4  1  0  0  0  0
 10 15  1  6  0  0  0
 10 14  1  0  0  0  0
 12  8  1  0  0  0  0
 13 15  1  0  0  0  0
 14  3  1  1  0  0  0
 16  6  1  0  0  0  0
 17  2  2  0  0  0  0
 17  6  1  0  0  0  0
 18  8  1  1  0  0  0
 18 14  1  0  0  0  0
 19 13  1  0  0  0  0
 20 11  1  6  0  0  0
 20 10  1  0  0  0  0
 21 24  1  6  0  0  0
 21 22  1  0  0  0  0
 21  1  1  0  0  0  0
 23 26  1  0  0  0  0
 26 25  2  0  0  0  0
 26 22  1  0  0  0  0
 27 23  1  0  0  0  0
 28 23  1  0  0  0  0
 28 24  1  0  0  0  0
M  END
>  <MODEL>
3

>  <REMARK>
 VINA RESULT:      -9.1      3.891      6.880
  Name = 
  1 active torsions:
  status: ('A' for Active; 'I' for Inactive)
    1  A    between atoms: C_1  and  C_2
                            x       y       z     vdW  Elec       q    Type
                         _______ _______ _______ _____ _____    ______ ____

>  <TORSDO>
F 1

$$$$
=
 OpenBabel11052413343D

 28 32  0  0  1  0  0  0  0  0999 V2000
  188.3170  177.3300  138.7190 C   0  0  1  0  0  3  0  0  0  0  0  0
  187.5920  177.8730  143.8920 C   0  0  0  0  0  3  0  0  0  0  0  0
  192.8350  177.1120  140.6860 O   0  0  0  0  0  1  0  0  0  0  0  0
  189.8090  177.3940  144.7570 C   0  0  0  0  0  0  0  0  0  0  0  0
  189.5700  177.9600  142.3070 C   0  0  2  0  0  3  0  0  0  0  0  0
  187.8900  177.3310  146.2330 C   0  0  0  0  0  0  0  0  0  0  0  0
  188.9670  177.7060  143.6690 C   0  0  0  0  0  0  0  0  0  0  0  0
  191.8180  177.6680  143.3500 C   0  0  0  0  0  2  0  0  0  0  0  0
  189.2660  177.1930  146.0290 C   0  0  0  0  0  3  0  0  0  0  0  0
  190.6850  177.3780  139.6410 C   0  0  1  0  0  3  0  0  0  0  0  0
  188.6640  177.4810  141.1780 C   0  0  0  0  0  2  0  0  0  0  0  0
  191.1900  177.2700  144.5680 O   0  0  0  0  0  0  0  0  0  0  0  0
  190.1410  175.7100  137.9930 C   0  0  0  0  0  2  0  0  0  0  0  0
  191.5830  177.7120  140.8430 C   0  0  1  0  0  3  0  0  0  0  0  0
  190.6690  175.9460  139.3470 N   0  0  0  0  0  2  0  0  0  0  0  0
  187.3680  177.1380  147.4680 F   0  0  0  0  0  0  0  0  0  0  0  0
  187.0550  177.6800  145.1690 C   0  0  0  0  0  3  0  0  0  0  0  0
  190.9400  177.2830  142.1630 C   0  0  2  0  0  3  0  0  0  0  0  0
  189.0910  176.7410  137.5360 C   0  0  0  0  0  2  0  0  0  0  0  0
  189.2380  177.8870  139.8200 C   0  0  2  0  0  3  0  0  0  0  0  0
  187.2570  178.3320  138.2410 C   0  0  1  0  0  3  0  0  0  0  0  0
  187.4820  178.7230  136.8520 N   0  0  0  0  0  2  0  0  0  0  0  0
  185.5800  177.3370  136.0820 N   0  0  0  0  0  0  0  0  0  0  0  0
  185.8060  177.8800  138.4740 C   0  0  0  0  0  2  0  0  0  0  0  0
  186.9720  178.4930  134.5940 O   0  0  0  0  0  0  0  0  0  0  0  0
  186.6970  178.1870  135.7850 C   0  0  0  0  0  0  0  0  0  0  0  0
  184.7170  176.8440  135.0210 C   0  0  0  0  0  1  0  0  0  0  0  0
  185.3710  176.8430  137.4390 C   0  0  0  0  0  2  0  0  0  0  0  0
  1 19  1  6  0  0  0
  1 20  1  0  0  0  0
  2 17  1  0  0  0  0
  4  9  2  0  0  0  0
  5 11  1  6  0  0  0
  5  7  1  0  0  0  0
  6 16  1  0  0  0  0
  7  2  2  0  0  0  0
  7  4  1  0  0  0  0
  8 12  1  0  0  0  0
  9  6  1  0  0  0  0
 10 15  1  1  0  0  0
 10 20  1  0  0  0  0
 10 14  1  0  0  0  0
 12  4  1  0  0  0  0
 13 15  1  0  0  0  0
 14  3  1  6  0  0  0
 14 18  1  0  0  0  0
 17  6  2  0  0  0  0
 18  5  1  0  0  0  0
 18  8  1  1  0  0  0
 19 13  1  0  0  0  0
 20 11  1  1  0  0  0
 21 24  1  6  0  0  0
 21  1  1  0  0  0  0
 22 21  1  0  0  0  0
 23 28  1  0  0  0  0
 25 26  2  0  0  0  0
 26 23  1  0  0  0  0
 26 22  1  0  0  0  0
 27 23  1  0  0  0  0
 28 24  1  0  0  0  0
M  END
>  <MODEL>
4

>  <REMARK>
 VINA RESULT:      -8.8      3.541      5.342
  Name = 
  1 active torsions:
  status: ('A' for Active; 'I' for Inactive)
    1  A    between atoms: C_1  and  C_2
                            x       y       z     vdW  Elec       q    Type
                         _______ _______ _______ _____ _____    ______ ____

>  <TORSDO>
F 1

$$$$
=
 OpenBabel11052413343D

 28 32  0  0  1  0  0  0  0  0999 V2000
  187.4550  177.8710  140.1260 C   0  0  1  0  0  3  0  0  0  0  0  0
  187.6120  177.8670  145.3760 C   0  0  0  0  0  3  0  0  0  0  0  0
  192.2270  177.3780  141.2750 O   0  0  0  0  0  1  0  0  0  0  0  0
  189.9250  177.2660  145.8020 C   0  0  0  0  0  0  0  0  0  0  0  0
  189.3030  178.0950  143.4990 C   0  0  2  0  0  3  0  0  0  0  0  0
  188.2760  177.0720  147.5640 C   0  0  0  0  0  0  0  0  0  0  0  0
  188.9250  177.7040  144.9090 C   0  0  0  0  0  0  0  0  0  0  0  0
  191.6820  177.6600  144.1140 C   0  0  0  0  0  2  0  0  0  0  0  0
  189.5930  176.9370  147.1190 C   0  0  0  0  0  3  0  0  0  0  0  0
  189.9430  177.7860  140.6380 C   0  0  1  0  0  3  0  0  0  0  0  0
  188.2080  177.7530  142.4940 C   0  0  0  0  0  2  0  0  0  0  0  0
  191.2510  177.1420  145.3720 O   0  0  0  0  0  0  0  0  0  0  0  0
  189.0810  176.3130  138.9410 C   0  0  0  0  0  2  0  0  0  0  0  0
  191.0370  177.9760  141.7000 C   0  0  1  0  0  3  0  0  0  0  0  0
  189.8330  176.3940  140.2040 N   0  0  0  0  0  2  0  0  0  0  0  0
  187.9580  176.7550  148.8430 F   0  0  0  0  0  0  0  0  0  0  0  0
  187.2880  177.5450  146.6970 C   0  0  0  0  0  3  0  0  0  0  0  0
  190.6080  177.4170  143.0580 C   0  0  2  0  0  3  0  0  0  0  0  0
  188.0040  177.4020  138.7760 C   0  0  0  0  0  2  0  0  0  0  0  0
  188.5630  178.2940  141.1080 C   0  0  2  0  0  3  0  0  0  0  0  0
  186.3640  178.9350  139.9390 C   0  0  1  0  0  3  0  0  0  0  0  0
  185.5940  178.6990  138.7210 N   0  0  0  0  0  2  0  0  0  0  0  0
  183.6560  177.8730  140.0230 N   0  0  0  0  0  0  0  0  0  0  0  0
  185.4480  179.1240  141.1590 C   0  0  0  0  0  2  0  0  0  0  0  0
  183.6880  177.8650  137.6810 O   0  0  0  0  0  0  0  0  0  0  0  0
  184.2870  178.1210  138.7590 C   0  0  0  0  0  0  0  0  0  0  0  0
  182.2970  177.3620  140.0890 C   0  0  0  0  0  1  0  0  0  0  0  0
  184.4140  178.0020  141.2630 C   0  0  0  0  0  2  0  0  0  0  0  0
  1 19  1  6  0  0  0
  1 20  1  0  0  0  0
  2 17  1  0  0  0  0
  4  9  2  0  0  0  0
  5 11  1  6  0  0  0
  5  7  1  0  0  0  0
  6 16  1  0  0  0  0
  7  2  2  0  0  0  0
  7  4  1  0  0  0  0
  8 12  1  0  0  0  0
  9  6  1  0  0  0  0
 10 15  1  1  0  0  0
 10 20  1  0  0  0  0
 10 14  1  0  0  0  0
 12  4  1  0  0  0  0
 13 15  1  0  0  0  0
 14  3  1  6  0  0  0
 14 18  1  0  0  0  0
 17  6  2  0  0  0  0
 18  5  1  0  0  0  0
 18  8  1  1  0  0  0
 19 13  1  0  0  0  0
 20 11  1  1  0  0  0
 21  1  1  0  0  0  0
 21 24  1  1  0  0  0
 22 26  1  0  0  0  0
 22 21  1  0  0  0  0
 23 27  1  0  0  0  0
 23 28  1  0  0  0  0
 24 28  1  0  0  0  0
 25 26  2  0  0  0  0
 26 23  1  0  0  0  0
M  END
>  <MODEL>
5

>  <REMARK>
 VINA RESULT:      -8.5      3.449      5.823
  Name = 
  1 active torsions:
  status: ('A' for Active; 'I' for Inactive)
    1  A    between atoms: C_1  and  C_2
                            x       y       z     vdW  Elec       q    Type
                         _______ _______ _______ _____ _____    ______ ____

>  <TORSDO>
F 1

$$$$
=
 OpenBabel11052413343D

 28 32  0  0  1  0  0  0  0  0999 V2000
  188.7630  177.9200  144.0190 C   0  0  1  0  0  3  0  0  0  0  0  0
  187.2690  177.8570  138.9830 C   0  0  0  0  0  3  0  0  0  0  0  0
  192.8820  177.0140  141.4600 O   0  0  0  0  0  1  0  0  0  0  0  0
  189.4050  177.7650  137.8340 C   0  0  0  0  0  0  0  0  0  0  0  0
  189.3320  177.1600  140.2840 C   0  0  2  0  0  3  0  0  0  0  0  0
  187.4070  178.4180  136.6320 C   0  0  0  0  0  0  0  0  0  0  0  0
  188.6550  177.6360  139.0200 C   0  0  0  0  0  0  0  0  0  0  0  0
  191.4240  176.8890  138.9510 C   0  0  0  0  0  2  0  0  0  0  0  0
  188.7820  178.1700  136.6500 C   0  0  0  0  0  3  0  0  0  0  0  0
  190.8910  177.2830  142.7830 C   0  0  1  0  0  3  0  0  0  0  0  0
  188.7420  177.8060  141.5330 C   0  0  0  0  0  2  0  0  0  0  0  0
  190.7800  177.5030  137.8360 O   0  0  0  0  0  0  0  0  0  0  0  0
  191.0370  178.9490  144.5140 C   0  0  0  0  0  2  0  0  0  0  0  0
  191.5040  176.7820  141.4660 C   0  0  1  0  0  3  0  0  0  0  0  0
  191.3050  178.6490  143.0980 N   0  0  0  0  0  2  0  0  0  0  0  0
  186.8060  178.8070  135.4820 F   0  0  0  0  0  0  0  0  0  0  0  0
  186.6500  178.2530  137.7940 C   0  0  0  0  0  3  0  0  0  0  0  0
  190.8420  177.4340  140.2520 C   0  0  2  0  0  3  0  0  0  0  0  0
  189.8120  178.2160  145.0940 C   0  0  0  0  0  2  0  0  0  0  0  0
  189.3500  177.1920  142.7950 C   0  0  2  0  0  3  0  0  0  0  0  0
  187.5390  177.2160  144.6200 C   0  0  1  0  0  3  0  0  0  0  0  0
  187.0690  177.9010  145.8220 N   0  0  0  0  0  2  0  0  0  0  0  0
  185.1230  178.8390  144.6100 N   0  0  0  0  0  0  0  0  0  0  0  0
  186.3940  176.9730  143.6230 C   0  0  0  0  0  2  0  0  0  0  0  0
  185.5890  179.3770  146.8420 O   0  0  0  0  0  0  0  0  0  0  0  0
  185.9170  178.7470  145.8020 C   0  0  0  0  0  0  0  0  0  0  0  0
  183.9030  179.6270  144.5870 C   0  0  0  0  0  1  0  0  0  0  0  0
  185.5990  178.2530  143.3610 C   0  0  0  0  0  2  0  0  0  0  0  0
  1 21  1  0  0  0  0
  1 19  1  1  0  0  0
  2  7  1  0  0  0  0
  4 12  1  0  0  0  0
  4  7  2  0  0  0  0
  5 11  1  1  0  0  0
  6  9  2  0  0  0  0
  6 17  1  0  0  0  0
  7  5  1  0  0  0  0
  9  4  1  0  0  0  0
 10 20  1  0  0  0  0
 10 15  1  6  0  0  0
 12  8  1  0  0  0  0
 13 19  1  0  0  0  0
 14  3  1  1  0  0  0
 14 10  1  0  0  0  0
 15 13  1  0  0  0  0
 16  6  1  0  0  0  0
 17  2  2  0  0  0  0
 18  8  1  6  0  0  0
 18  5  1  0  0  0  0
 18 14  1  0  0  0  0
 20 11  1  6  0  0  0
 20  1  1  0  0  0  0
 21 24  1  6  0  0  0
 21 22  1  0  0  0  0
 23 26  1  0  0  0  0
 26 22  1  0  0  0  0
 26 25  2  0  0  0  0
 27 23  1  0  0  0  0
 28 24  1  0  0  0  0
 28 23  1  0  0  0  0
M  END
>  <MODEL>
6

>  <REMARK>
 VINA RESULT:      -8.3      2.883      6.983
  Name = 
  1 active torsions:
  status: ('A' for Active; 'I' for Inactive)
    1  A    between atoms: C_1  and  C_2
                            x       y       z     vdW  Elec       q    Type
                         _______ _______ _______ _____ _____    ______ ____

>  <TORSDO>
F 1

$$$$
=
 OpenBabel11052413343D

 28 32  0  0  1  0  0  0  0  0999 V2000
  190.0320  177.1640  142.1760 C   0  0  1  0  0  3  0  0  0  0  0  0
  185.1000  178.6920  143.1420 C   0  0  0  0  0  3  0  0  0  0  0  0
  189.7140  177.4730  147.0890 O   0  0  0  0  0  1  0  0  0  0  0  0
  184.9730  178.4590  145.5550 C   0  0  0  0  0  0  0  0  0  0  0  0
  187.2530  178.5250  144.4720 C   0  0  2  0  0  3  0  0  0  0  0  0
  182.9450  178.6290  144.2430 C   0  0  0  0  0  0  0  0  0  0  0  0
  185.7450  178.5250  144.3770 C   0  0  0  0  0  0  0  0  0  0  0  0
  187.0040  178.5110  146.9550 C   0  0  0  0  0  2  0  0  0  0  0  0
  183.5770  178.4960  145.4810 C   0  0  0  0  0  3  0  0  0  0  0  0
  189.9950  177.4640  144.7000 C   0  0  1  0  0  3  0  0  0  0  0  0
  187.9050  177.8060  143.2960 C   0  0  0  0  0  2  0  0  0  0  0  0
  185.5960  178.3420  146.8030 O   0  0  0  0  0  0  0  0  0  0  0  0
  191.0400  175.4890  143.8060 C   0  0  0  0  0  2  0  0  0  0  0  0
  189.2480  178.0540  145.9070 C   0  0  1  0  0  3  0  0  0  0  0  0
  190.0100  176.0020  144.7240 N   0  0  0  0  0  2  0  0  0  0  0  0
  181.5920  178.6670  144.1750 F   0  0  0  0  0  0  0  0  0  0  0  0
  183.7050  178.7370  143.0750 C   0  0  0  0  0  3  0  0  0  0  0  0
  187.7350  177.8740  145.7770 C   0  0  2  0  0  3  0  0  0  0  0  0
  191.2850  176.3780  142.5720 C   0  0  0  0  0  2  0  0  0  0  0  0
  189.4260  177.9540  143.3510 C   0  0  2  0  0  3  0  0  0  0  0  0
  190.2880  178.0210  140.9290 C   0  0  1  0  0  3  0  0  0  0  0  0
  191.3900  177.4860  140.1330 N   0  0  0  0  0  2  0  0  0  0  0  0
  189.8240  176.6190  138.4210 N   0  0  0  0  0  0  0  0  0  0  0  0
  189.0390  178.2750  140.0680 C   0  0  0  0  0  2  0  0  0  0  0  0
  192.1340  176.2390  138.3160 O   0  0  0  0  0  0  0  0  0  0  0  0
  191.1590  176.7460  138.9320 C   0  0  0  0  0  0  0  0  0  0  0  0
  189.5720  175.9420  137.1610 C   0  0  0  0  0  1  0  0  0  0  0  0
  188.6840  177.0520  139.2220 C   0  0  0  0  0  2  0  0  0  0  0  0
  1 19  1  1  0  0  0
  1 20  1  0  0  0  0
  2  7  1  0  0  0  0
  4 12  1  0  0  0  0
  5 11  1  6  0  0  0
  5 18  1  0  0  0  0
  6  9  2  0  0  0  0
  7  5  1  0  0  0  0
  7  4  2  0  0  0  0
  9  4  1  0  0  0  0
 10 15  1  6  0  0  0
 10 14  1  0  0  0  0
 12  8  1  0  0  0  0
 13 15  1  0  0  0  0
 14  3  1  1  0  0  0
 16  6  1  0  0  0  0
 17  2  2  0  0  0  0
 17  6  1  0  0  0  0
 18 14  1  0  0  0  0
 18  8  1  1  0  0  0
 19 13  1  0  0  0  0
 20 11  1  1  0  0  0
 20 10  1  0  0  0  0
 21 24  1  6  0  0  0
 21  1  1  0  0  0  0
 22 21  1  0  0  0  0
 23 26  1  0  0  0  0
 23 28  1  0  0  0  0
 25 26  2  0  0  0  0
 26 22  1  0  0  0  0
 27 23  1  0  0  0  0
 28 24  1  0  0  0  0
M  END
>  <MODEL>
7

>  <REMARK>
 VINA RESULT:      -8.2      1.314      1.749
  Name = 
  1 active torsions:
  status: ('A' for Active; 'I' for Inactive)
    1  A    between atoms: C_1  and  C_2
                            x       y       z     vdW  Elec       q    Type
                         _______ _______ _______ _____ _____    ______ ____

>  <TORSDO>
F 1

$$$$
=
 OpenBabel11052413343D

 28 32  0  0  1  0  0  0  0  0999 V2000
  190.4130  176.9090  138.7010 C   0  0  1  0  0  3  0  0  0  0  0  0
  191.0900  176.2500  143.8680 C   0  0  0  0  0  3  0  0  0  0  0  0
  186.3440  178.7630  140.7840 O   0  0  0  0  0  1  0  0  0  0  0  0
  189.2210  177.5050  144.7770 C   0  0  0  0  0  0  0  0  0  0  0  0
  189.1520  176.8410  142.3410 C   0  0  2  0  0  3  0  0  0  0  0  0
  191.0900  176.9120  146.1970 C   0  0  0  0  0  0  0  0  0  0  0  0
  189.8560  176.8910  143.6770 C   0  0  0  0  0  0  0  0  0  0  0  0
  187.1950  177.9360  143.4350 C   0  0  0  0  0  2  0  0  0  0  0  0
  189.8480  177.5260  146.0260 C   0  0  0  0  0  3  0  0  0  0  0  0
  188.2180  177.7260  139.6890 C   0  0  1  0  0  3  0  0  0  0  0  0
  190.1260  176.9420  141.1720 C   0  0  0  0  0  2  0  0  0  0  0  0
  187.9680  178.1100  144.6220 O   0  0  0  0  0  0  0  0  0  0  0  0
  189.2580  179.0570  137.9730 C   0  0  0  0  0  2  0  0  0  0  0  0
  187.3060  177.7600  140.9250 C   0  0  1  0  0  3  0  0  0  0  0  0
  188.7310  179.0520  139.3480 N   0  0  0  0  0  2  0  0  0  0  0  0
  191.6930  176.9310  147.4100 F   0  0  0  0  0  0  0  0  0  0  0  0
  191.7070  176.2660  145.1220 C   0  0  0  0  0  3  0  0  0  0  0  0
  188.1080  177.9580  142.2120 C   0  0  2  0  0  3  0  0  0  0  0  0
  189.8550  177.7100  137.5220 C   0  0  0  0  0  2  0  0  0  0  0  0
  189.3950  176.7390  139.8440 C   0  0  2  0  0  3  0  0  0  0  0  0
  191.0280  175.5840  138.2280 C   0  0  1  0  0  3  0  0  0  0  0  0
  190.5020  175.1890  136.9240 N   0  0  0  0  0  2  0  0  0  0  0  0
  192.6170  175.8230  135.8020 N   0  0  0  0  0  0  0  0  0  0  0  0
  192.5650  175.5560  138.2500 C   0  0  0  0  0  2  0  0  0  0  0  0
  190.7410  175.0780  134.6130 O   0  0  0  0  0  0  0  0  0  0  0  0
  191.2610  175.3630  135.7250 C   0  0  0  0  0  0  0  0  0  0  0  0
  193.4360  175.9310  134.6060 C   0  0  0  0  0  1  0  0  0  0  0  0
  193.1570  176.3180  137.0640 C   0  0  0  0  0  2  0  0  0  0  0  0
  1 19  1  6  0  0  0
  1 20  1  0  0  0  0
  2 17  1  0  0  0  0
  4  9  2  0  0  0  0
  5 11  1  6  0  0  0
  5  7  1  0  0  0  0
  6 16  1  0  0  0  0
  7  2  2  0  0  0  0
  7  4  1  0  0  0  0
  8 12  1  0  0  0  0
  9  6  1  0  0  0  0
 10 15  1  1  0  0  0
 10 20  1  0  0  0  0
 10 14  1  0  0  0  0
 12  4  1  0  0  0  0
 13 15  1  0  0  0  0
 14  3  1  6  0  0  0
 14 18  1  0  0  0  0
 17  6  2  0  0  0  0
 18  5  1  0  0  0  0
 18  8  1  1  0  0  0
 19 13  1  0  0  0  0
 20 11  1  1  0  0  0
 21 24  1  6  0  0  0
 21  1  1  0  0  0  0
 22 21  1  0  0  0  0
 23 28  1  0  0  0  0
 25 26  2  0  0  0  0
 26 23  1  0  0  0  0
 26 22  1  0  0  0  0
 27 23  1  0  0  0  0
 28 24  1  0  0  0  0
M  END
>  <MODEL>
8

>  <REMARK>
 VINA RESULT:      -8.0      3.737      5.826
  Name = 
  1 active torsions:
  status: ('A' for Active; 'I' for Inactive)
    1  A    between atoms: C_1  and  C_2
                            x       y       z     vdW  Elec       q    Type
                         _______ _______ _______ _____ _____    ______ ____

>  <TORSDO>
F 1

$$$$
=
 OpenBabel11052413343D

 28 32  0  0  1  0  0  0  0  0999 V2000
  186.2750  178.2600  139.9140 C   0  0  1  0  0  3  0  0  0  0  0  0
  188.7830  177.7240  144.4990 C   0  0  0  0  0  3  0  0  0  0  0  0
  190.9980  177.4890  138.7200 O   0  0  0  0  0  1  0  0  0  0  0  0
  190.9860  177.0030  143.7770 C   0  0  0  0  0  0  0  0  0  0  0  0
  189.4570  178.0800  142.0800 C   0  0  2  0  0  3  0  0  0  0  0  0
  190.2990  176.6910  146.0780 C   0  0  0  0  0  0  0  0  0  0  0  0
  189.7280  177.5640  143.4740 C   0  0  0  0  0  0  0  0  0  0  0  0
  191.8160  177.5030  141.5070 C   0  0  0  0  0  2  0  0  0  0  0  0
  191.2600  176.5550  145.0720 C   0  0  0  0  0  3  0  0  0  0  0  0
  188.7120  178.0380  139.2270 C   0  0  1  0  0  3  0  0  0  0  0  0
  188.0040  177.8790  141.6620 C   0  0  0  0  0  2  0  0  0  0  0  0
  191.9620  176.8770  142.7820 O   0  0  0  0  0  0  0  0  0  0  0  0
  187.0670  176.7730  138.0070 C   0  0  0  0  0  2  0  0  0  0  0  0
  190.1780  178.0820  139.6840 C   0  0  1  0  0  3  0  0  0  0  0  0
  188.3120  176.7010  138.7910 N   0  0  0  0  0  2  0  0  0  0  0  0
  190.5700  176.2590  147.3330 F   0  0  0  0  0  0  0  0  0  0  0  0
  189.0660  177.2820  145.7940 C   0  0  0  0  0  3  0  0  0  0  0  0
  190.3660  177.4060  141.0430 C   0  0  2  0  0  3  0  0  0  0  0  0
  186.1180  177.9100  138.4330 C   0  0  0  0  0  2  0  0  0  0  0  0
  187.7360  178.5430  140.3110 C   0  0  2  0  0  3  0  0  0  0  0  0
  185.3020  179.3750  140.3250 C   0  0  1  0  0  3  0  0  0  0  0  0
  184.4280  179.7520  139.2180 N   0  0  0  0  0  2  0  0  0  0  0  0
  182.5030  178.5830  140.2480 N   0  0  0  0  0  0  0  0  0  0  0  0
  184.5000  179.0770  141.6030 C   0  0  0  0  0  2  0  0  0  0  0  0
  182.3720  179.5990  138.1410 O   0  0  0  0  0  0  0  0  0  0  0  0
  183.0690  179.3120  139.1500 C   0  0  0  0  0  0  0  0  0  0  0  0
  181.1030  178.1950  140.2400 C   0  0  0  0  0  1  0  0  0  0  0  0
  183.3550  178.1010  141.3300 C   0  0  0  0  0  2  0  0  0  0  0  0
  1 19  1  6  0  0  0
  1 20  1  0  0  0  0
  1 21  1  0  0  0  0
  2 17  1  0  0  0  0
  4  9  2  0  0  0  0
  5 11  1  6  0  0  0
  5  7  1  0  0  0  0
  6 16  1  0  0  0  0
  7  4  1  0  0  0  0
  7  2  2  0  0  0  0
  8 12  1  0  0  0  0
  9  6  1  0  0  0  0
 10 15  1  1  0  0  0
 10 14  1  0  0  0  0
 10 20  1  0  0  0  0
 12  4  1  0  0  0  0
 13 19  1  0  0  0  0
 13 15  1  0  0  0  0
 14  3  1  6  0  0  0
 14 18  1  0  0  0  0
 17  6  2  0  0  0  0
 18  8  1  1  0  0  0
 18  5  1  0  0  0  0
 20 11  1  1  0  0  0
 21 24  1  1  0  0  0
 22 21  1  0  0  0  0
 23 28  1  0  0  0  0
 25 26  2  0  0  0  0
 26 22  1  0  0  0  0
 26 23  1  0  0  0  0
 27 23  1  0  0  0  0
 28 24  1  0  0  0  0
M  END
>  <MODEL>
9

>  <REMARK>
 VINA RESULT:      -7.9      3.692      6.898
  Name = 
  1 active torsions:
  status: ('A' for Active; 'I' for Inactive)
    1  A    between atoms: C_1  and  C_2
                            x       y       z     vdW  Elec       q    Type
                         _______ _______ _______ _____ _____    ______ ____

>  <TORSDO>
F 1

$$$$
