=
 OpenBabel11052417043D

 32 34  0  0  1  0  0  0  0  0999 V2000
  186.7520  178.9000  140.8110 C   0  0  2  0  0  3  0  0  0  0  0  0
  185.6110  178.4890  139.4480 S   0  0  0  0  0  0  0  0  0  0  0  0
  188.1010  178.7130  140.4450 O   0  0  0  0  0  0  0  0  0  0  0  0
  188.1210  177.7410  139.4370 C   0  0  1  0  0  3  0  0  0  0  0  0
  187.0300  178.0450  138.4450 C   0  0  0  0  0  2  0  0  0  0  0  0
  187.5900  178.0180  143.0470 C   0  0  0  0  0  2  0  0  0  0  0  0
  186.1510  178.2870  144.9490 O   0  0  0  0  0  0  0  0  0  0  0  0
  184.9910  178.1720  144.1600 C   0  0  2  0  0  3  0  0  0  0  0  0
  186.3950  178.1550  142.0980 C   0  0  1  0  0  3  0  0  0  0  0  0
  185.2160  178.8330  142.7970 C   0  0  0  0  0  2  0  0  0  0  0  0
  187.1140  177.4370  144.3760 C   0  0  2  0  0  3  0  0  0  0  0  0
  182.6860  179.1090  144.1400 O   0  0  0  0  0  0  0  0  0  0  0  0
  183.8960  179.0710  146.0850 O   0  0  0  0  0  1  0  0  0  0  0  0
  183.8340  178.8030  144.8550 C   0  0  0  0  0  0  0  0  0  0  0  0
  188.2990  177.2840  145.3150 C   0  0  0  0  0  2  0  0  0  0  0  0
  187.9300  177.7090  146.7270 C   0  0  0  0  0  2  0  0  0  0  0  0
  188.9700  177.4010  147.6060 O   0  0  0  0  0  0  0  0  0  0  0  0
  189.9250  176.7670  146.8110 C   0  0  0  0  0  2  0  0  0  0  0  0
  191.2640  176.7830  147.5150 C   0  0  0  0  0  2  0  0  0  0  0  0
  192.1410  175.6810  146.9590 C   0  0  0  0  0  1  0  0  0  0  0  0
  189.4790  177.7290  138.7490 C   0  0  0  0  0  2  0  0  0  0  0  0
  192.8370  176.9580  139.1630 C   0  0  0  0  0  0  0  0  0  0  0  0
  191.7160  176.1420  137.0700 C   0  0  2  0  0  3  0  0  0  0  0  0
  190.3390  176.5190  139.1400 C   0  0  1  0  0  3  0  0  0  0  0  0
  193.9610  176.9510  137.0650 O   0  0  0  0  0  1  0  0  0  0  0  0
  193.8250  177.5150  139.7140 O   0  0  0  0  0  0  0  0  0  0  0  0
  190.6150  175.5830  137.9600 C   0  0  0  0  0  2  0  0  0  0  0  0
  191.8900  175.3040  135.9690 O   0  0  0  0  0  1  0  0  0  0  0  0
  191.5660  176.9080  139.8410 N   0  0  0  0  0  0  0  0  0  0  0  0
  193.0260  176.2620  137.8410 C   0  0  1  0  0  3  0  0  0  0  0  0
  191.4440  177.3840  141.2150 C   0  0  0  0  0  2  0  0  0  0  0  0
  190.6240  176.4070  142.0370 C   0  0  0  0  0  1  0  0  0  0  0  0
  1  2  1  6  0  0  0
  1  9  1  0  0  0  0
  3  1  1  0  0  0  0
  4 21  1  6  0  0  0
  4  3  1  0  0  0  0
  5  4  1  0  0  0  0
  5  2  1  0  0  0  0
  6 11  1  0  0  0  0
  8 14  1  1  0  0  0
  8  7  1  0  0  0  0
  9 10  1  1  0  0  0
  9  6  1  0  0  0  0
 10  8  1  0  0  0  0
 11  7  1  0  0  0  0
 11 15  1  1  0  0  0
 12 14  2  0  0  0  0
 14 13  1  0  0  0  0
 15 16  1  0  0  0  0
 16 17  1  0  0  0  0
 18 19  1  0  0  0  0
 18 17  1  0  0  0  0
 20 19  1  0  0  0  0
 22 26  2  0  0  0  0
 22 29  1  0  0  0  0
 23 28  1  6  0  0  0
 23 30  1  0  0  0  0
 23 27  1  0  0  0  0
 24 21  1  6  0  0  0
 24 29  1  0  0  0  0
 27 24  1  0  0  0  0
 29 31  1  0  0  0  0
 30 25  1  6  0  0  0
 30 22  1  0  0  0  0
 31 32  1  0  0  0  0
M  END
>  <MODEL>
1

>  <REMARK>
 VINA RESULT:      -7.8      0.000      0.000
  Name = 
  10 active torsions:
  status: ('A' for Active; 'I' for Inactive)
    1  A    between atoms: C_1  and  C_20
    2  A    between atoms: C_4  and  C_12
    3  A    between atoms: C_6  and  N_31
    4  A    between atoms: C_9  and  C_28
    5  A    between atoms: C_10  and  C_19
    6  A    between atoms: C_10  and  C_23
    7  A    between atoms: C_15  and  C_26
    8  A    between atoms: C_16  and  C_26
    9  A    between atoms: C_19  and  O_24
   10  A    between atoms: C_20  and  O_24
                            x       y       z     vdW  Elec       q    Type
                         _______ _______ _______ _____ _____    ______ ____

>  <TORSDO>
F 10

$$$$
=
 OpenBabel11052417043D

 32 34  0  0  1  0  0  0  0  0999 V2000
  188.5980  176.6620  142.7160 C   0  0  2  0  0  3  0  0  0  0  0  0
  190.3510  176.1570  142.6800 S   0  0  0  0  0  0  0  0  0  0  0  0
  188.1940  177.2540  141.5020 O   0  0  0  0  0  0  0  0  0  0  0  0
  189.3390  177.8040  140.9130 C   0  0  1  0  0  3  0  0  0  0  0  0
  190.4650  176.8100  141.0130 C   0  0  0  0  0  2  0  0  0  0  0  0
  186.7940  177.5610  144.2720 C   0  0  0  0  0  2  0  0  0  0  0  0
  187.3100  177.6710  146.6130 O   0  0  0  0  0  0  0  0  0  0  0  0
  188.6730  177.9150  146.3600 C   0  0  2  0  0  3  0  0  0  0  0  0
  188.2860  177.5500  143.9230 C   0  0  1  0  0  3  0  0  0  0  0  0
  189.1270  177.1260  145.1280 C   0  0  0  0  0  2  0  0  0  0  0  0
  186.5900  178.3090  145.5870 C   0  0  2  0  0  3  0  0  0  0  0  0
  190.4380  176.5270  147.4340 O   0  0  0  0  0  0  0  0  0  0  0  0
  189.3190  178.1110  148.6520 O   0  0  0  0  0  1  0  0  0  0  0  0
  189.4900  177.5340  147.5460 C   0  0  0  0  0  0  0  0  0  0  0  0
  185.1100  178.3360  145.9290 C   0  0  0  0  0  2  0  0  0  0  0  0
  184.3420  179.2090  144.9490 C   0  0  0  0  0  2  0  0  0  0  0  0
  183.0460  178.7160  144.7830 O   0  0  0  0  0  0  0  0  0  0  0  0
  182.7480  178.9580  143.4420 C   0  0  0  0  0  2  0  0  0  0  0  0
  184.0230  178.9260  142.6260 C   0  0  0  0  0  2  0  0  0  0  0  0
  183.8110  178.0720  141.3930 C   0  0  0  0  0  1  0  0  0  0  0  0
  189.0620  178.1520  139.4570 C   0  0  0  0  0  2  0  0  0  0  0  0
  188.9980  177.3030  136.0930 C   0  0  0  0  0  0  0  0  0  0  0  0
  186.7910  177.6710  137.2310 C   0  0  2  0  0  3  0  0  0  0  0  0
  188.7690  176.9200  138.5900 C   0  0  1  0  0  3  0  0  0  0  0  0
  187.1870  178.3840  134.9890 O   0  0  0  0  0  1  0  0  0  0  0  0
  189.7510  177.5060  135.1010 O   0  0  0  0  0  0  0  0  0  0  0  0
  187.2740  176.7260  138.3220 C   0  0  0  0  0  2  0  0  0  0  0  0
  185.4140  177.5190  137.0650 O   0  0  0  0  0  1  0  0  0  0  0  0
  189.5630  176.9030  137.3570 N   0  0  0  0  0  0  0  0  0  0  0  0
  187.5060  177.3870  135.9140 C   0  0  1  0  0  3  0  0  0  0  0  0
  190.9860  176.6040  137.4680 C   0  0  0  0  0  2  0  0  0  0  0  0
  191.2050  175.1030  137.5070 C   0  0  0  0  0  1  0  0  0  0  0  0
  1  3  1  6  0  0  0
  1  9  1  0  0  0  0
  2  1  1  0  0  0  0
  4 21  1  6  0  0  0
  4  5  1  0  0  0  0
  4  3  1  0  0  0  0
  5  2  1  0  0  0  0
  6 11  1  0  0  0  0
  8  7  1  0  0  0  0
  8 14  1  1  0  0  0
  9  6  1  1  0  0  0
  9 10  1  0  0  0  0
 10  8  1  0  0  0  0
 11 15  1  1  0  0  0
 11  7  1  0  0  0  0
 12 14  2  0  0  0  0
 14 13  1  0  0  0  0
 16 15  1  0  0  0  0
 17 16  1  0  0  0  0
 18 17  1  0  0  0  0
 19 18  1  0  0  0  0
 20 19  1  0  0  0  0
 22 29  1  0  0  0  0
 23 28  1  6  0  0  0
 23 27  1  0  0  0  0
 24 21  1  6  0  0  0
 26 22  2  0  0  0  0
 27 24  1  0  0  0  0
 29 31  1  0  0  0  0
 29 24  1  0  0  0  0
 30 25  1  6  0  0  0
 30 22  1  0  0  0  0
 30 23  1  0  0  0  0
 31 32  1  0  0  0  0
M  END
>  <MODEL>
2

>  <REMARK>
 VINA RESULT:      -7.3      2.409      5.330
  Name = 
  10 active torsions:
  status: ('A' for Active; 'I' for Inactive)
    1  A    between atoms: C_1  and  C_20
    2  A    between atoms: C_4  and  C_12
    3  A    between atoms: C_6  and  N_31
    4  A    between atoms: C_9  and  C_28
    5  A    between atoms: C_10  and  C_19
    6  A    between atoms: C_10  and  C_23
    7  A    between atoms: C_15  and  C_26
    8  A    between atoms: C_16  and  C_26
    9  A    between atoms: C_19  and  O_24
   10  A    between atoms: C_20  and  O_24
                            x       y       z     vdW  Elec       q    Type
                         _______ _______ _______ _____ _____    ______ ____

>  <TORSDO>
F 10

$$$$
=
 OpenBabel11052417043D

 32 34  0  0  1  0  0  0  0  0999 V2000
  186.0170  177.6880  144.4030 C   0  0  2  0  0  3  0  0  0  0  0  0
  185.2090  178.7470  145.6500 S   0  0  0  0  0  0  0  0  0  0  0  0
  187.1670  177.0530  144.9150 O   0  0  0  0  0  0  0  0  0  0  0  0
  187.6550  177.8600  145.9500 C   0  0  1  0  0  3  0  0  0  0  0  0
  186.5010  178.3000  146.8110 C   0  0  0  0  0  2  0  0  0  0  0  0
  187.4610  177.8350  142.3110 C   0  0  0  0  0  2  0  0  0  0  0  0
  186.3610  178.3730  140.2460 O   0  0  0  0  0  0  0  0  0  0  0  0
  185.4010  179.1690  140.8990 C   0  0  2  0  0  3  0  0  0  0  0  0
  186.3080  178.4520  143.1090 C   0  0  1  0  0  3  0  0  0  0  0  0
  185.0440  178.5540  142.2550 C   0  0  0  0  0  2  0  0  0  0  0  0
  187.5650  178.5320  140.9570 C   0  0  2  0  0  3  0  0  0  0  0  0
  183.0610  178.5330  140.3410 O   0  0  0  0  0  1  0  0  0  0  0  0
  184.1650  180.0850  139.0700 O   0  0  0  0  0  0  0  0  0  0  0  0
  184.1820  179.2970  140.0530 C   0  0  0  0  0  0  0  0  0  0  0  0
  188.7180  177.9340  140.1670 C   0  0  0  0  0  2  0  0  0  0  0  0
  189.5580  177.0180  141.0430 C   0  0  0  0  0  2  0  0  0  0  0  0
  190.8540  176.9250  140.5330 O   0  0  0  0  0  0  0  0  0  0  0  0
  190.7070  177.1410  139.1630 C   0  0  0  0  0  2  0  0  0  0  0  0
  191.3840  176.0230  138.3980 C   0  0  0  0  0  2  0  0  0  0  0  0
  192.7870  176.4470  138.0210 C   0  0  0  0  0  1  0  0  0  0  0  0
  188.6750  177.0900  146.7770 C   0  0  0  0  0  2  0  0  0  0  0  0
  191.5320  176.4560  144.9120 C   0  0  0  0  0  0  0  0  0  0  0  0
  191.5120  175.6680  147.2960 C   0  0  2  0  0  3  0  0  0  0  0  0
  190.1000  177.6420  146.6380 C   0  0  1  0  0  3  0  0  0  0  0  0
  192.5070  174.3810  145.5500 O   0  0  0  0  0  1  0  0  0  0  0  0
  191.7770  176.2220  143.6970 O   0  0  0  0  0  0  0  0  0  0  0  0
  191.0610  177.0700  147.6830 C   0  0  0  0  0  2  0  0  0  0  0  0
  192.3260  175.1510  148.3030 O   0  0  0  0  0  1  0  0  0  0  0  0
  190.6190  177.5120  145.2720 N   0  0  0  0  0  0  0  0  0  0  0  0
  192.2740  175.6910  145.9750 C   0  0  1  0  0  3  0  0  0  0  0  0
  190.0750  178.3980  144.2500 C   0  0  0  0  0  2  0  0  0  0  0  0
  191.0540  179.5170  143.9510 C   0  0  0  0  0  1  0  0  0  0  0  0
  1  3  1  1  0  0  0
  1  2  1  0  0  0  0
  2  5  1  0  0  0  0
  3  4  1  0  0  0  0
  4 21  1  1  0  0  0
  4  5  1  0  0  0  0
  6  9  1  0  0  0  0
  7  8  1  0  0  0  0
  7 11  1  0  0  0  0
  8 14  1  6  0  0  0
  8 10  1  0  0  0  0
  9 10  1  6  0  0  0
  9  1  1  0  0  0  0
 11 15  1  6  0  0  0
 11  6  1  0  0  0  0
 13 14  2  0  0  0  0
 14 12  1  0  0  0  0
 15 16  1  0  0  0  0
 17 16  1  0  0  0  0
 18 17  1  0  0  0  0
 19 18  1  0  0  0  0
 20 19  1  0  0  0  0
 22 29  1  0  0  0  0
 22 30  1  0  0  0  0
 23 27  1  0  0  0  0
 23 28  1  1  0  0  0
 24 21  1  6  0  0  0
 24 27  1  0  0  0  0
 26 22  2  0  0  0  0
 29 24  1  0  0  0  0
 30 25  1  6  0  0  0
 30 23  1  0  0  0  0
 31 29  1  0  0  0  0
 32 31  1  0  0  0  0
M  END
>  <MODEL>
3

>  <REMARK>
 VINA RESULT:      -7.2      2.690      6.629
  Name = 
  10 active torsions:
  status: ('A' for Active; 'I' for Inactive)
    1  A    between atoms: C_1  and  C_20
    2  A    between atoms: C_4  and  C_12
    3  A    between atoms: C_6  and  N_31
    4  A    between atoms: C_9  and  C_28
    5  A    between atoms: C_10  and  C_19
    6  A    between atoms: C_10  and  C_23
    7  A    between atoms: C_15  and  C_26
    8  A    between atoms: C_16  and  C_26
    9  A    between atoms: C_19  and  O_24
   10  A    between atoms: C_20  and  O_24
                            x       y       z     vdW  Elec       q    Type
                         _______ _______ _______ _____ _____    ______ ____

>  <TORSDO>
F 10

$$$$
=
 OpenBabel11052417043D

 32 34  0  0  1  0  0  0  0  0999 V2000
  188.9470  177.9110  140.5890 C   0  0  2  0  0  3  0  0  0  0  0  0
  190.4320  176.9000  140.2700 S   0  0  0  0  0  0  0  0  0  0  0  0
  188.4760  177.7570  141.9090 O   0  0  0  0  0  0  0  0  0  0  0  0
  188.8870  176.4920  142.3450 C   0  0  1  0  0  3  0  0  0  0  0  0
  190.3250  176.2830  141.9510 C   0  0  0  0  0  2  0  0  0  0  0  0
  186.5880  178.4830  139.8190 C   0  0  0  0  0  2  0  0  0  0  0  0
  186.2340  178.7600  137.4610 O   0  0  0  0  0  0  0  0  0  0  0  0
  187.2260  177.8130  137.1430 C   0  0  2  0  0  3  0  0  0  0  0  0
  187.8510  177.6560  139.5520 C   0  0  1  0  0  3  0  0  0  0  0  0
  188.3830  177.9100  138.1410 C   0  0  0  0  0  2  0  0  0  0  0  0
  185.6220  178.3180  138.6480 C   0  0  2  0  0  3  0  0  0  0  0  0
  186.8200  178.3290  134.7420 O   0  0  0  0  0  0  0  0  0  0  0  0
  188.9510  177.9530  135.4940 O   0  0  0  0  0  1  0  0  0  0  0  0
  187.7210  178.0370  135.7550 C   0  0  0  0  0  0  0  0  0  0  0  0
  184.3620  179.1230  138.9150 C   0  0  0  0  0  2  0  0  0  0  0  0
  183.2040  178.2110  139.2900 C   0  0  0  0  0  2  0  0  0  0  0  0
  183.4690  177.5770  140.5040 O   0  0  0  0  0  0  0  0  0  0  0  0
  183.2170  178.5500  141.4710 C   0  0  0  0  0  2  0  0  0  0  0  0
  184.2300  178.4290  142.5890 C   0  0  0  0  0  2  0  0  0  0  0  0
  183.5730  178.7820  143.9060 C   0  0  0  0  0  1  0  0  0  0  0  0
  188.7260  176.3810  143.8550 C   0  0  0  0  0  2  0  0  0  0  0  0
  189.6280  177.5500  146.9950 C   0  0  0  0  0  0  0  0  0  0  0  0
  187.1840  177.5590  146.4200 C   0  0  2  0  0  3  0  0  0  0  0  0
  188.8860  177.7270  144.5760 C   0  0  1  0  0  3  0  0  0  0  0  0
  187.9630  177.0010  148.6050 O   0  0  0  0  0  1  0  0  0  0  0  0
  190.5440  177.2880  147.8220 O   0  0  0  0  0  0  0  0  0  0  0  0
  187.5630  178.2650  145.1250 C   0  0  0  0  0  2  0  0  0  0  0  0
  185.9420  178.0210  146.8520 O   0  0  0  0  0  1  0  0  0  0  0  0
  189.9400  177.6930  145.5960 N   0  0  0  0  0  0  0  0  0  0  0  0
  188.2330  177.8090  147.4980 C   0  0  1  0  0  3  0  0  0  0  0  0
  191.3260  177.6640  145.1410 C   0  0  0  0  0  2  0  0  0  0  0  0
  191.5850  178.8060  144.1770 C   0  0  0  0  0  1  0  0  0  0  0  0
  1  2  1  6  0  0  0
  1  3  1  0  0  0  0
  2  5  1  0  0  0  0
  3  4  1  0  0  0  0
  4 21  1  1  0  0  0
  5  4  1  0  0  0  0
  7 11  1  0  0  0  0
  8 14  1  6  0  0  0
  8  7  1  0  0  0  0
  8 10  1  0  0  0  0
  9 10  1  6  0  0  0
  9  6  1  0  0  0  0
  9  1  1  0  0  0  0
 11 15  1  1  0  0  0
 11  6  1  0  0  0  0
 12 14  2  0  0  0  0
 13 14  1  0  0  0  0
 15 16  1  0  0  0  0
 16 17  1  0  0  0  0
 17 18  1  0  0  0  0
 18 19  1  0  0  0  0
 19 20  1  0  0  0  0
 22 30  1  0  0  0  0
 22 26  2  0  0  0  0
 23 28  1  1  0  0  0
 23 30  1  0  0  0  0
 24 21  1  1  0  0  0
 24 27  1  0  0  0  0
 24 29  1  0  0  0  0
 27 23  1  0  0  0  0
 29 22  1  0  0  0  0
 30 25  1  1  0  0  0
 31 29  1  0  0  0  0
 32 31  1  0  0  0  0
M  END
>  <MODEL>
4

>  <REMARK>
 VINA RESULT:      -7.2      2.954      7.865
  Name = 
  10 active torsions:
  status: ('A' for Active; 'I' for Inactive)
    1  A    between atoms: C_1  and  C_20
    2  A    between atoms: C_4  and  C_12
    3  A    between atoms: C_6  and  N_31
    4  A    between atoms: C_9  and  C_28
    5  A    between atoms: C_10  and  C_19
    6  A    between atoms: C_10  and  C_23
    7  A    between atoms: C_15  and  C_26
    8  A    between atoms: C_16  and  C_26
    9  A    between atoms: C_19  and  O_24
   10  A    between atoms: C_20  and  O_24
                            x       y       z     vdW  Elec       q    Type
                         _______ _______ _______ _____ _____    ______ ____

>  <TORSDO>
F 10

$$$$
=
 OpenBabel11052417043D

 32 34  0  0  1  0  0  0  0  0999 V2000
  185.3590  178.1220  146.2350 C   0  0  2  0  0  3  0  0  0  0  0  0
  185.7520  179.2650  147.6020 S   0  0  0  0  0  0  0  0  0  0  0  0
  186.4130  177.2220  145.9800 O   0  0  0  0  0  0  0  0  0  0  0  0
  187.5950  177.8440  146.4010 C   0  0  1  0  0  3  0  0  0  0  0  0
  187.3590  178.4820  147.7440 C   0  0  0  0  0  2  0  0  0  0  0  0
  185.7320  178.4620  143.7390 C   0  0  0  0  0  2  0  0  0  0  0  0
  183.7860  178.6810  142.3520 O   0  0  0  0  0  0  0  0  0  0  0  0
  183.0510  179.2980  143.3810 C   0  0  2  0  0  3  0  0  0  0  0  0
  184.9230  178.8720  144.9740 C   0  0  1  0  0  3  0  0  0  0  0  0
  183.4240  178.6830  144.7330 C   0  0  0  0  0  2  0  0  0  0  0  0
  185.1190  179.1060  142.4990 C   0  0  2  0  0  3  0  0  0  0  0  0
  180.7350  178.8730  144.1890 O   0  0  0  0  0  1  0  0  0  0  0  0
  181.1270  179.2450  141.9630 O   0  0  0  0  0  0  0  0  0  0  0  0
  181.5900  179.1440  143.1300 C   0  0  0  0  0  0  0  0  0  0  0  0
  185.9280  178.7150  141.2730 C   0  0  0  0  0  2  0  0  0  0  0  0
  187.3880  178.4970  141.6340 C   0  0  0  0  0  2  0  0  0  0  0  0
  188.2010  178.7890  140.5370 O   0  0  0  0  0  0  0  0  0  0  0  0
  188.9320  177.6210  140.3220 C   0  0  0  0  0  2  0  0  0  0  0  0
  189.8500  177.8080  139.1330 C   0  0  0  0  0  2  0  0  0  0  0  0
  189.1190  178.5640  138.0440 C   0  0  0  0  0  1  0  0  0  0  0  0
  188.7220  176.8240  146.4840 C   0  0  0  0  0  2  0  0  0  0  0  0
  191.6770  176.0840  144.8230 C   0  0  0  0  0  0  0  0  0  0  0  0
  191.6290  175.7230  147.3070 C   0  0  2  0  0  3  0  0  0  0  0  0
  190.1100  177.4450  146.2820 C   0  0  1  0  0  3  0  0  0  0  0  0
  192.7670  174.2280  145.8370 O   0  0  0  0  0  1  0  0  0  0  0  0
  191.9800  175.6610  143.6740 O   0  0  0  0  0  0  0  0  0  0  0  0
  191.0710  177.1340  147.4320 C   0  0  0  0  0  2  0  0  0  0  0  0
  192.4410  175.4490  148.4070 O   0  0  0  0  0  1  0  0  0  0  0  0
  190.6840  177.1180  144.9720 N   0  0  0  0  0  0  0  0  0  0  0  0
  192.4320  175.5710  146.0200 C   0  0  1  0  0  3  0  0  0  0  0  0
  190.1160  177.7710  143.7980 C   0  0  0  0  0  2  0  0  0  0  0  0
  191.0980  178.7800  143.2340 C   0  0  0  0  0  1  0  0  0  0  0  0
  1  3  1  6  0  0  0
  1  2  1  0  0  0  0
  2  5  1  0  0  0  0
  3  4  1  0  0  0  0
  4 21  1  1  0  0  0
  4  5  1  0  0  0  0
  7 11  1  0  0  0  0
  7  8  1  0  0  0  0
  8 14  1  6  0  0  0
  8 10  1  0  0  0  0
  9  6  1  6  0  0  0
  9  1  1  0  0  0  0
 10  9  1  0  0  0  0
 11 15  1  6  0  0  0
 11  6  1  0  0  0  0
 13 14  2  0  0  0  0
 14 12  1  0  0  0  0
 15 16  1  0  0  0  0
 17 16  1  0  0  0  0
 18 17  1  0  0  0  0
 19 18  1  0  0  0  0
 20 19  1  0  0  0  0
 22 29  1  0  0  0  0
 22 30  1  0  0  0  0
 23 27  1  0  0  0  0
 23 28  1  1  0  0  0
 24 21  1  1  0  0  0
 24 27  1  0  0  0  0
 26 22  2  0  0  0  0
 29 24  1  0  0  0  0
 30 25  1  6  0  0  0
 30 23  1  0  0  0  0
 31 29  1  0  0  0  0
 32 31  1  0  0  0  0
M  END
>  <MODEL>
5

>  <REMARK>
 VINA RESULT:      -6.8      3.115      6.599
  Name = 
  10 active torsions:
  status: ('A' for Active; 'I' for Inactive)
    1  A    between atoms: C_1  and  C_20
    2  A    between atoms: C_4  and  C_12
    3  A    between atoms: C_6  and  N_31
    4  A    between atoms: C_9  and  C_28
    5  A    between atoms: C_10  and  C_19
    6  A    between atoms: C_10  and  C_23
    7  A    between atoms: C_15  and  C_26
    8  A    between atoms: C_16  and  C_26
    9  A    between atoms: C_19  and  O_24
   10  A    between atoms: C_20  and  O_24
                            x       y       z     vdW  Elec       q    Type
                         _______ _______ _______ _____ _____    ______ ____

>  <TORSDO>
F 10

$$$$
=
 OpenBabel11052417043D

 32 34  0  0  1  0  0  0  0  0999 V2000
  184.8280  179.0690  143.4450 C   0  0  2  0  0  3  0  0  0  0  0  0
  183.4380  179.2700  144.6110 S   0  0  0  0  0  0  0  0  0  0  0  0
  184.3830  178.8430  142.1270 O   0  0  0  0  0  0  0  0  0  0  0  0
  183.1140  178.2580  142.2170 C   0  0  1  0  0  3  0  0  0  0  0  0
  182.3060  179.0020  143.2470 C   0  0  0  0  0  2  0  0  0  0  0  0
  187.0320  177.8780  142.9920 C   0  0  0  0  0  2  0  0  0  0  0  0
  188.4510  177.4290  144.8750 O   0  0  0  0  0  0  0  0  0  0  0  0
  187.3520  177.2760  145.7400 C   0  0  2  0  0  3  0  0  0  0  0  0
  185.8130  177.9960  143.9130 C   0  0  1  0  0  3  0  0  0  0  0  0
  186.2430  178.2600  145.3570 C   0  0  0  0  0  2  0  0  0  0  0  0
  188.0500  176.9300  143.6220 C   0  0  2  0  0  3  0  0  0  0  0  0
  188.8160  176.7530  147.6830 O   0  0  0  0  0  0  0  0  0  0  0  0
  187.1880  178.3530  147.8680 O   0  0  0  0  0  1  0  0  0  0  0  0
  187.7750  177.5000  147.1510 C   0  0  0  0  0  0  0  0  0  0  0  0
  189.2530  176.7980  142.7050 C   0  0  0  0  0  2  0  0  0  0  0  0
  190.4480  177.5550  143.2630 C   0  0  0  0  0  2  0  0  0  0  0  0
  191.6090  176.7950  143.1110 O   0  0  0  0  0  0  0  0  0  0  0  0
  191.6390  175.9710  144.2360 C   0  0  0  0  0  2  0  0  0  0  0  0
  191.6840  176.8230  145.4870 C   0  0  0  0  0  2  0  0  0  0  0  0
  192.0550  175.9590  146.6730 C   0  0  0  0  0  1  0  0  0  0  0  0
  182.4210  178.2990  140.8620 C   0  0  0  0  0  2  0  0  0  0  0  0
  182.2430  177.6510  137.4580 C   0  0  0  0  0  0  0  0  0  0  0  0
  181.0030  176.1000  138.9940 C   0  0  2  0  0  3  0  0  0  0  0  0
  183.0280  177.3210  139.8470 C   0  0  1  0  0  3  0  0  0  0  0  0
  180.1100  176.7650  136.8830 O   0  0  0  0  0  1  0  0  0  0  0  0
  182.2580  178.3510  136.4090 O   0  0  0  0  0  0  0  0  0  0  0  0
  182.2890  175.9820  139.8000 C   0  0  0  0  0  2  0  0  0  0  0  0
  180.3200  174.8840  139.0330 O   0  0  0  0  0  1  0  0  0  0  0  0
  183.1830  177.9200  138.5170 N   0  0  0  0  0  0  0  0  0  0  0  0
  181.3050  176.4770  137.5470 C   0  0  1  0  0  3  0  0  0  0  0  0
  184.2370  178.9110  138.3350 C   0  0  0  0  0  2  0  0  0  0  0  0
  185.5990  178.2490  138.4150 C   0  0  0  0  0  1  0  0  0  0  0  0
  1  3  1  6  0  0  0
  1  9  1  0  0  0  0
  1  2  1  0  0  0  0
  3  4  1  0  0  0  0
  4 21  1  6  0  0  0
  4  5  1  0  0  0  0
  5  2  1  0  0  0  0
  6 11  1  0  0  0  0
  7  8  1  0  0  0  0
  8 14  1  1  0  0  0
  9  6  1  6  0  0  0
  9 10  1  0  0  0  0
 10  8  1  0  0  0  0
 11 15  1  6  0  0  0
 11  7  1  0  0  0  0
 14 12  2  0  0  0  0
 14 13  1  0  0  0  0
 15 16  1  0  0  0  0
 17 16  1  0  0  0  0
 17 18  1  0  0  0  0
 18 19  1  0  0  0  0
 19 20  1  0  0  0  0
 22 30  1  0  0  0  0
 22 29  1  0  0  0  0
 23 28  1  6  0  0  0
 23 27  1  0  0  0  0
 24 21  1  1  0  0  0
 26 22  2  0  0  0  0
 27 24  1  0  0  0  0
 29 24  1  0  0  0  0
 30 25  1  6  0  0  0
 30 23  1  0  0  0  0
 31 32  1  0  0  0  0
 31 29  1  0  0  0  0
M  END
>  <MODEL>
6

>  <REMARK>
 VINA RESULT:      -6.8      3.956      6.938
  Name = 
  10 active torsions:
  status: ('A' for Active; 'I' for Inactive)
    1  A    between atoms: C_1  and  C_20
    2  A    between atoms: C_4  and  C_12
    3  A    between atoms: C_6  and  N_31
    4  A    between atoms: C_9  and  C_28
    5  A    between atoms: C_10  and  C_19
    6  A    between atoms: C_10  and  C_23
    7  A    between atoms: C_15  and  C_26
    8  A    between atoms: C_16  and  C_26
    9  A    between atoms: C_19  and  O_24
   10  A    between atoms: C_20  and  O_24
                            x       y       z     vdW  Elec       q    Type
                         _______ _______ _______ _____ _____    ______ ____

>  <TORSDO>
F 10

$$$$
=
 OpenBabel11052417043D

 32 34  0  0  1  0  0  0  0  0999 V2000
  184.8430  179.1880  144.1910 C   0  0  2  0  0  3  0  0  0  0  0  0
  183.1710  179.0030  144.8980 S   0  0  0  0  0  0  0  0  0  0  0  0
  184.8150  179.2810  142.7840 O   0  0  0  0  0  0  0  0  0  0  0  0
  183.6580  178.6190  142.3540 C   0  0  1  0  0  3  0  0  0  0  0  0
  182.5060  179.0270  143.2330 C   0  0  0  0  0  2  0  0  0  0  0  0
  186.8090  177.6790  143.6070 C   0  0  0  0  0  2  0  0  0  0  0  0
  188.4950  177.3630  145.2870 O   0  0  0  0  0  0  0  0  0  0  0  0
  187.5590  177.4860  146.3310 C   0  0  2  0  0  3  0  0  0  0  0  0
  185.7920  178.0900  144.6770 C   0  0  1  0  0  3  0  0  0  0  0  0
  186.4960  178.5250  145.9630 C   0  0  0  0  0  2  0  0  0  0  0  0
  187.8300  176.7260  144.2240 C   0  0  2  0  0  3  0  0  0  0  0  0
  189.5600  177.4840  147.8090 O   0  0  0  0  0  0  0  0  0  0  0  0
  187.6440  178.5510  148.4690 O   0  0  0  0  0  1  0  0  0  0  0  0
  188.2480  177.8770  147.5930 C   0  0  0  0  0  0  0  0  0  0  0  0
  188.8320  176.3030  143.1620 C   0  0  0  0  0  2  0  0  0  0  0  0
  188.8190  177.2680  141.9880 C   0  0  0  0  0  2  0  0  0  0  0  0
  189.8800  178.1690  142.0970 O   0  0  0  0  0  0  0  0  0  0  0  0
  190.9620  177.3870  142.5010 C   0  0  0  0  0  2  0  0  0  0  0  0
  191.6820  178.0690  143.6450 C   0  0  0  0  0  2  0  0  0  0  0  0
  190.9900  179.3770  143.9680 C   0  0  0  0  0  1  0  0  0  0  0  0
  183.3690  178.9650  140.8990 C   0  0  0  0  0  2  0  0  0  0  0  0
  181.6820  178.4630  137.9090 C   0  0  0  0  0  0  0  0  0  0  0  0
  181.0690  180.4940  139.2520 C   0  0  2  0  0  3  0  0  0  0  0  0
  181.9950  178.4720  140.4260 C   0  0  1  0  0  3  0  0  0  0  0  0
  181.1810  180.5440  136.8690 O   0  0  0  0  0  1  0  0  0  0  0  0
  181.9670  177.9490  136.7930 O   0  0  0  0  0  0  0  0  0  0  0  0
  180.9300  179.5710  140.4540 C   0  0  0  0  0  2  0  0  0  0  0  0
  180.1320  181.5220  139.3480 O   0  0  0  0  0  1  0  0  0  0  0  0
  182.0610  177.7930  139.1280 N   0  0  0  0  0  0  0  0  0  0  0  0
  180.8600  179.7230  137.9520 C   0  0  1  0  0  3  0  0  0  0  0  0
  182.6580  176.4630  139.0850 C   0  0  0  0  0  2  0  0  0  0  0  0
  181.5910  175.4030  139.2750 C   0  0  0  0  0  1  0  0  0  0  0  0
  1  3  1  6  0  0  0
  1  9  1  0  0  0  0
  1  2  1  0  0  0  0
  4 21  1  6  0  0  0
  4  3  1  0  0  0  0
  4  5  1  0  0  0  0
  5  2  1  0  0  0  0
  6 11  1  0  0  0  0
  7  8  1  0  0  0  0
  8 14  1  1  0  0  0
  9  6  1  6  0  0  0
  9 10  1  0  0  0  0
 10  8  1  0  0  0  0
 11 15  1  6  0  0  0
 11  7  1  0  0  0  0
 14 12  2  0  0  0  0
 14 13  1  0  0  0  0
 16 17  1  0  0  0  0
 16 15  1  0  0  0  0
 17 18  1  0  0  0  0
 18 19  1  0  0  0  0
 19 20  1  0  0  0  0
 22 30  1  0  0  0  0
 22 29  1  0  0  0  0
 23 28  1  1  0  0  0
 23 27  1  0  0  0  0
 24 27  1  0  0  0  0
 24 21  1  6  0  0  0
 26 22  2  0  0  0  0
 29 24  1  0  0  0  0
 30 25  1  6  0  0  0
 30 23  1  0  0  0  0
 31 29  1  0  0  0  0
 31 32  1  0  0  0  0
M  END
>  <MODEL>
7

>  <REMARK>
 VINA RESULT:      -6.8      4.131      7.607
  Name = 
  10 active torsions:
  status: ('A' for Active; 'I' for Inactive)
    1  A    between atoms: C_1  and  C_20
    2  A    between atoms: C_4  and  C_12
    3  A    between atoms: C_6  and  N_31
    4  A    between atoms: C_9  and  C_28
    5  A    between atoms: C_10  and  C_19
    6  A    between atoms: C_10  and  C_23
    7  A    between atoms: C_15  and  C_26
    8  A    between atoms: C_16  and  C_26
    9  A    between atoms: C_19  and  O_24
   10  A    between atoms: C_20  and  O_24
                            x       y       z     vdW  Elec       q    Type
                         _______ _______ _______ _____ _____    ______ ____

>  <TORSDO>
F 10

$$$$
=
 OpenBabel11052417043D

 32 34  0  0  1  0  0  0  0  0999 V2000
  185.1920  179.0370  143.8920 C   0  0  2  0  0  3  0  0  0  0  0  0
  183.5940  179.0000  144.7730 S   0  0  0  0  0  0  0  0  0  0  0  0
  185.0230  179.0340  142.4920 O   0  0  0  0  0  0  0  0  0  0  0  0
  183.7960  178.4140  142.2280 C   0  0  1  0  0  3  0  0  0  0  0  0
  182.7630  178.9480  143.1840 C   0  0  0  0  0  2  0  0  0  0  0  0
  187.2500  177.6360  143.3590 C   0  0  0  0  0  2  0  0  0  0  0  0
  188.7860  177.2060  145.1510 O   0  0  0  0  0  0  0  0  0  0  0  0
  187.7570  177.2080  146.1110 C   0  0  2  0  0  3  0  0  0  0  0  0
  186.1270  177.9220  144.3620 C   0  0  1  0  0  3  0  0  0  0  0  0
  186.6990  178.2520  145.7420 C   0  0  0  0  0  2  0  0  0  0  0  0
  188.2410  176.6540  143.9780 C   0  0  2  0  0  3  0  0  0  0  0  0
  189.6610  177.2650  147.7120 O   0  0  0  0  0  0  0  0  0  0  0  0
  187.5760  177.9360  148.3800 O   0  0  0  0  0  1  0  0  0  0  0  0
  188.3160  177.4960  147.4610 C   0  0  0  0  0  0  0  0  0  0  0  0
  189.3480  176.3560  142.9800 C   0  0  0  0  0  2  0  0  0  0  0  0
  190.3350  177.5090  142.9030 C   0  0  0  0  0  2  0  0  0  0  0  0
  191.0190  177.4730  141.6870 O   0  0  0  0  0  0  0  0  0  0  0  0
  190.1090  176.9150  140.7900 C   0  0  0  0  0  2  0  0  0  0  0  0
  190.1800  177.6530  139.4700 C   0  0  0  0  0  2  0  0  0  0  0  0
  188.8220  178.2410  139.1470 C   0  0  0  0  0  1  0  0  0  0  0  0
  183.3770  178.6750  140.7880 C   0  0  0  0  0  2  0  0  0  0  0  0
  182.3330  177.6720  137.6350 C   0  0  0  0  0  0  0  0  0  0  0  0
  180.9810  176.8890  139.5990 C   0  0  2  0  0  3  0  0  0  0  0  0
  183.4200  177.4160  139.9120 C   0  0  1  0  0  3  0  0  0  0  0  0
  179.9590  177.5320  137.5410 O   0  0  0  0  0  1  0  0  0  0  0  0
  182.3710  178.1700  136.4760 O   0  0  0  0  0  0  0  0  0  0  0  0
  182.2890  176.4340  140.2300 C   0  0  0  0  0  2  0  0  0  0  0  0
  179.9610  176.0140  139.9690 O   0  0  0  0  0  1  0  0  0  0  0  0
  183.4970  177.7320  138.4820 N   0  0  0  0  0  0  0  0  0  0  0  0
  181.1000  176.9330  138.0800 C   0  0  1  0  0  3  0  0  0  0  0  0
  184.7600  178.2490  137.9670 C   0  0  0  0  0  2  0  0  0  0  0  0
  185.5890  177.1210  137.3830 C   0  0  0  0  0  1  0  0  0  0  0  0
  1  3  1  6  0  0  0
  1  9  1  0  0  0  0
  1  2  1  0  0  0  0
  4 21  1  6  0  0  0
  4  3  1  0  0  0  0
  4  5  1  0  0  0  0
  5  2  1  0  0  0  0
  6 11  1  0  0  0  0
  7  8  1  0  0  0  0
  8 14  1  1  0  0  0
  9  6  1  6  0  0  0
  9 10  1  0  0  0  0
 10  8  1  0  0  0  0
 11 15  1  6  0  0  0
 11  7  1  0  0  0  0
 14 12  2  0  0  0  0
 14 13  1  0  0  0  0
 16 15  1  0  0  0  0
 17 16  1  0  0  0  0
 18 17  1  0  0  0  0
 19 18  1  0  0  0  0
 20 19  1  0  0  0  0
 22 30  1  0  0  0  0
 22 29  1  0  0  0  0
 23 28  1  6  0  0  0
 23 27  1  0  0  0  0
 24 27  1  0  0  0  0
 24 21  1  1  0  0  0
 26 22  2  0  0  0  0
 29 24  1  0  0  0  0
 30 25  1  6  0  0  0
 30 23  1  0  0  0  0
 31 29  1  0  0  0  0
 32 31  1  0  0  0  0
M  END
>  <MODEL>
8

>  <REMARK>
 VINA RESULT:      -6.7      3.675      7.378
  Name = 
  10 active torsions:
  status: ('A' for Active; 'I' for Inactive)
    1  A    between atoms: C_1  and  C_20
    2  A    between atoms: C_4  and  C_12
    3  A    between atoms: C_6  and  N_31
    4  A    between atoms: C_9  and  C_28
    5  A    between atoms: C_10  and  C_19
    6  A    between atoms: C_10  and  C_23
    7  A    between atoms: C_15  and  C_26
    8  A    between atoms: C_16  and  C_26
    9  A    between atoms: C_19  and  O_24
   10  A    between atoms: C_20  and  O_24
                            x       y       z     vdW  Elec       q    Type
                         _______ _______ _______ _____ _____    ______ ____

>  <TORSDO>
F 10

$$$$
=
 OpenBabel11052417043D

 32 34  0  0  1  0  0  0  0  0999 V2000
  185.1010  179.0810  143.9120 C   0  0  2  0  0  3  0  0  0  0  0  0
  183.4850  178.9920  144.7550 S   0  0  0  0  0  0  0  0  0  0  0  0
  184.9630  179.1380  142.5100 O   0  0  0  0  0  0  0  0  0  0  0  0
  183.7490  178.5180  142.1930 C   0  0  1  0  0  3  0  0  0  0  0  0
  182.6900  179.0010  143.1470 C   0  0  0  0  0  2  0  0  0  0  0  0
  187.1400  177.6720  143.3290 C   0  0  0  0  0  2  0  0  0  0  0  0
  188.7050  177.2140  145.0900 O   0  0  0  0  0  0  0  0  0  0  0  0
  187.6920  177.2130  146.0680 C   0  0  2  0  0  3  0  0  0  0  0  0
  186.0370  177.9550  144.3550 C   0  0  1  0  0  3  0  0  0  0  0  0
  186.6350  178.2680  145.7280 C   0  0  0  0  0  2  0  0  0  0  0  0
  188.1350  176.6780  143.9210 C   0  0  2  0  0  3  0  0  0  0  0  0
  189.5630  177.0510  147.7010 O   0  0  0  0  0  0  0  0  0  0  0  0
  187.6100  178.0920  148.2890 O   0  0  0  0  0  1  0  0  0  0  0  0
  188.2770  177.4840  147.4110 C   0  0  0  0  0  0  0  0  0  0  0  0
  189.2220  176.3820  142.9010 C   0  0  0  0  0  2  0  0  0  0  0  0
  189.0250  177.2120  141.6420 C   0  0  0  0  0  2  0  0  0  0  0  0
  190.1990  177.2200  140.8870 O   0  0  0  0  0  0  0  0  0  0  0  0
  189.8000  177.6570  139.6240 C   0  0  0  0  0  2  0  0  0  0  0  0
  188.3520  178.0960  139.6740 C   0  0  0  0  0  2  0  0  0  0  0  0
  187.7070  177.8640  138.3240 C   0  0  0  0  0  1  0  0  0  0  0  0
  183.3590  178.8370  140.7560 C   0  0  0  0  0  2  0  0  0  0  0  0
  181.4040  178.1010  137.9860 C   0  0  0  0  0  0  0  0  0  0  0  0
  181.2070  180.4080  138.9550 C   0  0  2  0  0  3  0  0  0  0  0  0
  181.8950  178.5010  140.4420 C   0  0  1  0  0  3  0  0  0  0  0  0
  181.1530  180.0200  136.6010 O   0  0  0  0  0  1  0  0  0  0  0  0
  181.5250  177.3590  136.9720 O   0  0  0  0  0  0  0  0  0  0  0  0
  181.0150  179.7470  140.3120 C   0  0  0  0  0  2  0  0  0  0  0  0
  180.4480  181.5770  138.9000 O   0  0  0  0  0  1  0  0  0  0  0  0
  181.7630  177.6030  139.2900 N   0  0  0  0  0  0  0  0  0  0  0  0
  180.7890  179.4660  137.8310 C   0  0  1  0  0  3  0  0  0  0  0  0
  182.1440  176.2060  139.4680 C   0  0  0  0  0  2  0  0  0  0  0  0
  180.9330  175.3760  139.8450 C   0  0  0  0  0  1  0  0  0  0  0  0
  1  3  1  6  0  0  0
  1  9  1  0  0  0  0
  1  2  1  0  0  0  0
  4 21  1  6  0  0  0
  4  3  1  0  0  0  0
  4  5  1  0  0  0  0
  5  2  1  0  0  0  0
  6 11  1  0  0  0  0
  7  8  1  0  0  0  0
  8 14  1  1  0  0  0
  9  6  1  6  0  0  0
  9 10  1  0  0  0  0
 10  8  1  0  0  0  0
 11 15  1  6  0  0  0
 11  7  1  0  0  0  0
 14 12  2  0  0  0  0
 14 13  1  0  0  0  0
 16 15  1  0  0  0  0
 17 16  1  0  0  0  0
 18 19  1  0  0  0  0
 18 17  1  0  0  0  0
 20 19  1  0  0  0  0
 22 29  1  0  0  0  0
 23 28  1  1  0  0  0
 23 27  1  0  0  0  0
 24 21  1  6  0  0  0
 26 22  2  0  0  0  0
 27 24  1  0  0  0  0
 29 31  1  0  0  0  0
 29 24  1  0  0  0  0
 30 25  1  6  0  0  0
 30 22  1  0  0  0  0
 30 23  1  0  0  0  0
 31 32  1  0  0  0  0
M  END
>  <MODEL>
9

>  <REMARK>
 VINA RESULT:      -6.7      4.159      7.989
  Name = 
  10 active torsions:
  status: ('A' for Active; 'I' for Inactive)
    1  A    between atoms: C_1  and  C_20
    2  A    between atoms: C_4  and  C_12
    3  A    between atoms: C_6  and  N_31
    4  A    between atoms: C_9  and  C_28
    5  A    between atoms: C_10  and  C_19
    6  A    between atoms: C_10  and  C_23
    7  A    between atoms: C_15  and  C_26
    8  A    between atoms: C_16  and  C_26
    9  A    between atoms: C_19  and  O_24
   10  A    between atoms: C_20  and  O_24
                            x       y       z     vdW  Elec       q    Type
                         _______ _______ _______ _____ _____    ______ ____

>  <TORSDO>
F 10

$$$$
