=
 OpenBabel11052415283D

 37 40  0  0  1  0  0  0  0  0999 V2000
  184.6130  178.2470  137.5510 N   0  0  0  0  0  0  0  0  0  0  0  0
  185.8400  178.2880  141.8190 C   0  0  0  0  0  3  0  0  0  0  0  0
  183.3700  177.9620  138.2500 C   0  0  2  0  0  3  0  0  0  0  0  0
  185.2220  178.5380  140.5880 C   0  0  0  0  0  0  0  0  0  0  0  0
  186.0580  178.4770  139.4570 O   0  0  0  0  0  0  0  0  0  0  0  0
  183.8380  178.8470  140.5650 C   0  0  0  0  0  0  0  0  0  0  0  0
  183.7600  178.6330  142.9920 C   0  0  0  0  0  3  0  0  0  0  0  0
  185.7780  178.4960  138.0760 C   0  0  0  0  0  0  0  0  0  0  0  0
  183.1270  178.8900  141.7770 C   0  0  0  0  0  3  0  0  0  0  0  0
  183.1130  179.0770  139.2710 C   0  0  2  0  0  3  0  0  0  0  0  0
  185.1200  178.3300  143.0140 C   0  0  0  0  0  0  0  0  0  0  0  0
  181.9450  176.0010  138.8070 C   0  0  0  0  0  2  0  0  0  0  0  0
  183.3600  176.5420  138.8310 C   0  0  1  0  0  3  0  0  0  0  0  0
  182.9410  175.5360  137.7720 C   0  0  1  0  0  3  0  0  0  0  0  0
  183.4540  174.1640  138.1680 C   0  0  0  0  0  2  0  0  0  0  0  0
  183.3930  173.2040  136.9940 C   0  0  0  0  0  2  0  0  0  0  0  0
  185.6830  172.9550  137.8970 C   0  0  0  0  0  2  0  0  0  0  0  0
  184.6830  172.3900  136.8970 C   0  0  2  0  0  3  0  0  0  0  0  0
  185.6190  172.7960  135.7470 C   0  0  1  0  0  3  0  0  0  0  0  0
  187.9180  172.6860  136.7890 C   0  0  0  0  0  1  0  0  0  0  0  0
  186.7440  174.9210  136.7480 C   0  0  0  0  0  1  0  0  0  0  0  0
  185.0350  173.7840  134.7350 C   0  0  0  0  0  1  0  0  0  0  0  0
  186.5840  173.4050  136.7640 C   0  0  0  0  0  0  0  0  0  0  0  0
  185.7920  178.0130  144.3050 C   0  0  0  0  0  2  0  0  0  0  0  0
  187.1270  177.3460  144.0420 C   0  0  0  0  0  1  0  0  0  0  0  0
  186.9260  178.7460  137.1600 C   0  0  0  0  0  2  0  0  0  0  0  0
  188.1040  178.2220  137.7030 O   0  0  0  0  0  1  0  0  0  0  0  0
  181.6950  179.4710  139.4430 N   0  0  0  0  0  0  0  0  0  0  0  0
  181.3560  180.7560  138.8080 C   0  0  1  0  0  3  0  0  0  0  0  0
  181.0990  180.5620  137.3240 C   0  0  0  0  0  1  0  0  0  0  0  0
  179.7860  182.5680  138.6560 O   0  0  0  0  0  1  0  0  0  0  0  0
  180.1790  181.4910  139.4530 C   0  0  0  0  0  2  0  0  0  0  0  0
  180.7560  178.4290  139.0400 C   0  0  0  0  0  2  0  0  0  0  0  0
  179.5630  178.4230  139.9710 C   0  0  0  0  0  2  0  0  0  0  0  0
  179.9700  177.8520  141.3120 C   0  0  0  0  0  2  0  0  0  0  0  0
  180.0200  178.2940  143.7440 C   0  0  0  0  0  1  0  0  0  0  0  0
  179.4210  178.7220  142.4230 C   0  0  0  0  0  2  0  0  0  0  0  0
  1  8  2  0  0  0  0
  2 11  1  0  0  0  0
  3  1  1  1  0  0  0
  3 13  1  0  0  0  0
  3 10  1  0  0  0  0
  4  2  2  0  0  0  0
  5  4  1  0  0  0  0
  6  4  1  0  0  0  0
  6  9  2  0  0  0  0
  7 11  2  0  0  0  0
  8  5  1  0  0  0  0
  9  7  1  0  0  0  0
 10 28  1  1  0  0  0
 10  6  1  0  0  0  0
 11 24  1  0  0  0  0
 13 12  1  1  0  0  0
 14 15  1  1  0  0  0
 14 12  1  0  0  0  0
 14 13  1  0  0  0  0
 16 15  1  0  0  0  0
 18 16  1  6  0  0  0
 18 17  1  0  0  0  0
 19 22  1  6  0  0  0
 19 23  1  0  0  0  0
 19 18  1  0  0  0  0
 21 23  1  0  0  0  0
 23 20  1  0  0  0  0
 23 17  1  0  0  0  0
 25 24  1  0  0  0  0
 26 27  1  0  0  0  0
 26  8  1  0  0  0  0
 29 30  1  6  0  0  0
 29 28  1  0  0  0  0
 29 32  1  0  0  0  0
 31 32  1  0  0  0  0
 33 28  1  0  0  0  0
 33 34  1  0  0  0  0
 34 35  1  0  0  0  0
 35 37  1  0  0  0  0
 37 36  1  0  0  0  0
M  END
>  <MODEL>
1

>  <REMARK>
 VINA RESULT:      -5.4      0.000      0.000
  Name = 
  13 active torsions:
  status: ('A' for Active; 'I' for Inactive)
    1  A    between atoms: C_1  and  C_12
    2  A    between atoms: C_1  and  N_36
    3  A    between atoms: C_3  and  C_32
    4  A    between atoms: C_6  and  C_31
    5  A    between atoms: C_10  and  C_14
    6  A    between atoms: C_17  and  C_26
    7  A    between atoms: C_17  and  C_33
    8  A    between atoms: C_22  and  C_24
    9  A    between atoms: C_26  and  C_34
   10  A    between atoms: C_27  and  C_37
   11  A    between atoms: C_29  and  N_36
   12  A    between atoms: C_31  and  C_37
   13  A    between atoms: C_33  and  N_36
                            x       y       z     vdW  Elec       q    Type
                         _______ _______ _______ _____ _____    ______ ____

>  <TORSDO>
F 13

$$$$
=
 OpenBabel11052415283D

 37 40  0  0  1  0  0  0  0  0999 V2000
  189.6730  178.1290  137.4500 N   0  0  0  0  0  0  0  0  0  0  0  0
  187.0470  174.5660  137.0840 C   0  0  0  0  0  3  0  0  0  0  0  0
  190.5530  177.0350  137.8290 C   0  0  2  0  0  3  0  0  0  0  0  0
  188.0800  175.5030  136.9570 C   0  0  0  0  0  0  0  0  0  0  0  0
  187.6890  176.8560  136.9840 O   0  0  0  0  0  0  0  0  0  0  0  0
  189.4100  175.0400  136.7930 C   0  0  0  0  0  0  0  0  0  0  0  0
  188.6120  172.7390  136.8990 C   0  0  0  0  0  3  0  0  0  0  0  0
  188.4340  178.0500  137.0590 C   0  0  0  0  0  0  0  0  0  0  0  0
  189.6540  173.6560  136.7650 C   0  0  0  0  0  3  0  0  0  0  0  0
  190.5620  175.9980  136.6990 C   0  0  2  0  0  3  0  0  0  0  0  0
  187.3050  173.1950  137.0600 C   0  0  0  0  0  0  0  0  0  0  0  0
  191.3010  176.8320  140.1930 C   0  0  0  0  0  2  0  0  0  0  0  0
  190.2000  176.4770  139.2140 C   0  0  1  0  0  3  0  0  0  0  0  0
  190.0050  177.6070  140.2100 C   0  0  1  0  0  3  0  0  0  0  0  0
  189.1510  177.1060  141.3590 C   0  0  0  0  0  2  0  0  0  0  0  0
  189.4240  177.9010  142.6240 C   0  0  0  0  0  2  0  0  0  0  0  0
  189.4860  176.5650  144.7050 C   0  0  0  0  0  2  0  0  0  0  0  0
  190.3340  177.1160  143.5670 C   0  0  2  0  0  3  0  0  0  0  0  0
  191.1140  177.9740  144.5760 C   0  0  1  0  0  3  0  0  0  0  0  0
  190.9870  176.6340  146.7140 C   0  0  0  0  0  1  0  0  0  0  0  0
  189.2700  178.4500  146.3530 C   0  0  0  0  0  1  0  0  0  0  0  0
  191.0510  179.4860  144.3480 C   0  0  0  0  0  1  0  0  0  0  0  0
  190.2160  177.4500  145.6960 C   0  0  0  0  0  0  0  0  0  0  0  0
  186.1940  172.2200  137.2450 C   0  0  0  0  0  2  0  0  0  0  0  0
  184.8620  172.9440  137.2210 C   0  0  0  0  0  1  0  0  0  0  0  0
  187.7130  179.3130  136.7360 C   0  0  0  0  0  2  0  0  0  0  0  0
  186.3620  179.2040  137.0830 O   0  0  0  0  0  1  0  0  0  0  0  0
  191.8660  175.3400  136.4450 N   0  0  0  0  0  0  0  0  0  0  0  0
  192.1770  175.1750  135.0150 C   0  0  1  0  0  3  0  0  0  0  0  0
  193.2680  176.1440  134.5940 C   0  0  0  0  0  1  0  0  0  0  0  0
  192.4890  172.8980  135.7150 O   0  0  0  0  0  1  0  0  0  0  0  0
  192.5560  173.7500  134.6100 C   0  0  0  0  0  2  0  0  0  0  0  0
  192.9760  175.9760  137.1480 C   0  0  0  0  0  2  0  0  0  0  0  0
  193.7010  174.9530  137.9960 C   0  0  0  0  0  2  0  0  0  0  0  0
  195.0900  174.7280  137.4410 C   0  0  0  0  0  2  0  0  0  0  0  0
  194.9850  172.3190  137.9920 C   0  0  0  0  0  1  0  0  0  0  0  0
  195.7630  173.6010  138.1960 C   0  0  0  0  0  2  0  0  0  0  0  0
  3  1  1  6  0  0  0
  3 13  1  0  0  0  0
  4  5  1  0  0  0  0
  4  2  2  0  0  0  0
  5  8  1  0  0  0  0
  6  4  1  0  0  0  0
  7 11  2  0  0  0  0
  8  1  2  0  0  0  0
  9  6  2  0  0  0  0
  9  7  1  0  0  0  0
 10 28  1  1  0  0  0
 10  6  1  0  0  0  0
 10  3  1  0  0  0  0
 11  2  1  0  0  0  0
 11 24  1  0  0  0  0
 12 14  1  0  0  0  0
 13 12  1  1  0  0  0
 13 14  1  0  0  0  0
 14 15  1  1  0  0  0
 15 16  1  0  0  0  0
 17 23  1  0  0  0  0
 18 16  1  6  0  0  0
 18 19  1  0  0  0  0
 18 17  1  0  0  0  0
 19 22  1  6  0  0  0
 19 23  1  0  0  0  0
 23 21  1  0  0  0  0
 23 20  1  0  0  0  0
 25 24  1  0  0  0  0
 26  8  1  0  0  0  0
 26 27  1  0  0  0  0
 28 33  1  0  0  0  0
 29 30  1  1  0  0  0
 29 28  1  0  0  0  0
 32 29  1  0  0  0  0
 32 31  1  0  0  0  0
 33 34  1  0  0  0  0
 35 34  1  0  0  0  0
 35 37  1  0  0  0  0
 36 37  1  0  0  0  0
M  END
>  <MODEL>
2

>  <REMARK>
 VINA RESULT:      -5.2      5.155     10.482
  Name = 
  13 active torsions:
  status: ('A' for Active; 'I' for Inactive)
    1  A    between atoms: C_1  and  C_12
    2  A    between atoms: C_1  and  N_36
    3  A    between atoms: C_3  and  C_32
    4  A    between atoms: C_6  and  C_31
    5  A    between atoms: C_10  and  C_14
    6  A    between atoms: C_17  and  C_26
    7  A    between atoms: C_17  and  C_33
    8  A    between atoms: C_22  and  C_24
    9  A    between atoms: C_26  and  C_34
   10  A    between atoms: C_27  and  C_37
   11  A    between atoms: C_29  and  N_36
   12  A    between atoms: C_31  and  C_37
   13  A    between atoms: C_33  and  N_36
                            x       y       z     vdW  Elec       q    Type
                         _______ _______ _______ _____ _____    ______ ____

>  <TORSDO>
F 13

$$$$
=
 OpenBabel11052415283D

 37 40  0  0  1  0  0  0  0  0999 V2000
  180.2070  176.9470  140.5440 N   0  0  0  0  0  0  0  0  0  0  0  0
  182.5830  174.6360  137.5890 C   0  0  0  0  0  3  0  0  0  0  0  0
  181.1050  177.9490  139.9930 C   0  0  2  0  0  3  0  0  0  0  0  0
  181.7520  175.5660  138.2240 C   0  0  0  0  0  0  0  0  0  0  0  0
  180.9290  175.0580  139.2460 O   0  0  0  0  0  0  0  0  0  0  0  0
  181.7800  176.9160  137.7930 C   0  0  0  0  0  0  0  0  0  0  0  0
  183.4650  176.3420  136.1280 C   0  0  0  0  0  3  0  0  0  0  0  0
  180.1120  175.6940  140.2020 C   0  0  0  0  0  0  0  0  0  0  0  0
  182.6410  177.2830  136.7440 C   0  0  0  0  0  3  0  0  0  0  0  0
  180.9450  177.9670  138.4680 C   0  0  2  0  0  3  0  0  0  0  0  0
  183.4380  175.0140  136.5520 C   0  0  0  0  0  0  0  0  0  0  0  0
  183.3390  179.0170  140.2330 C   0  0  0  0  0  2  0  0  0  0  0  0
  182.5440  177.7530  140.4890 C   0  0  1  0  0  3  0  0  0  0  0  0
  182.8500  178.7100  141.6280 C   0  0  1  0  0  3  0  0  0  0  0  0
  184.0060  178.1540  142.4390 C   0  0  0  0  0  2  0  0  0  0  0  0
  184.0190  178.7420  143.8380 C   0  0  0  0  0  2  0  0  0  0  0  0
  186.4200  178.1570  143.7340 C   0  0  0  0  0  2  0  0  0  0  0  0
  185.4250  179.2050  144.2140 C   0  0  2  0  0  3  0  0  0  0  0  0
  185.8350  178.9140  145.6670 C   0  0  1  0  0  3  0  0  0  0  0  0
  188.2370  178.1580  145.4630 C   0  0  0  0  0  1  0  0  0  0  0  0
  186.4410  176.3850  145.5150 C   0  0  0  0  0  1  0  0  0  0  0  0
  184.7150  178.4200  146.5850 C   0  0  0  0  0  1  0  0  0  0  0  0
  186.7880  177.8280  145.1680 C   0  0  0  0  0  0  0  0  0  0  0  0
  184.3460  174.0130  135.9260 C   0  0  0  0  0  2  0  0  0  0  0  0
  184.7720  172.9870  136.9570 C   0  0  0  0  0  1  0  0  0  0  0  0
  179.1250  174.8390  140.9190 C   0  0  0  0  0  2  0  0  0  0  0  0
  179.6900  173.5960  141.2250 O   0  0  0  0  0  1  0  0  0  0  0  0
  181.0370  179.3020  137.8320 N   0  0  0  0  0  0  0  0  0  0  0  0
  180.0820  179.4980  136.7270 C   0  0  1  0  0  3  0  0  0  0  0  0
  180.8210  179.6770  135.4130 C   0  0  0  0  0  1  0  0  0  0  0  0
  179.1970  177.7150  135.3830 O   0  0  0  0  0  1  0  0  0  0  0  0
  179.0340  178.3920  136.5930 C   0  0  0  0  0  2  0  0  0  0  0  0
  180.9560  180.4010  138.7890 C   0  0  0  0  0  2  0  0  0  0  0  0
  181.7050  181.6040  138.2540 C   0  0  0  0  0  2  0  0  0  0  0  0
  180.7340  182.7360  138.0050 C   0  0  0  0  0  2  0  0  0  0  0  0
  180.9430  183.9340  135.8520 C   0  0  0  0  0  1  0  0  0  0  0  0
  181.4400  183.8620  137.2790 C   0  0  0  0  0  2  0  0  0  0  0  0
  2  4  1  0  0  0  0
  3 13  1  0  0  0  0
  3  1  1  1  0  0  0
  4  5  1  0  0  0  0
  5  8  1  0  0  0  0
  6  4  2  0  0  0  0
  6 10  1  0  0  0  0
  7 11  1  0  0  0  0
  7  9  2  0  0  0  0
  8  1  2  0  0  0  0
  8 26  1  0  0  0  0
  9  6  1  0  0  0  0
 10 28  1  6  0  0  0
 10  3  1  0  0  0  0
 11  2  2  0  0  0  0
 12 14  1  0  0  0  0
 13 12  1  6  0  0  0
 13 14  1  0  0  0  0
 14 15  1  1  0  0  0
 15 16  1  0  0  0  0
 17 18  1  0  0  0  0
 17 23  1  0  0  0  0
 18 16  1  1  0  0  0
 18 19  1  0  0  0  0
 19 22  1  1  0  0  0
 23 20  1  0  0  0  0
 23 21  1  0  0  0  0
 23 19  1  0  0  0  0
 24 11  1  0  0  0  0
 24 25  1  0  0  0  0
 26 27  1  0  0  0  0
 28 33  1  0  0  0  0
 29 30  1  6  0  0  0
 29 28  1  0  0  0  0
 31 32  1  0  0  0  0
 32 29  1  0  0  0  0
 34 33  1  0  0  0  0
 35 34  1  0  0  0  0
 36 37  1  0  0  0  0
 37 35  1  0  0  0  0
M  END
>  <MODEL>
3

>  <REMARK>
 VINA RESULT:      -5.2      2.693      7.115
  Name = 
  13 active torsions:
  status: ('A' for Active; 'I' for Inactive)
    1  A    between atoms: C_1  and  C_12
    2  A    between atoms: C_1  and  N_36
    3  A    between atoms: C_3  and  C_32
    4  A    between atoms: C_6  and  C_31
    5  A    between atoms: C_10  and  C_14
    6  A    between atoms: C_17  and  C_26
    7  A    between atoms: C_17  and  C_33
    8  A    between atoms: C_22  and  C_24
    9  A    between atoms: C_26  and  C_34
   10  A    between atoms: C_27  and  C_37
   11  A    between atoms: C_29  and  N_36
   12  A    between atoms: C_31  and  C_37
   13  A    between atoms: C_33  and  N_36
                            x       y       z     vdW  Elec       q    Type
                         _______ _______ _______ _____ _____    ______ ____

>  <TORSDO>
F 13

$$$$
=
 OpenBabel11052415283D

 37 40  0  0  1  0  0  0  0  0999 V2000
  182.1850  178.4740  141.5150 N   0  0  0  0  0  0  0  0  0  0  0  0
  185.7300  178.5200  138.8400 C   0  0  0  0  0  3  0  0  0  0  0  0
  181.6170  178.1530  140.2160 C   0  0  2  0  0  3  0  0  0  0  0  0
  184.5820  178.1610  139.5570 C   0  0  0  0  0  0  0  0  0  0  0  0
  184.4910  178.6710  140.8660 O   0  0  0  0  0  0  0  0  0  0  0  0
  183.6260  177.3150  138.9410 C   0  0  0  0  0  0  0  0  0  0  0  0
  185.0020  177.2370  136.9310 C   0  0  0  0  0  3  0  0  0  0  0  0
  183.4390  178.6750  141.8040 C   0  0  0  0  0  0  0  0  0  0  0  0
  183.8550  176.8640  137.6300 C   0  0  0  0  0  3  0  0  0  0  0  0
  182.3540  176.9360  139.6440 C   0  0  2  0  0  3  0  0  0  0  0  0
  185.9420  178.0680  137.5370 C   0  0  0  0  0  0  0  0  0  0  0  0
  180.4060  179.2640  138.3480 C   0  0  0  0  0  2  0  0  0  0  0  0
  181.5840  179.3790  139.2940 C   0  0  1  0  0  3  0  0  0  0  0  0
  180.3250  180.1940  139.5340 C   0  0  1  0  0  3  0  0  0  0  0  0
  180.5620  181.6150  139.0590 C   0  0  0  0  0  2  0  0  0  0  0  0
  179.2470  182.3140  138.7640 C   0  0  0  0  0  2  0  0  0  0  0  0
  180.5990  182.6670  136.7230 C   0  0  0  0  0  2  0  0  0  0  0  0
  179.1980  182.7790  137.3100 C   0  0  2  0  0  3  0  0  0  0  0  0
  179.2500  184.3040  137.1170 C   0  0  1  0  0  3  0  0  0  0  0  0
  180.7820  184.5960  135.1290 C   0  0  0  0  0  1  0  0  0  0  0  0
  181.7950  184.7580  137.4360 C   0  0  0  0  0  1  0  0  0  0  0  0
  179.1100  185.1370  138.3920 C   0  0  0  0  0  1  0  0  0  0  0  0
  180.6760  184.1750  136.5810 C   0  0  0  0  0  0  0  0  0  0  0  0
  187.1490  178.5040  136.7800 C   0  0  0  0  0  2  0  0  0  0  0  0
  188.3720  177.7660  137.2880 C   0  0  0  0  0  1  0  0  0  0  0  0
  183.7940  179.0110  143.2110 C   0  0  0  0  0  2  0  0  0  0  0  0
  184.8890  178.2470  143.6310 O   0  0  0  0  0  1  0  0  0  0  0  0
  181.5150  175.9790  138.8850 N   0  0  0  0  0  0  0  0  0  0  0  0
  180.1770  175.7750  139.4660 C   0  0  1  0  0  3  0  0  0  0  0  0
  179.1020  176.0110  138.4200 C   0  0  0  0  0  1  0  0  0  0  0  0
  178.9310  173.7210  139.5080 O   0  0  0  0  0  1  0  0  0  0  0  0
  179.9760  174.4100  140.1270 C   0  0  0  0  0  2  0  0  0  0  0  0
  181.4190  176.3010  137.4640 C   0  0  0  0  0  2  0  0  0  0  0  0
  181.2730  175.0280  136.6580 C   0  0  0  0  0  2  0  0  0  0  0  0
  182.2520  173.9920  137.1650 C   0  0  0  0  0  2  0  0  0  0  0  0
  183.0130  171.6510  136.9330 C   0  0  0  0  0  1  0  0  0  0  0  0
  181.9680  172.6580  136.5070 C   0  0  0  0  0  2  0  0  0  0  0  0
  1  8  2  0  0  0  0
  2  4  1  0  0  0  0
  3  1  1  1  0  0  0
  4  5  1  0  0  0  0
  5  8  1  0  0  0  0
  6  4  2  0  0  0  0
  6 10  1  0  0  0  0
  7 11  1  0  0  0  0
  7  9  2  0  0  0  0
  8 26  1  0  0  0  0
  9  6  1  0  0  0  0
 10 28  1  6  0  0  0
 10  3  1  0  0  0  0
 11  2  2  0  0  0  0
 12 14  1  0  0  0  0
 13 12  1  6  0  0  0
 13 14  1  0  0  0  0
 13  3  1  0  0  0  0
 14 15  1  6  0  0  0
 16 15  1  0  0  0  0
 17 18  1  0  0  0  0
 18 16  1  1  0  0  0
 19 18  1  0  0  0  0
 19 22  1  1  0  0  0
 20 23  1  0  0  0  0
 23 17  1  0  0  0  0
 23 19  1  0  0  0  0
 23 21  1  0  0  0  0
 24 25  1  0  0  0  0
 24 11  1  0  0  0  0
 26 27  1  0  0  0  0
 28 29  1  0  0  0  0
 29 30  1  6  0  0  0
 29 32  1  0  0  0  0
 31 32  1  0  0  0  0
 33 28  1  0  0  0  0
 34 35  1  0  0  0  0
 34 33  1  0  0  0  0
 37 36  1  0  0  0  0
 37 35  1  0  0  0  0
M  END
>  <MODEL>
4

>  <REMARK>
 VINA RESULT:      -4.4      2.681      7.555
  Name = 
  13 active torsions:
  status: ('A' for Active; 'I' for Inactive)
    1  A    between atoms: C_1  and  C_12
    2  A    between atoms: C_1  and  N_36
    3  A    between atoms: C_3  and  C_32
    4  A    between atoms: C_6  and  C_31
    5  A    between atoms: C_10  and  C_14
    6  A    between atoms: C_17  and  C_26
    7  A    between atoms: C_17  and  C_33
    8  A    between atoms: C_22  and  C_24
    9  A    between atoms: C_26  and  C_34
   10  A    between atoms: C_27  and  C_37
   11  A    between atoms: C_29  and  N_36
   12  A    between atoms: C_31  and  C_37
   13  A    between atoms: C_33  and  N_36
                            x       y       z     vdW  Elec       q    Type
                         _______ _______ _______ _____ _____    ______ ____

>  <TORSDO>
F 13

$$$$
=
 OpenBabel11052415283D

 37 40  0  0  1  0  0  0  0  0999 V2000
  180.8970  177.9320  141.7910 N   0  0  0  0  0  0  0  0  0  0  0  0
  179.6870  181.4460  139.3590 C   0  0  0  0  0  3  0  0  0  0  0  0
  181.7520  177.8280  140.6190 C   0  0  2  0  0  3  0  0  0  0  0  0
  180.4000  180.4980  140.1030 C   0  0  0  0  0  0  0  0  0  0  0  0
  179.7180  179.9420  141.2030 O   0  0  0  0  0  0  0  0  0  0  0  0
  181.7290  180.1850  139.7230 C   0  0  0  0  0  0  0  0  0  0  0  0
  181.5640  181.7700  137.8780 C   0  0  0  0  0  3  0  0  0  0  0  0
  180.0290  178.8650  142.0570 C   0  0  0  0  0  0  0  0  0  0  0  0
  182.2920  180.8320  138.6090 C   0  0  0  0  0  3  0  0  0  0  0  0
  182.5240  179.1430  140.4550 C   0  0  2  0  0  3  0  0  0  0  0  0
  180.2580  182.0770  138.2520 C   0  0  0  0  0  0  0  0  0  0  0  0
  181.5220  176.0690  138.8760 C   0  0  0  0  0  2  0  0  0  0  0  0
  180.9640  177.3840  139.3800 C   0  0  1  0  0  3  0  0  0  0  0  0
  180.2290  176.0830  139.6540 C   0  0  1  0  0  3  0  0  0  0  0  0
  179.0710  175.9590  138.6810 C   0  0  0  0  0  2  0  0  0  0  0  0
  179.5650  175.5860  137.2950 C   0  0  0  0  0  2  0  0  0  0  0  0
  179.2800  173.1910  137.8440 C   0  0  0  0  0  2  0  0  0  0  0  0
  178.9320  174.2750  136.8330 C   0  0  2  0  0  3  0  0  0  0  0  0
  179.7270  173.5150  135.7590 C   0  0  1  0  0  3  0  0  0  0  0  0
  179.5380  171.1010  136.4800 C   0  0  0  0  0  1  0  0  0  0  0  0
  181.5780  172.3960  137.2110 C   0  0  0  0  0  1  0  0  0  0  0  0
  180.9030  174.2770  135.1440 C   0  0  0  0  0  1  0  0  0  0  0  0
  180.1110  172.4660  136.8020 C   0  0  0  0  0  0  0  0  0  0  0  0
  179.4610  183.0460  137.4490 C   0  0  0  0  0  2  0  0  0  0  0  0
  180.1670  184.3860  137.4070 C   0  0  0  0  0  1  0  0  0  0  0  0
  179.2440  178.7600  143.3190 C   0  0  0  0  0  2  0  0  0  0  0  0
  179.6810  177.6640  144.0720 O   0  0  0  0  0  1  0  0  0  0  0  0
  183.9190  179.0090  139.9740 N   0  0  0  0  0  0  0  0  0  0  0  0
  184.9310  179.3000  141.0050 C   0  0  1  0  0  3  0  0  0  0  0  0
  184.4020  178.9400  142.3830 C   0  0  0  0  0  1  0  0  0  0  0  0
  186.8570  178.2530  141.9880 O   0  0  0  0  0  1  0  0  0  0  0  0
  186.2850  178.6280  140.7710 C   0  0  0  0  0  2  0  0  0  0  0  0
  184.1860  177.7250  139.3330 C   0  0  0  0  0  2  0  0  0  0  0  0
  184.5000  177.9390  137.8670 C   0  0  0  0  0  2  0  0  0  0  0  0
  184.9770  176.6390  137.2580 C   0  0  0  0  0  2  0  0  0  0  0  0
  183.0920  177.3480  135.8220 C   0  0  0  0  0  1  0  0  0  0  0  0
  184.0150  176.2020  136.1730 C   0  0  0  0  0  2  0  0  0  0  0  0
  1  8  2  0  0  0  0
  2  4  1  0  0  0  0
  3  1  1  1  0  0  0
  4  5  1  0  0  0  0
  5  8  1  0  0  0  0
  6  4  2  0  0  0  0
  6 10  1  0  0  0  0
  7 11  1  0  0  0  0
  7  9  2  0  0  0  0
  8 26  1  0  0  0  0
  9  6  1  0  0  0  0
 10 28  1  6  0  0  0
 10  3  1  0  0  0  0
 11  2  2  0  0  0  0
 12 14  1  0  0  0  0
 13 12  1  6  0  0  0
 13 14  1  0  0  0  0
 13  3  1  0  0  0  0
 14 15  1  6  0  0  0
 16 15  1  0  0  0  0
 18 16  1  1  0  0  0
 18 17  1  0  0  0  0
 19 22  1  1  0  0  0
 19 23  1  0  0  0  0
 19 18  1  0  0  0  0
 20 23  1  0  0  0  0
 23 21  1  0  0  0  0
 23 17  1  0  0  0  0
 24 11  1  0  0  0  0
 25 24  1  0  0  0  0
 26 27  1  0  0  0  0
 28 29  1  0  0  0  0
 29 30  1  1  0  0  0
 32 29  1  0  0  0  0
 32 31  1  0  0  0  0
 33 28  1  0  0  0  0
 34 33  1  0  0  0  0
 35 34  1  0  0  0  0
 36 37  1  0  0  0  0
 37 35  1  0  0  0  0
M  END
>  <MODEL>
5

>  <REMARK>
 VINA RESULT:      -4.3      2.636      6.491
  Name = 
  13 active torsions:
  status: ('A' for Active; 'I' for Inactive)
    1  A    between atoms: C_1  and  C_12
    2  A    between atoms: C_1  and  N_36
    3  A    between atoms: C_3  and  C_32
    4  A    between atoms: C_6  and  C_31
    5  A    between atoms: C_10  and  C_14
    6  A    between atoms: C_17  and  C_26
    7  A    between atoms: C_17  and  C_33
    8  A    between atoms: C_22  and  C_24
    9  A    between atoms: C_26  and  C_34
   10  A    between atoms: C_27  and  C_37
   11  A    between atoms: C_29  and  N_36
   12  A    between atoms: C_31  and  C_37
   13  A    between atoms: C_33  and  N_36
                            x       y       z     vdW  Elec       q    Type
                         _______ _______ _______ _____ _____    ______ ____

>  <TORSDO>
F 13

$$$$
=
 OpenBabel11052415283D

 37 40  0  0  1  0  0  0  0  0999 V2000
  181.9080  177.3250  138.8570 N   0  0  0  0  0  0  0  0  0  0  0  0
  186.1110  178.3660  137.8680 C   0  0  0  0  0  3  0  0  0  0  0  0
  181.9970  177.0080  137.4410 C   0  0  2  0  0  3  0  0  0  0  0  0
  184.8890  177.7080  138.0540 C   0  0  0  0  0  0  0  0  0  0  0  0
  184.1660  178.0680  139.2070 O   0  0  0  0  0  0  0  0  0  0  0  0
  184.4820  176.7360  137.1050 C   0  0  0  0  0  0  0  0  0  0  0  0
  186.5250  177.1330  135.8360 C   0  0  0  0  0  3  0  0  0  0  0  0
  182.8580  177.7630  139.6330 C   0  0  0  0  0  0  0  0  0  0  0  0
  185.3140  176.4620  136.0060 C   0  0  0  0  0  3  0  0  0  0  0  0
  183.1610  176.0320  137.2280 C   0  0  2  0  0  3  0  0  0  0  0  0
  186.9240  178.0880  136.7680 C   0  0  0  0  0  0  0  0  0  0  0  0
  181.4530  177.9850  135.2190 C   0  0  0  0  0  2  0  0  0  0  0  0
  182.0540  178.2760  136.5790 C   0  0  1  0  0  3  0  0  0  0  0  0
  180.6520  178.7540  136.2410 C   0  0  1  0  0  3  0  0  0  0  0  0
  180.7060  180.2300  135.8950 C   0  0  0  0  0  2  0  0  0  0  0  0
  179.4070  180.9220  136.2670 C   0  0  0  0  0  2  0  0  0  0  0  0
  180.7430  182.7570  135.2850 C   0  0  0  0  0  2  0  0  0  0  0  0
  179.3290  182.3040  135.6200 C   0  0  2  0  0  3  0  0  0  0  0  0
  179.1980  183.4740  136.6080 C   0  0  1  0  0  3  0  0  0  0  0  0
  180.7200  185.2410  135.6360 C   0  0  0  0  0  1  0  0  0  0  0  0
  181.6620  183.7200  137.4160 C   0  0  0  0  0  1  0  0  0  0  0  0
  178.9340  183.0850  138.0640 C   0  0  0  0  0  1  0  0  0  0  0  0
  180.6380  183.8810  136.2980 C   0  0  0  0  0  0  0  0  0  0  0  0
  188.1960  178.8370  136.5690 C   0  0  0  0  0  2  0  0  0  0  0  0
  189.3790  177.9270  136.8360 C   0  0  0  0  0  1  0  0  0  0  0  0
  182.5330  178.0400  141.0600 C   0  0  0  0  0  2  0  0  0  0  0  0
  183.6980  178.3370  141.7750 O   0  0  0  0  0  1  0  0  0  0  0  0
  182.9410  174.9900  136.1980 N   0  0  0  0  0  0  0  0  0  0  0  0
  183.4470  173.6610  136.5820 C   0  0  1  0  0  3  0  0  0  0  0  0
  184.2600  173.0550  135.4520 C   0  0  0  0  0  1  0  0  0  0  0  0
  185.4410  172.9260  137.7020 O   0  0  0  0  0  1  0  0  0  0  0  0
  184.2560  173.6430  137.8800 C   0  0  0  0  0  2  0  0  0  0  0  0
  181.5540  174.9080  135.7500 C   0  0  0  0  0  2  0  0  0  0  0  0
  180.8480  173.7800  136.4700 C   0  0  0  0  0  2  0  0  0  0  0  0
  180.0530  172.9640  135.4760 C   0  0  0  0  0  2  0  0  0  0  0  0
  179.4020  170.7810  136.4390 C   0  0  0  0  0  1  0  0  0  0  0  0
  180.4310  171.5030  135.5980 C   0  0  0  0  0  2  0  0  0  0  0  0
  1  8  2  0  0  0  0
  2  4  1  0  0  0  0
  3  1  1  1  0  0  0
  4  5  1  0  0  0  0
  5  8  1  0  0  0  0
  6 10  1  0  0  0  0
  6  4  2  0  0  0  0
  7  9  2  0  0  0  0
  7 11  1  0  0  0  0
  8 26  1  0  0  0  0
  9  6  1  0  0  0  0
 10 28  1  6  0  0  0
 10  3  1  0  0  0  0
 11  2  2  0  0  0  0
 12 14  1  0  0  0  0
 13 12  1  6  0  0  0
 13  3  1  0  0  0  0
 14 15  1  6  0  0  0
 14 13  1  0  0  0  0
 15 16  1  0  0  0  0
 17 18  1  0  0  0  0
 17 23  1  0  0  0  0
 18 16  1  1  0  0  0
 18 19  1  0  0  0  0
 19 22  1  1  0  0  0
 20 23  1  0  0  0  0
 23 19  1  0  0  0  0
 23 21  1  0  0  0  0
 24 11  1  0  0  0  0
 24 25  1  0  0  0  0
 26 27  1  0  0  0  0
 28 29  1  0  0  0  0
 29 30  1  6  0  0  0
 29 32  1  0  0  0  0
 31 32  1  0  0  0  0
 33 28  1  0  0  0  0
 33 34  1  0  0  0  0
 35 37  1  0  0  0  0
 35 34  1  0  0  0  0
 37 36  1  0  0  0  0
M  END
>  <MODEL>
6

>  <REMARK>
 VINA RESULT:      -4.3      2.751      7.878
  Name = 
  13 active torsions:
  status: ('A' for Active; 'I' for Inactive)
    1  A    between atoms: C_1  and  C_12
    2  A    between atoms: C_1  and  N_36
    3  A    between atoms: C_3  and  C_32
    4  A    between atoms: C_6  and  C_31
    5  A    between atoms: C_10  and  C_14
    6  A    between atoms: C_17  and  C_26
    7  A    between atoms: C_17  and  C_33
    8  A    between atoms: C_22  and  C_24
    9  A    between atoms: C_26  and  C_34
   10  A    between atoms: C_27  and  C_37
   11  A    between atoms: C_29  and  N_36
   12  A    between atoms: C_31  and  C_37
   13  A    between atoms: C_33  and  N_36
                            x       y       z     vdW  Elec       q    Type
                         _______ _______ _______ _____ _____    ______ ____

>  <TORSDO>
F 13

$$$$
=
 OpenBabel11052415283D

 37 40  0  0  1  0  0  0  0  0999 V2000
  185.1020  178.0120  136.7980 N   0  0  0  0  0  0  0  0  0  0  0  0
  186.0930  178.4190  141.1080 C   0  0  0  0  0  3  0  0  0  0  0  0
  183.9620  177.3920  137.4550 C   0  0  2  0  0  3  0  0  0  0  0  0
  185.4800  178.4780  139.8500 C   0  0  0  0  0  0  0  0  0  0  0  0
  186.3460  178.6490  138.7530 O   0  0  0  0  0  0  0  0  0  0  0  0
  184.0680  178.3850  139.7710 C   0  0  0  0  0  0  0  0  0  0  0  0
  183.9530  178.1710  142.1960 C   0  0  0  0  0  3  0  0  0  0  0  0
  186.1280  178.5810  137.3630 C   0  0  0  0  0  0  0  0  0  0  0  0
  183.3240  178.2330  140.9530 C   0  0  0  0  0  3  0  0  0  0  0  0
  183.3600  178.3950  138.4460 C   0  0  2  0  0  3  0  0  0  0  0  0
  185.3420  178.2630  142.2740 C   0  0  0  0  0  0  0  0  0  0  0  0
  183.3810  174.9740  137.5230 C   0  0  0  0  0  2  0  0  0  0  0  0
  184.3280  176.0290  138.0580 C   0  0  1  0  0  3  0  0  0  0  0  0
  184.7820  175.0700  136.9710 C   0  0  1  0  0  3  0  0  0  0  0  0
  185.6320  173.9820  137.6010 C   0  0  0  0  0  2  0  0  0  0  0  0
  186.9560  173.8380  136.8730 C   0  0  0  0  0  2  0  0  0  0  0  0
  188.1520  174.7500  134.9100 C   0  0  0  0  0  2  0  0  0  0  0  0
  187.2940  175.1190  136.1120 C   0  0  2  0  0  3  0  0  0  0  0  0
  188.4670  175.9250  136.6910 C   0  0  1  0  0  3  0  0  0  0  0  0
  189.7370  176.6760  134.6390 C   0  0  0  0  0  1  0  0  0  0  0  0
  190.4970  174.5630  135.7920 C   0  0  0  0  0  1  0  0  0  0  0  0
  188.9760  175.4650  138.0580 C   0  0  0  0  0  1  0  0  0  0  0  0
  189.3300  175.5000  135.5030 C   0  0  0  0  0  0  0  0  0  0  0  0
  186.0220  178.1550  143.5950 C   0  0  0  0  0  2  0  0  0  0  0  0
  185.0980  178.6400  144.6940 C   0  0  0  0  0  1  0  0  0  0  0  0
  187.1960  179.1390  136.4870 C   0  0  0  0  0  2  0  0  0  0  0  0
  188.3670  179.3500  137.2230 O   0  0  0  0  0  1  0  0  0  0  0  0
  181.8830  178.3750  138.5580 N   0  0  0  0  0  0  0  0  0  0  0  0
  181.2820  179.7120  138.7070 C   0  0  1  0  0  3  0  0  0  0  0  0
  182.2990  180.7900  138.3740 C   0  0  0  0  0  1  0  0  0  0  0  0
  180.0690  181.1360  137.2000 O   0  0  0  0  0  1  0  0  0  0  0  0
  180.0040  179.9260  137.8940 C   0  0  0  0  0  2  0  0  0  0  0  0
  181.2350  177.6320  137.4820 C   0  0  0  0  0  2  0  0  0  0  0  0
  180.3820  176.5240  138.0630 C   0  0  0  0  0  2  0  0  0  0  0  0
  179.4310  176.0090  137.0060 C   0  0  0  0  0  2  0  0  0  0  0  0
  179.3150  173.6620  137.7760 C   0  0  0  0  0  1  0  0  0  0  0  0
  179.7790  174.5760  136.6630 C   0  0  0  0  0  2  0  0  0  0  0  0
  1  8  2  0  0  0  0
  2 11  1  0  0  0  0
  3  1  1  1  0  0  0
  3 13  1  0  0  0  0
  3 10  1  0  0  0  0
  4  2  2  0  0  0  0
  5  4  1  0  0  0  0
  6  4  1  0  0  0  0
  6  9  2  0  0  0  0
  7 11  2  0  0  0  0
  8  5  1  0  0  0  0
  9  7  1  0  0  0  0
 10 28  1  1  0  0  0
 10  6  1  0  0  0  0
 11 24  1  0  0  0  0
 13 12  1  6  0  0  0
 14 12  1  0  0  0  0
 14 15  1  1  0  0  0
 14 13  1  0  0  0  0
 16 15  1  0  0  0  0
 17 23  1  0  0  0  0
 17 18  1  0  0  0  0
 18 19  1  0  0  0  0
 18 16  1  1  0  0  0
 19 22  1  1  0  0  0
 20 23  1  0  0  0  0
 23 21  1  0  0  0  0
 23 19  1  0  0  0  0
 24 25  1  0  0  0  0
 26 27  1  0  0  0  0
 26  8  1  0  0  0  0
 28 29  1  0  0  0  0
 29 30  1  6  0  0  0
 31 32  1  0  0  0  0
 32 29  1  0  0  0  0
 33 34  1  0  0  0  0
 33 28  1  0  0  0  0
 35 34  1  0  0  0  0
 37 35  1  0  0  0  0
 37 36  1  0  0  0  0
M  END
>  <MODEL>
7

>  <REMARK>
 VINA RESULT:      -4.1      1.832      3.021
  Name = 
  13 active torsions:
  status: ('A' for Active; 'I' for Inactive)
    1  A    between atoms: C_1  and  C_12
    2  A    between atoms: C_1  and  N_36
    3  A    between atoms: C_3  and  C_32
    4  A    between atoms: C_6  and  C_31
    5  A    between atoms: C_10  and  C_14
    6  A    between atoms: C_17  and  C_26
    7  A    between atoms: C_17  and  C_33
    8  A    between atoms: C_22  and  C_24
    9  A    between atoms: C_26  and  C_34
   10  A    between atoms: C_27  and  C_37
   11  A    between atoms: C_29  and  N_36
   12  A    between atoms: C_31  and  C_37
   13  A    between atoms: C_33  and  N_36
                            x       y       z     vdW  Elec       q    Type
                         _______ _______ _______ _____ _____    ______ ____

>  <TORSDO>
F 13

$$$$
=
 OpenBabel11052415283D

 37 40  0  0  1  0  0  0  0  0999 V2000
  191.1910  177.8460  142.5470 N   0  0  0  0  0  0  0  0  0  0  0  0
  187.1170  179.0090  141.2140 C   0  0  0  0  0  3  0  0  0  0  0  0
  190.8710  176.8330  141.5540 C   0  0  2  0  0  3  0  0  0  0  0  0
  188.4780  178.6810  141.2760 C   0  0  0  0  0  0  0  0  0  0  0  0
  189.1680  179.1360  142.4160 O   0  0  0  0  0  0  0  0  0  0  0  0
  189.0560  177.9520  140.2070 C   0  0  0  0  0  0  0  0  0  0  0  0
  186.8960  177.9090  139.0790 C   0  0  0  0  0  3  0  0  0  0  0  0
  190.4610  178.8630  142.9050 C   0  0  0  0  0  0  0  0  0  0  0  0
  188.2490  177.5770  139.1190 C   0  0  0  0  0  3  0  0  0  0  0  0
  190.4970  177.5320  140.2410 C   0  0  2  0  0  3  0  0  0  0  0  0
  186.3270  178.6260  140.1290 C   0  0  0  0  0  0  0  0  0  0  0  0
  190.3050  175.2490  143.3870 C   0  0  0  0  0  2  0  0  0  0  0  0
  189.8260  175.8390  142.0760 C   0  0  1  0  0  3  0  0  0  0  0  0
  189.2420  176.3210  143.3920 C   0  0  1  0  0  3  0  0  0  0  0  0
  187.8890  175.6670  143.5990 C   0  0  0  0  0  2  0  0  0  0  0  0
  186.8110  176.7110  143.8270 C   0  0  0  0  0  2  0  0  0  0  0  0
  186.9770  177.2820  146.2280 C   0  0  0  0  0  2  0  0  0  0  0  0
  187.2880  177.7690  144.8200 C   0  0  2  0  0  3  0  0  0  0  0  0
  186.3220  178.9470  145.0240 C   0  0  1  0  0  3  0  0  0  0  0  0
  186.4110  179.3600  147.5150 C   0  0  0  0  0  1  0  0  0  0  0  0
  184.5690  177.8790  146.6280 C   0  0  0  0  0  1  0  0  0  0  0  0
  185.1440  179.0140  144.0500 C   0  0  0  0  0  1  0  0  0  0  0  0
  185.9820  178.4110  146.4140 C   0  0  0  0  0  0  0  0  0  0  0  0
  184.8730  178.9470  140.1120 C   0  0  0  0  0  2  0  0  0  0  0  0
  184.3630  178.9540  138.6840 C   0  0  0  0  0  1  0  0  0  0  0  0
  190.9850  179.7700  143.9640 C   0  0  0  0  0  2  0  0  0  0  0  0
  192.2420  179.3350  144.3980 O   0  0  0  0  0  1  0  0  0  0  0  0
  190.9510  176.8540  139.0040 N   0  0  0  0  0  0  0  0  0  0  0  0
  192.3870  176.5280  139.0010 C   0  0  1  0  0  3  0  0  0  0  0  0
  192.8920  176.3710  137.5770 C   0  0  0  0  0  1  0  0  0  0  0  0
  194.4260  176.8970  140.2170 O   0  0  0  0  0  1  0  0  0  0  0  0
  193.2640  177.5240  139.7610 C   0  0  0  0  0  2  0  0  0  0  0  0
  190.1520  175.6790  138.6670 C   0  0  0  0  0  2  0  0  0  0  0  0
  190.0640  175.5320  137.1630 C   0  0  0  0  0  2  0  0  0  0  0  0
  188.9320  174.5940  136.8110 C   0  0  0  0  0  2  0  0  0  0  0  0
  186.4810  174.9210  136.8790 C   0  0  0  0  0  1  0  0  0  0  0  0
  187.7730  175.3850  136.2430 C   0  0  0  0  0  2  0  0  0  0  0  0
  1  8  2  0  0  0  0
  2  4  1  0  0  0  0
  3 13  1  0  0  0  0
  3  1  1  1  0  0  0
  4  5  1  0  0  0  0
  5  8  1  0  0  0  0
  6 10  1  0  0  0  0
  6  4  2  0  0  0  0
  7  9  2  0  0  0  0
  7 11  1  0  0  0  0
  8 26  1  0  0  0  0
  9  6  1  0  0  0  0
 10 28  1  6  0  0  0
 10  3  1  0  0  0  0
 11  2  2  0  0  0  0
 12 14  1  0  0  0  0
 13 12  1  1  0  0  0
 13 14  1  0  0  0  0
 14 15  1  6  0  0  0
 15 16  1  0  0  0  0
 17 23  1  0  0  0  0
 18 16  1  6  0  0  0
 18 19  1  0  0  0  0
 18 17  1  0  0  0  0
 19 22  1  6  0  0  0
 19 23  1  0  0  0  0
 23 21  1  0  0  0  0
 23 20  1  0  0  0  0
 24 11  1  0  0  0  0
 25 24  1  0  0  0  0
 26 27  1  0  0  0  0
 29 30  1  6  0  0  0
 29 28  1  0  0  0  0
 29 32  1  0  0  0  0
 32 31  1  0  0  0  0
 33 28  1  0  0  0  0
 34 33  1  0  0  0  0
 35 34  1  0  0  0  0
 37 35  1  0  0  0  0
 37 36  1  0  0  0  0
M  END
>  <MODEL>
8

>  <REMARK>
 VINA RESULT:      -3.6      4.016      9.140
  Name = 
  13 active torsions:
  status: ('A' for Active; 'I' for Inactive)
    1  A    between atoms: C_1  and  C_12
    2  A    between atoms: C_1  and  N_36
    3  A    between atoms: C_3  and  C_32
    4  A    between atoms: C_6  and  C_31
    5  A    between atoms: C_10  and  C_14
    6  A    between atoms: C_17  and  C_26
    7  A    between atoms: C_17  and  C_33
    8  A    between atoms: C_22  and  C_24
    9  A    between atoms: C_26  and  C_34
   10  A    between atoms: C_27  and  C_37
   11  A    between atoms: C_29  and  N_36
   12  A    between atoms: C_31  and  C_37
   13  A    between atoms: C_33  and  N_36
                            x       y       z     vdW  Elec       q    Type
                         _______ _______ _______ _____ _____    ______ ____

>  <TORSDO>
F 13

$$$$
=
 OpenBabel11052415283D

 37 40  0  0  1  0  0  0  0  0999 V2000
  183.5840  178.7990  139.3900 N   0  0  0  0  0  0  0  0  0  0  0  0
  180.8720  175.4540  140.4750 C   0  0  0  0  0  3  0  0  0  0  0  0
  182.6730  178.7390  138.2590 C   0  0  2  0  0  3  0  0  0  0  0  0
  181.4110  176.6960  140.1190 C   0  0  0  0  0  0  0  0  0  0  0  0
  182.6490  177.0200  140.7070 O   0  0  0  0  0  0  0  0  0  0  0  0
  180.6840  177.5300  139.2330 C   0  0  0  0  0  0  0  0  0  0  0  0
  178.9310  175.8430  139.0960 C   0  0  0  0  0  3  0  0  0  0  0  0
  183.5600  178.0680  140.4670 C   0  0  0  0  0  0  0  0  0  0  0  0
  179.4470  177.0860  138.7350 C   0  0  0  0  0  3  0  0  0  0  0  0
  181.2350  178.8520  138.7810 C   0  0  2  0  0  3  0  0  0  0  0  0
  179.6450  175.0230  139.9680 C   0  0  0  0  0  0  0  0  0  0  0  0
  183.2690  177.9710  135.9700 C   0  0  0  0  0  2  0  0  0  0  0  0
  182.9440  177.5130  137.3770 C   0  0  1  0  0  3  0  0  0  0  0  0
  184.3810  177.5180  136.8850 C   0  0  1  0  0  3  0  0  0  0  0  0
  184.7770  176.1030  136.5110 C   0  0  0  0  0  2  0  0  0  0  0  0
  186.1770  176.0680  135.9240 C   0  0  0  0  0  2  0  0  0  0  0  0
  187.2890  176.9730  137.9390 C   0  0  0  0  0  2  0  0  0  0  0  0
  187.2080  175.7690  137.0110 C   0  0  2  0  0  3  0  0  0  0  0  0
  188.6700  176.0030  136.5960 C   0  0  1  0  0  3  0  0  0  0  0  0
  189.6980  177.0840  138.6350 C   0  0  0  0  0  1  0  0  0  0  0  0
  188.8380  178.5940  136.8030 C   0  0  0  0  0  1  0  0  0  0  0  0
  188.9010  176.2730  135.1080 C   0  0  0  0  0  1  0  0  0  0  0  0
  188.7140  177.2390  137.4930 C   0  0  0  0  0  0  0  0  0  0  0  0
  179.1180  173.6770  140.3250 C   0  0  0  0  0  2  0  0  0  0  0  0
  179.5410  173.3130  141.7340 C   0  0  0  0  0  1  0  0  0  0  0  0
  184.6130  178.2920  141.4970 C   0  0  0  0  0  2  0  0  0  0  0  0
  185.3550  179.4380  141.1910 O   0  0  0  0  0  1  0  0  0  0  0  0
  180.3040  179.6250  137.9250 N   0  0  0  0  0  0  0  0  0  0  0  0
  179.4870  180.5990  138.6680 C   0  0  1  0  0  3  0  0  0  0  0  0
  179.2040  180.0930  140.0720 C   0  0  0  0  0  1  0  0  0  0  0  0
  179.0660  182.9640  138.6380 O   0  0  0  0  0  1  0  0  0  0  0  0
  180.0800  182.0080  138.7280 C   0  0  0  0  0  2  0  0  0  0  0  0
  180.9620  180.2610  136.7870 C   0  0  0  0  0  2  0  0  0  0  0  0
  179.9270  180.6900  135.7690 C   0  0  0  0  0  2  0  0  0  0  0  0
  180.5720  181.5950  134.7430 C   0  0  0  0  0  2  0  0  0  0  0  0
  180.5650  184.0480  135.0580 C   0  0  0  0  0  1  0  0  0  0  0  0
  179.7520  182.8600  134.5940 C   0  0  0  0  0  2  0  0  0  0  0  0
  1  8  2  0  0  0  0
  3 10  1  0  0  0  0
  3  1  1  1  0  0  0
  4  2  1  0  0  0  0
  4  5  1  0  0  0  0
  6  4  2  0  0  0  0
  7 11  1  0  0  0  0
  8  5  1  0  0  0  0
  8 26  1  0  0  0  0
  9  7  2  0  0  0  0
  9  6  1  0  0  0  0
 10 28  1  6  0  0  0
 10  6  1  0  0  0  0
 11 24  1  0  0  0  0
 11  2  2  0  0  0  0
 12 14  1  0  0  0  0
 13 12  1  6  0  0  0
 13  3  1  0  0  0  0
 14 15  1  6  0  0  0
 14 13  1  0  0  0  0
 16 15  1  0  0  0  0
 18 16  1  6  0  0  0
 18 17  1  0  0  0  0
 19 22  1  6  0  0  0
 19 18  1  0  0  0  0
 19 23  1  0  0  0  0
 21 23  1  0  0  0  0
 23 17  1  0  0  0  0
 23 20  1  0  0  0  0
 24 25  1  0  0  0  0
 27 26  1  0  0  0  0
 28 29  1  0  0  0  0
 29 32  1  0  0  0  0
 29 30  1  1  0  0  0
 31 32  1  0  0  0  0
 33 28  1  0  0  0  0
 34 33  1  0  0  0  0
 35 34  1  0  0  0  0
 37 35  1  0  0  0  0
 37 36  1  0  0  0  0
M  END
>  <MODEL>
9

>  <REMARK>
 VINA RESULT:      -3.5      2.367      4.976
  Name = 
  13 active torsions:
  status: ('A' for Active; 'I' for Inactive)
    1  A    between atoms: C_1  and  C_12
    2  A    between atoms: C_1  and  N_36
    3  A    between atoms: C_3  and  C_32
    4  A    between atoms: C_6  and  C_31
    5  A    between atoms: C_10  and  C_14
    6  A    between atoms: C_17  and  C_26
    7  A    between atoms: C_17  and  C_33
    8  A    between atoms: C_22  and  C_24
    9  A    between atoms: C_26  and  C_34
   10  A    between atoms: C_27  and  C_37
   11  A    between atoms: C_29  and  N_36
   12  A    between atoms: C_31  and  C_37
   13  A    between atoms: C_33  and  N_36
                            x       y       z     vdW  Elec       q    Type
                         _______ _______ _______ _____ _____    ______ ____

>  <TORSDO>
F 13

$$$$
