=
 OpenBabel11052416593D

 32 36  0  0  1  0  0  0  0  0999 V2000
  185.9470  178.1490  145.3500 C   0  0  0  0  0  0  0  0  0  0  0  0
  187.8660  177.9840  141.6550 C   0  0  0  0  0  0  0  0  0  0  0  0
  187.9340  177.6790  144.0750 C   0  0  0  0  0  0  0  0  0  0  0  0
  185.8880  178.4360  142.9790 C   0  0  0  0  0  3  0  0  0  0  0  0
  187.9490  177.3750  146.4610 N   0  0  0  0  0  0  0  0  0  0  0  0
  184.5210  178.5800  145.4800 C   0  0  0  0  0  1  0  0  0  0  0  0
  186.5200  178.3870  141.7310 C   0  0  0  0  0  0  0  0  0  0  0  0
  185.8460  178.7320  140.5460 C   0  0  0  0  0  0  0  0  0  0  0  0
  187.8050  178.2760  139.2580 C   0  0  0  0  0  0  0  0  0  0  0  0
  190.0620  176.9200  145.1160 C   0  0  0  0  0  1  0  0  0  0  0  0
  186.5740  178.0880  144.1560 C   0  0  0  0  0  0  0  0  0  0  0  0
  188.6200  177.3360  145.1860 C   0  0  0  0  0  0  0  0  0  0  0  0
  186.6370  177.8050  146.5130 O   0  0  0  0  0  0  0  0  0  0  0  0
  186.5000  178.6590  139.3540 N   0  0  0  0  0  0  0  0  0  0  0  0
  188.5590  177.6360  142.8150 C   0  0  0  0  0  3  0  0  0  0  0  0
  188.5070  177.9270  140.4200 C   0  0  0  0  0  3  0  0  0  0  0  0
  186.7400  177.4440  134.6660 O   0  0  0  0  0  1  0  0  0  0  0  0
  187.4270  178.0720  136.8340 C   0  0  0  0  0  3  0  0  0  0  0  0
  189.4510  177.0030  137.8530 C   0  0  1  0  0  3  0  0  0  0  0  0
  189.8760  176.6930  136.4420 C   0  0  0  0  0  3  0  0  0  0  0  0
  189.0320  176.8890  135.4260 C   0  0  0  0  0  3  0  0  0  0  0  0
  189.1940  179.3880  137.6720 O   0  0  0  0  0  1  0  0  0  0  0  0
  187.7060  177.4890  135.6620 C   0  0  0  0  0  0  0  0  0  0  0  0
  190.6200  177.2230  138.6890 N   0  0  0  0  0  1  0  0  0  0  0  0
  188.4790  178.2070  137.9090 C   0  0  2  0  0  0  0  0  0  0  0  0
  188.6560  177.0730  147.7030 C   0  0  0  0  0  3  0  0  0  0  0  0
  187.9330  177.7180  148.8710 C   0  0  0  0  0  2  0  0  0  0  0  0
  189.1950  178.3490  148.3310 C   0  0  0  0  0  2  0  0  0  0  0  0
  184.4100  179.1410  140.5540 C   0  0  0  0  0  2  0  0  0  0  0  0
  184.1260  179.9530  139.3830 N   0  0  0  0  0  2  0  0  0  0  0  0
  182.8490  179.5020  138.8630 C   0  0  0  0  0  2  0  0  0  0  0  0
  183.0570  178.2590  138.0240 C   0  0  0  0  0  1  0  0  0  0  0  0
  1  6  1  0  0  0  0
  1 13  1  0  0  0  0
  2  7  1  0  0  0  0
  2 15  2  0  0  0  0
  3 11  1  0  0  0  0
  3 12  2  0  0  0  0
  4 11  1  0  0  0  0
  5 13  1  0  0  0  0
  5 26  1  0  0  0  0
  7  4  2  0  0  0  0
  8 29  1  0  0  0  0
  8  7  1  0  0  0  0
  9 14  1  0  0  0  0
  9 16  2  0  0  0  0
 10 12  1  0  0  0  0
 11  1  2  0  0  0  0
 12  5  1  0  0  0  0
 14  8  2  0  0  0  0
 15  3  1  0  0  0  0
 16  2  1  0  0  0  0
 17 23  1  0  0  0  0
 18 25  1  0  0  0  0
 19 25  1  0  0  0  0
 19 24  1  1  0  0  0
 20 19  1  0  0  0  0
 21 23  1  0  0  0  0
 21 20  2  0  0  0  0
 23 18  2  0  0  0  0
 25 22  1  6  0  0  0
 25  9  1  0  0  0  0
 26 28  1  0  0  0  0
 26 27  1  0  0  0  0
 28 27  1  0  0  0  0
 30 29  1  0  0  0  0
 31 30  1  0  0  0  0
 32 31  1  0  0  0  0
M  END
>  <MODEL>
1

>  <REMARK>
 VINA RESULT:     -10.0      0.000      0.000
  Name = 
  5 active torsions:
  status: ('A' for Active; 'I' for Inactive)
    1  A    between atoms: C_1  and  N_10
    2  A    between atoms: N_4  and  C_5
    3  A    between atoms: N_4  and  C_13
    4  A    between atoms: C_13  and  C_15
    5  A    between atoms: C_16  and  C_32
                            x       y       z     vdW  Elec       q    Type
                         _______ _______ _______ _____ _____    ______ ____

>  <TORSDO>
F 5

$$$$
=
 OpenBabel11052416593D

 32 36  0  0  1  0  0  0  0  0999 V2000
  189.9520  177.4350  144.4270 C   0  0  0  0  0  0  0  0  0  0  0  0
  186.4530  178.2500  142.3170 C   0  0  0  0  0  0  0  0  0  0  0  0
  187.5700  177.7860  144.4350 C   0  0  0  0  0  0  0  0  0  0  0  0
  188.8490  177.8980  142.3590 C   0  0  0  0  0  3  0  0  0  0  0  0
  188.7170  177.3440  146.5030 N   0  0  0  0  0  0  0  0  0  0  0  0
  191.2800  177.3340  143.7460 C   0  0  0  0  0  1  0  0  0  0  0  0
  187.6820  178.1710  141.6370 C   0  0  0  0  0  0  0  0  0  0  0  0
  187.7020  178.3680  140.2440 C   0  0  0  0  0  0  0  0  0  0  0  0
  185.3400  178.7170  140.2230 C   0  0  0  0  0  0  0  0  0  0  0  0
  186.1930  177.6730  146.5030 C   0  0  0  0  0  1  0  0  0  0  0  0
  188.8150  177.7040  143.7510 C   0  0  0  0  0  0  0  0  0  0  0  0
  187.5040  177.6070  145.7720 C   0  0  0  0  0  0  0  0  0  0  0  0
  189.9070  177.2400  145.8080 O   0  0  0  0  0  0  0  0  0  0  0  0
  186.5430  178.6400  139.5860 N   0  0  0  0  0  0  0  0  0  0  0  0
  186.4030  178.0590  143.6970 C   0  0  0  0  0  3  0  0  0  0  0  0
  185.2830  178.5230  141.6110 C   0  0  0  0  0  3  0  0  0  0  0  0
  180.6190  179.1290  140.8960 O   0  0  0  0  0  1  0  0  0  0  0  0
  182.9260  179.1640  140.4050 C   0  0  0  0  0  3  0  0  0  0  0  0
  183.7930  177.9050  138.4210 C   0  0  1  0  0  3  0  0  0  0  0  0
  182.3920  177.9950  137.8750 C   0  0  0  0  0  3  0  0  0  0  0  0
  181.3970  178.4400  138.6470 C   0  0  0  0  0  3  0  0  0  0  0  0
  184.2330  180.2440  138.7660 O   0  0  0  0  0  1  0  0  0  0  0  0
  181.6700  178.9250  140.0120 C   0  0  0  0  0  0  0  0  0  0  0  0
  184.7540  177.9170  137.3290 N   0  0  0  0  0  1  0  0  0  0  0  0
  184.0850  179.0280  139.4450 C   0  0  2  0  0  0  0  0  0  0  0  0
  188.6990  177.0830  147.9400 C   0  0  0  0  0  3  0  0  0  0  0  0
  188.1310  178.2860  148.6710 C   0  0  0  0  0  2  0  0  0  0  0  0
  189.6230  178.0460  148.6660 C   0  0  0  0  0  2  0  0  0  0  0  0
  188.9770  178.3250  139.4670 C   0  0  0  0  0  2  0  0  0  0  0  0
  188.8500  179.1440  138.2740 N   0  0  0  0  0  2  0  0  0  0  0  0
  189.3070  178.3340  137.1610 C   0  0  0  0  0  2  0  0  0  0  0  0
  190.1500  177.1900  137.6840 C   0  0  0  0  0  1  0  0  0  0  0  0
  1 13  1  0  0  0  0
  2 15  2  0  0  0  0
  3 12  2  0  0  0  0
  4 11  1  0  0  0  0
  5 26  1  0  0  0  0
  6  1  1  0  0  0  0
  7  2  1  0  0  0  0
  7  4  2  0  0  0  0
  8  7  1  0  0  0  0
  9 16  2  0  0  0  0
 11  1  2  0  0  0  0
 11  3  1  0  0  0  0
 12 10  1  0  0  0  0
 12  5  1  0  0  0  0
 13  5  1  0  0  0  0
 14  9  1  0  0  0  0
 14  8  2  0  0  0  0
 15  3  1  0  0  0  0
 16  2  1  0  0  0  0
 19 24  1  6  0  0  0
 19 25  1  0  0  0  0
 20 19  1  0  0  0  0
 20 21  2  0  0  0  0
 21 23  1  0  0  0  0
 23 18  2  0  0  0  0
 23 17  1  0  0  0  0
 25 22  1  6  0  0  0
 25  9  1  0  0  0  0
 25 18  1  0  0  0  0
 26 28  1  0  0  0  0
 26 27  1  0  0  0  0
 28 27  1  0  0  0  0
 29  8  1  0  0  0  0
 30 29  1  0  0  0  0
 31 32  1  0  0  0  0
 31 30  1  0  0  0  0
M  END
>  <MODEL>
2

>  <REMARK>
 VINA RESULT:      -9.4      2.168      4.718
  Name = 
  5 active torsions:
  status: ('A' for Active; 'I' for Inactive)
    1  A    between atoms: C_1  and  N_10
    2  A    between atoms: N_4  and  C_5
    3  A    between atoms: N_4  and  C_13
    4  A    between atoms: C_13  and  C_15
    5  A    between atoms: C_16  and  C_32
                            x       y       z     vdW  Elec       q    Type
                         _______ _______ _______ _____ _____    ______ ____

>  <TORSDO>
F 5

$$$$
=
 OpenBabel11052416593D

 32 36  0  0  1  0  0  0  0  0999 V2000
  182.7760  179.2670  140.0240 C   0  0  0  0  0  0  0  0  0  0  0  0
  185.9810  178.0870  142.4110 C   0  0  0  0  0  0  0  0  0  0  0  0
  183.6290  178.6970  142.2030 C   0  0  0  0  0  0  0  0  0  0  0  0
  185.0760  178.6600  140.2380 C   0  0  0  0  0  3  0  0  0  0  0  0
  181.3110  179.2880  141.9470 N   0  0  0  0  0  0  0  0  0  0  0  0
  182.9240  179.4770  138.5510 C   0  0  0  0  0  1  0  0  0  0  0  0
  186.1630  178.2650  141.0270 C   0  0  0  0  0  0  0  0  0  0  0  0
  187.4360  178.0410  140.4750 C   0  0  0  0  0  0  0  0  0  0  0  0
  188.3090  177.4740  142.6250 C   0  0  0  0  0  0  0  0  0  0  0  0
  182.2240  178.7260  144.2550 C   0  0  0  0  0  1  0  0  0  0  0  0
  183.8080  178.8800  140.8030 C   0  0  0  0  0  0  0  0  0  0  0  0
  182.4230  178.8990  142.7760 C   0  0  0  0  0  0  0  0  0  0  0  0
  181.5220  179.4870  140.5960 O   0  0  0  0  0  0  0  0  0  0  0  0
  188.4610  177.6480  141.2810 N   0  0  0  0  0  0  0  0  0  0  0  0
  184.7290  178.3020  142.9860 C   0  0  0  0  0  3  0  0  0  0  0  0
  187.0520  177.6910  143.2090 C   0  0  0  0  0  3  0  0  0  0  0  0
  189.5210  176.9890  147.2290 O   0  0  0  0  0  1  0  0  0  0  0  0
  189.0470  176.9710  144.9180 C   0  0  0  0  0  3  0  0  0  0  0  0
  190.6620  178.0140  143.3120 C   0  0  1  0  0  3  0  0  0  0  0  0
  191.7040  177.8140  144.3810 C   0  0  0  0  0  3  0  0  0  0  0  0
  191.3420  177.4310  145.6090 C   0  0  0  0  0  3  0  0  0  0  0  0
  189.8870  175.7490  143.0860 O   0  0  0  0  0  1  0  0  0  0  0  0
  189.9330  177.1210  145.9100 C   0  0  0  0  0  0  0  0  0  0  0  0
  191.2710  177.9050  141.9960 N   0  0  0  0  0  1  0  0  0  0  0  0
  189.4770  177.0310  143.4720 C   0  0  2  0  0  0  0  0  0  0  0  0
  179.9980  179.5770  142.5190 C   0  0  0  0  0  3  0  0  0  0  0  0
  178.9360  179.4660  141.4400 C   0  0  0  0  0  2  0  0  0  0  0  0
  179.4090  180.8290  141.8890 C   0  0  0  0  0  2  0  0  0  0  0  0
  187.6900  178.1840  139.0100 C   0  0  0  0  0  2  0  0  0  0  0  0
  188.9180  178.9300  138.7960 N   0  0  0  0  0  2  0  0  0  0  0  0
  189.0420  179.1280  137.3640 C   0  0  0  0  0  2  0  0  0  0  0  0
  187.7650  178.6830  136.6820 C   0  0  0  0  0  1  0  0  0  0  0  0
  1 13  1  0  0  0  0
  1 11  2  0  0  0  0
  2 15  2  0  0  0  0
  2 16  1  0  0  0  0
  3 12  2  0  0  0  0
  3 15  1  0  0  0  0
  4 11  1  0  0  0  0
  4  7  2  0  0  0  0
  5 26  1  0  0  0  0
  5 12  1  0  0  0  0
  6  1  1  0  0  0  0
  7  2  1  0  0  0  0
  8  7  1  0  0  0  0
  8 14  2  0  0  0  0
  9 16  2  0  0  0  0
  9 25  1  0  0  0  0
 11  3  1  0  0  0  0
 12 10  1  0  0  0  0
 13  5  1  0  0  0  0
 14  9  1  0  0  0  0
 18 23  2  0  0  0  0
 19 24  1  6  0  0  0
 19 25  1  0  0  0  0
 19 20  1  0  0  0  0
 20 21  2  0  0  0  0
 21 23  1  0  0  0  0
 23 17  1  0  0  0  0
 25 22  1  6  0  0  0
 25 18  1  0  0  0  0
 27 28  1  0  0  0  0
 27 26  1  0  0  0  0
 28 26  1  0  0  0  0
 29  8  1  0  0  0  0
 30 29  1  0  0  0  0
 31 30  1  0  0  0  0
 32 31  1  0  0  0  0
M  END
>  <MODEL>
3

>  <REMARK>
 VINA RESULT:      -8.8      2.795      7.018
  Name = 
  5 active torsions:
  status: ('A' for Active; 'I' for Inactive)
    1  A    between atoms: C_1  and  N_10
    2  A    between atoms: N_4  and  C_5
    3  A    between atoms: N_4  and  C_13
    4  A    between atoms: C_13  and  C_15
    5  A    between atoms: C_16  and  C_32
                            x       y       z     vdW  Elec       q    Type
                         _______ _______ _______ _____ _____    ______ ____

>  <TORSDO>
F 5

$$$$
=
 OpenBabel11052416593D

 32 36  0  0  1  0  0  0  0  0999 V2000
  183.5780  178.9780  140.4550 C   0  0  0  0  0  0  0  0  0  0  0  0
  186.7170  178.2470  143.0950 C   0  0  0  0  0  0  0  0  0  0  0  0
  184.3350  178.6070  142.7100 C   0  0  0  0  0  0  0  0  0  0  0  0
  185.9070  178.6160  140.8420 C   0  0  0  0  0  3  0  0  0  0  0  0
  181.9940  178.9480  142.2810 N   0  0  0  0  0  0  0  0  0  0  0  0
  183.8010  179.1270  138.9840 C   0  0  0  0  0  1  0  0  0  0  0  0
  186.9720  178.3720  141.7160 C   0  0  0  0  0  0  0  0  0  0  0  0
  188.2950  178.2490  141.2560 C   0  0  0  0  0  0  0  0  0  0  0  0
  189.0740  177.8820  143.4830 C   0  0  0  0  0  0  0  0  0  0  0  0
  182.8020  178.5980  144.6680 C   0  0  0  0  0  1  0  0  0  0  0  0
  184.5890  178.7360  141.3150 C   0  0  0  0  0  0  0  0  0  0  0  0
  183.0800  178.7150  143.1970 C   0  0  0  0  0  0  0  0  0  0  0  0
  182.2730  179.0990  140.9360 O   0  0  0  0  0  0  0  0  0  0  0  0
  189.2970  178.0020  142.1440 N   0  0  0  0  0  0  0  0  0  0  0  0
  185.4150  178.3630  143.5790 C   0  0  0  0  0  3  0  0  0  0  0  0
  187.7660  178.0010  143.9770 C   0  0  0  0  0  3  0  0  0  0  0  0
  192.4610  174.5880  144.2500 O   0  0  0  0  0  1  0  0  0  0  0  0
  190.9970  176.4080  143.9170 C   0  0  0  0  0  3  0  0  0  0  0  0
  189.6940  177.3230  145.8510 C   0  0  1  0  0  3  0  0  0  0  0  0
  190.7510  176.7070  146.7290 C   0  0  0  0  0  3  0  0  0  0  0  0
  191.6640  175.8840  146.2060 C   0  0  0  0  0  3  0  0  0  0  0  0
  191.0890  178.7010  144.4590 O   0  0  0  0  0  1  0  0  0  0  0  0
  191.7000  175.6350  144.7530 C   0  0  0  0  0  0  0  0  0  0  0  0
  189.1720  178.5300  146.4710 N   0  0  0  0  0  1  0  0  0  0  0  0
  190.2210  177.6010  144.4230 C   0  0  2  0  0  0  0  0  0  0  0  0
  180.6240  179.1330  142.7550 C   0  0  0  0  0  3  0  0  0  0  0  0
  179.6490  178.8130  141.6360 C   0  0  0  0  0  2  0  0  0  0  0  0
  179.9430  180.2530  141.9860 C   0  0  0  0  0  2  0  0  0  0  0  0
  188.6290  178.3440  139.8030 C   0  0  0  0  0  2  0  0  0  0  0  0
  189.7080  177.4230  139.4890 N   0  0  0  0  0  2  0  0  0  0  0  0
  189.8830  177.4630  138.0490 C   0  0  0  0  0  2  0  0  0  0  0  0
  189.1290  178.6470  137.4820 C   0  0  0  0  0  1  0  0  0  0  0  0
  1 13  1  0  0  0  0
  1 11  2  0  0  0  0
  2 15  2  0  0  0  0
  2 16  1  0  0  0  0
  3 12  2  0  0  0  0
  3 15  1  0  0  0  0
  4 11  1  0  0  0  0
  4  7  2  0  0  0  0
  5 26  1  0  0  0  0
  5 12  1  0  0  0  0
  6  1  1  0  0  0  0
  7  2  1  0  0  0  0
  8  7  1  0  0  0  0
  8 14  2  0  0  0  0
  9 16  2  0  0  0  0
  9 25  1  0  0  0  0
 11  3  1  0  0  0  0
 12 10  1  0  0  0  0
 13  5  1  0  0  0  0
 14  9  1  0  0  0  0
 17 23  1  0  0  0  0
 18 25  1  0  0  0  0
 18 23  2  0  0  0  0
 19 24  1  1  0  0  0
 19 20  1  0  0  0  0
 21 20  2  0  0  0  0
 23 21  1  0  0  0  0
 25 22  1  1  0  0  0
 25 19  1  0  0  0  0
 27 28  1  0  0  0  0
 27 26  1  0  0  0  0
 28 26  1  0  0  0  0
 29  8  1  0  0  0  0
 30 29  1  0  0  0  0
 31 30  1  0  0  0  0
 32 31  1  0  0  0  0
M  END
>  <MODEL>
4

>  <REMARK>
 VINA RESULT:      -8.6      2.809      7.125
  Name = 
  5 active torsions:
  status: ('A' for Active; 'I' for Inactive)
    1  A    between atoms: C_1  and  N_10
    2  A    between atoms: N_4  and  C_5
    3  A    between atoms: N_4  and  C_13
    4  A    between atoms: C_13  and  C_15
    5  A    between atoms: C_16  and  C_32
                            x       y       z     vdW  Elec       q    Type
                         _______ _______ _______ _____ _____    ______ ____

>  <TORSDO>
F 5

$$$$
=
 OpenBabel11052416593D

 32 36  0  0  1  0  0  0  0  0999 V2000
  181.6310  179.1340  143.0280 C   0  0  0  0  0  0  0  0  0  0  0  0
  185.6520  178.0740  142.7740 C   0  0  0  0  0  0  0  0  0  0  0  0
  183.5430  178.5990  141.6670 C   0  0  0  0  0  0  0  0  0  0  0  0
  183.7030  178.6270  144.1020 C   0  0  0  0  0  3  0  0  0  0  0  0
  181.4480  179.1420  140.6180 N   0  0  0  0  0  0  0  0  0  0  0  0
  180.9510  179.3430  144.3440 C   0  0  0  0  0  1  0  0  0  0  0  0
  185.0540  178.2690  144.0330 C   0  0  0  0  0  0  0  0  0  0  0  0
  185.8350  178.0970  145.1900 C   0  0  0  0  0  0  0  0  0  0  0  0
  187.7470  177.5600  143.8640 C   0  0  0  0  0  0  0  0  0  0  0  0
  183.4600  178.5350  139.1820 C   0  0  0  0  0  1  0  0  0  0  0  0
  182.9340  178.7960  142.9380 C   0  0  0  0  0  0  0  0  0  0  0  0
  182.8330  178.7560  140.5290 C   0  0  0  0  0  0  0  0  0  0  0  0
  180.8750  179.2960  141.8660 O   0  0  0  0  0  0  0  0  0  0  0  0
  187.1480  177.7590  145.0720 N   0  0  0  0  0  0  0  0  0  0  0  0
  184.9020  178.2380  141.6100 C   0  0  0  0  0  3  0  0  0  0  0  0
  186.9970  177.7220  142.6890 C   0  0  0  0  0  3  0  0  0  0  0  0
  191.5640  177.1270  146.7180 O   0  0  0  0  0  1  0  0  0  0  0  0
  189.7670  177.0930  145.1910 C   0  0  0  0  0  3  0  0  0  0  0  0
  189.9930  178.2530  142.9820 C   0  0  1  0  0  3  0  0  0  0  0  0
  191.4810  178.1170  143.1730 C   0  0  0  0  0  3  0  0  0  0  0  0
  191.9730  177.7020  144.3430 C   0  0  0  0  0  3  0  0  0  0  0  0
  189.3560  175.9420  143.1750 O   0  0  0  0  0  1  0  0  0  0  0  0
  191.0670  177.2950  145.4330 C   0  0  0  0  0  0  0  0  0  0  0  0
  189.6650  178.1940  141.5660 N   0  0  0  0  0  1  0  0  0  0  0  0
  189.2090  177.1920  143.7900 C   0  0  2  0  0  0  0  0  0  0  0  0
  180.6140  179.2680  139.4250 C   0  0  0  0  0  3  0  0  0  0  0  0
  179.1500  179.2830  139.8250 C   0  0  0  0  0  2  0  0  0  0  0  0
  179.7550  178.0270  139.2440 C   0  0  0  0  0  2  0  0  0  0  0  0
  185.2700  178.3160  146.5550 C   0  0  0  0  0  2  0  0  0  0  0  0
  186.2800  178.9070  147.4150 N   0  0  0  0  0  2  0  0  0  0  0  0
  186.9700  177.8070  148.0640 C   0  0  0  0  0  2  0  0  0  0  0  0
  188.3590  178.2530  148.4680 C   0  0  0  0  0  1  0  0  0  0  0  0
  1  6  1  0  0  0  0
  2  7  1  0  0  0  0
  3 11  1  0  0  0  0
  5 13  1  0  0  0  0
  7  4  2  0  0  0  0
  7  8  1  0  0  0  0
  8 29  1  0  0  0  0
  9 14  1  0  0  0  0
 10 12  1  0  0  0  0
 11  1  2  0  0  0  0
 11  4  1  0  0  0  0
 12  5  1  0  0  0  0
 12  3  2  0  0  0  0
 13  1  1  0  0  0  0
 14  8  2  0  0  0  0
 15  3  1  0  0  0  0
 15  2  2  0  0  0  0
 16  2  1  0  0  0  0
 16  9  2  0  0  0  0
 18 23  2  0  0  0  0
 19 24  1  6  0  0  0
 19 20  1  0  0  0  0
 19 25  1  0  0  0  0
 20 21  2  0  0  0  0
 21 23  1  0  0  0  0
 23 17  1  0  0  0  0
 25 22  1  6  0  0  0
 25  9  1  0  0  0  0
 25 18  1  0  0  0  0
 26 27  1  0  0  0  0
 26  5  1  0  0  0  0
 28 26  1  0  0  0  0
 28 27  1  0  0  0  0
 29 30  1  0  0  0  0
 30 31  1  0  0  0  0
 31 32  1  0  0  0  0
M  END
>  <MODEL>
5

>  <REMARK>
 VINA RESULT:      -8.5      3.640      7.713
  Name = 
  5 active torsions:
  status: ('A' for Active; 'I' for Inactive)
    1  A    between atoms: C_1  and  N_10
    2  A    between atoms: N_4  and  C_5
    3  A    between atoms: N_4  and  C_13
    4  A    between atoms: C_13  and  C_15
    5  A    between atoms: C_16  and  C_32
                            x       y       z     vdW  Elec       q    Type
                         _______ _______ _______ _____ _____    ______ ____

>  <TORSDO>
F 5

$$$$
=
 OpenBabel11052416593D

 32 36  0  0  1  0  0  0  0  0999 V2000
  188.2070  177.8540  145.5700 C   0  0  0  0  0  0  0  0  0  0  0  0
  188.2900  177.8240  141.4040 C   0  0  0  0  0  0  0  0  0  0  0  0
  189.4230  177.4500  143.5320 C   0  0  0  0  0  0  0  0  0  0  0  0
  187.1040  178.2080  143.4810 C   0  0  0  0  0  3  0  0  0  0  0  0
  190.4950  177.0770  145.6520 N   0  0  0  0  0  0  0  0  0  0  0  0
  186.9870  178.2590  146.3330 C   0  0  0  0  0  1  0  0  0  0  0  0
  187.1170  178.2050  142.0820 C   0  0  0  0  0  0  0  0  0  0  0  0
  185.9880  178.5740  141.3300 C   0  0  0  0  0  0  0  0  0  0  0  0
  187.1720  178.1850  139.2930 C   0  0  0  0  0  0  0  0  0  0  0  0
  191.7920  176.6930  143.4970 C   0  0  0  0  0  1  0  0  0  0  0  0
  188.2400  177.8370  144.2210 C   0  0  0  0  0  0  0  0  0  0  0  0
  190.5310  177.0860  144.2120 C   0  0  0  0  0  0  0  0  0  0  0  0
  189.3420  177.4860  146.2950 O   0  0  0  0  0  0  0  0  0  0  0  0
  186.0450  178.5460  139.9700 N   0  0  0  0  0  0  0  0  0  0  0  0
  189.4250  177.4530  142.1240 C   0  0  0  0  0  3  0  0  0  0  0  0
  188.3170  177.8130  140.0120 C   0  0  0  0  0  3  0  0  0  0  0  0
  186.4480  175.1480  135.6650 O   0  0  0  0  0  1  0  0  0  0  0  0
  186.6490  176.8350  137.3020 C   0  0  0  0  0  3  0  0  0  0  0  0
  188.6130  178.3890  137.2480 C   0  0  1  0  0  3  0  0  0  0  0  0
  188.7270  178.0370  135.7880 C   0  0  0  0  0  3  0  0  0  0  0  0
  187.9940  177.0440  135.2760 C   0  0  0  0  0  3  0  0  0  0  0  0
  186.3390  179.1720  137.2890 O   0  0  0  0  0  1  0  0  0  0  0  0
  187.0060  176.3380  136.1120 C   0  0  0  0  0  0  0  0  0  0  0  0
  189.0560  179.7570  137.4660 N   0  0  0  0  0  1  0  0  0  0  0  0
  187.1790  178.1650  137.7830 C   0  0  2  0  0  0  0  0  0  0  0  0
  191.6800  176.7500  146.4420 C   0  0  0  0  0  3  0  0  0  0  0  0
  191.9490  175.2580  146.3640 C   0  0  0  0  0  2  0  0  0  0  0  0
  191.3090  175.8410  147.6030 C   0  0  0  0  0  2  0  0  0  0  0  0
  184.7030  178.9620  141.9860 C   0  0  0  0  0  2  0  0  0  0  0  0
  183.6570  178.0310  141.6020 N   0  0  0  0  0  2  0  0  0  0  0  0
  182.4090  178.7720  141.6280 C   0  0  0  0  0  2  0  0  0  0  0  0
  181.3790  178.0540  140.7820 C   0  0  0  0  0  1  0  0  0  0  0  0
  1 13  1  0  0  0  0
  1  6  1  0  0  0  0
  2  7  1  0  0  0  0
  2 15  2  0  0  0  0
  3 12  2  0  0  0  0
  3 11  1  0  0  0  0
  4 11  1  0  0  0  0
  5 13  1  0  0  0  0
  5 26  1  0  0  0  0
  7  4  2  0  0  0  0
  8 29  1  0  0  0  0
  8  7  1  0  0  0  0
  9 14  1  0  0  0  0
  9 16  2  0  0  0  0
 10 12  1  0  0  0  0
 11  1  2  0  0  0  0
 12  5  1  0  0  0  0
 14  8  2  0  0  0  0
 15  3  1  0  0  0  0
 16  2  1  0  0  0  0
 17 23  1  0  0  0  0
 18 25  1  0  0  0  0
 19 24  1  6  0  0  0
 19 25  1  0  0  0  0
 20 19  1  0  0  0  0
 21 20  2  0  0  0  0
 21 23  1  0  0  0  0
 23 18  2  0  0  0  0
 25 22  1  6  0  0  0
 25  9  1  0  0  0  0
 26 28  1  0  0  0  0
 27 26  1  0  0  0  0
 27 28  1  0  0  0  0
 30 31  1  0  0  0  0
 30 29  1  0  0  0  0
 32 31  1  0  0  0  0
M  END
>  <MODEL>
6

>  <REMARK>
 VINA RESULT:      -8.4      1.895      2.288
  Name = 
  5 active torsions:
  status: ('A' for Active; 'I' for Inactive)
    1  A    between atoms: C_1  and  N_10
    2  A    between atoms: N_4  and  C_5
    3  A    between atoms: N_4  and  C_13
    4  A    between atoms: C_13  and  C_15
    5  A    between atoms: C_16  and  C_32
                            x       y       z     vdW  Elec       q    Type
                         _______ _______ _______ _____ _____    ______ ____

>  <TORSDO>
F 5

$$$$
=
 OpenBabel11052416593D

 32 36  0  0  1  0  0  0  0  0999 V2000
  183.7910  178.7370  144.6400 C   0  0  0  0  0  0  0  0  0  0  0  0
  186.1890  178.2530  141.2670 C   0  0  0  0  0  0  0  0  0  0  0  0
  183.9960  178.6930  142.2420 C   0  0  0  0  0  0  0  0  0  0  0  0
  185.9350  178.3160  143.6760 C   0  0  0  0  0  3  0  0  0  0  0  0
  181.8570  179.1410  143.2460 N   0  0  0  0  0  0  0  0  0  0  0  0
  184.3440  178.6280  146.0250 C   0  0  0  0  0  1  0  0  0  0  0  0
  186.7530  178.1500  142.5530 C   0  0  0  0  0  0  0  0  0  0  0  0
  188.1280  177.8790  142.6710 C   0  0  0  0  0  0  0  0  0  0  0  0
  188.3590  177.8260  140.2950 C   0  0  0  0  0  0  0  0  0  0  0  0
  182.0680  179.0510  140.7120 C   0  0  0  0  0  1  0  0  0  0  0  0
  184.5620  178.5870  143.5430 C   0  0  0  0  0  0  0  0  0  0  0  0
  182.6810  178.9540  142.0800 C   0  0  0  0  0  0  0  0  0  0  0  0
  182.4280  179.0020  144.4980 O   0  0  0  0  0  0  0  0  0  0  0  0
  188.8850  177.7340  141.5500 N   0  0  0  0  0  0  0  0  0  0  0  0
  184.8290  178.5210  141.1200 C   0  0  0  0  0  3  0  0  0  0  0  0
  186.9910  178.0930  140.1400 C   0  0  0  0  0  3  0  0  0  0  0  0
  188.3160  175.7750  135.9710 O   0  0  0  0  0  1  0  0  0  0  0  0
  188.4550  177.0150  137.9730 C   0  0  0  0  0  3  0  0  0  0  0  0
  190.4790  176.7940  139.4320 C   0  0  1  0  0  3  0  0  0  0  0  0
  191.1980  176.3220  138.1960 C   0  0  0  0  0  3  0  0  0  0  0  0
  190.5130  176.0550  137.0800 C   0  0  0  0  0  3  0  0  0  0  0  0
  189.6780  178.9180  138.6360 O   0  0  0  0  0  1  0  0  0  0  0  0
  189.0610  176.2980  137.0190 C   0  0  0  0  0  0  0  0  0  0  0  0
  191.4010  177.5040  140.3040 N   0  0  0  0  0  1  0  0  0  0  0  0
  189.2460  177.6630  139.0840 C   0  0  2  0  0  0  0  0  0  0  0  0
  180.4180  179.3660  143.1350 C   0  0  0  0  0  3  0  0  0  0  0  0
  179.7140  178.7770  144.3440 C   0  0  0  0  0  2  0  0  0  0  0  0
  179.6810  178.0420  143.0240 C   0  0  0  0  0  2  0  0  0  0  0  0
  188.7940  177.7840  144.0050 C   0  0  0  0  0  2  0  0  0  0  0  0
  189.9940  176.9720  143.8960 N   0  0  0  0  0  2  0  0  0  0  0  0
  191.0020  177.6060  144.7250 C   0  0  0  0  0  2  0  0  0  0  0  0
  191.6220  178.7620  143.9690 C   0  0  0  0  0  1  0  0  0  0  0  0
  1  6  1  0  0  0  0
  2  7  1  0  0  0  0
  3 11  1  0  0  0  0
  5 13  1  0  0  0  0
  7  8  1  0  0  0  0
  7  4  2  0  0  0  0
  8 29  1  0  0  0  0
  9 14  1  0  0  0  0
 10 12  1  0  0  0  0
 11  4  1  0  0  0  0
 11  1  2  0  0  0  0
 12  3  2  0  0  0  0
 12  5  1  0  0  0  0
 13  1  1  0  0  0  0
 14  8  2  0  0  0  0
 15  2  2  0  0  0  0
 15  3  1  0  0  0  0
 16  9  2  0  0  0  0
 16  2  1  0  0  0  0
 17 23  1  0  0  0  0
 18 25  1  0  0  0  0
 19 24  1  1  0  0  0
 20 19  1  0  0  0  0
 21 20  2  0  0  0  0
 23 21  1  0  0  0  0
 23 18  2  0  0  0  0
 25 22  1  6  0  0  0
 25 19  1  0  0  0  0
 25  9  1  0  0  0  0
 26  5  1  0  0  0  0
 26 27  1  0  0  0  0
 28 26  1  0  0  0  0
 28 27  1  0  0  0  0
 30 29  1  0  0  0  0
 30 31  1  0  0  0  0
 32 31  1  0  0  0  0
M  END
>  <MODEL>
7

>  <REMARK>
 VINA RESULT:      -8.3      2.483      5.408
  Name = 
  5 active torsions:
  status: ('A' for Active; 'I' for Inactive)
    1  A    between atoms: C_1  and  N_10
    2  A    between atoms: N_4  and  C_5
    3  A    between atoms: N_4  and  C_13
    4  A    between atoms: C_13  and  C_15
    5  A    between atoms: C_16  and  C_32
                            x       y       z     vdW  Elec       q    Type
                         _______ _______ _______ _____ _____    ______ ____

>  <TORSDO>
F 5

$$$$
=
 OpenBabel11052416593D

 32 36  0  0  1  0  0  0  0  0999 V2000
  189.6210  177.7720  144.2980 C   0  0  0  0  0  0  0  0  0  0  0  0
  185.8440  178.1210  142.5730 C   0  0  0  0  0  0  0  0  0  0  0  0
  187.2280  177.8130  144.5580 C   0  0  0  0  0  0  0  0  0  0  0  0
  188.2570  178.0820  142.3610 C   0  0  0  0  0  3  0  0  0  0  0  0
  188.6320  177.5310  146.4900 N   0  0  0  0  0  0  0  0  0  0  0  0
  190.8710  177.8400  143.4800 C   0  0  0  0  0  1  0  0  0  0  0  0
  186.9950  178.1990  141.7670 C   0  0  0  0  0  0  0  0  0  0  0  0
  186.8430  178.3920  140.3830 C   0  0  0  0  0  0  0  0  0  0  0  0
  184.4660  178.4330  140.6130 C   0  0  0  0  0  0  0  0  0  0  0  0
  186.1010  177.5320  146.7580 C   0  0  0  0  0  1  0  0  0  0  0  0
  188.3940  177.8890  143.7470 C   0  0  0  0  0  0  0  0  0  0  0  0
  187.3250  177.6320  145.8930 C   0  0  0  0  0  0  0  0  0  0  0  0
  189.7470  177.5780  145.6740 O   0  0  0  0  0  0  0  0  0  0  0  0
  185.5950  178.5100  139.8520 N   0  0  0  0  0  0  0  0  0  0  0  0
  185.9650  177.9310  143.9490 C   0  0  0  0  0  3  0  0  0  0  0  0
  184.5810  178.2390  141.9970 C   0  0  0  0  0  3  0  0  0  0  0  0
  181.2150  175.8030  138.2850 O   0  0  0  0  0  1  0  0  0  0  0  0
  182.5970  177.2110  139.5790 C   0  0  0  0  0  3  0  0  0  0  0  0
  183.1910  179.4910  138.7270 C   0  0  1  0  0  3  0  0  0  0  0  0
  181.9560  179.3860  137.8710 C   0  0  0  0  0  3  0  0  0  0  0  0
  181.2980  178.2270  137.7790 C   0  0  0  0  0  3  0  0  0  0  0  0
  182.2040  179.1310  140.8900 O   0  0  0  0  0  1  0  0  0  0  0  0
  181.7220  177.0620  138.5780 C   0  0  0  0  0  0  0  0  0  0  0  0
  183.4240  180.8780  139.0970 N   0  0  0  0  0  1  0  0  0  0  0  0
  183.1070  178.5770  139.9730 C   0  0  2  0  0  0  0  0  0  0  0  0
  188.7990  177.2740  147.9190 C   0  0  0  0  0  3  0  0  0  0  0  0
  188.3140  178.4730  148.7130 C   0  0  0  0  0  2  0  0  0  0  0  0
  189.7960  178.2510  148.5210 C   0  0  0  0  0  2  0  0  0  0  0  0
  188.0240  178.5110  139.4760 C   0  0  0  0  0  2  0  0  0  0  0  0
  188.2270  177.2580  138.7690 N   0  0  0  0  0  2  0  0  0  0  0  0
  189.6200  177.2300  138.3630 C   0  0  0  0  0  2  0  0  0  0  0  0
  190.5040  177.3180  139.5890 C   0  0  0  0  0  1  0  0  0  0  0  0
  1 13  1  0  0  0  0
  2 15  2  0  0  0  0
  3 12  2  0  0  0  0
  4 11  1  0  0  0  0
  5 26  1  0  0  0  0
  6  1  1  0  0  0  0
  7  4  2  0  0  0  0
  7  2  1  0  0  0  0
  8  7  1  0  0  0  0
  9 16  2  0  0  0  0
 11  1  2  0  0  0  0
 11  3  1  0  0  0  0
 12  5  1  0  0  0  0
 12 10  1  0  0  0  0
 13  5  1  0  0  0  0
 14  8  2  0  0  0  0
 14  9  1  0  0  0  0
 15  3  1  0  0  0  0
 16  2  1  0  0  0  0
 17 23  1  0  0  0  0
 18 25  1  0  0  0  0
 19 24  1  1  0  0  0
 19 25  1  0  0  0  0
 20 19  1  0  0  0  0
 21 20  2  0  0  0  0
 21 23  1  0  0  0  0
 23 18  2  0  0  0  0
 25  9  1  0  0  0  0
 25 22  1  1  0  0  0
 26 28  1  0  0  0  0
 26 27  1  0  0  0  0
 28 27  1  0  0  0  0
 29  8  1  0  0  0  0
 30 29  1  0  0  0  0
 31 30  1  0  0  0  0
 31 32  1  0  0  0  0
M  END
>  <MODEL>
8

>  <REMARK>
 VINA RESULT:      -8.3      2.364      4.888
  Name = 
  5 active torsions:
  status: ('A' for Active; 'I' for Inactive)
    1  A    between atoms: C_1  and  N_10
    2  A    between atoms: N_4  and  C_5
    3  A    between atoms: N_4  and  C_13
    4  A    between atoms: C_13  and  C_15
    5  A    between atoms: C_16  and  C_32
                            x       y       z     vdW  Elec       q    Type
                         _______ _______ _______ _____ _____    ______ ____

>  <TORSDO>
F 5

$$$$
=
 OpenBabel11052416593D

 32 36  0  0  1  0  0  0  0  0999 V2000
  187.0820  177.9770  144.6040 C   0  0  0  0  0  0  0  0  0  0  0  0
  189.8570  176.8960  141.6900 C   0  0  0  0  0  0  0  0  0  0  0  0
  189.2250  177.0360  144.0420 C   0  0  0  0  0  0  0  0  0  0  0  0
  187.7060  177.8270  142.3030 C   0  0  0  0  0  3  0  0  0  0  0  0
  188.5530  177.1770  146.3470 N   0  0  0  0  0  0  0  0  0  0  0  0
  185.7680  178.5990  144.2510 C   0  0  0  0  0  1  0  0  0  0  0  0
  188.6290  177.4710  141.3130 C   0  0  0  0  0  0  0  0  0  0  0  0
  188.3640  177.6730  139.9470 C   0  0  0  0  0  0  0  0  0  0  0  0
  190.4860  176.7460  139.3620 C   0  0  0  0  0  0  0  0  0  0  0  0
  190.8360  176.2220  145.7540 C   0  0  0  0  0  1  0  0  0  0  0  0
  187.9830  177.6200  143.6650 C   0  0  0  0  0  0  0  0  0  0  0  0
  189.5210  176.8210  145.3420 C   0  0  0  0  0  0  0  0  0  0  0  0
  187.3680  177.7700  145.9540 O   0  0  0  0  0  0  0  0  0  0  0  0
  189.2890  177.3010  139.0200 N   0  0  0  0  0  0  0  0  0  0  0  0
  190.1460  176.6840  143.0380 C   0  0  0  0  0  3  0  0  0  0  0  0
  190.7840  176.5330  140.7160 C   0  0  0  0  0  3  0  0  0  0  0  0
  191.4670  173.0560  136.4770 O   0  0  0  0  0  1  0  0  0  0  0  0
  191.0300  175.0430  137.6700 C   0  0  0  0  0  3  0  0  0  0  0  0
  192.8900  176.1900  138.8960 C   0  0  1  0  0  3  0  0  0  0  0  0
  193.8220  175.4680  137.9590 C   0  0  0  0  0  3  0  0  0  0  0  0
  193.3550  174.5130  137.1500 C   0  0  0  0  0  3  0  0  0  0  0  0
  191.5060  177.3200  137.2850 O   0  0  0  0  0  1  0  0  0  0  0  0
  191.9120  174.2120  137.1050 C   0  0  0  0  0  0  0  0  0  0  0  0
  193.4550  177.4770  139.2680 N   0  0  0  0  0  1  0  0  0  0  0  0
  191.4730  176.3470  138.2920 C   0  0  2  0  0  0  0  0  0  0  0  0
  188.8410  177.0240  147.7710 C   0  0  0  0  0  3  0  0  0  0  0  0
  187.8360  177.8200  148.5840 C   0  0  0  0  0  2  0  0  0  0  0  0
  189.2320  178.3600  148.3810 C   0  0  0  0  0  2  0  0  0  0  0  0
  187.0700  178.2520  139.4780 C   0  0  0  0  0  2  0  0  0  0  0  0
  186.9880  178.1600  138.0310 N   0  0  0  0  0  2  0  0  0  0  0  0
  185.6710  177.6350  137.7210 C   0  0  0  0  0  2  0  0  0  0  0  0
  184.6270  178.3960  138.5100 C   0  0  0  0  0  1  0  0  0  0  0  0
  1 13  1  0  0  0  0
  2 15  2  0  0  0  0
  3 12  2  0  0  0  0
  4 11  1  0  0  0  0
  5 26  1  0  0  0  0
  6  1  1  0  0  0  0
  7  2  1  0  0  0  0
  7  4  2  0  0  0  0
  8  7  1  0  0  0  0
  9 16  2  0  0  0  0
 11  3  1  0  0  0  0
 11  1  2  0  0  0  0
 12 10  1  0  0  0  0
 12  5  1  0  0  0  0
 13  5  1  0  0  0  0
 14  9  1  0  0  0  0
 14  8  2  0  0  0  0
 15  3  1  0  0  0  0
 16  2  1  0  0  0  0
 17 23  1  0  0  0  0
 18 25  1  0  0  0  0
 19 24  1  6  0  0  0
 20 19  1  0  0  0  0
 21 20  2  0  0  0  0
 23 21  1  0  0  0  0
 23 18  2  0  0  0  0
 25 22  1  6  0  0  0
 25 19  1  0  0  0  0
 25  9  1  0  0  0  0
 26 28  1  0  0  0  0
 26 27  1  0  0  0  0
 28 27  1  0  0  0  0
 29  8  1  0  0  0  0
 30 29  1  0  0  0  0
 31 30  1  0  0  0  0
 31 32  1  0  0  0  0
M  END
>  <MODEL>
9

>  <REMARK>
 VINA RESULT:      -8.2      2.317      3.026
  Name = 
  5 active torsions:
  status: ('A' for Active; 'I' for Inactive)
    1  A    between atoms: C_1  and  N_10
    2  A    between atoms: N_4  and  C_5
    3  A    between atoms: N_4  and  C_13
    4  A    between atoms: C_13  and  C_15
    5  A    between atoms: C_16  and  C_32
                            x       y       z     vdW  Elec       q    Type
                         _______ _______ _______ _____ _____    ______ ____

>  <TORSDO>
F 5

$$$$
