=
 OpenBabel11052415303D

 37 44  0  0  1  0  0  0  0  0999 V2000
  184.0790  175.8620  136.1130 C   0  0  0  0  0  2  0  0  0  0  0  0
  179.2670  175.2610  134.6320 C   0  0  0  0  0  1  0  0  0  0  0  0
  182.4340  176.2670  139.5400 C   0  0  2  0  0  3  0  0  0  0  0  0
  186.2210  174.4980  135.7870 C   0  0  1  0  0  3  0  0  0  0  0  0
  185.4720  178.2130  138.2060 C   0  0  0  0  0  2  0  0  0  0  0  0
  179.2580  176.3790  136.8440 C   0  0  0  0  0  2  0  0  0  0  0  0
  183.4800  176.6910  138.4840 C   0  0  2  0  0  3  0  0  0  0  0  0
  181.5130  175.2670  138.8470 C   0  0  2  0  0  3  0  0  0  0  0  0
  183.9640  178.1540  138.4530 C   0  0  1  0  0  3  0  0  0  0  0  0
  179.7850  177.7590  137.1840 C   0  0  0  0  0  2  0  0  0  0  0  0
  187.1920  175.3470  135.2390 O   0  0  0  0  0  0  0  0  0  0  0  0
  182.0930  175.0690  137.4450 C   0  0  1  0  0  3  0  0  0  0  0  0
  181.0620  174.7080  136.3810 C   0  0  1  0  0  0  0  0  0  0  0  0
  181.2110  179.0180  138.6590 C   0  0  0  0  0  3  0  0  0  0  0  0
  180.7520  177.7980  138.3340 C   0  0  0  0  0  0  0  0  0  0  0  0
  180.6620  173.2850  136.3250 C   0  0  0  0  0  2  0  0  0  0  0  0
  187.5670  176.1640  136.3150 C   0  0  2  0  0  3  0  0  0  0  0  0
  185.7910  177.7070  136.9410 O   0  0  0  0  0  0  0  0  0  0  0  0
  180.9590  176.6330  139.2960 C   0  0  2  0  0  3  0  0  0  0  0  0
  182.9840  176.2370  137.1190 C   0  0  2  0  0  3  0  0  0  0  0  0
  180.1390  175.7720  135.7720 C   0  0  1  0  0  3  0  0  0  0  0  0
  183.5600  179.0770  139.6240 C   0  0  1  0  0  3  0  0  0  0  0  0
  181.5990  173.8330  135.4210 O   0  0  0  0  0  0  0  0  0  0  0  0
  186.3280  176.4270  137.1740 C   0  0  1  0  0  3  0  0  0  0  0  0
  185.3680  175.3140  136.7550 C   0  0  1  0  0  3  0  0  0  0  0  0
  182.0590  179.2710  139.8730 C   0  0  0  0  0  2  0  0  0  0  0  0
  185.7260  178.8850  140.9230 C   0  0  0  0  0  3  0  0  0  0  0  0
  184.3260  178.8670  140.8980 C   0  0  0  0  0  0  0  0  0  0  0  0
  183.6220  178.6580  142.0870 C   0  0  0  0  0  3  0  0  0  0  0  0
  183.6520  178.2660  144.4370 F   0  0  0  0  0  0  0  0  0  0  0  0
  185.6850  178.4900  143.2790 N   0  0  0  0  0  0  0  0  0  0  0  0
  184.3260  178.4690  143.2790 C   0  0  0  0  0  0  0  0  0  0  0  0
  186.3930  178.6910  142.1340 C   0  0  0  0  0  3  0  0  0  0  0  0
  188.2690  177.4200  135.8100 C   0  0  0  0  0  2  0  0  0  0  0  0
  189.2450  177.9320  136.8520 C   0  0  0  0  0  1  0  0  0  0  0  0
  185.1010  172.5080  134.8740 C   0  0  0  0  0  2  0  0  0  0  0  0
  185.4540  173.7800  134.7160 C   0  0  0  0  0  3  0  0  0  0  0  0
  1 25  1  0  0  0  0
  1 20  1  0  0  0  0
  2 21  1  0  0  0  0
  4 25  1  0  0  0  0
  5  9  1  0  0  0  0
  6 10  1  0  0  0  0
  7  3  1  0  0  0  0
  8 19  1  0  0  0  0
  8  3  1  0  0  0  0
  9  7  1  0  0  0  0
  9 22  1  0  0  0  0
 10 15  1  0  0  0  0
 11  4  1  0  0  0  0
 11 17  1  0  0  0  0
 12  8  1  0  0  0  0
 13 12  1  0  0  0  0
 14 26  1  0  0  0  0
 15 14  2  0  0  0  0
 15 19  1  0  0  0  0
 16 13  1  0  0  0  0
 17 24  1  0  0  0  0
 18 24  1  0  0  0  0
 18  5  1  0  0  0  0
 19  3  1  0  0  0  0
 20 12  1  0  0  0  0
 20  7  1  0  0  0  0
 21 13  1  0  0  0  0
 21  6  1  0  0  0  0
 22 26  1  0  0  0  0
 22 28  1  0  0  0  0
 23 16  1  0  0  0  0
 23 13  1  0  0  0  0
 25 24  1  0  0  0  0
 27 33  1  0  0  0  0
 28 27  2  0  0  0  0
 28 29  1  0  0  0  0
 29 32  2  0  0  0  0
 31 32  1  0  0  0  0
 32 30  1  0  0  0  0
 33 31  2  0  0  0  0
 34 17  1  0  0  0  0
 34 35  1  0  0  0  0
 37 36  2  0  0  0  0
 37  4  1  0  0  0  0
M  END
>  <MODEL>
1

>  <REMARK>
 VINA RESULT:      -6.6      0.000      0.000
  Name = 
  3 active torsions:
  status: ('A' for Active; 'I' for Inactive)
    1  A    between atoms: C_5  and  C_23
    2  A    between atoms: C_6  and  C_31
    3  A    between atoms: C_11  and  C_26
                            x       y       z     vdW  Elec       q    Type
                         _______ _______ _______ _____ _____    ______ ____

>  <TORSDO>
F 3

$$$$
=
 OpenBabel11052415303D

 37 44  0  0  1  0  0  0  0  0999 V2000
  186.3900  178.6060  142.8630 C   0  0  0  0  0  2  0  0  0  0  0  0
  188.9540  179.0030  147.2190 C   0  0  0  0  0  1  0  0  0  0  0  0
  189.0760  175.9890  142.1170 C   0  0  2  0  0  3  0  0  0  0  0  0
  183.9270  178.2280  142.2800 C   0  0  1  0  0  3  0  0  0  0  0  0
  187.5430  178.4830  139.6210 C   0  0  0  0  0  2  0  0  0  0  0  0
  190.4340  177.9210  145.5510 C   0  0  0  0  0  2  0  0  0  0  0  0
  188.1840  177.1730  141.6800 C   0  0  2  0  0  3  0  0  0  0  0  0
  188.8950  175.8560  143.6260 C   0  0  2  0  0  3  0  0  0  0  0  0
  188.6840  178.1210  140.5730 C   0  0  1  0  0  3  0  0  0  0  0  0
  190.9920  178.5280  144.2800 C   0  0  0  0  0  2  0  0  0  0  0  0
  183.5260  179.2590  141.4190 O   0  0  0  0  0  0  0  0  0  0  0  0
  187.8440  176.8990  144.0130 C   0  0  1  0  0  3  0  0  0  0  0  0
  187.9820  177.4370  145.4340 C   0  0  1  0  0  0  0  0  0  0  0  0
  191.2500  178.2400  141.9040 C   0  0  0  0  0  3  0  0  0  0  0  0
  190.7430  177.7230  143.0340 C   0  0  0  0  0  0  0  0  0  0  0  0
  187.4120  176.5890  146.5030 C   0  0  0  0  0  2  0  0  0  0  0  0
  184.1340  178.9300  140.1990 C   0  0  2  0  0  3  0  0  0  0  0  0
  186.5500  179.2090  140.2880 O   0  0  0  0  0  0  0  0  0  0  0  0
  190.2630  176.2750  143.0540 C   0  0  2  0  0  3  0  0  0  0  0  0
  187.7700  177.9390  142.9270 C   0  0  2  0  0  3  0  0  0  0  0  0
  189.0480  178.4820  145.7910 C   0  0  1  0  0  3  0  0  0  0  0  0
  189.9500  177.7130  139.7860 C   0  0  1  0  0  3  0  0  0  0  0  0
  186.7270  177.7180  146.0010 O   0  0  0  0  0  0  0  0  0  0  0  0
  185.4960  178.2990  140.4950 C   0  0  1  0  0  3  0  0  0  0  0  0
  185.3770  177.8780  141.9590 C   0  0  1  0  0  3  0  0  0  0  0  0
  191.2360  177.5030  140.5950 C   0  0  0  0  0  2  0  0  0  0  0  0
  188.5370  176.5180  138.0570 C   0  0  0  0  0  3  0  0  0  0  0  0
  189.7450  176.6420  138.7540 C   0  0  0  0  0  0  0  0  0  0  0  0
  190.7890  175.7540  138.4800 C   0  0  0  0  0  3  0  0  0  0  0  0
  191.6170  173.8940  137.2420 F   0  0  0  0  0  0  0  0  0  0  0  0
  189.4280  174.6580  136.8510 N   0  0  0  0  0  0  0  0  0  0  0  0
  190.6100  174.7590  137.5160 C   0  0  0  0  0  0  0  0  0  0  0  0
  188.3970  175.5100  137.1010 C   0  0  0  0  0  3  0  0  0  0  0  0
  184.1810  180.1480  139.2830 C   0  0  0  0  0  2  0  0  0  0  0  0
  182.8020  180.4350  138.7190 C   0  0  0  0  0  1  0  0  0  0  0  0
  182.4610  179.0030  144.0970 C   0  0  0  0  0  2  0  0  0  0  0  0
  183.6620  178.5780  143.7150 C   0  0  0  0  0  3  0  0  0  0  0  0
  1 20  1  0  0  0  0
  3 19  1  0  0  0  0
  3  8  1  0  0  0  0
  4 37  1  0  0  0  0
  5 18  1  0  0  0  0
  5  9  1  0  0  0  0
  6 21  1  0  0  0  0
  7  3  1  0  0  0  0
  7 20  1  0  0  0  0
  8 12  1  0  0  0  0
  9  7  1  0  0  0  0
 10  6  1  0  0  0  0
 11  4  1  0  0  0  0
 12 13  1  0  0  0  0
 13 21  1  0  0  0  0
 13 23  1  0  0  0  0
 13 16  1  0  0  0  0
 14 15  2  0  0  0  0
 15 19  1  0  0  0  0
 15 10  1  0  0  0  0
 17 24  1  0  0  0  0
 17 11  1  0  0  0  0
 18 24  1  0  0  0  0
 19  8  1  0  0  0  0
 20 12  1  0  0  0  0
 21  2  1  0  0  0  0
 22  9  1  0  0  0  0
 22 26  1  0  0  0  0
 23 16  1  0  0  0  0
 24 25  1  0  0  0  0
 25  4  1  0  0  0  0
 25  1  1  0  0  0  0
 26 14  1  0  0  0  0
 27 28  1  0  0  0  0
 28 22  1  0  0  0  0
 29 28  2  0  0  0  0
 30 32  1  0  0  0  0
 31 33  1  0  0  0  0
 31 32  2  0  0  0  0
 32 29  1  0  0  0  0
 33 27  2  0  0  0  0
 34 17  1  0  0  0  0
 35 34  1  0  0  0  0
 37 36  2  0  0  0  0
M  END
>  <MODEL>
2

>  <REMARK>
 VINA RESULT:      -6.3      4.653      9.240
  Name = 
  3 active torsions:
  status: ('A' for Active; 'I' for Inactive)
    1  A    between atoms: C_5  and  C_23
    2  A    between atoms: C_6  and  C_31
    3  A    between atoms: C_11  and  C_26
                            x       y       z     vdW  Elec       q    Type
                         _______ _______ _______ _____ _____    ______ ____

>  <TORSDO>
F 3

$$$$
=
 OpenBabel11052415303D

 37 44  0  0  1  0  0  0  0  0999 V2000
  184.6160  178.4630  139.4210 C   0  0  0  0  0  2  0  0  0  0  0  0
  189.0560  179.4390  137.1740 C   0  0  0  0  0  1  0  0  0  0  0  0
  184.6660  175.4580  137.0570 C   0  0  2  0  0  3  0  0  0  0  0  0
  183.8670  178.2600  141.8600 C   0  0  1  0  0  3  0  0  0  0  0  0
  181.5940  177.5530  138.0470 C   0  0  0  0  0  2  0  0  0  0  0  0
  187.7860  177.8780  135.7260 C   0  0  0  0  0  2  0  0  0  0  0  0
  183.9200  176.6240  137.7470 C   0  0  2  0  0  3  0  0  0  0  0  0
  186.1460  175.6570  137.3720 C   0  0  2  0  0  3  0  0  0  0  0  0
  182.7090  177.2630  137.0410 C   0  0  1  0  0  3  0  0  0  0  0  0
  186.4860  178.1460  134.9950 C   0  0  0  0  0  2  0  0  0  0  0  0
  182.7880  179.1330  142.0520 O   0  0  0  0  0  0  0  0  0  0  0  0
  186.2150  176.8700  138.3010 C   0  0  1  0  0  3  0  0  0  0  0  0
  187.5130  177.6660  138.2040 C   0  0  1  0  0  0  0  0  0  0  0  0
  184.2490  177.3540  134.5940 C   0  0  0  0  0  3  0  0  0  0  0  0
  185.4000  177.1390  135.2510 C   0  0  0  0  0  0  0  0  0  0  0  0
  188.6610  177.1240  138.9630 C   0  0  0  0  0  2  0  0  0  0  0  0
  181.7230  178.4960  141.4010 C   0  0  2  0  0  3  0  0  0  0  0  0
  182.0030  178.5080  138.9830 O   0  0  0  0  0  0  0  0  0  0  0  0
  185.6470  175.7910  135.9190 C   0  0  2  0  0  3  0  0  0  0  0  0
  184.9490  177.6690  138.1520 C   0  0  2  0  0  3  0  0  0  0  0  0
  187.7710  178.6320  137.0400 C   0  0  1  0  0  3  0  0  0  0  0  0
  182.1490  176.5610  135.7830 C   0  0  1  0  0  3  0  0  0  0  0  0
  187.8840  178.1980  139.4510 O   0  0  0  0  0  0  0  0  0  0  0  0
  182.2720  177.7860  140.1620 C   0  0  1  0  0  3  0  0  0  0  0  0
  183.7700  177.6880  140.4490 C   0  0  1  0  0  3  0  0  0  0  0  0
  183.1110  176.3730  134.6040 C   0  0  0  0  0  2  0  0  0  0  0  0
  179.9310  175.3930  136.1450 C   0  0  0  0  0  3  0  0  0  0  0  0
  181.3270  175.3330  136.0480 C   0  0  0  0  0  0  0  0  0  0  0  0
  181.9710  174.1020  136.1910 C   0  0  0  0  0  3  0  0  0  0  0  0
  181.8300  171.7540  136.5700 F   0  0  0  0  0  0  0  0  0  0  0  0
  179.8590  173.0360  136.5210 N   0  0  0  0  0  0  0  0  0  0  0  0
  181.2140  172.9530  136.4300 C   0  0  0  0  0  0  0  0  0  0  0  0
  179.2090  174.2230  136.3850 C   0  0  0  0  0  3  0  0  0  0  0  0
  180.5990  179.4890  141.1210 C   0  0  0  0  0  2  0  0  0  0  0  0
  180.0730  180.0670  142.4210 C   0  0  0  0  0  1  0  0  0  0  0  0
  186.1320  178.2530  142.8210 C   0  0  0  0  0  2  0  0  0  0  0  0
  185.1730  178.9220  142.1870 C   0  0  0  0  0  3  0  0  0  0  0  0
  1 25  1  0  0  0  0
  3  8  1  0  0  0  0
  3  7  1  0  0  0  0
  4 11  1  0  0  0  0
  4 37  1  0  0  0  0
  5 18  1  0  0  0  0
  6 21  1  0  0  0  0
  7 20  1  0  0  0  0
  8 12  1  0  0  0  0
  9  7  1  0  0  0  0
  9  5  1  0  0  0  0
 10 15  1  0  0  0  0
 10  6  1  0  0  0  0
 13 12  1  0  0  0  0
 13 16  1  0  0  0  0
 13 23  1  0  0  0  0
 14 26  1  0  0  0  0
 14 15  2  0  0  0  0
 15 19  1  0  0  0  0
 16 23  1  0  0  0  0
 17 11  1  0  0  0  0
 18 24  1  0  0  0  0
 19  3  1  0  0  0  0
 19  8  1  0  0  0  0
 20 12  1  0  0  0  0
 20  1  1  0  0  0  0
 21  2  1  0  0  0  0
 21 13  1  0  0  0  0
 22 28  1  0  0  0  0
 22  9  1  0  0  0  0
 24 25  1  0  0  0  0
 24 17  1  0  0  0  0
 25  4  1  0  0  0  0
 26 22  1  0  0  0  0
 27 33  1  0  0  0  0
 28 27  2  0  0  0  0
 28 29  1  0  0  0  0
 29 32  2  0  0  0  0
 32 31  1  0  0  0  0
 32 30  1  0  0  0  0
 33 31  2  0  0  0  0
 34 17  1  0  0  0  0
 34 35  1  0  0  0  0
 37 36  2  0  0  0  0
M  END
>  <MODEL>
3

>  <REMARK>
 VINA RESULT:      -6.0      3.116      7.400
  Name = 
  3 active torsions:
  status: ('A' for Active; 'I' for Inactive)
    1  A    between atoms: C_5  and  C_23
    2  A    between atoms: C_6  and  C_31
    3  A    between atoms: C_11  and  C_26
                            x       y       z     vdW  Elec       q    Type
                         _______ _______ _______ _____ _____    ______ ____

>  <TORSDO>
F 3

$$$$
=
 OpenBabel11052415303D

 37 44  0  0  1  0  0  0  0  0999 V2000
  186.9310  173.9210  136.7130 C   0  0  0  0  0  2  0  0  0  0  0  0
  191.3220  175.8640  138.3420 C   0  0  0  0  0  1  0  0  0  0  0  0
  186.1880  177.5900  135.9350 C   0  0  2  0  0  3  0  0  0  0  0  0
  186.3140  172.0380  135.0930 C   0  0  1  0  0  3  0  0  0  0  0  0
  183.7020  174.9760  137.2730 C   0  0  0  0  0  2  0  0  0  0  0  0
  189.6590  177.6990  138.2390 C   0  0  0  0  0  2  0  0  0  0  0  0
  185.7530  176.2070  136.4720 C   0  0  2  0  0  3  0  0  0  0  0  0
  187.6930  177.5010  135.7030 C   0  0  2  0  0  3  0  0  0  0  0  0
  184.6630  176.1310  137.5580 C   0  0  1  0  0  3  0  0  0  0  0  0
  188.4010  177.8540  139.0690 C   0  0  0  0  0  2  0  0  0  0  0  0
  185.4610  171.1540  135.7660 O   0  0  0  0  0  0  0  0  0  0  0  0
  188.0790  176.0550  136.0220 C   0  0  1  0  0  3  0  0  0  0  0  0
  189.5070  175.8800  136.5270 C   0  0  1  0  0  0  0  0  0  0  0  0
  186.0250  178.2360  139.0010 C   0  0  0  0  0  3  0  0  0  0  0  0
  187.1440  178.0760  138.2750 C   0  0  0  0  0  0  0  0  0  0  0  0
  190.5600  175.8430  135.4890 C   0  0  0  0  0  2  0  0  0  0  0  0
  184.2440  171.8480  135.8300 C   0  0  2  0  0  3  0  0  0  0  0  0
  184.3650  173.7460  137.3500 O   0  0  0  0  0  0  0  0  0  0  0  0
  187.1420  178.4390  136.7940 C   0  0  2  0  0  3  0  0  0  0  0  0
  187.0040  175.4440  136.8800 C   0  0  2  0  0  3  0  0  0  0  0  0
  189.8890  176.2260  137.9730 C   0  0  1  0  0  3  0  0  0  0  0  0
  183.8860  177.4230  137.8980 C   0  0  1  0  0  3  0  0  0  0  0  0
  190.0620  174.6650  136.0890 O   0  0  0  0  0  0  0  0  0  0  0  0
  184.5490  173.3360  136.0150 C   0  0  1  0  0  3  0  0  0  0  0  0
  186.0070  173.4540  135.5720 C   0  0  1  0  0  3  0  0  0  0  0  0
  184.7080  178.6210  138.3900 C   0  0  0  0  0  2  0  0  0  0  0  0
  182.8870  177.3780  135.5710 C   0  0  0  0  0  3  0  0  0  0  0  0
  182.8400  177.8230  136.8970 C   0  0  0  0  0  0  0  0  0  0  0  0
  181.7920  178.6510  137.3060 C   0  0  0  0  0  3  0  0  0  0  0  0
  179.7890  179.8250  136.7710 F   0  0  0  0  0  0  0  0  0  0  0  0
  180.8770  178.5780  135.1010 N   0  0  0  0  0  0  0  0  0  0  0  0
  180.8100  179.0220  136.3840 C   0  0  0  0  0  0  0  0  0  0  0  0
  181.8880  177.7720  134.6790 C   0  0  0  0  0  3  0  0  0  0  0  0
  183.3420  171.2440  136.9020 C   0  0  0  0  0  2  0  0  0  0  0  0
  181.8840  171.4470  136.5370 C   0  0  0  0  0  1  0  0  0  0  0  0
  188.0680  170.3480  135.4370 C   0  0  0  0  0  2  0  0  0  0  0  0
  187.7500  171.6210  135.2250 C   0  0  0  0  0  3  0  0  0  0  0  0
  1 20  1  0  0  0  0
  3  7  1  0  0  0  0
  3 19  1  0  0  0  0
  4 37  1  0  0  0  0
  4 25  1  0  0  0  0
  4 11  1  0  0  0  0
  5 18  1  0  0  0  0
  5  9  1  0  0  0  0
  6 10  1  0  0  0  0
  7 20  1  0  0  0  0
  7  9  1  0  0  0  0
  8  3  1  0  0  0  0
  8 12  1  0  0  0  0
  8 19  1  0  0  0  0
  9 22  1  0  0  0  0
 11 17  1  0  0  0  0
 12 13  1  0  0  0  0
 12 20  1  0  0  0  0
 13 21  1  0  0  0  0
 15 14  2  0  0  0  0
 15 10  1  0  0  0  0
 16 23  1  0  0  0  0
 16 13  1  0  0  0  0
 17 24  1  0  0  0  0
 17 34  1  0  0  0  0
 19 15  1  0  0  0  0
 21  6  1  0  0  0  0
 21  2  1  0  0  0  0
 22 26  1  0  0  0  0
 23 13  1  0  0  0  0
 24 18  1  0  0  0  0
 25 24  1  0  0  0  0
 25  1  1  0  0  0  0
 26 14  1  0  0  0  0
 27 28  1  0  0  0  0
 28 29  2  0  0  0  0
 28 22  1  0  0  0  0
 31 32  2  0  0  0  0
 32 30  1  0  0  0  0
 32 29  1  0  0  0  0
 33 31  1  0  0  0  0
 33 27  2  0  0  0  0
 35 34  1  0  0  0  0
 37 36  2  0  0  0  0
M  END
>  <MODEL>
4

>  <REMARK>
 VINA RESULT:      -6.0      3.140      6.725
  Name = 
  3 active torsions:
  status: ('A' for Active; 'I' for Inactive)
    1  A    between atoms: C_5  and  C_23
    2  A    between atoms: C_6  and  C_31
    3  A    between atoms: C_11  and  C_26
                            x       y       z     vdW  Elec       q    Type
                         _______ _______ _______ _____ _____    ______ ____

>  <TORSDO>
F 3

$$$$
=
 OpenBabel11052415303D

 37 44  0  0  1  0  0  0  0  0999 V2000
  188.4610  176.4930  138.8580 C   0  0  0  0  0  2  0  0  0  0  0  0
  184.3030  174.5290  136.7210 C   0  0  0  0  0  1  0  0  0  0  0  0
  189.8420  176.1020  135.3140 C   0  0  2  0  0  3  0  0  0  0  0  0
  188.9160  178.5780  140.2710 C   0  0  1  0  0  3  0  0  0  0  0  0
  191.7520  175.5150  138.6020 C   0  0  0  0  0  2  0  0  0  0  0  0
  186.2380  174.0110  135.2600 C   0  0  0  0  0  2  0  0  0  0  0  0
  190.0020  175.9900  136.8470 C   0  0  2  0  0  3  0  0  0  0  0  0
  188.3690  176.4100  135.0630 C   0  0  2  0  0  3  0  0  0  0  0  0
  190.9640  174.9350  137.4260 C   0  0  1  0  0  3  0  0  0  0  0  0
  187.4240  173.1230  135.5780 C   0  0  0  0  0  2  0  0  0  0  0  0
  189.5550  178.1680  141.4480 O   0  0  0  0  0  0  0  0  0  0  0  0
  187.7320  176.5560  136.4470 C   0  0  1  0  0  3  0  0  0  0  0  0
  186.2540  176.1820  136.5030 C   0  0  1  0  0  0  0  0  0  0  0  0
  189.8270  172.9810  135.6220 C   0  0  0  0  0  3  0  0  0  0  0  0
  188.7670  173.7640  135.3630 C   0  0  0  0  0  0  0  0  0  0  0  0
  185.3070  177.2240  136.0510 C   0  0  0  0  0  2  0  0  0  0  0  0
  190.8550  177.8510  141.0300 C   0  0  2  0  0  3  0  0  0  0  0  0
  190.8990  175.8380  139.6630 O   0  0  0  0  0  0  0  0  0  0  0  0
  188.9600  175.0670  134.5940 C   0  0  2  0  0  3  0  0  0  0  0  0
  188.6140  175.8790  137.4600 C   0  0  2  0  0  3  0  0  0  0  0  0
  185.8030  174.7150  136.5280 C   0  0  1  0  0  3  0  0  0  0  0  0
  191.9010  174.1920  136.4470 C   0  0  1  0  0  3  0  0  0  0  0  0
  185.5560  176.9860  137.4210 O   0  0  0  0  0  0  0  0  0  0  0  0
  190.7740  177.2400  139.6290 C   0  0  1  0  0  3  0  0  0  0  0  0
  189.3990  177.6840  139.1320 C   0  0  1  0  0  3  0  0  0  0  0  0
  191.2380  173.3950  135.3170 C   0  0  0  0  0  2  0  0  0  0  0  0
  192.9480  175.9890  135.0020 C   0  0  0  0  0  3  0  0  0  0  0  0
  193.0830  174.9840  135.9680 C   0  0  0  0  0  0  0  0  0  0  0  0
  194.3440  174.7160  136.5060 C   0  0  0  0  0  3  0  0  0  0  0  0
  196.6750  175.2000  136.5890 F   0  0  0  0  0  0  0  0  0  0  0  0
  195.2930  176.4240  135.1330 N   0  0  0  0  0  0  0  0  0  0  0  0
  195.4490  175.4530  136.0720 C   0  0  0  0  0  0  0  0  0  0  0  0
  194.0760  176.7030  134.5940 C   0  0  0  0  0  3  0  0  0  0  0  0
  191.5490  176.9760  142.0680 C   0  0  0  0  0  2  0  0  0  0  0  0
  190.5340  176.4110  143.0430 C   0  0  0  0  0  1  0  0  0  0  0  0
  186.8870  178.6370  141.6610 C   0  0  0  0  0  2  0  0  0  0  0  0
  187.4260  178.6330  140.4460 C   0  0  0  0  0  3  0  0  0  0  0  0
  1 25  1  0  0  0  0
  3  7  1  0  0  0  0
  4 37  1  0  0  0  0
  4 11  1  0  0  0  0
  5 18  1  0  0  0  0
  6 10  1  0  0  0  0
  6 21  1  0  0  0  0
  7  9  1  0  0  0  0
  7 20  1  0  0  0  0
  8  3  1  0  0  0  0
  8 12  1  0  0  0  0
  9  5  1  0  0  0  0
 12 13  1  0  0  0  0
 12 20  1  0  0  0  0
 13 21  1  0  0  0  0
 13 23  1  0  0  0  0
 15 10  1  0  0  0  0
 15 14  2  0  0  0  0
 16 13  1  0  0  0  0
 16 23  1  0  0  0  0
 17 11  1  0  0  0  0
 17 34  1  0  0  0  0
 19  8  1  0  0  0  0
 19  3  1  0  0  0  0
 19 15  1  0  0  0  0
 20  1  1  0  0  0  0
 21  2  1  0  0  0  0
 22  9  1  0  0  0  0
 24 18  1  0  0  0  0
 24 17  1  0  0  0  0
 25 24  1  0  0  0  0
 25  4  1  0  0  0  0
 26 14  1  0  0  0  0
 26 22  1  0  0  0  0
 27 28  1  0  0  0  0
 28 22  1  0  0  0  0
 28 29  2  0  0  0  0
 31 32  2  0  0  0  0
 32 29  1  0  0  0  0
 32 30  1  0  0  0  0
 33 27  2  0  0  0  0
 33 31  1  0  0  0  0
 34 35  1  0  0  0  0
 37 36  2  0  0  0  0
M  END
>  <MODEL>
5

>  <REMARK>
 VINA RESULT:      -6.0      4.822      8.647
  Name = 
  3 active torsions:
  status: ('A' for Active; 'I' for Inactive)
    1  A    between atoms: C_5  and  C_23
    2  A    between atoms: C_6  and  C_31
    3  A    between atoms: C_11  and  C_26
                            x       y       z     vdW  Elec       q    Type
                         _______ _______ _______ _____ _____    ______ ____

>  <TORSDO>
F 3

$$$$
=
 OpenBabel11052415303D

 37 44  0  0  1  0  0  0  0  0999 V2000
  190.5720  177.2180  139.2480 C   0  0  0  0  0  2  0  0  0  0  0  0
  194.6690  176.9640  136.2720 C   0  0  0  0  0  1  0  0  0  0  0  0
  189.4180  174.3230  137.0330 C   0  0  2  0  0  3  0  0  0  0  0  0
  190.2150  177.2160  141.7820 C   0  0  1  0  0  3  0  0  0  0  0  0
  187.2310  177.1680  138.4210 C   0  0  0  0  0  2  0  0  0  0  0  0
  192.8040  175.8120  135.1140 C   0  0  0  0  0  2  0  0  0  0  0  0
  189.1380  175.6440  137.7860 C   0  0  2  0  0  3  0  0  0  0  0  0
  190.9280  174.1110  137.0950 C   0  0  2  0  0  3  0  0  0  0  0  0
  188.0420  176.5910  137.2600 C   0  0  1  0  0  3  0  0  0  0  0  0
  191.5200  176.4260  134.5940 C   0  0  0  0  0  2  0  0  0  0  0  0
  189.4580  178.3480  142.1110 O   0  0  0  0  0  0  0  0  0  0  0  0
  191.4750  175.2560  137.9500 C   0  0  1  0  0  3  0  0  0  0  0  0
  192.9030  175.6710  137.6100 C   0  0  1  0  0  0  0  0  0  0  0  0
  189.1180  176.2720  134.5940 C   0  0  0  0  0  3  0  0  0  0  0  0
  190.2620  175.7500  135.0640 C   0  0  0  0  0  0  0  0  0  0  0  0
  193.9740  174.8350  138.1950 C   0  0  0  0  0  2  0  0  0  0  0  0
  188.1670  178.0260  141.6680 C   0  0  2  0  0  3  0  0  0  0  0  0
  188.0320  177.9720  139.2380 O   0  0  0  0  0  0  0  0  0  0  0  0
  190.2480  174.3820  135.7380 C   0  0  2  0  0  3  0  0  0  0  0  0
  190.4620  176.3690  137.9750 C   0  0  2  0  0  3  0  0  0  0  0  0
  193.2110  176.5360  136.3810 C   0  0  1  0  0  3  0  0  0  0  0  0
  187.1130  176.0720  136.1400 C   0  0  1  0  0  3  0  0  0  0  0  0
  193.6060  176.0770  138.7580 O   0  0  0  0  0  0  0  0  0  0  0  0
  188.2900  177.1990  140.3860 C   0  0  1  0  0  3  0  0  0  0  0  0
  189.7330  176.6970  140.4300 C   0  0  1  0  0  3  0  0  0  0  0  0
  187.7770  175.6360  134.8290 C   0  0  0  0  0  2  0  0  0  0  0  0
  186.3650  173.8310  137.0530 C   0  0  0  0  0  3  0  0  0  0  0  0
  186.0470  175.1120  136.5860 C   0  0  0  0  0  0  0  0  0  0  0  0
  184.7100  175.5130  136.5400 C   0  0  0  0  0  3  0  0  0  0  0  0
  182.4120  175.0090  136.9200 F   0  0  0  0  0  0  0  0  0  0  0  0
  184.0450  173.3900  137.4100 N   0  0  0  0  0  0  0  0  0  0  0  0
  183.7120  174.6290  136.9600 C   0  0  0  0  0  0  0  0  0  0  0  0
  185.3400  172.9770  137.4630 C   0  0  0  0  0  3  0  0  0  0  0  0
  187.3210  179.2880  141.5330 C   0  0  0  0  0  2  0  0  0  0  0  0
  185.8590  178.9700  141.7810 C   0  0  0  0  0  1  0  0  0  0  0  0
  192.1840  178.2060  142.8750 C   0  0  0  0  0  2  0  0  0  0  0  0
  191.6870  177.4980  141.8650 C   0  0  0  0  0  3  0  0  0  0  0  0
  1 25  1  0  0  0  0
  2 21  1  0  0  0  0
  3  8  1  0  0  0  0
  3  7  1  0  0  0  0
  4 37  1  0  0  0  0
  4 11  1  0  0  0  0
  5 18  1  0  0  0  0
  6 21  1  0  0  0  0
  7 20  1  0  0  0  0
  8 12  1  0  0  0  0
  9  7  1  0  0  0  0
  9  5  1  0  0  0  0
 10 15  1  0  0  0  0
 10  6  1  0  0  0  0
 12 20  1  0  0  0  0
 13 12  1  0  0  0  0
 13 16  1  0  0  0  0
 13 23  1  0  0  0  0
 14 26  1  0  0  0  0
 14 15  2  0  0  0  0
 15 19  1  0  0  0  0
 16 23  1  0  0  0  0
 17 11  1  0  0  0  0
 18 24  1  0  0  0  0
 19  3  1  0  0  0  0
 19  8  1  0  0  0  0
 20  1  1  0  0  0  0
 21 13  1  0  0  0  0
 22 28  1  0  0  0  0
 22  9  1  0  0  0  0
 24 25  1  0  0  0  0
 24 17  1  0  0  0  0
 25  4  1  0  0  0  0
 26 22  1  0  0  0  0
 27 33  1  0  0  0  0
 28 27  2  0  0  0  0
 29 28  1  0  0  0  0
 29 32  2  0  0  0  0
 30 32  1  0  0  0  0
 31 33  2  0  0  0  0
 32 31  1  0  0  0  0
 34 17  1  0  0  0  0
 34 35  1  0  0  0  0
 37 36  2  0  0  0  0
M  END
>  <MODEL>
6

>  <REMARK>
 VINA RESULT:      -5.7      3.945      8.917
  Name = 
  3 active torsions:
  status: ('A' for Active; 'I' for Inactive)
    1  A    between atoms: C_5  and  C_23
    2  A    between atoms: C_6  and  C_31
    3  A    between atoms: C_11  and  C_26
                            x       y       z     vdW  Elec       q    Type
                         _______ _______ _______ _____ _____    ______ ____

>  <TORSDO>
F 3

$$$$
=
 OpenBabel11052415303D

 37 44  0  0  1  0  0  0  0  0999 V2000
  184.4250  178.3460  139.2780 C   0  0  0  0  0  2  0  0  0  0  0  0
  188.2850  179.0260  136.0610 C   0  0  0  0  0  1  0  0  0  0  0  0
  183.9310  175.1700  137.2060 C   0  0  2  0  0  3  0  0  0  0  0  0
  184.2180  178.3490  141.8290 C   0  0  1  0  0  3  0  0  0  0  0  0
  181.1680  177.4180  138.6600 C   0  0  0  0  0  2  0  0  0  0  0  0
  186.7160  177.3950  135.0480 C   0  0  0  0  0  2  0  0  0  0  0  0
  183.3640  176.4050  137.9440 C   0  0  2  0  0  3  0  0  0  0  0  0
  185.4460  175.3510  137.1790 C   0  0  2  0  0  3  0  0  0  0  0  0
  182.0360  177.0220  137.4650 C   0  0  1  0  0  3  0  0  0  0  0  0
  185.2920  177.6430  134.5940 C   0  0  0  0  0  2  0  0  0  0  0  0
  183.2150  179.2640  142.1770 O   0  0  0  0  0  0  0  0  0  0  0  0
  185.7270  176.6290  137.9720 C   0  0  1  0  0  3  0  0  0  0  0  0
  186.9820  177.3790  137.5360 C   0  0  1  0  0  0  0  0  0  0  0  0
  183.0120  176.8850  134.7450 C   0  0  0  0  0  3  0  0  0  0  0  0
  184.2750  176.6880  135.1560 C   0  0  0  0  0  0  0  0  0  0  0  0
  188.2610  176.8650  138.0720 C   0  0  0  0  0  2  0  0  0  0  0  0
  182.0270  178.6090  141.8220 C   0  0  2  0  0  3  0  0  0  0  0  0
  181.7800  178.4300  139.4080 O   0  0  0  0  0  0  0  0  0  0  0  0
  184.6470  175.3880  135.8610 C   0  0  2  0  0  3  0  0  0  0  0  0
  184.4670  177.4490  138.0340 C   0  0  2  0  0  3  0  0  0  0  0  0
  186.9930  178.2460  136.2690 C   0  0  1  0  0  3  0  0  0  0  0  0
  181.2110  176.2430  136.4170 C   0  0  1  0  0  3  0  0  0  0  0  0
  187.6190  177.9940  138.6270 O   0  0  0  0  0  0  0  0  0  0  0  0
  182.2880  177.7920  140.5550 C   0  0  1  0  0  3  0  0  0  0  0  0
  183.8120  177.6740  140.5210 C   0  0  1  0  0  3  0  0  0  0  0  0
  181.8930  175.9390  135.0780 C   0  0  0  0  0  2  0  0  0  0  0  0
  179.8400  174.1370  136.0940 C   0  0  0  0  0  3  0  0  0  0  0  0
  180.4520  175.0610  136.9500 C   0  0  0  0  0  0  0  0  0  0  0  0
  180.3640  174.8780  138.3320 C   0  0  0  0  0  3  0  0  0  0  0  0
  179.5760  173.5900  140.1750 F   0  0  0  0  0  0  0  0  0  0  0  0
  179.0800  172.8930  137.9850 N   0  0  0  0  0  0  0  0  0  0  0  0
  179.6660  173.7770  138.8360 C   0  0  0  0  0  0  0  0  0  0  0  0
  179.1520  173.0510  136.6360 C   0  0  0  0  0  3  0  0  0  0  0  0
  180.8810  179.6090  141.7120 C   0  0  0  0  0  2  0  0  0  0  0  0
  179.8350  179.3300  142.7740 C   0  0  0  0  0  1  0  0  0  0  0  0
  186.6710  178.2720  141.9830 C   0  0  0  0  0  2  0  0  0  0  0  0
  185.5710  178.9980  141.8140 C   0  0  0  0  0  3  0  0  0  0  0  0
  1 25  1  0  0  0  0
  2 21  1  0  0  0  0
  3  7  1  0  0  0  0
  4 11  1  0  0  0  0
  5 18  1  0  0  0  0
  6 21  1  0  0  0  0
  7 20  1  0  0  0  0
  8  3  1  0  0  0  0
  8 12  1  0  0  0  0
  9  7  1  0  0  0  0
  9  5  1  0  0  0  0
 10  6  1  0  0  0  0
 10 15  1  0  0  0  0
 12 20  1  0  0  0  0
 13 12  1  0  0  0  0
 13 16  1  0  0  0  0
 13 23  1  0  0  0  0
 14 26  1  0  0  0  0
 14 15  2  0  0  0  0
 15 19  1  0  0  0  0
 16 23  1  0  0  0  0
 17 11  1  0  0  0  0
 18 24  1  0  0  0  0
 19  8  1  0  0  0  0
 19  3  1  0  0  0  0
 20  1  1  0  0  0  0
 21 13  1  0  0  0  0
 22 28  1  0  0  0  0
 22  9  1  0  0  0  0
 24 17  1  0  0  0  0
 25 24  1  0  0  0  0
 25  4  1  0  0  0  0
 26 22  1  0  0  0  0
 27 33  2  0  0  0  0
 27 28  1  0  0  0  0
 28 29  2  0  0  0  0
 29 32  1  0  0  0  0
 31 32  2  0  0  0  0
 32 30  1  0  0  0  0
 33 31  1  0  0  0  0
 34 17  1  0  0  0  0
 34 35  1  0  0  0  0
 37  4  1  0  0  0  0
 37 36  2  0  0  0  0
M  END
>  <MODEL>
7

>  <REMARK>
 VINA RESULT:      -4.8      2.863      6.998
  Name = 
  3 active torsions:
  status: ('A' for Active; 'I' for Inactive)
    1  A    between atoms: C_5  and  C_23
    2  A    between atoms: C_6  and  C_31
    3  A    between atoms: C_11  and  C_26
                            x       y       z     vdW  Elec       q    Type
                         _______ _______ _______ _____ _____    ______ ____

>  <TORSDO>
F 3

$$$$
=
 OpenBabel11052415303D

 37 44  0  0  1  0  0  0  0  0999 V2000
  183.5350  175.5720  136.5460 C   0  0  0  0  0  2  0  0  0  0  0  0
  178.9390  177.5410  135.7010 C   0  0  0  0  0  1  0  0  0  0  0  0
  183.0390  177.2020  139.9690 C   0  0  2  0  0  3  0  0  0  0  0  0
  184.5390  173.2310  136.2890 C   0  0  1  0  0  3  0  0  0  0  0  0
  186.3230  176.9970  137.9750 C   0  0  0  0  0  2  0  0  0  0  0  0
  179.9420  178.7260  137.6340 C   0  0  0  0  0  2  0  0  0  0  0  0
  183.9260  176.8600  138.7490 C   0  0  2  0  0  3  0  0  0  0  0  0
  181.6180  176.7980  139.5850 C   0  0  2  0  0  3  0  0  0  0  0  0
  185.0870  177.8020  138.3780 C   0  0  1  0  0  3  0  0  0  0  0  0
  181.1660  179.6190  137.6360 C   0  0  0  0  0  2  0  0  0  0  0  0
  185.6830  173.3400  135.4880 O   0  0  0  0  0  0  0  0  0  0  0  0
  181.7270  176.1560  138.2010 C   0  0  1  0  0  3  0  0  0  0  0  0
  180.4770  176.3000  137.3390 C   0  0  1  0  0  0  0  0  0  0  0  0
  183.2920  180.0510  138.6790 C   0  0  0  0  0  3  0  0  0  0  0  0
  182.2110  179.2540  138.6530 C   0  0  0  0  0  0  0  0  0  0  0  0
  179.3910  175.3330  137.6100 C   0  0  0  0  0  2  0  0  0  0  0  0
  186.6290  173.9350  136.3350 C   0  0  2  0  0  3  0  0  0  0  0  0
  186.0800  176.2580  136.8120 O   0  0  0  0  0  0  0  0  0  0  0  0
  181.9580  178.2860  139.8040 C   0  0  2  0  0  3  0  0  0  0  0  0
  183.0150  176.5980  137.5600 C   0  0  2  0  0  3  0  0  0  0  0  0
  180.1500  177.6180  136.6230 C   0  0  1  0  0  3  0  0  0  0  0  0
  185.4600  178.9230  139.3740 C   0  0  1  0  0  3  0  0  0  0  0  0
  180.2810  175.1700  136.5250 O   0  0  0  0  0  0  0  0  0  0  0  0
  185.9020  174.9300  137.2430 C   0  0  1  0  0  3  0  0  0  0  0  0
  184.4430  174.4850  137.1530 C   0  0  1  0  0  3  0  0  0  0  0  0
  184.3620  179.9350  139.7270 C   0  0  0  0  0  2  0  0  0  0  0  0
  185.6010  178.2610  141.8150 C   0  0  0  0  0  3  0  0  0  0  0  0
  186.2310  178.4750  140.5820 C   0  0  0  0  0  0  0  0  0  0  0  0
  187.6060  178.2590  140.4680 C   0  0  0  0  0  3  0  0  0  0  0  0
  189.6650  177.6230  141.4850 F   0  0  0  0  0  0  0  0  0  0  0  0
  187.6980  177.6340  142.7720 N   0  0  0  0  0  0  0  0  0  0  0  0
  188.3310  177.8350  141.5850 C   0  0  0  0  0  0  0  0  0  0  0  0
  186.3600  177.8380  142.9080 C   0  0  0  0  0  3  0  0  0  0  0  0
  187.7710  174.5330  135.5210 C   0  0  0  0  0  2  0  0  0  0  0  0
  189.0460  174.5560  136.3430 C   0  0  0  0  0  1  0  0  0  0  0  0
  182.7810  171.7180  135.4690 C   0  0  0  0  0  2  0  0  0  0  0  0
  183.3200  172.9340  135.4660 C   0  0  0  0  0  3  0  0  0  0  0  0
  1 25  1  0  0  0  0
  1 20  1  0  0  0  0
  2 21  1  0  0  0  0
  4 25  1  0  0  0  0
  5  9  1  0  0  0  0
  6 10  1  0  0  0  0
  7  3  1  0  0  0  0
  8 19  1  0  0  0  0
  8  3  1  0  0  0  0
  9  7  1  0  0  0  0
  9 22  1  0  0  0  0
 10 15  1  0  0  0  0
 11  4  1  0  0  0  0
 11 17  1  0  0  0  0
 12  8  1  0  0  0  0
 13 16  1  0  0  0  0
 13 12  1  0  0  0  0
 14 26  1  0  0  0  0
 15 14  2  0  0  0  0
 15 19  1  0  0  0  0
 17 24  1  0  0  0  0
 18 24  1  0  0  0  0
 18  5  1  0  0  0  0
 19  3  1  0  0  0  0
 20 12  1  0  0  0  0
 20  7  1  0  0  0  0
 21 13  1  0  0  0  0
 21  6  1  0  0  0  0
 22 26  1  0  0  0  0
 22 28  1  0  0  0  0
 23 13  1  0  0  0  0
 23 16  1  0  0  0  0
 25 24  1  0  0  0  0
 27 33  1  0  0  0  0
 28 27  2  0  0  0  0
 29 28  1  0  0  0  0
 29 32  2  0  0  0  0
 30 32  1  0  0  0  0
 31 33  2  0  0  0  0
 32 31  1  0  0  0  0
 34 17  1  0  0  0  0
 34 35  1  0  0  0  0
 37 36  2  0  0  0  0
 37  4  1  0  0  0  0
M  END
>  <MODEL>
8

>  <REMARK>
 VINA RESULT:      -4.8      1.952      2.458
  Name = 
  3 active torsions:
  status: ('A' for Active; 'I' for Inactive)
    1  A    between atoms: C_5  and  C_23
    2  A    between atoms: C_6  and  C_31
    3  A    between atoms: C_11  and  C_26
                            x       y       z     vdW  Elec       q    Type
                         _______ _______ _______ _____ _____    ______ ____

>  <TORSDO>
F 3

$$$$
=
 OpenBabel11052415303D

 37 44  0  0  1  0  0  0  0  0999 V2000
  183.9390  175.8850  137.5440 C   0  0  0  0  0  2  0  0  0  0  0  0
  188.9350  176.6790  137.9010 C   0  0  0  0  0  1  0  0  0  0  0  0
  183.7940  179.3790  139.0900 C   0  0  2  0  0  3  0  0  0  0  0  0
  182.3860  175.1770  135.6370 C   0  0  1  0  0  3  0  0  0  0  0  0
  181.4430  176.4300  139.8500 C   0  0  0  0  0  2  0  0  0  0  0  0
  187.7930  178.2570  139.4340 C   0  0  0  0  0  2  0  0  0  0  0  0
  183.2870  177.9220  138.9920 C   0  0  2  0  0  3  0  0  0  0  0  0
  185.0570  179.4470  138.2360 C   0  0  2  0  0  3  0  0  0  0  0  0
  182.6700  177.2560  140.2370 C   0  0  1  0  0  3  0  0  0  0  0  0
  186.9830  177.9220  140.6700 C   0  0  0  0  0  2  0  0  0  0  0  0
  181.6580  174.0600  136.0680 O   0  0  0  0  0  0  0  0  0  0  0  0
  185.2030  178.0640  137.5980 C   0  0  1  0  0  3  0  0  0  0  0  0
  186.6420  177.6590  137.2940 C   0  0  1  0  0  0  0  0  0  0  0  0
  184.8870  178.2530  141.8060 C   0  0  0  0  0  3  0  0  0  0  0  0
  185.6070  178.5260  140.7060 C   0  0  0  0  0  0  0  0  0  0  0  0
  187.2170  178.2040  136.0460 C   0  0  0  0  0  2  0  0  0  0  0  0
  180.7300  174.5950  136.9730 C   0  0  2  0  0  3  0  0  0  0  0  0
  181.8010  175.3630  139.0190 O   0  0  0  0  0  0  0  0  0  0  0  0
  185.1540  179.6360  139.7630 C   0  0  2  0  0  3  0  0  0  0  0  0
  184.4010  177.0730  138.3970 C   0  0  2  0  0  3  0  0  0  0  0  0
  187.5820  177.1680  138.4040 C   0  0  1  0  0  3  0  0  0  0  0  0
  182.3720  178.1470  141.4640 C   0  0  1  0  0  3  0  0  0  0  0  0
  186.7220  176.8830  136.1250 O   0  0  0  0  0  0  0  0  0  0  0  0
  181.4000  175.7470  137.7250 C   0  0  1  0  0  3  0  0  0  0  0  0
  182.5900  176.1020  136.8340 C   0  0  1  0  0  3  0  0  0  0  0  0
  183.5570  178.8940  142.0870 C   0  0  0  0  0  2  0  0  0  0  0  0
  180.0910  178.9170  142.2510 C   0  0  0  0  0  3  0  0  0  0  0  0
  181.1520  179.0150  141.3430 C   0  0  0  0  0  0  0  0  0  0  0  0
  181.0830  179.9470  140.3040 C   0  0  0  0  0  3  0  0  0  0  0  0
  179.8790  181.6720  139.1850 F   0  0  0  0  0  0  0  0  0  0  0  0
  178.9370  180.6510  141.0820 N   0  0  0  0  0  0  0  0  0  0  0  0
  179.9550  180.7640  140.1880 C   0  0  0  0  0  0  0  0  0  0  0  0
  178.9820  179.7510  142.1010 C   0  0  0  0  0  3  0  0  0  0  0  0
  180.1620  173.4960  137.8650 C   0  0  0  0  0  2  0  0  0  0  0  0
  180.7200  172.1460  137.4550 C   0  0  0  0  0  1  0  0  0  0  0  0
  183.8690  173.4970  134.6240 C   0  0  0  0  0  2  0  0  0  0  0  0
  183.6440  174.7720  134.9280 C   0  0  0  0  0  3  0  0  0  0  0  0
  1 20  1  0  0  0  0
  2 21  1  0  0  0  0
  3 19  1  0  0  0  0
  4 11  1  0  0  0  0
  4 25  1  0  0  0  0
  5  9  1  0  0  0  0
  6 10  1  0  0  0  0
  7  3  1  0  0  0  0
  7  9  1  0  0  0  0
  8  3  1  0  0  0  0
  8 19  1  0  0  0  0
  9 22  1  0  0  0  0
 10 15  1  0  0  0  0
 11 17  1  0  0  0  0
 12  8  1  0  0  0  0
 12 20  1  0  0  0  0
 13 12  1  0  0  0  0
 13 21  1  0  0  0  0
 14 26  1  0  0  0  0
 15 14  2  0  0  0  0
 16 23  1  0  0  0  0
 16 13  1  0  0  0  0
 17 24  1  0  0  0  0
 17 34  1  0  0  0  0
 18  5  1  0  0  0  0
 19 15  1  0  0  0  0
 20  7  1  0  0  0  0
 21  6  1  0  0  0  0
 22 26  1  0  0  0  0
 23 13  1  0  0  0  0
 24 18  1  0  0  0  0
 25  1  1  0  0  0  0
 25 24  1  0  0  0  0
 28 22  1  0  0  0  0
 28 27  2  0  0  0  0
 29 28  1  0  0  0  0
 30 32  1  0  0  0  0
 31 33  2  0  0  0  0
 32 29  2  0  0  0  0
 32 31  1  0  0  0  0
 33 27  1  0  0  0  0
 35 34  1  0  0  0  0
 36 37  2  0  0  0  0
 37  4  1  0  0  0  0
M  END
>  <MODEL>
9

>  <REMARK>
 VINA RESULT:      -4.5      2.384      5.838
  Name = 
  3 active torsions:
  status: ('A' for Active; 'I' for Inactive)
    1  A    between atoms: C_5  and  C_23
    2  A    between atoms: C_6  and  C_31
    3  A    between atoms: C_11  and  C_26
                            x       y       z     vdW  Elec       q    Type
                         _______ _______ _______ _____ _____    ______ ____

>  <TORSDO>
F 3

$$$$
