=
 OpenBabel11052416123D

 43 48  0  0  1  0  0  0  0  0999 V2000
  188.5380  178.0380  147.9510 C   0  0  0  0  0  0  0  0  0  0  0  0
  185.7560  178.4430  143.6990 C   0  0  2  0  0  3  0  0  0  0  0  0
  187.5790  178.0910  141.6080 C   0  0  0  0  0  0  0  0  0  0  0  0
  186.6960  178.2240  146.3860 C   0  0  0  0  0  0  0  0  0  0  0  0
  189.3770  177.6050  146.9220 C   0  0  0  0  0  3  0  0  0  0  0  0
  189.0200  178.1570  149.2120 F   0  0  0  0  0  0  0  0  0  0  0  0
  187.5540  177.8210  145.3330 C   0  0  0  0  0  0  0  0  0  0  0  0
  187.2020  178.3490  147.6830 C   0  0  0  0  0  3  0  0  0  0  0  0
  188.8850  177.4890  145.6200 C   0  0  0  0  0  3  0  0  0  0  0  0
  187.9730  177.8880  142.9360 O   0  0  0  0  0  0  0  0  0  0  0  0
  187.0060  177.6060  143.9470 C   0  0  2  0  0  3  0  0  0  0  0  0
  184.7380  178.1230  144.7880 C   0  0  0  0  0  2  0  0  0  0  0  0
  185.2380  178.1120  142.2990 C   0  0  2  0  0  3  0  0  0  0  0  0
  186.3150  178.2090  141.3090 N   0  0  0  0  0  0  0  0  0  0  0  0
  185.2650  178.6310  146.1280 C   0  0  0  0  0  2  0  0  0  0  0  0
  188.6280  178.1790  140.5450 C   0  0  1  0  0  3  0  0  0  0  0  0
  189.9000  177.5090  141.0350 C   0  0  0  0  0  1  0  0  0  0  0  0
  188.1720  177.5460  139.3120 N   0  0  0  0  0  2  0  0  0  0  0  0
  187.8570  178.2800  138.1290 C   0  0  0  0  0  0  0  0  0  0  0  0
  189.0910  178.9390  137.2740 S   0  0  0  0  0  0  0  0  0  0  0  0
  186.4880  178.4120  137.7100 N   0  0  0  0  0  2  0  0  0  0  0  0
  185.7580  177.5590  136.7760 C   0  0  1  0  0  3  0  0  0  0  0  0
  187.1600  174.9340  134.8490 C   0  0  0  0  0  2  0  0  0  0  0  0
  186.6150  177.0720  135.7510 O   0  0  0  0  0  0  0  0  0  0  0  0
  185.1850  176.3030  137.4640 C   0  0  2  0  0  3  0  0  0  0  0  0
  185.6690  175.2150  136.6860 O   0  0  0  0  0  0  0  0  0  0  0  0
  186.5120  175.7000  135.7100 C   0  0  0  0  0  0  0  0  0  0  0  0
  182.9660  176.8970  136.4160 C   0  0  0  0  0  3  0  0  0  0  0  0
  183.6900  176.3200  137.4710 C   0  0  0  0  0  0  0  0  0  0  0  0
  180.9490  175.1070  139.5730 F   0  0  0  0  0  0  0  0  0  0  0  0
  180.8890  176.2780  137.4960 C   0  0  0  0  0  3  0  0  0  0  0  0
  181.6080  175.7060  138.5480 C   0  0  0  0  0  0  0  0  0  0  0  0
  181.5680  176.8770  136.4310 C   0  0  0  0  0  3  0  0  0  0  0  0
  183.0060  175.7230  138.5340 C   0  0  0  0  0  3  0  0  0  0  0  0
  184.1120  179.0630  141.9170 C   0  0  0  0  0  2  0  0  0  0  0  0
  182.1640  179.6010  138.7320 C   0  0  0  0  0  2  0  0  0  0  0  0
  180.9510  179.8350  139.6370 C   0  0  0  0  0  0  0  0  0  0  0  0
  180.6920  181.1910  139.7120 F   0  0  0  0  0  0  0  0  0  0  0  0
  182.0380  178.1620  141.0100 O   0  0  0  0  0  0  0  0  0  0  0  0
  183.4530  179.5930  139.5460 C   0  0  0  0  0  2  0  0  0  0  0  0
  183.3620  178.5640  140.6880 C   0  0  1  0  0  3  0  0  0  0  0  0
  179.8560  179.1950  139.0880 F   0  0  0  0  0  0  0  0  0  0  0  0
  181.2000  179.2960  141.0500 C   0  0  0  0  0  2  0  0  0  0  0  0
  1  6  1  0  0  0  0
  2 11  1  0  0  0  0
  2 12  1  1  0  0  0
  3 10  1  0  0  0  0
  4  8  2  0  0  0  0
  5  1  2  0  0  0  0
  7  9  2  0  0  0  0
  7  4  1  0  0  0  0
  8  1  1  0  0  0  0
  9  5  1  0  0  0  0
 11 10  1  6  0  0  0
 11  7  1  0  0  0  0
 12 15  1  0  0  0  0
 13 35  1  6  0  0  0
 13  2  1  0  0  0  0
 14  3  2  0  0  0  0
 14 13  1  0  0  0  0
 15  4  1  0  0  0  0
 16 17  1  1  0  0  0
 16  3  1  0  0  0  0
 18 16  1  0  0  0  0
 19 18  1  0  0  0  0
 20 19  2  0  0  0  0
 21 19  1  0  0  0  0
 22 25  1  0  0  0  0
 22 21  1  1  0  0  0
 23 27  2  0  0  0  0
 24 22  1  0  0  0  0
 25 29  1  6  0  0  0
 26 25  1  0  0  0  0
 27 24  1  0  0  0  0
 27 26  1  0  0  0  0
 28 33  2  0  0  0  0
 28 29  1  0  0  0  0
 29 34  2  0  0  0  0
 31 32  2  0  0  0  0
 32 30  1  0  0  0  0
 33 31  1  0  0  0  0
 34 32  1  0  0  0  0
 36 40  1  0  0  0  0
 36 37  1  0  0  0  0
 37 38  1  0  0  0  0
 37 43  1  0  0  0  0
 39 43  1  0  0  0  0
 40 41  1  0  0  0  0
 41 39  1  0  0  0  0
 41 35  1  1  0  0  0
 42 37  1  0  0  0  0
M  END
>  <MODEL>
1

>  <REMARK>
 VINA RESULT:      -9.3      0.000      0.000
  Name = 
  8 active torsions:
  status: ('A' for Active; 'I' for Inactive)
    1  A    between atoms: C_1  and  C_34
    2  A    between atoms: C_1  and  C_35
    3  A    between atoms: C_2  and  N_6
    4  A    between atoms: C_2  and  C_13
    5  A    between atoms: N_3  and  C_4
    6  A    between atoms: N_3  and  C_12
    7  A    between atoms: N_6  and  C_12
    8  A    between atoms: C_14  and  C_22
                            x       y       z     vdW  Elec       q    Type
                         _______ _______ _______ _____ _____    ______ ____

>  <TORSDO>
F 8

$$$$
=
 OpenBabel11052416123D

 43 48  0  0  1  0  0  0  0  0999 V2000
  188.2170  177.8670  148.2550 C   0  0  0  0  0  0  0  0  0  0  0  0
  186.7300  178.3860  143.4060 C   0  0  2  0  0  3  0  0  0  0  0  0
  188.9910  177.7500  141.8870 C   0  0  0  0  0  0  0  0  0  0  0  0
  186.8910  178.1830  146.2490 C   0  0  0  0  0  0  0  0  0  0  0  0
  189.2440  177.3020  147.4950 C   0  0  0  0  0  3  0  0  0  0  0  0
  188.3570  177.9870  149.5970 F   0  0  0  0  0  0  0  0  0  0  0  0
  187.9460  177.6450  145.4710 C   0  0  0  0  0  0  0  0  0  0  0  0
  187.0460  178.3090  147.6340 C   0  0  0  0  0  3  0  0  0  0  0  0
  189.1050  177.1830  146.1100 C   0  0  0  0  0  3  0  0  0  0  0  0
  188.9910  177.5620  143.2740 O   0  0  0  0  0  0  0  0  0  0  0  0
  187.7650  177.4310  143.9910 C   0  0  2  0  0  3  0  0  0  0  0  0
  185.4300  178.2250  144.1850 C   0  0  0  0  0  2  0  0  0  0  0  0
  186.5680  178.0530  141.9230 C   0  0  2  0  0  3  0  0  0  0  0  0
  187.8740  177.9900  141.2580 N   0  0  0  0  0  0  0  0  0  0  0  0
  185.6370  178.7310  145.6110 C   0  0  0  0  0  2  0  0  0  0  0  0
  190.2870  177.6780  141.1440 C   0  0  1  0  0  3  0  0  0  0  0  0
  191.4060  177.3420  142.1130 C   0  0  0  0  0  1  0  0  0  0  0  0
  190.2240  176.6760  140.0860 N   0  0  0  0  0  2  0  0  0  0  0  0
  190.7120  176.9050  138.7640 C   0  0  0  0  0  0  0  0  0  0  0  0
  192.2610  176.4880  138.4260 S   0  0  0  0  0  0  0  0  0  0  0  0
  189.8460  177.4760  137.7680 N   0  0  0  0  0  2  0  0  0  0  0  0
  189.1350  176.7750  136.7020 C   0  0  1  0  0  3  0  0  0  0  0  0
  190.5120  174.2800  134.5940 C   0  0  0  0  0  2  0  0  0  0  0  0
  190.0310  176.3430  135.6870 O   0  0  0  0  0  0  0  0  0  0  0  0
  188.4420  175.4940  137.2110 C   0  0  2  0  0  3  0  0  0  0  0  0
  188.9150  174.4640  136.3520 O   0  0  0  0  0  0  0  0  0  0  0  0
  189.8510  174.9920  135.4900 C   0  0  0  0  0  0  0  0  0  0  0  0
  186.3310  176.8540  136.9510 C   0  0  0  0  0  3  0  0  0  0  0  0
  186.9540  175.6090  137.1260 C   0  0  0  0  0  0  0  0  0  0  0  0
  184.0350  173.4010  137.1290 F   0  0  0  0  0  0  0  0  0  0  0  0
  184.1660  175.7710  136.9100 C   0  0  0  0  0  3  0  0  0  0  0  0
  184.7840  174.5310  137.0860 C   0  0  0  0  0  0  0  0  0  0  0  0
  184.9400  176.9350  136.8460 C   0  0  0  0  0  3  0  0  0  0  0  0
  186.1750  174.4490  137.1890 C   0  0  0  0  0  3  0  0  0  0  0  0
  185.7020  179.1030  141.2410 C   0  0  0  0  0  2  0  0  0  0  0  0
  182.6620  179.1600  139.0080 C   0  0  0  0  0  2  0  0  0  0  0  0
  181.8510  178.9100  140.2820 C   0  0  0  0  0  0  0  0  0  0  0  0
  181.2520  180.0910  140.6810 F   0  0  0  0  0  0  0  0  0  0  0  0
  183.8010  177.6160  140.9040 O   0  0  0  0  0  0  0  0  0  0  0  0
  184.1000  179.5340  139.3460 C   0  0  0  0  0  2  0  0  0  0  0  0
  184.7360  178.4620  140.2500 C   0  0  1  0  0  3  0  0  0  0  0  0
  180.8690  177.9760  140.0100 F   0  0  0  0  0  0  0  0  0  0  0  0
  182.7440  178.3960  141.4170 C   0  0  0  0  0  2  0  0  0  0  0  0
  1  6  1  0  0  0  0
  2 11  1  0  0  0  0
  2 12  1  1  0  0  0
  3 10  1  0  0  0  0
  4  8  2  0  0  0  0
  5  1  2  0  0  0  0
  7  9  2  0  0  0  0
  7  4  1  0  0  0  0
  8  1  1  0  0  0  0
  9  5  1  0  0  0  0
 11 10  1  6  0  0  0
 11  7  1  0  0  0  0
 12 15  1  0  0  0  0
 13 35  1  6  0  0  0
 13  2  1  0  0  0  0
 14  3  2  0  0  0  0
 14 13  1  0  0  0  0
 15  4  1  0  0  0  0
 16  3  1  0  0  0  0
 16 17  1  1  0  0  0
 18 16  1  0  0  0  0
 19 18  1  0  0  0  0
 20 19  2  0  0  0  0
 21 19  1  0  0  0  0
 22 25  1  0  0  0  0
 22 21  1  1  0  0  0
 23 27  2  0  0  0  0
 24 22  1  0  0  0  0
 25 29  1  6  0  0  0
 26 25  1  0  0  0  0
 27 24  1  0  0  0  0
 27 26  1  0  0  0  0
 28 29  1  0  0  0  0
 29 34  2  0  0  0  0
 31 32  2  0  0  0  0
 32 30  1  0  0  0  0
 32 34  1  0  0  0  0
 33 31  1  0  0  0  0
 33 28  2  0  0  0  0
 36 40  1  0  0  0  0
 36 37  1  0  0  0  0
 37 38  1  0  0  0  0
 37 43  1  0  0  0  0
 39 43  1  0  0  0  0
 40 41  1  0  0  0  0
 41 39  1  0  0  0  0
 41 35  1  1  0  0  0
 42 37  1  0  0  0  0
M  END
>  <MODEL>
2

>  <REMARK>
 VINA RESULT:      -9.2      1.872      2.398
  Name = 
  8 active torsions:
  status: ('A' for Active; 'I' for Inactive)
    1  A    between atoms: C_1  and  C_34
    2  A    between atoms: C_1  and  C_35
    3  A    between atoms: C_2  and  N_6
    4  A    between atoms: C_2  and  C_13
    5  A    between atoms: N_3  and  C_4
    6  A    between atoms: N_3  and  C_12
    7  A    between atoms: N_6  and  C_12
    8  A    between atoms: C_14  and  C_22
                            x       y       z     vdW  Elec       q    Type
                         _______ _______ _______ _____ _____    ______ ____

>  <TORSDO>
F 8

$$$$
=
 OpenBabel11052416123D

 43 48  0  0  1  0  0  0  0  0999 V2000
  188.3420  177.8720  147.7670 C   0  0  0  0  0  0  0  0  0  0  0  0
  185.7170  178.5110  143.4450 C   0  0  2  0  0  3  0  0  0  0  0  0
  187.5850  178.1170  141.4010 C   0  0  0  0  0  0  0  0  0  0  0  0
  186.5610  178.1850  146.1520 C   0  0  0  0  0  0  0  0  0  0  0  0
  189.1910  177.4220  146.7540 C   0  0  0  0  0  3  0  0  0  0  0  0
  188.7890  177.9380  149.0450 F   0  0  0  0  0  0  0  0  0  0  0  0
  187.4310  177.7630  145.1170 C   0  0  0  0  0  0  0  0  0  0  0  0
  187.0320  178.2550  147.4670 C   0  0  0  0  0  3  0  0  0  0  0  0
  188.7340  177.3590  145.4350 C   0  0  0  0  0  3  0  0  0  0  0  0
  187.9270  177.8640  142.7350 O   0  0  0  0  0  0  0  0  0  0  0  0
  186.9160  177.6080  143.7090 C   0  0  2  0  0  3  0  0  0  0  0  0
  184.6510  178.2160  144.4940 C   0  0  0  0  0  2  0  0  0  0  0  0
  185.2270  178.2380  142.0220 C   0  0  2  0  0  3  0  0  0  0  0  0
  186.3390  178.3040  141.0670 N   0  0  0  0  0  0  0  0  0  0  0  0
  185.1610  178.6680  145.8620 C   0  0  0  0  0  2  0  0  0  0  0  0
  188.6700  178.1760  140.3730 C   0  0  1  0  0  3  0  0  0  0  0  0
  189.9850  177.7520  141.0010 C   0  0  0  0  0  1  0  0  0  0  0  0
  188.3570  177.3160  139.2370 N   0  0  0  0  0  2  0  0  0  0  0  0
  188.0070  177.8210  137.9480 C   0  0  0  0  0  0  0  0  0  0  0  0
  188.9830  178.9480  137.2660 S   0  0  0  0  0  0  0  0  0  0  0  0
  186.8320  177.3300  137.2800 N   0  0  0  0  0  2  0  0  0  0  0  0
  186.7320  176.1690  136.3990 C   0  0  1  0  0  3  0  0  0  0  0  0
  189.4620  174.4340  134.9490 C   0  0  0  0  0  2  0  0  0  0  0  0
  187.8500  176.0930  135.5240 O   0  0  0  0  0  0  0  0  0  0  0  0
  186.7330  174.8420  137.1850 C   0  0  2  0  0  3  0  0  0  0  0  0
  187.7780  174.0770  136.5960 O   0  0  0  0  0  0  0  0  0  0  0  0
  188.4160  174.8440  135.6460 C   0  0  0  0  0  0  0  0  0  0  0  0
  185.3200  172.7520  137.2930 C   0  0  0  0  0  3  0  0  0  0  0  0
  185.4240  174.1320  137.0560 C   0  0  0  0  0  0  0  0  0  0  0  0
  181.9310  174.9430  136.3190 F   0  0  0  0  0  0  0  0  0  0  0  0
  182.9390  172.8520  136.8610 C   0  0  0  0  0  3  0  0  0  0  0  0
  183.0420  174.2250  136.6220 C   0  0  0  0  0  0  0  0  0  0  0  0
  184.0800  172.1140  137.1940 C   0  0  0  0  0  3  0  0  0  0  0  0
  184.2800  174.8640  136.7240 C   0  0  0  0  0  3  0  0  0  0  0  0
  184.1610  179.2520  141.6300 C   0  0  0  0  0  2  0  0  0  0  0  0
  182.4730  176.9600  139.1550 C   0  0  0  0  0  2  0  0  0  0  0  0
  182.5450  178.1350  138.1760 C   0  0  0  0  0  0  0  0  0  0  0  0
  183.5720  177.9160  137.2760 F   0  0  0  0  0  0  0  0  0  0  0  0
  182.2050  179.4360  140.1900 O   0  0  0  0  0  0  0  0  0  0  0  0
  183.3320  177.2260  140.3850 C   0  0  0  0  0  2  0  0  0  0  0  0
  182.9370  178.5630  141.0390 C   0  0  1  0  0  3  0  0  0  0  0  0
  181.3500  178.2160  137.4870 F   0  0  0  0  0  0  0  0  0  0  0  0
  182.8000  179.4560  138.9120 C   0  0  0  0  0  2  0  0  0  0  0  0
  1  6  1  0  0  0  0
  2 11  1  0  0  0  0
  2 12  1  1  0  0  0
  3 10  1  0  0  0  0
  4  8  2  0  0  0  0
  5  1  2  0  0  0  0
  7  9  2  0  0  0  0
  7  4  1  0  0  0  0
  8  1  1  0  0  0  0
  9  5  1  0  0  0  0
 11 10  1  6  0  0  0
 11  7  1  0  0  0  0
 12 15  1  0  0  0  0
 13 35  1  6  0  0  0
 13  2  1  0  0  0  0
 14  3  2  0  0  0  0
 14 13  1  0  0  0  0
 15  4  1  0  0  0  0
 16 17  1  1  0  0  0
 16  3  1  0  0  0  0
 18 16  1  0  0  0  0
 19 18  1  0  0  0  0
 20 19  2  0  0  0  0
 21 19  1  0  0  0  0
 22 25  1  0  0  0  0
 22 21  1  1  0  0  0
 23 27  2  0  0  0  0
 24 27  1  0  0  0  0
 24 22  1  0  0  0  0
 25 29  1  6  0  0  0
 26 25  1  0  0  0  0
 27 26  1  0  0  0  0
 29 28  2  0  0  0  0
 30 32  1  0  0  0  0
 31 33  2  0  0  0  0
 32 34  2  0  0  0  0
 32 31  1  0  0  0  0
 33 28  1  0  0  0  0
 34 29  1  0  0  0  0
 36 40  1  0  0  0  0
 37 43  1  0  0  0  0
 37 36  1  0  0  0  0
 38 37  1  0  0  0  0
 39 41  1  0  0  0  0
 40 41  1  0  0  0  0
 41 35  1  6  0  0  0
 42 37  1  0  0  0  0
 43 39  1  0  0  0  0
M  END
>  <MODEL>
3

>  <REMARK>
 VINA RESULT:      -9.0      1.684      2.120
  Name = 
  8 active torsions:
  status: ('A' for Active; 'I' for Inactive)
    1  A    between atoms: C_1  and  C_34
    2  A    between atoms: C_1  and  C_35
    3  A    between atoms: C_2  and  N_6
    4  A    between atoms: C_2  and  C_13
    5  A    between atoms: N_3  and  C_4
    6  A    between atoms: N_3  and  C_12
    7  A    between atoms: N_6  and  C_12
    8  A    between atoms: C_14  and  C_22
                            x       y       z     vdW  Elec       q    Type
                         _______ _______ _______ _____ _____    ______ ____

>  <TORSDO>
F 8

$$$$
=
 OpenBabel11052416123D

 43 48  0  0  1  0  0  0  0  0999 V2000
  191.6660  176.2600  147.3550 C   0  0  0  0  0  0  0  0  0  0  0  0
  189.3940  177.2640  142.9030 C   0  0  2  0  0  3  0  0  0  0  0  0
  186.7860  178.0140  143.5770 C   0  0  0  0  0  0  0  0  0  0  0  0
  191.2320  176.6640  145.0030 C   0  0  0  0  0  0  0  0  0  0  0  0
  190.4620  176.8830  147.6900 C   0  0  0  0  0  3  0  0  0  0  0  0
  192.4650  175.7630  148.3290 F   0  0  0  0  0  0  0  0  0  0  0  0
  189.9930  177.2630  145.3390 C   0  0  0  0  0  0  0  0  0  0  0  0
  192.0490  176.1490  146.0150 C   0  0  0  0  0  3  0  0  0  0  0  0
  189.6330  177.3900  146.6870 C   0  0  0  0  0  3  0  0  0  0  0  0
  187.7480  177.8150  144.5750 O   0  0  0  0  0  0  0  0  0  0  0  0
  189.1400  177.8920  144.2680 C   0  0  2  0  0  3  0  0  0  0  0  0
  190.8850  177.3620  142.5980 C   0  0  0  0  0  2  0  0  0  0  0  0
  188.5370  178.0060  141.8760 C   0  0  2  0  0  3  0  0  0  0  0  0
  187.1440  178.0900  142.3260 N   0  0  0  0  0  0  0  0  0  0  0  0
  191.6520  176.4660  143.5670 C   0  0  0  0  0  2  0  0  0  0  0  0
  185.3470  178.1290  143.9700 C   0  0  1  0  0  3  0  0  0  0  0  0
  185.2530  178.6070  145.4080 C   0  0  0  0  0  1  0  0  0  0  0  0
  184.6410  179.0520  143.0880 N   0  0  0  0  0  2  0  0  0  0  0  0
  183.4720  178.6880  142.3520 C   0  0  0  0  0  0  0  0  0  0  0  0
  182.0080  179.0210  143.0080 S   0  0  0  0  0  0  0  0  0  0  0  0
  183.6020  178.0600  141.0660 N   0  0  0  0  0  2  0  0  0  0  0  0
  183.3640  178.6600  139.7550 C   0  0  1  0  0  3  0  0  0  0  0  0
  183.9520  177.0950  136.6290 C   0  0  0  0  0  2  0  0  0  0  0  0
  184.2260  178.1020  138.7720 O   0  0  0  0  0  0  0  0  0  0  0  0
  181.9330  178.3930  139.2460 C   0  0  2  0  0  3  0  0  0  0  0  0
  182.1110  177.8190  137.9570 O   0  0  0  0  0  0  0  0  0  0  0  0
  183.4580  177.6480  137.7240 C   0  0  0  0  0  0  0  0  0  0  0  0
  179.8680  179.7630  139.7310 C   0  0  0  0  0  3  0  0  0  0  0  0
  181.1430  179.6590  139.1540 C   0  0  0  0  0  0  0  0  0  0  0  0
  181.5450  183.0440  137.8190 F   0  0  0  0  0  0  0  0  0  0  0  0
  179.7220  182.0700  139.0080 C   0  0  0  0  0  3  0  0  0  0  0  0
  180.9910  181.9670  138.4300 C   0  0  0  0  0  0  0  0  0  0  0  0
  179.1590  180.9660  139.6560 C   0  0  0  0  0  3  0  0  0  0  0  0
  181.7010  180.7660  138.5070 C   0  0  0  0  0  3  0  0  0  0  0  0
  188.5940  177.2940  140.5320 C   0  0  0  0  0  2  0  0  0  0  0  0
  187.6250  178.4380  137.0710 C   0  0  0  0  0  2  0  0  0  0  0  0
  188.7380  177.5140  136.5670 C   0  0  0  0  0  0  0  0  0  0  0  0
  188.1770  176.3590  136.0550 F   0  0  0  0  0  0  0  0  0  0  0  0
  189.8150  178.1960  138.6270 O   0  0  0  0  0  0  0  0  0  0  0  0
  187.3280  178.1750  138.5420 C   0  0  0  0  0  2  0  0  0  0  0  0
  188.6150  178.2920  139.3800 C   0  0  1  0  0  3  0  0  0  0  0  0
  189.4350  178.1610  135.5640 F   0  0  0  0  0  0  0  0  0  0  0  0
  189.7030  177.1400  137.6980 C   0  0  0  0  0  2  0  0  0  0  0  0
  1  5  1  0  0  0  0
  1  6  1  0  0  0  0
  2 12  1  6  0  0  0
  2 11  1  0  0  0  0
  3 16  1  0  0  0  0
  3 10  1  0  0  0  0
  4  7  2  0  0  0  0
  4  8  1  0  0  0  0
  7  9  1  0  0  0  0
  8  1  2  0  0  0  0
  9  5  2  0  0  0  0
 11 10  1  1  0  0  0
 11  7  1  0  0  0  0
 12 15  1  0  0  0  0
 13 35  1  6  0  0  0
 13 14  1  0  0  0  0
 13  2  1  0  0  0  0
 14  3  2  0  0  0  0
 15  4  1  0  0  0  0
 16 17  1  1  0  0  0
 18 16  1  0  0  0  0
 19 20  2  0  0  0  0
 19 18  1  0  0  0  0
 21 19  1  0  0  0  0
 22 21  1  1  0  0  0
 23 27  2  0  0  0  0
 24 22  1  0  0  0  0
 25 29  1  6  0  0  0
 25 22  1  0  0  0  0
 26 25  1  0  0  0  0
 27 26  1  0  0  0  0
 27 24  1  0  0  0  0
 29 28  2  0  0  0  0
 30 32  1  0  0  0  0
 31 33  2  0  0  0  0
 32 34  2  0  0  0  0
 32 31  1  0  0  0  0
 33 28  1  0  0  0  0
 34 29  1  0  0  0  0
 36 40  1  0  0  0  0
 37 36  1  0  0  0  0
 37 43  1  0  0  0  0
 38 37  1  0  0  0  0
 39 41  1  0  0  0  0
 40 41  1  0  0  0  0
 41 35  1  1  0  0  0
 42 37  1  0  0  0  0
 43 39  1  0  0  0  0
M  END
>  <MODEL>
4

>  <REMARK>
 VINA RESULT:      -9.0      3.123      5.623
  Name = 
  8 active torsions:
  status: ('A' for Active; 'I' for Inactive)
    1  A    between atoms: C_1  and  C_34
    2  A    between atoms: C_1  and  C_35
    3  A    between atoms: C_2  and  N_6
    4  A    between atoms: C_2  and  C_13
    5  A    between atoms: N_3  and  C_4
    6  A    between atoms: N_3  and  C_12
    7  A    between atoms: N_6  and  C_12
    8  A    between atoms: C_14  and  C_22
                            x       y       z     vdW  Elec       q    Type
                         _______ _______ _______ _____ _____    ______ ____

>  <TORSDO>
F 8

$$$$
=
 OpenBabel11052416123D

 43 48  0  0  1  0  0  0  0  0999 V2000
  188.0680  178.0100  148.2280 C   0  0  0  0  0  0  0  0  0  0  0  0
  186.1440  178.4720  143.5300 C   0  0  2  0  0  3  0  0  0  0  0  0
  188.2740  177.8810  141.8170 C   0  0  0  0  0  0  0  0  0  0  0  0
  186.5620  178.2860  146.3480 C   0  0  0  0  0  0  0  0  0  0  0  0
  189.0360  177.4660  147.3810 C   0  0  0  0  0  3  0  0  0  0  0  0
  188.3240  178.1400  149.5520 F   0  0  0  0  0  0  0  0  0  0  0  0
  187.5550  177.7680  145.4800 C   0  0  0  0  0  0  0  0  0  0  0  0
  186.8360  178.4210  147.7120 C   0  0  0  0  0  3  0  0  0  0  0  0
  188.7770  177.3370  146.0140 C   0  0  0  0  0  3  0  0  0  0  0  0
  188.4030  177.7000  143.1990 O   0  0  0  0  0  0  0  0  0  0  0  0
  187.2480  177.5440  144.0230 C   0  0  2  0  0  3  0  0  0  0  0  0
  184.9230  178.2840  144.4220 C   0  0  0  0  0  2  0  0  0  0  0  0
  185.8580  178.1280  142.0680 C   0  0  2  0  0  3  0  0  0  0  0  0
  187.1000  178.0930  141.2890 N   0  0  0  0  0  0  0  0  0  0  0  0
  185.2440  178.8010  145.8230 C   0  0  0  0  0  2  0  0  0  0  0  0
  189.5010  177.8360  140.9620 C   0  0  1  0  0  3  0  0  0  0  0  0
  190.6230  177.1550  141.7240 C   0  0  0  0  0  1  0  0  0  0  0  0
  189.2380  177.1240  139.7150 N   0  0  0  0  0  2  0  0  0  0  0  0
  189.8780  177.4500  138.4810 C   0  0  0  0  0  0  0  0  0  0  0  0
  189.0490  178.3510  137.3920 S   0  0  0  0  0  0  0  0  0  0  0  0
  191.2200  176.9980  138.2280 N   0  0  0  0  0  2  0  0  0  0  0  0
  191.6600  175.6340  137.9470 C   0  0  1  0  0  3  0  0  0  0  0  0
  189.7600  173.1550  136.2690 C   0  0  0  0  0  2  0  0  0  0  0  0
  190.5520  174.7470  137.8560 O   0  0  0  0  0  0  0  0  0  0  0  0
  192.3840  175.5260  136.5890 C   0  0  2  0  0  3  0  0  0  0  0  0
  191.6960  174.4930  135.8960 O   0  0  0  0  0  0  0  0  0  0  0  0
  190.6260  174.0770  136.6570 C   0  0  0  0  0  0  0  0  0  0  0  0
  194.7650  175.4160  135.7550 C   0  0  0  0  0  3  0  0  0  0  0  0
  193.8250  175.1700  136.7680 C   0  0  0  0  0  0  0  0  0  0  0  0
  195.9970  173.7710  139.3620 F   0  0  0  0  0  0  0  0  0  0  0  0
  196.5260  174.5420  137.1690 C   0  0  0  0  0  3  0  0  0  0  0  0
  195.5920  174.2940  138.1770 C   0  0  0  0  0  0  0  0  0  0  0  0
  196.1120  175.1010  135.9550 C   0  0  0  0  0  3  0  0  0  0  0  0
  194.2450  174.6120  137.9800 C   0  0  0  0  0  3  0  0  0  0  0  0
  184.9100  179.1540  141.4630 C   0  0  0  0  0  2  0  0  0  0  0  0
  182.3880  179.3590  138.6650 C   0  0  0  0  0  2  0  0  0  0  0  0
  181.3220  179.3210  139.7630 C   0  0  0  0  0  0  0  0  0  0  0  0
  180.8180  180.5930  139.9550 F   0  0  0  0  0  0  0  0  0  0  0  0
  182.9320  177.8720  140.8480 O   0  0  0  0  0  0  0  0  0  0  0  0
  183.7710  179.5940  139.2600 C   0  0  0  0  0  2  0  0  0  0  0  0
  184.0770  178.5420  140.3420 C   0  0  1  0  0  3  0  0  0  0  0  0
  180.2980  178.4850  139.3610 F   0  0  0  0  0  0  0  0  0  0  0  0
  181.9060  178.8110  141.0860 C   0  0  0  0  0  2  0  0  0  0  0  0
  1  6  1  0  0  0  0
  2 11  1  0  0  0  0
  2 12  1  1  0  0  0
  3 10  1  0  0  0  0
  4  8  2  0  0  0  0
  5  1  2  0  0  0  0
  7  9  2  0  0  0  0
  7  4  1  0  0  0  0
  8  1  1  0  0  0  0
  9  5  1  0  0  0  0
 11 10  1  6  0  0  0
 11  7  1  0  0  0  0
 12 15  1  0  0  0  0
 13 35  1  6  0  0  0
 13  2  1  0  0  0  0
 14  3  2  0  0  0  0
 14 13  1  0  0  0  0
 15  4  1  0  0  0  0
 16 17  1  1  0  0  0
 16  3  1  0  0  0  0
 18 16  1  0  0  0  0
 19 18  1  0  0  0  0
 20 19  2  0  0  0  0
 21 19  1  0  0  0  0
 22 21  1  6  0  0  0
 23 27  2  0  0  0  0
 24 22  1  0  0  0  0
 25 29  1  1  0  0  0
 25 22  1  0  0  0  0
 26 25  1  0  0  0  0
 26 27  1  0  0  0  0
 27 24  1  0  0  0  0
 28 33  2  0  0  0  0
 28 29  1  0  0  0  0
 29 34  2  0  0  0  0
 31 32  2  0  0  0  0
 32 30  1  0  0  0  0
 33 31  1  0  0  0  0
 34 32  1  0  0  0  0
 36 40  1  0  0  0  0
 36 37  1  0  0  0  0
 37 38  1  0  0  0  0
 37 43  1  0  0  0  0
 39 43  1  0  0  0  0
 40 41  1  0  0  0  0
 41 39  1  0  0  0  0
 41 35  1  1  0  0  0
 42 37  1  0  0  0  0
M  END
>  <MODEL>
5

>  <REMARK>
 VINA RESULT:      -9.0      3.874      5.894
  Name = 
  8 active torsions:
  status: ('A' for Active; 'I' for Inactive)
    1  A    between atoms: C_1  and  C_34
    2  A    between atoms: C_1  and  C_35
    3  A    between atoms: C_2  and  N_6
    4  A    between atoms: C_2  and  C_13
    5  A    between atoms: N_3  and  C_4
    6  A    between atoms: N_3  and  C_12
    7  A    between atoms: N_6  and  C_12
    8  A    between atoms: C_14  and  C_22
                            x       y       z     vdW  Elec       q    Type
                         _______ _______ _______ _____ _____    ______ ____

>  <TORSDO>
F 8

$$$$
=
 OpenBabel11052416123D

 43 48  0  0  1  0  0  0  0  0999 V2000
  188.0010  177.8940  148.1990 C   0  0  0  0  0  0  0  0  0  0  0  0
  186.4020  178.4660  143.3930 C   0  0  2  0  0  3  0  0  0  0  0  0
  188.6420  177.9040  141.8160 C   0  0  0  0  0  0  0  0  0  0  0  0
  186.6270  178.2170  146.2280 C   0  0  0  0  0  0  0  0  0  0  0  0
  189.0230  177.3640  147.4080 C   0  0  0  0  0  3  0  0  0  0  0  0
  188.1670  177.9940  149.5400 F   0  0  0  0  0  0  0  0  0  0  0  0
  187.6750  177.7140  145.4190 C   0  0  0  0  0  0  0  0  0  0  0  0
  186.8080  178.3220  147.6110 C   0  0  0  0  0  3  0  0  0  0  0  0
  188.8570  177.2660  146.0250 C   0  0  0  0  0  3  0  0  0  0  0  0
  188.6760  177.6920  143.1990 O   0  0  0  0  0  0  0  0  0  0  0  0
  187.4670  177.5230  143.9390 C   0  0  2  0  0  3  0  0  0  0  0  0
  185.1220  178.2640  144.1960 C   0  0  0  0  0  2  0  0  0  0  0  0
  186.2150  178.1560  141.9070 C   0  0  2  0  0  3  0  0  0  0  0  0
  187.5070  178.1320  141.2140 N   0  0  0  0  0  0  0  0  0  0  0  0
  185.3490  178.7500  145.6260 C   0  0  0  0  0  2  0  0  0  0  0  0
  189.9230  177.8710  141.0450 C   0  0  1  0  0  3  0  0  0  0  0  0
  191.0660  177.5160  141.9800 C   0  0  0  0  0  1  0  0  0  0  0  0
  189.8490  176.9050  139.9550 N   0  0  0  0  0  2  0  0  0  0  0  0
  190.3310  177.1750  138.6380 C   0  0  0  0  0  0  0  0  0  0  0  0
  189.3220  177.9150  137.5800 S   0  0  0  0  0  0  0  0  0  0  0  0
  191.6740  176.8090  138.2770 N   0  0  0  0  0  2  0  0  0  0  0  0
  192.0930  175.9450  137.1760 C   0  0  1  0  0  3  0  0  0  0  0  0
  195.4160  174.8940  136.5260 C   0  0  0  0  0  2  0  0  0  0  0  0
  193.4430  176.2010  136.8100 O   0  0  0  0  0  0  0  0  0  0  0  0
  192.0480  174.4520  137.5610 C   0  0  2  0  0  3  0  0  0  0  0  0
  193.3490  173.9630  137.2580 O   0  0  0  0  0  0  0  0  0  0  0  0
  194.1370  175.0130  136.8410 C   0  0  0  0  0  0  0  0  0  0  0  0
  191.3650  172.9430  135.6540 C   0  0  0  0  0  3  0  0  0  0  0  0
  191.0130  173.7170  136.7710 C   0  0  0  0  0  0  0  0  0  0  0  0
  187.4010  173.1280  136.8730 F   0  0  0  0  0  0  0  0  0  0  0  0
  189.0480  172.3080  135.3560 C   0  0  0  0  0  3  0  0  0  0  0  0
  188.6950  173.0800  136.4650 C   0  0  0  0  0  0  0  0  0  0  0  0
  190.3840  172.2420  134.9480 C   0  0  0  0  0  3  0  0  0  0  0  0
  189.6750  173.7790  137.1740 C   0  0  0  0  0  3  0  0  0  0  0  0
  185.3130  179.1990  141.2620 C   0  0  0  0  0  2  0  0  0  0  0  0
  182.3500  179.2770  138.9300 C   0  0  0  0  0  2  0  0  0  0  0  0
  181.4930  179.0590  140.1800 C   0  0  0  0  0  0  0  0  0  0  0  0
  180.9020  180.2550  140.5440 F   0  0  0  0  0  0  0  0  0  0  0  0
  183.3990  177.7410  140.8820 O   0  0  0  0  0  0  0  0  0  0  0  0
  183.7820  179.6320  139.3110 C   0  0  0  0  0  2  0  0  0  0  0  0
  184.3700  178.5610  140.2490 C   0  0  1  0  0  3  0  0  0  0  0  0
  180.5050  178.1370  139.8880 F   0  0  0  0  0  0  0  0  0  0  0  0
  182.3390  178.5440  141.3500 C   0  0  0  0  0  2  0  0  0  0  0  0
  1  6  1  0  0  0  0
  2 11  1  0  0  0  0
  2 12  1  1  0  0  0
  3 10  1  0  0  0  0
  4  8  2  0  0  0  0
  5  1  2  0  0  0  0
  7  9  2  0  0  0  0
  7  4  1  0  0  0  0
  8  1  1  0  0  0  0
  9  5  1  0  0  0  0
 11 10  1  6  0  0  0
 11  7  1  0  0  0  0
 12 15  1  0  0  0  0
 13 35  1  6  0  0  0
 13  2  1  0  0  0  0
 14  3  2  0  0  0  0
 14 13  1  0  0  0  0
 15  4  1  0  0  0  0
 16  3  1  0  0  0  0
 16 17  1  1  0  0  0
 18 16  1  0  0  0  0
 19 18  1  0  0  0  0
 20 19  2  0  0  0  0
 21 19  1  0  0  0  0
 22 25  1  0  0  0  0
 22 21  1  1  0  0  0
 23 27  2  0  0  0  0
 24 27  1  0  0  0  0
 24 22  1  0  0  0  0
 25 29  1  6  0  0  0
 26 25  1  0  0  0  0
 27 26  1  0  0  0  0
 28 29  1  0  0  0  0
 29 34  2  0  0  0  0
 31 32  2  0  0  0  0
 32 30  1  0  0  0  0
 32 34  1  0  0  0  0
 33 31  1  0  0  0  0
 33 28  2  0  0  0  0
 36 40  1  0  0  0  0
 36 37  1  0  0  0  0
 37 38  1  0  0  0  0
 37 43  1  0  0  0  0
 39 43  1  0  0  0  0
 40 41  1  0  0  0  0
 41 39  1  0  0  0  0
 41 35  1  1  0  0  0
 42 37  1  0  0  0  0
M  END
>  <MODEL>
6

>  <REMARK>
 VINA RESULT:      -8.9      3.217      4.577
  Name = 
  8 active torsions:
  status: ('A' for Active; 'I' for Inactive)
    1  A    between atoms: C_1  and  C_34
    2  A    between atoms: C_1  and  C_35
    3  A    between atoms: C_2  and  N_6
    4  A    between atoms: C_2  and  C_13
    5  A    between atoms: N_3  and  C_4
    6  A    between atoms: N_3  and  C_12
    7  A    between atoms: N_6  and  C_12
    8  A    between atoms: C_14  and  C_22
                            x       y       z     vdW  Elec       q    Type
                         _______ _______ _______ _____ _____    ______ ____

>  <TORSDO>
F 8

$$$$
=
 OpenBabel11052416123D

 43 48  0  0  1  0  0  0  0  0999 V2000
  188.0460  177.7860  147.8700 C   0  0  0  0  0  0  0  0  0  0  0  0
  186.1370  178.5870  143.2120 C   0  0  2  0  0  3  0  0  0  0  0  0
  188.2180  177.9410  141.4590 C   0  0  0  0  0  0  0  0  0  0  0  0
  186.5530  178.2450  146.0150 C   0  0  0  0  0  0  0  0  0  0  0  0
  188.9730  177.2210  146.9930 C   0  0  0  0  0  3  0  0  0  0  0  0
  188.3140  177.8380  149.1970 F   0  0  0  0  0  0  0  0  0  0  0  0
  187.5080  177.7050  145.1180 C   0  0  0  0  0  0  0  0  0  0  0  0
  186.8410  178.3000  147.3830 C   0  0  0  0  0  3  0  0  0  0  0  0
  188.7010  177.1720  145.6230 C   0  0  0  0  0  3  0  0  0  0  0  0
  188.3400  177.6880  142.8310 O   0  0  0  0  0  0  0  0  0  0  0  0
  187.1810  177.5680  143.6540 C   0  0  2  0  0  3  0  0  0  0  0  0
  184.9100  178.4370  144.1030 C   0  0  0  0  0  2  0  0  0  0  0  0
  185.8240  178.3300  141.7370 C   0  0  2  0  0  3  0  0  0  0  0  0
  187.0590  178.2510  140.9490 N   0  0  0  0  0  0  0  0  0  0  0  0
  185.2690  178.8680  145.5230 C   0  0  0  0  0  2  0  0  0  0  0  0
  189.4360  177.8560  140.5940 C   0  0  1  0  0  3  0  0  0  0  0  0
  190.5380  177.1300  141.3440 C   0  0  0  0  0  1  0  0  0  0  0  0
  189.1390  177.1610  139.3460 N   0  0  0  0  0  2  0  0  0  0  0  0
  189.6200  177.6000  138.0750 C   0  0  0  0  0  0  0  0  0  0  0  0
  189.0550  179.0190  137.4800 S   0  0  0  0  0  0  0  0  0  0  0  0
  190.5840  176.8080  137.3600 N   0  0  0  0  0  2  0  0  0  0  0  0
  190.3220  175.6700  136.4820 C   0  0  1  0  0  3  0  0  0  0  0  0
  192.4190  172.8390  136.0890 C   0  0  0  0  0  2  0  0  0  0  0  0
  191.5350  175.0520  136.0700 O   0  0  0  0  0  0  0  0  0  0  0  0
  189.5160  174.5630  137.1910 C   0  0  2  0  0  3  0  0  0  0  0  0
  190.2880  173.3820  137.0070 O   0  0  0  0  0  0  0  0  0  0  0  0
  191.4640  173.7100  136.3670 C   0  0  0  0  0  0  0  0  0  0  0  0
  187.6240  175.3850  135.7350 C   0  0  0  0  0  3  0  0  0  0  0  0
  188.1590  174.4030  136.5830 C   0  0  0  0  0  0  0  0  0  0  0  0
  185.4710  171.9200  136.5040 F   0  0  0  0  0  0  0  0  0  0  0  0
  185.6370  174.0360  135.4190 C   0  0  0  0  0  3  0  0  0  0  0  0
  186.1680  173.0590  136.2650 C   0  0  0  0  0  0  0  0  0  0  0  0
  186.3650  175.2020  135.1560 C   0  0  0  0  0  3  0  0  0  0  0  0
  187.4280  173.2400  136.8420 C   0  0  0  0  0  3  0  0  0  0  0  0
  184.9420  179.4420  141.1860 C   0  0  0  0  0  2  0  0  0  0  0  0
  182.9740  176.7200  139.4700 C   0  0  0  0  0  2  0  0  0  0  0  0
  183.6570  177.1840  138.1800 C   0  0  0  0  0  0  0  0  0  0  0  0
  184.6650  176.2970  137.8510 F   0  0  0  0  0  0  0  0  0  0  0  0
  183.4860  179.3580  139.2350 O   0  0  0  0  0  0  0  0  0  0  0  0
  183.6400  177.3450  140.6900 C   0  0  0  0  0  2  0  0  0  0  0  0
  183.6720  178.8790  140.5590 C   0  0  1  0  0  3  0  0  0  0  0  0
  182.7220  177.2020  137.1620 F   0  0  0  0  0  0  0  0  0  0  0  0
  184.2590  178.5850  138.3430 C   0  0  0  0  0  2  0  0  0  0  0  0
  1  6  1  0  0  0  0
  2 11  1  0  0  0  0
  2 12  1  1  0  0  0
  3 10  1  0  0  0  0
  4  8  2  0  0  0  0
  5  1  2  0  0  0  0
  7  9  2  0  0  0  0
  7  4  1  0  0  0  0
  8  1  1  0  0  0  0
  9  5  1  0  0  0  0
 11 10  1  6  0  0  0
 11  7  1  0  0  0  0
 12 15  1  0  0  0  0
 13 35  1  6  0  0  0
 13  2  1  0  0  0  0
 14  3  2  0  0  0  0
 14 13  1  0  0  0  0
 15  4  1  0  0  0  0
 16 17  1  1  0  0  0
 16  3  1  0  0  0  0
 18 16  1  0  0  0  0
 19 18  1  0  0  0  0
 20 19  2  0  0  0  0
 21 19  1  0  0  0  0
 22 25  1  0  0  0  0
 22 21  1  1  0  0  0
 23 27  2  0  0  0  0
 24 27  1  0  0  0  0
 24 22  1  0  0  0  0
 25 29  1  6  0  0  0
 26 25  1  0  0  0  0
 27 26  1  0  0  0  0
 28 29  1  0  0  0  0
 29 34  2  0  0  0  0
 31 32  2  0  0  0  0
 32 30  1  0  0  0  0
 32 34  1  0  0  0  0
 33 31  1  0  0  0  0
 33 28  2  0  0  0  0
 36 40  1  0  0  0  0
 37 43  1  0  0  0  0
 37 36  1  0  0  0  0
 38 37  1  0  0  0  0
 39 41  1  0  0  0  0
 41 40  1  0  0  0  0
 41 35  1  6  0  0  0
 42 37  1  0  0  0  0
 43 39  1  0  0  0  0
M  END
>  <MODEL>
7

>  <REMARK>
 VINA RESULT:      -8.8      2.485      3.477
  Name = 
  8 active torsions:
  status: ('A' for Active; 'I' for Inactive)
    1  A    between atoms: C_1  and  C_34
    2  A    between atoms: C_1  and  C_35
    3  A    between atoms: C_2  and  N_6
    4  A    between atoms: C_2  and  C_13
    5  A    between atoms: N_3  and  C_4
    6  A    between atoms: N_3  and  C_12
    7  A    between atoms: N_6  and  C_12
    8  A    between atoms: C_14  and  C_22
                            x       y       z     vdW  Elec       q    Type
                         _______ _______ _______ _____ _____    ______ ____

>  <TORSDO>
F 8

$$$$
=
 OpenBabel11052416123D

 43 48  0  0  1  0  0  0  0  0999 V2000
  191.0690  176.3940  147.0000 C   0  0  0  0  0  0  0  0  0  0  0  0
  189.5740  177.4750  142.2480 C   0  0  2  0  0  3  0  0  0  0  0  0
  186.8580  178.1050  142.4720 C   0  0  0  0  0  0  0  0  0  0  0  0
  191.0380  176.8670  144.6220 C   0  0  0  0  0  0  0  0  0  0  0  0
  189.7990  176.9600  147.1360 C   0  0  0  0  0  3  0  0  0  0  0  0
  191.7050  175.8910  148.0860 F   0  0  0  0  0  0  0  0  0  0  0  0
  189.7350  177.4080  144.7500 C   0  0  0  0  0  0  0  0  0  0  0  0
  191.6850  176.3450  145.7470 C   0  0  0  0  0  3  0  0  0  0  0  0
  189.1390  177.4730  146.0170 C   0  0  0  0  0  3  0  0  0  0  0  0
  187.6380  177.9050  143.6180 O   0  0  0  0  0  0  0  0  0  0  0  0
  189.0570  178.0440  143.5650 C   0  0  2  0  0  3  0  0  0  0  0  0
  191.0900  177.6390  142.2150 C   0  0  0  0  0  2  0  0  0  0  0  0
  188.8800  178.2220  141.1080 C   0  0  2  0  0  3  0  0  0  0  0  0
  187.4270  178.2390  141.3060 N   0  0  0  0  0  0  0  0  0  0  0  0
  191.7120  176.7360  143.2780 C   0  0  0  0  0  2  0  0  0  0  0  0
  185.3700  178.1540  142.6070 C   0  0  1  0  0  3  0  0  0  0  0  0
  185.0050  178.6090  144.0080 C   0  0  0  0  0  1  0  0  0  0  0  0
  184.7880  179.0560  141.6200 N   0  0  0  0  0  2  0  0  0  0  0  0
  183.9720  178.6080  140.5380 C   0  0  0  0  0  0  0  0  0  0  0  0
  184.5490  178.7670  139.0120 S   0  0  0  0  0  0  0  0  0  0  0  0
  182.6850  178.0240  140.8040 N   0  0  0  0  0  2  0  0  0  0  0  0
  181.3770  178.5330  140.3990 C   0  0  1  0  0  3  0  0  0  0  0  0
  179.0390  180.1430  142.5220 C   0  0  0  0  0  2  0  0  0  0  0  0
  180.4690  178.5380  141.4930 O   0  0  0  0  0  0  0  0  0  0  0  0
  181.4480  179.9970  139.9170 C   0  0  2  0  0  3  0  0  0  0  0  0
  180.4760  180.6800  140.6990 O   0  0  0  0  0  0  0  0  0  0  0  0
  179.9400  179.8030  141.6170 C   0  0  0  0  0  0  0  0  0  0  0  0
  180.8400  178.9680  137.6930 C   0  0  0  0  0  3  0  0  0  0  0  0
  181.1240  180.1070  138.4620 C   0  0  0  0  0  0  0  0  0  0  0  0
  180.6820  182.7310  135.9480 F   0  0  0  0  0  0  0  0  0  0  0  0
  180.4630  180.3650  135.7510 C   0  0  0  0  0  3  0  0  0  0  0  0
  180.7490  181.5000  136.5150 C   0  0  0  0  0  0  0  0  0  0  0  0
  180.5120  179.0970  136.3400 C   0  0  0  0  0  3  0  0  0  0  0  0
  181.0740  181.3720  137.8680 C   0  0  0  0  0  3  0  0  0  0  0  0
  189.2030  177.5620  139.7750 C   0  0  0  0  0  2  0  0  0  0  0  0
  187.4220  176.7330  136.5550 C   0  0  0  0  0  2  0  0  0  0  0  0
  188.3480  177.7610  135.9000 C   0  0  0  0  0  0  0  0  0  0  0  0
  189.3470  177.1000  135.2080 F   0  0  0  0  0  0  0  0  0  0  0  0
  188.1160  178.8770  138.0360 O   0  0  0  0  0  0  0  0  0  0  0  0
  187.8930  176.4000  137.9650 C   0  0  0  0  0  2  0  0  0  0  0  0
  188.0350  177.6840  138.8030 C   0  0  1  0  0  3  0  0  0  0  0  0
  187.6130  178.5230  135.0120 F   0  0  0  0  0  0  0  0  0  0  0  0
  188.9900  178.6780  136.9480 C   0  0  0  0  0  2  0  0  0  0  0  0
  1  5  1  0  0  0  0
  1  6  1  0  0  0  0
  2 12  1  6  0  0  0
  2 11  1  0  0  0  0
  3 16  1  0  0  0  0
  3 10  1  0  0  0  0
  4  7  2  0  0  0  0
  4  8  1  0  0  0  0
  7  9  1  0  0  0  0
  8  1  2  0  0  0  0
  9  5  2  0  0  0  0
 11 10  1  1  0  0  0
 11  7  1  0  0  0  0
 12 15  1  0  0  0  0
 13 35  1  6  0  0  0
 13 14  1  0  0  0  0
 13  2  1  0  0  0  0
 14  3  2  0  0  0  0
 15  4  1  0  0  0  0
 16 17  1  1  0  0  0
 18 16  1  0  0  0  0
 19 21  1  0  0  0  0
 19 18  1  0  0  0  0
 20 19  2  0  0  0  0
 22 21  1  1  0  0  0
 22 24  1  0  0  0  0
 24 27  1  0  0  0  0
 25 29  1  6  0  0  0
 25 22  1  0  0  0  0
 25 26  1  0  0  0  0
 26 27  1  0  0  0  0
 27 23  2  0  0  0  0
 28 29  1  0  0  0  0
 30 32  1  0  0  0  0
 31 33  1  0  0  0  0
 31 32  2  0  0  0  0
 32 34  1  0  0  0  0
 33 28  2  0  0  0  0
 34 29  2  0  0  0  0
 36 40  1  0  0  0  0
 37 36  1  0  0  0  0
 37 43  1  0  0  0  0
 38 37  1  0  0  0  0
 39 41  1  0  0  0  0
 40 41  1  0  0  0  0
 41 35  1  6  0  0  0
 42 37  1  0  0  0  0
 43 39  1  0  0  0  0
M  END
>  <MODEL>
8

>  <REMARK>
 VINA RESULT:      -8.8      2.946      5.986
  Name = 
  8 active torsions:
  status: ('A' for Active; 'I' for Inactive)
    1  A    between atoms: C_1  and  C_34
    2  A    between atoms: C_1  and  C_35
    3  A    between atoms: C_2  and  N_6
    4  A    between atoms: C_2  and  C_13
    5  A    between atoms: N_3  and  C_4
    6  A    between atoms: N_3  and  C_12
    7  A    between atoms: N_6  and  C_12
    8  A    between atoms: C_14  and  C_22
                            x       y       z     vdW  Elec       q    Type
                         _______ _______ _______ _____ _____    ______ ____

>  <TORSDO>
F 8

$$$$
=
 OpenBabel11052416123D

 43 48  0  0  1  0  0  0  0  0999 V2000
  190.4240  173.6230  135.7240 C   0  0  0  0  0  0  0  0  0  0  0  0
  186.8900  176.9450  137.2930 C   0  0  2  0  0  3  0  0  0  0  0  0
  187.9460  178.0750  139.6230 C   0  0  0  0  0  0  0  0  0  0  0  0
  188.4660  175.0470  135.8560 C   0  0  0  0  0  0  0  0  0  0  0  0
  191.0460  174.3750  136.7230 C   0  0  0  0  0  3  0  0  0  0  0  0
  191.0690  172.5680  135.1710 F   0  0  0  0  0  0  0  0  0  0  0  0
  189.0800  175.7890  136.8950 C   0  0  0  0  0  0  0  0  0  0  0  0
  189.1360  173.9560  135.2940 C   0  0  0  0  0  3  0  0  0  0  0  0
  190.3810  175.4590  137.2990 C   0  0  0  0  0  3  0  0  0  0  0  0
  188.7250  177.2230  138.8300 O   0  0  0  0  0  0  0  0  0  0  0  0
  188.4040  177.0130  137.4560 C   0  0  2  0  0  3  0  0  0  0  0  0
  186.5730  176.7240  135.8190 C   0  0  0  0  0  2  0  0  0  0  0  0
  186.3000  178.2500  137.8290 C   0  0  2  0  0  3  0  0  0  0  0  0
  186.8170  178.5430  139.1700 N   0  0  0  0  0  0  0  0  0  0  0  0
  187.0530  175.3330  135.4080 C   0  0  0  0  0  2  0  0  0  0  0  0
  188.4270  178.4310  140.9940 C   0  0  1  0  0  3  0  0  0  0  0  0
  187.2350  178.7290  141.8860 C   0  0  0  0  0  1  0  0  0  0  0  0
  189.2200  177.3470  141.5640 N   0  0  0  0  0  2  0  0  0  0  0  0
  190.5680  177.5140  142.0060 C   0  0  0  0  0  0  0  0  0  0  0  0
  191.7660  177.4200  140.8920 S   0  0  0  0  0  0  0  0  0  0  0  0
  190.8400  177.7700  143.3940 N   0  0  0  0  0  2  0  0  0  0  0  0
  190.3720  177.0050  144.5470 C   0  0  1  0  0  3  0  0  0  0  0  0
  192.4310  175.6120  147.0750 C   0  0  0  0  0  2  0  0  0  0  0  0
  191.3690  176.0960  144.9970 O   0  0  0  0  0  0  0  0  0  0  0  0
  190.0650  177.9100  145.7580 C   0  0  2  0  0  3  0  0  0  0  0  0
  190.8230  177.3520  146.8250 O   0  0  0  0  0  0  0  0  0  0  0  0
  191.5820  176.3100  146.3400 C   0  0  0  0  0  0  0  0  0  0  0  0
  188.1630  177.9650  147.4180 C   0  0  0  0  0  3  0  0  0  0  0  0
  188.6070  177.9010  146.0880 C   0  0  0  0  0  0  0  0  0  0  0  0
  185.4020  177.8560  144.3210 F   0  0  0  0  0  0  0  0  0  0  0  0
  185.8640  177.9420  146.6580 C   0  0  0  0  0  3  0  0  0  0  0  0
  186.3040  177.8760  145.3340 C   0  0  0  0  0  0  0  0  0  0  0  0
  186.7950  177.9840  147.7020 C   0  0  0  0  0  3  0  0  0  0  0  0
  187.6720  177.8600  145.0490 C   0  0  0  0  0  3  0  0  0  0  0  0
  184.7810  178.1570  137.8800 C   0  0  0  0  0  2  0  0  0  0  0  0
  182.2090  178.2300  140.6380 C   0  0  0  0  0  2  0  0  0  0  0  0
  181.4170  179.1780  139.7320 C   0  0  0  0  0  0  0  0  0  0  0  0
  180.3770  178.4830  139.1420 F   0  0  0  0  0  0  0  0  0  0  0  0
  183.6310  179.9270  139.0970 O   0  0  0  0  0  0  0  0  0  0  0  0
  183.3530  177.5780  139.8720 C   0  0  0  0  0  2  0  0  0  0  0  0
  184.2440  178.6510  139.2190 C   0  0  1  0  0  3  0  0  0  0  0  0
  180.8970  180.2010  140.5030 F   0  0  0  0  0  0  0  0  0  0  0  0
  182.3080  179.7700  138.6340 C   0  0  0  0  0  2  0  0  0  0  0  0
  1  5  1  0  0  0  0
  2 12  1  6  0  0  0
  2 11  1  0  0  0  0
  2 13  1  0  0  0  0
  3 16  1  0  0  0  0
  4  7  2  0  0  0  0
  5  9  2  0  0  0  0
  6  1  1  0  0  0  0
  7  9  1  0  0  0  0
  8  1  2  0  0  0  0
  8  4  1  0  0  0  0
 10  3  1  0  0  0  0
 11  7  1  1  0  0  0
 11 10  1  0  0  0  0
 13 35  1  1  0  0  0
 13 14  1  0  0  0  0
 14  3  2  0  0  0  0
 15 12  1  0  0  0  0
 15  4  1  0  0  0  0
 16 18  1  0  0  0  0
 16 17  1  1  0  0  0
 18 19  1  0  0  0  0
 19 21  1  0  0  0  0
 20 19  2  0  0  0  0
 22 21  1  6  0  0  0
 22 24  1  0  0  0  0
 22 25  1  0  0  0  0
 24 27  1  0  0  0  0
 25 29  1  1  0  0  0
 25 26  1  0  0  0  0
 27 26  1  0  0  0  0
 27 23  2  0  0  0  0
 28 33  1  0  0  0  0
 29 28  2  0  0  0  0
 30 32  1  0  0  0  0
 31 33  2  0  0  0  0
 32 31  1  0  0  0  0
 34 32  2  0  0  0  0
 34 29  1  0  0  0  0
 37 42  1  0  0  0  0
 37 36  1  0  0  0  0
 38 37  1  0  0  0  0
 39 41  1  0  0  0  0
 40 36  1  0  0  0  0
 41 35  1  6  0  0  0
 41 40  1  0  0  0  0
 43 39  1  0  0  0  0
 43 37  1  0  0  0  0
M  END
>  <MODEL>
9

>  <REMARK>
 VINA RESULT:      -8.7      3.048      8.277
  Name = 
  8 active torsions:
  status: ('A' for Active; 'I' for Inactive)
    1  A    between atoms: C_1  and  C_34
    2  A    between atoms: C_1  and  C_35
    3  A    between atoms: C_2  and  N_6
    4  A    between atoms: C_2  and  C_13
    5  A    between atoms: N_3  and  C_4
    6  A    between atoms: N_3  and  C_12
    7  A    between atoms: N_6  and  C_12
    8  A    between atoms: C_14  and  C_22
                            x       y       z     vdW  Elec       q    Type
                         _______ _______ _______ _____ _____    ______ ____

>  <TORSDO>
F 8

$$$$
