=
 OpenBabel11052412573D

 31 35  0  0  1  0  0  0  0  0999 V2000
  182.4570  179.2430  140.2570 C   0  0  2  0  0  3  0  0  0  0  0  0
  182.0230  179.2340  138.8080 C   0  0  0  0  0  0  0  0  0  0  0  0
  180.9310  180.3650  136.9780 C   0  0  0  0  0  3  0  0  0  0  0  0
  181.3840  180.3660  138.2950 C   0  0  0  0  0  3  0  0  0  0  0  0
  182.9760  176.9040  138.4610 C   0  0  0  0  0  2  0  0  0  0  0  0
  181.1090  179.2670  136.1970 N   0  0  0  0  0  0  0  0  0  0  0  0
  183.4220  178.1100  140.6270 C   0  0  1  0  0  3  0  0  0  0  0  0
  181.7270  178.1480  136.6590 C   0  0  0  0  0  0  0  0  0  0  0  0
  183.0030  176.7890  139.9820 C   0  0  0  0  0  2  0  0  0  0  0  0
  182.1960  178.1000  137.9840 C   0  0  0  0  0  0  0  0  0  0  0  0
  181.9280  176.7870  135.5650 Cl  0  0  0  0  0  0  0  0  0  0  0  0
  180.1720  178.5240  143.2210 C   0  0  0  0  0  0  0  0  0  0  0  0
  181.2900  179.2700  141.1990 C   0  0  0  0  0  0  0  0  0  0  0  0
  179.1180  179.4050  142.9630 C   0  0  0  0  0  3  0  0  0  0  0  0
  180.1440  177.7370  144.3230 F   0  0  0  0  0  0  0  0  0  0  0  0
  181.2570  178.4570  142.3430 C   0  0  0  0  0  3  0  0  0  0  0  0
  180.2350  180.1540  140.9490 C   0  0  0  0  0  3  0  0  0  0  0  0
  179.1490  180.2200  141.8280 C   0  0  0  0  0  3  0  0  0  0  0  0
  184.8710  178.4630  140.2860 C   0  0  1  0  0  3  0  0  0  0  0  0
  185.2030  179.7250  140.8170 O   0  0  0  0  0  0  0  0  0  0  0  0
  185.7830  178.6170  141.4640 C   0  0  1  0  0  3  0  0  0  0  0  0
  184.4700  179.7560  143.2590 C   0  0  0  0  0  1  0  0  0  0  0  0
  185.1490  178.4610  142.8490 C   0  0  2  0  0  3  0  0  0  0  0  0
  188.0290  177.2760  145.8270 C   0  0  0  0  0  0  0  0  0  0  0  0
  187.4400  177.6410  143.5100 C   0  0  0  0  0  3  0  0  0  0  0  0
  184.2230  178.5900  145.8050 Cl  0  0  0  0  0  0  0  0  0  0  0  0
  189.1990  176.7920  147.0350 Cl  0  0  0  0  0  0  0  0  0  0  0  0
  188.3750  177.2580  144.4730 C   0  0  0  0  0  3  0  0  0  0  0  0
  185.8110  178.0710  145.2570 C   0  0  0  0  0  0  0  0  0  0  0  0
  186.1490  178.0410  143.8900 C   0  0  0  0  0  0  0  0  0  0  0  0
  186.7520  177.6830  146.2170 C   0  0  0  0  0  3  0  0  0  0  0  0
  1  7  1  0  0  0  0
  1 13  1  1  0  0  0
  2  1  1  0  0  0  0
  3  4  2  0  0  0  0
  4  2  1  0  0  0  0
  5  9  1  0  0  0  0
  6  8  2  0  0  0  0
  6  3  1  0  0  0  0
  7  9  1  6  0  0  0
  8 10  1  0  0  0  0
 10  5  1  0  0  0  0
 10  2  2  0  0  0  0
 11  8  1  0  0  0  0
 12 15  1  0  0  0  0
 13 16  1  0  0  0  0
 14 12  1  0  0  0  0
 16 12  2  0  0  0  0
 17 13  2  0  0  0  0
 17 18  1  0  0  0  0
 18 14  2  0  0  0  0
 19  7  1  0  0  0  0
 19 20  1  1  0  0  0
 19 21  1  0  0  0  0
 20 21  1  0  0  0  0
 21 23  1  1  0  0  0
 23 22  1  1  0  0  0
 23 30  1  0  0  0  0
 24 31  1  0  0  0  0
 24 27  1  0  0  0  0
 25 30  2  0  0  0  0
 25 28  1  0  0  0  0
 28 24  2  0  0  0  0
 29 26  1  0  0  0  0
 29 31  2  0  0  0  0
 30 29  1  0  0  0  0
M  END
>  <MODEL>
1

>  <REMARK>
 VINA RESULT:      -8.5      0.000      0.000
  Name = 
  4 active torsions:
  status: ('A' for Active; 'I' for Inactive)
    1  A    between atoms: C_4  and  C_12
    2  A    between atoms: C_9  and  C_22
    3  A    between atoms: C_9  and  C_23
    4  A    between atoms: C_15  and  C_21
                            x       y       z     vdW  Elec       q    Type
                         _______ _______ _______ _____ _____    ______ ____

>  <TORSDO>
F 4

$$$$
=
 OpenBabel11052412573D

 31 35  0  0  1  0  0  0  0  0999 V2000
  180.4210  179.7100  137.7450 C   0  0  2  0  0  3  0  0  0  0  0  0
  180.1080  180.8100  136.7560 C   0  0  0  0  0  0  0  0  0  0  0  0
  178.9340  181.5280  134.7740 C   0  0  0  0  0  3  0  0  0  0  0  0
  179.2020  180.5460  135.7260 C   0  0  0  0  0  3  0  0  0  0  0  0
  181.6420  182.4340  137.9690 C   0  0  0  0  0  2  0  0  0  0  0  0
  179.5520  182.7350  134.8470 N   0  0  0  0  0  0  0  0  0  0  0  0
  181.1560  180.1890  139.0020 C   0  0  1  0  0  3  0  0  0  0  0  0
  180.4380  183.0300  135.8350 C   0  0  0  0  0  0  0  0  0  0  0  0
  182.2390  181.2110  138.6570 C   0  0  0  0  0  2  0  0  0  0  0  0
  180.7450  182.0700  136.8150 C   0  0  0  0  0  0  0  0  0  0  0  0
  181.1710  184.6280  135.8570 Cl  0  0  0  0  0  0  0  0  0  0  0  0
  181.8930  176.2540  137.1020 C   0  0  0  0  0  0  0  0  0  0  0  0
  181.1540  178.5670  137.1090 C   0  0  0  0  0  0  0  0  0  0  0  0
  182.4800  176.4450  135.8480 C   0  0  0  0  0  3  0  0  0  0  0  0
  181.9640  175.0440  137.7070 F   0  0  0  0  0  0  0  0  0  0  0  0
  181.2290  177.3110  137.7310 C   0  0  0  0  0  3  0  0  0  0  0  0
  181.7400  178.7510  135.8510 C   0  0  0  0  0  3  0  0  0  0  0  0
  182.4030  177.6920  135.2220 C   0  0  0  0  0  3  0  0  0  0  0  0
  180.1890  180.7340  140.0550 C   0  0  1  0  0  3  0  0  0  0  0  0
  179.1260  179.8300  140.2540 O   0  0  0  0  0  0  0  0  0  0  0  0
  180.0690  179.9070  141.2970 C   0  0  1  0  0  3  0  0  0  0  0  0
  179.9650  177.4420  141.6910 C   0  0  0  0  0  1  0  0  0  0  0  0
  180.8740  178.6050  141.3380 C   0  0  2  0  0  3  0  0  0  0  0  0
  184.1750  178.7950  144.1020 C   0  0  0  0  0  0  0  0  0  0  0  0
  181.8040  178.9580  143.6560 C   0  0  0  0  0  3  0  0  0  0  0  0
  183.6930  178.0540  140.1740 Cl  0  0  0  0  0  0  0  0  0  0  0  0
  185.5140  178.8740  145.2250 Cl  0  0  0  0  0  0  0  0  0  0  0  0
  182.8720  179.0190  144.5530 C   0  0  0  0  0  3  0  0  0  0  0  0
  183.3430  178.4390  141.8530 C   0  0  0  0  0  0  0  0  0  0  0  0
  182.0290  178.6780  142.2980 C   0  0  0  0  0  0  0  0  0  0  0  0
  184.4090  178.5030  142.7570 C   0  0  0  0  0  3  0  0  0  0  0  0
  1 13  1  6  0  0  0
  1  7  1  0  0  0  0
  2 10  1  0  0  0  0
  2  1  1  0  0  0  0
  3  6  2  0  0  0  0
  3  4  1  0  0  0  0
  4  2  2  0  0  0  0
  5  9  1  0  0  0  0
  6  8  1  0  0  0  0
  7  9  1  6  0  0  0
  7 19  1  0  0  0  0
  8 11  1  0  0  0  0
  8 10  2  0  0  0  0
 10  5  1  0  0  0  0
 12 15  1  0  0  0  0
 12 16  1  0  0  0  0
 13 16  2  0  0  0  0
 14 12  2  0  0  0  0
 17 13  1  0  0  0  0
 18 14  1  0  0  0  0
 18 17  2  0  0  0  0
 19 20  1  6  0  0  0
 19 21  1  0  0  0  0
 20 21  1  0  0  0  0
 21 23  1  6  0  0  0
 23 22  1  1  0  0  0
 23 30  1  0  0  0  0
 24 28  1  0  0  0  0
 24 27  1  0  0  0  0
 25 28  2  0  0  0  0
 26 29  1  0  0  0  0
 29 30  2  0  0  0  0
 29 31  1  0  0  0  0
 30 25  1  0  0  0  0
 31 24  2  0  0  0  0
M  END
>  <MODEL>
2

>  <REMARK>
 VINA RESULT:      -8.2      2.954      5.322
  Name = 
  4 active torsions:
  status: ('A' for Active; 'I' for Inactive)
    1  A    between atoms: C_4  and  C_12
    2  A    between atoms: C_9  and  C_22
    3  A    between atoms: C_9  and  C_23
    4  A    between atoms: C_15  and  C_21
                            x       y       z     vdW  Elec       q    Type
                         _______ _______ _______ _____ _____    ______ ____

>  <TORSDO>
F 4

$$$$
=
 OpenBabel11052412573D

 31 35  0  0  1  0  0  0  0  0999 V2000
  188.5550  178.4410  142.1340 C   0  0  2  0  0  3  0  0  0  0  0  0
  189.5450  178.3750  143.2750 C   0  0  0  0  0  0  0  0  0  0  0  0
  191.6610  179.0620  144.2090 C   0  0  0  0  0  3  0  0  0  0  0  0
  190.7110  179.1410  143.1940 C   0  0  0  0  0  3  0  0  0  0  0  0
  188.0600  176.7670  144.5670 C   0  0  0  0  0  2  0  0  0  0  0  0
  191.4560  178.2410  145.2720 N   0  0  0  0  0  0  0  0  0  0  0  0
  187.1850  177.8330  142.4590 C   0  0  1  0  0  3  0  0  0  0  0  0
  190.3340  177.4810  145.3870 C   0  0  0  0  0  0  0  0  0  0  0  0
  187.3270  176.5330  143.2500 C   0  0  0  0  0  2  0  0  0  0  0  0
  189.3490  177.5240  144.3850 C   0  0  0  0  0  0  0  0  0  0  0  0
  190.1500  176.4660  146.8110 Cl  0  0  0  0  0  0  0  0  0  0  0  0
  189.1760  177.7010  138.4480 C   0  0  0  0  0  0  0  0  0  0  0  0
  189.1060  177.8510  140.8700 C   0  0  0  0  0  0  0  0  0  0  0  0
  190.2140  176.7690  138.5350 C   0  0  0  0  0  3  0  0  0  0  0  0
  188.7070  178.0810  137.2350 F   0  0  0  0  0  0  0  0  0  0  0  0
  188.6240  178.2430  139.6120 C   0  0  0  0  0  3  0  0  0  0  0  0
  190.1490  176.9210  140.9510 C   0  0  0  0  0  3  0  0  0  0  0  0
  190.7000  176.3790  139.7860 C   0  0  0  0  0  3  0  0  0  0  0  0
  186.2780  178.8310  143.1830 C   0  0  1  0  0  3  0  0  0  0  0  0
  186.0740  179.9730  142.3840 O   0  0  0  0  0  0  0  0  0  0  0  0
  184.9710  179.1080  142.5070 C   0  0  1  0  0  3  0  0  0  0  0  0
  185.1780  179.3120  140.0250 C   0  0  0  0  0  1  0  0  0  0  0  0
  184.7290  178.4130  141.1640 C   0  0  2  0  0  3  0  0  0  0  0  0
  180.6050  177.2840  140.6300 C   0  0  0  0  0  0  0  0  0  0  0  0
  182.3040  178.4980  141.8500 C   0  0  0  0  0  3  0  0  0  0  0  0
  184.1000  176.5460  138.7710 Cl  0  0  0  0  0  0  0  0  0  0  0  0
  178.9310  176.8240  140.4150 Cl  0  0  0  0  0  0  0  0  0  0  0  0
  180.9680  178.1330  141.6780 C   0  0  0  0  0  3  0  0  0  0  0  0
  182.9190  177.1670  139.9160 C   0  0  0  0  0  0  0  0  0  0  0  0
  183.2930  178.0110  140.9790 C   0  0  0  0  0  0  0  0  0  0  0  0
  181.5780  176.8050  139.7510 C   0  0  0  0  0  3  0  0  0  0  0  0
  1 13  1  6  0  0  0
  1  7  1  0  0  0  0
  1  2  1  0  0  0  0
  2 10  1  0  0  0  0
  3  6  2  0  0  0  0
  4  2  2  0  0  0  0
  4  3  1  0  0  0  0
  6  8  1  0  0  0  0
  7 19  1  0  0  0  0
  7  9  1  1  0  0  0
  8 11  1  0  0  0  0
  9  5  1  0  0  0  0
 10  5  1  0  0  0  0
 10  8  2  0  0  0  0
 12 14  2  0  0  0  0
 12 16  1  0  0  0  0
 13 17  1  0  0  0  0
 14 18  1  0  0  0  0
 15 12  1  0  0  0  0
 16 13  2  0  0  0  0
 18 17  2  0  0  0  0
 19 20  1  6  0  0  0
 20 21  1  0  0  0  0
 21 23  1  6  0  0  0
 21 19  1  0  0  0  0
 23 22  1  6  0  0  0
 24 28  1  0  0  0  0
 26 29  1  0  0  0  0
 27 24  1  0  0  0  0
 28 25  2  0  0  0  0
 29 30  2  0  0  0  0
 30 23  1  0  0  0  0
 30 25  1  0  0  0  0
 31 29  1  0  0  0  0
 31 24  2  0  0  0  0
M  END
>  <MODEL>
3

>  <REMARK>
 VINA RESULT:      -7.9      4.153      8.861
  Name = 
  4 active torsions:
  status: ('A' for Active; 'I' for Inactive)
    1  A    between atoms: C_4  and  C_12
    2  A    between atoms: C_9  and  C_22
    3  A    between atoms: C_9  and  C_23
    4  A    between atoms: C_15  and  C_21
                            x       y       z     vdW  Elec       q    Type
                         _______ _______ _______ _____ _____    ______ ____

>  <TORSDO>
F 4

$$$$
=
 OpenBabel11052412573D

 31 35  0  0  1  0  0  0  0  0999 V2000
  184.9100  178.9660  138.9200 C   0  0  2  0  0  3  0  0  0  0  0  0
  183.5020  179.2540  138.4510 C   0  0  0  0  0  0  0  0  0  0  0  0
  181.5910  180.7270  138.4510 C   0  0  0  0  0  3  0  0  0  0  0  0
  182.9040  180.4590  138.8300 C   0  0  0  0  0  3  0  0  0  0  0  0
  183.4030  177.0620  137.1680 C   0  0  0  0  0  2  0  0  0  0  0  0
  180.8940  179.8200  137.7170 N   0  0  0  0  0  0  0  0  0  0  0  0
  185.5830  177.7940  138.1950 C   0  0  1  0  0  3  0  0  0  0  0  0
  181.4420  178.6380  137.3280 C   0  0  0  0  0  0  0  0  0  0  0  0
  184.6110  176.6320  137.9940 C   0  0  0  0  0  2  0  0  0  0  0  0
  182.7620  178.3210  137.6910 C   0  0  0  0  0  0  0  0  0  0  0  0
  180.4670  177.5390  136.3620 Cl  0  0  0  0  0  0  0  0  0  0  0  0
  183.9210  178.4840  142.5690 C   0  0  0  0  0  0  0  0  0  0  0  0
  184.9850  178.7780  140.4060 C   0  0  0  0  0  0  0  0  0  0  0  0
  185.1770  178.3610  143.1700 C   0  0  0  0  0  3  0  0  0  0  0  0
  182.7980  178.4020  143.3220 F   0  0  0  0  0  0  0  0  0  0  0  0
  183.8240  178.6900  141.1900 C   0  0  0  0  0  3  0  0  0  0  0  0
  186.2390  178.6480  141.0130 C   0  0  0  0  0  3  0  0  0  0  0  0
  186.3350  178.4420  142.3930 C   0  0  0  0  0  3  0  0  0  0  0  0
  186.2130  178.2320  136.8700 C   0  0  1  0  0  3  0  0  0  0  0  0
  187.1370  179.2720  137.0910 O   0  0  0  0  0  0  0  0  0  0  0  0
  187.6910  178.0190  136.7680 C   0  0  1  0  0  3  0  0  0  0  0  0
  189.0210  178.5750  138.8100 C   0  0  0  0  0  1  0  0  0  0  0  0
  188.3930  177.4510  138.0060 C   0  0  2  0  0  3  0  0  0  0  0  0
  191.3600  174.4870  137.0170 C   0  0  0  0  0  0  0  0  0  0  0  0
  190.7920  176.7170  137.7600 C   0  0  0  0  0  3  0  0  0  0  0  0
  187.3390  174.6770  137.1120 Cl  0  0  0  0  0  0  0  0  0  0  0  0
  192.5650  173.2850  136.6140 Cl  0  0  0  0  0  0  0  0  0  0  0  0
  191.7550  175.7580  137.4410 C   0  0  0  0  0  3  0  0  0  0  0  0
  189.0330  175.1290  137.2390 C   0  0  0  0  0  0  0  0  0  0  0  0
  189.4250  176.4170  137.6530 C   0  0  0  0  0  0  0  0  0  0  0  0
  190.0030  174.1740  136.9190 C   0  0  0  0  0  3  0  0  0  0  0  0
  1 13  1  1  0  0  0
  2  4  1  0  0  0  0
  2  1  1  0  0  0  0
  3  4  2  0  0  0  0
  5 10  1  0  0  0  0
  5  9  1  0  0  0  0
  6  3  1  0  0  0  0
  7  9  1  6  0  0  0
  7  1  1  0  0  0  0
  8 10  1  0  0  0  0
  8  6  2  0  0  0  0
 10  2  2  0  0  0  0
 11  8  1  0  0  0  0
 12 14  1  0  0  0  0
 12 15  1  0  0  0  0
 13 17  2  0  0  0  0
 13 16  1  0  0  0  0
 16 12  2  0  0  0  0
 17 18  1  0  0  0  0
 18 14  2  0  0  0  0
 19 20  1  1  0  0  0
 19  7  1  0  0  0  0
 21 19  1  0  0  0  0
 21 20  1  0  0  0  0
 21 23  1  1  0  0  0
 23 22  1  6  0  0  0
 24 28  1  0  0  0  0
 26 29  1  0  0  0  0
 27 24  1  0  0  0  0
 28 25  2  0  0  0  0
 29 30  2  0  0  0  0
 30 25  1  0  0  0  0
 30 23  1  0  0  0  0
 31 24  2  0  0  0  0
 31 29  1  0  0  0  0
M  END
>  <MODEL>
4

>  <REMARK>
 VINA RESULT:      -7.7      4.334      5.779
  Name = 
  4 active torsions:
  status: ('A' for Active; 'I' for Inactive)
    1  A    between atoms: C_4  and  C_12
    2  A    between atoms: C_9  and  C_22
    3  A    between atoms: C_9  and  C_23
    4  A    between atoms: C_15  and  C_21
                            x       y       z     vdW  Elec       q    Type
                         _______ _______ _______ _____ _____    ______ ____

>  <TORSDO>
F 4

$$$$
=
 OpenBabel11052412573D

 31 35  0  0  1  0  0  0  0  0999 V2000
  188.9890  176.6280  137.4630 C   0  0  2  0  0  3  0  0  0  0  0  0
  190.2900  176.4700  136.7090 C   0  0  0  0  0  0  0  0  0  0  0  0
  191.4460  176.3680  134.5940 C   0  0  0  0  0  3  0  0  0  0  0  0
  190.2690  176.5580  135.3140 C   0  0  0  0  0  3  0  0  0  0  0  0
  191.5940  176.1910  138.8730 C   0  0  0  0  0  2  0  0  0  0  0  0
  192.6080  176.0970  135.2440 N   0  0  0  0  0  0  0  0  0  0  0  0
  189.1620  176.8400  138.9720 C   0  0  1  0  0  3  0  0  0  0  0  0
  192.6680  176.0050  136.5990 C   0  0  0  0  0  0  0  0  0  0  0  0
  190.2480  175.9270  139.5410 C   0  0  0  0  0  2  0  0  0  0  0  0
  191.5060  176.1840  137.3690 C   0  0  0  0  0  0  0  0  0  0  0  0
  194.2220  175.6710  137.3500 Cl  0  0  0  0  0  0  0  0  0  0  0  0
  187.5790  173.1380  136.8660 C   0  0  0  0  0  0  0  0  0  0  0  0
  188.0380  175.5000  137.1960 C   0  0  0  0  0  0  0  0  0  0  0  0
  186.2140  173.4170  136.7630 C   0  0  0  0  0  3  0  0  0  0  0  0
  188.0200  171.8620  136.7570 F   0  0  0  0  0  0  0  0  0  0  0  0
  188.4900  174.1760  137.0840 C   0  0  0  0  0  3  0  0  0  0  0  0
  186.6690  175.7720  137.0980 C   0  0  0  0  0  3  0  0  0  0  0  0
  185.7580  174.7340  136.8790 C   0  0  0  0  0  3  0  0  0  0  0  0
  189.4320  178.3080  139.3130 C   0  0  1  0  0  3  0  0  0  0  0  0
  188.5010  179.1390  138.6570 O   0  0  0  0  0  0  0  0  0  0  0  0
  188.3280  179.0030  140.0480 C   0  0  1  0  0  3  0  0  0  0  0  0
  185.9770  178.5710  139.3200 C   0  0  0  0  0  1  0  0  0  0  0  0
  187.0590  178.1890  140.3140 C   0  0  2  0  0  3  0  0  0  0  0  0
  185.6080  178.6510  144.3450 C   0  0  0  0  0  0  0  0  0  0  0  0
  185.4290  179.1440  141.9840 C   0  0  0  0  0  3  0  0  0  0  0  0
  188.6040  176.6680  142.5290 Cl  0  0  0  0  0  0  0  0  0  0  0  0
  185.0190  178.8410  145.9820 Cl  0  0  0  0  0  0  0  0  0  0  0  0
  184.9570  179.2950  143.2900 C   0  0  0  0  0  3  0  0  0  0  0  0
  187.2030  177.6960  142.7900 C   0  0  0  0  0  0  0  0  0  0  0  0
  186.5600  178.3540  141.7220 C   0  0  0  0  0  0  0  0  0  0  0  0
  186.7250  177.8530  144.0950 C   0  0  0  0  0  3  0  0  0  0  0  0
  1 13  1  1  0  0  0
  1  7  1  0  0  0  0
  2 10  1  0  0  0  0
  2  1  1  0  0  0  0
  3  6  2  0  0  0  0
  3  4  1  0  0  0  0
  4  2  2  0  0  0  0
  5  9  1  0  0  0  0
  6  8  1  0  0  0  0
  7 19  1  0  0  0  0
  7  9  1  6  0  0  0
  8 11  1  0  0  0  0
  8 10  2  0  0  0  0
 10  5  1  0  0  0  0
 12 16  1  0  0  0  0
 14 12  2  0  0  0  0
 14 18  1  0  0  0  0
 15 12  1  0  0  0  0
 16 13  2  0  0  0  0
 17 13  1  0  0  0  0
 18 17  2  0  0  0  0
 19 20  1  6  0  0  0
 19 21  1  0  0  0  0
 20 21  1  0  0  0  0
 21 23  1  6  0  0  0
 23 22  1  6  0  0  0
 23 30  1  0  0  0  0
 24 27  1  0  0  0  0
 25 28  1  0  0  0  0
 26 29  1  0  0  0  0
 28 24  2  0  0  0  0
 29 31  2  0  0  0  0
 30 25  2  0  0  0  0
 30 29  1  0  0  0  0
 31 24  1  0  0  0  0
M  END
>  <MODEL>
5

>  <REMARK>
 VINA RESULT:      -7.3      5.921      8.007
  Name = 
  4 active torsions:
  status: ('A' for Active; 'I' for Inactive)
    1  A    between atoms: C_4  and  C_12
    2  A    between atoms: C_9  and  C_22
    3  A    between atoms: C_9  and  C_23
    4  A    between atoms: C_15  and  C_21
                            x       y       z     vdW  Elec       q    Type
                         _______ _______ _______ _____ _____    ______ ____

>  <TORSDO>
F 4

$$$$
=
 OpenBabel11052412573D

 31 35  0  0  1  0  0  0  0  0999 V2000
  190.5310  176.5320  137.1780 C   0  0  2  0  0  3  0  0  0  0  0  0
  189.1040  176.9380  136.8860 C   0  0  0  0  0  0  0  0  0  0  0  0
  187.4600  178.6930  136.6870 C   0  0  0  0  0  3  0  0  0  0  0  0
  188.7770  178.2970  136.9060 C   0  0  0  0  0  3  0  0  0  0  0  0
  188.4180  174.5200  136.5080 C   0  0  0  0  0  2  0  0  0  0  0  0
  186.4970  177.7620  136.4570 N   0  0  0  0  0  0  0  0  0  0  0  0
  190.8540  175.0780  136.8150 C   0  0  1  0  0  3  0  0  0  0  0  0
  186.7760  176.4320  136.4280 C   0  0  0  0  0  0  0  0  0  0  0  0
  189.7160  174.1390  137.2120 C   0  0  0  0  0  2  0  0  0  0  0  0
  188.0900  175.9830  136.6480 C   0  0  0  0  0  0  0  0  0  0  0  0
  185.4660  175.3060  136.1010 Cl  0  0  0  0  0  0  0  0  0  0  0  0
  190.3800  177.0140  140.9560 C   0  0  0  0  0  0  0  0  0  0  0  0
  190.9230  176.8200  138.5970 C   0  0  0  0  0  0  0  0  0  0  0  0
  191.7180  177.3020  141.2400 C   0  0  0  0  0  3  0  0  0  0  0  0
  189.4690  176.9670  141.9570 F   0  0  0  0  0  0  0  0  0  0  0  0
  189.9830  176.7710  139.6380 C   0  0  0  0  0  3  0  0  0  0  0  0
  192.2620  177.1040  138.8890 C   0  0  0  0  0  3  0  0  0  0  0  0
  192.6590  177.3460  140.2070 C   0  0  0  0  0  3  0  0  0  0  0  0
  191.2120  174.9270  135.3350 C   0  0  1  0  0  3  0  0  0  0  0  0
  191.9610  176.0380  134.8990 O   0  0  0  0  0  0  0  0  0  0  0  0
  192.6770  174.8350  135.0410 C   0  0  1  0  0  3  0  0  0  0  0  0
  194.7270  175.9600  135.9230 C   0  0  0  0  0  1  0  0  0  0  0  0
  193.6290  174.9600  136.2350 C   0  0  2  0  0  3  0  0  0  0  0  0
  195.3420  171.1690  137.3580 C   0  0  0  0  0  0  0  0  0  0  0  0
  194.1280  172.5320  135.7710 C   0  0  0  0  0  3  0  0  0  0  0  0
  195.0790  174.8480  138.9720 Cl  0  0  0  0  0  0  0  0  0  0  0  0
  196.0360  169.6280  137.8130 Cl  0  0  0  0  0  0  0  0  0  0  0  0
  194.6830  171.3030  136.1330 C   0  0  0  0  0  3  0  0  0  0  0  0
  194.8990  173.4980  137.8600 C   0  0  0  0  0  0  0  0  0  0  0  0
  194.2200  173.6370  136.6330 C   0  0  0  0  0  0  0  0  0  0  0  0
  195.4510  172.2640  138.2160 C   0  0  0  0  0  3  0  0  0  0  0  0
  1 13  1  1  0  0  0
  2  4  1  0  0  0  0
  2  1  1  0  0  0  0
  3  4  2  0  0  0  0
  5 10  1  0  0  0  0
  5  9  1  0  0  0  0
  6  3  1  0  0  0  0
  7  1  1  0  0  0  0
  7  9  1  6  0  0  0
  8  6  2  0  0  0  0
  8 10  1  0  0  0  0
 10  2  2  0  0  0  0
 11  8  1  0  0  0  0
 12 14  1  0  0  0  0
 12 15  1  0  0  0  0
 13 17  2  0  0  0  0
 13 16  1  0  0  0  0
 16 12  2  0  0  0  0
 17 18  1  0  0  0  0
 18 14  2  0  0  0  0
 19 20  1  6  0  0  0
 19  7  1  0  0  0  0
 20 21  1  0  0  0  0
 21 19  1  0  0  0  0
 21 23  1  1  0  0  0
 23 22  1  6  0  0  0
 23 30  1  0  0  0  0
 24 27  1  0  0  0  0
 24 31  1  0  0  0  0
 25 28  1  0  0  0  0
 25 30  2  0  0  0  0
 28 24  2  0  0  0  0
 29 31  2  0  0  0  0
 29 26  1  0  0  0  0
 30 29  1  0  0  0  0
M  END
>  <MODEL>
6

>  <REMARK>
 VINA RESULT:      -7.0      8.320     10.311
  Name = 
  4 active torsions:
  status: ('A' for Active; 'I' for Inactive)
    1  A    between atoms: C_4  and  C_12
    2  A    between atoms: C_9  and  C_22
    3  A    between atoms: C_9  and  C_23
    4  A    between atoms: C_15  and  C_21
                            x       y       z     vdW  Elec       q    Type
                         _______ _______ _______ _____ _____    ______ ____

>  <TORSDO>
F 4

$$$$
=
 OpenBabel11052412573D

 31 35  0  0  1  0  0  0  0  0999 V2000
  189.1110  176.5390  137.4160 C   0  0  2  0  0  3  0  0  0  0  0  0
  190.4200  176.3360  136.6870 C   0  0  0  0  0  0  0  0  0  0  0  0
  191.5970  176.0900  134.5950 C   0  0  0  0  0  3  0  0  0  0  0  0
  190.4120  176.3240  135.2890 C   0  0  0  0  0  3  0  0  0  0  0  0
  191.7040  176.2170  138.8770 C   0  0  0  0  0  2  0  0  0  0  0  0
  192.7540  175.8730  135.2740 N   0  0  0  0  0  0  0  0  0  0  0  0
  189.2680  176.8590  138.9070 C   0  0  1  0  0  3  0  0  0  0  0  0
  192.8010  175.8780  136.6330 C   0  0  0  0  0  0  0  0  0  0  0  0
  190.3530  175.9950  139.5490 C   0  0  0  0  0  2  0  0  0  0  0  0
  191.6300  176.1040  137.3770 C   0  0  0  0  0  0  0  0  0  0  0  0
  194.3500  175.6060  137.4200 Cl  0  0  0  0  0  0  0  0  0  0  0  0
  187.7420  173.0230  136.8840 C   0  0  0  0  0  0  0  0  0  0  0  0
  188.1680  175.3890  137.2210 C   0  0  0  0  0  0  0  0  0  0  0  0
  186.3650  173.2640  136.9270 C   0  0  0  0  0  3  0  0  0  0  0  0
  188.2030  171.7630  136.7020 F   0  0  0  0  0  0  0  0  0  0  0  0
  188.6410  174.0820  137.0330 C   0  0  0  0  0  3  0  0  0  0  0  0
  186.7890  175.6240  137.2680 C   0  0  0  0  0  3  0  0  0  0  0  0
  185.8890  174.5640  137.1190 C   0  0  0  0  0  3  0  0  0  0  0  0
  189.5270  178.3480  139.1450 C   0  0  1  0  0  3  0  0  0  0  0  0
  188.3670  179.0960  138.8620 O   0  0  0  0  0  0  0  0  0  0  0  0
  188.6980  178.9730  140.2240 C   0  0  1  0  0  3  0  0  0  0  0  0
  186.2700  178.6350  140.7110 C   0  0  0  0  0  1  0  0  0  0  0  0
  187.6660  178.0720  140.9090 C   0  0  2  0  0  3  0  0  0  0  0  0
  188.5010  177.5590  145.1050 C   0  0  0  0  0  0  0  0  0  0  0  0
  189.2800  177.8410  142.8330 C   0  0  0  0  0  3  0  0  0  0  0  0
  185.2160  177.8580  142.7960 Cl  0  0  0  0  0  0  0  0  0  0  0  0
  188.8410  177.3490  146.8090 Cl  0  0  0  0  0  0  0  0  0  0  0  0
  189.5520  177.6760  144.1930 C   0  0  0  0  0  3  0  0  0  0  0  0
  186.8990  177.7810  143.3000 C   0  0  0  0  0  0  0  0  0  0  0  0
  187.9540  177.8850  142.3730 C   0  0  0  0  0  0  0  0  0  0  0  0
  187.1790  177.6140  144.6600 C   0  0  0  0  0  3  0  0  0  0  0  0
  1 13  1  1  0  0  0
  1  7  1  0  0  0  0
  2 10  1  0  0  0  0
  2  1  1  0  0  0  0
  3  6  2  0  0  0  0
  3  4  1  0  0  0  0
  4  2  2  0  0  0  0
  5  9  1  0  0  0  0
  6  8  1  0  0  0  0
  7 19  1  0  0  0  0
  7  9  1  6  0  0  0
  8 10  2  0  0  0  0
  8 11  1  0  0  0  0
 10  5  1  0  0  0  0
 12 14  2  0  0  0  0
 12 16  1  0  0  0  0
 13 17  1  0  0  0  0
 14 18  1  0  0  0  0
 15 12  1  0  0  0  0
 16 13  2  0  0  0  0
 18 17  2  0  0  0  0
 19 20  1  6  0  0  0
 19 21  1  0  0  0  0
 20 21  1  0  0  0  0
 21 23  1  1  0  0  0
 23 22  1  1  0  0  0
 23 30  1  0  0  0  0
 24 27  1  0  0  0  0
 25 28  1  0  0  0  0
 26 29  1  0  0  0  0
 28 24  2  0  0  0  0
 29 31  2  0  0  0  0
 30 25  2  0  0  0  0
 30 29  1  0  0  0  0
 31 24  1  0  0  0  0
M  END
>  <MODEL>
7

>  <REMARK>
 VINA RESULT:      -7.0      6.003      7.942
  Name = 
  4 active torsions:
  status: ('A' for Active; 'I' for Inactive)
    1  A    between atoms: C_4  and  C_12
    2  A    between atoms: C_9  and  C_22
    3  A    between atoms: C_9  and  C_23
    4  A    between atoms: C_15  and  C_21
                            x       y       z     vdW  Elec       q    Type
                         _______ _______ _______ _____ _____    ______ ____

>  <TORSDO>
F 4

$$$$
=
 OpenBabel11052412573D

 31 35  0  0  1  0  0  0  0  0999 V2000
  188.5980  178.6280  141.0880 C   0  0  2  0  0  3  0  0  0  0  0  0
  189.0640  178.2240  139.7070 C   0  0  0  0  0  0  0  0  0  0  0  0
  189.0560  178.6290  137.3280 C   0  0  0  0  0  3  0  0  0  0  0  0
  188.6800  179.0070  138.6150 C   0  0  0  0  0  3  0  0  0  0  0  0
  190.3540  176.2430  140.6430 C   0  0  0  0  0  2  0  0  0  0  0  0
  189.7910  177.5030  137.1360 N   0  0  0  0  0  0  0  0  0  0  0  0
  189.3280  177.9100  142.2290 C   0  0  1  0  0  3  0  0  0  0  0  0
  190.1850  176.7160  138.1730 C   0  0  0  0  0  0  0  0  0  0  0  0
  189.5320  176.4280  141.9150 C   0  0  0  0  0  2  0  0  0  0  0  0
  189.8250  177.0540  139.4890 C   0  0  0  0  0  0  0  0  0  0  0  0
  191.1530  175.2900  137.8240 Cl  0  0  0  0  0  0  0  0  0  0  0  0
  185.1410  178.1890  142.6300 C   0  0  0  0  0  0  0  0  0  0  0  0
  187.1120  178.4940  141.2460 C   0  0  0  0  0  0  0  0  0  0  0  0
  184.3280  178.3180  141.5010 C   0  0  0  0  0  3  0  0  0  0  0  0
  184.5830  177.9800  143.8460 F   0  0  0  0  0  0  0  0  0  0  0  0
  186.5300  178.2790  142.5050 C   0  0  0  0  0  3  0  0  0  0  0  0
  186.2930  178.6280  140.1200 C   0  0  0  0  0  3  0  0  0  0  0  0
  184.9030  178.5380  140.2460 C   0  0  0  0  0  3  0  0  0  0  0  0
  190.6520  178.5940  142.5760 C   0  0  1  0  0  3  0  0  0  0  0  0
  190.4670  179.5060  143.6350 O   0  0  0  0  0  0  0  0  0  0  0  0
  191.1640  178.3260  143.9570 C   0  0  1  0  0  3  0  0  0  0  0  0
  189.0760  178.2520  145.3300 C   0  0  0  0  0  1  0  0  0  0  0  0
  190.2830  177.4580  144.8620 C   0  0  2  0  0  3  0  0  0  0  0  0
  192.4300  175.8800  148.2480 C   0  0  0  0  0  0  0  0  0  0  0  0
  190.9050  177.5030  147.3050 C   0  0  0  0  0  3  0  0  0  0  0  0
  192.0550  174.9690  144.3440 Cl  0  0  0  0  0  0  0  0  0  0  0  0
  193.3030  175.2410  149.6230 Cl  0  0  0  0  0  0  0  0  0  0  0  0
  191.6000  176.9930  148.4030 C   0  0  0  0  0  3  0  0  0  0  0  0
  191.8670  175.7790  145.8920 C   0  0  0  0  0  0  0  0  0  0  0  0
  191.0390  176.9100  146.0390 C   0  0  0  0  0  0  0  0  0  0  0  0
  192.5600  175.2740  146.9970 C   0  0  0  0  0  3  0  0  0  0  0  0
  1 13  1  6  0  0  0
  1  7  1  0  0  0  0
  2  1  1  0  0  0  0
  3  4  1  0  0  0  0
  4  2  2  0  0  0  0
  5  9  1  0  0  0  0
  6  3  2  0  0  0  0
  6  8  1  0  0  0  0
  7  9  1  6  0  0  0
  7 19  1  0  0  0  0
  8 10  2  0  0  0  0
 10  2  1  0  0  0  0
 10  5  1  0  0  0  0
 11  8  1  0  0  0  0
 12 15  1  0  0  0  0
 13 16  2  0  0  0  0
 14 12  2  0  0  0  0
 16 12  1  0  0  0  0
 17 18  2  0  0  0  0
 17 13  1  0  0  0  0
 18 14  1  0  0  0  0
 19 20  1  1  0  0  0
 19 21  1  0  0  0  0
 20 21  1  0  0  0  0
 21 23  1  1  0  0  0
 23 22  1  1  0  0  0
 23 30  1  0  0  0  0
 24 28  1  0  0  0  0
 24 27  1  0  0  0  0
 25 28  2  0  0  0  0
 26 29  1  0  0  0  0
 29 30  2  0  0  0  0
 29 31  1  0  0  0  0
 30 25  1  0  0  0  0
 31 24  2  0  0  0  0
M  END
>  <MODEL>
8

>  <REMARK>
 VINA RESULT:      -6.9      4.371      6.591
  Name = 
  4 active torsions:
  status: ('A' for Active; 'I' for Inactive)
    1  A    between atoms: C_4  and  C_12
    2  A    between atoms: C_9  and  C_22
    3  A    between atoms: C_9  and  C_23
    4  A    between atoms: C_15  and  C_21
                            x       y       z     vdW  Elec       q    Type
                         _______ _______ _______ _____ _____    ______ ____

>  <TORSDO>
F 4

$$$$
=
 OpenBabel11052412573D

 31 35  0  0  1  0  0  0  0  0999 V2000
  188.2780  177.2610  137.7230 C   0  0  2  0  0  3  0  0  0  0  0  0
  189.4530  176.9810  136.8140 C   0  0  0  0  0  0  0  0  0  0  0  0
  190.4030  177.0410  134.5970 C   0  0  0  0  0  3  0  0  0  0  0  0
  189.3540  177.3330  135.4650 C   0  0  0  0  0  3  0  0  0  0  0  0
  190.8110  176.0330  138.7420 C   0  0  0  0  0  2  0  0  0  0  0  0
  191.5170  176.4160  135.0600 N   0  0  0  0  0  0  0  0  0  0  0  0
  188.6020  177.1440  139.2170 C   0  0  1  0  0  3  0  0  0  0  0  0
  191.6520  176.0600  136.3650 C   0  0  0  0  0  0  0  0  0  0  0  0
  189.4920  175.9350  139.5000 C   0  0  0  0  0  2  0  0  0  0  0  0
  190.6170  176.3280  137.2780 C   0  0  0  0  0  0  0  0  0  0  0  0
  193.1400  175.2740  136.8720 Cl  0  0  0  0  0  0  0  0  0  0  0  0
  186.0520  174.2810  136.8940 C   0  0  0  0  0  0  0  0  0  0  0  0
  187.0810  176.4270  137.3770 C   0  0  0  0  0  0  0  0  0  0  0  0
  184.8030  174.9010  136.7970 C   0  0  0  0  0  3  0  0  0  0  0  0
  186.1610  172.9440  136.7080 F   0  0  0  0  0  0  0  0  0  0  0  0
  187.1890  175.0410  137.1850 C   0  0  0  0  0  3  0  0  0  0  0  0
  185.8270  177.0410  137.2840 C   0  0  0  0  0  3  0  0  0  0  0  0
  184.6910  176.2810  136.9920 C   0  0  0  0  0  3  0  0  0  0  0  0
  189.2180  178.4320  139.7690 C   0  0  1  0  0  3  0  0  0  0  0  0
  188.2070  179.3700  140.0590 O   0  0  0  0  0  0  0  0  0  0  0  0
  188.8270  178.7740  141.1730 C   0  0  1  0  0  3  0  0  0  0  0  0
  186.4130  178.3590  141.6710 C   0  0  0  0  0  1  0  0  0  0  0  0
  187.8270  177.8370  141.8570 C   0  0  2  0  0  3  0  0  0  0  0  0
  188.6780  177.2740  146.0430 C   0  0  0  0  0  0  0  0  0  0  0  0
  187.1210  177.8260  144.2770 C   0  0  0  0  0  3  0  0  0  0  0  0
  190.7180  176.9880  142.5840 Cl  0  0  0  0  0  0  0  0  0  0  0  0
  189.0230  177.0470  147.7440 Cl  0  0  0  0  0  0  0  0  0  0  0  0
  187.3940  177.6440  145.6340 C   0  0  0  0  0  3  0  0  0  0  0  0
  189.4170  177.2600  143.7350 C   0  0  0  0  0  0  0  0  0  0  0  0
  188.1290  177.6470  143.3170 C   0  0  0  0  0  0  0  0  0  0  0  0
  189.6850  177.0800  145.0960 C   0  0  0  0  0  3  0  0  0  0  0  0
  1 13  1  6  0  0  0
  1  7  1  0  0  0  0
  2 10  1  0  0  0  0
  2  1  1  0  0  0  0
  3  6  2  0  0  0  0
  3  4  1  0  0  0  0
  4  2  2  0  0  0  0
  5  9  1  0  0  0  0
  6  8  1  0  0  0  0
  7  9  1  6  0  0  0
  7 19  1  0  0  0  0
  8 11  1  0  0  0  0
  8 10  2  0  0  0  0
 10  5  1  0  0  0  0
 12 16  1  0  0  0  0
 14 12  2  0  0  0  0
 14 18  1  0  0  0  0
 15 12  1  0  0  0  0
 16 13  2  0  0  0  0
 17 13  1  0  0  0  0
 18 17  2  0  0  0  0
 19 20  1  6  0  0  0
 19 21  1  0  0  0  0
 20 21  1  0  0  0  0
 21 23  1  6  0  0  0
 23 22  1  1  0  0  0
 23 30  1  0  0  0  0
 24 27  1  0  0  0  0
 25 28  2  0  0  0  0
 26 29  1  0  0  0  0
 28 24  1  0  0  0  0
 29 31  1  0  0  0  0
 30 29  2  0  0  0  0
 30 25  1  0  0  0  0
 31 24  2  0  0  0  0
M  END
>  <MODEL>
9

>  <REMARK>
 VINA RESULT:      -6.8      5.262      7.082
  Name = 
  4 active torsions:
  status: ('A' for Active; 'I' for Inactive)
    1  A    between atoms: C_4  and  C_12
    2  A    between atoms: C_9  and  C_22
    3  A    between atoms: C_9  and  C_23
    4  A    between atoms: C_15  and  C_21
                            x       y       z     vdW  Elec       q    Type
                         _______ _______ _______ _____ _____    ______ ____

>  <TORSDO>
F 4

$$$$
