=
 OpenBabel11052416093D

 43 48  0  0  1  0  0  0  0  0999 V2000
  191.3570  176.3300  146.6290 C   0  0  0  0  0  0  0  0  0  0  0  0
  187.0300  177.4530  144.0710 C   0  0  1  0  0  3  0  0  0  0  0  0
  187.9900  178.6500  141.6690 C   0  0  2  0  0  3  0  0  0  0  0  0
  189.1550  177.1380  146.0010 C   0  0  0  0  0  0  0  0  0  0  0  0
  191.6440  176.0580  145.2880 C   0  0  0  0  0  3  0  0  0  0  0  0
  192.3720  176.0470  147.6790 C   0  0  0  0  0  1  0  0  0  0  0  0
  189.4370  176.8450  144.6480 C   0  0  0  0  0  0  0  0  0  0  0  0
  190.1130  176.8620  146.9840 C   0  0  0  0  0  3  0  0  0  0  0  0
  190.6860  176.3140  144.3030 C   0  0  0  0  0  3  0  0  0  0  0  0
  188.9490  178.2580  142.7250 N   0  0  0  0  0  2  0  0  0  0  0  0
  188.4510  177.1530  143.5520 C   0  0  2  0  0  3  0  0  0  0  0  0
  187.0830  178.3560  145.2970 C   0  0  0  0  0  2  0  0  0  0  0  0
  186.2180  178.1440  142.9740 C   0  0  1  0  0  3  0  0  0  0  0  0
  186.7940  177.8990  141.7160 O   0  0  0  0  0  0  0  0  0  0  0  0
  187.8060  177.6390  146.4290 C   0  0  0  0  0  2  0  0  0  0  0  0
  188.6320  178.5110  140.2890 C   0  0  1  0  0  3  0  0  0  0  0  0
  189.6840  177.4140  140.3140 C   0  0  0  0  0  1  0  0  0  0  0  0
  187.5820  178.1750  139.2400 C   0  0  0  0  0  2  0  0  0  0  0  0
  188.1620  178.2690  137.8650 C   0  0  0  0  0  0  0  0  0  0  0  0
  188.8610  179.2710  137.5640 O   0  0  0  0  0  0  0  0  0  0  0  0
  187.9450  177.2770  136.9070 O   0  0  0  0  0  0  0  0  0  0  0  0
  187.5230  175.9570  137.2450 C   0  0  1  0  0  3  0  0  0  0  0  0
  187.2850  173.7580  136.3070 C   0  0  0  0  0  2  0  0  0  0  0  0
  186.0520  175.7740  136.9270 C   0  0  0  0  0  2  0  0  0  0  0  0
  188.2870  174.8840  136.4580 C   0  0  1  0  0  0  0  0  0  0  0  0
  188.6770  175.3400  135.0460 C   0  0  0  0  0  1  0  0  0  0  0  0
  185.8960  174.3730  136.3680 C   0  0  0  0  0  2  0  0  0  0  0  0
  189.4030  174.3860  137.1750 O   0  0  0  0  0  0  0  0  0  0  0  0
  190.5920  174.8910  136.6210 C   0  0  2  0  0  3  0  0  0  0  0  0
  193.1670  176.6080  138.6970 C   0  0  0  0  0  1  0  0  0  0  0  0
  192.7360  174.5070  137.5520 N   0  0  0  0  0  0  0  0  0  0  0  0
  192.3350  175.6830  137.8840 C   0  0  0  0  0  0  0  0  0  0  0  0
  191.7080  173.8520  136.7580 C   0  0  0  0  0  2  0  0  0  0  0  0
  191.0520  176.0280  137.3990 N   0  0  0  0  0  2  0  0  0  0  0  0
  184.9040  177.6710  142.9870 O   0  0  0  0  0  0  0  0  0  0  0  0
  181.6850  179.4370  143.2520 C   0  0  0  0  0  2  0  0  0  0  0  0
  181.2170  178.8360  141.9160 C   0  0  1  0  0  0  0  0  0  0  0  0
  180.2220  177.7260  142.1940 C   0  0  0  0  0  1  0  0  0  0  0  0
  183.6900  178.9690  141.3700 C   0  0  0  0  0  2  0  0  0  0  0  0
  182.9110  178.7110  143.8020 C   0  0  0  0  0  2  0  0  0  0  0  0
  184.1040  178.8060  142.8390 C   0  0  1  0  0  3  0  0  0  0  0  0
  180.5800  179.8310  141.1780 O   0  0  0  0  0  1  0  0  0  0  0  0
  182.3710  178.2580  141.0820 C   0  0  0  0  0  2  0  0  0  0  0  0
  1  8  1  0  0  0  0
  1  6  1  0  0  0  0
  2 12  1  1  0  0  0
  3 16  1  6  0  0  0
  3 14  1  0  0  0  0
  3 10  1  0  0  0  0
  4 15  1  0  0  0  0
  4  8  2  0  0  0  0
  5  1  2  0  0  0  0
  7  4  1  0  0  0  0
  9  7  2  0  0  0  0
  9  5  1  0  0  0  0
 11 10  1  1  0  0  0
 11  2  1  0  0  0  0
 11  7  1  0  0  0  0
 12 15  1  0  0  0  0
 13 35  1  6  0  0  0
 13  2  1  0  0  0  0
 14 13  1  0  0  0  0
 16 17  1  1  0  0  0
 18 16  1  0  0  0  0
 19 18  1  0  0  0  0
 20 19  2  0  0  0  0
 21 19  1  0  0  0  0
 22 21  1  6  0  0  0
 23 27  1  0  0  0  0
 23 25  1  0  0  0  0
 24 22  1  0  0  0  0
 25 26  1  6  0  0  0
 25 28  1  0  0  0  0
 25 22  1  0  0  0  0
 27 24  1  0  0  0  0
 29 33  1  0  0  0  0
 29 28  1  1  0  0  0
 29 34  1  0  0  0  0
 31 32  2  0  0  0  0
 32 30  1  0  0  0  0
 33 31  1  0  0  0  0
 34 32  1  0  0  0  0
 36 40  1  0  0  0  0
 37 38  1  1  0  0  0
 37 36  1  0  0  0  0
 39 41  1  0  0  0  0
 41 35  1  6  0  0  0
 41 40  1  0  0  0  0
 42 37  1  0  0  0  0
 43 39  1  0  0  0  0
 43 37  1  0  0  0  0
M  END
>  <MODEL>
1

>  <REMARK>
 VINA RESULT:      -9.5      0.000      0.000
  Name = 
  9 active torsions:
  status: ('A' for Active; 'I' for Inactive)
    1  A    between atoms: O_1  and  C_34
    2  A    between atoms: O_1  and  C_35
    3  A    between atoms: C_2  and  C_6
    4  A    between atoms: C_2  and  C_13
    5  A    between atoms: O_3  and  C_4
    6  A    between atoms: O_3  and  C_12
    7  A    between atoms: C_6  and  C_12
    8  A    between atoms: C_11  and  O_14
    9  A    between atoms: O_14  and  C_22
                            x       y       z     vdW  Elec       q    Type
                         _______ _______ _______ _____ _____    ______ ____

>  <TORSDO>
F 9

$$$$
=
 OpenBabel11052416093D

 43 48  0  0  1  0  0  0  0  0999 V2000
  191.4370  176.3880  146.8080 C   0  0  0  0  0  0  0  0  0  0  0  0
  189.2040  177.9470  142.4360 C   0  0  1  0  0  3  0  0  0  0  0  0
  186.4230  177.6540  142.9900 C   0  0  2  0  0  3  0  0  0  0  0  0
  190.8120  176.6930  144.4810 C   0  0  0  0  0  0  0  0  0  0  0  0
  190.3020  177.0980  147.2100 C   0  0  0  0  0  3  0  0  0  0  0  0
  192.3750  175.8450  147.8270 C   0  0  0  0  0  1  0  0  0  0  0  0
  189.6750  177.4270  144.8870 C   0  0  0  0  0  0  0  0  0  0  0  0
  191.6940  176.1930  145.4470 C   0  0  0  0  0  3  0  0  0  0  0  0
  189.4270  177.6160  146.2530 C   0  0  0  0  0  3  0  0  0  0  0  0
  187.4180  177.2200  143.9940 N   0  0  0  0  0  2  0  0  0  0  0  0
  188.6810  177.9590  143.8870 C   0  0  2  0  0  3  0  0  0  0  0  0
  189.9340  176.6440  142.1370 C   0  0  0  0  0  2  0  0  0  0  0  0
  188.0310  178.1000  141.4670 C   0  0  1  0  0  3  0  0  0  0  0  0
  186.9230  178.6570  142.1290 O   0  0  0  0  0  0  0  0  0  0  0  0
  191.1600  176.5280  143.0310 C   0  0  0  0  0  2  0  0  0  0  0  0
  185.1540  178.1530  143.6800 C   0  0  1  0  0  3  0  0  0  0  0  0
  185.4960  178.7210  145.0490 C   0  0  0  0  0  1  0  0  0  0  0  0
  184.4770  179.2320  142.8450 C   0  0  0  0  0  2  0  0  0  0  0  0
  183.0240  178.9290  142.6720 C   0  0  0  0  0  0  0  0  0  0  0  0
  182.3690  178.4920  143.6530 O   0  0  0  0  0  0  0  0  0  0  0  0
  182.3760  179.1150  141.4480 O   0  0  0  0  0  0  0  0  0  0  0  0
  182.9020  178.6280  140.2160 C   0  0  1  0  0  3  0  0  0  0  0  0
  182.2120  177.6990  138.1100 C   0  0  0  0  0  2  0  0  0  0  0  0
  183.1430  177.1330  140.2960 C   0  0  0  0  0  2  0  0  0  0  0  0
  181.9410  178.8620  139.0420 C   0  0  1  0  0  0  0  0  0  0  0  0
  180.4640  178.7860  139.4520 C   0  0  0  0  0  1  0  0  0  0  0  0
  182.7410  176.5520  138.9540 C   0  0  0  0  0  2  0  0  0  0  0  0
  182.2300  180.0610  138.3440 O   0  0  0  0  0  0  0  0  0  0  0  0
  181.0380  180.7550  138.0710 C   0  0  2  0  0  3  0  0  0  0  0  0
  181.0130  184.3800  137.2090 C   0  0  0  0  0  1  0  0  0  0  0  0
  180.7540  182.1830  136.2020 N   0  0  0  0  0  0  0  0  0  0  0  0
  180.9840  182.8950  137.2470 C   0  0  0  0  0  0  0  0  0  0  0  0
  180.7850  180.7730  136.5610 C   0  0  0  0  0  2  0  0  0  0  0  0
  181.1880  182.1530  138.4340 N   0  0  0  0  0  2  0  0  0  0  0  0
  188.4000  178.9220  140.4000 O   0  0  0  0  0  0  0  0  0  0  0  0
  189.2640  178.0840  136.9220 C   0  0  0  0  0  2  0  0  0  0  0  0
  187.8090  177.6820  136.6300 C   0  0  1  0  0  0  0  0  0  0  0  0
  187.1440  178.7790  135.8220 C   0  0  0  0  0  1  0  0  0  0  0  0
  187.8600  176.9940  139.0710 C   0  0  0  0  0  2  0  0  0  0  0  0
  189.3850  178.8760  138.2210 C   0  0  0  0  0  2  0  0  0  0  0  0
  188.9090  178.0560  139.4290 C   0  0  1  0  0  3  0  0  0  0  0  0
  187.8110  176.5120  135.8740 O   0  0  0  0  0  1  0  0  0  0  0  0
  186.9850  177.4500  137.9060 C   0  0  0  0  0  2  0  0  0  0  0  0
  1  5  1  0  0  0  0
  1  6  1  0  0  0  0
  2 12  1  6  0  0  0
  2 11  1  0  0  0  0
  3 16  1  1  0  0  0
  3 10  1  0  0  0  0
  4  7  2  0  0  0  0
  4  8  1  0  0  0  0
  7  9  1  0  0  0  0
  8  1  2  0  0  0  0
  9  5  2  0  0  0  0
 11 10  1  6  0  0  0
 11  7  1  0  0  0  0
 12 15  1  0  0  0  0
 13 35  1  6  0  0  0
 13 14  1  0  0  0  0
 13  2  1  0  0  0  0
 14  3  1  0  0  0  0
 15  4  1  0  0  0  0
 16 17  1  1  0  0  0
 18 16  1  0  0  0  0
 19 18  1  0  0  0  0
 19 20  2  0  0  0  0
 21 19  1  0  0  0  0
 22 24  1  0  0  0  0
 22 21  1  1  0  0  0
 23 27  1  0  0  0  0
 23 25  1  0  0  0  0
 25 26  1  1  0  0  0
 25 22  1  0  0  0  0
 27 24  1  0  0  0  0
 28 25  1  0  0  0  0
 29 28  1  6  0  0  0
 29 34  1  0  0  0  0
 30 32  1  0  0  0  0
 31 33  1  0  0  0  0
 31 32  2  0  0  0  0
 32 34  1  0  0  0  0
 33 29  1  0  0  0  0
 36 40  1  0  0  0  0
 37 38  1  6  0  0  0
 37 36  1  0  0  0  0
 37 43  1  0  0  0  0
 39 41  1  0  0  0  0
 40 41  1  0  0  0  0
 41 35  1  1  0  0  0
 42 37  1  0  0  0  0
 43 39  1  0  0  0  0
M  END
>  <MODEL>
2

>  <REMARK>
 VINA RESULT:      -9.3      3.257      7.326
  Name = 
  9 active torsions:
  status: ('A' for Active; 'I' for Inactive)
    1  A    between atoms: O_1  and  C_34
    2  A    between atoms: O_1  and  C_35
    3  A    between atoms: C_2  and  C_6
    4  A    between atoms: C_2  and  C_13
    5  A    between atoms: O_3  and  C_4
    6  A    between atoms: O_3  and  C_12
    7  A    between atoms: C_6  and  C_12
    8  A    between atoms: C_11  and  O_14
    9  A    between atoms: O_14  and  C_22
                            x       y       z     vdW  Elec       q    Type
                         _______ _______ _______ _____ _____    ______ ____

>  <TORSDO>
F 9

$$$$
=
 OpenBabel11052416093D

 43 48  0  0  1  0  0  0  0  0999 V2000
  187.6890  177.8450  147.3200 C   0  0  0  0  0  0  0  0  0  0  0  0
  184.7490  178.2570  143.1110 C   0  0  1  0  0  3  0  0  0  0  0  0
  186.6290  178.9110  141.0700 C   0  0  2  0  0  3  0  0  0  0  0  0
  185.9510  178.4350  145.7310 C   0  0  0  0  0  0  0  0  0  0  0  0
  188.4490  177.2870  146.2880 C   0  0  0  0  0  3  0  0  0  0  0  0
  188.2060  177.8300  148.7150 C   0  0  0  0  0  1  0  0  0  0  0  0
  186.7100  177.8550  144.6910 C   0  0  0  0  0  0  0  0  0  0  0  0
  186.4410  178.4100  147.0430 C   0  0  0  0  0  3  0  0  0  0  0  0
  187.9590  177.2920  144.9790 C   0  0  0  0  0  3  0  0  0  0  0  0
  187.0850  178.7890  142.4720 N   0  0  0  0  0  2  0  0  0  0  0  0
  186.2390  177.8850  143.2600 C   0  0  2  0  0  3  0  0  0  0  0  0
  184.3870  179.4110  144.0360 C   0  0  0  0  0  2  0  0  0  0  0  0
  184.4640  178.6630  141.6640 C   0  0  1  0  0  3  0  0  0  0  0  0
  185.4610  178.1590  140.8120 O   0  0  0  0  0  0  0  0  0  0  0  0
  184.5750  178.9840  145.4850 C   0  0  0  0  0  2  0  0  0  0  0  0
  187.7400  178.4840  140.1120 C   0  0  1  0  0  3  0  0  0  0  0  0
  188.6350  177.4530  140.7800 C   0  0  0  0  0  1  0  0  0  0  0  0
  187.1510  177.8870  138.8400 C   0  0  0  0  0  2  0  0  0  0  0  0
  188.1390  177.9560  137.7200 C   0  0  0  0  0  0  0  0  0  0  0  0
  188.7490  179.0370  137.5090 O   0  0  0  0  0  0  0  0  0  0  0  0
  188.4000  176.8550  136.9020 O   0  0  0  0  0  0  0  0  0  0  0  0
  188.3970  175.5150  137.3890 C   0  0  1  0  0  3  0  0  0  0  0  0
  188.9610  173.2730  136.7350 C   0  0  0  0  0  2  0  0  0  0  0  0
  187.0970  174.8230  137.0300 C   0  0  0  0  0  2  0  0  0  0  0  0
  189.5310  174.6760  136.7840 C   0  0  1  0  0  0  0  0  0  0  0  0
  189.8740  175.0800  135.3440 C   0  0  0  0  0  1  0  0  0  0  0  0
  187.4490  173.3980  136.6510 C   0  0  0  0  0  2  0  0  0  0  0  0
  190.6810  174.6530  137.6110 O   0  0  0  0  0  0  0  0  0  0  0  0
  191.4490  175.8110  137.3930 C   0  0  2  0  0  3  0  0  0  0  0  0
  193.3260  177.4840  140.1440 C   0  0  0  0  0  1  0  0  0  0  0  0
  193.6640  176.0810  138.1880 N   0  0  0  0  0  0  0  0  0  0  0  0
  192.8560  176.7050  138.9680 C   0  0  0  0  0  0  0  0  0  0  0  0
  192.9070  175.4230  137.1340 C   0  0  0  0  0  2  0  0  0  0  0  0
  191.4920  176.6070  138.6080 N   0  0  0  0  0  2  0  0  0  0  0  0
  183.2180  178.1710  141.2690 O   0  0  0  0  0  0  0  0  0  0  0  0
  182.2960  178.4750  137.7190 C   0  0  0  0  0  2  0  0  0  0  0  0
  181.1220  177.5030  137.9150 C   0  0  1  0  0  0  0  0  0  0  0  0
  179.8270  178.2910  137.9470 C   0  0  0  0  0  1  0  0  0  0  0  0
  182.6800  176.4900  139.6400 C   0  0  0  0  0  2  0  0  0  0  0  0
  182.8420  178.9830  139.0520 C   0  0  0  0  0  2  0  0  0  0  0  0
  183.3680  177.8330  139.9220 C   0  0  1  0  0  3  0  0  0  0  0  0
  181.0820  176.6260  136.8330 O   0  0  0  0  0  1  0  0  0  0  0  0
  181.2290  176.6880  139.2130 C   0  0  0  0  0  2  0  0  0  0  0  0
  1  6  1  0  0  0  0
  2 11  1  0  0  0  0
  2 12  1  1  0  0  0
  3 16  1  6  0  0  0
  3 10  1  0  0  0  0
  4  8  2  0  0  0  0
  5  1  2  0  0  0  0
  7  9  2  0  0  0  0
  7  4  1  0  0  0  0
  8  1  1  0  0  0  0
  9  5  1  0  0  0  0
 11 10  1  6  0  0  0
 11  7  1  0  0  0  0
 12 15  1  0  0  0  0
 13 35  1  6  0  0  0
 13  2  1  0  0  0  0
 14  3  1  0  0  0  0
 14 13  1  0  0  0  0
 15  4  1  0  0  0  0
 16 17  1  1  0  0  0
 18 16  1  0  0  0  0
 19 18  1  0  0  0  0
 20 19  2  0  0  0  0
 21 19  1  0  0  0  0
 22 21  1  6  0  0  0
 23 25  1  0  0  0  0
 24 22  1  0  0  0  0
 25 26  1  6  0  0  0
 25 22  1  0  0  0  0
 25 28  1  0  0  0  0
 27 23  1  0  0  0  0
 27 24  1  0  0  0  0
 29 28  1  1  0  0  0
 29 34  1  0  0  0  0
 31 32  2  0  0  0  0
 32 30  1  0  0  0  0
 33 29  1  0  0  0  0
 33 31  1  0  0  0  0
 34 32  1  0  0  0  0
 36 37  1  0  0  0  0
 36 40  1  0  0  0  0
 37 38  1  1  0  0  0
 37 43  1  0  0  0  0
 39 41  1  0  0  0  0
 40 41  1  0  0  0  0
 41 35  1  1  0  0  0
 42 37  1  0  0  0  0
 43 39  1  0  0  0  0
M  END
>  <MODEL>
3

>  <REMARK>
 VINA RESULT:      -9.2      1.876      2.787
  Name = 
  9 active torsions:
  status: ('A' for Active; 'I' for Inactive)
    1  A    between atoms: O_1  and  C_34
    2  A    between atoms: O_1  and  C_35
    3  A    between atoms: C_2  and  C_6
    4  A    between atoms: C_2  and  C_13
    5  A    between atoms: O_3  and  C_4
    6  A    between atoms: O_3  and  C_12
    7  A    between atoms: C_6  and  C_12
    8  A    between atoms: C_11  and  O_14
    9  A    between atoms: O_14  and  C_22
                            x       y       z     vdW  Elec       q    Type
                         _______ _______ _______ _____ _____    ______ ____

>  <TORSDO>
F 9

$$$$
=
 OpenBabel11052416093D

 43 48  0  0  1  0  0  0  0  0999 V2000
  187.9040  177.8020  147.0580 C   0  0  0  0  0  0  0  0  0  0  0  0
  185.2500  178.1640  142.6580 C   0  0  1  0  0  3  0  0  0  0  0  0
  187.2880  178.5560  140.7030 C   0  0  2  0  0  3  0  0  0  0  0  0
  186.3090  178.4170  145.3330 C   0  0  0  0  0  0  0  0  0  0  0  0
  188.6780  177.1290  146.1080 C   0  0  0  0  0  3  0  0  0  0  0  0
  188.3370  177.8360  148.4800 C   0  0  0  0  0  1  0  0  0  0  0  0
  187.0810  177.7210  144.3760 C   0  0  0  0  0  0  0  0  0  0  0  0
  186.7190  178.4370  146.6720 C   0  0  0  0  0  3  0  0  0  0  0  0
  188.2660  177.0890  144.7730 C   0  0  0  0  0  3  0  0  0  0  0  0
  187.6520  178.4880  142.1360 N   0  0  0  0  0  2  0  0  0  0  0  0
  186.6970  177.6970  142.9190 C   0  0  2  0  0  3  0  0  0  0  0  0
  184.9230  179.3970  143.4920 C   0  0  0  0  0  2  0  0  0  0  0  0
  185.0800  178.5010  141.1760 C   0  0  1  0  0  3  0  0  0  0  0  0
  186.0840  177.8750  140.4170 O   0  0  0  0  0  0  0  0  0  0  0  0
  184.9950  179.0470  144.9710 C   0  0  0  0  0  2  0  0  0  0  0  0
  188.4170  177.9920  139.8420 C   0  0  1  0  0  3  0  0  0  0  0  0
  188.5770  178.8280  138.5820 C   0  0  0  0  0  1  0  0  0  0  0  0
  189.7310  177.9910  140.6120 C   0  0  0  0  0  2  0  0  0  0  0  0
  190.2600  176.5990  140.7490 C   0  0  0  0  0  0  0  0  0  0  0  0
  190.2500  176.0500  141.8820 O   0  0  0  0  0  0  0  0  0  0  0  0
  190.7660  175.8950  139.6550 O   0  0  0  0  0  0  0  0  0  0  0  0
  191.3020  176.5420  138.5030 C   0  0  1  0  0  3  0  0  0  0  0  0
  192.1140  176.0780  136.2890 C   0  0  0  0  0  2  0  0  0  0  0  0
  192.8160  176.5820  138.5740 C   0  0  0  0  0  2  0  0  0  0  0  0
  190.9360  175.8110  137.2040 C   0  0  1  0  0  0  0  0  0  0  0  0
  190.8300  174.2910  137.3800 C   0  0  0  0  0  1  0  0  0  0  0  0
  193.3270  176.3240  137.1700 C   0  0  0  0  0  2  0  0  0  0  0  0
  189.7760  176.3510  136.5940 O   0  0  0  0  0  0  0  0  0  0  0  0
  188.8180  175.3380  136.4100 C   0  0  2  0  0  3  0  0  0  0  0  0
  185.1620  175.9970  136.7040 C   0  0  0  0  0  1  0  0  0  0  0  0
  186.8950  175.5880  135.0490 N   0  0  0  0  0  0  0  0  0  0  0  0
  186.5640  175.7420  136.2810 C   0  0  0  0  0  0  0  0  0  0  0  0
  188.3280  175.3490  134.9590 C   0  0  0  0  0  2  0  0  0  0  0  0
  187.6340  175.6310  137.1990 N   0  0  0  0  0  2  0  0  0  0  0  0
  183.8260  178.0760  140.7330 O   0  0  0  0  0  0  0  0  0  0  0  0
  181.0140  179.9480  139.2720 C   0  0  0  0  0  2  0  0  0  0  0  0
  181.0230  179.0420  138.0300 C   0  0  1  0  0  0  0  0  0  0  0  0
  179.8620  178.0700  138.1190 C   0  0  0  0  0  1  0  0  0  0  0  0
  183.5090  178.9560  138.5190 C   0  0  0  0  0  2  0  0  0  0  0  0
  181.8270  179.3500  140.4170 C   0  0  0  0  0  2  0  0  0  0  0  0
  183.3000  179.1610  140.0260 C   0  0  1  0  0  3  0  0  0  0  0  0
  180.8540  179.8340  136.8970 O   0  0  0  0  0  1  0  0  0  0  0  0
  182.3220  178.2350  137.8870 C   0  0  0  0  0  2  0  0  0  0  0  0
  1  6  1  0  0  0  0
  2 11  1  0  0  0  0
  2 12  1  1  0  0  0
  3 16  1  6  0  0  0
  3 10  1  0  0  0  0
  4  8  2  0  0  0  0
  5  1  2  0  0  0  0
  7  9  2  0  0  0  0
  7  4  1  0  0  0  0
  8  1  1  0  0  0  0
  9  5  1  0  0  0  0
 11 10  1  6  0  0  0
 11  7  1  0  0  0  0
 12 15  1  0  0  0  0
 13 35  1  6  0  0  0
 13  2  1  0  0  0  0
 14  3  1  0  0  0  0
 14 13  1  0  0  0  0
 15  4  1  0  0  0  0
 16 17  1  6  0  0  0
 16 18  1  0  0  0  0
 18 19  1  0  0  0  0
 19 20  2  0  0  0  0
 21 19  1  0  0  0  0
 22 24  1  0  0  0  0
 22 21  1  1  0  0  0
 23 27  1  0  0  0  0
 23 25  1  0  0  0  0
 25 26  1  1  0  0  0
 25 22  1  0  0  0  0
 27 24  1  0  0  0  0
 28 25  1  0  0  0  0
 29 28  1  6  0  0  0
 29 34  1  0  0  0  0
 31 32  2  0  0  0  0
 32 30  1  0  0  0  0
 32 34  1  0  0  0  0
 33 31  1  0  0  0  0
 33 29  1  0  0  0  0
 36 40  1  0  0  0  0
 37 38  1  1  0  0  0
 37 36  1  0  0  0  0
 39 41  1  0  0  0  0
 41 40  1  0  0  0  0
 41 35  1  1  0  0  0
 42 37  1  0  0  0  0
 43 37  1  0  0  0  0
 43 39  1  0  0  0  0
M  END
>  <MODEL>
4

>  <REMARK>
 VINA RESULT:      -9.0      2.082      3.946
  Name = 
  9 active torsions:
  status: ('A' for Active; 'I' for Inactive)
    1  A    between atoms: O_1  and  C_34
    2  A    between atoms: O_1  and  C_35
    3  A    between atoms: C_2  and  C_6
    4  A    between atoms: C_2  and  C_13
    5  A    between atoms: O_3  and  C_4
    6  A    between atoms: O_3  and  C_12
    7  A    between atoms: C_6  and  C_12
    8  A    between atoms: C_11  and  O_14
    9  A    between atoms: O_14  and  C_22
                            x       y       z     vdW  Elec       q    Type
                         _______ _______ _______ _____ _____    ______ ____

>  <TORSDO>
F 9

$$$$
=
 OpenBabel11052416093D

 43 48  0  0  1  0  0  0  0  0999 V2000
  187.7070  177.7430  147.2220 C   0  0  0  0  0  0  0  0  0  0  0  0
  185.5660  178.1460  142.5550 C   0  0  1  0  0  3  0  0  0  0  0  0
  187.7870  178.7480  140.8730 C   0  0  2  0  0  3  0  0  0  0  0  0
  186.2870  178.3400  145.3450 C   0  0  0  0  0  0  0  0  0  0  0  0
  188.6280  177.1620  146.3460 C   0  0  0  0  0  3  0  0  0  0  0  0
  187.9680  177.7390  148.6870 C   0  0  0  0  0  1  0  0  0  0  0  0
  187.2080  177.7360  144.4610 C   0  0  0  0  0  0  0  0  0  0  0  0
  186.5370  178.3240  146.7230 C   0  0  0  0  0  3  0  0  0  0  0  0
  188.3780  177.1580  144.9720 C   0  0  0  0  0  3  0  0  0  0  0  0
  187.9860  178.6360  142.3350 N   0  0  0  0  0  2  0  0  0  0  0  0
  186.9990  177.7550  142.9690 C   0  0  2  0  0  3  0  0  0  0  0  0
  185.0650  179.3180  143.3900 C   0  0  0  0  0  2  0  0  0  0  0  0
  185.5480  178.5390  141.0770 C   0  0  1  0  0  3  0  0  0  0  0  0
  186.6710  178.0100  140.4200 O   0  0  0  0  0  0  0  0  0  0  0  0
  184.9860  178.9060  144.8540 C   0  0  0  0  0  2  0  0  0  0  0  0
  189.0430  178.2920  140.1310 C   0  0  1  0  0  3  0  0  0  0  0  0
  189.9190  177.4590  141.0530 C   0  0  0  0  0  1  0  0  0  0  0  0
  188.6730  177.4630  138.9080 C   0  0  0  0  0  2  0  0  0  0  0  0
  188.3420  178.3510  137.7520 C   0  0  0  0  0  0  0  0  0  0  0  0
  188.9620  179.4380  137.6180 O   0  0  0  0  0  0  0  0  0  0  0  0
  187.3620  178.0060  136.8180 O   0  0  0  0  0  0  0  0  0  0  0  0
  186.4650  176.9140  137.0100 C   0  0  1  0  0  3  0  0  0  0  0  0
  185.2790  175.2160  135.7930 C   0  0  0  0  0  2  0  0  0  0  0  0
  185.0280  177.3820  136.8930 C   0  0  0  0  0  2  0  0  0  0  0  0
  186.6620  175.8110  135.9620 C   0  0  1  0  0  0  0  0  0  0  0  0
  187.0960  176.3540  134.5940 C   0  0  0  0  0  1  0  0  0  0  0  0
  184.2720  176.2940  136.1560 C   0  0  0  0  0  2  0  0  0  0  0  0
  187.5280  174.7860  136.4180 O   0  0  0  0  0  0  0  0  0  0  0  0
  188.6630  174.7170  135.5910 C   0  0  2  0  0  3  0  0  0  0  0  0
  192.0640  174.0400  136.9580 C   0  0  0  0  0  1  0  0  0  0  0  0
  190.2660  172.9770  135.7130 N   0  0  0  0  0  0  0  0  0  0  0  0
  190.7180  174.0110  136.3280 C   0  0  0  0  0  0  0  0  0  0  0  0
  188.9330  173.2600  135.2050 C   0  0  0  0  0  2  0  0  0  0  0  0
  189.8410  175.1210  136.3400 N   0  0  0  0  0  2  0  0  0  0  0  0
  184.3830  178.0610  140.4720 O   0  0  0  0  0  0  0  0  0  0  0  0
  180.9740  179.4430  140.5750 C   0  0  0  0  0  2  0  0  0  0  0  0
  180.8290  179.2650  139.0550 C   0  0  1  0  0  0  0  0  0  0  0  0
  179.9470  178.0630  138.7800 C   0  0  0  0  0  1  0  0  0  0  0  0
  183.3230  179.7220  139.0980 C   0  0  0  0  0  2  0  0  0  0  0  0
  182.1640  178.6620  141.1280 C   0  0  0  0  0  2  0  0  0  0  0  0
  183.4870  179.1310  140.5050 C   0  0  1  0  0  3  0  0  0  0  0  0
  180.2130  180.3980  138.5290 O   0  0  0  0  0  1  0  0  0  0  0  0
  182.1750  179.0540  138.3460 C   0  0  0  0  0  2  0  0  0  0  0  0
  1  6  1  0  0  0  0
  2 11  1  0  0  0  0
  2 12  1  1  0  0  0
  3 16  1  6  0  0  0
  3 10  1  0  0  0  0
  4  8  2  0  0  0  0
  5  1  2  0  0  0  0
  7  9  2  0  0  0  0
  7  4  1  0  0  0  0
  8  1  1  0  0  0  0
  9  5  1  0  0  0  0
 11 10  1  6  0  0  0
 11  7  1  0  0  0  0
 12 15  1  0  0  0  0
 13 35  1  6  0  0  0
 13  2  1  0  0  0  0
 14  3  1  0  0  0  0
 14 13  1  0  0  0  0
 15  4  1  0  0  0  0
 16 17  1  1  0  0  0
 18 16  1  0  0  0  0
 19 18  1  0  0  0  0
 20 19  2  0  0  0  0
 21 19  1  0  0  0  0
 22 21  1  6  0  0  0
 23 25  1  0  0  0  0
 23 27  1  0  0  0  0
 24 22  1  0  0  0  0
 25 26  1  6  0  0  0
 25 28  1  0  0  0  0
 25 22  1  0  0  0  0
 27 24  1  0  0  0  0
 29 34  1  0  0  0  0
 29 28  1  1  0  0  0
 31 32  2  0  0  0  0
 32 34  1  0  0  0  0
 32 30  1  0  0  0  0
 33 29  1  0  0  0  0
 33 31  1  0  0  0  0
 36 40  1  0  0  0  0
 37 38  1  6  0  0  0
 37 36  1  0  0  0  0
 39 41  1  0  0  0  0
 41 35  1  6  0  0  0
 41 40  1  0  0  0  0
 42 37  1  0  0  0  0
 43 37  1  0  0  0  0
 43 39  1  0  0  0  0
M  END
>  <MODEL>
5

>  <REMARK>
 VINA RESULT:      -8.9      1.784      2.538
  Name = 
  9 active torsions:
  status: ('A' for Active; 'I' for Inactive)
    1  A    between atoms: O_1  and  C_34
    2  A    between atoms: O_1  and  C_35
    3  A    between atoms: C_2  and  C_6
    4  A    between atoms: C_2  and  C_13
    5  A    between atoms: O_3  and  C_4
    6  A    between atoms: O_3  and  C_12
    7  A    between atoms: C_6  and  C_12
    8  A    between atoms: C_11  and  O_14
    9  A    between atoms: O_14  and  C_22
                            x       y       z     vdW  Elec       q    Type
                         _______ _______ _______ _____ _____    ______ ____

>  <TORSDO>
F 9

$$$$
=
 OpenBabel11052416093D

 43 48  0  0  1  0  0  0  0  0999 V2000
  191.3680  176.4730  146.6920 C   0  0  0  0  0  0  0  0  0  0  0  0
  189.1160  178.0370  142.3320 C   0  0  1  0  0  3  0  0  0  0  0  0
  186.3390  177.7060  142.8830 C   0  0  2  0  0  3  0  0  0  0  0  0
  190.7390  176.7880  144.3680 C   0  0  0  0  0  0  0  0  0  0  0  0
  190.2250  177.1660  147.1000 C   0  0  0  0  0  3  0  0  0  0  0  0
  192.3130  175.9340  147.7070 C   0  0  0  0  0  1  0  0  0  0  0  0
  189.5940  177.5050  144.7790 C   0  0  0  0  0  0  0  0  0  0  0  0
  191.6270  176.2910  145.3300 C   0  0  0  0  0  3  0  0  0  0  0  0
  189.3430  177.6800  146.1460 C   0  0  0  0  0  3  0  0  0  0  0  0
  187.3390  177.2760  143.8850 N   0  0  0  0  0  2  0  0  0  0  0  0
  188.5930  178.0320  143.7840 C   0  0  2  0  0  3  0  0  0  0  0  0
  189.8620  176.7460  142.0230 C   0  0  0  0  0  2  0  0  0  0  0  0
  187.9410  178.1830  141.3640 C   0  0  1  0  0  3  0  0  0  0  0  0
  186.8260  178.7210  142.0300 O   0  0  0  0  0  0  0  0  0  0  0  0
  191.0900  176.6380  142.9160 C   0  0  0  0  0  2  0  0  0  0  0  0
  185.0640  178.1830  143.5780 C   0  0  1  0  0  3  0  0  0  0  0  0
  185.4170  179.0760  144.7560 C   0  0  0  0  0  1  0  0  0  0  0  0
  184.1830  178.9590  142.6070 C   0  0  0  0  0  2  0  0  0  0  0  0
  182.7560  178.9280  143.0520 C   0  0  0  0  0  0  0  0  0  0  0  0
  182.4930  178.6130  144.2420 O   0  0  0  0  0  0  0  0  0  0  0  0
  181.7080  179.2370  142.1820 O   0  0  0  0  0  0  0  0  0  0  0  0
  181.1200  178.2720  141.3110 C   0  0  1  0  0  3  0  0  0  0  0  0
  180.2370  178.0320  139.0900 C   0  0  0  0  0  2  0  0  0  0  0  0
  179.6090  178.2990  141.4350 C   0  0  0  0  0  2  0  0  0  0  0  0
  181.4520  178.5430  139.8380 C   0  0  1  0  0  0  0  0  0  0  0  0
  181.5910  180.0370  139.5180 C   0  0  0  0  0  1  0  0  0  0  0  0
  179.0520  178.1120  140.0370 C   0  0  0  0  0  2  0  0  0  0  0  0
  182.5800  177.8050  139.3980 O   0  0  0  0  0  0  0  0  0  0  0  0
  182.1860  176.8570  138.4380 C   0  0  2  0  0  3  0  0  0  0  0  0
  184.4770  175.7180  135.7290 C   0  0  0  0  0  1  0  0  0  0  0  0
  183.5040  174.9840  137.8320 N   0  0  0  0  0  0  0  0  0  0  0  0
  183.6360  175.9010  136.9410 C   0  0  0  0  0  0  0  0  0  0  0  0
  182.6200  175.4580  138.8860 C   0  0  0  0  0  2  0  0  0  0  0  0
  182.9070  177.0840  137.1980 N   0  0  0  0  0  2  0  0  0  0  0  0
  188.2990  179.0170  140.3030 O   0  0  0  0  0  0  0  0  0  0  0  0
  189.2100  178.1700  136.8400 C   0  0  0  0  0  2  0  0  0  0  0  0
  187.7910  177.6460  136.5680 C   0  0  1  0  0  0  0  0  0  0  0  0
  187.0360  178.6670  135.7390 C   0  0  0  0  0  1  0  0  0  0  0  0
  187.9090  177.0220  139.0230 C   0  0  0  0  0  2  0  0  0  0  0  0
  189.2740  178.9990  138.1200 C   0  0  0  0  0  2  0  0  0  0  0  0
  188.8720  178.1720  139.3500 C   0  0  1  0  0  3  0  0  0  0  0  0
  187.8830  176.4620  135.8390 O   0  0  0  0  0  1  0  0  0  0  0  0
  186.9950  177.3780  137.8550 C   0  0  0  0  0  2  0  0  0  0  0  0
  1  5  1  0  0  0  0
  1  6  1  0  0  0  0
  2 12  1  6  0  0  0
  2 11  1  0  0  0  0
  3 16  1  1  0  0  0
  3 10  1  0  0  0  0
  4  7  2  0  0  0  0
  4  8  1  0  0  0  0
  7  9  1  0  0  0  0
  8  1  2  0  0  0  0
  9  5  2  0  0  0  0
 11 10  1  6  0  0  0
 11  7  1  0  0  0  0
 12 15  1  0  0  0  0
 13 35  1  6  0  0  0
 13 14  1  0  0  0  0
 13  2  1  0  0  0  0
 14  3  1  0  0  0  0
 15  4  1  0  0  0  0
 16 17  1  1  0  0  0
 18 19  1  0  0  0  0
 18 16  1  0  0  0  0
 19 20  2  0  0  0  0
 21 19  1  0  0  0  0
 22 24  1  0  0  0  0
 22 21  1  1  0  0  0
 23 25  1  0  0  0  0
 23 27  1  0  0  0  0
 25 26  1  6  0  0  0
 25 22  1  0  0  0  0
 27 24  1  0  0  0  0
 28 25  1  0  0  0  0
 29 33  1  0  0  0  0
 29 28  1  1  0  0  0
 30 32  1  0  0  0  0
 31 33  1  0  0  0  0
 32 34  1  0  0  0  0
 32 31  2  0  0  0  0
 34 29  1  0  0  0  0
 36 40  1  0  0  0  0
 37 38  1  6  0  0  0
 37 36  1  0  0  0  0
 37 43  1  0  0  0  0
 39 41  1  0  0  0  0
 40 41  1  0  0  0  0
 41 35  1  1  0  0  0
 42 37  1  0  0  0  0
 43 39  1  0  0  0  0
M  END
>  <MODEL>
6

>  <REMARK>
 VINA RESULT:      -8.9      2.668      6.698
  Name = 
  9 active torsions:
  status: ('A' for Active; 'I' for Inactive)
    1  A    between atoms: O_1  and  C_34
    2  A    between atoms: O_1  and  C_35
    3  A    between atoms: C_2  and  C_6
    4  A    between atoms: C_2  and  C_13
    5  A    between atoms: O_3  and  C_4
    6  A    between atoms: O_3  and  C_12
    7  A    between atoms: C_6  and  C_12
    8  A    between atoms: C_11  and  O_14
    9  A    between atoms: O_14  and  C_22
                            x       y       z     vdW  Elec       q    Type
                         _______ _______ _______ _____ _____    ______ ____

>  <TORSDO>
F 9

$$$$
=
 OpenBabel11052416093D

 43 48  0  0  1  0  0  0  0  0999 V2000
  187.7870  177.8530  147.3880 C   0  0  0  0  0  0  0  0  0  0  0  0
  185.3620  178.1810  142.8560 C   0  0  1  0  0  3  0  0  0  0  0  0
  187.4730  178.7780  141.0350 C   0  0  2  0  0  3  0  0  0  0  0  0
  186.2510  178.4150  145.5940 C   0  0  0  0  0  0  0  0  0  0  0  0
  188.6580  177.2680  146.4650 C   0  0  0  0  0  3  0  0  0  0  0  0
  188.1370  177.8680  148.8340 C   0  0  0  0  0  1  0  0  0  0  0  0
  187.1220  177.8070  144.6630 C   0  0  0  0  0  0  0  0  0  0  0  0
  186.5840  178.4180  146.9540 C   0  0  0  0  0  3  0  0  0  0  0  0
  188.3250  177.2440  145.1090 C   0  0  0  0  0  3  0  0  0  0  0  0
  187.7610  178.6860  142.4830 N   0  0  0  0  0  2  0  0  0  0  0  0
  186.8220  177.8050  143.1860 C   0  0  2  0  0  3  0  0  0  0  0  0
  184.9040  179.3590  143.7060 C   0  0  0  0  0  2  0  0  0  0  0  0
  185.2510  178.5550  141.3770 C   0  0  1  0  0  3  0  0  0  0  0  0
  186.3370  178.0260  140.6590 O   0  0  0  0  0  0  0  0  0  0  0  0
  184.9180  178.9650  145.1760 C   0  0  0  0  0  2  0  0  0  0  0  0
  188.6850  178.3220  140.2230 C   0  0  1  0  0  3  0  0  0  0  0  0
  189.5820  177.4410  141.0770 C   0  0  0  0  0  1  0  0  0  0  0  0
  188.2430  177.5430  138.9910 C   0  0  0  0  0  2  0  0  0  0  0  0
  189.2710  177.6410  137.9100 C   0  0  0  0  0  0  0  0  0  0  0  0
  189.0560  178.3990  136.9290 O   0  0  0  0  0  0  0  0  0  0  0  0
  190.4610  176.9110  137.9600 O   0  0  0  0  0  0  0  0  0  0  0  0
  190.4980  175.4890  137.8660 C   0  0  1  0  0  3  0  0  0  0  0  0
  191.2620  173.7160  136.4360 C   0  0  0  0  0  2  0  0  0  0  0  0
  189.2830  174.9760  137.1170 C   0  0  0  0  0  2  0  0  0  0  0  0
  191.7340  174.9900  137.1060 C   0  0  1  0  0  0  0  0  0  0  0  0
  192.1850  175.9500  135.9970 C   0  0  0  0  0  1  0  0  0  0  0  0
  189.7600  173.8330  136.2410 C   0  0  0  0  0  2  0  0  0  0  0  0
  192.8010  174.6580  137.9770 O   0  0  0  0  0  0  0  0  0  0  0  0
  193.9710  174.4250  137.2330 C   0  0  2  0  0  3  0  0  0  0  0  0
  197.3550  174.5020  138.7930 C   0  0  0  0  0  1  0  0  0  0  0  0
  195.6930  172.9530  137.9280 N   0  0  0  0  0  0  0  0  0  0  0  0
  196.0410  174.1630  138.1860 C   0  0  0  0  0  0  0  0  0  0  0  0
  194.3630  172.9480  137.3360 C   0  0  0  0  0  2  0  0  0  0  0  0
  195.0850  175.1420  137.8300 N   0  0  0  0  0  2  0  0  0  0  0  0
  184.0560  178.0600  140.8500 O   0  0  0  0  0  0  0  0  0  0  0  0
  181.2020  179.7820  139.2900 C   0  0  0  0  0  2  0  0  0  0  0  0
  181.3470  178.9250  138.0210 C   0  0  1  0  0  0  0  0  0  0  0  0
  180.2570  177.8710  138.0090 C   0  0  0  0  0  1  0  0  0  0  0  0
  183.8020  178.9980  138.6530 C   0  0  0  0  0  2  0  0  0  0  0  0
  181.9910  179.2000  140.4600 C   0  0  0  0  0  2  0  0  0  0  0  0
  183.4930  179.1300  140.1510 C   0  0  1  0  0  3  0  0  0  0  0  0
  181.1850  179.7450  136.9070 O   0  0  0  0  0  1  0  0  0  0  0  0
  182.7080  178.2190  137.9280 C   0  0  0  0  0  2  0  0  0  0  0  0
  1  6  1  0  0  0  0
  2 11  1  0  0  0  0
  2 12  1  1  0  0  0
  3 16  1  6  0  0  0
  3 10  1  0  0  0  0
  4  8  2  0  0  0  0
  5  1  2  0  0  0  0
  7  9  2  0  0  0  0
  7  4  1  0  0  0  0
  8  1  1  0  0  0  0
  9  5  1  0  0  0  0
 11 10  1  6  0  0  0
 11  7  1  0  0  0  0
 12 15  1  0  0  0  0
 13 35  1  6  0  0  0
 13  2  1  0  0  0  0
 14  3  1  0  0  0  0
 14 13  1  0  0  0  0
 15  4  1  0  0  0  0
 16 17  1  1  0  0  0
 18 16  1  0  0  0  0
 19 21  1  0  0  0  0
 19 18  1  0  0  0  0
 20 19  2  0  0  0  0
 22 21  1  6  0  0  0
 23 25  1  0  0  0  0
 24 22  1  0  0  0  0
 25 26  1  6  0  0  0
 25 22  1  0  0  0  0
 25 28  1  0  0  0  0
 27 23  1  0  0  0  0
 27 24  1  0  0  0  0
 29 33  1  0  0  0  0
 29 34  1  0  0  0  0
 29 28  1  1  0  0  0
 31 32  2  0  0  0  0
 32 30  1  0  0  0  0
 33 31  1  0  0  0  0
 34 32  1  0  0  0  0
 36 40  1  0  0  0  0
 37 38  1  6  0  0  0
 37 36  1  0  0  0  0
 39 41  1  0  0  0  0
 41 40  1  0  0  0  0
 41 35  1  1  0  0  0
 42 37  1  0  0  0  0
 43 37  1  0  0  0  0
 43 39  1  0  0  0  0
M  END
>  <MODEL>
7

>  <REMARK>
 VINA RESULT:      -8.6      2.182      3.135
  Name = 
  9 active torsions:
  status: ('A' for Active; 'I' for Inactive)
    1  A    between atoms: O_1  and  C_34
    2  A    between atoms: O_1  and  C_35
    3  A    between atoms: C_2  and  C_6
    4  A    between atoms: C_2  and  C_13
    5  A    between atoms: O_3  and  C_4
    6  A    between atoms: O_3  and  C_12
    7  A    between atoms: C_6  and  C_12
    8  A    between atoms: C_11  and  O_14
    9  A    between atoms: O_14  and  C_22
                            x       y       z     vdW  Elec       q    Type
                         _______ _______ _______ _____ _____    ______ ____

>  <TORSDO>
F 9

$$$$
=
 OpenBabel11052416093D

 43 48  0  0  1  0  0  0  0  0999 V2000
  193.8030  175.6880  135.4810 C   0  0  0  0  0  0  0  0  0  0  0  0
  190.6490  176.6550  139.4370 C   0  0  1  0  0  3  0  0  0  0  0  0
  188.6380  178.3070  138.2740 C   0  0  2  0  0  3  0  0  0  0  0  0
  192.8840  176.3110  137.6410 C   0  0  0  0  0  0  0  0  0  0  0  0
  192.5150  175.6570  134.9380 C   0  0  0  0  0  3  0  0  0  0  0  0
  194.9780  175.3750  134.6260 C   0  0  0  0  0  1  0  0  0  0  0  0
  191.5810  176.2610  137.0970 C   0  0  0  0  0  0  0  0  0  0  0  0
  193.9850  176.0070  136.8310 C   0  0  0  0  0  3  0  0  0  0  0  0
  191.4100  175.9420  135.7440 C   0  0  0  0  0  3  0  0  0  0  0  0
  189.7950  177.8780  137.4570 N   0  0  0  0  0  2  0  0  0  0  0  0
  190.3690  176.6100  137.9210 C   0  0  2  0  0  3  0  0  0  0  0  0
  191.9680  177.3620  139.7210 C   0  0  0  0  0  2  0  0  0  0  0  0
  189.5170  177.4000  140.1460 C   0  0  1  0  0  3  0  0  0  0  0  0
  188.3670  177.4190  139.3380 O   0  0  0  0  0  0  0  0  0  0  0  0
  193.1140  176.5750  139.1010 C   0  0  0  0  0  2  0  0  0  0  0  0
  187.3960  178.4560  137.3960 C   0  0  1  0  0  3  0  0  0  0  0  0
  187.7370  178.1280  135.9520 C   0  0  0  0  0  1  0  0  0  0  0  0
  186.2880  177.5250  137.8730 C   0  0  0  0  0  2  0  0  0  0  0  0
  185.1120  178.3120  138.3560 C   0  0  0  0  0  0  0  0  0  0  0  0
  185.3060  179.2990  139.1120 O   0  0  0  0  0  0  0  0  0  0  0  0
  183.8060  177.9780  137.9930 O   0  0  0  0  0  0  0  0  0  0  0  0
  182.6930  178.8320  138.2470 C   0  0  1  0  0  3  0  0  0  0  0  0
  180.5200  178.8380  139.2740 C   0  0  0  0  0  2  0  0  0  0  0  0
  181.6770  178.7270  137.1260 C   0  0  0  0  0  2  0  0  0  0  0  0
  181.9630  178.4620  139.5460 C   0  0  1  0  0  0  0  0  0  0  0  0
  181.9940  176.9570  139.8440 C   0  0  0  0  0  1  0  0  0  0  0  0
  180.3060  178.7670  137.7720 C   0  0  0  0  0  2  0  0  0  0  0  0
  182.4150  179.2260  140.6510 O   0  0  0  0  0  0  0  0  0  0  0  0
  182.4860  178.4130  141.7960 C   0  0  2  0  0  3  0  0  0  0  0  0
  184.8730  179.1120  144.5710 C   0  0  0  0  0  1  0  0  0  0  0  0
  182.5140  179.2670  144.0060 N   0  0  0  0  0  0  0  0  0  0  0  0
  183.7120  178.9600  143.6560 C   0  0  0  0  0  0  0  0  0  0  0  0
  181.6040  179.0020  142.9010 C   0  0  0  0  0  2  0  0  0  0  0  0
  183.8310  178.4500  142.3420 N   0  0  0  0  0  2  0  0  0  0  0  0
  189.2250  176.7760  141.3610 O   0  0  0  0  0  0  0  0  0  0  0  0
  189.8250  178.6330  144.4810 C   0  0  0  0  0  2  0  0  0  0  0  0
  188.9800  177.6230  145.2750 C   0  0  1  0  0  0  0  0  0  0  0  0
  189.9050  176.7130  146.0600 C   0  0  0  0  0  1  0  0  0  0  0  0
  187.7060  177.4730  143.0870 C   0  0  0  0  0  2  0  0  0  0  0  0
  190.1940  178.1020  143.0980 C   0  0  0  0  0  2  0  0  0  0  0  0
  188.9460  177.8160  142.2500 C   0  0  1  0  0  3  0  0  0  0  0  0
  188.1750  178.3200  146.1720 O   0  0  0  0  0  1  0  0  0  0  0  0
  188.0880  176.7520  144.3760 C   0  0  0  0  0  2  0  0  0  0  0  0
  1  8  1  0  0  0  0
  2 12  1  6  0  0  0
  2 13  1  0  0  0  0
  3 16  1  6  0  0  0
  3 14  1  0  0  0  0
  4 15  1  0  0  0  0
  5  1  2  0  0  0  0
  5  9  1  0  0  0  0
  6  1  1  0  0  0  0
  7  4  1  0  0  0  0
  8  4  2  0  0  0  0
  9  7  2  0  0  0  0
 10 11  1  0  0  0  0
 10  3  1  0  0  0  0
 11  7  1  6  0  0  0
 11  2  1  0  0  0  0
 13 35  1  1  0  0  0
 14 13  1  0  0  0  0
 15 12  1  0  0  0  0
 16 17  1  6  0  0  0
 16 18  1  0  0  0  0
 18 19  1  0  0  0  0
 19 20  2  0  0  0  0
 21 19  1  0  0  0  0
 22 21  1  6  0  0  0
 22 25  1  0  0  0  0
 23 25  1  0  0  0  0
 24 27  1  0  0  0  0
 24 22  1  0  0  0  0
 25 26  1  1  0  0  0
 25 28  1  0  0  0  0
 27 23  1  0  0  0  0
 29 28  1  6  0  0  0
 29 34  1  0  0  0  0
 29 33  1  0  0  0  0
 32 31  2  0  0  0  0
 32 30  1  0  0  0  0
 33 31  1  0  0  0  0
 34 32  1  0  0  0  0
 36 37  1  0  0  0  0
 37 38  1  1  0  0  0
 37 42  1  0  0  0  0
 39 43  1  0  0  0  0
 40 36  1  0  0  0  0
 41 35  1  6  0  0  0
 41 39  1  0  0  0  0
 41 40  1  0  0  0  0
 43 37  1  0  0  0  0
M  END
>  <MODEL>
8

>  <REMARK>
 VINA RESULT:      -8.5      2.565      8.039
  Name = 
  9 active torsions:
  status: ('A' for Active; 'I' for Inactive)
    1  A    between atoms: O_1  and  C_34
    2  A    between atoms: O_1  and  C_35
    3  A    between atoms: C_2  and  C_6
    4  A    between atoms: C_2  and  C_13
    5  A    between atoms: O_3  and  C_4
    6  A    between atoms: O_3  and  C_12
    7  A    between atoms: C_6  and  C_12
    8  A    between atoms: C_11  and  O_14
    9  A    between atoms: O_14  and  C_22
                            x       y       z     vdW  Elec       q    Type
                         _______ _______ _______ _____ _____    ______ ____

>  <TORSDO>
F 9

$$$$
=
 OpenBabel11052416093D

 43 48  0  0  1  0  0  0  0  0999 V2000
  191.6210  173.5280  136.5130 C   0  0  0  0  0  0  0  0  0  0  0  0
  189.5750  177.2790  139.3890 C   0  0  1  0  0  3  0  0  0  0  0  0
  187.4200  178.2260  137.7810 C   0  0  2  0  0  3  0  0  0  0  0  0
  191.2860  175.4960  137.8940 C   0  0  0  0  0  0  0  0  0  0  0  0
  190.2390  173.4180  136.3280 C   0  0  0  0  0  3  0  0  0  0  0  0
  192.5360  172.5430  135.8780 C   0  0  0  0  0  1  0  0  0  0  0  0
  189.8900  175.3750  137.7230 C   0  0  0  0  0  0  0  0  0  0  0  0
  192.1410  174.5600  137.3000 C   0  0  0  0  0  3  0  0  0  0  0  0
  189.3790  174.3380  136.9320 C   0  0  0  0  0  3  0  0  0  0  0  0
  188.3220  177.1790  137.2520 N   0  0  0  0  0  2  0  0  0  0  0  0
  188.9320  176.3750  138.3170 C   0  0  2  0  0  3  0  0  0  0  0  0
  190.9550  177.7460  138.9430 C   0  0  0  0  0  2  0  0  0  0  0  0
  188.6860  178.4990  139.6310 C   0  0  1  0  0  3  0  0  0  0  0  0
  187.3760  178.2410  139.1930 O   0  0  0  0  0  0  0  0  0  0  0  0
  191.8770  176.5450  138.7920 C   0  0  0  0  0  2  0  0  0  0  0  0
  186.0090  178.0420  137.2220 C   0  0  1  0  0  3  0  0  0  0  0  0
  185.9750  176.8540  136.2750 C   0  0  0  0  0  1  0  0  0  0  0  0
  185.0120  177.8130  138.3500 C   0  0  0  0  0  2  0  0  0  0  0  0
  184.2190  179.0540  138.6110 C   0  0  0  0  0  0  0  0  0  0  0  0
  184.8220  180.1530  138.7220 O   0  0  0  0  0  0  0  0  0  0  0  0
  182.8280  179.0230  138.7380 O   0  0  0  0  0  0  0  0  0  0  0  0
  182.1620  179.2520  139.9780 C   0  0  1  0  0  3  0  0  0  0  0  0
  180.5890  178.2390  141.4860 C   0  0  0  0  0  2  0  0  0  0  0  0
  180.8300  179.9370  139.7460 C   0  0  0  0  0  2  0  0  0  0  0  0
  181.8680  177.9460  140.7280 C   0  0  1  0  0  0  0  0  0  0  0  0
  181.5830  176.7660  139.7890 C   0  0  0  0  0  1  0  0  0  0  0  0
  179.8460  179.3220  140.7220 C   0  0  0  0  0  2  0  0  0  0  0  0
  182.8760  177.6320  141.6740 O   0  0  0  0  0  0  0  0  0  0  0  0
  183.2750  178.7980  142.3520 C   0  0  2  0  0  3  0  0  0  0  0  0
  184.5580  178.7080  145.8500 C   0  0  0  0  0  1  0  0  0  0  0  0
  185.3080  178.9820  143.5530 N   0  0  0  0  0  0  0  0  0  0  0  0
  184.3460  178.7720  144.3800 C   0  0  0  0  0  0  0  0  0  0  0  0
  184.7850  178.9950  142.1960 C   0  0  0  0  0  2  0  0  0  0  0  0
  183.0730  178.6280  143.7800 N   0  0  0  0  0  2  0  0  0  0  0  0
  188.6700  178.8130  140.9920 O   0  0  0  0  0  0  0  0  0  0  0  0
  188.4400  176.3290  143.6980 C   0  0  0  0  0  2  0  0  0  0  0  0
  189.2370  177.2450  144.6410 C   0  0  1  0  0  0  0  0  0  0  0  0
  188.2840  177.8840  145.6330 C   0  0  0  0  0  1  0  0  0  0  0  0
  190.3520  177.9500  142.4750 C   0  0  0  0  0  2  0  0  0  0  0  0
  187.9370  177.0800  142.4680 C   0  0  0  0  0  2  0  0  0  0  0  0
  189.0980  177.6520  141.6410 C   0  0  1  0  0  3  0  0  0  0  0  0
  190.1580  176.4710  145.3440 O   0  0  0  0  0  1  0  0  0  0  0  0
  189.9870  178.3610  143.8980 C   0  0  0  0  0  2  0  0  0  0  0  0
  1  8  1  0  0  0  0
  2 12  1  6  0  0  0
  2 13  1  0  0  0  0
  3 16  1  6  0  0  0
  3 14  1  0  0  0  0
  4 15  1  0  0  0  0
  5  1  2  0  0  0  0
  5  9  1  0  0  0  0
  6  1  1  0  0  0  0
  7  4  1  0  0  0  0
  7 11  1  0  0  0  0
  8  4  2  0  0  0  0
  9  7  2  0  0  0  0
 10  3  1  0  0  0  0
 11 10  1  6  0  0  0
 11  2  1  0  0  0  0
 13 35  1  1  0  0  0
 14 13  1  0  0  0  0
 15 12  1  0  0  0  0
 16 17  1  6  0  0  0
 16 18  1  0  0  0  0
 18 19  1  0  0  0  0
 19 20  2  0  0  0  0
 19 21  1  0  0  0  0
 22 21  1  6  0  0  0
 22 25  1  0  0  0  0
 24 22  1  0  0  0  0
 24 27  1  0  0  0  0
 25 26  1  6  0  0  0
 25 23  1  0  0  0  0
 25 28  1  0  0  0  0
 27 23  1  0  0  0  0
 29 28  1  6  0  0  0
 29 34  1  0  0  0  0
 31 32  2  0  0  0  0
 32 30  1  0  0  0  0
 33 29  1  0  0  0  0
 33 31  1  0  0  0  0
 34 32  1  0  0  0  0
 36 37  1  0  0  0  0
 37 42  1  0  0  0  0
 37 38  1  1  0  0  0
 39 43  1  0  0  0  0
 40 36  1  0  0  0  0
 41 35  1  1  0  0  0
 41 40  1  0  0  0  0
 41 39  1  0  0  0  0
 43 37  1  0  0  0  0
M  END
>  <MODEL>
9

>  <REMARK>
 VINA RESULT:      -8.3      2.254      7.921
  Name = 
  9 active torsions:
  status: ('A' for Active; 'I' for Inactive)
    1  A    between atoms: O_1  and  C_34
    2  A    between atoms: O_1  and  C_35
    3  A    between atoms: C_2  and  C_6
    4  A    between atoms: C_2  and  C_13
    5  A    between atoms: O_3  and  C_4
    6  A    between atoms: O_3  and  C_12
    7  A    between atoms: C_6  and  C_12
    8  A    between atoms: C_11  and  O_14
    9  A    between atoms: O_14  and  C_22
                            x       y       z     vdW  Elec       q    Type
                         _______ _______ _______ _____ _____    ______ ____

>  <TORSDO>
F 9

$$$$
