=
 OpenBabel11052413553D

 27 31  0  0  1  0  0  0  0  0999 V2000
  187.7910  177.5840  144.0530 C   0  0  0  0  0  3  0  0  0  0  0  0
  189.7920  177.4390  142.6750 C   0  0  0  0  0  0  0  0  0  0  0  0
  186.7970  178.6700  140.6290 C   0  0  0  0  0  2  0  0  0  0  0  0
  191.1560  177.2160  142.3440 N   0  0  0  0  0  2  0  0  0  0  0  0
  184.8590  178.8610  142.1710 C   0  0  2  0  0  3  0  0  0  0  0  0
  189.2590  177.3680  143.9150 C   0  0  0  0  0  0  0  0  0  0  0  0
  189.6660  177.6850  140.3740 C   0  0  0  0  0  0  0  0  0  0  0  0
  187.0070  177.8870  143.0100 C   0  0  0  0  0  0  0  0  0  0  0  0
  188.9700  177.7210  141.5170 C   0  0  0  0  0  0  0  0  0  0  0  0
  185.3040  178.4150  140.7810 C   0  0  0  0  0  2  0  0  0  0  0  0
  191.4260  177.3580  140.5990 S   0  0  0  0  0  0  0  0  0  0  0  0
  185.5260  177.9930  143.2320 C   0  0  0  0  0  2  0  0  0  0  0  0
  187.5600  177.9890  141.6750 N   0  0  0  0  0  0  0  0  0  0  0  0
  188.4380  176.6120  138.5030 C   0  0  0  0  0  3  0  0  0  0  0  0
  187.9510  177.8460  136.4760 C   0  0  0  0  0  3  0  0  0  0  0  0
  188.5920  178.9740  137.0040 C   0  0  0  0  0  3  0  0  0  0  0  0
  189.1610  178.9190  138.2790 C   0  0  0  0  0  3  0  0  0  0  0  0
  189.0780  177.7410  139.0340 C   0  0  0  0  0  0  0  0  0  0  0  0
  187.8770  176.6640  137.2250 C   0  0  0  0  0  3  0  0  0  0  0  0
  191.4830  176.4680  147.4920 C   0  0  0  0  0  3  0  0  0  0  0  0
  190.0520  177.0620  145.1410 C   0  0  0  0  0  0  0  0  0  0  0  0
  191.2990  176.4130  145.0800 C   0  0  0  0  0  3  0  0  0  0  0  0
  192.0130  176.1230  146.2470 C   0  0  0  0  0  3  0  0  0  0  0  0
  190.2460  177.1130  147.5710 C   0  0  0  0  0  3  0  0  0  0  0  0
  189.5380  177.4100  146.4040 C   0  0  0  0  0  3  0  0  0  0  0  0
  182.9510  179.0080  143.6810 N   0  0  0  0  0  1  0  0  0  0  0  0
  183.3510  178.7390  142.3090 C   0  0  0  0  0  2  0  0  0  0  0  0
  2  6  2  0  0  0  0
  3 10  1  0  0  0  0
  3 13  1  0  0  0  0
  4  2  1  0  0  0  0
  5 27  1  6  0  0  0
  5 12  1  0  0  0  0
  6  1  1  0  0  0  0
  6 21  1  0  0  0  0
  7 11  1  0  0  0  0
  7  9  2  0  0  0  0
  8 12  1  0  0  0  0
  8  1  2  0  0  0  0
  9 13  1  0  0  0  0
  9  2  1  0  0  0  0
 10  5  1  0  0  0  0
 11  4  1  0  0  0  0
 13  8  1  0  0  0  0
 14 18  1  0  0  0  0
 15 16  2  0  0  0  0
 15 19  1  0  0  0  0
 16 17  1  0  0  0  0
 17 18  2  0  0  0  0
 18  7  1  0  0  0  0
 19 14  2  0  0  0  0
 20 24  1  0  0  0  0
 21 25  1  0  0  0  0
 22 21  2  0  0  0  0
 22 23  1  0  0  0  0
 23 20  2  0  0  0  0
 25 24  2  0  0  0  0
 27 26  1  0  0  0  0
M  END
>  <MODEL>
1

>  <REMARK>
 VINA RESULT:      -9.3      0.000      0.000
  Name = 
  3 active torsions:
  status: ('A' for Active; 'I' for Inactive)
    1  A    between atoms: C_9  and  C_15
    2  A    between atoms: C_13  and  C_22
    3  A    between atoms: C_14  and  C_17
                            x       y       z     vdW  Elec       q    Type
                         _______ _______ _______ _____ _____    ______ ____

>  <TORSDO>
F 3

$$$$
=
 OpenBabel11052413553D

 27 31  0  0  1  0  0  0  0  0999 V2000
  186.2820  177.9780  143.5770 C   0  0  0  0  0  3  0  0  0  0  0  0
  188.6010  177.7500  142.8740 C   0  0  0  0  0  0  0  0  0  0  0  0
  186.3560  178.7110  139.9240 C   0  0  0  0  0  2  0  0  0  0  0  0
  190.0010  177.5290  142.9860 N   0  0  0  0  0  2  0  0  0  0  0  0
  184.0480  179.0010  140.7970 C   0  0  2  0  0  3  0  0  0  0  0  0
  187.7240  177.7840  143.9020 C   0  0  0  0  0  0  0  0  0  0  0  0
  189.1650  177.7740  140.6270 C   0  0  0  0  0  0  0  0  0  0  0  0
  185.8440  178.1620  142.3240 C   0  0  0  0  0  0  0  0  0  0  0  0
  188.1620  177.9020  141.5030 C   0  0  0  0  0  0  0  0  0  0  0  0
  184.8830  178.4360  139.6510 C   0  0  0  0  0  2  0  0  0  0  0  0
  190.7770  177.5120  141.3930 S   0  0  0  0  0  0  0  0  0  0  0  0
  184.3650  178.2530  142.0870 C   0  0  0  0  0  2  0  0  0  0  0  0
  186.7700  178.1500  141.2100 N   0  0  0  0  0  0  0  0  0  0  0  0
  188.6780  176.4630  138.5770 C   0  0  0  0  0  3  0  0  0  0  0  0
  188.6870  177.5250  136.4000 C   0  0  0  0  0  3  0  0  0  0  0  0
  189.0130  178.7500  136.9950 C   0  0  0  0  0  3  0  0  0  0  0  0
  189.1780  178.8310  138.3790 C   0  0  0  0  0  3  0  0  0  0  0  0
  189.0020  177.6890  139.1740 C   0  0  0  0  0  0  0  0  0  0  0  0
  188.5220  176.3810  137.1910 C   0  0  0  0  0  3  0  0  0  0  0  0
  188.7820  177.2700  148.0460 C   0  0  0  0  0  3  0  0  0  0  0  0
  188.1150  177.6140  145.3310 C   0  0  0  0  0  0  0  0  0  0  0  0
  189.3780  177.1200  145.7060 C   0  0  0  0  0  3  0  0  0  0  0  0
  189.7120  176.9540  147.0530 C   0  0  0  0  0  3  0  0  0  0  0  0
  187.5230  177.7630  147.6920 C   0  0  0  0  0  3  0  0  0  0  0  0
  187.1940  177.9360  146.3450 C   0  0  0  0  0  3  0  0  0  0  0  0
  181.8230  178.6350  141.7240 N   0  0  0  0  0  1  0  0  0  0  0  0
  182.5670  178.8570  140.4940 C   0  0  0  0  0  2  0  0  0  0  0  0
  1  6  1  0  0  0  0
  2  4  1  0  0  0  0
  2  6  2  0  0  0  0
  3 13  1  0  0  0  0
  5 27  1  6  0  0  0
  5 12  1  0  0  0  0
  6 21  1  0  0  0  0
  7 11  1  0  0  0  0
  7  9  2  0  0  0  0
  8  1  2  0  0  0  0
  9  2  1  0  0  0  0
 10  3  1  0  0  0  0
 10  5  1  0  0  0  0
 11  4  1  0  0  0  0
 12  8  1  0  0  0  0
 13  9  1  0  0  0  0
 13  8  1  0  0  0  0
 14 18  1  0  0  0  0
 15 16  2  0  0  0  0
 15 19  1  0  0  0  0
 16 17  1  0  0  0  0
 17 18  2  0  0  0  0
 18  7  1  0  0  0  0
 19 14  2  0  0  0  0
 21 22  2  0  0  0  0
 21 25  1  0  0  0  0
 22 23  1  0  0  0  0
 23 20  2  0  0  0  0
 24 20  1  0  0  0  0
 25 24  2  0  0  0  0
 27 26  1  0  0  0  0
M  END
>  <MODEL>
2

>  <REMARK>
 VINA RESULT:      -8.8      1.222      1.595
  Name = 
  3 active torsions:
  status: ('A' for Active; 'I' for Inactive)
    1  A    between atoms: C_9  and  C_15
    2  A    between atoms: C_13  and  C_22
    3  A    between atoms: C_14  and  C_17
                            x       y       z     vdW  Elec       q    Type
                         _______ _______ _______ _____ _____    ______ ____

>  <TORSDO>
F 3

$$$$
=
 OpenBabel11052413553D

 27 31  0  0  1  0  0  0  0  0999 V2000
  185.4110  178.5540  140.6430 C   0  0  0  0  0  3  0  0  0  0  0  0
  185.6550  178.1820  143.0370 C   0  0  0  0  0  0  0  0  0  0  0  0
  189.0660  178.2220  141.2950 C   0  0  0  0  0  2  0  0  0  0  0  0
  185.2700  178.0310  144.3970 N   0  0  0  0  0  2  0  0  0  0  0  0
  188.6770  178.7020  138.8890 C   0  0  2  0  0  3  0  0  0  0  0  0
  184.8270  178.4890  142.0130 C   0  0  0  0  0  0  0  0  0  0  0  0
  187.7010  177.5800  143.9400 C   0  0  0  0  0  0  0  0  0  0  0  0
  186.7170  178.3660  140.4080 C   0  0  0  0  0  0  0  0  0  0  0  0
  187.0630  177.9310  142.8170 C   0  0  0  0  0  0  0  0  0  0  0  0
  189.4730  177.8520  139.8760 C   0  0  0  0  0  2  0  0  0  0  0  0
  186.6530  177.5780  145.4080 S   0  0  0  0  0  0  0  0  0  0  0  0
  187.1950  178.3570  138.9850 C   0  0  0  0  0  2  0  0  0  0  0  0
  187.6250  178.0580  141.4930 N   0  0  0  0  0  0  0  0  0  0  0  0
  189.4420  175.9410  143.2740 C   0  0  0  0  0  3  0  0  0  0  0  0
  191.7070  176.1360  144.1100 C   0  0  0  0  0  3  0  0  0  0  0  0
  191.3440  177.2760  144.8370 C   0  0  0  0  0  3  0  0  0  0  0  0
  190.0300  177.7460  144.7880 C   0  0  0  0  0  3  0  0  0  0  0  0
  189.0780  177.0840  144.0000 C   0  0  0  0  0  0  0  0  0  0  0  0
  190.7540  175.4660  143.3300 C   0  0  0  0  0  3  0  0  0  0  0  0
  180.5910  179.1570  142.4300 C   0  0  0  0  0  3  0  0  0  0  0  0
  183.3650  178.7390  142.1760 C   0  0  0  0  0  0  0  0  0  0  0  0
  182.7900  179.0140  143.4300 C   0  0  0  0  0  3  0  0  0  0  0  0
  181.4140  179.2280  143.5570 C   0  0  0  0  0  3  0  0  0  0  0  0
  181.1460  178.8850  141.1760 C   0  0  0  0  0  3  0  0  0  0  0  0
  182.5220  178.6810  141.0500 C   0  0  0  0  0  3  0  0  0  0  0  0
  190.0810  177.3300  137.4440 N   0  0  0  0  0  1  0  0  0  0  0  0
  189.1520  178.4480  137.4690 C   0  0  0  0  0  2  0  0  0  0  0  0
  1  6  1  0  0  0  0
  2  4  1  0  0  0  0
  3 13  1  0  0  0  0
  4 11  1  0  0  0  0
  5 27  1  6  0  0  0
  5 12  1  0  0  0  0
  5 10  1  0  0  0  0
  6 21  1  0  0  0  0
  6  2  2  0  0  0  0
  7 18  1  0  0  0  0
  7 11  1  0  0  0  0
  8  1  2  0  0  0  0
  8 13  1  0  0  0  0
  9  2  1  0  0  0  0
  9  7  2  0  0  0  0
 10  3  1  0  0  0  0
 12  8  1  0  0  0  0
 13  9  1  0  0  0  0
 14 19  2  0  0  0  0
 14 18  1  0  0  0  0
 15 16  2  0  0  0  0
 17 16  1  0  0  0  0
 18 17  2  0  0  0  0
 19 15  1  0  0  0  0
 20 23  1  0  0  0  0
 21 22  1  0  0  0  0
 22 23  2  0  0  0  0
 24 20  2  0  0  0  0
 25 24  1  0  0  0  0
 25 21  2  0  0  0  0
 26 27  1  0  0  0  0
M  END
>  <MODEL>
3

>  <REMARK>
 VINA RESULT:      -8.4      2.073      6.962
  Name = 
  3 active torsions:
  status: ('A' for Active; 'I' for Inactive)
    1  A    between atoms: C_9  and  C_15
    2  A    between atoms: C_13  and  C_22
    3  A    between atoms: C_14  and  C_17
                            x       y       z     vdW  Elec       q    Type
                         _______ _______ _______ _____ _____    ______ ____

>  <TORSDO>
F 3

$$$$
=
 OpenBabel11052413553D

 27 31  0  0  1  0  0  0  0  0999 V2000
  186.7650  178.2790  142.0220 C   0  0  0  0  0  3  0  0  0  0  0  0
  184.4060  178.4930  142.5830 C   0  0  0  0  0  0  0  0  0  0  0  0
  184.8910  178.0670  138.8080 C   0  0  0  0  0  2  0  0  0  0  0  0
  183.2470  178.6280  143.3950 N   0  0  0  0  0  2  0  0  0  0  0  0
  187.3210  177.7670  138.3890 C   0  0  2  0  0  3  0  0  0  0  0  0
  185.6730  178.3550  143.0340 C   0  0  0  0  0  0  0  0  0  0  0  0
  182.8130  178.7590  140.9220 C   0  0  0  0  0  0  0  0  0  0  0  0
  186.5270  178.2950  140.7040 C   0  0  0  0  0  0  0  0  0  0  0  0
  184.1130  178.5570  141.1670 C   0  0  0  0  0  0  0  0  0  0  0  0
  186.0480  178.4480  137.8940 C   0  0  0  0  0  2  0  0  0  0  0  0
  181.7910  178.8330  142.4060 S   0  0  0  0  0  0  0  0  0  0  0  0
  187.6980  178.3090  139.7640 C   0  0  0  0  0  2  0  0  0  0  0  0
  185.1760  178.4200  140.1990 N   0  0  0  0  0  0  0  0  0  0  0  0
  182.2490  180.3730  139.1220 C   0  0  0  0  0  3  0  0  0  0  0  0
  181.1660  179.6250  137.0880 C   0  0  0  0  0  3  0  0  0  0  0  0
  181.1600  178.3110  137.5700 C   0  0  0  0  0  3  0  0  0  0  0  0
  181.6930  178.0270  138.8290 C   0  0  0  0  0  3  0  0  0  0  0  0
  182.2460  179.0560  139.6050 C   0  0  0  0  0  0  0  0  0  0  0  0
  181.7080  180.6570  137.8660 C   0  0  0  0  0  3  0  0  0  0  0  0
  186.7980  178.2040  147.1890 C   0  0  0  0  0  3  0  0  0  0  0  0
  186.0370  178.3030  144.4790 C   0  0  0  0  0  0  0  0  0  0  0  0
  185.3070  179.0030  145.4590 C   0  0  0  0  0  3  0  0  0  0  0  0
  185.6810  178.9500  146.8050 C   0  0  0  0  0  3  0  0  0  0  0  0
  187.5330  177.5030  146.2300 C   0  0  0  0  0  3  0  0  0  0  0  0
  187.1540  177.5500  144.8870 C   0  0  0  0  0  3  0  0  0  0  0  0
  188.9700  179.3780  137.5960 N   0  0  0  0  0  1  0  0  0  0  0  0
  188.4670  178.0230  137.4270 C   0  0  0  0  0  2  0  0  0  0  0  0
  1  6  1  0  0  0  0
  2  6  2  0  0  0  0
  2  4  1  0  0  0  0
  3 13  1  0  0  0  0
  5 27  1  6  0  0  0
  5 12  1  0  0  0  0
  6 21  1  0  0  0  0
  7  9  2  0  0  0  0
  7 11  1  0  0  0  0
  8  1  2  0  0  0  0
  9  2  1  0  0  0  0
 10  5  1  0  0  0  0
 10  3  1  0  0  0  0
 11  4  1  0  0  0  0
 12  8  1  0  0  0  0
 13  8  1  0  0  0  0
 13  9  1  0  0  0  0
 14 18  1  0  0  0  0
 15 16  2  0  0  0  0
 15 19  1  0  0  0  0
 16 17  1  0  0  0  0
 17 18  2  0  0  0  0
 18  7  1  0  0  0  0
 19 14  2  0  0  0  0
 21 25  2  0  0  0  0
 21 22  1  0  0  0  0
 22 23  2  0  0  0  0
 23 20  1  0  0  0  0
 24 20  2  0  0  0  0
 25 24  1  0  0  0  0
 27 26  1  0  0  0  0
M  END
>  <MODEL>
4

>  <REMARK>
 VINA RESULT:      -8.3      3.378      5.930
  Name = 
  3 active torsions:
  status: ('A' for Active; 'I' for Inactive)
    1  A    between atoms: C_9  and  C_15
    2  A    between atoms: C_13  and  C_22
    3  A    between atoms: C_14  and  C_17
                            x       y       z     vdW  Elec       q    Type
                         _______ _______ _______ _____ _____    ______ ____

>  <TORSDO>
F 3

$$$$
=
 OpenBabel11052413553D

 27 31  0  0  1  0  0  0  0  0999 V2000
  184.3990  178.7330  142.1260 C   0  0  0  0  0  3  0  0  0  0  0  0
  186.1930  178.3800  140.5200 C   0  0  0  0  0  0  0  0  0  0  0  0
  187.3480  177.5560  144.0770 C   0  0  0  0  0  2  0  0  0  0  0  0
  186.8430  178.3130  139.2570 N   0  0  0  0  0  2  0  0  0  0  0  0
  185.4030  177.8680  145.5920 C   0  0  2  0  0  3  0  0  0  0  0  0
  184.8860  178.6570  140.7190 C   0  0  0  0  0  0  0  0  0  0  0  0
  188.3570  177.9600  141.2340 C   0  0  0  0  0  0  0  0  0  0  0  0
  185.1940  178.4920  143.1770 C   0  0  0  0  0  0  0  0  0  0  0  0
  187.0940  178.1550  141.6300 C   0  0  0  0  0  0  0  0  0  0  0  0
  186.9030  178.0990  145.4280 C   0  0  0  0  0  2  0  0  0  0  0  0
  188.5720  177.9700  139.4430 S   0  0  0  0  0  0  0  0  0  0  0  0
  184.6380  178.6850  144.5570 C   0  0  0  0  0  2  0  0  0  0  0  0
  186.5930  178.1720  142.9840 N   0  0  0  0  0  0  0  0  0  0  0  0
  190.2360  176.7020  142.2570 C   0  0  0  0  0  3  0  0  0  0  0  0
  191.7290  177.7770  143.8320 C   0  0  0  0  0  3  0  0  0  0  0  0
  191.0090  178.9710  143.7060 C   0  0  0  0  0  3  0  0  0  0  0  0
  189.8990  179.0300  142.8600 C   0  0  0  0  0  3  0  0  0  0  0  0
  189.5150  177.8970  142.1280 C   0  0  0  0  0  0  0  0  0  0  0  0
  191.3400  176.6410  143.1100 C   0  0  0  0  0  3  0  0  0  0  0  0
  182.0590  179.3350  137.5390 C   0  0  0  0  0  3  0  0  0  0  0  0
  183.9160  178.9170  139.6150 C   0  0  0  0  0  0  0  0  0  0  0  0
  183.2680  180.1570  139.4670 C   0  0  0  0  0  3  0  0  0  0  0  0
  182.3500  180.3670  138.4340 C   0  0  0  0  0  3  0  0  0  0  0  0
  182.6950  178.0970  137.6710 C   0  0  0  0  0  3  0  0  0  0  0  0
  183.6170  177.8910  138.6990 C   0  0  0  0  0  3  0  0  0  0  0  0
  185.6880  179.4580  147.4170 N   0  0  0  0  0  1  0  0  0  0  0  0
  184.9520  178.2820  146.9810 C   0  0  0  0  0  2  0  0  0  0  0  0
  1  8  2  0  0  0  0
  2  6  2  0  0  0  0
  2  9  1  0  0  0  0
  3 10  1  0  0  0  0
  4 11  1  0  0  0  0
  4  2  1  0  0  0  0
  5 27  1  1  0  0  0
  6  1  1  0  0  0  0
  7  9  2  0  0  0  0
  7 18  1  0  0  0  0
  8 12  1  0  0  0  0
  9 13  1  0  0  0  0
 10  5  1  0  0  0  0
 11  7  1  0  0  0  0
 12  5  1  0  0  0  0
 13  8  1  0  0  0  0
 13  3  1  0  0  0  0
 14 19  1  0  0  0  0
 16 15  1  0  0  0  0
 17 16  2  0  0  0  0
 18 14  2  0  0  0  0
 18 17  1  0  0  0  0
 19 15  2  0  0  0  0
 20 24  2  0  0  0  0
 20 23  1  0  0  0  0
 21  6  1  0  0  0  0
 22 21  1  0  0  0  0
 23 22  2  0  0  0  0
 24 25  1  0  0  0  0
 25 21  2  0  0  0  0
 27 26  1  0  0  0  0
M  END
>  <MODEL>
5

>  <REMARK>
 VINA RESULT:      -8.2      2.705      6.758
  Name = 
  3 active torsions:
  status: ('A' for Active; 'I' for Inactive)
    1  A    between atoms: C_9  and  C_15
    2  A    between atoms: C_13  and  C_22
    3  A    between atoms: C_14  and  C_17
                            x       y       z     vdW  Elec       q    Type
                         _______ _______ _______ _____ _____    ______ ____

>  <TORSDO>
F 3

$$$$
=
 OpenBabel11052413553D

 27 31  0  0  1  0  0  0  0  0999 V2000
  188.5810  177.7060  141.2910 C   0  0  0  0  0  3  0  0  0  0  0  0
  190.2870  176.9720  142.8640 C   0  0  0  0  0  0  0  0  0  0  0  0
  186.9200  177.4730  144.6190 C   0  0  0  0  0  2  0  0  0  0  0  0
  191.5580  176.5370  143.3280 N   0  0  0  0  0  2  0  0  0  0  0  0
  185.2590  178.1250  142.8900 C   0  0  2  0  0  3  0  0  0  0  0  0
  189.9550  177.2010  141.5750 C   0  0  0  0  0  0  0  0  0  0  0  0
  189.8770  176.9790  145.1450 C   0  0  0  0  0  0  0  0  0  0  0  0
  187.6690  177.8900  142.2550 C   0  0  0  0  0  0  0  0  0  0  0  0
  189.3430  177.2000  143.9380 C   0  0  0  0  0  0  0  0  0  0  0  0
  185.7530  178.4000  144.3080 C   0  0  0  0  0  2  0  0  0  0  0  0
  191.5870  176.4060  145.0950 S   0  0  0  0  0  0  0  0  0  0  0  0
  186.3440  178.4900  141.8830 C   0  0  0  0  0  2  0  0  0  0  0  0
  187.9970  177.6300  143.6410 N   0  0  0  0  0  0  0  0  0  0  0  0
  188.8120  176.2780  147.2740 C   0  0  0  0  0  3  0  0  0  0  0  0
  188.0030  177.9280  148.8520 C   0  0  0  0  0  3  0  0  0  0  0  0
  188.4200  178.9560  147.9970 C   0  0  0  0  0  3  0  0  0  0  0  0
  189.0270  178.6450  146.7790 C   0  0  0  0  0  3  0  0  0  0  0  0
  189.2320  177.3060  146.4180 C   0  0  0  0  0  0  0  0  0  0  0  0
  188.1970  176.5890  148.4890 C   0  0  0  0  0  3  0  0  0  0  0  0
  192.7150  176.6190  138.3190 C   0  0  0  0  0  3  0  0  0  0  0  0
  190.8910  177.0040  140.4300 C   0  0  0  0  0  0  0  0  0  0  0  0
  190.4950  176.3590  139.2440 C   0  0  0  0  0  3  0  0  0  0  0  0
  191.3980  176.1720  138.1940 C   0  0  0  0  0  3  0  0  0  0  0  0
  193.1260  177.2620  139.4900 C   0  0  0  0  0  3  0  0  0  0  0  0
  192.2200  177.4560  140.5350 C   0  0  0  0  0  3  0  0  0  0  0  0
  183.0550  178.8050  143.6780 N   0  0  0  0  0  1  0  0  0  0  0  0
  184.0150  178.9440  142.5940 C   0  0  0  0  0  2  0  0  0  0  0  0
  1  6  1  0  0  0  0
  1  8  2  0  0  0  0
  2  4  1  0  0  0  0
  2  9  1  0  0  0  0
  4 11  1  0  0  0  0
  5 27  1  6  0  0  0
  5 10  1  0  0  0  0
  6  2  2  0  0  0  0
  7 18  1  0  0  0  0
  8 13  1  0  0  0  0
  9  7  2  0  0  0  0
 10  3  1  0  0  0  0
 11  7  1  0  0  0  0
 12  8  1  0  0  0  0
 12  5  1  0  0  0  0
 13  9  1  0  0  0  0
 13  3  1  0  0  0  0
 14 19  1  0  0  0  0
 16 15  1  0  0  0  0
 17 16  2  0  0  0  0
 18 17  1  0  0  0  0
 18 14  2  0  0  0  0
 19 15  2  0  0  0  0
 20 24  1  0  0  0  0
 21 25  1  0  0  0  0
 21  6  1  0  0  0  0
 22 21  2  0  0  0  0
 23 20  2  0  0  0  0
 23 22  1  0  0  0  0
 24 25  2  0  0  0  0
 27 26  1  0  0  0  0
M  END
>  <MODEL>
6

>  <REMARK>
 VINA RESULT:      -8.1      2.078      6.194
  Name = 
  3 active torsions:
  status: ('A' for Active; 'I' for Inactive)
    1  A    between atoms: C_9  and  C_15
    2  A    between atoms: C_13  and  C_22
    3  A    between atoms: C_14  and  C_17
                            x       y       z     vdW  Elec       q    Type
                         _______ _______ _______ _____ _____    ______ ____

>  <TORSDO>
F 3

$$$$
=
 OpenBabel11052413553D

 27 31  0  0  1  0  0  0  0  0999 V2000
  191.0460  176.7060  142.4560 C   0  0  0  0  0  3  0  0  0  0  0  0
  189.0540  177.5540  141.3450 C   0  0  0  0  0  0  0  0  0  0  0  0
  188.8240  178.0310  145.1380 C   0  0  0  0  0  2  0  0  0  0  0  0
  188.1800  177.8980  140.2780 N   0  0  0  0  0  2  0  0  0  0  0  0
  190.9500  177.2130  146.1300 C   0  0  2  0  0  3  0  0  0  0  0  0
  190.3020  177.0540  141.2120 C   0  0  0  0  0  0  0  0  0  0  0  0
  187.1950  178.1940  142.5720 C   0  0  0  0  0  0  0  0  0  0  0  0
  190.5410  176.9140  143.6790 C   0  0  0  0  0  0  0  0  0  0  0  0
  188.4570  177.7540  142.6490 C   0  0  0  0  0  0  0  0  0  0  0  0
  189.4320  177.2400  146.2890 C   0  0  0  0  0  2  0  0  0  0  0  0
  186.6180  178.4720  140.8860 S   0  0  0  0  0  0  0  0  0  0  0  0
  191.3260  176.4440  144.8690 C   0  0  0  0  0  2  0  0  0  0  0  0
  189.2140  177.4690  143.8450 N   0  0  0  0  0  0  0  0  0  0  0  0
  186.3720  177.4020  144.7760 C   0  0  0  0  0  3  0  0  0  0  0  0
  184.5260  178.5180  145.8780 C   0  0  0  0  0  3  0  0  0  0  0  0
  184.4290  179.4190  144.8110 C   0  0  0  0  0  3  0  0  0  0  0  0
  185.2980  179.3090  143.7240 C   0  0  0  0  0  3  0  0  0  0  0  0
  186.2770  178.3050  143.7070 C   0  0  0  0  0  0  0  0  0  0  0  0
  185.4970  177.5070  145.8590 C   0  0  0  0  0  3  0  0  0  0  0  0
  192.2670  176.3230  137.4490 C   0  0  0  0  0  3  0  0  0  0  0  0
  190.9610  176.8090  139.8960 C   0  0  0  0  0  0  0  0  0  0  0  0
  190.2530  176.3040  138.7900 C   0  0  0  0  0  3  0  0  0  0  0  0
  190.8990  176.0680  137.5730 C   0  0  0  0  0  3  0  0  0  0  0  0
  192.9850  176.8250  138.5380 C   0  0  0  0  0  3  0  0  0  0  0  0
  192.3370  177.0690  139.7500 C   0  0  0  0  0  3  0  0  0  0  0  0
  192.3960  175.4070  146.8970 N   0  0  0  0  0  1  0  0  0  0  0  0
  191.5960  176.5420  147.3300 C   0  0  0  0  0  2  0  0  0  0  0  0
  1  8  2  0  0  0  0
  2  9  1  0  0  0  0
  3 10  1  0  0  0  0
  4 11  1  0  0  0  0
  4  2  1  0  0  0  0
  5 10  1  0  0  0  0
  5 27  1  1  0  0  0
  6  2  2  0  0  0  0
  6  1  1  0  0  0  0
  7  9  2  0  0  0  0
  7 18  1  0  0  0  0
  8 13  1  0  0  0  0
  8 12  1  0  0  0  0
  9 13  1  0  0  0  0
 11  7  1  0  0  0  0
 12  5  1  0  0  0  0
 13  3  1  0  0  0  0
 14 19  1  0  0  0  0
 16 15  1  0  0  0  0
 17 16  2  0  0  0  0
 18 17  1  0  0  0  0
 18 14  2  0  0  0  0
 19 15  2  0  0  0  0
 20 23  2  0  0  0  0
 20 24  1  0  0  0  0
 21  6  1  0  0  0  0
 22 21  2  0  0  0  0
 23 22  1  0  0  0  0
 24 25  2  0  0  0  0
 25 21  1  0  0  0  0
 26 27  1  0  0  0  0
M  END
>  <MODEL>
7

>  <REMARK>
 VINA RESULT:      -7.9      2.411      6.785
  Name = 
  3 active torsions:
  status: ('A' for Active; 'I' for Inactive)
    1  A    between atoms: C_9  and  C_15
    2  A    between atoms: C_13  and  C_22
    3  A    between atoms: C_14  and  C_17
                            x       y       z     vdW  Elec       q    Type
                         _______ _______ _______ _____ _____    ______ ____

>  <TORSDO>
F 3

$$$$
=
 OpenBabel11052413553D

 27 31  0  0  1  0  0  0  0  0999 V2000
  185.8160  178.4500  142.0780 C   0  0  0  0  0  3  0  0  0  0  0  0
  183.6410  178.5580  143.1650 C   0  0  0  0  0  0  0  0  0  0  0  0
  183.2670  178.2470  139.3660 C   0  0  0  0  0  2  0  0  0  0  0  0
  182.6930  178.6270  144.2220 N   0  0  0  0  0  2  0  0  0  0  0  0
  185.5470  178.0520  138.3980 C   0  0  2  0  0  3  0  0  0  0  0  0
  184.9800  178.4580  143.3120 C   0  0  0  0  0  0  0  0  0  0  0  0
  181.7040  178.8040  141.9180 C   0  0  0  0  0  0  0  0  0  0  0  0
  185.2840  178.4900  140.8480 C   0  0  0  0  0  0  0  0  0  0  0  0
  183.0310  178.6460  141.8550 C   0  0  0  0  0  0  0  0  0  0  0  0
  184.1730  178.6950  138.2270 C   0  0  0  0  0  2  0  0  0  0  0  0
  181.0440  178.8010  143.5960 S   0  0  0  0  0  0  0  0  0  0  0  0
  186.2090  178.5730  139.6690 C   0  0  0  0  0  2  0  0  0  0  0  0
  183.8500  178.5750  140.6680 N   0  0  0  0  0  0  0  0  0  0  0  0
  180.8090  180.4140  140.2540 C   0  0  0  0  0  3  0  0  0  0  0  0
  179.2010  179.7020  138.5870 C   0  0  0  0  0  3  0  0  0  0  0  0
  179.2330  178.4020  139.1060 C   0  0  0  0  0  3  0  0  0  0  0  0
  180.0470  178.1090  140.2030 C   0  0  0  0  0  3  0  0  0  0  0  0
  180.8420  179.1120  140.7740 C   0  0  0  0  0  0  0  0  0  0  0  0
  179.9870  180.7090  139.1630 C   0  0  0  0  0  3  0  0  0  0  0  0
  186.8900  178.2470  147.1680 C   0  0  0  0  0  3  0  0  0  0  0  0
  185.6650  178.3830  144.6350 C   0  0  0  0  0  0  0  0  0  0  0  0
  186.7950  177.5720  144.8460 C   0  0  0  0  0  3  0  0  0  0  0  0
  187.4070  177.5080  146.1010 C   0  0  0  0  0  3  0  0  0  0  0  0
  185.7690  179.0590  146.9760 C   0  0  0  0  0  3  0  0  0  0  0  0
  185.1630  179.1280  145.7190 C   0  0  0  0  0  3  0  0  0  0  0  0
  187.7640  178.7540  137.6660 N   0  0  0  0  0  1  0  0  0  0  0  0
  186.4350  178.3760  137.2100 C   0  0  0  0  0  2  0  0  0  0  0  0
  1  6  1  0  0  0  0
  2  6  2  0  0  0  0
  2  4  1  0  0  0  0
  3 13  1  0  0  0  0
  5 27  1  6  0  0  0
  5 12  1  0  0  0  0
  6 21  1  0  0  0  0
  7 11  1  0  0  0  0
  8  1  2  0  0  0  0
  9  7  2  0  0  0  0
  9  2  1  0  0  0  0
 10  5  1  0  0  0  0
 10  3  1  0  0  0  0
 11  4  1  0  0  0  0
 12  8  1  0  0  0  0
 13  8  1  0  0  0  0
 13  9  1  0  0  0  0
 14 18  1  0  0  0  0
 15 16  2  0  0  0  0
 15 19  1  0  0  0  0
 16 17  1  0  0  0  0
 17 18  2  0  0  0  0
 18  7  1  0  0  0  0
 19 14  2  0  0  0  0
 21 22  2  0  0  0  0
 21 25  1  0  0  0  0
 22 23  1  0  0  0  0
 23 20  2  0  0  0  0
 24 20  1  0  0  0  0
 25 24  2  0  0  0  0
 27 26  1  0  0  0  0
M  END
>  <MODEL>
8

>  <REMARK>
 VINA RESULT:      -7.8      3.579      6.578
  Name = 
  3 active torsions:
  status: ('A' for Active; 'I' for Inactive)
    1  A    between atoms: C_9  and  C_15
    2  A    between atoms: C_13  and  C_22
    3  A    between atoms: C_14  and  C_17
                            x       y       z     vdW  Elec       q    Type
                         _______ _______ _______ _____ _____    ______ ____

>  <TORSDO>
F 3

$$$$
=
 OpenBabel11052413553D

 27 31  0  0  1  0  0  0  0  0999 V2000
  187.1200  178.2550  141.0020 C   0  0  0  0  0  3  0  0  0  0  0  0
  189.3580  177.4520  141.5200 C   0  0  0  0  0  0  0  0  0  0  0  0
  187.1520  177.4930  144.6500 C   0  0  0  0  0  2  0  0  0  0  0  0
  190.7040  177.0520  141.2960 N   0  0  0  0  0  2  0  0  0  0  0  0
  184.8840  178.2380  143.9640 C   0  0  2  0  0  3  0  0  0  0  0  0
  188.4750  177.8170  140.5640 C   0  0  0  0  0  0  0  0  0  0  0  0
  190.0280  177.1450  143.7160 C   0  0  0  0  0  0  0  0  0  0  0  0
  186.7430  178.2530  142.2880 C   0  0  0  0  0  0  0  0  0  0  0  0
  189.0030  177.4770  142.9230 C   0  0  0  0  0  0  0  0  0  0  0  0
  185.9660  178.3680  145.0320 C   0  0  0  0  0  2  0  0  0  0  0  0
  191.5320  176.7040  142.8240 S   0  0  0  0  0  0  0  0  0  0  0  0
  185.3910  178.8010  142.6410 C   0  0  0  0  0  2  0  0  0  0  0  0
  187.6670  177.8460  143.3260 N   0  0  0  0  0  0  0  0  0  0  0  0
  189.2520  178.2510  145.7980 C   0  0  0  0  0  3  0  0  0  0  0  0
  190.0290  177.4920  147.9640 C   0  0  0  0  0  3  0  0  0  0  0  0
  190.8070  176.5070  147.3430 C   0  0  0  0  0  3  0  0  0  0  0  0
  190.8140  176.3980  145.9510 C   0  0  0  0  0  3  0  0  0  0  0  0
  190.0300  177.2650  145.1760 C   0  0  0  0  0  0  0  0  0  0  0  0
  189.2530  178.3660  147.1900 C   0  0  0  0  0  3  0  0  0  0  0  0
  189.3480  177.7880  136.3450 C   0  0  0  0  0  3  0  0  0  0  0  0
  188.7910  177.8290  139.1060 C   0  0  0  0  0  0  0  0  0  0  0  0
  188.8210  179.0220  138.3590 C   0  0  0  0  0  3  0  0  0  0  0  0
  189.1030  179.0030  136.9900 C   0  0  0  0  0  3  0  0  0  0  0  0
  189.3220  176.5940  137.0720 C   0  0  0  0  0  3  0  0  0  0  0  0
  189.0490  176.6160  138.4410 C   0  0  0  0  0  3  0  0  0  0  0  0
  183.5110  179.0030  145.8270 N   0  0  0  0  0  1  0  0  0  0  0  0
  183.6360  178.9980  144.3780 C   0  0  0  0  0  2  0  0  0  0  0  0
  1  8  2  0  0  0  0
  2  9  1  0  0  0  0
  3 10  1  0  0  0  0
  4  2  1  0  0  0  0
  4 11  1  0  0  0  0
  5 27  1  1  0  0  0
  5 10  1  0  0  0  0
  6  1  1  0  0  0  0
  6  2  2  0  0  0  0
  7 18  1  0  0  0  0
  8 12  1  0  0  0  0
  8 13  1  0  0  0  0
  9 13  1  0  0  0  0
  9  7  2  0  0  0  0
 11  7  1  0  0  0  0
 12  5  1  0  0  0  0
 13  3  1  0  0  0  0
 14 19  1  0  0  0  0
 16 15  1  0  0  0  0
 17 16  2  0  0  0  0
 18 14  2  0  0  0  0
 18 17  1  0  0  0  0
 19 15  2  0  0  0  0
 20 23  2  0  0  0  0
 20 24  1  0  0  0  0
 21  6  1  0  0  0  0
 22 21  2  0  0  0  0
 23 22  1  0  0  0  0
 24 25  2  0  0  0  0
 25 21  1  0  0  0  0
 27 26  1  0  0  0  0
M  END
>  <MODEL>
9

>  <REMARK>
 VINA RESULT:      -7.8      1.189      6.455
  Name = 
  3 active torsions:
  status: ('A' for Active; 'I' for Inactive)
    1  A    between atoms: C_9  and  C_15
    2  A    between atoms: C_13  and  C_22
    3  A    between atoms: C_14  and  C_17
                            x       y       z     vdW  Elec       q    Type
                         _______ _______ _______ _____ _____    ______ ____

>  <TORSDO>
F 3

$$$$
