=
 OpenBabel11052412373D

 30 33  0  0  1  0  0  0  0  0999 V2000
  185.2260  178.3040  145.4590 C   0  0  0  0  0  0  0  0  0  0  0  0
  183.8810  178.5480  143.4800 C   0  0  0  0  0  3  0  0  0  0  0  0
  187.2930  178.3840  140.9200 N   0  0  0  0  0  2  0  0  0  0  0  0
  187.4910  176.0770  143.5110 C   0  0  0  0  0  1  0  0  0  0  0  0
  185.7240  179.4650  146.1340 N   0  0  0  0  0  2  0  0  0  0  0  0
  187.7800  177.7300  148.1530 C   0  0  2  0  0  3  0  0  0  0  0  0
  186.3750  178.3350  148.3590 C   0  0  0  0  0  2  0  0  0  0  0  0
  186.2290  180.6890  148.0400 O   0  0  0  0  0  0  0  0  0  0  0  0
  190.1940  177.6880  143.3750 C   0  0  2  0  0  3  0  0  0  0  0  0
  188.6090  178.1910  141.4390 C   0  0  0  0  0  0  0  0  0  0  0  0
  186.0800  179.5530  147.5210 C   0  0  0  0  0  0  0  0  0  0  0  0
  188.8430  178.3090  146.3880 C   0  0  2  0  0  3  0  0  0  0  0  0
  183.6470  178.5680  141.9970 C   0  0  0  0  0  2  0  0  0  0  0  0
  190.7290  178.3770  144.6350 C   0  0  0  0  0  2  0  0  0  0  0  0
  188.8440  178.7750  147.8320 C   0  0  0  0  0  2  0  0  0  0  0  0
  184.8410  177.2950  146.1070 O   0  0  0  0  0  0  0  0  0  0  0  0
  186.1540  178.4680  141.7930 C   0  0  0  0  0  0  0  0  0  0  0  0
  184.8760  178.8700  141.2680 N   0  0  0  0  0  0  0  0  0  0  0  0
  187.9080  177.1710  146.7510 C   0  0  0  0  0  2  0  0  0  0  0  0
  185.0910  178.3230  143.9980 C   0  0  0  0  0  0  0  0  0  0  0  0
  187.5650  177.5940  143.6400 C   0  0  1  0  0  3  0  0  0  0  0  0
  189.5870  178.1010  140.6500 O   0  0  0  0  0  0  0  0  0  0  0  0
  188.8030  178.1920  142.9280 C   0  0  1  0  0  3  0  0  0  0  0  0
  190.7910  176.9630  146.5210 O   0  0  0  0  0  0  0  0  0  0  0  0
  184.7620  179.3410  139.8980 C   0  0  0  0  0  1  0  0  0  0  0  0
  186.2760  178.1830  143.1090 C   0  0  0  0  0  0  0  0  0  0  0  0
  190.1700  177.8170  145.9060 C   0  0  0  0  0  0  0  0  0  0  0  0
  190.2840  176.2940  143.4540 O   0  0  0  0  0  0  0  0  0  0  0  0
  191.6390  176.0080  143.2830 C   0  0  0  0  0  2  0  0  0  0  0  0
  192.0460  174.9100  144.2420 C   0  0  0  0  0  1  0  0  0  0  0  0
  1 16  2  0  0  0  0
  1  5  1  0  0  0  0
  2 20  2  0  0  0  0
  3 10  1  0  0  0  0
  3 17  1  0  0  0  0
  5 11  1  0  0  0  0
  6 19  1  6  0  0  0
  6  7  1  0  0  0  0
  9 28  1  1  0  0  0
  9 14  1  0  0  0  0
 11  8  2  0  0  0  0
 11  7  1  0  0  0  0
 12 19  1  1  0  0  0
 12 15  1  0  0  0  0
 13  2  1  0  0  0  0
 14 27  1  0  0  0  0
 15  6  1  0  0  0  0
 17 26  2  0  0  0  0
 18 17  1  0  0  0  0
 18 13  1  0  0  0  0
 20  1  1  0  0  0  0
 21  4  1  6  0  0  0
 22 10  2  0  0  0  0
 23 10  1  6  0  0  0
 23  9  1  0  0  0  0
 23 21  1  0  0  0  0
 25 18  1  0  0  0  0
 26 21  1  0  0  0  0
 26 20  1  0  0  0  0
 27 12  1  0  0  0  0
 27 24  2  0  0  0  0
 29 28  1  0  0  0  0
 29 30  1  0  0  0  0
M  END
>  <MODEL>
1

>  <REMARK>
 VINA RESULT:      -7.5      0.000      0.000
  Name = 
  2 active torsions:
  status: ('A' for Active; 'I' for Inactive)
    1  A    between atoms: C_7  and  O_26
    2  A    between atoms: C_10  and  O_26
                            x       y       z     vdW  Elec       q    Type
                         _______ _______ _______ _____ _____    ______ ____

>  <TORSDO>
F 2

$$$$
=
 OpenBabel11052412373D

 30 33  0  0  1  0  0  0  0  0999 V2000
  186.7860  178.1920  138.1380 C   0  0  0  0  0  0  0  0  0  0  0  0
  184.5510  178.8640  138.7220 C   0  0  0  0  0  3  0  0  0  0  0  0
  185.2620  178.2560  142.8870 N   0  0  0  0  0  2  0  0  0  0  0  0
  187.9660  179.7590  141.3060 C   0  0  0  0  0  1  0  0  0  0  0  0
  187.0660  176.8200  137.8380 N   0  0  0  0  0  2  0  0  0  0  0  0
  190.4050  177.2280  137.8400 C   0  0  2  0  0  3  0  0  0  0  0  0
  189.3590  177.1600  136.7070 C   0  0  0  0  0  2  0  0  0  0  0  0
  188.1000  175.1420  136.6110 O   0  0  0  0  0  0  0  0  0  0  0  0
  189.0090  177.3210  143.0080 C   0  0  2  0  0  3  0  0  0  0  0  0
  186.5370  177.8390  143.3760 C   0  0  0  0  0  0  0  0  0  0  0  0
  188.1390  176.3310  137.0190 C   0  0  0  0  0  0  0  0  0  0  0  0
  189.7590  176.6600  139.8000 C   0  0  2  0  0  3  0  0  0  0  0  0
  183.4560  179.2280  139.6810 C   0  0  0  0  0  2  0  0  0  0  0  0
  189.8740  176.2480  142.3400 C   0  0  0  0  0  2  0  0  0  0  0  0
  190.4790  175.9490  138.6680 C   0  0  0  0  0  2  0  0  0  0  0  0
  187.3520  179.1210  137.5030 O   0  0  0  0  0  0  0  0  0  0  0  0
  185.0240  178.4290  141.4800 C   0  0  0  0  0  0  0  0  0  0  0  0
  183.6860  178.6430  141.0000 N   0  0  0  0  0  0  0  0  0  0  0  0
  189.8350  177.9670  139.0340 C   0  0  0  0  0  2  0  0  0  0  0  0
  185.7700  178.5150  139.1450 C   0  0  0  0  0  0  0  0  0  0  0  0
  187.4770  178.3300  141.1030 C   0  0  1  0  0  3  0  0  0  0  0  0
  186.7230  177.7150  144.6160 O   0  0  0  0  0  0  0  0  0  0  0  0
  187.6020  177.4700  142.3840 C   0  0  1  0  0  3  0  0  0  0  0  0
  191.6800  177.1320  141.1090 O   0  0  0  0  0  0  0  0  0  0  0  0
  182.5550  178.5300  141.9060 C   0  0  0  0  0  1  0  0  0  0  0  0
  186.0500  178.3790  140.6010 C   0  0  0  0  0  0  0  0  0  0  0  0
  190.5340  176.7100  141.0780 C   0  0  0  0  0  0  0  0  0  0  0  0
  189.6870  178.5370  143.1490 O   0  0  0  0  0  0  0  0  0  0  0  0
  190.3620  178.4350  144.3660 C   0  0  0  0  0  2  0  0  0  0  0  0
  191.7730  178.9600  144.2040 C   0  0  0  0  0  1  0  0  0  0  0  0
  1 20  1  0  0  0  0
  2 20  2  0  0  0  0
  2 13  1  0  0  0  0
  3 10  1  0  0  0  0
  5  1  1  0  0  0  0
  6  7  1  6  0  0  0
  6 15  1  0  0  0  0
  6 19  1  0  0  0  0
  7 11  1  0  0  0  0
  8 11  2  0  0  0  0
  9 28  1  6  0  0  0
 10 22  2  0  0  0  0
 11  5  1  0  0  0  0
 12 15  1  6  0  0  0
 12 27  1  0  0  0  0
 13 18  1  0  0  0  0
 14  9  1  0  0  0  0
 16  1  2  0  0  0  0
 17  3  1  0  0  0  0
 18 17  1  0  0  0  0
 18 25  1  0  0  0  0
 19 12  1  0  0  0  0
 20 26  1  0  0  0  0
 21  4  1  1  0  0  0
 21 23  1  0  0  0  0
 23  9  1  0  0  0  0
 23 10  1  1  0  0  0
 26 21  1  0  0  0  0
 26 17  2  0  0  0  0
 27 24  2  0  0  0  0
 27 14  1  0  0  0  0
 28 29  1  0  0  0  0
 30 29  1  0  0  0  0
M  END
>  <MODEL>
2

>  <REMARK>
 VINA RESULT:      -6.8      2.701      6.351
  Name = 
  2 active torsions:
  status: ('A' for Active; 'I' for Inactive)
    1  A    between atoms: C_7  and  O_26
    2  A    between atoms: C_10  and  O_26
                            x       y       z     vdW  Elec       q    Type
                         _______ _______ _______ _____ _____    ______ ____

>  <TORSDO>
F 2

$$$$
=
 OpenBabel11052412373D

 30 33  0  0  1  0  0  0  0  0999 V2000
  185.5080  178.3180  142.4010 C   0  0  0  0  0  0  0  0  0  0  0  0
  186.1320  178.3090  140.0770 C   0  0  0  0  0  3  0  0  0  0  0  0
  190.2840  177.9740  141.0060 N   0  0  0  0  0  0  0  0  0  0  0  0
  188.3220  175.9650  143.0510 C   0  0  0  0  0  1  0  0  0  0  0  0
  185.3970  179.5590  143.1070 N   0  0  0  0  0  2  0  0  0  0  0  0
  185.1180  178.1120  146.1310 C   0  0  2  0  0  3  0  0  0  0  0  0
  184.0790  178.6940  145.1480 C   0  0  0  0  0  2  0  0  0  0  0  0
  184.3680  180.9950  144.6130 O   0  0  0  0  0  0  0  0  0  0  0  0
  190.2950  177.6310  144.8540 C   0  0  2  0  0  3  0  0  0  0  0  0
  190.7450  177.8770  142.3540 C   0  0  0  0  0  0  0  0  0  0  0  0
  184.5920  179.8060  144.2690 C   0  0  0  0  0  0  0  0  0  0  0  0
  187.1790  178.5310  145.7330 C   0  0  2  0  0  3  0  0  0  0  0  0
  187.0960  178.1630  138.9360 C   0  0  0  0  0  2  0  0  0  0  0  0
  189.7390  178.4660  146.0120 C   0  0  0  0  0  2  0  0  0  0  0  0
  186.1210  179.1480  146.6290 C   0  0  0  0  0  2  0  0  0  0  0  0
  184.7050  177.3730  142.6240 O   0  0  0  0  0  0  0  0  0  0  0  0
  188.8860  178.1170  140.7050 C   0  0  0  0  0  0  0  0  0  0  0  0
  188.4690  178.4220  139.3630 N   0  0  0  0  0  0  0  0  0  0  0  0
  186.2230  177.4100  145.3680 C   0  0  0  0  0  2  0  0  0  0  0  0
  186.5210  178.1770  141.3490 C   0  0  0  0  0  0  0  0  0  0  0  0
  188.3670  177.4880  143.0510 C   0  0  1  0  0  3  0  0  0  0  0  0
  191.9750  177.7320  142.5880 O   0  0  0  0  0  0  0  0  0  0  0  0
  189.7510  178.0430  143.4670 C   0  0  1  0  0  3  0  0  0  0  0  0
  188.2730  177.2640  147.4140 O   0  0  0  0  0  0  0  0  0  0  0  0
  189.4540  178.7400  138.3430 C   0  0  0  0  0  1  0  0  0  0  0  0
  187.9580  177.9780  141.6780 C   0  0  1  0  0  3  0  0  0  0  0  0
  188.3810  178.0290  146.4680 C   0  0  0  0  0  0  0  0  0  0  0  0
  190.2090  176.2570  145.1020 O   0  0  0  0  0  0  0  0  0  0  0  0
  191.5230  175.8470  145.3290 C   0  0  0  0  0  2  0  0  0  0  0  0
  191.8130  175.8860  146.8140 C   0  0  0  0  0  1  0  0  0  0  0  0
  1 16  2  0  0  0  0
  1  5  1  0  0  0  0
  2 20  2  0  0  0  0
  3 10  1  0  0  0  0
  5 11  1  0  0  0  0
  6  7  1  6  0  0  0
  6 15  1  0  0  0  0
  9 28  1  1  0  0  0
  9 14  1  0  0  0  0
 10 22  2  0  0  0  0
 11  8  2  0  0  0  0
 11  7  1  0  0  0  0
 12 19  1  1  0  0  0
 12 27  1  0  0  0  0
 12 15  1  0  0  0  0
 13 18  1  0  0  0  0
 13  2  1  0  0  0  0
 14 27  1  0  0  0  0
 17  3  2  0  0  0  0
 18 17  1  0  0  0  0
 19  6  1  0  0  0  0
 20 26  1  0  0  0  0
 20  1  1  0  0  0  0
 21  4  1  6  0  0  0
 21 23  1  0  0  0  0
 23 10  1  6  0  0  0
 23  9  1  0  0  0  0
 25 18  1  0  0  0  0
 26 17  1  6  0  0  0
 26 21  1  0  0  0  0
 27 24  2  0  0  0  0
 28 29  1  0  0  0  0
 29 30  1  0  0  0  0
M  END
>  <MODEL>
3

>  <REMARK>
 VINA RESULT:      -6.7      1.907      2.963
  Name = 
  2 active torsions:
  status: ('A' for Active; 'I' for Inactive)
    1  A    between atoms: C_7  and  O_26
    2  A    between atoms: C_10  and  O_26
                            x       y       z     vdW  Elec       q    Type
                         _______ _______ _______ _____ _____    ______ ____

>  <TORSDO>
F 2

$$$$
=
 OpenBabel11052412373D

 30 33  0  0  1  0  0  0  0  0999 V2000
  190.4900  176.5540  143.5380 C   0  0  0  0  0  0  0  0  0  0  0  0
  190.7110  176.4040  145.9290 C   0  0  0  0  0  3  0  0  0  0  0  0
  187.0360  178.4730  146.5820 N   0  0  0  0  0  2  0  0  0  0  0  0
  186.8060  176.1960  143.9680 C   0  0  0  0  0  1  0  0  0  0  0  0
  191.0520  177.6680  142.8360 N   0  0  0  0  0  2  0  0  0  0  0  0
  189.5380  176.9310  139.9240 C   0  0  2  0  0  3  0  0  0  0  0  0
  190.9640  176.6750  140.4570 C   0  0  0  0  0  2  0  0  0  0  0  0
  192.1880  178.6280  141.0540 O   0  0  0  0  0  0  0  0  0  0  0  0
  185.6630  178.9690  143.0050 C   0  0  2  0  0  3  0  0  0  0  0  0
  186.2150  178.9040  145.4950 C   0  0  0  0  0  0  0  0  0  0  0  0
  191.4570  177.6880  141.4600 C   0  0  0  0  0  0  0  0  0  0  0  0
  188.3030  178.2710  141.0450 C   0  0  2  0  0  3  0  0  0  0  0  0
  190.2340  176.5550  147.3440 C   0  0  0  0  0  2  0  0  0  0  0  0
  186.2050  179.6050  141.7210 C   0  0  0  0  0  2  0  0  0  0  0  0
  189.1910  178.4130  139.8230 C   0  0  0  0  0  2  0  0  0  0  0  0
  190.5140  175.3970  143.0400 O   0  0  0  0  0  0  0  0  0  0  0  0
  188.2860  177.8040  146.3510 C   0  0  0  0  0  0  0  0  0  0  0  0
  189.1880  177.5700  147.4470 N   0  0  0  0  0  0  0  0  0  0  0  0
  188.5260  176.7700  141.0400 C   0  0  0  0  0  2  0  0  0  0  0  0
  189.9500  176.7530  144.8880 C   0  0  0  0  0  0  0  0  0  0  0  0
  187.6210  177.4840  143.9800 C   0  0  1  0  0  3  0  0  0  0  0  0
  185.1140  179.4710  145.7270 O   0  0  0  0  0  0  0  0  0  0  0  0
  186.7360  178.7480  144.0960 C   0  0  1  0  0  3  0  0  0  0  0  0
  186.2390  178.1270  139.8840 O   0  0  0  0  0  0  0  0  0  0  0  0
  188.9160  178.1420  148.7550 C   0  0  0  0  0  1  0  0  0  0  0  0
  188.6290  177.4020  145.1070 C   0  0  0  0  0  0  0  0  0  0  0  0
  186.8710  178.6280  140.8020 C   0  0  0  0  0  0  0  0  0  0  0  0
  184.8880  177.8330  142.7470 O   0  0  0  0  0  0  0  0  0  0  0  0
  183.6710  178.3260  142.2750 C   0  0  0  0  0  2  0  0  0  0  0  0
  182.9060  178.9580  143.4170 C   0  0  0  0  0  1  0  0  0  0  0  0
  1 20  1  0  0  0  0
  2 13  1  0  0  0  0
  5  1  1  0  0  0  0
  6 15  1  1  0  0  0
  6  7  1  0  0  0  0
  6 19  1  0  0  0  0
  7 11  1  0  0  0  0
  8 11  2  0  0  0  0
  9 28  1  6  0  0  0
  9 23  1  0  0  0  0
 10 22  2  0  0  0  0
 10  3  1  0  0  0  0
 11  5  1  0  0  0  0
 12 15  1  6  0  0  0
 13 18  1  0  0  0  0
 14  9  1  0  0  0  0
 16  1  2  0  0  0  0
 17  3  1  0  0  0  0
 17 18  1  0  0  0  0
 18 25  1  0  0  0  0
 19 12  1  0  0  0  0
 20 26  1  0  0  0  0
 20  2  2  0  0  0  0
 21  4  1  1  0  0  0
 21 23  1  0  0  0  0
 21 26  1  0  0  0  0
 23 10  1  1  0  0  0
 24 27  2  0  0  0  0
 26 17  2  0  0  0  0
 27 12  1  0  0  0  0
 27 14  1  0  0  0  0
 29 28  1  0  0  0  0
 29 30  1  0  0  0  0
M  END
>  <MODEL>
4

>  <REMARK>
 VINA RESULT:      -6.1      2.130      6.792
  Name = 
  2 active torsions:
  status: ('A' for Active; 'I' for Inactive)
    1  A    between atoms: C_7  and  O_26
    2  A    between atoms: C_10  and  O_26
                            x       y       z     vdW  Elec       q    Type
                         _______ _______ _______ _____ _____    ______ ____

>  <TORSDO>
F 2

$$$$
=
 OpenBabel11052412373D

 30 33  0  0  1  0  0  0  0  0999 V2000
  186.3170  178.6830  141.3900 C   0  0  0  0  0  0  0  0  0  0  0  0
  188.0320  178.4020  143.0530 C   0  0  0  0  0  3  0  0  0  0  0  0
  190.5540  176.2620  140.3540 N   0  0  0  0  0  0  0  0  0  0  0  0
  189.0060  178.9710  138.8260 C   0  0  0  0  0  1  0  0  0  0  0  0
  185.2730  177.7100  141.2660 N   0  0  0  0  0  2  0  0  0  0  0  0
  184.0910  178.9630  138.3770 C   0  0  2  0  0  3  0  0  0  0  0  0
  183.6410  179.1140  139.8460 C   0  0  0  0  0  2  0  0  0  0  0  0
  183.0630  177.0810  140.9420 O   0  0  0  0  0  0  0  0  0  0  0  0
  188.6030  176.4200  137.0230 C   0  0  2  0  0  3  0  0  0  0  0  0
  190.1760  176.0360  138.9960 C   0  0  0  0  0  0  0  0  0  0  0  0
  183.9610  177.9360  140.7320 C   0  0  0  0  0  0  0  0  0  0  0  0
  185.5420  177.4490  137.9520 C   0  0  2  0  0  3  0  0  0  0  0  0
  189.3960  178.0010  143.5360 C   0  0  0  0  0  2  0  0  0  0  0  0
  187.1920  176.0220  136.5810 C   0  0  0  0  0  2  0  0  0  0  0  0
  184.0280  177.5240  137.8740 C   0  0  0  0  0  2  0  0  0  0  0  0
  186.0790  179.9100  141.2350 O   0  0  0  0  0  0  0  0  0  0  0  0
  189.6850  176.9570  141.2630 C   0  0  0  0  0  0  0  0  0  0  0  0
  189.9920  176.9880  142.6680 N   0  0  0  0  0  0  0  0  0  0  0  0
  185.6030  178.9250  138.2950 C   0  0  0  0  0  2  0  0  0  0  0  0
  187.6640  178.2480  141.7780 C   0  0  0  0  0  0  0  0  0  0  0  0
  188.3270  177.7000  139.3200 C   0  0  1  0  0  3  0  0  0  0  0  0
  190.9660  175.4410  138.2150 O   0  0  0  0  0  0  0  0  0  0  0  0
  188.7980  176.4390  138.5570 C   0  0  1  0  0  3  0  0  0  0  0  0
  185.9650  177.8050  135.6450 O   0  0  0  0  0  0  0  0  0  0  0  0
  191.0870  176.1920  143.1960 C   0  0  0  0  0  1  0  0  0  0  0  0
  188.5710  177.5740  140.8090 C   0  0  1  0  0  3  0  0  0  0  0  0
  186.2040  177.1460  136.6450 C   0  0  0  0  0  0  0  0  0  0  0  0
  189.0480  177.5870  136.3910 O   0  0  0  0  0  0  0  0  0  0  0  0
  189.3430  177.2000  135.0830 C   0  0  0  0  0  2  0  0  0  0  0  0
  190.5970  176.3520  135.0800 C   0  0  0  0  0  1  0  0  0  0  0  0
  1 20  1  0  0  0  0
  2 13  1  0  0  0  0
  3 17  2  0  0  0  0
  5  1  1  0  0  0  0
  6 15  1  1  0  0  0
  6  7  1  0  0  0  0
  7 11  1  0  0  0  0
  9 28  1  1  0  0  0
  9 23  1  0  0  0  0
 10  3  1  0  0  0  0
 11  8  2  0  0  0  0
 11  5  1  0  0  0  0
 12 15  1  6  0  0  0
 12 19  1  0  0  0  0
 14 27  1  0  0  0  0
 14  9  1  0  0  0  0
 16  1  2  0  0  0  0
 17 18  1  0  0  0  0
 18 25  1  0  0  0  0
 18 13  1  0  0  0  0
 19  6  1  0  0  0  0
 20  2  2  0  0  0  0
 21  4  1  6  0  0  0
 21 26  1  0  0  0  0
 22 10  2  0  0  0  0
 23 10  1  6  0  0  0
 23 21  1  0  0  0  0
 24 27  2  0  0  0  0
 26 17  1  6  0  0  0
 26 20  1  0  0  0  0
 27 12  1  0  0  0  0
 29 28  1  0  0  0  0
 30 29  1  0  0  0  0
M  END
>  <MODEL>
5

>  <REMARK>
 VINA RESULT:      -5.6      3.619      7.232
  Name = 
  2 active torsions:
  status: ('A' for Active; 'I' for Inactive)
    1  A    between atoms: C_7  and  O_26
    2  A    between atoms: C_10  and  O_26
                            x       y       z     vdW  Elec       q    Type
                         _______ _______ _______ _____ _____    ______ ____

>  <TORSDO>
F 2

$$$$
=
 OpenBabel11052412373D

 30 33  0  0  1  0  0  0  0  0999 V2000
  185.0500  178.6470  140.4280 C   0  0  0  0  0  0  0  0  0  0  0  0
  184.5870  178.9040  142.7750 C   0  0  0  0  0  3  0  0  0  0  0  0
  188.3540  177.2340  143.8880 N   0  0  0  0  0  2  0  0  0  0  0  0
  188.6290  179.3780  141.1680 C   0  0  0  0  0  1  0  0  0  0  0  0
  184.6610  177.4480  139.7490 N   0  0  0  0  0  2  0  0  0  0  0  0
  186.3760  178.1690  136.9460 C   0  0  2  0  0  3  0  0  0  0  0  0
  184.8880  178.3160  137.3300 C   0  0  0  0  0  2  0  0  0  0  0  0
  183.7930  176.2900  137.9340 O   0  0  0  0  0  0  0  0  0  0  0  0
  190.1040  176.6790  140.4880 C   0  0  2  0  0  3  0  0  0  0  0  0
  189.3110  176.8250  142.9090 C   0  0  0  0  0  0  0  0  0  0  0  0
  184.3940  177.3160  138.3450 C   0  0  0  0  0  0  0  0  0  0  0  0
  187.6130  177.0160  138.2570 C   0  0  2  0  0  3  0  0  0  0  0  0
  184.9380  178.8760  144.2340 C   0  0  0  0  0  2  0  0  0  0  0  0
  189.7470  175.9260  139.2020 C   0  0  0  0  0  2  0  0  0  0  0  0
  186.8630  176.7240  136.9700 C   0  0  0  0  0  2  0  0  0  0  0  0
  184.9710  179.7680  139.8590 O   0  0  0  0  0  0  0  0  0  0  0  0
  187.0760  177.7670  143.5020 C   0  0  0  0  0  0  0  0  0  0  0  0
  186.0560  177.9720  144.4950 N   0  0  0  0  0  0  0  0  0  0  0  0
  187.2570  178.4860  138.1370 C   0  0  0  0  0  2  0  0  0  0  0  0
  185.4730  178.5740  141.8310 C   0  0  0  0  0  0  0  0  0  0  0  0
  187.9350  178.0210  141.1850 C   0  0  1  0  0  3  0  0  0  0  0  0
  190.4310  176.3800  143.2750 O   0  0  0  0  0  0  0  0  0  0  0  0
  188.9150  176.8560  141.4610 C   0  0  1  0  0  3  0  0  0  0  0  0
  189.7570  177.2930  137.2810 O   0  0  0  0  0  0  0  0  0  0  0  0
  186.2510  177.5000  145.8560 C   0  0  0  0  0  1  0  0  0  0  0  0
  186.8210  178.0670  142.2090 C   0  0  0  0  0  0  0  0  0  0  0  0
  189.0880  176.7850  138.1670 C   0  0  0  0  0  0  0  0  0  0  0  0
  190.7950  177.8690  140.2310 O   0  0  0  0  0  0  0  0  0  0  0  0
  192.1160  177.6040  140.5940 C   0  0  0  0  0  2  0  0  0  0  0  0
  192.8850  177.1260  139.3820 C   0  0  0  0  0  1  0  0  0  0  0  0
  1 20  1  0  0  0  0
  2 13  1  0  0  0  0
  5  1  1  0  0  0  0
  6 15  1  1  0  0  0
  6  7  1  0  0  0  0
  6 19  1  0  0  0  0
  7 11  1  0  0  0  0
  8 11  2  0  0  0  0
  9 28  1  6  0  0  0
  9 23  1  0  0  0  0
 10 22  2  0  0  0  0
 10  3  1  0  0  0  0
 11  5  1  0  0  0  0
 12 15  1  6  0  0  0
 13 18  1  0  0  0  0
 14  9  1  0  0  0  0
 16  1  2  0  0  0  0
 17  3  1  0  0  0  0
 17 18  1  0  0  0  0
 18 25  1  0  0  0  0
 19 12  1  0  0  0  0
 20 26  1  0  0  0  0
 20  2  2  0  0  0  0
 21  4  1  1  0  0  0
 21 23  1  0  0  0  0
 21 26  1  0  0  0  0
 23 10  1  1  0  0  0
 24 27  2  0  0  0  0
 26 17  2  0  0  0  0
 27 12  1  0  0  0  0
 27 14  1  0  0  0  0
 28 29  1  0  0  0  0
 30 29  1  0  0  0  0
M  END
>  <MODEL>
6

>  <REMARK>
 VINA RESULT:      -5.5      2.840      6.410
  Name = 
  2 active torsions:
  status: ('A' for Active; 'I' for Inactive)
    1  A    between atoms: C_7  and  O_26
    2  A    between atoms: C_10  and  O_26
                            x       y       z     vdW  Elec       q    Type
                         _______ _______ _______ _____ _____    ______ ____

>  <TORSDO>
F 2

$$$$
=
 OpenBabel11052412373D

 30 33  0  0  1  0  0  0  0  0999 V2000
  185.6990  178.2900  138.3430 C   0  0  0  0  0  0  0  0  0  0  0  0
  185.3020  179.0030  140.6070 C   0  0  0  0  0  3  0  0  0  0  0  0
  188.9780  177.3190  141.9740 N   0  0  0  0  0  2  0  0  0  0  0  0
  189.3310  178.9050  138.9040 C   0  0  0  0  0  1  0  0  0  0  0  0
  185.2210  177.0150  137.9000 N   0  0  0  0  0  2  0  0  0  0  0  0
  186.9180  177.0950  134.9970 C   0  0  2  0  0  3  0  0  0  0  0  0
  185.4500  177.4070  135.3610 C   0  0  0  0  0  2  0  0  0  0  0  0
  184.2430  175.6040  136.3380 O   0  0  0  0  0  0  0  0  0  0  0  0
  190.6170  176.0360  138.7190 C   0  0  2  0  0  3  0  0  0  0  0  0
  189.8870  176.6760  141.0790 C   0  0  0  0  0  0  0  0  0  0  0  0
  184.9150  176.6460  136.5480 C   0  0  0  0  0  0  0  0  0  0  0  0
  188.1070  176.1220  136.4870 C   0  0  2  0  0  3  0  0  0  0  0  0
  185.6810  179.2190  142.0420 C   0  0  0  0  0  2  0  0  0  0  0  0
  190.1870  175.0850  137.5980 C   0  0  0  0  0  2  0  0  0  0  0  0
  187.3130  175.6500  135.2830 C   0  0  0  0  0  2  0  0  0  0  0  0
  185.6780  179.2900  137.5780 O   0  0  0  0  0  0  0  0  0  0  0  0
  187.7290  177.8560  141.5090 C   0  0  0  0  0  0  0  0  0  0  0  0
  186.7450  178.3070  142.4560 N   0  0  0  0  0  0  0  0  0  0  0  0
  187.8420  177.5660  136.1010 C   0  0  0  0  0  2  0  0  0  0  0  0
  186.1460  178.4470  139.7320 C   0  0  0  0  0  0  0  0  0  0  0  0
  188.5530  177.6240  139.1770 C   0  0  1  0  0  3  0  0  0  0  0  0
  190.9840  176.2320  141.5100 O   0  0  0  0  0  0  0  0  0  0  0  0
  189.4630  176.4660  139.6540 C   0  0  1  0  0  3  0  0  0  0  0  0
  190.2430  176.0730  135.4570 O   0  0  0  0  0  0  0  0  0  0  0  0
  186.9390  178.0800  143.8780 C   0  0  0  0  0  1  0  0  0  0  0  0
  187.4660  177.9300  140.1850 C   0  0  0  0  0  0  0  0  0  0  0  0
  189.5620  175.7810  136.4280 C   0  0  0  0  0  0  0  0  0  0  0  0
  191.3770  177.1100  138.2410 O   0  0  0  0  0  0  0  0  0  0  0  0
  192.7030  176.7530  138.4880 C   0  0  0  0  0  2  0  0  0  0  0  0
  193.3750  176.3780  137.1850 C   0  0  0  0  0  1  0  0  0  0  0  0
  1 20  1  0  0  0  0
  2 13  1  0  0  0  0
  5  1  1  0  0  0  0
  6 15  1  1  0  0  0
  6  7  1  0  0  0  0
  6 19  1  0  0  0  0
  7 11  1  0  0  0  0
  8 11  2  0  0  0  0
  9 28  1  6  0  0  0
  9 23  1  0  0  0  0
 10 22  2  0  0  0  0
 10  3  1  0  0  0  0
 11  5  1  0  0  0  0
 12 15  1  6  0  0  0
 13 18  1  0  0  0  0
 14  9  1  0  0  0  0
 16  1  2  0  0  0  0
 17  3  1  0  0  0  0
 17 18  1  0  0  0  0
 18 25  1  0  0  0  0
 19 12  1  0  0  0  0
 20 26  1  0  0  0  0
 20  2  2  0  0  0  0
 21  4  1  1  0  0  0
 21 23  1  0  0  0  0
 21 26  1  0  0  0  0
 23 10  1  1  0  0  0
 24 27  2  0  0  0  0
 26 17  2  0  0  0  0
 27 12  1  0  0  0  0
 27 14  1  0  0  0  0
 28 29  1  0  0  0  0
 30 29  1  0  0  0  0
M  END
>  <MODEL>
7

>  <REMARK>
 VINA RESULT:      -5.5      4.081      7.744
  Name = 
  2 active torsions:
  status: ('A' for Active; 'I' for Inactive)
    1  A    between atoms: C_7  and  O_26
    2  A    between atoms: C_10  and  O_26
                            x       y       z     vdW  Elec       q    Type
                         _______ _______ _______ _____ _____    ______ ____

>  <TORSDO>
F 2

$$$$
=
 OpenBabel11052412373D

 30 33  0  0  1  0  0  0  0  0999 V2000
  187.0520  178.2560  137.9920 C   0  0  0  0  0  0  0  0  0  0  0  0
  189.4220  177.9090  137.7670 C   0  0  0  0  0  3  0  0  0  0  0  0
  188.9130  173.7700  136.8550 N   0  0  0  0  0  0  0  0  0  0  0  0
  186.5400  175.7570  135.2760 C   0  0  0  0  0  1  0  0  0  0  0  0
  186.4240  178.1040  139.2700 N   0  0  0  0  0  2  0  0  0  0  0  0
  183.2960  178.2440  138.0420 C   0  0  2  0  0  3  0  0  0  0  0  0
  184.2020  179.2920  138.7230 C   0  0  0  0  0  2  0  0  0  0  0  0
  184.9210  178.7350  140.9220 O   0  0  0  0  0  0  0  0  0  0  0  0
  185.0730  173.3710  136.7160 C   0  0  2  0  0  3  0  0  0  0  0  0
  187.6170  173.1780  136.7600 C   0  0  0  0  0  0  0  0  0  0  0  0
  185.2040  178.7280  139.6970 C   0  0  0  0  0  0  0  0  0  0  0  0
  183.9350  176.2030  138.1220 C   0  0  2  0  0  3  0  0  0  0  0  0
  190.6450  177.1120  137.4170 C   0  0  0  0  0  2  0  0  0  0  0  0
  183.9230  173.6640  137.6850 C   0  0  0  0  0  2  0  0  0  0  0  0
  182.9780  177.0510  138.9390 C   0  0  0  0  0  2  0  0  0  0  0  0
  186.6810  179.1560  137.1920 O   0  0  0  0  0  0  0  0  0  0  0  0
  189.0750  175.1580  137.1920 C   0  0  0  0  0  0  0  0  0  0  0  0
  190.3830  175.6760  137.4860 N   0  0  0  0  0  0  0  0  0  0  0  0
  184.1200  177.3460  137.1420 C   0  0  0  0  0  2  0  0  0  0  0  0
  188.1920  177.4010  137.6440 C   0  0  0  0  0  0  0  0  0  0  0  0
  186.6500  175.4920  136.7730 C   0  0  1  0  0  3  0  0  0  0  0  0
  187.5040  171.9640  136.4420 O   0  0  0  0  0  0  0  0  0  0  0  0
  186.4200  174.0040  137.1320 C   0  0  1  0  0  3  0  0  0  0  0  0
  182.2960  175.1200  136.7940 O   0  0  0  0  0  0  0  0  0  0  0  0
  191.5200  174.7780  137.5980 C   0  0  0  0  0  1  0  0  0  0  0  0
  188.0020  175.9790  137.2470 C   0  0  1  0  0  3  0  0  0  0  0  0
  183.2980  175.0100  137.4830 C   0  0  0  0  0  0  0  0  0  0  0  0
  184.7240  173.6270  135.3850 O   0  0  0  0  0  0  0  0  0  0  0  0
  183.9060  172.5590  135.0140 C   0  0  0  0  0  2  0  0  0  0  0  0
  184.7660  171.3880  134.5940 C   0  0  0  0  0  1  0  0  0  0  0  0
  1  5  1  0  0  0  0
  3 17  2  0  0  0  0
  5 11  1  0  0  0  0
  6 19  1  6  0  0  0
  6  7  1  0  0  0  0
  6 15  1  0  0  0  0
  7 11  1  0  0  0  0
  9 28  1  6  0  0  0
  9 23  1  0  0  0  0
  9 14  1  0  0  0  0
 10  3  1  0  0  0  0
 11  8  2  0  0  0  0
 12 19  1  6  0  0  0
 12 15  1  0  0  0  0
 13 18  1  0  0  0  0
 13  2  1  0  0  0  0
 16  1  2  0  0  0  0
 17 18  1  0  0  0  0
 18 25  1  0  0  0  0
 20  2  2  0  0  0  0
 20  1  1  0  0  0  0
 21  4  1  6  0  0  0
 21 23  1  0  0  0  0
 21 26  1  0  0  0  0
 22 10  2  0  0  0  0
 23 10  1  6  0  0  0
 24 27  2  0  0  0  0
 26 17  1  6  0  0  0
 26 20  1  0  0  0  0
 27 14  1  0  0  0  0
 27 12  1  0  0  0  0
 29 28  1  0  0  0  0
 30 29  1  0  0  0  0
M  END
>  <MODEL>
8

>  <REMARK>
 VINA RESULT:      -5.5      6.049      9.094
  Name = 
  2 active torsions:
  status: ('A' for Active; 'I' for Inactive)
    1  A    between atoms: C_7  and  O_26
    2  A    between atoms: C_10  and  O_26
                            x       y       z     vdW  Elec       q    Type
                         _______ _______ _______ _____ _____    ______ ____

>  <TORSDO>
F 2

$$$$
=
 OpenBabel11052412373D

 30 33  0  0  1  0  0  0  0  0999 V2000
  187.4030  177.4950  146.8330 C   0  0  0  0  0  0  0  0  0  0  0  0
  185.0940  178.0610  146.4650 C   0  0  0  0  0  3  0  0  0  0  0  0
  185.7560  178.8380  142.3200 N   0  0  0  0  0  0  0  0  0  0  0  0
  187.4720  176.0210  143.4110 C   0  0  0  0  0  1  0  0  0  0  0  0
  188.3360  178.5090  147.2250 N   0  0  0  0  0  2  0  0  0  0  0  0
  191.0420  176.5620  146.7770 C   0  0  2  0  0  3  0  0  0  0  0  0
  190.2340  176.9610  148.0310 C   0  0  0  0  0  2  0  0  0  0  0  0
  190.1300  179.2980  148.4690 O   0  0  0  0  0  0  0  0  0  0  0  0
  189.4670  177.8780  141.8320 C   0  0  2  0  0  3  0  0  0  0  0  0
  187.0410  178.6610  141.7210 C   0  0  0  0  0  0  0  0  0  0  0  0
  189.5580  178.3060  147.9490 C   0  0  0  0  0  0  0  0  0  0  0  0
  190.6380  177.6410  144.9730 C   0  0  2  0  0  3  0  0  0  0  0  0
  183.9050  178.4040  145.6170 C   0  0  0  0  0  2  0  0  0  0  0  0
  190.7850  178.3020  142.4880 C   0  0  0  0  0  2  0  0  0  0  0  0
  191.6810  177.7540  146.0700 C   0  0  0  0  0  2  0  0  0  0  0  0
  187.4810  176.3290  147.3040 O   0  0  0  0  0  0  0  0  0  0  0  0
  185.5510  178.6030  143.7230 C   0  0  0  0  0  0  0  0  0  0  0  0
  184.3100  178.9880  144.3410 N   0  0  0  0  0  0  0  0  0  0  0  0
  190.1120  176.3620  145.5980 C   0  0  0  0  0  2  0  0  0  0  0  0
  186.3000  177.8420  145.9310 C   0  0  0  0  0  0  0  0  0  0  0  0
  187.7570  177.4650  143.8060 C   0  0  1  0  0  3  0  0  0  0  0  0
  187.1880  178.8550  140.4850 O   0  0  0  0  0  0  0  0  0  0  0  0
  188.2080  178.3320  142.6060 C   0  0  1  0  0  3  0  0  0  0  0  0
  192.0000  176.4990  143.4020 O   0  0  0  0  0  0  0  0  0  0  0  0
  183.3260  179.7530  143.5940 C   0  0  0  0  0  1  0  0  0  0  0  0
  186.5210  178.0320  144.4720 C   0  0  1  0  0  3  0  0  0  0  0  0
  191.2110  177.4080  143.6110 C   0  0  0  0  0  0  0  0  0  0  0  0
  189.4550  176.5200  141.4960 O   0  0  0  0  0  0  0  0  0  0  0  0
  190.2700  176.4200  140.3680 C   0  0  0  0  0  2  0  0  0  0  0  0
  189.5640  177.0360  139.1800 C   0  0  0  0  0  1  0  0  0  0  0  0
  1  5  1  0  0  0  0
  1 16  2  0  0  0  0
  3 17  2  0  0  0  0
  5 11  1  0  0  0  0
  6 19  1  6  0  0  0
  6  7  1  0  0  0  0
  9 28  1  1  0  0  0
  9 14  1  0  0  0  0
  9 23  1  0  0  0  0
 10  3  1  0  0  0  0
 11  7  1  0  0  0  0
 11  8  2  0  0  0  0
 12 19  1  1  0  0  0
 12 15  1  0  0  0  0
 13  2  1  0  0  0  0
 14 27  1  0  0  0  0
 15  6  1  0  0  0  0
 17 18  1  0  0  0  0
 18 13  1  0  0  0  0
 20  2  2  0  0  0  0
 20  1  1  0  0  0  0
 21  4  1  6  0  0  0
 21 26  1  0  0  0  0
 22 10  2  0  0  0  0
 23 10  1  6  0  0  0
 23 21  1  0  0  0  0
 24 27  2  0  0  0  0
 25 18  1  0  0  0  0
 26 17  1  6  0  0  0
 26 20  1  0  0  0  0
 27 12  1  0  0  0  0
 29 28  1  0  0  0  0
 30 29  1  0  0  0  0
M  END
>  <MODEL>
9

>  <REMARK>
 VINA RESULT:      -5.4      1.836      2.968
  Name = 
  2 active torsions:
  status: ('A' for Active; 'I' for Inactive)
    1  A    between atoms: C_7  and  O_26
    2  A    between atoms: C_10  and  O_26
                            x       y       z     vdW  Elec       q    Type
                         _______ _______ _______ _____ _____    ______ ____

>  <TORSDO>
F 2

$$$$
