=
 OpenBabel11052412343D

 30 35  0  0  1  0  0  0  0  0999 V2000
  187.8140  178.2850  141.4720 C   0  0  1  0  0  3  0  0  0  0  0  0
  189.5970  176.2720  138.8420 C   0  0  2  0  0  3  0  0  0  0  0  0
  191.7140  178.2480  142.4730 N   0  0  0  0  0  2  0  0  0  0  0  0
  188.5930  177.0600  140.9690 C   0  0  1  0  0  3  0  0  0  0  0  0
  187.0180  178.8680  140.4040 N   0  0  0  0  0  0  0  0  0  0  0  0
  184.0020  178.0480  142.2950 S   0  0  0  0  0  0  0  0  0  0  0  0
  186.2600  177.9880  145.0380 C   0  0  1  0  0  3  0  0  0  0  0  0
  185.6360  178.8620  142.2800 C   0  0  2  0  0  3  0  0  0  0  0  0
  184.7410  179.4060  140.0540 N   0  0  0  0  0  2  0  0  0  0  0  0
  188.5000  177.0470  144.2310 C   0  0  2  0  0  3  0  0  0  0  0  0
  190.5450  178.2330  143.3010 C   0  0  0  0  0  0  0  0  0  0  0  0
  185.8770  179.2250  140.8740 C   0  0  0  0  0  0  0  0  0  0  0  0
  186.7950  177.9090  142.5640 C   0  0  2  0  0  3  0  0  0  0  0  0
  190.9590  175.6280  139.0180 C   0  0  0  0  0  2  0  0  0  0  0  0
  189.0580  177.0360  145.6640 C   0  0  0  0  0  2  0  0  0  0  0  0
  186.6440  177.2280  146.3090 C   0  0  0  0  0  2  0  0  0  0  0  0
  182.4340  179.3560  140.5240 N   0  0  0  0  0  2  0  0  0  0  0  0
  189.3910  176.7380  137.4110 C   0  0  0  0  0  1  0  0  0  0  0  0
  192.0280  177.2320  141.4830 C   0  0  0  0  0  2  0  0  0  0  0  0
  192.0110  176.7090  139.0060 C   0  0  0  0  0  2  0  0  0  0  0  0
  183.6180  178.9020  140.7600 C   0  0  0  0  0  0  0  0  0  0  0  0
  189.3810  177.3880  139.7750 N   0  0  1  0  0  0  0  0  0  0  0  0
  189.4140  176.3380  142.0490 C   0  0  0  0  0  2  0  0  0  0  0  0
  190.3780  179.1840  144.1110 O   0  0  0  0  0  0  0  0  0  0  0  0
  189.5760  177.1590  143.2450 N   0  0  0  0  0  0  0  0  0  0  0  0
  188.0730  177.5560  146.7100 C   0  0  0  0  0  2  0  0  0  0  0  0
  185.8260  179.2710  145.3740 O   0  0  0  0  0  1  0  0  0  0  0  0
  191.6790  177.7250  140.0840 C   0  0  1  0  0  3  0  0  0  0  0  0
  190.3870  178.3150  139.9680 O   0  0  0  0  0  0  0  0  0  0  0  0
  187.3810  178.0840  143.9790 C   0  0  1  0  0  3  0  0  0  0  0  0
  1  5  1  6  0  0  0
  1 13  1  0  0  0  0
  2 18  1  6  0  0  0
  2 14  1  0  0  0  0
  2 22  1  0  0  0  0
  3 11  1  0  0  0  0
  4  1  1  0  0  0  0
  4 23  1  1  0  0  0
  5 12  2  0  0  0  0
  7 27  1  1  0  0  0
  7 16  1  0  0  0  0
  8 12  1  6  0  0  0
  8  6  1  0  0  0  0
  8 13  1  0  0  0  0
  9 21  1  0  0  0  0
  9 12  1  0  0  0  0
 10 15  1  1  0  0  0
 11 24  2  0  0  0  0
 13 30  1  0  0  0  0
 15 26  1  0  0  0  0
 16 26  1  0  0  0  0
 17 21  2  0  0  0  0
 19  3  1  0  0  0  0
 20 14  1  0  0  0  0
 20 28  1  0  0  0  0
 21  6  1  0  0  0  0
 22 29  1  0  0  0  0
 22  4  1  0  0  0  0
 23 25  1  0  0  0  0
 25 11  1  0  0  0  0
 25 10  1  0  0  0  0
 28 19  1  0  0  0  0
 29 28  1  0  0  0  0
 30 10  1  0  0  0  0
 30  7  1  0  0  0  0
M  END
>  <MODEL>
1

>  <REMARK>
 VINA RESULT:      -8.2      0.000      0.000
  Name = 
  0 active torsions:
  status: ('A' for Active; 'I' for Inactive)
                            x       y       z     vdW  Elec       q    Type
                         _______ _______ _______ _____ _____    ______ ____

>  <TORSDO>
F 0

$$$$
=
 OpenBabel11052412343D

 30 35  0  0  1  0  0  0  0  0999 V2000
  183.9230  179.0310  142.0360 C   0  0  1  0  0  3  0  0  0  0  0  0
  180.3470  177.9280  142.4140 C   0  0  2  0  0  3  0  0  0  0  0  0
  181.8910  180.5610  138.9140 N   0  0  0  0  0  2  0  0  0  0  0  0
  182.6800  178.2280  141.6250 C   0  0  1  0  0  3  0  0  0  0  0  0
  183.9470  179.2530  143.4720 N   0  0  0  0  0  0  0  0  0  0  0  0
  187.0110  177.2720  143.6590 S   0  0  0  0  0  0  0  0  0  0  0  0
  187.2460  178.1060  140.2120 C   0  0  1  0  0  3  0  0  0  0  0  0
  186.1290  178.6760  142.8940 C   0  0  2  0  0  3  0  0  0  0  0  0
  185.4470  178.8300  145.2520 N   0  0  0  0  0  2  0  0  0  0  0  0
  184.8850  178.1540  139.2220 C   0  0  2  0  0  3  0  0  0  0  0  0
  183.2340  180.0700  138.9940 C   0  0  0  0  0  0  0  0  0  0  0  0
  185.1500  179.1160  143.9010 C   0  0  0  0  0  0  0  0  0  0  0  0
  185.2260  178.2690  141.7320 C   0  0  2  0  0  3  0  0  0  0  0  0
  179.3290  177.8860  141.2920 C   0  0  0  0  0  2  0  0  0  0  0  0
  185.4420  178.3570  137.8020 C   0  0  0  0  0  2  0  0  0  0  0  0
  187.5840  177.5550  138.8260 C   0  0  0  0  0  2  0  0  0  0  0  0
  187.3260  177.8510  146.2800 N   0  0  0  0  0  2  0  0  0  0  0  0
  179.6910  178.2830  143.7380 C   0  0  0  0  0  1  0  0  0  0  0  0
  180.7100  179.7660  139.2060 C   0  0  0  0  0  2  0  0  0  0  0  0
  178.9310  179.2990  140.9450 C   0  0  0  0  0  2  0  0  0  0  0  0
  186.5280  177.9120  145.2690 C   0  0  0  0  0  0  0  0  0  0  0  0
  181.4530  178.8550  142.1330 N   0  0  1  0  0  0  0  0  0  0  0  0
  182.6040  177.8900  140.1270 C   0  0  0  0  0  2  0  0  0  0  0  0
  184.1750  180.8660  138.7310 O   0  0  0  0  0  0  0  0  0  0  0  0
  183.5320  178.6980  139.3430 N   0  0  0  0  0  0  0  0  0  0  0  0
  186.9670  178.4280  137.7460 C   0  0  0  0  0  2  0  0  0  0  0  0
  188.1610  179.1030  140.5550 O   0  0  0  0  0  1  0  0  0  0  0  0
  180.1820  180.0870  140.5980 C   0  0  1  0  0  3  0  0  0  0  0  0
  181.1750  180.1070  141.6200 O   0  0  0  0  0  0  0  0  0  0  0  0
  185.8080  178.6540  140.3570 C   0  0  1  0  0  3  0  0  0  0  0  0
  1  5  1  1  0  0  0
  2 18  1  1  0  0  0
  3 11  1  0  0  0  0
  3 19  1  0  0  0  0
  4 23  1  6  0  0  0
  4  1  1  0  0  0  0
  4 22  1  0  0  0  0
  5 12  2  0  0  0  0
  6 21  1  0  0  0  0
  7 30  1  0  0  0  0
  7 27  1  6  0  0  0
  8  6  1  1  0  0  0
  8 12  1  0  0  0  0
  9 21  1  0  0  0  0
 10 15  1  6  0  0  0
 10 25  1  0  0  0  0
 10 30  1  0  0  0  0
 11 25  1  0  0  0  0
 12  9  1  0  0  0  0
 13  1  1  0  0  0  0
 13  8  1  0  0  0  0
 14  2  1  0  0  0  0
 16  7  1  0  0  0  0
 19 28  1  0  0  0  0
 20 14  1  0  0  0  0
 21 17  2  0  0  0  0
 22  2  1  0  0  0  0
 24 11  2  0  0  0  0
 25 23  1  0  0  0  0
 26 15  1  0  0  0  0
 26 16  1  0  0  0  0
 28 20  1  0  0  0  0
 28 29  1  0  0  0  0
 29 22  1  0  0  0  0
 30 13  1  0  0  0  0
M  END
>  <MODEL>
2

>  <REMARK>
 VINA RESULT:      -7.2      3.268      7.976
  Name = 
  0 active torsions:
  status: ('A' for Active; 'I' for Inactive)
                            x       y       z     vdW  Elec       q    Type
                         _______ _______ _______ _____ _____    ______ ____

>  <TORSDO>
F 0

$$$$
=
 OpenBabel11052412343D

 30 35  0  0  1  0  0  0  0  0999 V2000
  188.5230  177.9730  142.3650 C   0  0  1  0  0  3  0  0  0  0  0  0
  188.7840  176.2980  139.0080 C   0  0  2  0  0  3  0  0  0  0  0  0
  192.4190  177.9980  141.3460 N   0  0  0  0  0  2  0  0  0  0  0  0
  188.9470  176.8350  141.4240 C   0  0  1  0  0  3  0  0  0  0  0  0
  187.3160  178.6230  141.8830 N   0  0  0  0  0  0  0  0  0  0  0  0
  185.5870  177.5030  144.8990 S   0  0  0  0  0  0  0  0  0  0  0  0
  188.8910  177.2700  146.1850 C   0  0  1  0  0  3  0  0  0  0  0  0
  187.0180  178.3800  144.1800 C   0  0  2  0  0  3  0  0  0  0  0  0
  185.1610  179.1000  142.7350 N   0  0  0  0  0  2  0  0  0  0  0  0
  190.4470  176.5040  144.3020 C   0  0  2  0  0  3  0  0  0  0  0  0
  191.7970  177.8560  142.6290 C   0  0  0  0  0  0  0  0  0  0  0  0
  186.5510  178.8870  142.8800 C   0  0  0  0  0  0  0  0  0  0  0  0
  188.1570  177.4530  143.7680 C   0  0  2  0  0  3  0  0  0  0  0  0
  190.0520  175.6960  138.4350 C   0  0  0  0  0  2  0  0  0  0  0  0
  191.6310  176.3770  145.2770 C   0  0  0  0  0  2  0  0  0  0  0  0
  189.8350  176.4070  147.0240 C   0  0  0  0  0  2  0  0  0  0  0  0
  183.3710  178.9110  144.2550 N   0  0  0  0  0  2  0  0  0  0  0  0
  187.9150  176.8910  137.9120 C   0  0  0  0  0  1  0  0  0  0  0  0
  192.2010  177.0970  140.2270 C   0  0  0  0  0  2  0  0  0  0  0  0
  190.9790  176.8150  138.0280 C   0  0  0  0  0  2  0  0  0  0  0  0
  184.5160  178.4850  143.8400 C   0  0  0  0  0  0  0  0  0  0  0  0
  189.0600  177.3090  140.0390 N   0  0  1  0  0  0  0  0  0  0  0  0
  190.1800  176.0460  141.8900 C   0  0  0  0  0  2  0  0  0  0  0  0
  192.0550  178.7160  143.5130 O   0  0  0  0  0  0  0  0  0  0  0  0
  190.9110  176.7540  142.9370 N   0  0  0  0  0  0  0  0  0  0  0  0
  191.2820  176.7530  146.7160 C   0  0  0  0  0  2  0  0  0  0  0  0
  188.6890  178.4960  146.8210 O   0  0  0  0  0  1  0  0  0  0  0  0
  191.2230  177.7080  139.2320 C   0  0  1  0  0  3  0  0  0  0  0  0
  190.0430  178.2530  139.8170 O   0  0  0  0  0  0  0  0  0  0  0  0
  189.3590  177.5130  144.7320 C   0  0  1  0  0  3  0  0  0  0  0  0
  1  5  1  6  0  0  0
  1 13  1  0  0  0  0
  2 18  1  6  0  0  0
  2 22  1  0  0  0  0
  3 11  1  0  0  0  0
  4 23  1  1  0  0  0
  4  1  1  0  0  0  0
  5 12  2  0  0  0  0
  7 27  1  1  0  0  0
  7 16  1  0  0  0  0
  8 12  1  6  0  0  0
  8  6  1  0  0  0  0
  9 12  1  0  0  0  0
  9 21  1  0  0  0  0
 10 30  1  0  0  0  0
 10 15  1  1  0  0  0
 11 25  1  0  0  0  0
 11 24  2  0  0  0  0
 13  8  1  0  0  0  0
 13 30  1  0  0  0  0
 14  2  1  0  0  0  0
 15 26  1  0  0  0  0
 19  3  1  0  0  0  0
 20 14  1  0  0  0  0
 20 28  1  0  0  0  0
 21 17  2  0  0  0  0
 21  6  1  0  0  0  0
 22  4  1  0  0  0  0
 23 25  1  0  0  0  0
 25 10  1  0  0  0  0
 26 16  1  0  0  0  0
 28 29  1  0  0  0  0
 28 19  1  0  0  0  0
 29 22  1  0  0  0  0
 30  7  1  0  0  0  0
M  END
>  <MODEL>
3

>  <REMARK>
 VINA RESULT:      -6.7      1.749      2.144
  Name = 
  0 active torsions:
  status: ('A' for Active; 'I' for Inactive)
                            x       y       z     vdW  Elec       q    Type
                         _______ _______ _______ _____ _____    ______ ____

>  <TORSDO>
F 0

$$$$
=
 OpenBabel11052412343D

 30 35  0  0  1  0  0  0  0  0999 V2000
  188.1410  178.2430  143.7700 C   0  0  1  0  0  3  0  0  0  0  0  0
  189.1520  176.3840  146.8800 C   0  0  2  0  0  3  0  0  0  0  0  0
  185.8820  179.6800  146.7780 N   0  0  0  0  0  2  0  0  0  0  0  0
  187.9030  177.2540  144.9210 C   0  0  1  0  0  3  0  0  0  0  0  0
  189.5480  178.2900  143.4100 N   0  0  0  0  0  0  0  0  0  0  0  0
  188.6810  176.9820  140.1120 S   0  0  0  0  0  0  0  0  0  0  0  0
  185.4650  178.2530  140.9310 C   0  0  1  0  0  3  0  0  0  0  0  0
  188.3890  178.2530  141.3900 C   0  0  2  0  0  3  0  0  0  0  0  0
  190.8330  177.9780  141.4480 N   0  0  0  0  0  2  0  0  0  0  0  0
  185.0740  177.9280  143.4400 C   0  0  2  0  0  3  0  0  0  0  0  0
  185.5630  179.4720  145.3970 C   0  0  0  0  0  0  0  0  0  0  0  0
  189.6560  178.3560  142.1320 C   0  0  0  0  0  0  0  0  0  0  0  0
  187.4180  177.8090  142.4810 C   0  0  2  0  0  3  0  0  0  0  0  0
  188.3070  176.2660  148.1330 C   0  0  0  0  0  2  0  0  0  0  0  0
  183.6190  178.4110  143.3180 C   0  0  0  0  0  2  0  0  0  0  0  0
  183.9660  177.9540  140.8780 C   0  0  0  0  0  2  0  0  0  0  0  0
  191.2150  177.2950  139.2270 N   0  0  0  0  0  2  0  0  0  0  0  0
  190.6320  176.4330  147.2180 C   0  0  0  0  0  1  0  0  0  0  0  0
  186.3030  178.6280  147.6870 C   0  0  0  0  0  2  0  0  0  0  0  0
  188.3050  177.5970  148.8440 C   0  0  0  0  0  2  0  0  0  0  0  0
  190.4430  177.3090  140.2600 C   0  0  0  0  0  0  0  0  0  0  0  0
  188.7800  177.5470  146.0610 N   0  0  1  0  0  0  0  0  0  0  0  0
  186.4290  177.0890  145.3270 C   0  0  0  0  0  2  0  0  0  0  0  0
  185.2260  180.4730  144.7080 O   0  0  0  0  0  0  0  0  0  0  0  0
  185.5970  178.1610  144.7880 N   0  0  0  0  0  0  0  0  0  0  0  0
  183.2210  178.8030  141.8950 C   0  0  0  0  0  2  0  0  0  0  0  0
  185.7470  179.3700  140.1430 O   0  0  0  0  0  1  0  0  0  0  0  0
  187.8140  178.6630  147.8800 C   0  0  1  0  0  3  0  0  0  0  0  0
  188.5650  178.7660  146.6730 O   0  0  0  0  0  0  0  0  0  0  0  0
  186.0310  178.4690  142.3530 C   0  0  1  0  0  3  0  0  0  0  0  0
  1  5  1  6  0  0  0
  1  4  1  0  0  0  0
  2 18  1  1  0  0  0
  2 14  1  0  0  0  0
  3 19  1  0  0  0  0
  4 23  1  1  0  0  0
  4 22  1  0  0  0  0
  6 21  1  0  0  0  0
  7 27  1  6  0  0  0
  7 30  1  0  0  0  0
  8  6  1  6  0  0  0
  8 12  1  0  0  0  0
  8 13  1  0  0  0  0
  9 12  1  0  0  0  0
 10 15  1  1  0  0  0
 10 25  1  0  0  0  0
 11  3  1  0  0  0  0
 12  5  2  0  0  0  0
 13  1  1  0  0  0  0
 14 20  1  0  0  0  0
 16  7  1  0  0  0  0
 16 26  1  0  0  0  0
 17 21  2  0  0  0  0
 19 28  1  0  0  0  0
 21  9  1  0  0  0  0
 22 29  1  0  0  0  0
 22  2  1  0  0  0  0
 24 11  2  0  0  0  0
 25 23  1  0  0  0  0
 25 11  1  0  0  0  0
 26 15  1  0  0  0  0
 28 20  1  0  0  0  0
 29 28  1  0  0  0  0
 30 13  1  0  0  0  0
 30 10  1  0  0  0  0
M  END
>  <MODEL>
4

>  <REMARK>
 VINA RESULT:      -6.6      2.496      6.339
  Name = 
  0 active torsions:
  status: ('A' for Active; 'I' for Inactive)
                            x       y       z     vdW  Elec       q    Type
                         _______ _______ _______ _____ _____    ______ ____

>  <TORSDO>
F 0

$$$$
=
 OpenBabel11052412343D

 30 35  0  0  1  0  0  0  0  0999 V2000
  191.3660  176.8010  139.0740 C   0  0  1  0  0  3  0  0  0  0  0  0
  190.5190  176.0280  142.6560 C   0  0  2  0  0  3  0  0  0  0  0  0
  188.3750  179.2830  140.1300 N   0  0  0  0  0  2  0  0  0  0  0  0
  190.4530  176.2670  140.1880 C   0  0  1  0  0  3  0  0  0  0  0  0
  192.7660  176.6470  139.4320 N   0  0  0  0  0  0  0  0  0  0  0  0
  193.1680  174.3680  136.6050 S   0  0  0  0  0  0  0  0  0  0  0  0
  190.2540  176.0190  135.4160 C   0  0  1  0  0  3  0  0  0  0  0  0
  192.6190  176.0060  137.1970 C   0  0  2  0  0  3  0  0  0  0  0  0
  194.6810  175.6280  138.4850 N   0  0  0  0  0  2  0  0  0  0  0  0
  188.7550  176.5690  137.4180 C   0  0  2  0  0  3  0  0  0  0  0  0
  188.6520  178.6460  138.8770 C   0  0  0  0  0  0  0  0  0  0  0  0
  193.4290  176.2780  138.3950 C   0  0  0  0  0  0  0  0  0  0  0  0
  191.2030  176.0060  137.7650 C   0  0  2  0  0  3  0  0  0  0  0  0
  189.2090  176.3810  143.3330 C   0  0  0  0  0  2  0  0  0  0  0  0
  187.6310  177.0660  136.4910 C   0  0  0  0  0  2  0  0  0  0  0  0
  188.9010  175.8050  134.7360 C   0  0  0  0  0  2  0  0  0  0  0  0
  195.8390  174.2250  136.9900 N   0  0  0  0  0  2  0  0  0  0  0  0
  191.6800  176.1030  143.6320 C   0  0  0  0  0  1  0  0  0  0  0  0
  188.1330  178.5700  141.3730 C   0  0  0  0  0  2  0  0  0  0  0  0
  189.1740  177.8700  143.5720 C   0  0  0  0  0  2  0  0  0  0  0  0
  194.7160  174.6250  137.4830 C   0  0  0  0  0  0  0  0  0  0  0  0
  190.7880  176.8720  141.4830 N   0  0  1  0  0  0  0  0  0  0  0  0
  188.9510  176.3300  139.8670 C   0  0  0  0  0  2  0  0  0  0  0  0
  188.8630  179.3780  137.8720 O   0  0  0  0  0  0  0  0  0  0  0  0
  188.6760  177.2070  138.7330 N   0  0  0  0  0  0  0  0  0  0  0  0
  187.9820  176.9850  135.0060 C   0  0  0  0  0  2  0  0  0  0  0  0
  191.0740  176.7920  134.5940 O   0  0  0  0  0  1  0  0  0  0  0  0
  189.3810  178.5820  142.2460 C   0  0  1  0  0  3  0  0  0  0  0  0
  190.5840  178.2350  141.5670 O   0  0  0  0  0  0  0  0  0  0  0  0
  190.1770  176.6630  136.8200 C   0  0  1  0  0  3  0  0  0  0  0  0
  1  5  1  1  0  0  0
  1  4  1  0  0  0  0
  2 14  1  0  0  0  0
  2 18  1  1  0  0  0
  3 19  1  0  0  0  0
  4 23  1  6  0  0  0
  4 22  1  0  0  0  0
  6 21  1  0  0  0  0
  7 27  1  6  0  0  0
  7 30  1  0  0  0  0
  8  6  1  1  0  0  0
  8 13  1  0  0  0  0
  8 12  1  0  0  0  0
 10 15  1  6  0  0  0
 10 25  1  0  0  0  0
 11  3  1  0  0  0  0
 12  9  1  0  0  0  0
 12  5  2  0  0  0  0
 13  1  1  0  0  0  0
 14 20  1  0  0  0  0
 16 26  1  0  0  0  0
 16  7  1  0  0  0  0
 17 21  2  0  0  0  0
 19 28  1  0  0  0  0
 21  9  1  0  0  0  0
 22 29  1  0  0  0  0
 22  2  1  0  0  0  0
 24 11  2  0  0  0  0
 25 11  1  0  0  0  0
 25 23  1  0  0  0  0
 26 15  1  0  0  0  0
 28 20  1  0  0  0  0
 29 28  1  0  0  0  0
 30 10  1  0  0  0  0
 30 13  1  0  0  0  0
M  END
>  <MODEL>
5

>  <REMARK>
 VINA RESULT:      -6.3      3.444      7.899
  Name = 
  0 active torsions:
  status: ('A' for Active; 'I' for Inactive)
                            x       y       z     vdW  Elec       q    Type
                         _______ _______ _______ _____ _____    ______ ____

>  <TORSDO>
F 0

$$$$
=
 OpenBabel11052412343D

 30 35  0  0  1  0  0  0  0  0999 V2000
  188.2010  177.3410  144.3190 C   0  0  1  0  0  3  0  0  0  0  0  0
  189.4310  178.4480  147.6970 C   0  0  2  0  0  3  0  0  0  0  0  0
  191.6760  175.4190  144.9860 N   0  0  0  0  0  2  0  0  0  0  0  0
  189.1690  178.0750  145.2590 C   0  0  1  0  0  3  0  0  0  0  0  0
  186.8620  177.2980  144.8840 N   0  0  0  0  0  0  0  0  0  0  0  0
  185.6850  179.3150  142.0750 S   0  0  0  0  0  0  0  0  0  0  0  0
  188.6200  178.0660  140.5090 C   0  0  1  0  0  3  0  0  0  0  0  0
  186.5730  177.8200  142.6320 C   0  0  2  0  0  3  0  0  0  0  0  0
  184.6900  177.9510  144.2110 N   0  0  0  0  0  2  0  0  0  0  0  0
  190.4670  177.8740  142.2710 C   0  0  2  0  0  3  0  0  0  0  0  0
  191.1180  175.9290  143.7690 C   0  0  0  0  0  0  0  0  0  0  0  0
  186.0030  177.4980  143.9510 C   0  0  0  0  0  0  0  0  0  0  0  0
  188.0390  178.0730  142.9740 C   0  0  2  0  0  3  0  0  0  0  0  0
  190.8650  178.3420  148.1750 C   0  0  0  0  0  2  0  0  0  0  0  0
  191.5070  177.5030  141.2000 C   0  0  0  0  0  2  0  0  0  0  0  0
  189.8050  178.4460  139.6200 C   0  0  0  0  0  2  0  0  0  0  0  0
  183.1120  179.0670  142.8650 N   0  0  0  0  0  2  0  0  0  0  0  0
  188.4540  178.2530  148.8440 C   0  0  0  0  0  1  0  0  0  0  0  0
  191.9810  176.2330  146.1500 C   0  0  0  0  0  2  0  0  0  0  0  0
  191.1760  176.8930  148.4580 C   0  0  0  0  0  2  0  0  0  0  0  0
  184.3450  178.8750  143.1910 C   0  0  0  0  0  0  0  0  0  0  0  0
  189.1310  177.5040  146.6100 N   0  0  1  0  0  0  0  0  0  0  0  0
  190.5980  178.2260  144.7120 C   0  0  0  0  0  2  0  0  0  0  0  0
  190.8830  175.1150  142.8360 O   0  0  0  0  0  0  0  0  0  0  0  0
  190.8410  177.3360  143.5800 N   0  0  0  0  0  0  0  0  0  0  0  0
  190.9330  177.4400  139.7850 C   0  0  0  0  0  2  0  0  0  0  0  0
  187.8230  177.1280  139.8510 O   0  0  0  0  0  1  0  0  0  0  0  0
  190.8940  176.0810  147.2060 C   0  0  1  0  0  3  0  0  0  0  0  0
  189.5630  176.1960  146.7100 O   0  0  0  0  0  0  0  0  0  0  0  0
  189.0060  177.5270  141.9050 C   0  0  1  0  0  3  0  0  0  0  0  0
  1  5  1  1  0  0  0
  1  4  1  0  0  0  0
  2 14  1  0  0  0  0
  2 18  1  1  0  0  0
  3 19  1  0  0  0  0
  4 23  1  6  0  0  0
  4 22  1  0  0  0  0
  6 21  1  0  0  0  0
  7 27  1  6  0  0  0
  7 30  1  0  0  0  0
  8  6  1  1  0  0  0
  8 13  1  0  0  0  0
  8 12  1  0  0  0  0
 10 15  1  6  0  0  0
 10 25  1  0  0  0  0
 11  3  1  0  0  0  0
 12  9  1  0  0  0  0
 12  5  2  0  0  0  0
 13  1  1  0  0  0  0
 14 20  1  0  0  0  0
 16 26  1  0  0  0  0
 16  7  1  0  0  0  0
 17 21  2  0  0  0  0
 19 28  1  0  0  0  0
 21  9  1  0  0  0  0
 22 29  1  0  0  0  0
 22  2  1  0  0  0  0
 24 11  2  0  0  0  0
 25 11  1  0  0  0  0
 25 23  1  0  0  0  0
 26 15  1  0  0  0  0
 28 20  1  0  0  0  0
 29 28  1  0  0  0  0
 30 10  1  0  0  0  0
 30 13  1  0  0  0  0
M  END
>  <MODEL>
6

>  <REMARK>
 VINA RESULT:      -6.2      2.437      5.623
  Name = 
  0 active torsions:
  status: ('A' for Active; 'I' for Inactive)
                            x       y       z     vdW  Elec       q    Type
                         _______ _______ _______ _____ _____    ______ ____

>  <TORSDO>
F 0

$$$$
=
 OpenBabel11052412343D

 30 35  0  0  1  0  0  0  0  0999 V2000
  188.1410  177.4710  138.5670 C   0  0  1  0  0  3  0  0  0  0  0  0
  184.5540  176.4730  138.0310 C   0  0  2  0  0  3  0  0  0  0  0  0
  187.4860  177.5520  134.5940 N   0  0  0  0  0  2  0  0  0  0  0  0
  187.0340  176.5240  138.0800 C   0  0  1  0  0  3  0  0  0  0  0  0
  187.6940  178.2460  139.7120 N   0  0  0  0  0  0  0  0  0  0  0  0
  190.2700  176.6240  141.7320 S   0  0  0  0  0  0  0  0  0  0  0  0
  191.7650  176.0260  138.5640 C   0  0  1  0  0  3  0  0  0  0  0  0
  189.8640  177.5720  140.2250 C   0  0  2  0  0  3  0  0  0  0  0  0
  188.4340  178.6260  141.9270 N   0  0  0  0  0  2  0  0  0  0  0  0
  189.9090  175.5840  136.8560 C   0  0  2  0  0  3  0  0  0  0  0  0
  188.6570  177.1860  135.3330 C   0  0  0  0  0  0  0  0  0  0  0  0
  188.6540  178.3390  140.5610 C   0  0  0  0  0  0  0  0  0  0  0  0
  189.3770  176.7020  139.0690 C   0  0  2  0  0  3  0  0  0  0  0  0
  183.9860  175.9480  136.7270 C   0  0  0  0  0  2  0  0  0  0  0  0
  190.9380  175.2270  135.7700 C   0  0  0  0  0  2  0  0  0  0  0  0
  192.4960  174.9820  137.7180 C   0  0  0  0  0  2  0  0  0  0  0  0
  189.7270  178.2100  143.8520 N   0  0  0  0  0  2  0  0  0  0  0  0
  183.5270  177.2990  138.7850 C   0  0  0  0  0  1  0  0  0  0  0  0
  186.1970  176.8940  134.7250 C   0  0  0  0  0  2  0  0  0  0  0  0
  183.8890  177.0900  135.7460 C   0  0  0  0  0  2  0  0  0  0  0  0
  189.3360  177.8320  142.6820 C   0  0  0  0  0  0  0  0  0  0  0  0
  185.7840  177.2530  137.8310 N   0  0  1  0  0  0  0  0  0  0  0  0
  187.4410  175.6150  136.9100 C   0  0  0  0  0  2  0  0  0  0  0  0
  189.7120  177.8480  135.1410 O   0  0  0  0  0  0  0  0  0  0  0  0
  188.6650  176.0790  136.2640 N   0  0  0  0  0  0  0  0  0  0  0  0
  192.3880  175.3290  136.2420 C   0  0  0  0  0  2  0  0  0  0  0  0
  192.6100  177.1110  138.8000 O   0  0  0  0  0  1  0  0  0  0  0  0
  185.2620  177.7220  135.5970 C   0  0  1  0  0  3  0  0  0  0  0  0
  185.8390  178.1860  136.8140 O   0  0  0  0  0  0  0  0  0  0  0  0
  190.4340  176.5300  137.9610 C   0  0  1  0  0  3  0  0  0  0  0  0
  1 13  1  0  0  0  0
  1  5  1  1  0  0  0
  2 18  1  6  0  0  0
  3 19  1  0  0  0  0
  3 11  1  0  0  0  0
  4 23  1  6  0  0  0
  4  1  1  0  0  0  0
  5 12  2  0  0  0  0
  6 21  1  0  0  0  0
  7 27  1  6  0  0  0
  8 12  1  1  0  0  0
  8  6  1  0  0  0  0
  9 21  1  0  0  0  0
 10 15  1  6  0  0  0
 10 30  1  0  0  0  0
 11 25  1  0  0  0  0
 12  9  1  0  0  0  0
 13  8  1  0  0  0  0
 14  2  1  0  0  0  0
 15 26  1  0  0  0  0
 16  7  1  0  0  0  0
 19 28  1  0  0  0  0
 20 14  1  0  0  0  0
 21 17  2  0  0  0  0
 22  2  1  0  0  0  0
 22  4  1  0  0  0  0
 24 11  2  0  0  0  0
 25 10  1  0  0  0  0
 25 23  1  0  0  0  0
 26 16  1  0  0  0  0
 28 20  1  0  0  0  0
 28 29  1  0  0  0  0
 29 22  1  0  0  0  0
 30  7  1  0  0  0  0
 30 13  1  0  0  0  0
M  END
>  <MODEL>
7

>  <REMARK>
 VINA RESULT:      -5.8      3.338      7.209
  Name = 
  0 active torsions:
  status: ('A' for Active; 'I' for Inactive)
                            x       y       z     vdW  Elec       q    Type
                         _______ _______ _______ _____ _____    ______ ____

>  <TORSDO>
F 0

$$$$
=
 OpenBabel11052412343D

 30 35  0  0  1  0  0  0  0  0999 V2000
  187.8640  177.2630  141.6640 C   0  0  1  0  0  3  0  0  0  0  0  0
  189.0560  178.6790  138.3890 C   0  0  2  0  0  3  0  0  0  0  0  0
  184.6100  177.7240  139.3350 N   0  0  0  0  0  2  0  0  0  0  0  0
  187.9840  178.3690  140.6050 C   0  0  1  0  0  3  0  0  0  0  0  0
  189.0380  176.4060  141.6550 N   0  0  0  0  0  0  0  0  0  0  0  0
  189.7820  177.5040  145.0580 S   0  0  0  0  0  0  0  0  0  0  0  0
  186.3240  178.3210  145.0890 C   0  0  1  0  0  3  0  0  0  0  0  0
  188.5620  176.7890  143.9030 C   0  0  2  0  0  3  0  0  0  0  0  0
  190.6570  175.6910  143.2250 N   0  0  0  0  0  2  0  0  0  0  0  0
  185.6610  179.1500  142.7590 C   0  0  2  0  0  3  0  0  0  0  0  0
  184.7660  177.8780  140.7510 C   0  0  0  0  0  0  0  0  0  0  0  0
  189.3580  176.1150  142.8640 C   0  0  0  0  0  0  0  0  0  0  0  0
  187.8040  177.8360  143.0920 C   0  0  2  0  0  3  0  0  0  0  0  0
  188.1810  179.4110  137.3910 C   0  0  0  0  0  2  0  0  0  0  0  0
  184.2520  179.5270  143.2500 C   0  0  0  0  0  2  0  0  0  0  0  0
  185.3050  179.3780  145.5190 C   0  0  0  0  0  2  0  0  0  0  0  0
  191.8190  175.7400  145.2730 N   0  0  0  0  0  2  0  0  0  0  0  0
  190.1380  177.8780  137.6870 C   0  0  0  0  0  1  0  0  0  0  0  0
  185.3460  178.4900  138.3440 C   0  0  0  0  0  2  0  0  0  0  0  0
  187.2790  178.4100  136.7110 C   0  0  0  0  0  2  0  0  0  0  0  0
  190.9740  176.2930  144.4700 C   0  0  0  0  0  0  0  0  0  0  0  0
  188.2780  177.8060  139.2810 N   0  0  1  0  0  0  0  0  0  0  0  0
  186.8140  179.3660  140.5860 C   0  0  0  0  0  2  0  0  0  0  0  0
  184.0810  177.1390  141.5080 O   0  0  0  0  0  0  0  0  0  0  0  0
  185.6610  178.8590  141.3240 N   0  0  0  0  0  0  0  0  0  0  0  0
  184.0170  179.2230  144.7280 C   0  0  0  0  0  2  0  0  0  0  0  0
  186.0890  177.1340  145.7850 O   0  0  0  0  0  1  0  0  0  0  0  0
  186.4910  177.6630  137.7730 C   0  0  1  0  0  3  0  0  0  0  0  0
  187.2900  177.0010  138.7510 O   0  0  0  0  0  0  0  0  0  0  0  0
  186.3520  178.0310  143.5710 C   0  0  1  0  0  3  0  0  0  0  0  0
  1  5  1  1  0  0  0
  1 13  1  0  0  0  0
  2 18  1  6  0  0  0
  2 22  1  0  0  0  0
  3 11  1  0  0  0  0
  4 23  1  6  0  0  0
  4  1  1  0  0  0  0
  5 12  2  0  0  0  0
  7 16  1  0  0  0  0
  7 27  1  1  0  0  0
  8 12  1  6  0  0  0
  8  6  1  0  0  0  0
  9 21  1  0  0  0  0
 10 15  1  1  0  0  0
 10 30  1  0  0  0  0
 11 25  1  0  0  0  0
 11 24  2  0  0  0  0
 12  9  1  0  0  0  0
 13 30  1  0  0  0  0
 13  8  1  0  0  0  0
 14  2  1  0  0  0  0
 15 26  1  0  0  0  0
 19  3  1  0  0  0  0
 20 14  1  0  0  0  0
 20 28  1  0  0  0  0
 21  6  1  0  0  0  0
 21 17  2  0  0  0  0
 22  4  1  0  0  0  0
 23 25  1  0  0  0  0
 25 10  1  0  0  0  0
 26 16  1  0  0  0  0
 28 19  1  0  0  0  0
 28 29  1  0  0  0  0
 29 22  1  0  0  0  0
 30  7  1  0  0  0  0
M  END
>  <MODEL>
8

>  <REMARK>
 VINA RESULT:      -5.7      2.429      5.163
  Name = 
  0 active torsions:
  status: ('A' for Active; 'I' for Inactive)
                            x       y       z     vdW  Elec       q    Type
                         _______ _______ _______ _____ _____    ______ ____

>  <TORSDO>
F 0

$$$$
=
 OpenBabel11052412343D

 30 35  0  0  1  0  0  0  0  0999 V2000
  185.0280  177.1280  137.6110 C   0  0  1  0  0  3  0  0  0  0  0  0
  188.3800  178.2980  136.3700 C   0  0  2  0  0  3  0  0  0  0  0  0
  187.3380  173.8520  137.2180 N   0  0  0  0  0  2  0  0  0  0  0  0
  186.1400  177.2500  136.5580 C   0  0  1  0  0  3  0  0  0  0  0  0
  185.0090  178.2900  138.4820 N   0  0  0  0  0  0  0  0  0  0  0  0
  181.6710  179.0900  137.2320 S   0  0  0  0  0  0  0  0  0  0  0  0
  181.6400  175.6430  136.3680 C   0  0  1  0  0  3  0  0  0  0  0  0
  182.7760  177.8470  137.9850 C   0  0  2  0  0  3  0  0  0  0  0  0
  183.4240  179.9190  139.1420 N   0  0  0  0  0  2  0  0  0  0  0  0
  184.0000  174.9630  135.6430 C   0  0  2  0  0  3  0  0  0  0  0  0
  185.9330  174.0270  136.9980 C   0  0  0  0  0  0  0  0  0  0  0  0
  183.7900  178.6210  138.7180 C   0  0  0  0  0  0  0  0  0  0  0  0
  183.6280  177.0930  136.9680 C   0  0  2  0  0  3  0  0  0  0  0  0
  189.4030  177.4210  135.6750 C   0  0  0  0  0  2  0  0  0  0  0  0
  183.5120  173.5650  135.2230 C   0  0  0  0  0  2  0  0  0  0  0  0
  181.2500  174.6430  135.2780 C   0  0  0  0  0  2  0  0  0  0  0  0
  181.3940  181.1060  139.0110 N   0  0  0  0  0  2  0  0  0  0  0  0
  189.0550  179.3620  137.2180 C   0  0  0  0  0  1  0  0  0  0  0  0
  188.3740  174.5850  136.5110 C   0  0  0  0  0  2  0  0  0  0  0  0
  190.0230  176.4980  136.6950 C   0  0  0  0  0  2  0  0  0  0  0  0
  182.2130  180.2590  138.4860 C   0  0  0  0  0  0  0  0  0  0  0  0
  187.4380  177.5200  137.1880 N   0  0  1  0  0  0  0  0  0  0  0  0
  186.1930  176.0920  135.5480 C   0  0  0  0  0  2  0  0  0  0  0  0
  185.1340  173.3420  137.6900 O   0  0  0  0  0  0  0  0  0  0  0  0
  185.4180  174.9410  136.0020 N   0  0  0  0  0  0  0  0  0  0  0  0
  182.0170  173.3430  135.4530 C   0  0  0  0  0  2  0  0  0  0  0  0
  180.8840  175.4010  137.5160 O   0  0  0  0  0  1  0  0  0  0  0  0
  188.9170  175.7140  137.3790 C   0  0  1  0  0  3  0  0  0  0  0  0
  187.9180  176.5150  138.0040 O   0  0  0  0  0  0  0  0  0  0  0  0
  183.1430  175.6490  136.7310 C   0  0  1  0  0  3  0  0  0  0  0  0
  1  5  1  1  0  0  0
  2 22  1  0  0  0  0
  2 18  1  1  0  0  0
  4 23  1  1  0  0  0
  4 22  1  0  0  0  0
  4  1  1  0  0  0  0
  5 12  2  0  0  0  0
  6 21  1  0  0  0  0
  7 30  1  0  0  0  0
  7 27  1  1  0  0  0
  8  6  1  6  0  0  0
  8 12  1  0  0  0  0
 10 15  1  1  0  0  0
 10 25  1  0  0  0  0
 10 30  1  0  0  0  0
 11  3  1  0  0  0  0
 11 24  2  0  0  0  0
 12  9  1  0  0  0  0
 13  1  1  0  0  0  0
 13  8  1  0  0  0  0
 14  2  1  0  0  0  0
 14 20  1  0  0  0  0
 15 26  1  0  0  0  0
 16 26  1  0  0  0  0
 16  7  1  0  0  0  0
 19  3  1  0  0  0  0
 19 28  1  0  0  0  0
 20 28  1  0  0  0  0
 21 17  2  0  0  0  0
 21  9  1  0  0  0  0
 22 29  1  0  0  0  0
 23 25  1  0  0  0  0
 25 11  1  0  0  0  0
 28 29  1  0  0  0  0
 30 13  1  0  0  0  0
M  END
>  <MODEL>
9

>  <REMARK>
 VINA RESULT:      -5.7      5.318      7.218
  Name = 
  0 active torsions:
  status: ('A' for Active; 'I' for Inactive)
                            x       y       z     vdW  Elec       q    Type
                         _______ _______ _______ _____ _____    ______ ____

>  <TORSDO>
F 0

$$$$
