=
 OpenBabel11052415103D

 55 59  0  0  1  0  0  0  0  0999 V2000
  186.4640  177.8950  136.2260 C   0  0  0  0  0  2  0  0  0  0  0  0
  188.3100  176.0280  137.4910 C   0  0  2  0  0  3  0  0  0  0  0  0
  187.6350  175.6590  136.1550 C   0  0  0  0  0  2  0  0  0  0  0  0
  187.5580  178.1940  137.2560 C   0  0  0  0  0  2  0  0  0  0  0  0
  186.3100  176.3980  135.9550 C   0  0  1  0  0  3  0  0  0  0  0  0
  187.7130  177.1200  138.1640 O   0  0  0  0  0  0  0  0  0  0  0  0
  189.8060  176.2310  137.3280 C   0  0  0  0  0  2  0  0  0  0  0  0
  190.4980  175.9540  138.6600 C   0  0  0  0  0  2  0  0  0  0  0  0
  191.0470  177.2410  139.2350 C   0  0  0  0  0  2  0  0  0  0  0  0
  190.9700  177.2450  140.7550 C   0  0  1  0  0  3  0  0  0  0  0  0
  192.3550  177.5030  141.3260 C   0  0  0  0  0  1  0  0  0  0  0  0
  190.0980  178.2660  141.1680 O   0  0  0  0  0  0  0  0  0  0  0  0
  187.7240  178.3690  141.7300 C   0  0  0  0  0  1  0  0  0  0  0  0
  189.0980  177.7870  142.0620 C   0  0  1  0  0  0  0  0  0  0  0  0
  189.0100  176.4150  141.8510 O   0  0  0  0  0  1  0  0  0  0  0  0
  187.5540  177.7710  145.1330 C   0  0  0  0  0  0  0  0  0  0  0  0
  189.5570  177.0010  146.5770 O   0  0  0  0  0  0  0  0  0  0  0  0
  189.4600  178.0660  143.5580 C   0  0  1  0  0  0  0  0  0  0  0  0
  189.5150  175.6720  144.1090 F   0  0  0  0  0  0  0  0  0  0  0  0
  190.1820  176.8780  144.2060 C   0  0  2  0  0  3  0  0  0  0  0  0
  186.9870  176.5410  144.4500 C   0  0  0  0  0  1  0  0  0  0  0  0
  188.2140  177.3690  146.4470 C   0  0  0  0  0  0  0  0  0  0  0  0
  186.3380  178.6220  145.4680 C   0  0  0  0  0  1  0  0  0  0  0  0
  190.5920  177.2170  145.6280 C   0  0  2  0  0  3  0  0  0  0  0  0
  190.3900  179.0890  143.5560 F   0  0  0  0  0  0  0  0  0  0  0  0
  187.4830  177.2040  147.4650 O   0  0  0  0  0  0  0  0  0  0  0  0
  188.3510  178.5990  144.2890 O   0  0  0  0  0  0  0  0  0  0  0  0
  191.8610  176.4890  146.0450 C   0  0  0  0  0  2  0  0  0  0  0  0
  191.7410  175.8850  147.4210 C   0  0  0  0  0  1  0  0  0  0  0  0
  185.2060  175.8320  136.8270 C   0  0  0  0  0  2  0  0  0  0  0  0
  184.3240  176.9410  137.3640 C   0  0  0  0  0  2  0  0  0  0  0  0
  182.8510  176.5110  137.3300 C   0  0  2  0  0  3  0  0  0  0  0  0
  180.5420  177.8010  138.2570 C   0  0  0  0  0  2  0  0  0  0  0  0
  178.9920  178.0150  140.3180 C   0  0  0  0  0  2  0  0  0  0  0  0
  180.3510  175.9190  140.1060 C   0  0  2  0  0  3  0  0  0  0  0  0
  178.9420  176.4930  140.2270 C   0  0  0  0  0  2  0  0  0  0  0  0
  179.4640  178.6260  138.9880 C   0  0  0  0  0  2  0  0  0  0  0  0
  181.2330  176.7690  139.1810 C   0  0  2  0  0  0  0  0  0  0  0  0
  180.2590  174.6080  139.6220 O   0  0  0  0  0  1  0  0  0  0  0  0
  182.5540  177.0800  139.7460 C   0  0  1  0  0  3  0  0  0  0  0  0
  182.4290  176.0480  138.6660 N   0  0  0  0  0  0  0  0  0  0  0  0
  183.1750  178.4160  139.3000 C   0  0  0  0  0  2  0  0  0  0  0  0
  185.1050  179.4210  140.2430 F   0  0  0  0  0  0  0  0  0  0  0  0
  183.7630  179.1950  140.4730 C   0  0  2  0  0  3  0  0  0  0  0  0
  183.6150  178.4110  141.7550 C   0  0  0  0  0  2  0  0  0  0  0  0
  184.3310  179.0350  142.7800 O   0  0  0  0  0  1  0  0  0  0  0  0
  181.4960  175.8650  135.4130 C   0  0  0  0  0  2  0  0  0  0  0  0
  182.0540  174.2990  136.9940 C   0  0  0  0  0  2  0  0  0  0  0  0
  180.9760  173.7760  136.0930 C   0  0  1  0  0  3  0  0  0  0  0  0
  180.5130  174.8580  135.3350 O   0  0  0  0  0  0  0  0  0  0  0  0
  182.5600  175.4700  136.3280 N   0  0  0  0  0  0  0  0  0  0  0  0
  181.5270  172.6980  135.1600 C   0  0  0  0  0  2  0  0  0  0  0  0
  181.4140  171.3230  135.7430 C   0  0  0  0  0  0  0  0  0  0  0  0
  180.4300  171.0580  136.6930 O   0  0  0  0  0  1  0  0  0  0  0  0
  182.1970  170.3980  135.3940 O   0  0  0  0  0  0  0  0  0  0  0  0
  1  4  1  0  0  0  0
  2  7  1  6  0  0  0
  2  6  1  0  0  0  0
  3  2  1  0  0  0  0
  4  6  1  0  0  0  0
  5  3  1  0  0  0  0
  5  1  1  0  0  0  0
  5 30  1  1  0  0  0
  7  8  1  0  0  0  0
  8  9  1  0  0  0  0
  9 10  1  0  0  0  0
 10 12  1  0  0  0  0
 10 11  1  1  0  0  0
 12 14  1  0  0  0  0
 14 13  1  6  0  0  0
 14 18  1  0  0  0  0
 15 14  1  0  0  0  0
 16 23  1  0  0  0  0
 16 22  1  0  0  0  0
 18 25  1  6  0  0  0
 18 20  1  0  0  0  0
 18 27  1  0  0  0  0
 20 19  1  1  0  0  0
 20 24  1  0  0  0  0
 21 16  1  0  0  0  0
 22 17  1  0  0  0  0
 22 26  2  0  0  0  0
 24 28  1  1  0  0  0
 24 17  1  0  0  0  0
 27 16  1  0  0  0  0
 28 29  1  0  0  0  0
 30 31  1  0  0  0  0
 32 31  1  1  0  0  0
 32 41  1  0  0  0  0
 33 37  1  0  0  0  0
 35 39  1  6  0  0  0
 35 36  1  0  0  0  0
 36 34  1  0  0  0  0
 37 34  1  0  0  0  0
 38 33  1  6  0  0  0
 38 40  1  0  0  0  0
 38 35  1  0  0  0  0
 40 42  1  6  0  0  0
 41 38  1  0  0  0  0
 41 40  1  0  0  0  0
 42 44  1  0  0  0  0
 44 43  1  6  0  0  0
 44 45  1  0  0  0  0
 45 46  1  0  0  0  0
 47 51  1  0  0  0  0
 49 52  1  6  0  0  0
 49 48  1  0  0  0  0
 50 47  1  0  0  0  0
 50 49  1  0  0  0  0
 51 48  1  0  0  0  0
 51 32  1  0  0  0  0
 52 53  1  0  0  0  0
 53 54  1  0  0  0  0
 55 53  2  0  0  0  0
M  END
>  <MODEL>
1

>  <REMARK>
 VINA RESULT:      -6.5      0.000      0.000
  Name = 
  18 active torsions:
  status: ('A' for Active; 'I' for Inactive)
    1  A    between atoms: C_2  and  C_28
    2  A    between atoms: C_2  and  C_44
    3  A    between atoms: C_4  and  C_40
    4  A    between atoms: C_6  and  C_20
    5  A    between atoms: C_8  and  O_22
    6  A    between atoms: C_8  and  C_35
    7  A    between atoms: C_10  and  C_32
    8  A    between atoms: C_11  and  C_38
    9  A    between atoms: C_19  and  C_40
   10  A    between atoms: C_19  and  C_45
   11  A    between atoms: C_20  and  O_22
   12  A    between atoms: C_27  and  C_54
   13  A    between atoms: C_28  and  C_33
   14  A    between atoms: C_32  and  C_39
   15  A    between atoms: C_33  and  N_49
   16  A    between atoms: C_33  and  N_52
   17  A    between atoms: C_35  and  C_51
   18  A    between atoms: C_51  and  C_54
                            x       y       z     vdW  Elec       q    Type
                         _______ _______ _______ _____ _____    ______ ____

>  <TORSDO>
F 18

$$$$
=
 OpenBabel11052415103D

 55 59  0  0  1  0  0  0  0  0999 V2000
  187.4890  176.8860  135.4970 C   0  0  0  0  0  2  0  0  0  0  0  0
  187.8540  178.4950  137.9000 C   0  0  2  0  0  3  0  0  0  0  0  0
  187.4840  177.0030  138.0190 C   0  0  0  0  0  2  0  0  0  0  0  0
  188.2670  178.1970  135.6510 C   0  0  0  0  0  2  0  0  0  0  0  0
  186.7520  176.4890  136.7770 C   0  0  1  0  0  3  0  0  0  0  0  0
  187.6600  179.0420  136.6100 O   0  0  0  0  0  0  0  0  0  0  0  0
  189.2590  178.7670  138.4090 C   0  0  0  0  0  2  0  0  0  0  0  0
  189.8630  177.4680  138.9360 C   0  0  0  0  0  2  0  0  0  0  0  0
  190.9660  177.7750  139.9240 C   0  0  0  0  0  2  0  0  0  0  0  0
  190.7450  177.0460  141.2430 C   0  0  1  0  0  3  0  0  0  0  0  0
  192.0860  176.8300  141.9270 C   0  0  0  0  0  1  0  0  0  0  0  0
  189.9220  177.8290  142.0680 O   0  0  0  0  0  0  0  0  0  0  0  0
  187.5440  178.2740  141.7350 C   0  0  0  0  0  1  0  0  0  0  0  0
  188.6130  177.2820  142.1930 C   0  0  1  0  0  0  0  0  0  0  0  0
  188.5550  176.2040  141.3150 O   0  0  0  0  0  1  0  0  0  0  0  0
  190.1440  177.2540  145.2700 C   0  0  0  0  0  0  0  0  0  0  0  0
  188.0440  177.5060  146.7580 O   0  0  0  0  0  0  0  0  0  0  0  0
  188.3130  176.7910  143.6480 C   0  0  1  0  0  0  0  0  0  0  0  0
  187.8390  179.0680  144.4390 F   0  0  0  0  0  0  0  0  0  0  0  0
  187.3950  177.7600  144.4030 C   0  0  2  0  0  3  0  0  0  0  0  0
  190.4810  178.6290  144.7240 C   0  0  0  0  0  1  0  0  0  0  0  0
  189.4300  177.3960  146.6090 C   0  0  0  0  0  0  0  0  0  0  0  0
  191.4930  176.6010  145.5320 C   0  0  0  0  0  1  0  0  0  0  0  0
  187.0590  177.2090  145.7780 C   0  0  2  0  0  3  0  0  0  0  0  0
  187.5790  175.6250  143.5280 F   0  0  0  0  0  0  0  0  0  0  0  0
  190.1250  177.5820  147.6480 O   0  0  0  0  0  0  0  0  0  0  0  0
  189.5020  176.3900  144.3350 O   0  0  0  0  0  0  0  0  0  0  0  0
  185.6830  177.6550  146.2490 C   0  0  0  0  0  2  0  0  0  0  0  0
  185.6970  179.0650  146.7840 C   0  0  0  0  0  1  0  0  0  0  0  0
  185.3190  176.9820  136.7170 C   0  0  0  0  0  2  0  0  0  0  0  0
  184.6850  176.9590  138.0930 C   0  0  0  0  0  2  0  0  0  0  0  0
  183.3160  176.2680  138.0350 C   0  0  2  0  0  3  0  0  0  0  0  0
  181.1660  174.4840  137.8200 C   0  0  0  0  0  2  0  0  0  0  0  0
  179.7940  173.1130  136.1080 C   0  0  0  0  0  2  0  0  0  0  0  0
  181.0070  175.1370  135.2620 C   0  0  2  0  0  3  0  0  0  0  0  0
  179.6480  174.4570  135.4020 C   0  0  0  0  0  2  0  0  0  0  0  0
  180.1970  173.3090  137.5790 C   0  0  0  0  0  2  0  0  0  0  0  0
  181.8640  174.9590  136.5220 C   0  0  2  0  0  0  0  0  0  0  0  0
  180.8000  176.4970  135.0000 O   0  0  0  0  0  1  0  0  0  0  0  0
  183.2400  174.5250  136.2450 C   0  0  1  0  0  3  0  0  0  0  0  0
  182.9720  175.9460  136.6370 N   0  0  0  0  0  0  0  0  0  0  0  0
  183.9030  173.6640  137.3350 C   0  0  0  0  0  2  0  0  0  0  0  0
  184.4880  172.3340  135.4600 F   0  0  0  0  0  0  0  0  0  0  0  0
  184.2740  172.2760  136.8230 C   0  0  2  0  0  3  0  0  0  0  0  0
  183.1600  171.2950  137.0980 C   0  0  0  0  0  2  0  0  0  0  0  0
  182.7110  170.7350  135.8990 O   0  0  0  0  0  1  0  0  0  0  0  0
  182.1880  178.4230  138.1490 C   0  0  0  0  0  2  0  0  0  0  0  0
  182.4740  177.1830  140.0590 C   0  0  0  0  0  2  0  0  0  0  0  0
  182.0550  178.5820  140.3980 C   0  0  1  0  0  3  0  0  0  0  0  0
  182.1520  179.3360  139.2220 O   0  0  0  0  0  0  0  0  0  0  0  0
  182.2290  177.0530  138.6470 N   0  0  0  0  0  0  0  0  0  0  0  0
  180.6140  178.6070  140.9020 C   0  0  0  0  0  2  0  0  0  0  0  0
  180.2520  179.9130  141.5410 C   0  0  0  0  0  0  0  0  0  0  0  0
  180.6380  180.1650  142.8560 O   0  0  0  0  0  1  0  0  0  0  0  0
  179.5990  180.7900  140.9120 O   0  0  0  0  0  0  0  0  0  0  0  0
  1  4  1  0  0  0  0
  1  5  1  0  0  0  0
  2  3  1  0  0  0  0
  2  7  1  6  0  0  0
  4  6  1  0  0  0  0
  5 30  1  6  0  0  0
  5  3  1  0  0  0  0
  6  2  1  0  0  0  0
  7  8  1  0  0  0  0
  8  9  1  0  0  0  0
  9 10  1  0  0  0  0
 10 11  1  1  0  0  0
 10 12  1  0  0  0  0
 12 14  1  0  0  0  0
 14 13  1  6  0  0  0
 14 18  1  0  0  0  0
 15 14  1  0  0  0  0
 16 23  1  0  0  0  0
 16 22  1  0  0  0  0
 18 25  1  6  0  0  0
 18 27  1  0  0  0  0
 18 20  1  0  0  0  0
 20 19  1  1  0  0  0
 20 24  1  0  0  0  0
 21 16  1  0  0  0  0
 22 17  1  0  0  0  0
 22 26  2  0  0  0  0
 24 28  1  1  0  0  0
 24 17  1  0  0  0  0
 27 16  1  0  0  0  0
 28 29  1  0  0  0  0
 30 31  1  0  0  0  0
 32 31  1  6  0  0  0
 32 51  1  0  0  0  0
 34 37  1  0  0  0  0
 35 39  1  1  0  0  0
 35 36  1  0  0  0  0
 35 38  1  0  0  0  0
 36 34  1  0  0  0  0
 37 33  1  0  0  0  0
 38 41  1  0  0  0  0
 38 33  1  1  0  0  0
 40 38  1  0  0  0  0
 40 41  1  0  0  0  0
 40 42  1  1  0  0  0
 41 32  1  0  0  0  0
 44 43  1  6  0  0  0
 44 45  1  0  0  0  0
 44 42  1  0  0  0  0
 46 45  1  0  0  0  0
 47 51  1  0  0  0  0
 47 50  1  0  0  0  0
 48 49  1  0  0  0  0
 49 52  1  6  0  0  0
 50 49  1  0  0  0  0
 51 48  1  0  0  0  0
 52 53  1  0  0  0  0
 53 54  1  0  0  0  0
 55 53  2  0  0  0  0
M  END
>  <MODEL>
2

>  <REMARK>
 VINA RESULT:      -6.5      2.112      4.997
  Name = 
  18 active torsions:
  status: ('A' for Active; 'I' for Inactive)
    1  A    between atoms: C_2  and  C_28
    2  A    between atoms: C_2  and  C_44
    3  A    between atoms: C_4  and  C_40
    4  A    between atoms: C_6  and  C_20
    5  A    between atoms: C_8  and  O_22
    6  A    between atoms: C_8  and  C_35
    7  A    between atoms: C_10  and  C_32
    8  A    between atoms: C_11  and  C_38
    9  A    between atoms: C_19  and  C_40
   10  A    between atoms: C_19  and  C_45
   11  A    between atoms: C_20  and  O_22
   12  A    between atoms: C_27  and  C_54
   13  A    between atoms: C_28  and  C_33
   14  A    between atoms: C_32  and  C_39
   15  A    between atoms: C_33  and  N_49
   16  A    between atoms: C_33  and  N_52
   17  A    between atoms: C_35  and  C_51
   18  A    between atoms: C_51  and  C_54
                            x       y       z     vdW  Elec       q    Type
                         _______ _______ _______ _____ _____    ______ ____

>  <TORSDO>
F 18

$$$$
=
 OpenBabel11052415103D

 55 59  0  0  1  0  0  0  0  0999 V2000
  187.3820  177.0030  135.1830 C   0  0  0  0  0  2  0  0  0  0  0  0
  187.8510  178.4010  137.6980 C   0  0  2  0  0  3  0  0  0  0  0  0
  187.3330  176.9480  137.7070 C   0  0  0  0  0  2  0  0  0  0  0  0
  188.2820  178.2160  135.4400 C   0  0  0  0  0  2  0  0  0  0  0  0
  186.5820  176.5950  136.4210 C   0  0  1  0  0  3  0  0  0  0  0  0
  187.7400  179.0510  136.4470 O   0  0  0  0  0  0  0  0  0  0  0  0
  189.2640  178.4970  138.2460 C   0  0  0  0  0  2  0  0  0  0  0  0
  189.6860  177.1340  138.7870 C   0  0  0  0  0  2  0  0  0  0  0  0
  191.0450  177.2370  139.4440 C   0  0  0  0  0  2  0  0  0  0  0  0
  190.9370  177.1320  140.9590 C   0  0  1  0  0  3  0  0  0  0  0  0
  192.3230  177.2540  141.5710 C   0  0  0  0  0  1  0  0  0  0  0  0
  190.1250  178.1750  141.4330 O   0  0  0  0  0  0  0  0  0  0  0  0
  187.7220  178.1500  141.8740 C   0  0  0  0  0  1  0  0  0  0  0  0
  189.1150  177.7060  142.3230 C   0  0  1  0  0  0  0  0  0  0  0  0
  189.1350  176.3170  142.2380 O   0  0  0  0  0  1  0  0  0  0  0  0
  187.4010  177.9000  145.2950 C   0  0  0  0  0  0  0  0  0  0  0  0
  189.3530  177.3810  146.9110 O   0  0  0  0  0  0  0  0  0  0  0  0
  189.3770  178.1450  143.8010 C   0  0  1  0  0  0  0  0  0  0  0  0
  189.5160  175.8220  144.5860 F   0  0  0  0  0  0  0  0  0  0  0  0
  190.1180  177.0660  144.5990 C   0  0  2  0  0  3  0  0  0  0  0  0
  186.9340  176.5820  144.7080 C   0  0  0  0  0  1  0  0  0  0  0  0
  188.0040  177.6630  146.6750 C   0  0  0  0  0  0  0  0  0  0  0  0
  186.1280  178.7130  145.4810 C   0  0  0  0  0  1  0  0  0  0  0  0
  190.4290  177.5610  146.0000 C   0  0  2  0  0  3  0  0  0  0  0  0
  190.2550  179.2130  143.7450 F   0  0  0  0  0  0  0  0  0  0  0  0
  187.2250  177.5560  147.6650 O   0  0  0  0  0  0  0  0  0  0  0  0
  188.2040  178.6860  144.4160 O   0  0  0  0  0  0  0  0  0  0  0  0
  191.7060  176.9460  146.5520 C   0  0  0  0  0  2  0  0  0  0  0  0
  191.4500  175.6230  147.2300 C   0  0  0  0  0  1  0  0  0  0  0  0
  185.2060  177.2320  136.3740 C   0  0  0  0  0  2  0  0  0  0  0  0
  184.6790  177.4750  137.7740 C   0  0  0  0  0  2  0  0  0  0  0  0
  183.3570  176.7240  137.9800 C   0  0  2  0  0  3  0  0  0  0  0  0
  181.1330  175.0440  138.2660 C   0  0  0  0  0  2  0  0  0  0  0  0
  179.5750  173.4520  136.9500 C   0  0  0  0  0  2  0  0  0  0  0  0
  180.7860  175.2200  135.6500 C   0  0  2  0  0  3  0  0  0  0  0  0
  179.4190  174.6480  136.0170 C   0  0  0  0  0  2  0  0  0  0  0  0
  180.1060  173.8950  138.3240 C   0  0  0  0  0  2  0  0  0  0  0  0
  181.7370  175.2350  136.8540 C   0  0  2  0  0  0  0  0  0  0  0  0
  180.6070  176.5180  135.1540 O   0  0  0  0  0  1  0  0  0  0  0  0
  183.0690  174.6870  136.5610 C   0  0  1  0  0  3  0  0  0  0  0  0
  182.8860  176.1680  136.6980 N   0  0  0  0  0  0  0  0  0  0  0  0
  183.7880  174.0090  137.7410 C   0  0  0  0  0  2  0  0  0  0  0  0
  185.7100  173.3490  136.5180 F   0  0  0  0  0  0  0  0  0  0  0  0
  184.6750  172.8540  137.2860 C   0  0  2  0  0  3  0  0  0  0  0  0
  183.8800  171.8740  136.4580 C   0  0  0  0  0  2  0  0  0  0  0  0
  183.1170  171.0540  137.2930 O   0  0  0  0  0  1  0  0  0  0  0  0
  182.0870  178.7990  137.8640 C   0  0  0  0  0  2  0  0  0  0  0  0
  182.6990  177.9500  139.9060 C   0  0  0  0  0  2  0  0  0  0  0  0
  182.2170  179.3630  140.0460 C   0  0  1  0  0  3  0  0  0  0  0  0
  182.1110  179.8910  138.7530 O   0  0  0  0  0  0  0  0  0  0  0  0
  182.2940  177.5490  138.5850 N   0  0  0  0  0  0  0  0  0  0  0  0
  180.8500  179.4020  140.7270 C   0  0  0  0  0  2  0  0  0  0  0  0
  179.7200  179.3750  139.7440 C   0  0  0  0  0  0  0  0  0  0  0  0
  179.1600  178.1550  139.3740 O   0  0  0  0  0  1  0  0  0  0  0  0
  179.2660  180.4380  139.2390 O   0  0  0  0  0  0  0  0  0  0  0  0
  1  4  1  0  0  0  0
  1  5  1  0  0  0  0
  2  3  1  0  0  0  0
  2  7  1  6  0  0  0
  4  6  1  0  0  0  0
  5 30  1  1  0  0  0
  5  3  1  0  0  0  0
  6  2  1  0  0  0  0
  7  8  1  0  0  0  0
  8  9  1  0  0  0  0
  9 10  1  0  0  0  0
 10 12  1  0  0  0  0
 10 11  1  1  0  0  0
 12 14  1  0  0  0  0
 14 13  1  6  0  0  0
 14 18  1  0  0  0  0
 15 14  1  0  0  0  0
 16 23  1  0  0  0  0
 16 22  1  0  0  0  0
 18 25  1  6  0  0  0
 18 27  1  0  0  0  0
 18 20  1  0  0  0  0
 20 19  1  1  0  0  0
 20 24  1  0  0  0  0
 21 16  1  0  0  0  0
 22 17  1  0  0  0  0
 22 26  2  0  0  0  0
 24 28  1  1  0  0  0
 24 17  1  0  0  0  0
 27 16  1  0  0  0  0
 28 29  1  0  0  0  0
 30 31  1  0  0  0  0
 32 31  1  6  0  0  0
 32 51  1  0  0  0  0
 33 37  1  0  0  0  0
 34 37  1  0  0  0  0
 35 39  1  1  0  0  0
 35 36  1  0  0  0  0
 35 38  1  0  0  0  0
 36 34  1  0  0  0  0
 38 33  1  1  0  0  0
 40 41  1  0  0  0  0
 40 38  1  0  0  0  0
 40 42  1  1  0  0  0
 41 38  1  0  0  0  0
 41 32  1  0  0  0  0
 44 43  1  6  0  0  0
 44 42  1  0  0  0  0
 45 44  1  0  0  0  0
 45 46  1  0  0  0  0
 47 51  1  0  0  0  0
 47 50  1  0  0  0  0
 48 49  1  0  0  0  0
 49 52  1  6  0  0  0
 50 49  1  0  0  0  0
 51 48  1  0  0  0  0
 53 52  1  0  0  0  0
 54 53  1  0  0  0  0
 55 53  2  0  0  0  0
M  END
>  <MODEL>
3

>  <REMARK>
 VINA RESULT:      -6.1      1.959      4.188
  Name = 
  18 active torsions:
  status: ('A' for Active; 'I' for Inactive)
    1  A    between atoms: C_2  and  C_28
    2  A    between atoms: C_2  and  C_44
    3  A    between atoms: C_4  and  C_40
    4  A    between atoms: C_6  and  C_20
    5  A    between atoms: C_8  and  O_22
    6  A    between atoms: C_8  and  C_35
    7  A    between atoms: C_10  and  C_32
    8  A    between atoms: C_11  and  C_38
    9  A    between atoms: C_19  and  C_40
   10  A    between atoms: C_19  and  C_45
   11  A    between atoms: C_20  and  O_22
   12  A    between atoms: C_27  and  C_54
   13  A    between atoms: C_28  and  C_33
   14  A    between atoms: C_32  and  C_39
   15  A    between atoms: C_33  and  N_49
   16  A    between atoms: C_33  and  N_52
   17  A    between atoms: C_35  and  C_51
   18  A    between atoms: C_51  and  C_54
                            x       y       z     vdW  Elec       q    Type
                         _______ _______ _______ _____ _____    ______ ____

>  <TORSDO>
F 18

$$$$
=
 OpenBabel11052415103D

 55 59  0  0  1  0  0  0  0  0999 V2000
  183.8530  178.4010  143.0270 C   0  0  0  0  0  2  0  0  0  0  0  0
  182.0830  178.3410  140.7120 C   0  0  2  0  0  3  0  0  0  0  0  0
  183.2350  177.3230  140.8290 C   0  0  0  0  0  2  0  0  0  0  0  0
  182.4350  178.9680  142.9020 C   0  0  0  0  0  2  0  0  0  0  0  0
  184.3780  177.8430  141.7030 C   0  0  1  0  0  3  0  0  0  0  0  0
  182.1870  179.4430  141.5920 O   0  0  0  0  0  0  0  0  0  0  0  0
  180.7260  177.6690  140.8270 C   0  0  0  0  0  2  0  0  0  0  0  0
  180.3430  177.0750  139.4750 C   0  0  0  0  0  2  0  0  0  0  0  0
  179.8140  178.1610  138.5650 C   0  0  0  0  0  2  0  0  0  0  0  0
  180.6510  178.2790  137.2990 C   0  0  1  0  0  3  0  0  0  0  0  0
  181.5360  179.5120  137.3960 C   0  0  0  0  0  1  0  0  0  0  0  0
  181.4580  177.1360  137.1750 O   0  0  0  0  0  0  0  0  0  0  0  0
  180.2380  177.0190  135.0620 C   0  0  0  0  0  1  0  0  0  0  0  0
  181.5090  176.6590  135.8330 C   0  0  1  0  0  0  0  0  0  0  0  0
  182.5530  177.3400  135.2160 O   0  0  0  0  0  1  0  0  0  0  0  0
  184.1320  174.4710  136.2120 C   0  0  0  0  0  0  0  0  0  0  0  0
  182.8350  172.4700  137.2150 O   0  0  0  0  0  0  0  0  0  0  0  0
  181.7700  175.1180  135.7620 C   0  0  1  0  0  0  0  0  0  0  0  0
  181.8680  174.9080  138.2070 F   0  0  0  0  0  0  0  0  0  0  0  0
  181.3270  174.4010  137.0420 C   0  0  2  0  0  3  0  0  0  0  0  0
  184.3510  175.4760  137.3280 C   0  0  0  0  0  1  0  0  0  0  0  0
  184.0290  173.0680  136.7990 C   0  0  0  0  0  0  0  0  0  0  0  0
  185.4050  174.5320  135.3810 C   0  0  0  0  0  1  0  0  0  0  0  0
  181.5170  172.9000  136.9020 C   0  0  2  0  0  3  0  0  0  0  0  0
  180.9430  174.6230  134.7710 F   0  0  0  0  0  0  0  0  0  0  0  0
  185.0960  172.4490  137.0780 O   0  0  0  0  0  0  0  0  0  0  0  0
  183.0910  174.8190  135.3010 O   0  0  0  0  0  0  0  0  0  0  0  0
  180.4930  172.1180  137.7110 C   0  0  0  0  0  2  0  0  0  0  0  0
  179.5630  171.3230  136.8290 C   0  0  0  0  0  1  0  0  0  0  0  0
  185.2010  178.9010  140.9920 C   0  0  0  0  0  2  0  0  0  0  0  0
  186.4790  179.1890  141.7540 C   0  0  0  0  0  2  0  0  0  0  0  0
  187.6290  178.3350  141.2030 C   0  0  2  0  0  3  0  0  0  0  0  0
  189.0640  176.1950  142.3040 C   0  0  0  0  0  2  0  0  0  0  0  0
  191.1770  175.6300  143.6850 C   0  0  0  0  0  2  0  0  0  0  0  0
  191.1690  177.7930  142.4190 C   0  0  2  0  0  3  0  0  0  0  0  0
  191.8880  176.4630  142.6240 C   0  0  0  0  0  2  0  0  0  0  0  0
  189.8010  175.1640  143.1830 C   0  0  0  0  0  2  0  0  0  0  0  0
  189.6440  177.6240  142.4450 C   0  0  2  0  0  0  0  0  0  0  0  0
  191.5780  178.3370  141.1940 O   0  0  0  0  0  1  0  0  0  0  0  0
  188.9560  178.5970  143.3040 C   0  0  1  0  0  3  0  0  0  0  0  0
  188.9050  178.7520  141.8140 N   0  0  0  0  0  0  0  0  0  0  0  0
  187.6480  178.1120  143.9530 C   0  0  0  0  0  2  0  0  0  0  0  0
  188.5730  176.8160  145.7110 F   0  0  0  0  0  0  0  0  0  0  0  0
  187.7900  177.9250  145.4600 C   0  0  2  0  0  3  0  0  0  0  0  0
  186.4360  177.7170  146.0970 C   0  0  0  0  0  2  0  0  0  0  0  0
  185.6990  178.9030  146.0450 O   0  0  0  0  0  1  0  0  0  0  0  0
  187.5850  177.0560  139.1310 C   0  0  0  0  0  2  0  0  0  0  0  0
  189.0770  178.7830  139.3740 C   0  0  0  0  0  2  0  0  0  0  0  0
  189.4300  177.9460  138.1800 C   0  0  1  0  0  3  0  0  0  0  0  0
  188.6480  176.7870  138.2460 O   0  0  0  0  0  0  0  0  0  0  0  0
  187.7450  178.3740  139.7330 N   0  0  0  0  0  0  0  0  0  0  0  0
  189.1220  178.6960  136.8860 C   0  0  0  0  0  2  0  0  0  0  0  0
  188.8870  177.7720  135.7300 C   0  0  0  0  0  0  0  0  0  0  0  0
  189.9420  177.0110  135.2330 O   0  0  0  0  0  1  0  0  0  0  0  0
  187.7500  177.6720  135.1930 O   0  0  0  0  0  0  0  0  0  0  0  0
  2  7  1  1  0  0  0
  2  3  1  0  0  0  0
  2  6  1  0  0  0  0
  3  5  1  0  0  0  0
  4  1  1  0  0  0  0
  5 30  1  6  0  0  0
  5  1  1  0  0  0  0
  6  4  1  0  0  0  0
  8  7  1  0  0  0  0
  9  8  1  0  0  0  0
 10 11  1  1  0  0  0
 10  9  1  0  0  0  0
 12 10  1  0  0  0  0
 14 13  1  6  0  0  0
 14 12  1  0  0  0  0
 15 14  1  0  0  0  0
 16 22  1  0  0  0  0
 16 21  1  0  0  0  0
 18 25  1  6  0  0  0
 18 14  1  0  0  0  0
 18 20  1  0  0  0  0
 20 19  1  1  0  0  0
 22 26  2  0  0  0  0
 22 17  1  0  0  0  0
 23 16  1  0  0  0  0
 24 20  1  0  0  0  0
 24 17  1  0  0  0  0
 24 28  1  1  0  0  0
 27 18  1  0  0  0  0
 27 16  1  0  0  0  0
 29 28  1  0  0  0  0
 30 31  1  0  0  0  0
 32 31  1  1  0  0  0
 32 41  1  0  0  0  0
 33 37  1  0  0  0  0
 35 39  1  6  0  0  0
 35 38  1  0  0  0  0
 35 36  1  0  0  0  0
 36 34  1  0  0  0  0
 37 34  1  0  0  0  0
 38 33  1  6  0  0  0
 38 40  1  0  0  0  0
 40 42  1  6  0  0  0
 41 38  1  0  0  0  0
 41 40  1  0  0  0  0
 42 44  1  0  0  0  0
 44 43  1  6  0  0  0
 44 45  1  0  0  0  0
 46 45  1  0  0  0  0
 47 51  1  0  0  0  0
 48 51  1  0  0  0  0
 49 52  1  6  0  0  0
 49 50  1  0  0  0  0
 49 48  1  0  0  0  0
 50 47  1  0  0  0  0
 51 32  1  0  0  0  0
 53 52  1  0  0  0  0
 54 53  1  0  0  0  0
 55 53  2  0  0  0  0
M  END
>  <MODEL>
4

>  <REMARK>
 VINA RESULT:      -5.7      2.666      9.872
  Name = 
  18 active torsions:
  status: ('A' for Active; 'I' for Inactive)
    1  A    between atoms: C_2  and  C_28
    2  A    between atoms: C_2  and  C_44
    3  A    between atoms: C_4  and  C_40
    4  A    between atoms: C_6  and  C_20
    5  A    between atoms: C_8  and  O_22
    6  A    between atoms: C_8  and  C_35
    7  A    between atoms: C_10  and  C_32
    8  A    between atoms: C_11  and  C_38
    9  A    between atoms: C_19  and  C_40
   10  A    between atoms: C_19  and  C_45
   11  A    between atoms: C_20  and  O_22
   12  A    between atoms: C_27  and  C_54
   13  A    between atoms: C_28  and  C_33
   14  A    between atoms: C_32  and  C_39
   15  A    between atoms: C_33  and  N_49
   16  A    between atoms: C_33  and  N_52
   17  A    between atoms: C_35  and  C_51
   18  A    between atoms: C_51  and  C_54
                            x       y       z     vdW  Elec       q    Type
                         _______ _______ _______ _____ _____    ______ ____

>  <TORSDO>
F 18

$$$$
=
 OpenBabel11052415103D

 55 59  0  0  1  0  0  0  0  0999 V2000
  185.0200  178.8140  138.7120 C   0  0  0  0  0  2  0  0  0  0  0  0
  187.5950  177.6030  138.0830 C   0  0  2  0  0  3  0  0  0  0  0  0
  186.7010  178.1460  136.9500 C   0  0  0  0  0  2  0  0  0  0  0  0
  186.2300  178.6280  139.6320 C   0  0  0  0  0  2  0  0  0  0  0  0
  185.2220  178.1650  137.3410 C   0  0  1  0  0  3  0  0  0  0  0  0
  186.9320  177.4390  139.3220 O   0  0  0  0  0  0  0  0  0  0  0  0
  188.8640  178.4220  138.2400 C   0  0  0  0  0  2  0  0  0  0  0  0
  189.4160  178.2260  139.6500 C   0  0  0  0  0  2  0  0  0  0  0  0
  190.1380  176.9000  139.7420 C   0  0  0  0  0  2  0  0  0  0  0  0
  191.0390  176.8450  140.9680 C   0  0  1  0  0  3  0  0  0  0  0  0
  192.3790  177.4820  140.6350 C   0  0  0  0  0  1  0  0  0  0  0  0
  190.4320  177.5570  142.0150 O   0  0  0  0  0  0  0  0  0  0  0  0
  190.8800  175.3660  142.9980 C   0  0  0  0  0  1  0  0  0  0  0  0
  190.3360  176.7800  143.2050 C   0  0  1  0  0  0  0  0  0  0  0  0
  191.1660  177.3920  144.1390 O   0  0  0  0  0  1  0  0  0  0  0  0
  188.6630  177.4350  146.1360 C   0  0  0  0  0  0  0  0  0  0  0  0
  186.4260  178.2630  145.1360 O   0  0  0  0  0  0  0  0  0  0  0  0
  188.8740  176.7240  143.7590 C   0  0  1  0  0  0  0  0  0  0  0  0
  188.6090  179.1630  143.6240 F   0  0  0  0  0  0  0  0  0  0  0  0
  188.0470  177.9380  143.3200 C   0  0  2  0  0  3  0  0  0  0  0  0
  189.6560  178.5770  146.0370 C   0  0  0  0  0  1  0  0  0  0  0  0
  187.2480  177.9920  146.2350 C   0  0  0  0  0  0  0  0  0  0  0  0
  188.9860  176.7550  147.4590 C   0  0  0  0  0  1  0  0  0  0  0  0
  186.6130  177.8070  143.8040 C   0  0  2  0  0  3  0  0  0  0  0  0
  188.2640  175.6400  143.1550 F   0  0  0  0  0  0  0  0  0  0  0  0
  186.8310  178.3850  147.3620 O   0  0  0  0  0  0  0  0  0  0  0  0
  188.8400  176.4140  145.1550 O   0  0  0  0  0  0  0  0  0  0  0  0
  185.6290  178.4850  142.8630 C   0  0  0  0  0  2  0  0  0  0  0  0
  184.2030  178.3350  143.3300 C   0  0  0  0  0  1  0  0  0  0  0  0
  184.6160  176.7740  137.3390 C   0  0  0  0  0  2  0  0  0  0  0  0
  183.5750  176.6440  136.2460 C   0  0  0  0  0  2  0  0  0  0  0  0
  182.3410  175.8990  136.7740 C   0  0  2  0  0  3  0  0  0  0  0  0
  181.0940  173.5230  137.5790 C   0  0  0  0  0  2  0  0  0  0  0  0
  179.8140  171.4640  136.6760 C   0  0  0  0  0  2  0  0  0  0  0  0
  179.7860  173.5460  135.2810 C   0  0  2  0  0  3  0  0  0  0  0  0
  178.9310  172.5150  136.0120 C   0  0  0  0  0  2  0  0  0  0  0  0
  180.6190  172.0780  137.8330 C   0  0  0  0  0  2  0  0  0  0  0  0
  181.0410  173.9140  136.0820 C   0  0  2  0  0  0  0  0  0  0  0  0
  179.0060  174.6850  135.0440 O   0  0  0  0  0  1  0  0  0  0  0  0
  182.2770  173.8910  135.2880 C   0  0  1  0  0  3  0  0  0  0  0  0
  181.6600  175.2030  135.6670 N   0  0  0  0  0  0  0  0  0  0  0  0
  183.5610  173.5300  136.0570 C   0  0  0  0  0  2  0  0  0  0  0  0
  183.2600  171.1780  135.9850 F   0  0  0  0  0  0  0  0  0  0  0  0
  184.1320  172.1840  135.6210 C   0  0  2  0  0  3  0  0  0  0  0  0
  185.4650  171.9370  136.2840 C   0  0  0  0  0  2  0  0  0  0  0  0
  185.6200  172.7940  137.3770 O   0  0  0  0  0  1  0  0  0  0  0  0
  181.4660  178.1550  137.0460 C   0  0  0  0  0  2  0  0  0  0  0  0
  181.7160  176.8010  138.8810 C   0  0  0  0  0  2  0  0  0  0  0  0
  181.4730  178.2190  139.3030 C   0  0  1  0  0  3  0  0  0  0  0  0
  181.5890  179.0140  138.1560 O   0  0  0  0  0  0  0  0  0  0  0  0
  181.3820  176.7670  137.4820 N   0  0  0  0  0  0  0  0  0  0  0  0
  180.0720  178.3750  139.8920 C   0  0  0  0  0  2  0  0  0  0  0  0
  179.9080  179.6560  140.6500 C   0  0  0  0  0  0  0  0  0  0  0  0
  180.3190  179.7260  141.9790 O   0  0  0  0  0  1  0  0  0  0  0  0
  179.3990  180.6760  140.1090 O   0  0  0  0  0  0  0  0  0  0  0  0
  1  4  1  0  0  0  0
  2  7  1  1  0  0  0
  2  6  1  0  0  0  0
  3  5  1  0  0  0  0
  3  2  1  0  0  0  0
  5 30  1  1  0  0  0
  5  1  1  0  0  0  0
  6  4  1  0  0  0  0
  7  8  1  0  0  0  0
  8  9  1  0  0  0  0
  9 10  1  0  0  0  0
 10 11  1  6  0  0  0
 10 12  1  0  0  0  0
 12 14  1  0  0  0  0
 14 13  1  6  0  0  0
 14 18  1  0  0  0  0
 14 15  1  0  0  0  0
 16 22  1  0  0  0  0
 16 23  1  0  0  0  0
 17 22  1  0  0  0  0
 18 25  1  6  0  0  0
 18 27  1  0  0  0  0
 20 19  1  1  0  0  0
 20 18  1  0  0  0  0
 20 24  1  0  0  0  0
 21 16  1  0  0  0  0
 22 26  2  0  0  0  0
 24 28  1  6  0  0  0
 24 17  1  0  0  0  0
 27 16  1  0  0  0  0
 28 29  1  0  0  0  0
 31 30  1  0  0  0  0
 32 31  1  6  0  0  0
 32 51  1  0  0  0  0
 33 37  1  0  0  0  0
 34 37  1  0  0  0  0
 35 39  1  1  0  0  0
 35 36  1  0  0  0  0
 35 38  1  0  0  0  0
 36 34  1  0  0  0  0
 38 33  1  1  0  0  0
 40 41  1  0  0  0  0
 40 42  1  1  0  0  0
 40 38  1  0  0  0  0
 41 38  1  0  0  0  0
 41 32  1  0  0  0  0
 44 43  1  1  0  0  0
 44 42  1  0  0  0  0
 44 45  1  0  0  0  0
 45 46  1  0  0  0  0
 47 51  1  0  0  0  0
 47 50  1  0  0  0  0
 48 49  1  0  0  0  0
 49 52  1  6  0  0  0
 50 49  1  0  0  0  0
 51 48  1  0  0  0  0
 52 53  1  0  0  0  0
 53 54  1  0  0  0  0
 55 53  2  0  0  0  0
M  END
>  <MODEL>
5

>  <REMARK>
 VINA RESULT:      -5.6      2.443      5.069
  Name = 
  18 active torsions:
  status: ('A' for Active; 'I' for Inactive)
    1  A    between atoms: C_2  and  C_28
    2  A    between atoms: C_2  and  C_44
    3  A    between atoms: C_4  and  C_40
    4  A    between atoms: C_6  and  C_20
    5  A    between atoms: C_8  and  O_22
    6  A    between atoms: C_8  and  C_35
    7  A    between atoms: C_10  and  C_32
    8  A    between atoms: C_11  and  C_38
    9  A    between atoms: C_19  and  C_40
   10  A    between atoms: C_19  and  C_45
   11  A    between atoms: C_20  and  O_22
   12  A    between atoms: C_27  and  C_54
   13  A    between atoms: C_28  and  C_33
   14  A    between atoms: C_32  and  C_39
   15  A    between atoms: C_33  and  N_49
   16  A    between atoms: C_33  and  N_52
   17  A    between atoms: C_35  and  C_51
   18  A    between atoms: C_51  and  C_54
                            x       y       z     vdW  Elec       q    Type
                         _______ _______ _______ _____ _____    ______ ____

>  <TORSDO>
F 18

$$$$
=
 OpenBabel11052415103D

 55 59  0  0  1  0  0  0  0  0999 V2000
  185.3170  178.6300  138.5490 C   0  0  0  0  0  2  0  0  0  0  0  0
  187.8380  177.4730  137.6540 C   0  0  2  0  0  3  0  0  0  0  0  0
  186.9390  178.2310  136.6560 C   0  0  0  0  0  2  0  0  0  0  0  0
  186.5390  178.2530  139.3920 C   0  0  0  0  0  2  0  0  0  0  0  0
  185.4700  178.2240  137.0820 C   0  0  1  0  0  3  0  0  0  0  0  0
  187.1950  177.1160  138.8620 O   0  0  0  0  0  0  0  0  0  0  0  0
  189.1350  178.2170  137.9180 C   0  0  0  0  0  2  0  0  0  0  0  0
  189.4690  178.1310  139.4050 C   0  0  0  0  0  2  0  0  0  0  0  0
  190.1450  176.8130  139.7080 C   0  0  0  0  0  2  0  0  0  0  0  0
  191.2030  176.9700  140.7920 C   0  0  1  0  0  3  0  0  0  0  0  0
  192.4840  177.5000  140.1690 C   0  0  0  0  0  1  0  0  0  0  0  0
  190.7410  177.8820  141.7550 O   0  0  0  0  0  0  0  0  0  0  0  0
  190.7830  175.8900  143.1680 C   0  0  0  0  0  1  0  0  0  0  0  0
  190.9450  177.4080  143.0830 C   0  0  1  0  0  0  0  0  0  0  0  0
  192.2720  177.6830  143.3960 O   0  0  0  0  0  1  0  0  0  0  0  0
  187.5790  177.7490  143.6880 C   0  0  0  0  0  0  0  0  0  0  0  0
  187.6520  177.8550  146.2720 O   0  0  0  0  0  0  0  0  0  0  0  0
  190.0050  178.1140  144.1140 C   0  0  1  0  0  0  0  0  0  0  0  0
  189.5120  176.0070  145.2780 F   0  0  0  0  0  0  0  0  0  0  0  0
  189.8960  177.3260  145.4250 C   0  0  2  0  0  3  0  0  0  0  0  0
  187.7160  176.2920  143.2890 C   0  0  0  0  0  1  0  0  0  0  0  0
  186.9390  177.8440  145.0680 C   0  0  0  0  0  0  0  0  0  0  0  0
  186.5980  178.3350  142.6830 C   0  0  0  0  0  1  0  0  0  0  0  0
  189.0450  178.0830  146.4300 C   0  0  2  0  0  3  0  0  0  0  0  0
  190.6220  179.3010  144.4620 F   0  0  0  0  0  0  0  0  0  0  0  0
  185.6810  177.7540  145.1590 O   0  0  0  0  0  0  0  0  0  0  0  0
  188.7670  178.5200  143.5220 O   0  0  0  0  0  0  0  0  0  0  0  0
  189.4730  177.8060  147.8630 C   0  0  0  0  0  2  0  0  0  0  0  0
  190.8290  177.1480  147.9320 C   0  0  0  0  0  1  0  0  0  0  0  0
  184.8190  176.8730  136.8560 C   0  0  0  0  0  2  0  0  0  0  0  0
  183.6120  177.0040  135.9490 C   0  0  0  0  0  2  0  0  0  0  0  0
  182.4280  176.2150  136.5230 C   0  0  2  0  0  3  0  0  0  0  0  0
  180.9860  174.0410  137.5470 C   0  0  0  0  0  2  0  0  0  0  0  0
  179.6900  171.9160  136.8400 C   0  0  0  0  0  2  0  0  0  0  0  0
  179.9050  173.7550  135.1500 C   0  0  2  0  0  3  0  0  0  0  0  0
  178.9310  172.8840  135.9380 C   0  0  0  0  0  2  0  0  0  0  0  0
  180.4130  172.6730  137.9670 C   0  0  0  0  0  2  0  0  0  0  0  0
  181.0960  174.1960  136.0110 C   0  0  2  0  0  0  0  0  0  0  0  0
  179.2120  174.8720  134.6650 O   0  0  0  0  0  1  0  0  0  0  0  0
  182.3990  174.0020  135.3600 C   0  0  1  0  0  3  0  0  0  0  0  0
  181.8190  175.3800  135.4700 N   0  0  0  0  0  0  0  0  0  0  0  0
  183.5820  173.7180  136.3020 C   0  0  0  0  0  2  0  0  0  0  0  0
  184.7720  171.8980  137.2510 F   0  0  0  0  0  0  0  0  0  0  0  0
  184.1660  172.3250  136.0860 C   0  0  2  0  0  3  0  0  0  0  0  0
  185.1960  172.3500  134.9830 C   0  0  0  0  0  2  0  0  0  0  0  0
  186.0730  173.4220  135.1750 O   0  0  0  0  0  1  0  0  0  0  0  0
  181.2060  178.3190  136.4290 C   0  0  0  0  0  2  0  0  0  0  0  0
  181.8300  177.4530  138.4600 C   0  0  0  0  0  2  0  0  0  0  0  0
  181.3840  178.8770  138.6090 C   0  0  1  0  0  3  0  0  0  0  0  0
  181.2700  179.4090  137.3190 O   0  0  0  0  0  0  0  0  0  0  0  0
  181.3950  177.0630  137.1450 N   0  0  0  0  0  0  0  0  0  0  0  0
  180.0290  178.9470  139.3110 C   0  0  0  0  0  2  0  0  0  0  0  0
  180.1340  178.7070  140.7860 C   0  0  0  0  0  0  0  0  0  0  0  0
  179.1870  177.9080  141.4220 O   0  0  0  0  0  0  0  0  0  0  0  0
  181.0650  179.2190  141.4680 O   0  0  0  0  0  1  0  0  0  0  0  0
  1  4  1  0  0  0  0
  2  7  1  1  0  0  0
  2  6  1  0  0  0  0
  3  5  1  0  0  0  0
  3  2  1  0  0  0  0
  5 30  1  1  0  0  0
  5  1  1  0  0  0  0
  6  4  1  0  0  0  0
  7  8  1  0  0  0  0
  8  9  1  0  0  0  0
  9 10  1  0  0  0  0
 10 11  1  6  0  0  0
 10 12  1  0  0  0  0
 12 14  1  0  0  0  0
 14 13  1  1  0  0  0
 14 15  1  0  0  0  0
 14 18  1  0  0  0  0
 16 22  1  0  0  0  0
 17 24  1  0  0  0  0
 18 25  1  1  0  0  0
 18 20  1  0  0  0  0
 20 19  1  6  0  0  0
 20 24  1  0  0  0  0
 21 16  1  0  0  0  0
 22 26  2  0  0  0  0
 22 17  1  0  0  0  0
 23 16  1  0  0  0  0
 24 28  1  1  0  0  0
 27 16  1  0  0  0  0
 27 18  1  0  0  0  0
 28 29  1  0  0  0  0
 31 30  1  0  0  0  0
 32 31  1  6  0  0  0
 32 51  1  0  0  0  0
 33 37  1  0  0  0  0
 34 37  1  0  0  0  0
 35 39  1  1  0  0  0
 35 36  1  0  0  0  0
 35 38  1  0  0  0  0
 36 34  1  0  0  0  0
 38 33  1  1  0  0  0
 40 41  1  0  0  0  0
 40 38  1  0  0  0  0
 40 42  1  1  0  0  0
 41 38  1  0  0  0  0
 41 32  1  0  0  0  0
 44 42  1  0  0  0  0
 44 43  1  1  0  0  0
 45 46  1  0  0  0  0
 45 44  1  0  0  0  0
 47 51  1  0  0  0  0
 47 50  1  0  0  0  0
 48 49  1  0  0  0  0
 49 52  1  6  0  0  0
 50 49  1  0  0  0  0
 51 48  1  0  0  0  0
 52 53  1  0  0  0  0
 53 54  2  0  0  0  0
 53 55  1  0  0  0  0
M  END
>  <MODEL>
6

>  <REMARK>
 VINA RESULT:      -5.5      2.249      4.535
  Name = 
  18 active torsions:
  status: ('A' for Active; 'I' for Inactive)
    1  A    between atoms: C_2  and  C_28
    2  A    between atoms: C_2  and  C_44
    3  A    between atoms: C_4  and  C_40
    4  A    between atoms: C_6  and  C_20
    5  A    between atoms: C_8  and  O_22
    6  A    between atoms: C_8  and  C_35
    7  A    between atoms: C_10  and  C_32
    8  A    between atoms: C_11  and  C_38
    9  A    between atoms: C_19  and  C_40
   10  A    between atoms: C_19  and  C_45
   11  A    between atoms: C_20  and  O_22
   12  A    between atoms: C_27  and  C_54
   13  A    between atoms: C_28  and  C_33
   14  A    between atoms: C_32  and  C_39
   15  A    between atoms: C_33  and  N_49
   16  A    between atoms: C_33  and  N_52
   17  A    between atoms: C_35  and  C_51
   18  A    between atoms: C_51  and  C_54
                            x       y       z     vdW  Elec       q    Type
                         _______ _______ _______ _____ _____    ______ ____

>  <TORSDO>
F 18

$$$$
=
 OpenBabel11052415103D

 55 59  0  0  1  0  0  0  0  0999 V2000
  184.6960  178.2280  143.9310 C   0  0  0  0  0  2  0  0  0  0  0  0
  182.3850  179.3450  142.5520 C   0  0  2  0  0  3  0  0  0  0  0  0
  183.1120  178.1170  141.9680 C   0  0  0  0  0  2  0  0  0  0  0  0
  183.5810  179.1050  144.5080 C   0  0  0  0  0  2  0  0  0  0  0  0
  184.5730  178.0450  142.4170 C   0  0  1  0  0  3  0  0  0  0  0  0
  183.1130  180.0350  143.5490 O   0  0  0  0  0  0  0  0  0  0  0  0
  180.9880  178.9950  143.0330 C   0  0  0  0  0  2  0  0  0  0  0  0
  180.2600  178.2200  141.9380 C   0  0  0  0  0  2  0  0  0  0  0  0
  179.1250  179.0520  141.3830 C   0  0  0  0  0  2  0  0  0  0  0  0
  179.4840  179.6400  140.0250 C   0  0  1  0  0  3  0  0  0  0  0  0
  180.0060  181.0560  140.2130 C   0  0  0  0  0  1  0  0  0  0  0  0
  180.4830  178.8500  139.4330 O   0  0  0  0  0  0  0  0  0  0  0  0
  178.9340  179.2440  137.5850 C   0  0  0  0  0  1  0  0  0  0  0  0
  180.3060  178.7310  138.0240 C   0  0  1  0  0  0  0  0  0  0  0  0
  181.2490  179.5710  137.4390 O   0  0  0  0  0  1  0  0  0  0  0  0
  182.9150  176.6600  137.1770 C   0  0  0  0  0  0  0  0  0  0  0  0
  181.9100  174.4140  137.9740 O   0  0  0  0  0  0  0  0  0  0  0  0
  180.5250  177.2660  137.5220 C   0  0  1  0  0  0  0  0  0  0  0  0
  181.2640  176.4980  139.7350 F   0  0  0  0  0  0  0  0  0  0  0  0
  180.4280  176.2470  138.6630 C   0  0  2  0  0  3  0  0  0  0  0  0
  183.4300  177.3880  138.4040 C   0  0  0  0  0  1  0  0  0  0  0  0
  182.9570  175.1560  137.4180 C   0  0  0  0  0  0  0  0  0  0  0  0
  183.9230  176.9820  136.0840 C   0  0  0  0  0  1  0  0  0  0  0  0
  180.5610  174.8330  138.1250 C   0  0  2  0  0  3  0  0  0  0  0  0
  179.4600  176.9710  136.6900 F   0  0  0  0  0  0  0  0  0  0  0  0
  184.0540  174.5480  137.2550 O   0  0  0  0  0  0  0  0  0  0  0  0
  181.6740  177.1540  136.6770 O   0  0  0  0  0  0  0  0  0  0  0  0
  179.7800  173.8300  138.9610 C   0  0  0  0  0  2  0  0  0  0  0  0
  178.9400  174.5040  140.0170 C   0  0  0  0  0  1  0  0  0  0  0  0
  185.4380  179.0680  141.7060 C   0  0  0  0  0  2  0  0  0  0  0  0
  186.7700  179.2270  142.4100 C   0  0  0  0  0  2  0  0  0  0  0  0
  187.8340  178.3480  141.7380 C   0  0  2  0  0  3  0  0  0  0  0  0
  189.2780  176.1470  142.7000 C   0  0  0  0  0  2  0  0  0  0  0  0
  191.4830  175.4930  143.8830 C   0  0  0  0  0  2  0  0  0  0  0  0
  191.4450  177.6620  142.6280 C   0  0  2  0  0  3  0  0  0  0  0  0
  192.1280  176.3040  142.7640 C   0  0  0  0  0  2  0  0  0  0  0  0
  190.0500  175.0840  143.5060 C   0  0  0  0  0  2  0  0  0  0  0  0
  189.9230  177.5520  142.7920 C   0  0  2  0  0  0  0  0  0  0  0  0
  191.7630  178.1970  141.3730 O   0  0  0  0  0  1  0  0  0  0  0  0
  189.3540  178.5460  143.7120 C   0  0  1  0  0  3  0  0  0  0  0  0
  189.1750  178.7110  142.2330 N   0  0  0  0  0  0  0  0  0  0  0  0
  188.0910  178.1070  144.4750 C   0  0  0  0  0  2  0  0  0  0  0  0
  187.2960  177.0920  146.4660 F   0  0  0  0  0  0  0  0  0  0  0  0
  188.4250  177.2390  145.6840 C   0  0  2  0  0  3  0  0  0  0  0  0
  189.5100  177.8820  146.5130 C   0  0  0  0  0  2  0  0  0  0  0  0
  189.0040  178.2370  147.7670 O   0  0  0  0  0  1  0  0  0  0  0  0
  187.7900  177.0900  139.6540 C   0  0  0  0  0  2  0  0  0  0  0  0
  189.0350  179.0110  139.7990 C   0  0  0  0  0  2  0  0  0  0  0  0
  189.3970  178.2420  138.5640 C   0  0  1  0  0  3  0  0  0  0  0  0
  188.7990  176.9820  138.6750 O   0  0  0  0  0  0  0  0  0  0  0  0
  187.8130  178.4130  140.2650 N   0  0  0  0  0  0  0  0  0  0  0  0
  188.8720  178.9480  137.3160 C   0  0  0  0  0  2  0  0  0  0  0  0
  188.5810  177.9940  136.1980 C   0  0  0  0  0  0  0  0  0  0  0  0
  187.2680  177.8160  135.7690 O   0  0  0  0  0  1  0  0  0  0  0  0
  189.5050  177.3420  135.6370 O   0  0  0  0  0  0  0  0  0  0  0  0
  1  4  1  0  0  0  0
  2  7  1  1  0  0  0
  2  6  1  0  0  0  0
  3  5  1  0  0  0  0
  3  2  1  0  0  0  0
  5 30  1  6  0  0  0
  5  1  1  0  0  0  0
  6  4  1  0  0  0  0
  8  7  1  0  0  0  0
  9  8  1  0  0  0  0
 10 11  1  1  0  0  0
 10  9  1  0  0  0  0
 12 10  1  0  0  0  0
 14 13  1  6  0  0  0
 14 12  1  0  0  0  0
 15 14  1  0  0  0  0
 16 22  1  0  0  0  0
 16 21  1  0  0  0  0
 17 24  1  0  0  0  0
 18 25  1  6  0  0  0
 18 14  1  0  0  0  0
 18 20  1  0  0  0  0
 20 19  1  1  0  0  0
 22 17  1  0  0  0  0
 23 16  1  0  0  0  0
 24 20  1  0  0  0  0
 24 28  1  1  0  0  0
 26 22  2  0  0  0  0
 27 16  1  0  0  0  0
 27 18  1  0  0  0  0
 28 29  1  0  0  0  0
 30 31  1  0  0  0  0
 32 41  1  0  0  0  0
 32 31  1  1  0  0  0
 33 37  1  0  0  0  0
 35 39  1  6  0  0  0
 35 36  1  0  0  0  0
 35 38  1  0  0  0  0
 36 34  1  0  0  0  0
 37 34  1  0  0  0  0
 38 33  1  6  0  0  0
 38 40  1  0  0  0  0
 40 42  1  1  0  0  0
 41 38  1  0  0  0  0
 41 40  1  0  0  0  0
 42 44  1  0  0  0  0
 44 43  1  1  0  0  0
 44 45  1  0  0  0  0
 45 46  1  0  0  0  0
 47 51  1  0  0  0  0
 48 51  1  0  0  0  0
 49 52  1  6  0  0  0
 49 50  1  0  0  0  0
 49 48  1  0  0  0  0
 50 47  1  0  0  0  0
 51 32  1  0  0  0  0
 53 52  1  0  0  0  0
 54 53  1  0  0  0  0
 55 53  2  0  0  0  0
M  END
>  <MODEL>
7

>  <REMARK>
 VINA RESULT:      -5.4      2.721      9.977
  Name = 
  18 active torsions:
  status: ('A' for Active; 'I' for Inactive)
    1  A    between atoms: C_2  and  C_28
    2  A    between atoms: C_2  and  C_44
    3  A    between atoms: C_4  and  C_40
    4  A    between atoms: C_6  and  C_20
    5  A    between atoms: C_8  and  O_22
    6  A    between atoms: C_8  and  C_35
    7  A    between atoms: C_10  and  C_32
    8  A    between atoms: C_11  and  C_38
    9  A    between atoms: C_19  and  C_40
   10  A    between atoms: C_19  and  C_45
   11  A    between atoms: C_20  and  O_22
   12  A    between atoms: C_27  and  C_54
   13  A    between atoms: C_28  and  C_33
   14  A    between atoms: C_32  and  C_39
   15  A    between atoms: C_33  and  N_49
   16  A    between atoms: C_33  and  N_52
   17  A    between atoms: C_35  and  C_51
   18  A    between atoms: C_51  and  C_54
                            x       y       z     vdW  Elec       q    Type
                         _______ _______ _______ _____ _____    ______ ____

>  <TORSDO>
F 18

$$$$
=
 OpenBabel11052415103D

 55 59  0  0  1  0  0  0  0  0999 V2000
  191.0480  176.6000  143.6640 C   0  0  0  0  0  2  0  0  0  0  0  0
  188.4660  177.7820  143.0100 C   0  0  2  0  0  3  0  0  0  0  0  0
  188.7390  176.2990  142.6890 C   0  0  0  0  0  2  0  0  0  0  0  0
  190.3990  177.8510  144.2650 C   0  0  0  0  0  2  0  0  0  0  0  0
  190.2320  176.0130  142.5120 C   0  0  1  0  0  3  0  0  0  0  0  0
  189.6250  178.5390  143.3000 O   0  0  0  0  0  0  0  0  0  0  0  0
  187.4190  177.9380  144.1000 C   0  0  0  0  0  2  0  0  0  0  0  0
  186.0410  177.6310  143.5190 C   0  0  0  0  0  2  0  0  0  0  0  0
  185.3540  178.9160  143.1120 C   0  0  0  0  0  2  0  0  0  0  0  0
  185.0160  178.9160  141.6280 C   0  0  1  0  0  3  0  0  0  0  0  0
  186.2930  178.7320  140.8220 C   0  0  0  0  0  1  0  0  0  0  0  0
  184.1380  177.8540  141.3580 O   0  0  0  0  0  0  0  0  0  0  0  0
  181.8450  178.6960  141.3420 C   0  0  0  0  0  1  0  0  0  0  0  0
  183.0560  178.2530  140.5200 C   0  0  1  0  0  0  0  0  0  0  0  0
  183.4950  179.3750  139.8250 O   0  0  0  0  0  1  0  0  0  0  0  0
  181.1450  177.9180  137.6840 C   0  0  0  0  0  0  0  0  0  0  0  0
  182.5490  176.1140  136.4730 O   0  0  0  0  0  0  0  0  0  0  0  0
  182.6470  177.1330  139.5070 C   0  0  1  0  0  0  0  0  0  0  0  0
  184.1910  177.9670  137.7890 F   0  0  0  0  0  0  0  0  0  0  0  0
  183.7520  176.8560  138.4810 C   0  0  2  0  0  3  0  0  0  0  0  0
  181.8420  179.2490  137.4800 C   0  0  0  0  0  1  0  0  0  0  0  0
  181.4590  176.9900  136.5160 C   0  0  0  0  0  0  0  0  0  0  0  0
  179.6600  178.2450  137.6270 C   0  0  0  0  0  1  0  0  0  0  0  0
  183.3540  175.7070  137.5710 C   0  0  2  0  0  3  0  0  0  0  0  0
  182.5360  175.9640  140.2360 F   0  0  0  0  0  0  0  0  0  0  0  0
  180.7950  177.1160  135.4480 O   0  0  0  0  0  0  0  0  0  0  0  0
  181.3360  177.3430  138.9760 O   0  0  0  0  0  0  0  0  0  0  0  0
  184.5620  174.9200  137.0850 C   0  0  0  0  0  2  0  0  0  0  0  0
  184.5880  174.7910  135.5830 C   0  0  0  0  0  1  0  0  0  0  0  0
  190.7580  176.5400  141.1910 C   0  0  0  0  0  2  0  0  0  0  0  0
  189.6170  176.9660  140.2900 C   0  0  0  0  0  2  0  0  0  0  0  0
  189.7950  176.3670  138.8880 C   0  0  2  0  0  3  0  0  0  0  0  0
  190.6060  176.4060  136.2060 C   0  0  0  0  0  2  0  0  0  0  0  0
  192.5680  175.7760  134.6420 C   0  0  0  0  0  2  0  0  0  0  0  0
  193.0990  176.1720  137.0590 C   0  0  2  0  0  3  0  0  0  0  0  0
  193.3940  176.6000  135.6240 C   0  0  0  0  0  2  0  0  0  0  0  0
  191.0730  176.1150  134.7660 C   0  0  0  0  0  2  0  0  0  0  0  0
  191.6050  175.8950  137.2730 C   0  0  2  0  0  0  0  0  0  0  0  0
  193.5360  177.1840  137.9240 O   0  0  0  0  0  1  0  0  0  0  0  0
  191.3330  174.6270  137.9640 C   0  0  1  0  0  3  0  0  0  0  0  0
  191.1890  175.9240  138.7020 N   0  0  0  0  0  0  0  0  0  0  0  0
  190.0070  173.9360  137.5990 C   0  0  0  0  0  2  0  0  0  0  0  0
  191.4790  172.9400  136.0280 F   0  0  0  0  0  0  0  0  0  0  0  0
  190.1930  172.8700  136.5240 C   0  0  2  0  0  3  0  0  0  0  0  0
  189.2220  173.0890  135.3890 C   0  0  0  0  0  2  0  0  0  0  0  0
  188.3430  174.1280  135.7090 O   0  0  0  0  0  1  0  0  0  0  0  0
  189.5670  178.6840  138.1740 C   0  0  0  0  0  2  0  0  0  0  0  0
  188.0110  177.1310  137.5180 C   0  0  0  0  0  2  0  0  0  0  0  0
  187.5180  178.5190  137.2420 C   0  0  1  0  0  3  0  0  0  0  0  0
  188.3880  179.4010  137.8940 O   0  0  0  0  0  0  0  0  0  0  0  0
  189.4140  177.2840  137.7980 N   0  0  0  0  0  0  0  0  0  0  0  0
  187.5280  178.8080  135.7420 C   0  0  0  0  0  2  0  0  0  0  0  0
  186.8460  177.7370  134.9480 C   0  0  0  0  0  0  0  0  0  0  0  0
  185.5070  177.8900  134.5950 O   0  0  0  0  0  1  0  0  0  0  0  0
  187.4590  176.6930  134.5940 O   0  0  0  0  0  0  0  0  0  0  0  0
  1  4  1  0  0  0  0
  2  6  1  0  0  0  0
  2  7  1  1  0  0  0
  3  2  1  0  0  0  0
  5 30  1  6  0  0  0
  5  3  1  0  0  0  0
  5  1  1  0  0  0  0
  6  4  1  0  0  0  0
  8  7  1  0  0  0  0
  9  8  1  0  0  0  0
 10 11  1  6  0  0  0
 10  9  1  0  0  0  0
 12 10  1  0  0  0  0
 14 13  1  1  0  0  0
 14 12  1  0  0  0  0
 15 14  1  0  0  0  0
 16 27  1  0  0  0  0
 17 22  1  0  0  0  0
 17 24  1  0  0  0  0
 18 25  1  1  0  0  0
 18 14  1  0  0  0  0
 20 19  1  6  0  0  0
 20 18  1  0  0  0  0
 21 16  1  0  0  0  0
 22 16  1  0  0  0  0
 23 16  1  0  0  0  0
 24 28  1  6  0  0  0
 24 20  1  0  0  0  0
 26 22  2  0  0  0  0
 27 18  1  0  0  0  0
 29 28  1  0  0  0  0
 31 30  1  0  0  0  0
 32 31  1  1  0  0  0
 34 37  1  0  0  0  0
 34 36  1  0  0  0  0
 35 38  1  0  0  0  0
 35 39  1  1  0  0  0
 36 35  1  0  0  0  0
 37 33  1  0  0  0  0
 38 33  1  6  0  0  0
 38 40  1  0  0  0  0
 38 41  1  0  0  0  0
 40 42  1  6  0  0  0
 40 41  1  0  0  0  0
 41 32  1  0  0  0  0
 44 43  1  6  0  0  0
 44 42  1  0  0  0  0
 45 46  1  0  0  0  0
 45 44  1  0  0  0  0
 48 51  1  0  0  0  0
 49 52  1  6  0  0  0
 49 48  1  0  0  0  0
 49 50  1  0  0  0  0
 50 47  1  0  0  0  0
 51 47  1  0  0  0  0
 51 32  1  0  0  0  0
 53 52  1  0  0  0  0
 54 53  1  0  0  0  0
 55 53  2  0  0  0  0
M  END
>  <MODEL>
8

>  <REMARK>
 VINA RESULT:      -5.3      3.143      9.386
  Name = 
  18 active torsions:
  status: ('A' for Active; 'I' for Inactive)
    1  A    between atoms: C_2  and  C_28
    2  A    between atoms: C_2  and  C_44
    3  A    between atoms: C_4  and  C_40
    4  A    between atoms: C_6  and  C_20
    5  A    between atoms: C_8  and  O_22
    6  A    between atoms: C_8  and  C_35
    7  A    between atoms: C_10  and  C_32
    8  A    between atoms: C_11  and  C_38
    9  A    between atoms: C_19  and  C_40
   10  A    between atoms: C_19  and  C_45
   11  A    between atoms: C_20  and  O_22
   12  A    between atoms: C_27  and  C_54
   13  A    between atoms: C_28  and  C_33
   14  A    between atoms: C_32  and  C_39
   15  A    between atoms: C_33  and  N_49
   16  A    between atoms: C_33  and  N_52
   17  A    between atoms: C_35  and  C_51
   18  A    between atoms: C_51  and  C_54
                            x       y       z     vdW  Elec       q    Type
                         _______ _______ _______ _____ _____    ______ ____

>  <TORSDO>
F 18

$$$$
=
 OpenBabel11052415103D

 55 59  0  0  1  0  0  0  0  0999 V2000
  184.1360  178.2430  144.1900 C   0  0  0  0  0  2  0  0  0  0  0  0
  182.7940  179.2140  141.7920 C   0  0  2  0  0  3  0  0  0  0  0  0
  183.9420  178.1900  141.6730 C   0  0  0  0  0  2  0  0  0  0  0  0
  182.7430  178.8700  144.0710 C   0  0  0  0  0  2  0  0  0  0  0  0
  184.8990  178.2570  142.8650 C   0  0  1  0  0  3  0  0  0  0  0  0
  182.7090  179.8510  143.0510 O   0  0  0  0  0  0  0  0  0  0  0  0
  181.4600  178.6120  141.3870 C   0  0  0  0  0  2  0  0  0  0  0  0
  181.0510  179.1680  140.0260 C   0  0  0  0  0  2  0  0  0  0  0  0
  179.9000  178.3630  139.4640 C   0  0  0  0  0  2  0  0  0  0  0  0
  180.0520  176.8820  139.7840 C   0  0  1  0  0  3  0  0  0  0  0  0
  178.9320  176.4530  140.7180 C   0  0  0  0  0  1  0  0  0  0  0  0
  179.9730  176.1450  138.5910 O   0  0  0  0  0  0  0  0  0  0  0  0
  181.9800  175.2210  139.6330 C   0  0  0  0  0  1  0  0  0  0  0  0
  180.8900  175.0540  138.5740 C   0  0  1  0  0  0  0  0  0  0  0  0
  180.1600  173.9250  138.9310 O   0  0  0  0  0  1  0  0  0  0  0  0
  182.5190  176.9030  136.1780 C   0  0  0  0  0  0  0  0  0  0  0  0
  184.1140  175.0730  135.2850 O   0  0  0  0  0  0  0  0  0  0  0  0
  181.5300  174.8410  137.1630 C   0  0  1  0  0  0  0  0  0  0  0  0
  183.8140  174.8900  138.0670 F   0  0  0  0  0  0  0  0  0  0  0  0
  182.9250  174.2120  137.2540 C   0  0  2  0  0  3  0  0  0  0  0  0
  183.1050  177.4210  137.4780 C   0  0  0  0  0  1  0  0  0  0  0  0
  183.6390  176.3880  135.2810 C   0  0  0  0  0  0  0  0  0  0  0  0
  181.9180  178.1300  135.5090 C   0  0  0  0  0  1  0  0  0  0  0  0
  183.4780  173.9430  135.8650 C   0  0  2  0  0  3  0  0  0  0  0  0
  180.7550  173.8970  136.5160 F   0  0  0  0  0  0  0  0  0  0  0  0
  184.2940  177.2220  134.5940 O   0  0  0  0  0  0  0  0  0  0  0  0
  181.4210  176.0080  136.3420 O   0  0  0  0  0  0  0  0  0  0  0  0
  184.4050  172.7370  135.8450 C   0  0  0  0  0  2  0  0  0  0  0  0
  183.7500  171.5080  136.4230 C   0  0  0  0  0  1  0  0  0  0  0  0
  185.7970  179.4780  142.8050 C   0  0  0  0  0  2  0  0  0  0  0  0
  186.7130  179.4120  141.6000 C   0  0  0  0  0  2  0  0  0  0  0  0
  187.7030  178.2490  141.7490 C   0  0  2  0  0  3  0  0  0  0  0  0
  189.3390  176.1060  142.5120 C   0  0  0  0  0  2  0  0  0  0  0  0
  191.3960  175.5030  143.9620 C   0  0  0  0  0  2  0  0  0  0  0  0
  191.1770  177.8800  143.1980 C   0  0  2  0  0  3  0  0  0  0  0  0
  192.0620  176.6370  143.1890 C   0  0  0  0  0  2  0  0  0  0  0  0
  190.1450  174.9990  143.2230 C   0  0  0  0  0  2  0  0  0  0  0  0
  189.6950  177.5240  143.0210 C   0  0  2  0  0  0  0  0  0  0  0  0
  191.5990  178.7360  142.1720 O   0  0  0  0  0  1  0  0  0  0  0  0
  188.8090  178.1840  143.9900 C   0  0  1  0  0  3  0  0  0  0  0  0
  188.8540  178.6670  142.5720 N   0  0  0  0  0  0  0  0  0  0  0  0
  187.5360  177.4060  144.3710 C   0  0  0  0  0  2  0  0  0  0  0  0
  186.4910  177.5660  146.4940 F   0  0  0  0  0  0  0  0  0  0  0  0
  187.5470  176.9710  145.8330 C   0  0  2  0  0  3  0  0  0  0  0  0
  188.8350  177.3890  146.5000 C   0  0  0  0  0  2  0  0  0  0  0  0
  188.5610  177.9970  147.7280 O   0  0  0  0  0  1  0  0  0  0  0  0
  189.2220  178.5370  139.8680 C   0  0  0  0  0  2  0  0  0  0  0  0
  187.1040  177.7300  139.5090 C   0  0  0  0  0  2  0  0  0  0  0  0
  187.7440  178.1240  138.2120 C   0  0  1  0  0  3  0  0  0  0  0  0
  188.9080  178.8350  138.5270 O   0  0  0  0  0  0  0  0  0  0  0  0
  188.1810  177.7080  140.4630 N   0  0  0  0  0  0  0  0  0  0  0  0
  188.1080  176.8870  137.3930 C   0  0  0  0  0  2  0  0  0  0  0  0
  189.4890  176.9670  136.8160 C   0  0  0  0  0  0  0  0  0  0  0  0
  189.7930  177.9710  135.9000 O   0  0  0  0  0  0  0  0  0  0  0  0
  190.3830  176.1380  137.1400 O   0  0  0  0  0  1  0  0  0  0  0  0
  2  7  1  1  0  0  0
  2  6  1  0  0  0  0
  3  2  1  0  0  0  0
  3  5  1  0  0  0  0
  4  1  1  0  0  0  0
  5 30  1  6  0  0  0
  5  1  1  0  0  0  0
  6  4  1  0  0  0  0
  8  7  1  0  0  0  0
  9 10  1  0  0  0  0
  9  8  1  0  0  0  0
 10 11  1  1  0  0  0
 12 10  1  0  0  0  0
 14 12  1  0  0  0  0
 14 15  1  0  0  0  0
 14 13  1  1  0  0  0
 16 27  1  0  0  0  0
 16 21  1  0  0  0  0
 17 24  1  0  0  0  0
 18 25  1  6  0  0  0
 18 20  1  0  0  0  0
 18 14  1  0  0  0  0
 20 19  1  6  0  0  0
 22 17  1  0  0  0  0
 22 16  1  0  0  0  0
 23 16  1  0  0  0  0
 24 28  1  1  0  0  0
 24 20  1  0  0  0  0
 26 22  2  0  0  0  0
 27 18  1  0  0  0  0
 28 29  1  0  0  0  0
 31 30  1  0  0  0  0
 32 31  1  6  0  0  0
 32 41  1  0  0  0  0
 33 37  1  0  0  0  0
 35 39  1  6  0  0  0
 36 35  1  0  0  0  0
 36 34  1  0  0  0  0
 37 34  1  0  0  0  0
 38 33  1  6  0  0  0
 38 35  1  0  0  0  0
 38 40  1  0  0  0  0
 40 42  1  6  0  0  0
 41 38  1  0  0  0  0
 41 40  1  0  0  0  0
 42 44  1  0  0  0  0
 44 43  1  1  0  0  0
 44 45  1  0  0  0  0
 45 46  1  0  0  0  0
 47 51  1  0  0  0  0
 48 51  1  0  0  0  0
 49 52  1  6  0  0  0
 49 50  1  0  0  0  0
 49 48  1  0  0  0  0
 50 47  1  0  0  0  0
 51 32  1  0  0  0  0
 53 55  1  0  0  0  0
 53 52  1  0  0  0  0
 54 53  2  0  0  0  0
M  END
>  <MODEL>
9

>  <REMARK>
 VINA RESULT:      -5.3      2.678      9.914
  Name = 
  18 active torsions:
  status: ('A' for Active; 'I' for Inactive)
    1  A    between atoms: C_2  and  C_28
    2  A    between atoms: C_2  and  C_44
    3  A    between atoms: C_4  and  C_40
    4  A    between atoms: C_6  and  C_20
    5  A    between atoms: C_8  and  O_22
    6  A    between atoms: C_8  and  C_35
    7  A    between atoms: C_10  and  C_32
    8  A    between atoms: C_11  and  C_38
    9  A    between atoms: C_19  and  C_40
   10  A    between atoms: C_19  and  C_45
   11  A    between atoms: C_20  and  O_22
   12  A    between atoms: C_27  and  C_54
   13  A    between atoms: C_28  and  C_33
   14  A    between atoms: C_32  and  C_39
   15  A    between atoms: C_33  and  N_49
   16  A    between atoms: C_33  and  N_52
   17  A    between atoms: C_35  and  C_51
   18  A    between atoms: C_51  and  C_54
                            x       y       z     vdW  Elec       q    Type
                         _______ _______ _______ _____ _____    ______ ____

>  <TORSDO>
F 18

$$$$
