=
 OpenBabel11052416583D

 32 37  0  0  1  0  0  0  0  0999 V2000
  188.7290  177.5670  145.0670 C   0  0  0  0  0  0  0  0  0  0  0  0
  190.3920  177.0470  140.3890 C   0  0  0  0  0  0  0  0  0  0  0  0
  186.4500  178.0230  137.5550 C   0  0  0  0  0  2  0  0  0  0  0  0
  187.4060  178.4940  136.4740 C   0  0  0  0  0  2  0  0  0  0  0  0
  190.2300  177.0780  142.7470 C   0  0  0  0  0  0  0  0  0  0  0  0
  188.3470  177.7270  141.4230 N   0  0  0  0  0  0  0  0  0  0  0  0
  188.1550  177.7720  143.8070 C   0  0  0  0  0  3  0  0  0  0  0  0
  187.0830  178.2570  138.9230 C   0  0  0  0  0  2  0  0  0  0  0  0
  189.0590  177.4960  140.2840 C   0  0  0  0  0  0  0  0  0  0  0  0
  188.4820  177.6990  139.0180 C   0  0  0  0  0  0  0  0  0  0  0  0
  190.5870  177.0210  137.9700 C   0  0  0  0  0  0  0  0  0  0  0  0
  190.0580  177.1160  145.1580 C   0  0  0  0  0  3  0  0  0  0  0  0
  188.8980  177.5300  142.6490 C   0  0  0  0  0  0  0  0  0  0  0  0
  190.8060  176.8730  144.0020 C   0  0  0  0  0  3  0  0  0  0  0  0
  188.6480  177.6090  136.4790 C   0  0  0  0  0  2  0  0  0  0  0  0
  189.2590  177.4740  137.8530 C   0  0  0  0  0  0  0  0  0  0  0  0
  190.9440  176.8490  141.6150 N   0  0  0  0  0  0  0  0  0  0  0  0
  191.1420  176.8110  139.2390 C   0  0  0  0  0  3  0  0  0  0  0  0
  187.9610  177.8160  146.2070 O   0  0  0  0  0  0  0  0  0  0  0  0
  186.5610  177.5720  146.2570 C   0  0  0  0  0  2  0  0  0  0  0  0
  184.8110  178.9760  145.2770 C   0  0  0  0  0  2  0  0  0  0  0  0
  184.4620  178.6320  146.5950 O   0  0  0  0  0  0  0  0  0  0  0  0
  185.8220  178.8910  146.3500 C   0  0  1  0  0  3  0  0  0  0  0  0
  191.3590  176.7600  136.7910 N   0  0  0  0  0  2  0  0  0  0  0  0
  192.0100  175.4850  136.5140 C   0  0  2  0  0  3  0  0  0  0  0  0
  194.4570  174.9510  136.9860 C   0  0  1  0  0  3  0  0  0  0  0  0
  193.8430  174.1680  137.9690 O   0  0  0  0  0  1  0  0  0  0  0  0
  193.4800  175.7030  136.1440 C   0  0  2  0  0  3  0  0  0  0  0  0
  194.1600  176.3060  137.2190 O   0  0  0  0  0  0  0  0  0  0  0  0
  191.2710  174.7470  135.4010 C   0  0  0  0  0  2  0  0  0  0  0  0
  190.8460  173.0370  135.8680 S   0  0  0  0  0  0  0  0  0  0  0  0
  189.4250  173.5890  136.8500 C   0  0  0  0  0  1  0  0  0  0  0  0
  1 12  1  0  0  0  0
  1 19  1  0  0  0  0
  2 17  1  0  0  0  0
  3  8  1  0  0  0  0
  4 15  1  0  0  0  0
  4  3  1  0  0  0  0
  5 14  1  0  0  0  0
  6 13  2  0  0  0  0
  7  1  2  0  0  0  0
  8 10  1  0  0  0  0
  9  2  1  0  0  0  0
  9  6  1  0  0  0  0
 10  9  2  0  0  0  0
 11 18  1  0  0  0  0
 13  5  1  0  0  0  0
 13  7  1  0  0  0  0
 14 12  2  0  0  0  0
 15 16  1  0  0  0  0
 16 11  2  0  0  0  0
 16 10  1  0  0  0  0
 17  5  2  0  0  0  0
 18  2  2  0  0  0  0
 19 20  1  0  0  0  0
 21 23  1  0  0  0  0
 21 22  1  0  0  0  0
 23 20  1  6  0  0  0
 23 22  1  0  0  0  0
 24 11  1  0  0  0  0
 25 30  1  6  0  0  0
 25 24  1  0  0  0  0
 26 29  1  0  0  0  0
 26 27  1  1  0  0  0
 28 25  1  1  0  0  0
 28 26  1  0  0  0  0
 28 29  1  0  0  0  0
 30 31  1  0  0  0  0
 31 32  1  0  0  0  0
M  END
>  <MODEL>
1

>  <REMARK>
 VINA RESULT:      -7.5      0.000      0.000
  Name = 
  8 active torsions:
  status: ('A' for Active; 'I' for Inactive)
    1  A    between atoms: C_2  and  O_24
    2  A    between atoms: S_6  and  C_7
    3  A    between atoms: C_7  and  C_32
    4  A    between atoms: C_10  and  C_20
    5  A    between atoms: C_10  and  O_24
    6  A    between atoms: C_16  and  N_27
    7  A    between atoms: C_22  and  C_32
    8  A    between atoms: N_27  and  C_32
                            x       y       z     vdW  Elec       q    Type
                         _______ _______ _______ _____ _____    ______ ____

>  <TORSDO>
F 8

$$$$
=
 OpenBabel11052416583D

 32 37  0  0  1  0  0  0  0  0999 V2000
  188.5580  177.3930  146.8390 C   0  0  0  0  0  0  0  0  0  0  0  0
  186.3110  178.3720  142.4900 C   0  0  0  0  0  0  0  0  0  0  0  0
  189.8900  177.8710  139.1050 C   0  0  0  0  0  2  0  0  0  0  0  0
  188.8170  177.4890  138.1000 C   0  0  0  0  0  2  0  0  0  0  0  0
  186.7670  178.0820  144.7910 C   0  0  0  0  0  0  0  0  0  0  0  0
  188.4850  177.6580  143.1820 N   0  0  0  0  0  0  0  0  0  0  0  0
  188.9750  177.3530  145.5030 C   0  0  0  0  0  3  0  0  0  0  0  0
  189.4390  177.4610  140.5020 C   0  0  0  0  0  2  0  0  0  0  0  0
  187.6310  177.9890  142.1730 C   0  0  0  0  0  0  0  0  0  0  0  0
  188.0500  177.9520  140.8310 C   0  0  0  0  0  0  0  0  0  0  0  0
  185.8150  178.6630  140.1330 C   0  0  0  0  0  0  0  0  0  0  0  0
  187.2410  177.7810  147.1430 C   0  0  0  0  0  3  0  0  0  0  0  0
  188.0870  177.6950  144.4800 C   0  0  0  0  0  0  0  0  0  0  0  0
  186.3480  178.1230  146.1230 C   0  0  0  0  0  3  0  0  0  0  0  0
  187.5660  178.3200  138.3590 C   0  0  0  0  0  2  0  0  0  0  0  0
  187.1280  178.2770  139.8030 C   0  0  0  0  0  0  0  0  0  0  0  0
  185.9130  178.4100  143.7880 N   0  0  0  0  0  0  0  0  0  0  0  0
  185.4180  178.7070  141.4750 C   0  0  0  0  0  3  0  0  0  0  0  0
  189.4680  177.0460  147.8400 O   0  0  0  0  0  0  0  0  0  0  0  0
  190.8760  177.1120  147.6540 C   0  0  0  0  0  2  0  0  0  0  0  0
  192.3860  175.5290  146.5550 C   0  0  0  0  0  2  0  0  0  0  0  0
  192.8500  175.8050  147.8540 O   0  0  0  0  0  0  0  0  0  0  0  0
  191.4560  175.7140  147.6880 C   0  0  1  0  0  3  0  0  0  0  0  0
  184.8950  179.0250  139.0940 N   0  0  0  0  0  2  0  0  0  0  0  0
  183.5990  178.3870  138.9000 C   0  0  2  0  0  3  0  0  0  0  0  0
  183.2110  176.1650  137.7130 C   0  0  1  0  0  3  0  0  0  0  0  0
  182.9460  175.7850  139.0320 O   0  0  0  0  0  1  0  0  0  0  0  0
  183.5770  177.6080  137.5830 C   0  0  2  0  0  3  0  0  0  0  0  0
  184.5490  176.5900  137.6120 O   0  0  0  0  0  0  0  0  0  0  0  0
  182.4860  179.4310  138.9350 C   0  0  0  0  0  2  0  0  0  0  0  0
  180.9430  178.7760  139.6520 S   0  0  0  0  0  0  0  0  0  0  0  0
  181.6220  178.8350  141.3320 C   0  0  0  0  0  1  0  0  0  0  0  0
  1 12  1  0  0  0  0
  1 19  1  0  0  0  0
  2 17  1  0  0  0  0
  3  8  1  0  0  0  0
  4 15  1  0  0  0  0
  4  3  1  0  0  0  0
  5 14  1  0  0  0  0
  6 13  2  0  0  0  0
  7  1  2  0  0  0  0
  8 10  1  0  0  0  0
  9  2  1  0  0  0  0
  9  6  1  0  0  0  0
 10  9  2  0  0  0  0
 11 18  1  0  0  0  0
 13  5  1  0  0  0  0
 13  7  1  0  0  0  0
 14 12  2  0  0  0  0
 15 16  1  0  0  0  0
 16 11  2  0  0  0  0
 16 10  1  0  0  0  0
 17  5  2  0  0  0  0
 18  2  2  0  0  0  0
 20 19  1  0  0  0  0
 21 23  1  0  0  0  0
 21 22  1  0  0  0  0
 23 20  1  6  0  0  0
 23 22  1  0  0  0  0
 24 11  1  0  0  0  0
 25 30  1  6  0  0  0
 25 24  1  0  0  0  0
 26 27  1  1  0  0  0
 28 29  1  0  0  0  0
 28 26  1  0  0  0  0
 28 25  1  1  0  0  0
 29 26  1  0  0  0  0
 30 31  1  0  0  0  0
 31 32  1  0  0  0  0
M  END
>  <MODEL>
2

>  <REMARK>
 VINA RESULT:      -7.4      4.256      6.659
  Name = 
  8 active torsions:
  status: ('A' for Active; 'I' for Inactive)
    1  A    between atoms: C_2  and  O_24
    2  A    between atoms: S_6  and  C_7
    3  A    between atoms: C_7  and  C_32
    4  A    between atoms: C_10  and  C_20
    5  A    between atoms: C_10  and  O_24
    6  A    between atoms: C_16  and  N_27
    7  A    between atoms: C_22  and  C_32
    8  A    between atoms: N_27  and  C_32
                            x       y       z     vdW  Elec       q    Type
                         _______ _______ _______ _____ _____    ______ ____

>  <TORSDO>
F 8

$$$$
=
 OpenBabel11052416583D

 32 37  0  0  1  0  0  0  0  0999 V2000
  188.4100  177.7350  145.6100 C   0  0  0  0  0  0  0  0  0  0  0  0
  185.1750  178.3240  141.8540 C   0  0  0  0  0  0  0  0  0  0  0  0
  180.7530  178.6300  144.0620 C   0  0  0  0  0  2  0  0  0  0  0  0
  180.2850  179.4780  142.8930 C   0  0  0  0  0  2  0  0  0  0  0  0
  187.1430  177.9830  143.1190 C   0  0  0  0  0  0  0  0  0  0  0  0
  185.0550  178.2990  144.2410 N   0  0  0  0  0  0  0  0  0  0  0  0
  187.0300  177.9580  145.5480 C   0  0  0  0  0  3  0  0  0  0  0  0
  182.2530  178.8260  144.2560 C   0  0  0  0  0  2  0  0  0  0  0  0
  184.4200  178.4220  143.0420 C   0  0  0  0  0  0  0  0  0  0  0  0
  183.0340  178.6430  142.9770 C   0  0  0  0  0  0  0  0  0  0  0  0
  183.1720  178.6880  140.5350 C   0  0  0  0  0  0  0  0  0  0  0  0
  189.1510  177.6360  144.4200 C   0  0  0  0  0  3  0  0  0  0  0  0
  186.3940  178.0820  144.3100 C   0  0  0  0  0  0  0  0  0  0  0  0
  188.5200  177.7610  143.1780 C   0  0  0  0  0  3  0  0  0  0  0  0
  180.9110  178.9550  141.6060 C   0  0  0  0  0  2  0  0  0  0  0  0
  182.4090  178.7920  141.7140 C   0  0  0  0  0  0  0  0  0  0  0  0
  186.5150  178.1070  141.9220 N   0  0  0  0  0  0  0  0  0  0  0  0
  184.5500  178.4540  140.6170 C   0  0  0  0  0  3  0  0  0  0  0  0
  189.0170  177.6150  146.8630 O   0  0  0  0  0  0  0  0  0  0  0  0
  189.7660  176.4690  147.2460 C   0  0  0  0  0  2  0  0  0  0  0  0
  192.1090  175.7600  147.2450 C   0  0  0  0  0  2  0  0  0  0  0  0
  191.9400  176.8420  146.3630 O   0  0  0  0  0  0  0  0  0  0  0  0
  191.1910  176.8760  147.5530 C   0  0  1  0  0  3  0  0  0  0  0  0
  182.5320  178.8040  139.2570 N   0  0  0  0  0  2  0  0  0  0  0  0
  182.1500  177.6620  138.4350 C   0  0  2  0  0  3  0  0  0  0  0  0
  183.7720  176.4810  136.8630 C   0  0  1  0  0  3  0  0  0  0  0  0
  183.7180  175.5480  137.9030 O   0  0  0  0  0  1  0  0  0  0  0  0
  182.9120  177.6780  137.1070 C   0  0  2  0  0  3  0  0  0  0  0  0
  184.2980  177.6910  137.3510 O   0  0  0  0  0  0  0  0  0  0  0  0
  180.6420  177.6630  138.1990 C   0  0  0  0  0  2  0  0  0  0  0  0
  179.9350  175.9830  138.2260 S   0  0  0  0  0  0  0  0  0  0  0  0
  180.7460  175.5960  139.8000 C   0  0  0  0  0  1  0  0  0  0  0  0
  1 19  1  0  0  0  0
  2 17  2  0  0  0  0
  2  9  1  0  0  0  0
  3  8  1  0  0  0  0
  4  3  1  0  0  0  0
  5 14  2  0  0  0  0
  5 13  1  0  0  0  0
  6 13  1  0  0  0  0
  7  1  1  0  0  0  0
  9  6  2  0  0  0  0
 10  9  1  0  0  0  0
 10  8  1  0  0  0  0
 11 18  2  0  0  0  0
 11 16  1  0  0  0  0
 12  1  2  0  0  0  0
 13  7  2  0  0  0  0
 14 12  1  0  0  0  0
 15 16  1  0  0  0  0
 15  4  1  0  0  0  0
 16 10  2  0  0  0  0
 17  5  1  0  0  0  0
 18  2  1  0  0  0  0
 19 20  1  0  0  0  0
 21 23  1  0  0  0  0
 22 21  1  0  0  0  0
 22 23  1  0  0  0  0
 23 20  1  6  0  0  0
 24 11  1  0  0  0  0
 25 30  1  6  0  0  0
 25 24  1  0  0  0  0
 26 28  1  0  0  0  0
 26 29  1  0  0  0  0
 26 27  1  1  0  0  0
 28 29  1  0  0  0  0
 28 25  1  1  0  0  0
 30 31  1  0  0  0  0
 31 32  1  0  0  0  0
M  END
>  <MODEL>
3

>  <REMARK>
 VINA RESULT:      -7.4      5.388      7.543
  Name = 
  8 active torsions:
  status: ('A' for Active; 'I' for Inactive)
    1  A    between atoms: C_2  and  O_24
    2  A    between atoms: S_6  and  C_7
    3  A    between atoms: C_7  and  C_32
    4  A    between atoms: C_10  and  C_20
    5  A    between atoms: C_10  and  O_24
    6  A    between atoms: C_16  and  N_27
    7  A    between atoms: C_22  and  C_32
    8  A    between atoms: N_27  and  C_32
                            x       y       z     vdW  Elec       q    Type
                         _______ _______ _______ _____ _____    ______ ____

>  <TORSDO>
F 8

$$$$
=
 OpenBabel11052416583D

 32 37  0  0  1  0  0  0  0  0999 V2000
  190.2970  177.4990  139.5810 C   0  0  0  0  0  0  0  0  0  0  0  0
  185.7670  178.5660  141.3860 C   0  0  0  0  0  0  0  0  0  0  0  0
  186.0820  177.5340  146.2190 C   0  0  0  0  0  2  0  0  0  0  0  0
  185.0120  178.5830  146.4610 C   0  0  0  0  0  2  0  0  0  0  0  0
  187.6080  178.2130  139.9460 C   0  0  0  0  0  0  0  0  0  0  0  0
  187.8620  177.8660  142.2990 N   0  0  0  0  0  0  0  0  0  0  0  0
  189.7440  177.5040  140.8670 C   0  0  0  0  0  3  0  0  0  0  0  0
  186.8820  177.9090  144.9760 C   0  0  0  0  0  2  0  0  0  0  0  0
  186.5590  178.2100  142.4980 C   0  0  0  0  0  0  0  0  0  0  0  0
  186.0010  178.2130  143.7880 C   0  0  0  0  0  0  0  0  0  0  0  0
  183.8660  178.9490  142.8450 C   0  0  0  0  0  0  0  0  0  0  0  0
  189.4960  177.8520  138.4800 C   0  0  0  0  0  3  0  0  0  0  0  0
  188.4050  177.8590  141.0540 C   0  0  0  0  0  0  0  0  0  0  0  0
  188.1570  178.2090  138.6620 C   0  0  0  0  0  3  0  0  0  0  0  0
  183.9980  178.5420  145.3250 C   0  0  0  0  0  2  0  0  0  0  0  0
  184.6490  178.6010  143.9630 C   0  0  0  0  0  0  0  0  0  0  0  0
  186.3090  178.5580  140.1400 N   0  0  0  0  0  0  0  0  0  0  0  0
  184.4340  178.9290  141.5650 C   0  0  0  0  0  3  0  0  0  0  0  0
  191.6380  177.1390  139.4250 O   0  0  0  0  0  0  0  0  0  0  0  0
  192.1120  176.4140  138.2980 C   0  0  0  0  0  2  0  0  0  0  0  0
  194.0340  175.0210  137.6980 C   0  0  0  0  0  2  0  0  0  0  0  0
  194.1610  176.2880  137.1010 O   0  0  0  0  0  0  0  0  0  0  0  0
  193.6140  176.2530  138.3960 C   0  0  1  0  0  3  0  0  0  0  0  0
  182.4890  179.3070  143.0210 N   0  0  0  0  0  2  0  0  0  0  0  0
  181.4750  179.1610  141.9830 C   0  0  2  0  0  3  0  0  0  0  0  0
  179.3740  180.5850  141.7590 C   0  0  1  0  0  3  0  0  0  0  0  0
  180.1020  181.0510  140.6600 O   0  0  0  0  0  1  0  0  0  0  0  0
  180.0930  179.5270  142.5300 C   0  0  2  0  0  3  0  0  0  0  0  0
  180.0810  180.8730  142.9410 O   0  0  0  0  0  0  0  0  0  0  0  0
  181.4850  177.7370  141.4330 C   0  0  0  0  0  2  0  0  0  0  0  0
  181.2140  177.6880  139.6310 S   0  0  0  0  0  0  0  0  0  0  0  0
  182.0550  176.0880  139.4830 C   0  0  0  0  0  1  0  0  0  0  0  0
  1  7  1  0  0  0  0
  2 18  1  0  0  0  0
  2  9  1  0  0  0  0
  3  4  1  0  0  0  0
  5 17  1  0  0  0  0
  5 13  1  0  0  0  0
  6  9  2  0  0  0  0
  7 13  2  0  0  0  0
  8  3  1  0  0  0  0
  9 10  1  0  0  0  0
 10 16  2  0  0  0  0
 10  8  1  0  0  0  0
 11 24  1  0  0  0  0
 11 16  1  0  0  0  0
 12 14  1  0  0  0  0
 12  1  2  0  0  0  0
 13  6  1  0  0  0  0
 14  5  2  0  0  0  0
 15  4  1  0  0  0  0
 16 15  1  0  0  0  0
 17  2  2  0  0  0  0
 18 11  2  0  0  0  0
 19  1  1  0  0  0  0
 20 19  1  0  0  0  0
 21 23  1  0  0  0  0
 22 21  1  0  0  0  0
 22 23  1  0  0  0  0
 23 20  1  6  0  0  0
 25 30  1  1  0  0  0
 25 24  1  0  0  0  0
 26 27  1  6  0  0  0
 26 28  1  0  0  0  0
 26 29  1  0  0  0  0
 28 25  1  6  0  0  0
 28 29  1  0  0  0  0
 31 30  1  0  0  0  0
 32 31  1  0  0  0  0
M  END
>  <MODEL>
4

>  <REMARK>
 VINA RESULT:      -7.4      3.917      9.692
  Name = 
  8 active torsions:
  status: ('A' for Active; 'I' for Inactive)
    1  A    between atoms: C_2  and  O_24
    2  A    between atoms: S_6  and  C_7
    3  A    between atoms: C_7  and  C_32
    4  A    between atoms: C_10  and  C_20
    5  A    between atoms: C_10  and  O_24
    6  A    between atoms: C_16  and  N_27
    7  A    between atoms: C_22  and  C_32
    8  A    between atoms: N_27  and  C_32
                            x       y       z     vdW  Elec       q    Type
                         _______ _______ _______ _____ _____    ______ ____

>  <TORSDO>
F 8

$$$$
=
 OpenBabel11052416583D

 32 37  0  0  1  0  0  0  0  0999 V2000
  181.6880  178.9750  140.4370 C   0  0  0  0  0  0  0  0  0  0  0  0
  186.5630  178.5850  141.4400 C   0  0  0  0  0  0  0  0  0  0  0  0
  186.7690  177.8800  146.3380 C   0  0  0  0  0  2  0  0  0  0  0  0
  188.0660  177.1210  146.1230 C   0  0  0  0  0  2  0  0  0  0  0  0
  184.4920  178.8980  140.3450 C   0  0  0  0  0  0  0  0  0  0  0  0
  184.5290  178.3870  142.6810 N   0  0  0  0  0  0  0  0  0  0  0  0
  182.4180  178.6960  141.5990 C   0  0  0  0  0  3  0  0  0  0  0  0
  185.8910  177.7340  145.0990 C   0  0  0  0  0  2  0  0  0  0  0  0
  185.8910  178.3460  142.6570 C   0  0  0  0  0  0  0  0  0  0  0  0
  186.6250  178.0690  143.8240 C   0  0  0  0  0  0  0  0  0  0  0  0
  188.7000  178.2530  142.5400 C   0  0  0  0  0  0  0  0  0  0  0  0
  182.3690  179.2150  139.2310 C   0  0  0  0  0  3  0  0  0  0  0  0
  183.8140  178.6570  141.5580 C   0  0  0  0  0  0  0  0  0  0  0  0
  183.7660  179.1760  139.1840 C   0  0  0  0  0  3  0  0  0  0  0  0
  188.8620  177.7870  145.0070 C   0  0  0  0  0  2  0  0  0  0  0  0
  188.0400  178.0070  143.7590 C   0  0  0  0  0  0  0  0  0  0  0  0
  185.8480  178.8560  140.3170 N   0  0  0  0  0  0  0  0  0  0  0  0
  187.9540  178.5400  141.3900 C   0  0  0  0  0  3  0  0  0  0  0  0
  180.2930  179.0080  140.5090 O   0  0  0  0  0  0  0  0  0  0  0  0
  179.5660  180.2020  140.7690 C   0  0  0  0  0  2  0  0  0  0  0  0
  178.9330  182.2880  139.6560 C   0  0  0  0  0  2  0  0  0  0  0  0
  180.1330  181.8020  139.1070 O   0  0  0  0  0  0  0  0  0  0  0  0
  179.1660  180.8430  139.4570 C   0  0  1  0  0  3  0  0  0  0  0  0
  190.1330  178.2250  142.4840 N   0  0  0  0  0  2  0  0  0  0  0  0
  190.9020  177.1010  141.9640 C   0  0  2  0  0  3  0  0  0  0  0  0
  191.7350  175.4210  143.6910 C   0  0  1  0  0  3  0  0  0  0  0  0
  190.5260  174.8180  143.3290 O   0  0  0  0  0  1  0  0  0  0  0  0
  191.9950  176.6950  142.9560 C   0  0  2  0  0  3  0  0  0  0  0  0
  191.4740  176.6790  144.2640 O   0  0  0  0  0  0  0  0  0  0  0  0
  191.5010  177.4540  140.6060 C   0  0  0  0  0  2  0  0  0  0  0  0
  190.5600  176.7270  139.2240 S   0  0  0  0  0  0  0  0  0  0  0  0
  192.0290  176.6840  138.1620 C   0  0  0  0  0  1  0  0  0  0  0  0
  1 19  1  0  0  0  0
  1  7  1  0  0  0  0
  2  9  1  0  0  0  0
  4  3  1  0  0  0  0
  5 13  1  0  0  0  0
  8  3  1  0  0  0  0
  9  6  2  0  0  0  0
  9 10  1  0  0  0  0
 10  8  1  0  0  0  0
 11 16  1  0  0  0  0
 12  1  2  0  0  0  0
 13  7  2  0  0  0  0
 13  6  1  0  0  0  0
 14 12  1  0  0  0  0
 14  5  2  0  0  0  0
 15  4  1  0  0  0  0
 16 10  2  0  0  0  0
 16 15  1  0  0  0  0
 17  5  1  0  0  0  0
 17  2  2  0  0  0  0
 18  2  1  0  0  0  0
 18 11  2  0  0  0  0
 19 20  1  0  0  0  0
 22 23  1  0  0  0  0
 22 21  1  0  0  0  0
 23 21  1  0  0  0  0
 23 20  1  1  0  0  0
 24 11  1  0  0  0  0
 25 30  1  6  0  0  0
 25 24  1  0  0  0  0
 26 27  1  6  0  0  0
 26 29  1  0  0  0  0
 28 25  1  6  0  0  0
 28 26  1  0  0  0  0
 28 29  1  0  0  0  0
 31 30  1  0  0  0  0
 32 31  1  0  0  0  0
M  END
>  <MODEL>
5

>  <REMARK>
 VINA RESULT:      -7.1      4.208      7.108
  Name = 
  8 active torsions:
  status: ('A' for Active; 'I' for Inactive)
    1  A    between atoms: C_2  and  O_24
    2  A    between atoms: S_6  and  C_7
    3  A    between atoms: C_7  and  C_32
    4  A    between atoms: C_10  and  C_20
    5  A    between atoms: C_10  and  O_24
    6  A    between atoms: C_16  and  N_27
    7  A    between atoms: C_22  and  C_32
    8  A    between atoms: N_27  and  C_32
                            x       y       z     vdW  Elec       q    Type
                         _______ _______ _______ _____ _____    ______ ____

>  <TORSDO>
F 8

$$$$
=
 OpenBabel11052416583D

 32 37  0  0  1  0  0  0  0  0999 V2000
  181.6740  178.8780  140.6350 C   0  0  0  0  0  0  0  0  0  0  0  0
  186.2940  178.2820  142.4290 C   0  0  0  0  0  0  0  0  0  0  0  0
  185.7750  178.6510  147.3400 C   0  0  0  0  0  2  0  0  0  0  0  0
  186.9890  177.7510  147.4860 C   0  0  0  0  0  2  0  0  0  0  0  0
  184.4360  178.5330  140.9900 C   0  0  0  0  0  0  0  0  0  0  0  0
  184.1070  178.5440  143.3590 N   0  0  0  0  0  0  0  0  0  0  0  0
  182.2080  178.7960  141.9270 C   0  0  0  0  0  3  0  0  0  0  0  0
  185.0540  178.3180  146.0380 C   0  0  0  0  0  2  0  0  0  0  0  0
  185.4460  178.3770  143.5530 C   0  0  0  0  0  0  0  0  0  0  0  0
  185.9840  178.2980  144.8490 C   0  0  0  0  0  0  0  0  0  0  0  0
  188.2150  178.0090  143.8870 C   0  0  0  0  0  0  0  0  0  0  0  0
  182.5300  178.7860  139.5240 C   0  0  0  0  0  3  0  0  0  0  0  0
  183.5830  178.6240  142.1080 C   0  0  0  0  0  0  0  0  0  0  0  0
  183.9070  178.6130  139.7000 C   0  0  0  0  0  3  0  0  0  0  0  0
  187.9970  178.0830  146.3920 C   0  0  0  0  0  2  0  0  0  0  0  0
  187.3770  178.0970  145.0150 C   0  0  0  0  0  0  0  0  0  0  0  0
  185.7700  178.3630  141.1790 N   0  0  0  0  0  0  0  0  0  0  0  0
  187.6650  178.1030  142.6030 C   0  0  0  0  0  3  0  0  0  0  0  0
  180.2960  179.0510  140.4850 O   0  0  0  0  0  0  0  0  0  0  0  0
  179.4840  178.1430  139.7500 C   0  0  0  0  0  2  0  0  0  0  0  0
  178.9370  175.7760  139.4530 C   0  0  0  0  0  2  0  0  0  0  0  0
  180.3220  175.9650  139.3030 O   0  0  0  0  0  0  0  0  0  0  0  0
  179.6820  176.7410  140.2860 C   0  0  1  0  0  3  0  0  0  0  0  0
  189.6290  177.8420  144.0580 N   0  0  0  0  0  2  0  0  0  0  0  0
  190.3000  176.5480  144.0340 C   0  0  2  0  0  3  0  0  0  0  0  0
  191.7640  176.3660  146.1120 C   0  0  1  0  0  3  0  0  0  0  0  0
  190.5220  176.0350  146.6610 O   0  0  0  0  0  1  0  0  0  0  0  0
  191.6980  176.6580  144.6490 C   0  0  2  0  0  3  0  0  0  0  0  0
  191.7170  177.6820  145.6150 O   0  0  0  0  0  0  0  0  0  0  0  0
  190.3720  176.0170  142.6050 C   0  0  0  0  0  2  0  0  0  0  0  0
  191.2200  177.1730  141.4790 S   0  0  0  0  0  0  0  0  0  0  0  0
  190.0870  176.7820  140.1190 C   0  0  0  0  0  1  0  0  0  0  0  0
  1  7  1  0  0  0  0
  2 18  1  0  0  0  0
  2  9  1  0  0  0  0
  3  4  1  0  0  0  0
  5 17  1  0  0  0  0
  5 13  1  0  0  0  0
  6  9  2  0  0  0  0
  7 13  2  0  0  0  0
  8  3  1  0  0  0  0
  9 10  1  0  0  0  0
 10 16  2  0  0  0  0
 10  8  1  0  0  0  0
 11 24  1  0  0  0  0
 11 16  1  0  0  0  0
 12 14  1  0  0  0  0
 12  1  2  0  0  0  0
 13  6  1  0  0  0  0
 14  5  2  0  0  0  0
 15  4  1  0  0  0  0
 16 15  1  0  0  0  0
 17  2  2  0  0  0  0
 18 11  2  0  0  0  0
 19  1  1  0  0  0  0
 20 19  1  0  0  0  0
 21 23  1  0  0  0  0
 22 21  1  0  0  0  0
 22 23  1  0  0  0  0
 23 20  1  6  0  0  0
 25 30  1  6  0  0  0
 25 24  1  0  0  0  0
 26 27  1  1  0  0  0
 28 25  1  1  0  0  0
 28 29  1  0  0  0  0
 28 26  1  0  0  0  0
 29 26  1  0  0  0  0
 31 30  1  0  0  0  0
 32 31  1  0  0  0  0
M  END
>  <MODEL>
6

>  <REMARK>
 VINA RESULT:      -7.1      4.141      7.853
  Name = 
  8 active torsions:
  status: ('A' for Active; 'I' for Inactive)
    1  A    between atoms: C_2  and  O_24
    2  A    between atoms: S_6  and  C_7
    3  A    between atoms: C_7  and  C_32
    4  A    between atoms: C_10  and  C_20
    5  A    between atoms: C_10  and  O_24
    6  A    between atoms: C_16  and  N_27
    7  A    between atoms: C_22  and  C_32
    8  A    between atoms: N_27  and  C_32
                            x       y       z     vdW  Elec       q    Type
                         _______ _______ _______ _____ _____    ______ ____

>  <TORSDO>
F 8

$$$$
=
 OpenBabel11052416583D

 32 37  0  0  1  0  0  0  0  0999 V2000
  183.0100  178.8930  142.6680 C   0  0  0  0  0  0  0  0  0  0  0  0
  187.5560  177.7650  144.3950 C   0  0  0  0  0  0  0  0  0  0  0  0
  190.2080  176.7530  140.3370 C   0  0  0  0  0  2  0  0  0  0  0  0
  191.4440  177.2100  141.0920 C   0  0  0  0  0  2  0  0  0  0  0  0
  185.2660  178.3290  144.2390 C   0  0  0  0  0  0  0  0  0  0  0  0
  186.5470  178.0200  142.2430 N   0  0  0  0  0  0  0  0  0  0  0  0
  184.2320  178.5930  142.0540 C   0  0  0  0  0  3  0  0  0  0  0  0
  188.9900  177.5010  140.8680 C   0  0  0  0  0  2  0  0  0  0  0  0
  187.6540  177.7430  142.9870 C   0  0  0  0  0  0  0  0  0  0  0  0
  188.8810  177.4390  142.3720 C   0  0  0  0  0  0  0  0  0  0  0  0
  189.9090  177.2010  144.5800 C   0  0  0  0  0  0  0  0  0  0  0  0
  182.9240  178.9080  144.0710 C   0  0  0  0  0  3  0  0  0  0  0  0
  185.3580  178.3120  142.8320 C   0  0  0  0  0  0  0  0  0  0  0  0
  184.0480  178.6280  144.8540 C   0  0  0  0  0  3  0  0  0  0  0  0
  191.3330  176.7780  142.5490 C   0  0  0  0  0  2  0  0  0  0  0  0
  190.0200  177.1820  143.1760 C   0  0  0  0  0  0  0  0  0  0  0  0
  186.3670  178.0550  144.9840 N   0  0  0  0  0  0  0  0  0  0  0  0
  188.6760  177.4930  145.1770 C   0  0  0  0  0  3  0  0  0  0  0  0
  181.9020  179.1700  141.8640 O   0  0  0  0  0  0  0  0  0  0  0  0
  181.2970  178.1920  141.0270 C   0  0  0  0  0  2  0  0  0  0  0  0
  179.1630  177.1290  140.4730 C   0  0  0  0  0  2  0  0  0  0  0  0
  179.3330  177.1530  141.8680 O   0  0  0  0  0  0  0  0  0  0  0  0
  179.7910  178.2770  141.1580 C   0  0  1  0  0  3  0  0  0  0  0  0
  191.0530  176.9050  145.3910 N   0  0  0  0  0  2  0  0  0  0  0  0
  191.0180  176.8320  146.8470 C   0  0  2  0  0  3  0  0  0  0  0  0
  192.6860  175.7480  148.4410 C   0  0  1  0  0  3  0  0  0  0  0  0
  192.8020  177.0840  148.8390 O   0  0  0  0  0  1  0  0  0  0  0  0
  191.7010  175.5510  147.3350 C   0  0  2  0  0  3  0  0  0  0  0  0
  193.0860  175.6270  147.0980 O   0  0  0  0  0  0  0  0  0  0  0  0
  189.5770  176.9050  147.3440 C   0  0  0  0  0  2  0  0  0  0  0  0
  189.3250  178.2550  148.5430 S   0  0  0  0  0  0  0  0  0  0  0  0
  187.5230  178.0660  148.4760 C   0  0  0  0  0  1  0  0  0  0  0  0
  1 12  1  0  0  0  0
  2 17  2  0  0  0  0
  2 18  1  0  0  0  0
  3  8  1  0  0  0  0
  3  4  1  0  0  0  0
  4 15  1  0  0  0  0
  5 14  1  0  0  0  0
  5 17  1  0  0  0  0
  6 13  1  0  0  0  0
  6  9  2  0  0  0  0
  7  1  2  0  0  0  0
  7 13  1  0  0  0  0
  8 10  1  0  0  0  0
  9  2  1  0  0  0  0
 10  9  1  0  0  0  0
 10 16  2  0  0  0  0
 11 18  2  0  0  0  0
 11 24  1  0  0  0  0
 12 14  2  0  0  0  0
 13  5  2  0  0  0  0
 15 16  1  0  0  0  0
 16 11  1  0  0  0  0
 19  1  1  0  0  0  0
 20 19  1  0  0  0  0
 21 23  1  0  0  0  0
 21 22  1  0  0  0  0
 23 20  1  6  0  0  0
 23 22  1  0  0  0  0
 24 25  1  0  0  0  0
 25 30  1  6  0  0  0
 26 27  1  6  0  0  0
 28 25  1  6  0  0  0
 28 26  1  0  0  0  0
 29 28  1  0  0  0  0
 29 26  1  0  0  0  0
 30 31  1  0  0  0  0
 32 31  1  0  0  0  0
M  END
>  <MODEL>
7

>  <REMARK>
 VINA RESULT:      -7.0      4.808      7.863
  Name = 
  8 active torsions:
  status: ('A' for Active; 'I' for Inactive)
    1  A    between atoms: C_2  and  O_24
    2  A    between atoms: S_6  and  C_7
    3  A    between atoms: C_7  and  C_32
    4  A    between atoms: C_10  and  C_20
    5  A    between atoms: C_10  and  O_24
    6  A    between atoms: C_16  and  N_27
    7  A    between atoms: C_22  and  C_32
    8  A    between atoms: N_27  and  C_32
                            x       y       z     vdW  Elec       q    Type
                         _______ _______ _______ _____ _____    ______ ____

>  <TORSDO>
F 8

$$$$
=
 OpenBabel11052416583D

 32 37  0  0  1  0  0  0  0  0999 V2000
  190.5190  177.1260  145.1140 C   0  0  0  0  0  0  0  0  0  0  0  0
  188.9390  177.5490  140.3970 C   0  0  0  0  0  0  0  0  0  0  0  0
  184.1300  178.6600  140.7950 C   0  0  0  0  0  2  0  0  0  0  0  0
  184.2390  179.3850  139.4660 C   0  0  0  0  0  2  0  0  0  0  0  0
  190.2600  177.1660  142.3200 C   0  0  0  0  0  0  0  0  0  0  0  0
  187.9880  177.8710  142.5670 N   0  0  0  0  0  0  0  0  0  0  0  0
  189.3010  177.4940  144.5300 C   0  0  0  0  0  3  0  0  0  0  0  0
  185.4780  178.7100  141.5070 C   0  0  0  0  0  2  0  0  0  0  0  0
  187.8410  177.8970  141.2120 C   0  0  0  0  0  0  0  0  0  0  0  0
  186.6180  178.2630  140.6250 C   0  0  0  0  0  0  0  0  0  0  0  0
  187.6080  177.9500  138.4090 C   0  0  0  0  0  0  0  0  0  0  0  0
  191.6050  176.7780  144.2910 C   0  0  0  0  0  3  0  0  0  0  0  0
  189.1670  177.5150  143.1400 C   0  0  0  0  0  0  0  0  0  0  0  0
  191.4770  176.7990  142.8990 C   0  0  0  0  0  3  0  0  0  0  0  0
  185.1860  178.6200  138.5500 C   0  0  0  0  0  2  0  0  0  0  0  0
  186.5060  178.3040  139.2120 C   0  0  0  0  0  0  0  0  0  0  0  0
  190.1180  177.1920  140.9700 N   0  0  0  0  0  0  0  0  0  0  0  0
  188.8150  177.5760  139.0100 C   0  0  0  0  0  3  0  0  0  0  0  0
  190.6230  177.1140  146.5070 O   0  0  0  0  0  0  0  0  0  0  0  0
  189.5110  176.8640  147.3570 C   0  0  0  0  0  2  0  0  0  0  0  0
  187.5690  178.2500  147.9070 C   0  0  0  0  0  2  0  0  0  0  0  0
  188.2370  177.8780  149.0880 O   0  0  0  0  0  0  0  0  0  0  0  0
  189.0430  178.1660  147.9720 C   0  0  1  0  0  3  0  0  0  0  0  0
  187.4820  177.9590  136.9810 N   0  0  0  0  0  2  0  0  0  0  0  0
  187.4080  176.7520  136.1660 C   0  0  2  0  0  3  0  0  0  0  0  0
  189.6340  175.9440  135.2220 C   0  0  1  0  0  3  0  0  0  0  0  0
  189.6020  175.2250  136.4210 O   0  0  0  0  0  1  0  0  0  0  0  0
  188.4320  176.8100  135.0290 C   0  0  2  0  0  3  0  0  0  0  0  0
  189.6520  177.3220  135.5080 O   0  0  0  0  0  0  0  0  0  0  0  0
  185.9950  176.5700  135.6200 C   0  0  0  0  0  2  0  0  0  0  0  0
  184.9880  175.4600  136.6580 S   0  0  0  0  0  0  0  0  0  0  0  0
  186.4380  174.4800  137.1310 C   0  0  0  0  0  1  0  0  0  0  0  0
  1 19  1  0  0  0  0
  2 17  2  0  0  0  0
  2  9  1  0  0  0  0
  3  8  1  0  0  0  0
  4  3  1  0  0  0  0
  5 14  2  0  0  0  0
  5 13  1  0  0  0  0
  6 13  1  0  0  0  0
  7  1  1  0  0  0  0
  9  6  2  0  0  0  0
 10  9  1  0  0  0  0
 10  8  1  0  0  0  0
 11 18  2  0  0  0  0
 11 16  1  0  0  0  0
 12  1  2  0  0  0  0
 13  7  2  0  0  0  0
 14 12  1  0  0  0  0
 15 16  1  0  0  0  0
 15  4  1  0  0  0  0
 16 10  2  0  0  0  0
 17  5  1  0  0  0  0
 18  2  1  0  0  0  0
 19 20  1  0  0  0  0
 21 23  1  0  0  0  0
 21 22  1  0  0  0  0
 23 20  1  6  0  0  0
 23 22  1  0  0  0  0
 24 11  1  0  0  0  0
 25 30  1  6  0  0  0
 25 24  1  0  0  0  0
 26 29  1  0  0  0  0
 26 27  1  1  0  0  0
 28 26  1  0  0  0  0
 28 29  1  0  0  0  0
 28 25  1  1  0  0  0
 30 31  1  0  0  0  0
 31 32  1  0  0  0  0
M  END
>  <MODEL>
8

>  <REMARK>
 VINA RESULT:      -6.9      2.777      3.551
  Name = 
  8 active torsions:
  status: ('A' for Active; 'I' for Inactive)
    1  A    between atoms: C_2  and  O_24
    2  A    between atoms: S_6  and  C_7
    3  A    between atoms: C_7  and  C_32
    4  A    between atoms: C_10  and  C_20
    5  A    between atoms: C_10  and  O_24
    6  A    between atoms: C_16  and  N_27
    7  A    between atoms: C_22  and  C_32
    8  A    between atoms: N_27  and  C_32
                            x       y       z     vdW  Elec       q    Type
                         _______ _______ _______ _____ _____    ______ ____

>  <TORSDO>
F 8

$$$$
=
 OpenBabel11052416583D

 32 37  0  0  1  0  0  0  0  0999 V2000
  187.7450  177.5340  146.6860 C   0  0  0  0  0  0  0  0  0  0  0  0
  185.6710  178.5900  142.2700 C   0  0  0  0  0  0  0  0  0  0  0  0
  189.3850  178.1660  139.0220 C   0  0  0  0  0  2  0  0  0  0  0  0
  188.3540  177.8010  137.9680 C   0  0  0  0  0  2  0  0  0  0  0  0
  186.0360  178.2570  144.5820 C   0  0  0  0  0  0  0  0  0  0  0  0
  187.8180  177.8690  143.0350 N   0  0  0  0  0  0  0  0  0  0  0  0
  188.2160  177.5210  145.3680 C   0  0  0  0  0  3  0  0  0  0  0  0
  188.8790  177.7280  140.3920 C   0  0  0  0  0  2  0  0  0  0  0  0
  187.0040  178.2170  141.9990 C   0  0  0  0  0  0  0  0  0  0  0  0
  187.4760  178.2080  140.6750 C   0  0  0  0  0  0  0  0  0  0  0  0
  185.2680  178.9260  139.9010 C   0  0  0  0  0  0  0  0  0  0  0  0
  186.4160  177.9110  146.9440 C   0  0  0  0  0  3  0  0  0  0  0  0
  187.3680  177.8800  144.3160 C   0  0  0  0  0  0  0  0  0  0  0  0
  185.5630  178.2700  145.8960 C   0  0  0  0  0  3  0  0  0  0  0  0
  187.0900  178.6230  138.1930 C   0  0  0  0  0  2  0  0  0  0  0  0
  186.5950  178.5500  139.6170 C   0  0  0  0  0  0  0  0  0  0  0  0
  185.2210  178.6020  143.5520 N   0  0  0  0  0  0  0  0  0  0  0  0
  184.8180  178.9420  141.2270 C   0  0  0  0  0  3  0  0  0  0  0  0
  188.6160  177.1700  147.7160 O   0  0  0  0  0  0  0  0  0  0  0  0
  189.9980  177.5060  147.7080 C   0  0  0  0  0  2  0  0  0  0  0  0
  191.6800  176.5810  146.1880 C   0  0  0  0  0  2  0  0  0  0  0  0
  192.1770  176.5820  147.5030 O   0  0  0  0  0  0  0  0  0  0  0  0
  190.8120  176.2820  147.3450 C   0  0  1  0  0  3  0  0  0  0  0  0
  184.3900  179.3050  138.8330 N   0  0  0  0  0  2  0  0  0  0  0  0
  183.2700  178.4910  138.3770 C   0  0  2  0  0  3  0  0  0  0  0  0
  180.8660  179.2940  138.6510 C   0  0  1  0  0  3  0  0  0  0  0  0
  181.0680  179.5880  137.2990 O   0  0  0  0  0  1  0  0  0  0  0  0
  182.0620  178.6770  139.3000 C   0  0  2  0  0  3  0  0  0  0  0  0
  181.7640  180.0460  139.4300 O   0  0  0  0  0  0  0  0  0  0  0  0
  183.6800  177.0230  138.3050 C   0  0  0  0  0  2  0  0  0  0  0  0
  183.1680  176.2370  136.7410 S   0  0  0  0  0  0  0  0  0  0  0  0
  181.8650  175.2870  137.5690 C   0  0  0  0  0  1  0  0  0  0  0  0
  1 12  1  0  0  0  0
  1 19  1  0  0  0  0
  2 17  1  0  0  0  0
  3  8  1  0  0  0  0
  4 15  1  0  0  0  0
  4  3  1  0  0  0  0
  5 14  1  0  0  0  0
  6 13  2  0  0  0  0
  7  1  2  0  0  0  0
  8 10  1  0  0  0  0
  9  2  1  0  0  0  0
  9  6  1  0  0  0  0
 10  9  2  0  0  0  0
 11 18  1  0  0  0  0
 13  5  1  0  0  0  0
 13  7  1  0  0  0  0
 14 12  2  0  0  0  0
 15 16  1  0  0  0  0
 16 11  2  0  0  0  0
 16 10  1  0  0  0  0
 17  5  2  0  0  0  0
 18  2  2  0  0  0  0
 20 19  1  0  0  0  0
 21 23  1  0  0  0  0
 21 22  1  0  0  0  0
 23 22  1  0  0  0  0
 23 20  1  1  0  0  0
 24 11  1  0  0  0  0
 25 30  1  1  0  0  0
 25 24  1  0  0  0  0
 26 27  1  6  0  0  0
 26 28  1  0  0  0  0
 26 29  1  0  0  0  0
 28 25  1  6  0  0  0
 28 29  1  0  0  0  0
 31 32  1  0  0  0  0
 31 30  1  0  0  0  0
M  END
>  <MODEL>
9

>  <REMARK>
 VINA RESULT:      -6.8      4.161      6.908
  Name = 
  8 active torsions:
  status: ('A' for Active; 'I' for Inactive)
    1  A    between atoms: C_2  and  O_24
    2  A    between atoms: S_6  and  C_7
    3  A    between atoms: C_7  and  C_32
    4  A    between atoms: C_10  and  C_20
    5  A    between atoms: C_10  and  O_24
    6  A    between atoms: C_16  and  N_27
    7  A    between atoms: C_22  and  C_32
    8  A    between atoms: N_27  and  C_32
                            x       y       z     vdW  Elec       q    Type
                         _______ _______ _______ _____ _____    ______ ____

>  <TORSDO>
F 8

$$$$
