=
 OpenBabel11052416583D

 32 36  0  0  1  0  0  0  0  0999 V2000
  187.9220  176.8190  144.0840 C   0  0  0  0  0  3  0  0  0  0  0  0
  190.9570  177.4530  140.1590 C   0  0  1  0  0  3  0  0  0  0  0  0
  187.3930  178.3550  136.5290 C   0  0  0  0  0  3  0  0  0  0  0  0
  188.3240  177.7190  135.7110 C   0  0  0  0  0  3  0  0  0  0  0  0
  190.4620  177.2420  143.0500 C   0  0  0  0  0  0  0  0  0  0  0  0
  189.5620  177.3470  140.7240 C   0  0  0  0  0  0  0  0  0  0  0  0
  188.0830  176.9720  142.7090 C   0  0  0  0  0  3  0  0  0  0  0  0
  187.4960  178.2450  137.9150 C   0  0  0  0  0  3  0  0  0  0  0  0
  188.5260  177.4100  139.9390 N   0  0  0  0  0  0  0  0  0  0  0  0
  188.5370  177.5190  138.5060 C   0  0  0  0  0  0  0  0  0  0  0  0
  190.5720  175.9840  138.1940 C   0  0  0  0  0  0  0  0  0  0  0  0
  191.2420  177.1400  145.2230 O   0  0  0  0  0  0  0  0  0  0  0  0
  190.2580  177.0860  144.4330 C   0  0  0  0  0  0  0  0  0  0  0  0
  189.3610  177.1840  142.1810 C   0  0  0  0  0  0  0  0  0  0  0  0
  191.8110  177.4880  142.5110 C   0  0  0  0  0  3  0  0  0  0  0  0
  188.9950  176.8780  144.9190 N   0  0  0  0  0  0  0  0  0  0  0  0
  189.3540  176.9700  136.2790 C   0  0  0  0  0  3  0  0  0  0  0  0
  189.4840  176.8550  137.6730 C   0  0  0  0  0  0  0  0  0  0  0  0
  192.0340  177.5980  141.2010 C   0  0  0  0  0  3  0  0  0  0  0  0
  191.2390  176.2580  139.3210 C   0  0  0  0  0  3  0  0  0  0  0  0
  192.3250  174.5090  135.3820 C   0  0  0  0  0  0  0  0  0  0  0  0
  191.3130  173.6010  134.7410 C   0  0  0  0  0  2  0  0  0  0  0  0
  189.7910  174.1590  136.6370 C   0  0  1  0  0  3  0  0  0  0  0  0
  189.2610  172.4390  135.0610 O   0  0  0  0  0  1  0  0  0  0  0  0
  190.3150  173.0390  135.7480 C   0  0  1  0  0  3  0  0  0  0  0  0
  192.1090  175.0690  136.5360 N   0  0  0  0  0  0  0  0  0  0  0  0
  193.4750  174.8840  134.6340 N   0  0  0  0  0  1  0  0  0  0  0  0
  188.8570  173.6450  137.5390 O   0  0  0  0  0  1  0  0  0  0  0  0
  190.9680  174.7660  137.4060 C   0  0  1  0  0  3  0  0  0  0  0  0
  188.7630  176.7010  146.3470 C   0  0  0  0  0  2  0  0  0  0  0  0
  188.1470  177.9570  146.9360 C   0  0  0  0  0  2  0  0  0  0  0  0
  188.6560  178.1540  148.3480 C   0  0  0  0  0  1  0  0  0  0  0  0
  1 16  1  0  0  0  0
  2 20  1  1  0  0  0
  2  6  1  0  0  0  0
  2 19  1  0  0  0  0
  3  8  1  0  0  0  0
  4 17  1  0  0  0  0
  4  3  2  0  0  0  0
  5 13  1  0  0  0  0
  6 14  1  0  0  0  0
  7  1  2  0  0  0  0
  8 10  2  0  0  0  0
  9  6  2  0  0  0  0
 10  9  1  0  0  0  0
 11 20  2  0  0  0  0
 13 16  1  0  0  0  0
 13 12  2  0  0  0  0
 14  7  1  0  0  0  0
 14  5  2  0  0  0  0
 15  5  1  0  0  0  0
 16 30  1  0  0  0  0
 17 18  2  0  0  0  0
 18 11  1  0  0  0  0
 18 10  1  0  0  0  0
 19 15  2  0  0  0  0
 21 26  2  0  0  0  0
 22 21  1  0  0  0  0
 22 25  1  0  0  0  0
 23 29  1  0  0  0  0
 23 28  1  1  0  0  0
 25 24  1  6  0  0  0
 25 23  1  0  0  0  0
 26 29  1  0  0  0  0
 27 21  1  0  0  0  0
 29 11  1  6  0  0  0
 30 31  1  0  0  0  0
 31 32  1  0  0  0  0
M  END
>  <MODEL>
1

>  <REMARK>
 VINA RESULT:      -8.0      0.000      0.000
  Name = 
  3 active torsions:
  status: ('A' for Active; 'I' for Inactive)
    1  A    between atoms: C_1  and  C_10
    2  A    between atoms: C_10  and  N_24
    3  A    between atoms: C_16  and  C_32
                            x       y       z     vdW  Elec       q    Type
                         _______ _______ _______ _____ _____    ______ ____

>  <TORSDO>
F 3

$$$$
=
 OpenBabel11052416583D

 32 36  0  0  1  0  0  0  0  0999 V2000
  186.4220  177.5000  144.8990 C   0  0  0  0  0  3  0  0  0  0  0  0
  183.9400  178.9720  140.8130 C   0  0  1  0  0  3  0  0  0  0  0  0
  179.4480  180.2500  143.0230 C   0  0  0  0  0  3  0  0  0  0  0  0
  178.9310  179.8200  141.8040 C   0  0  0  0  0  3  0  0  0  0  0  0
  186.4150  178.2470  142.2260 C   0  0  0  0  0  0  0  0  0  0  0  0
  183.9580  178.6870  142.2950 C   0  0  0  0  0  0  0  0  0  0  0  0
  185.2260  177.8920  144.3020 C   0  0  0  0  0  3  0  0  0  0  0  0
  180.7530  179.9150  143.3820 C   0  0  0  0  0  3  0  0  0  0  0  0
  182.8760  178.8170  143.0050 N   0  0  0  0  0  0  0  0  0  0  0  0
  181.5670  179.1650  142.5240 C   0  0  0  0  0  0  0  0  0  0  0  0
  181.7840  177.8340  140.3390 C   0  0  0  0  0  0  0  0  0  0  0  0
  188.6870  177.8300  142.2180 O   0  0  0  0  0  0  0  0  0  0  0  0
  187.6020  177.8480  142.8650 C   0  0  0  0  0  0  0  0  0  0  0  0
  185.2150  178.2690  142.9550 C   0  0  0  0  0  0  0  0  0  0  0  0
  186.4230  178.6640  140.8130 C   0  0  0  0  0  3  0  0  0  0  0  0
  187.5800  177.4830  144.1840 N   0  0  0  0  0  0  0  0  0  0  0  0
  179.7170  179.0510  140.9460 C   0  0  0  0  0  3  0  0  0  0  0  0
  181.0380  178.7110  141.2810 C   0  0  0  0  0  0  0  0  0  0  0  0
  185.3030  179.0060  140.1750 C   0  0  0  0  0  3  0  0  0  0  0  0
  183.0990  177.9550  140.1280 C   0  0  0  0  0  3  0  0  0  0  0  0
  180.0190  174.6660  140.2440 C   0  0  0  0  0  0  0  0  0  0  0  0
  180.6260  173.9320  139.0810 C   0  0  0  0  0  2  0  0  0  0  0  0
  181.9300  176.0050  138.6070 C   0  0  1  0  0  3  0  0  0  0  0  0
  181.9010  174.1600  137.0840 O   0  0  0  0  0  1  0  0  0  0  0  0
  181.1170  174.8760  137.9890 C   0  0  1  0  0  3  0  0  0  0  0  0
  180.2760  175.9210  140.4710 N   0  0  0  0  0  0  0  0  0  0  0  0
  179.2730  173.9270  141.2030 N   0  0  0  0  0  1  0  0  0  0  0  0
  182.4010  176.8510  137.6010 O   0  0  0  0  0  1  0  0  0  0  0  0
  181.0270  176.7930  139.5610 C   0  0  1  0  0  3  0  0  0  0  0  0
  188.7980  177.0540  144.8620 C   0  0  0  0  0  2  0  0  0  0  0  0
  188.9710  177.8230  146.1590 C   0  0  0  0  0  2  0  0  0  0  0  0
  189.2710  176.8530  147.2830 C   0  0  0  0  0  1  0  0  0  0  0  0
  2 20  1  6  0  0  0
  2  6  1  0  0  0  0
  3  8  1  0  0  0  0
  4  3  2  0  0  0  0
  5 13  1  0  0  0  0
  5 14  2  0  0  0  0
  6 14  1  0  0  0  0
  6  9  2  0  0  0  0
  7  1  2  0  0  0  0
 10  9  1  0  0  0  0
 10  8  2  0  0  0  0
 11 18  1  0  0  0  0
 12 13  2  0  0  0  0
 13 16  1  0  0  0  0
 14  7  1  0  0  0  0
 15  5  1  0  0  0  0
 16 30  1  0  0  0  0
 16  1  1  0  0  0  0
 17 18  2  0  0  0  0
 17  4  1  0  0  0  0
 18 10  1  0  0  0  0
 19  2  1  0  0  0  0
 19 15  2  0  0  0  0
 20 11  2  0  0  0  0
 21 26  2  0  0  0  0
 21 27  1  0  0  0  0
 22 21  1  0  0  0  0
 23 28  1  6  0  0  0
 23 29  1  0  0  0  0
 25 24  1  6  0  0  0
 25 23  1  0  0  0  0
 25 22  1  0  0  0  0
 29 11  1  1  0  0  0
 29 26  1  0  0  0  0
 30 31  1  0  0  0  0
 31 32  1  0  0  0  0
M  END
>  <MODEL>
2

>  <REMARK>
 VINA RESULT:      -7.9      6.055      8.177
  Name = 
  3 active torsions:
  status: ('A' for Active; 'I' for Inactive)
    1  A    between atoms: C_1  and  C_10
    2  A    between atoms: C_10  and  N_24
    3  A    between atoms: C_16  and  C_32
                            x       y       z     vdW  Elec       q    Type
                         _______ _______ _______ _____ _____    ______ ____

>  <TORSDO>
F 3

$$$$
=
 OpenBabel11052416583D

 32 36  0  0  1  0  0  0  0  0999 V2000
  187.8830  176.7380  144.6010 C   0  0  0  0  0  3  0  0  0  0  0  0
  185.3550  178.9240  140.8790 C   0  0  1  0  0  3  0  0  0  0  0  0
  180.7860  179.4720  143.2280 C   0  0  0  0  0  3  0  0  0  0  0  0
  180.3010  179.2880  141.9350 C   0  0  0  0  0  3  0  0  0  0  0  0
  187.8550  178.0380  142.1500 C   0  0  0  0  0  0  0  0  0  0  0  0
  185.3780  178.3300  142.2660 C   0  0  0  0  0  0  0  0  0  0  0  0
  186.6710  177.1880  144.0800 C   0  0  0  0  0  3  0  0  0  0  0  0
  182.1040  179.1340  143.5310 C   0  0  0  0  0  3  0  0  0  0  0  0
  184.2850  178.2500  142.9680 N   0  0  0  0  0  0  0  0  0  0  0  0
  182.9630  178.6270  142.5480 C   0  0  0  0  0  0  0  0  0  0  0  0
  183.2660  177.8070  140.1340 C   0  0  0  0  0  0  0  0  0  0  0  0
  190.1460  177.7470  142.0950 O   0  0  0  0  0  0  0  0  0  0  0  0
  189.0570  177.5720  142.7110 C   0  0  0  0  0  0  0  0  0  0  0  0
  186.6500  177.8430  142.8450 C   0  0  0  0  0  0  0  0  0  0  0  0
  187.8510  178.7480  140.8590 C   0  0  0  0  0  3  0  0  0  0  0  0
  189.0450  176.9330  143.9210 N   0  0  0  0  0  0  0  0  0  0  0  0
  181.1330  178.7610  140.9480 C   0  0  0  0  0  3  0  0  0  0  0  0
  182.4680  178.4240  141.2270 C   0  0  0  0  0  0  0  0  0  0  0  0
  186.7190  179.1630  140.2880 C   0  0  0  0  0  3  0  0  0  0  0  0
  184.5750  178.0370  139.9770 C   0  0  0  0  0  3  0  0  0  0  0  0
  183.3360  174.9430  137.9090 C   0  0  0  0  0  0  0  0  0  0  0  0
  182.7970  175.4650  136.6070 C   0  0  0  0  0  2  0  0  0  0  0  0
  182.3520  177.6150  137.7900 C   0  0  1  0  0  3  0  0  0  0  0  0
  181.5480  177.2070  135.5730 O   0  0  0  0  0  1  0  0  0  0  0  0
  181.7950  176.5970  136.8030 C   0  0  1  0  0  3  0  0  0  0  0  0
  183.2850  175.6460  139.0020 N   0  0  0  0  0  0  0  0  0  0  0  0
  184.0570  173.7170  137.9070 N   0  0  0  0  0  1  0  0  0  0  0  0
  181.4440  178.6640  137.9450 O   0  0  0  0  0  1  0  0  0  0  0  0
  182.5710  176.9200  139.1370 C   0  0  1  0  0  3  0  0  0  0  0  0
  190.2790  176.4300  144.5140 C   0  0  0  0  0  2  0  0  0  0  0  0
  190.4990  177.0640  145.8760 C   0  0  0  0  0  2  0  0  0  0  0  0
  191.6750  176.3970  146.5570 C   0  0  0  0  0  1  0  0  0  0  0  0
  2 20  1  6  0  0  0
  2  6  1  0  0  0  0
  3  8  1  0  0  0  0
  4  3  2  0  0  0  0
  5 13  1  0  0  0  0
  5 14  2  0  0  0  0
  6 14  1  0  0  0  0
  6  9  2  0  0  0  0
  7  1  2  0  0  0  0
 10  9  1  0  0  0  0
 10  8  2  0  0  0  0
 11 18  1  0  0  0  0
 12 13  2  0  0  0  0
 13 16  1  0  0  0  0
 14  7  1  0  0  0  0
 15  5  1  0  0  0  0
 16 30  1  0  0  0  0
 16  1  1  0  0  0  0
 17 18  2  0  0  0  0
 17  4  1  0  0  0  0
 18 10  1  0  0  0  0
 19 15  2  0  0  0  0
 19  2  1  0  0  0  0
 20 11  2  0  0  0  0
 21 26  2  0  0  0  0
 22 25  1  0  0  0  0
 22 21  1  0  0  0  0
 23 28  1  1  0  0  0
 23 29  1  0  0  0  0
 25 24  1  6  0  0  0
 25 23  1  0  0  0  0
 26 29  1  0  0  0  0
 27 21  1  0  0  0  0
 29 11  1  1  0  0  0
 30 31  1  0  0  0  0
 31 32  1  0  0  0  0
M  END
>  <MODEL>
3

>  <REMARK>
 VINA RESULT:      -7.4      4.976      6.890
  Name = 
  3 active torsions:
  status: ('A' for Active; 'I' for Inactive)
    1  A    between atoms: C_1  and  C_10
    2  A    between atoms: C_10  and  N_24
    3  A    between atoms: C_16  and  C_32
                            x       y       z     vdW  Elec       q    Type
                         _______ _______ _______ _____ _____    ______ ____

>  <TORSDO>
F 3

$$$$
=
 OpenBabel11052416583D

 32 36  0  0  1  0  0  0  0  0999 V2000
  186.2900  173.1680  136.4380 C   0  0  0  0  0  3  0  0  0  0  0  0
  188.2040  177.5240  137.9820 C   0  0  0  0  0  0  0  0  0  0  0  0
  193.1800  176.1590  138.2590 C   0  0  0  0  0  3  0  0  0  0  0  0
  193.1880  177.0770  139.3060 C   0  0  0  0  0  3  0  0  0  0  0  0
  186.0280  175.8990  136.8550 C   0  0  0  0  0  0  0  0  0  0  0  0
  188.3910  176.0660  137.6420 C   0  0  0  0  0  0  0  0  0  0  0  0
  187.3790  173.8940  136.9180 C   0  0  0  0  0  3  0  0  0  0  0  0
  191.9680  175.6710  137.7730 C   0  0  0  0  0  3  0  0  0  0  0  0
  189.5550  175.4990  137.7830 N   0  0  0  0  0  0  0  0  0  0  0  0
  190.7490  176.1040  138.3070 C   0  0  0  0  0  0  0  0  0  0  0  0
  189.5210  177.4880  140.0880 C   0  0  0  0  0  0  0  0  0  0  0  0
  183.8500  175.6900  136.1130 O   0  0  0  0  0  0  0  0  0  0  0  0
  184.9540  175.1330  136.3690 C   0  0  0  0  0  0  0  0  0  0  0  0
  187.2530  175.2700  137.1310 C   0  0  1  0  0  3  0  0  0  0  0  0
  185.8880  177.3530  137.0520 C   0  0  0  0  0  3  0  0  0  0  0  0
  185.1080  173.7870  136.1720 N   0  0  0  0  0  0  0  0  0  0  0  0
  191.9860  177.5030  139.8690 C   0  0  0  0  0  3  0  0  0  0  0  0
  190.7520  177.0330  139.3870 C   0  0  0  0  0  0  0  0  0  0  0  0
  186.8790  178.0930  137.5500 C   0  0  0  0  0  3  0  0  0  0  0  0
  188.3670  177.7110  139.4480 C   0  0  0  0  0  3  0  0  0  0  0  0
  190.5280  176.4390  143.4110 C   0  0  0  0  0  0  0  0  0  0  0  0
  189.2900  176.6030  144.2480 C   0  0  0  0  0  2  0  0  0  0  0  0
  188.2100  177.6120  142.2400 C   0  0  1  0  0  3  0  0  0  0  0  0
  187.1570  177.6480  144.3880 O   0  0  0  0  0  1  0  0  0  0  0  0
  188.3930  177.7280  143.7470 C   0  0  1  0  0  3  0  0  0  0  0  0
  190.5970  176.8960  142.1950 N   0  0  0  0  0  0  0  0  0  0  0  0
  191.5860  175.6280  143.9070 N   0  0  0  0  0  1  0  0  0  0  0  0
  187.3650  178.6280  141.7890 O   0  0  0  0  0  1  0  0  0  0  0  0
  189.5800  177.7460  141.5680 C   0  0  1  0  0  3  0  0  0  0  0  0
  184.0030  172.9720  135.6810 C   0  0  0  0  0  2  0  0  0  0  0  0
  183.4050  172.1640  136.8200 C   0  0  0  0  0  2  0  0  0  0  0  0
  183.4260  170.6940  136.4600 C   0  0  0  0  0  1  0  0  0  0  0  0
  1  7  2  0  0  0  0
  2 20  1  0  0  0  0
  3  4  1  0  0  0  0
  4 17  2  0  0  0  0
  5 15  2  0  0  0  0
  5 14  1  0  0  0  0
  6  9  2  0  0  0  0
  6  2  1  0  0  0  0
  8  3  2  0  0  0  0
  8 10  1  0  0  0  0
  9 10  1  0  0  0  0
 10 18  2  0  0  0  0
 12 13  2  0  0  0  0
 13  5  1  0  0  0  0
 14  7  1  1  0  0  0
 14  6  1  0  0  0  0
 15 19  1  0  0  0  0
 16 13  1  0  0  0  0
 16  1  1  0  0  0  0
 18 17  1  0  0  0  0
 18 11  1  0  0  0  0
 19  2  2  0  0  0  0
 20 11  2  0  0  0  0
 21 27  1  0  0  0  0
 21 22  1  0  0  0  0
 23 28  1  6  0  0  0
 23 25  1  0  0  0  0
 25 22  1  0  0  0  0
 25 24  1  1  0  0  0
 26 21  2  0  0  0  0
 29 11  1  6  0  0  0
 29 26  1  0  0  0  0
 29 23  1  0  0  0  0
 30 16  1  0  0  0  0
 30 31  1  0  0  0  0
 32 31  1  0  0  0  0
M  END
>  <MODEL>
4

>  <REMARK>
 VINA RESULT:      -7.3      3.327      7.916
  Name = 
  3 active torsions:
  status: ('A' for Active; 'I' for Inactive)
    1  A    between atoms: C_1  and  C_10
    2  A    between atoms: C_10  and  N_24
    3  A    between atoms: C_16  and  C_32
                            x       y       z     vdW  Elec       q    Type
                         _______ _______ _______ _____ _____    ______ ____

>  <TORSDO>
F 3

$$$$
=
 OpenBabel11052416583D

 32 36  0  0  1  0  0  0  0  0999 V2000
  184.5650  178.4880  143.9690 C   0  0  0  0  0  3  0  0  0  0  0  0
  184.9260  178.7300  138.9860 C   0  0  1  0  0  3  0  0  0  0  0  0
  180.3940  180.9910  137.9630 C   0  0  0  0  0  3  0  0  0  0  0  0
  180.4780  180.2270  136.8020 C   0  0  0  0  0  3  0  0  0  0  0  0
  186.0880  178.3210  141.6560 C   0  0  0  0  0  0  0  0  0  0  0  0
  184.1240  178.9430  140.2460 C   0  0  0  0  0  0  0  0  0  0  0  0
  183.9690  178.7530  142.7370 C   0  0  0  0  0  3  0  0  0  0  0  0
  181.2140  180.6950  139.0510 C   0  0  0  0  0  3  0  0  0  0  0  0
  182.8990  179.3780  140.1830 N   0  0  0  0  0  0  0  0  0  0  0  0
  182.1410  179.6480  138.9920 C   0  0  0  0  0  0  0  0  0  0  0  0
  183.1050  177.6640  137.6760 C   0  0  0  0  0  0  0  0  0  0  0  0
  187.8750  177.7550  143.0060 O   0  0  0  0  0  0  0  0  0  0  0  0
  186.6540  178.0650  142.9170 C   0  0  0  0  0  0  0  0  0  0  0  0
  184.7310  178.6700  141.5670 C   0  0  0  0  0  0  0  0  0  0  0  0
  186.9090  178.2530  140.4340 C   0  0  0  0  0  3  0  0  0  0  0  0
  185.8820  178.1530  144.0440 N   0  0  0  0  0  0  0  0  0  0  0  0
  181.3780  179.1640  136.7310 C   0  0  0  0  0  3  0  0  0  0  0  0
  182.2220  178.8540  137.8110 C   0  0  0  0  0  0  0  0  0  0  0  0
  186.3860  178.4510  139.2240 C   0  0  0  0  0  3  0  0  0  0  0  0
  184.3300  177.6110  138.2080 C   0  0  0  0  0  3  0  0  0  0  0  0
  181.4400  174.4440  137.5410 C   0  0  0  0  0  0  0  0  0  0  0  0
  182.3730  173.5710  136.7490 C   0  0  0  0  0  2  0  0  0  0  0  0
  183.7690  175.6040  136.3790 C   0  0  1  0  0  3  0  0  0  0  0  0
  184.2020  173.5520  135.2280 O   0  0  0  0  0  1  0  0  0  0  0  0
  183.1810  174.3610  135.7260 C   0  0  1  0  0  3  0  0  0  0  0  0
  181.6210  175.7290  137.6370 N   0  0  0  0  0  0  0  0  0  0  0  0
  180.4310  173.8260  138.3300 N   0  0  0  0  0  1  0  0  0  0  0  0
  184.5320  176.3100  135.4460 O   0  0  0  0  0  1  0  0  0  0  0  0
  182.6190  176.4860  136.8760 C   0  0  1  0  0  3  0  0  0  0  0  0
  186.4450  177.8790  145.3600 C   0  0  0  0  0  2  0  0  0  0  0  0
  185.4480  178.2530  146.4430 C   0  0  0  0  0  2  0  0  0  0  0  0
  186.0560  179.3070  147.3440 C   0  0  0  0  0  1  0  0  0  0  0  0
  1 16  1  0  0  0  0
  2 20  1  1  0  0  0
  2 19  1  0  0  0  0
  2  6  1  0  0  0  0
  3  8  1  0  0  0  0
  4  3  2  0  0  0  0
  5 13  1  0  0  0  0
  6 14  1  0  0  0  0
  7  1  2  0  0  0  0
  9  6  2  0  0  0  0
 10  8  2  0  0  0  0
 10  9  1  0  0  0  0
 11 18  1  0  0  0  0
 11 20  2  0  0  0  0
 13 12  2  0  0  0  0
 13 16  1  0  0  0  0
 14  5  2  0  0  0  0
 14  7  1  0  0  0  0
 15  5  1  0  0  0  0
 16 30  1  0  0  0  0
 17  4  1  0  0  0  0
 17 18  2  0  0  0  0
 18 10  1  0  0  0  0
 19 15  2  0  0  0  0
 21 26  2  0  0  0  0
 21 27  1  0  0  0  0
 22 21  1  0  0  0  0
 23 28  1  6  0  0  0
 23 29  1  0  0  0  0
 25 24  1  1  0  0  0
 25 23  1  0  0  0  0
 25 22  1  0  0  0  0
 29 26  1  0  0  0  0
 29 11  1  1  0  0  0
 30 31  1  0  0  0  0
 31 32  1  0  0  0  0
M  END
>  <MODEL>
5

>  <REMARK>
 VINA RESULT:      -7.3      5.245      6.851
  Name = 
  3 active torsions:
  status: ('A' for Active; 'I' for Inactive)
    1  A    between atoms: C_1  and  C_10
    2  A    between atoms: C_10  and  N_24
    3  A    between atoms: C_16  and  C_32
                            x       y       z     vdW  Elec       q    Type
                         _______ _______ _______ _____ _____    ______ ____

>  <TORSDO>
F 3

$$$$
=
 OpenBabel11052416583D

 32 36  0  0  1  0  0  0  0  0999 V2000
  186.6290  178.6290  142.6570 C   0  0  0  0  0  3  0  0  0  0  0  0
  185.2420  178.5260  137.8520 C   0  0  1  0  0  3  0  0  0  0  0  0
  180.8960  181.2980  138.2140 C   0  0  0  0  0  3  0  0  0  0  0  0
  180.4890  180.4620  137.1770 C   0  0  0  0  0  3  0  0  0  0  0  0
  187.2190  178.1280  139.9920 C   0  0  0  0  0  0  0  0  0  0  0  0
  184.9590  178.9160  139.2820 C   0  0  0  0  0  0  0  0  0  0  0  0
  185.6700  178.8960  141.6820 C   0  0  0  0  0  3  0  0  0  0  0  0
  182.0110  180.9610  138.9810 C   0  0  0  0  0  3  0  0  0  0  0  0
  183.8420  179.5040  139.5970 N   0  0  0  0  0  0  0  0  0  0  0  0
  182.7460  179.8000  138.7150 C   0  0  0  0  0  0  0  0  0  0  0  0
  182.9780  177.6330  137.3570 C   0  0  0  0  0  0  0  0  0  0  0  0
  189.2980  177.4130  140.7030 O   0  0  0  0  0  0  0  0  0  0  0  0
  188.1620  177.8740  141.0040 C   0  0  0  0  0  0  0  0  0  0  0  0
  185.9600  178.6450  140.3380 C   0  0  0  0  0  0  0  0  0  0  0  0
  187.5480  177.8800  138.5780 C   0  0  0  0  0  3  0  0  0  0  0  0
  187.8470  178.1290  142.3120 N   0  0  0  0  0  0  0  0  0  0  0  0
  181.1930  179.2880  136.9120 C   0  0  0  0  0  3  0  0  0  0  0  0
  182.3250  178.9340  137.6640 C   0  0  0  0  0  0  0  0  0  0  0  0
  186.6560  178.0730  137.6050 C   0  0  0  0  0  3  0  0  0  0  0  0
  184.3010  177.4510  137.4420 C   0  0  0  0  0  3  0  0  0  0  0  0
  180.9710  174.7130  138.1340 C   0  0  0  0  0  0  0  0  0  0  0  0
  181.4940  173.6420  137.2180 C   0  0  0  0  0  2  0  0  0  0  0  0
  182.9440  175.3940  136.1940 C   0  0  1  0  0  3  0  0  0  0  0  0
  182.7380  173.2120  135.2350 O   0  0  0  0  0  1  0  0  0  0  0  0
  182.0320  174.2080  135.9090 C   0  0  1  0  0  3  0  0  0  0  0  0
  181.3300  175.9570  138.0080 N   0  0  0  0  0  0  0  0  0  0  0  0
  180.1910  174.3270  139.2590 N   0  0  0  0  0  1  0  0  0  0  0  0
  183.4570  175.8920  134.9950 O   0  0  0  0  0  1  0  0  0  0  0  0
  182.1260  176.4830  136.8950 C   0  0  1  0  0  3  0  0  0  0  0  0
  188.8050  177.8620  143.3780 C   0  0  0  0  0  2  0  0  0  0  0  0
  188.0990  177.2430  144.5710 C   0  0  0  0  0  2  0  0  0  0  0  0
  188.9070  177.5030  145.8250 C   0  0  0  0  0  1  0  0  0  0  0  0
  2 20  1  1  0  0  0
  2  6  1  0  0  0  0
  3  8  1  0  0  0  0
  4  3  2  0  0  0  0
  5 14  2  0  0  0  0
  5 13  1  0  0  0  0
  6  9  2  0  0  0  0
  6 14  1  0  0  0  0
  7  1  2  0  0  0  0
 10  8  2  0  0  0  0
 10  9  1  0  0  0  0
 11 20  2  0  0  0  0
 11 18  1  0  0  0  0
 12 13  2  0  0  0  0
 13 16  1  0  0  0  0
 14  7  1  0  0  0  0
 15  5  1  0  0  0  0
 16  1  1  0  0  0  0
 16 30  1  0  0  0  0
 17  4  1  0  0  0  0
 17 18  2  0  0  0  0
 18 10  1  0  0  0  0
 19  2  1  0  0  0  0
 19 15  2  0  0  0  0
 21 27  1  0  0  0  0
 22 21  1  0  0  0  0
 23 28  1  6  0  0  0
 23 29  1  0  0  0  0
 25 24  1  1  0  0  0
 25 23  1  0  0  0  0
 25 22  1  0  0  0  0
 26 21  2  0  0  0  0
 29 11  1  1  0  0  0
 29 26  1  0  0  0  0
 30 31  1  0  0  0  0
 31 32  1  0  0  0  0
M  END
>  <MODEL>
6

>  <REMARK>
 VINA RESULT:      -7.0      5.044      7.029
  Name = 
  3 active torsions:
  status: ('A' for Active; 'I' for Inactive)
    1  A    between atoms: C_1  and  C_10
    2  A    between atoms: C_10  and  N_24
    3  A    between atoms: C_16  and  C_32
                            x       y       z     vdW  Elec       q    Type
                         _______ _______ _______ _____ _____    ______ ____

>  <TORSDO>
F 3

$$$$
=
 OpenBabel11052416583D

 32 36  0  0  1  0  0  0  0  0999 V2000
  182.0160  175.0920  137.2600 C   0  0  0  0  0  3  0  0  0  0  0  0
  184.6670  179.0070  138.8930 C   0  0  0  0  0  0  0  0  0  0  0  0
  189.2750  177.7250  136.9370 C   0  0  0  0  0  3  0  0  0  0  0  0
  189.7400  178.3730  138.0790 C   0  0  0  0  0  3  0  0  0  0  0  0
  182.1200  177.6430  138.3470 C   0  0  0  0  0  0  0  0  0  0  0  0
  184.6110  177.6730  138.1890 C   0  0  0  0  0  0  0  0  0  0  0  0
  183.2530  175.7100  137.4380 C   0  0  0  0  0  3  0  0  0  0  0  0
  187.9380  177.3370  136.8540 C   0  0  0  0  0  3  0  0  0  0  0  0
  185.7000  177.1150  137.7450 N   0  0  0  0  0  0  0  0  0  0  0  0
  187.0420  177.6070  137.8950 C   0  0  0  0  0  0  0  0  0  0  0  0
  186.6720  178.5090  140.2710 C   0  0  0  0  0  0  0  0  0  0  0  0
  179.8140  177.5650  138.4660 O   0  0  0  0  0  0  0  0  0  0  0  0
  180.8910  176.9880  138.1490 C   0  0  0  0  0  0  0  0  0  0  0  0
  183.3120  176.9950  137.9860 C   0  0  0  0  0  0  0  0  0  0  0  0
  182.1650  179.0070  138.9030 C   0  0  0  0  0  3  0  0  0  0  0  0
  180.8660  175.7290  137.6120 N   0  0  0  0  0  0  0  0  0  0  0  0
  188.8690  178.6290  139.1380 C   0  0  0  0  0  3  0  0  0  0  0  0
  187.5160  178.2570  139.0710 C   0  0  0  0  0  0  0  0  0  0  0  0
  183.3200  179.6320  139.1380 C   0  0  0  0  0  3  0  0  0  0  0  0
  185.3810  178.8500  140.1870 C   0  0  0  0  0  2  0  0  0  0  0  0
  188.7710  176.7290  142.6340 C   0  0  0  0  0  0  0  0  0  0  0  0
  187.9540  176.6720  143.8940 C   0  0  0  0  0  2  0  0  0  0  0  0
  186.2770  178.1040  142.7290 C   0  0  1  0  0  3  0  0  0  0  0  0
  186.1120  177.6180  145.0660 O   0  0  0  0  0  1  0  0  0  0  0  0
  187.0200  177.8680  144.0370 C   0  0  1  0  0  3  0  0  0  0  0  0
  188.4130  177.4600  141.6190 N   0  0  0  0  0  0  0  0  0  0  0  0
  189.8750  175.8440  142.4950 N   0  0  0  0  0  1  0  0  0  0  0  0
  185.4010  179.1820  142.8730 O   0  0  0  0  0  1  0  0  0  0  0  0
  187.3010  178.4150  141.6340 C   0  0  1  0  0  3  0  0  0  0  0  0
  179.6040  175.0270  137.4100 C   0  0  0  0  0  2  0  0  0  0  0  0
  179.5900  173.7380  138.2120 C   0  0  0  0  0  2  0  0  0  0  0  0
  179.2190  174.0430  139.6480 C   0  0  0  0  0  1  0  0  0  0  0  0
  1  7  2  0  0  0  0
  1 16  1  0  0  0  0
  2 19  1  0  0  0  0
  2 20  1  0  0  0  0
  3  4  1  0  0  0  0
  4 17  2  0  0  0  0
  5 15  1  0  0  0  0
  6  2  2  0  0  0  0
  7 14  1  0  0  0  0
  8  3  2  0  0  0  0
  8 10  1  0  0  0  0
  9 10  2  0  0  0  0
  9  6  1  0  0  0  0
 10 18  1  0  0  0  0
 13  5  1  0  0  0  0
 13 12  2  0  0  0  0
 14  6  1  0  0  0  0
 14  5  2  0  0  0  0
 15 19  2  0  0  0  0
 16 13  1  0  0  0  0
 18 17  1  0  0  0  0
 18 11  2  0  0  0  0
 20 11  1  0  0  0  0
 21 22  1  0  0  0  0
 22 25  1  0  0  0  0
 23 28  1  1  0  0  0
 23 25  1  0  0  0  0
 25 24  1  1  0  0  0
 26 29  1  0  0  0  0
 26 21  2  0  0  0  0
 27 21  1  0  0  0  0
 29 11  1  6  0  0  0
 29 23  1  0  0  0  0
 30 16  1  0  0  0  0
 30 31  1  0  0  0  0
 31 32  1  0  0  0  0
M  END
>  <MODEL>
7

>  <REMARK>
 VINA RESULT:      -6.9      4.895      8.520
  Name = 
  3 active torsions:
  status: ('A' for Active; 'I' for Inactive)
    1  A    between atoms: C_1  and  C_10
    2  A    between atoms: C_10  and  N_24
    3  A    between atoms: C_16  and  C_32
                            x       y       z     vdW  Elec       q    Type
                         _______ _______ _______ _____ _____    ______ ____

>  <TORSDO>
F 3

$$$$
=
 OpenBabel11052416583D

 32 36  0  0  1  0  0  0  0  0999 V2000
  189.2210  177.6640  142.2840 C   0  0  0  0  0  3  0  0  0  0  0  0
  187.3510  178.0790  137.6630 C   0  0  1  0  0  3  0  0  0  0  0  0
  182.6130  179.7530  138.8640 C   0  0  0  0  0  3  0  0  0  0  0  0
  182.2640  179.0360  137.7220 C   0  0  0  0  0  3  0  0  0  0  0  0
  189.5950  177.7580  139.5350 C   0  0  0  0  0  0  0  0  0  0  0  0
  187.1590  178.1520  139.1580 C   0  0  0  0  0  0  0  0  0  0  0  0
  188.1250  177.8800  141.4510 C   0  0  0  0  0  3  0  0  0  0  0  0
  183.8500  179.5380  139.4680 C   0  0  0  0  0  3  0  0  0  0  0  0
  185.9900  178.4250  139.6600 N   0  0  0  0  0  0  0  0  0  0  0  0
  184.7660  178.6240  138.9340 C   0  0  0  0  0  0  0  0  0  0  0  0
  185.2670  176.8180  137.1780 C   0  0  0  0  0  0  0  0  0  0  0  0
  191.8410  177.3960  139.9410 O   0  0  0  0  0  0  0  0  0  0  0  0
  190.6770  177.5460  140.4080 C   0  0  0  0  0  0  0  0  0  0  0  0
  188.3060  177.9270  140.0650 C   0  0  0  0  0  0  0  0  0  0  0  0
  189.8050  177.8290  138.0790 C   0  0  0  0  0  3  0  0  0  0  0  0
  190.4670  177.5030  141.7600 N   0  0  0  0  0  0  0  0  0  0  0  0
  183.1520  178.1030  137.1880 C   0  0  0  0  0  3  0  0  0  0  0  0
  184.4090  177.8780  137.7730 C   0  0  0  0  0  0  0  0  0  0  0  0
  188.7900  177.9880  137.2290 C   0  0  0  0  0  3  0  0  0  0  0  0
  186.6000  176.9120  137.1280 C   0  0  0  0  0  3  0  0  0  0  0  0
  182.7470  174.2130  137.3370 C   0  0  0  0  0  0  0  0  0  0  0  0
  183.5010  172.9430  137.0640 C   0  0  0  0  0  2  0  0  0  0  0  0
  185.5050  174.3650  136.6370 C   0  0  1  0  0  3  0  0  0  0  0  0
  185.5020  172.0200  136.1640 O   0  0  0  0  0  1  0  0  0  0  0  0
  184.7040  173.1640  136.1540 C   0  0  1  0  0  3  0  0  0  0  0  0
  183.2950  175.3830  137.1770 N   0  0  0  0  0  0  0  0  0  0  0  0
  181.4580  174.1280  137.9320 N   0  0  0  0  0  1  0  0  0  0  0  0
  186.6210  174.5470  135.8180 O   0  0  0  0  0  1  0  0  0  0  0  0
  184.6110  175.6070  136.5720 C   0  0  1  0  0  3  0  0  0  0  0  0
  191.5720  177.2710  142.6820 C   0  0  0  0  0  2  0  0  0  0  0  0
  191.1970  177.7400  144.0760 C   0  0  0  0  0  2  0  0  0  0  0  0
  191.6810  179.1600  144.2770 C   0  0  0  0  0  1  0  0  0  0  0  0
  2 20  1  1  0  0  0
  2  6  1  0  0  0  0
  3  8  1  0  0  0  0
  4  3  2  0  0  0  0
  5 14  2  0  0  0  0
  5 13  1  0  0  0  0
  6  9  2  0  0  0  0
  6 14  1  0  0  0  0
  7  1  2  0  0  0  0
 10  8  2  0  0  0  0
 10  9  1  0  0  0  0
 11 18  1  0  0  0  0
 12 13  2  0  0  0  0
 13 16  1  0  0  0  0
 14  7  1  0  0  0  0
 15  5  1  0  0  0  0
 16  1  1  0  0  0  0
 16 30  1  0  0  0  0
 17  4  1  0  0  0  0
 17 18  2  0  0  0  0
 18 10  1  0  0  0  0
 19  2  1  0  0  0  0
 19 15  2  0  0  0  0
 20 11  2  0  0  0  0
 21 27  1  0  0  0  0
 22 21  1  0  0  0  0
 23 28  1  6  0  0  0
 25 24  1  1  0  0  0
 25 23  1  0  0  0  0
 25 22  1  0  0  0  0
 26 21  2  0  0  0  0
 29 23  1  0  0  0  0
 29 26  1  0  0  0  0
 29 11  1  1  0  0  0
 30 31  1  0  0  0  0
 31 32  1  0  0  0  0
M  END
>  <MODEL>
8

>  <REMARK>
 VINA RESULT:      -6.8      3.754      5.533
  Name = 
  3 active torsions:
  status: ('A' for Active; 'I' for Inactive)
    1  A    between atoms: C_1  and  C_10
    2  A    between atoms: C_10  and  N_24
    3  A    between atoms: C_16  and  C_32
                            x       y       z     vdW  Elec       q    Type
                         _______ _______ _______ _____ _____    ______ ____

>  <TORSDO>
F 3

$$$$
=
 OpenBabel11052416583D

 32 36  0  0  1  0  0  0  0  0999 V2000
  187.0220  177.2000  144.7320 C   0  0  0  0  0  3  0  0  0  0  0  0
  184.6040  178.8010  140.6560 C   0  0  1  0  0  3  0  0  0  0  0  0
  179.9650  179.6600  142.7630 C   0  0  0  0  0  3  0  0  0  0  0  0
  179.5200  179.2850  141.4980 C   0  0  0  0  0  3  0  0  0  0  0  0
  187.0660  178.1270  142.1170 C   0  0  0  0  0  0  0  0  0  0  0  0
  184.5870  178.4160  142.1160 C   0  0  0  0  0  0  0  0  0  0  0  0
  185.8260  177.5620  144.1150 C   0  0  0  0  0  3  0  0  0  0  0  0
  181.2750  179.3780  143.1510 C   0  0  0  0  0  3  0  0  0  0  0  0
  183.4730  178.4340  142.7890 N   0  0  0  0  0  0  0  0  0  0  0  0
  182.1640  178.7380  142.2800 C   0  0  0  0  0  0  0  0  0  0  0  0
  182.5410  177.5740  140.0220 C   0  0  0  0  0  0  0  0  0  0  0  0
  189.3590  177.8450  142.1730 O   0  0  0  0  0  0  0  0  0  0  0  0
  188.2520  177.7550  142.7750 C   0  0  0  0  0  0  0  0  0  0  0  0
  185.8410  178.0280  142.7970 C   0  0  0  0  0  0  0  0  0  0  0  0
  187.1000  178.6390  140.7360 C   0  0  0  0  0  3  0  0  0  0  0  0
  188.2040  177.3000  144.0650 N   0  0  0  0  0  0  0  0  0  0  0  0
  180.3820  178.6240  140.6240 C   0  0  0  0  0  3  0  0  0  0  0  0
  181.7090  178.3400  140.9890 C   0  0  0  0  0  0  0  0  0  0  0  0
  185.9850  178.9580  140.0780 C   0  0  0  0  0  3  0  0  0  0  0  0
  183.8530  177.7860  139.8720 C   0  0  0  0  0  3  0  0  0  0  0  0
  180.4700  176.7710  137.1530 C   0  0  0  0  0  0  0  0  0  0  0  0
  179.4530  175.8000  137.6830 C   0  0  0  0  0  2  0  0  0  0  0  0
  180.6990  175.8590  139.8430 C   0  0  1  0  0  3  0  0  0  0  0  0
  178.9360  174.2900  139.4480 O   0  0  0  0  0  1  0  0  0  0  0  0
  179.9940  174.9610  138.8350 C   0  0  1  0  0  3  0  0  0  0  0  0
  181.5000  177.1380  137.8590 N   0  0  0  0  0  0  0  0  0  0  0  0
  180.2140  177.4200  135.9140 N   0  0  0  0  0  1  0  0  0  0  0  0
  181.1680  175.0900  140.9100 O   0  0  0  0  0  1  0  0  0  0  0  0
  181.8770  176.5460  139.1470 C   0  0  1  0  0  3  0  0  0  0  0  0
  189.4200  176.8980  144.7620 C   0  0  0  0  0  2  0  0  0  0  0  0
  189.6910  177.8360  145.9240 C   0  0  0  0  0  2  0  0  0  0  0  0
  189.7720  177.0370  147.2080 C   0  0  0  0  0  1  0  0  0  0  0  0
  2 20  1  6  0  0  0
  2  6  1  0  0  0  0
  3  8  1  0  0  0  0
  4  3  2  0  0  0  0
  5 13  1  0  0  0  0
  5 14  2  0  0  0  0
  6  9  2  0  0  0  0
  6 14  1  0  0  0  0
  7  1  2  0  0  0  0
 10  9  1  0  0  0  0
 10  8  2  0  0  0  0
 11 18  1  0  0  0  0
 12 13  2  0  0  0  0
 13 16  1  0  0  0  0
 14  7  1  0  0  0  0
 15  5  1  0  0  0  0
 16  1  1  0  0  0  0
 16 30  1  0  0  0  0
 17 18  2  0  0  0  0
 17  4  1  0  0  0  0
 18 10  1  0  0  0  0
 19  2  1  0  0  0  0
 19 15  2  0  0  0  0
 20 11  2  0  0  0  0
 21 22  1  0  0  0  0
 21 26  2  0  0  0  0
 22 25  1  0  0  0  0
 23 28  1  1  0  0  0
 25 24  1  1  0  0  0
 25 23  1  0  0  0  0
 26 29  1  0  0  0  0
 27 21  1  0  0  0  0
 29 23  1  0  0  0  0
 29 11  1  1  0  0  0
 30 31  1  0  0  0  0
 31 32  1  0  0  0  0
M  END
>  <MODEL>
9

>  <REMARK>
 VINA RESULT:      -6.8      5.863      7.880
  Name = 
  3 active torsions:
  status: ('A' for Active; 'I' for Inactive)
    1  A    between atoms: C_1  and  C_10
    2  A    between atoms: C_10  and  N_24
    3  A    between atoms: C_16  and  C_32
                            x       y       z     vdW  Elec       q    Type
                         _______ _______ _______ _____ _____    ______ ____

>  <TORSDO>
F 3

$$$$
