=
 OpenBabel11052412263D

 30 33  0  0  1  0  0  0  0  0999 V2000
  187.4080  177.5680  144.0720 C   0  0  1  0  0  0  0  0  0  0  0  0
  188.8310  177.3300  144.6320 C   0  0  2  0  0  3  0  0  0  0  0  0
  187.1600  178.6740  147.7550 C   0  0  0  0  0  2  0  0  0  0  0  0
  184.5020  178.9090  144.1470 C   0  0  1  0  0  3  0  0  0  0  0  0
  187.4920  178.1380  146.3870 C   0  0  0  0  0  0  0  0  0  0  0  0
  189.6840  177.2120  147.1390 C   0  0  0  0  0  2  0  0  0  0  0  0
  184.8120  178.3010  142.8170 C   0  0  1  0  0  3  0  0  0  0  0  0
  188.6700  177.5930  146.0930 C   0  0  0  0  0  0  0  0  0  0  0  0
  186.7280  178.4440  145.1500 C   0  0  2  0  0  3  0  0  0  0  0  0
  183.5400  178.6070  142.0540 C   0  0  0  0  0  2  0  0  0  0  0  0
  183.0110  178.7270  144.2550 C   0  0  0  0  0  2  0  0  0  0  0  0
  189.4870  178.0210  148.4230 C   0  0  0  0  0  2  0  0  0  0  0  0
  188.0150  178.0080  148.8350 C   0  0  0  0  0  2  0  0  0  0  0  0
  187.3860  178.2310  142.6800 C   0  0  0  0  0  2  0  0  0  0  0  0
  186.0930  178.9400  142.2370 C   0  0  1  0  0  3  0  0  0  0  0  0
  182.4620  178.6610  142.9600 O   0  0  0  0  0  0  0  0  0  0  0  0
  186.7670  176.1850  143.9540 C   0  0  0  0  0  1  0  0  0  0  0  0
  185.2250  178.2130  145.2900 C   0  0  0  0  0  2  0  0  0  0  0  0
  186.1050  178.9990  140.7400 C   0  0  0  0  0  3  0  0  0  0  0  0
  187.0770  178.6140  140.1120 O   0  0  0  0  0  0  0  0  0  0  0  0
  189.8900  178.2820  144.0730 C   0  0  0  0  0  2  0  0  0  0  0  0
  191.2820  177.6910  144.2410 C   0  0  0  0  0  2  0  0  0  0  0  0
  191.6120  176.7250  143.1150 C   0  0  0  0  0  2  0  0  0  0  0  0
  191.5100  177.4270  141.7700 C   0  0  0  0  0  2  0  0  0  0  0  0
  190.5150  176.7120  140.8750 C   0  0  0  0  0  2  0  0  0  0  0  0
  190.1990  177.5520  139.6500 C   0  0  0  0  0  2  0  0  0  0  0  0
  189.6320  177.1760  137.1970 N   0  0  0  0  0  2  0  0  0  0  0  0
  189.1480  178.5380  137.0330 C   0  0  0  0  0  1  0  0  0  0  0  0
  190.1290  176.6800  138.4410 C   0  0  0  0  0  0  0  0  0  0  0  0
  190.5410  175.4930  138.5120 O   0  0  0  0  0  0  0  0  0  0  0  0
  1 17  1  6  0  0  0
  1  2  1  0  0  0  0
  1  9  1  0  0  0  0
  2 21  1  6  0  0  0
  2  8  1  0  0  0  0
  3 13  1  0  0  0  0
  4 11  1  1  0  0  0
  4 18  1  0  0  0  0
  5  3  1  0  0  0  0
  6 12  1  0  0  0  0
  7 10  1  6  0  0  0
  7  4  1  0  0  0  0
  8  5  2  0  0  0  0
  8  6  1  0  0  0  0
  9 18  1  1  0  0  0
  9  5  1  0  0  0  0
 10 16  1  0  0  0  0
 12 13  1  0  0  0  0
 14  1  1  0  0  0  0
 15 19  1  6  0  0  0
 15 14  1  0  0  0  0
 15  7  1  0  0  0  0
 16 11  1  0  0  0  0
 20 19  2  0  0  0  0
 21 22  1  0  0  0  0
 23 22  1  0  0  0  0
 24 23  1  0  0  0  0
 25 24  1  0  0  0  0
 26 25  1  0  0  0  0
 27 29  1  0  0  0  0
 28 27  1  0  0  0  0
 29 30  2  0  0  0  0
 29 26  1  0  0  0  0
M  END
>  <MODEL>
1

>  <REMARK>
 VINA RESULT:      -8.9      0.000      0.000
  Name = 
  8 active torsions:
  status: ('A' for Active; 'I' for Inactive)
    1  A    between atoms: C_1  and  C_5
    2  A    between atoms: C_1  and  C_22
    3  A    between atoms: C_2  and  C_18
    4  A    between atoms: C_2  and  C_22
    5  A    between atoms: C_11  and  C_25
    6  A    between atoms: C_14  and  C_18
    7  A    between atoms: C_14  and  C_20
    8  A    between atoms: C_20  and  C_28
                            x       y       z     vdW  Elec       q    Type
                         _______ _______ _______ _____ _____    ______ ____

>  <TORSDO>
F 8

$$$$
=
 OpenBabel11052412263D

 30 33  0  0  1  0  0  0  0  0999 V2000
  187.3980  177.5270  144.0480 C   0  0  1  0  0  0  0  0  0  0  0  0
  188.8380  177.2590  144.5500 C   0  0  2  0  0  3  0  0  0  0  0  0
  187.3180  178.6210  147.7420 C   0  0  0  0  0  2  0  0  0  0  0  0
  184.5240  178.9220  144.2440 C   0  0  1  0  0  3  0  0  0  0  0  0
  187.5860  178.0850  146.3600 C   0  0  0  0  0  0  0  0  0  0  0  0
  189.7870  177.1140  147.0200 C   0  0  0  0  0  2  0  0  0  0  0  0
  184.7690  178.3150  142.8990 C   0  0  1  0  0  3  0  0  0  0  0  0
  188.7400  177.5190  146.0160 C   0  0  0  0  0  0  0  0  0  0  0  0
  186.7780  178.4110  145.1550 C   0  0  2  0  0  3  0  0  0  0  0  0
  183.4740  178.6490  142.1890 C   0  0  0  0  0  2  0  0  0  0  0  0
  183.0350  178.7690  144.4090 C   0  0  0  0  0  2  0  0  0  0  0  0
  189.6580  177.9210  148.3140 C   0  0  0  0  0  2  0  0  0  0  0  0
  188.2030  177.9340  148.7840 C   0  0  0  0  0  2  0  0  0  0  0  0
  187.3340  178.1970  142.6600 C   0  0  0  0  0  2  0  0  0  0  0  0
  186.0380  178.9320  142.2710 C   0  0  1  0  0  3  0  0  0  0  0  0
  182.4340  178.7180  143.1370 O   0  0  0  0  0  0  0  0  0  0  0  0
  186.7270  176.1570  143.9500 C   0  0  0  0  0  1  0  0  0  0  0  0
  185.2790  178.2080  145.3540 C   0  0  0  0  0  2  0  0  0  0  0  0
  185.9920  178.9980  140.7750 C   0  0  0  0  0  3  0  0  0  0  0  0
  186.9360  178.6090  140.1080 O   0  0  0  0  0  0  0  0  0  0  0  0
  189.8920  178.1940  143.9520 C   0  0  0  0  0  2  0  0  0  0  0  0
  191.0590  177.3940  143.3910 C   0  0  0  0  0  2  0  0  0  0  0  0
  190.5730  176.2220  142.5540 C   0  0  0  0  0  2  0  0  0  0  0  0
  190.1710  176.6950  141.1660 C   0  0  0  0  0  2  0  0  0  0  0  0
  191.3410  177.3740  140.4780 C   0  0  0  0  0  2  0  0  0  0  0  0
  191.6270  176.7170  139.1400 C   0  0  0  0  0  2  0  0  0  0  0  0
  193.5930  176.4520  137.5450 N   0  0  0  0  0  2  0  0  0  0  0  0
  192.7410  175.9660  136.4710 C   0  0  0  0  0  1  0  0  0  0  0  0
  193.0840  176.8070  138.8320 C   0  0  0  0  0  0  0  0  0  0  0  0
  193.8750  177.2310  139.7130 O   0  0  0  0  0  0  0  0  0  0  0  0
  1 17  1  6  0  0  0
  1  2  1  0  0  0  0
  1  9  1  0  0  0  0
  2 21  1  6  0  0  0
  2  8  1  0  0  0  0
  3 13  1  0  0  0  0
  4 11  1  1  0  0  0
  4 18  1  0  0  0  0
  5  3  1  0  0  0  0
  6 12  1  0  0  0  0
  7 10  1  6  0  0  0
  7  4  1  0  0  0  0
  8  5  2  0  0  0  0
  8  6  1  0  0  0  0
  9 18  1  1  0  0  0
  9  5  1  0  0  0  0
 10 16  1  0  0  0  0
 12 13  1  0  0  0  0
 14  1  1  0  0  0  0
 15 19  1  6  0  0  0
 15 14  1  0  0  0  0
 15  7  1  0  0  0  0
 16 11  1  0  0  0  0
 20 19  2  0  0  0  0
 22 21  1  0  0  0  0
 23 22  1  0  0  0  0
 24 23  1  0  0  0  0
 25 24  1  0  0  0  0
 26 25  1  0  0  0  0
 27 29  1  0  0  0  0
 28 27  1  0  0  0  0
 29 26  1  0  0  0  0
 29 30  2  0  0  0  0
M  END
>  <MODEL>
2

>  <REMARK>
 VINA RESULT:      -8.9      1.404      1.533
  Name = 
  8 active torsions:
  status: ('A' for Active; 'I' for Inactive)
    1  A    between atoms: C_1  and  C_5
    2  A    between atoms: C_1  and  C_22
    3  A    between atoms: C_2  and  C_18
    4  A    between atoms: C_2  and  C_22
    5  A    between atoms: C_11  and  C_25
    6  A    between atoms: C_14  and  C_18
    7  A    between atoms: C_14  and  C_20
    8  A    between atoms: C_20  and  C_28
                            x       y       z     vdW  Elec       q    Type
                         _______ _______ _______ _____ _____    ______ ____

>  <TORSDO>
F 8

$$$$
=
 OpenBabel11052412263D

 30 33  0  0  1  0  0  0  0  0999 V2000
  187.8040  177.5130  143.9730 C   0  0  1  0  0  0  0  0  0  0  0  0
  186.9420  177.6010  145.2560 C   0  0  2  0  0  3  0  0  0  0  0  0
  184.5510  179.2110  142.7970 C   0  0  0  0  0  2  0  0  0  0  0  0
  188.5740  178.3830  140.9890 C   0  0  1  0  0  3  0  0  0  0  0  0
  185.6870  178.4950  143.4810 C   0  0  0  0  0  0  0  0  0  0  0  0
  184.3490  178.0680  145.5430 C   0  0  0  0  0  2  0  0  0  0  0  0
  189.6640  177.6010  141.6520 C   0  0  1  0  0  3  0  0  0  0  0  0
  185.6280  178.0940  144.7480 C   0  0  0  0  0  0  0  0  0  0  0  0
  187.0850  178.4540  142.9780 C   0  0  2  0  0  3  0  0  0  0  0  0
  190.7050  177.5660  140.5520 C   0  0  0  0  0  2  0  0  0  0  0  0
  188.7220  177.9970  139.5420 C   0  0  0  0  0  2  0  0  0  0  0  0
  183.3240  179.0540  144.9790 C   0  0  0  0  0  2  0  0  0  0  0  0
  183.2120  178.8900  143.4630 C   0  0  0  0  0  2  0  0  0  0  0  0
  189.2810  177.9040  144.1840 C   0  0  0  0  0  2  0  0  0  0  0  0
  190.1040  178.3150  142.9480 C   0  0  1  0  0  3  0  0  0  0  0  0
  190.0560  177.6150  139.3030 O   0  0  0  0  0  0  0  0  0  0  0  0
  187.7540  176.0500  143.5330 C   0  0  0  0  0  1  0  0  0  0  0  0
  187.1940  178.0230  141.5170 C   0  0  0  0  0  2  0  0  0  0  0  0
  191.5490  178.1050  143.2830 C   0  0  0  0  0  3  0  0  0  0  0  0
  192.1020  178.8050  144.1150 O   0  0  0  0  0  0  0  0  0  0  0  0
  187.4710  178.5880  146.2970 C   0  0  0  0  0  2  0  0  0  0  0  0
  186.9320  178.2470  147.6790 C   0  0  0  0  0  2  0  0  0  0  0  0
  188.0440  177.7880  148.6080 C   0  0  0  0  0  2  0  0  0  0  0  0
  189.3990  177.9770  147.9440 C   0  0  0  0  0  2  0  0  0  0  0  0
  189.9550  176.6410  147.4860 C   0  0  0  0  0  2  0  0  0  0  0  0
  191.2640  176.8350  146.7430 C   0  0  0  0  0  2  0  0  0  0  0  0
  192.5950  174.7660  146.0860 N   0  0  0  0  0  2  0  0  0  0  0  0
  192.0960  174.8000  144.7200 C   0  0  0  0  0  1  0  0  0  0  0  0
  192.2030  175.7230  147.0720 C   0  0  0  0  0  0  0  0  0  0  0  0
  192.6800  175.6430  148.2340 O   0  0  0  0  0  0  0  0  0  0  0  0
  1 17  1  6  0  0  0
  1 14  1  0  0  0  0
  1  2  1  0  0  0  0
  2 21  1  1  0  0  0
  3 13  1  0  0  0  0
  3  5  1  0  0  0  0
  4 11  1  6  0  0  0
  4 18  1  0  0  0  0
  4  7  1  0  0  0  0
  5  8  2  0  0  0  0
  7 10  1  6  0  0  0
  7 15  1  0  0  0  0
  8  2  1  0  0  0  0
  8  6  1  0  0  0  0
  9 18  1  6  0  0  0
  9  5  1  0  0  0  0
  9  1  1  0  0  0  0
 12  6  1  0  0  0  0
 13 12  1  0  0  0  0
 15 19  1  1  0  0  0
 15 14  1  0  0  0  0
 16 11  1  0  0  0  0
 16 10  1  0  0  0  0
 19 20  2  0  0  0  0
 21 22  1  0  0  0  0
 22 23  1  0  0  0  0
 24 23  1  0  0  0  0
 25 24  1  0  0  0  0
 26 29  1  0  0  0  0
 26 25  1  0  0  0  0
 27 29  1  0  0  0  0
 28 27  1  0  0  0  0
 29 30  2  0  0  0  0
M  END
>  <MODEL>
3

>  <REMARK>
 VINA RESULT:      -8.7      3.054      6.146
  Name = 
  8 active torsions:
  status: ('A' for Active; 'I' for Inactive)
    1  A    between atoms: C_1  and  C_5
    2  A    between atoms: C_1  and  C_22
    3  A    between atoms: C_2  and  C_18
    4  A    between atoms: C_2  and  C_22
    5  A    between atoms: C_11  and  C_25
    6  A    between atoms: C_14  and  C_18
    7  A    between atoms: C_14  and  C_20
    8  A    between atoms: C_20  and  C_28
                            x       y       z     vdW  Elec       q    Type
                         _______ _______ _______ _____ _____    ______ ____

>  <TORSDO>
F 8

$$$$
=
 OpenBabel11052412263D

 30 33  0  0  1  0  0  0  0  0999 V2000
  189.4700  178.0100  143.9800 C   0  0  1  0  0  0  0  0  0  0  0  0
  189.2710  177.9830  145.5150 C   0  0  2  0  0  3  0  0  0  0  0  0
  191.9150  175.2880  145.1890 C   0  0  0  0  0  2  0  0  0  0  0  0
  190.4390  176.7370  141.2070 C   0  0  1  0  0  3  0  0  0  0  0  0
  190.9370  176.4140  144.9760 C   0  0  0  0  0  0  0  0  0  0  0  0
  190.7810  176.9170  147.4150 C   0  0  0  0  0  2  0  0  0  0  0  0
  189.5310  177.9090  141.0070 C   0  0  1  0  0  3  0  0  0  0  0  0
  190.3450  177.0560  145.9800 C   0  0  0  0  0  0  0  0  0  0  0  0
  190.2630  176.7150  143.6860 C   0  0  2  0  0  3  0  0  0  0  0  0
  189.4720  177.9750  139.4950 C   0  0  0  0  0  2  0  0  0  0  0  0
  191.3510  176.8170  140.0110 C   0  0  0  0  0  2  0  0  0  0  0  0
  191.5120  175.5920  147.6460 C   0  0  0  0  0  2  0  0  0  0  0  0
  192.5740  175.3800  146.5670 C   0  0  0  0  0  2  0  0  0  0  0  0
  188.1540  178.0850  143.1800 C   0  0  0  0  0  2  0  0  0  0  0  0
  188.1780  177.6450  141.7040 C   0  0  1  0  0  3  0  0  0  0  0  0
  190.6790  177.4780  138.9650 O   0  0  0  0  0  0  0  0  0  0  0  0
  190.2820  179.2720  143.6850 C   0  0  0  0  0  1  0  0  0  0  0  0
  191.2250  176.8230  142.5060 C   0  0  0  0  0  2  0  0  0  0  0  0
  187.0170  178.3020  141.0220 C   0  0  0  0  0  3  0  0  0  0  0  0
  186.6970  179.4450  141.3040 O   0  0  0  0  0  0  0  0  0  0  0  0
  187.9160  177.4290  145.9590 C   0  0  0  0  0  2  0  0  0  0  0  0
  187.4780  178.0760  147.2660 C   0  0  0  0  0  2  0  0  0  0  0  0
  186.1250  178.7540  147.1210 C   0  0  0  0  0  2  0  0  0  0  0  0
  185.3330  178.1160  145.9910 C   0  0  0  0  0  2  0  0  0  0  0  0
  184.9420  179.1610  144.9620 C   0  0  0  0  0  2  0  0  0  0  0  0
  184.5080  178.4980  143.6670 C   0  0  0  0  0  2  0  0  0  0  0  0
  182.4870  178.7470  142.1390 N   0  0  0  0  0  2  0  0  0  0  0  0
  183.2960  178.6010  140.9380 C   0  0  0  0  0  1  0  0  0  0  0  0
  183.0470  178.7120  143.4530 C   0  0  0  0  0  0  0  0  0  0  0  0
  182.2900  178.8340  144.4500 O   0  0  0  0  0  0  0  0  0  0  0  0
  1 17  1  6  0  0  0
  1  2  1  0  0  0  0
  2 21  1  6  0  0  0
  2  8  1  0  0  0  0
  3 13  1  0  0  0  0
  4 11  1  6  0  0  0
  4 18  1  0  0  0  0
  5  3  1  0  0  0  0
  5  8  2  0  0  0  0
  6 12  1  0  0  0  0
  7 10  1  6  0  0  0
  7  4  1  0  0  0  0
  7 15  1  0  0  0  0
  8  6  1  0  0  0  0
  9 18  1  6  0  0  0
  9  1  1  0  0  0  0
  9  5  1  0  0  0  0
 13 12  1  0  0  0  0
 14  1  1  0  0  0  0
 15 19  1  6  0  0  0
 15 14  1  0  0  0  0
 16 10  1  0  0  0  0
 16 11  1  0  0  0  0
 19 20  2  0  0  0  0
 21 22  1  0  0  0  0
 23 22  1  0  0  0  0
 24 23  1  0  0  0  0
 25 24  1  0  0  0  0
 26 25  1  0  0  0  0
 27 29  1  0  0  0  0
 28 27  1  0  0  0  0
 29 26  1  0  0  0  0
 29 30  2  0  0  0  0
M  END
>  <MODEL>
4

>  <REMARK>
 VINA RESULT:      -8.4      2.140      5.953
  Name = 
  8 active torsions:
  status: ('A' for Active; 'I' for Inactive)
    1  A    between atoms: C_1  and  C_5
    2  A    between atoms: C_1  and  C_22
    3  A    between atoms: C_2  and  C_18
    4  A    between atoms: C_2  and  C_22
    5  A    between atoms: C_11  and  C_25
    6  A    between atoms: C_14  and  C_18
    7  A    between atoms: C_14  and  C_20
    8  A    between atoms: C_20  and  C_28
                            x       y       z     vdW  Elec       q    Type
                         _______ _______ _______ _____ _____    ______ ____

>  <TORSDO>
F 8

$$$$
=
 OpenBabel11052412263D

 30 33  0  0  1  0  0  0  0  0999 V2000
  187.9400  177.3030  143.6140 C   0  0  1  0  0  0  0  0  0  0  0  0
  189.4470  176.9520  143.5680 C   0  0  2  0  0  3  0  0  0  0  0  0
  189.1550  177.9350  147.2150 C   0  0  0  0  0  2  0  0  0  0  0  0
  185.3790  178.7110  144.9190 C   0  0  1  0  0  3  0  0  0  0  0  0
  188.9170  177.5690  145.7740 C   0  0  0  0  0  0  0  0  0  0  0  0
  191.1540  176.4880  145.5420 C   0  0  0  0  0  2  0  0  0  0  0  0
  185.1280  178.2690  143.5130 C   0  0  1  0  0  3  0  0  0  0  0  0
  189.8580  177.0310  145.0010 C   0  0  0  0  0  0  0  0  0  0  0  0
  187.7750  178.0540  144.9560 C   0  0  2  0  0  3  0  0  0  0  0  0
  183.6920  178.7100  143.3220 C   0  0  0  0  0  2  0  0  0  0  0  0
  184.0240  178.5630  145.5590 C   0  0  0  0  0  2  0  0  0  0  0  0
  191.5080  177.1320  146.8850 C   0  0  0  0  0  2  0  0  0  0  0  0
  190.2960  177.1120  147.8160 C   0  0  0  0  0  2  0  0  0  0  0  0
  187.4560  178.1390  142.4110 C   0  0  0  0  0  2  0  0  0  0  0  0
  186.1480  178.9380  142.5660 C   0  0  1  0  0  3  0  0  0  0  0  0
  183.0320  178.6790  144.5670 O   0  0  0  0  0  0  0  0  0  0  0  0
  187.1970  175.9670  143.5980 C   0  0  0  0  0  1  0  0  0  0  0  0
  186.4180  177.8530  145.6240 C   0  0  0  0  0  2  0  0  0  0  0  0
  185.6110  179.1880  141.1900 C   0  0  0  0  0  3  0  0  0  0  0  0
  186.2970  178.9650  140.2060 O   0  0  0  0  0  0  0  0  0  0  0  0
  190.2930  177.9350  142.7570 C   0  0  0  0  0  2  0  0  0  0  0  0
  191.5440  177.2510  142.2260 C   0  0  0  0  0  2  0  0  0  0  0  0
  191.5790  177.2650  140.7060 C   0  0  0  0  0  2  0  0  0  0  0  0
  190.2400  176.8130  140.1430 C   0  0  0  0  0  2  0  0  0  0  0  0
  189.6200  177.9150  139.3060 C   0  0  0  0  0  2  0  0  0  0  0  0
  189.3570  177.4280  137.8920 C   0  0  0  0  0  2  0  0  0  0  0  0
  187.0000  177.4240  136.9300 N   0  0  0  0  0  2  0  0  0  0  0  0
  186.8880  175.9780  137.0380 C   0  0  0  0  0  1  0  0  0  0  0  0
  188.1750  178.1370  137.3220 C   0  0  0  0  0  0  0  0  0  0  0  0
  188.2020  179.3900  137.2120 O   0  0  0  0  0  0  0  0  0  0  0  0
  1 17  1  1  0  0  0
  1  9  1  0  0  0  0
  2 21  1  6  0  0  0
  2  1  1  0  0  0  0
  2  8  1  0  0  0  0
  3 13  1  0  0  0  0
  4 11  1  1  0  0  0
  4 18  1  0  0  0  0
  5  3  1  0  0  0  0
  6 12  1  0  0  0  0
  7 10  1  6  0  0  0
  7  4  1  0  0  0  0
  8  6  1  0  0  0  0
  8  5  2  0  0  0  0
  9 18  1  1  0  0  0
  9  5  1  0  0  0  0
 10 16  1  0  0  0  0
 12 13  1  0  0  0  0
 14 15  1  0  0  0  0
 14  1  1  0  0  0  0
 15 19  1  6  0  0  0
 15  7  1  0  0  0  0
 16 11  1  0  0  0  0
 20 19  2  0  0  0  0
 22 21  1  0  0  0  0
 23 22  1  0  0  0  0
 24 23  1  0  0  0  0
 25 24  1  0  0  0  0
 26 25  1  0  0  0  0
 27 28  1  0  0  0  0
 27 29  1  0  0  0  0
 29 26  1  0  0  0  0
 30 29  2  0  0  0  0
M  END
>  <MODEL>
5

>  <REMARK>
 VINA RESULT:      -8.2      1.473      2.001
  Name = 
  8 active torsions:
  status: ('A' for Active; 'I' for Inactive)
    1  A    between atoms: C_1  and  C_5
    2  A    between atoms: C_1  and  C_22
    3  A    between atoms: C_2  and  C_18
    4  A    between atoms: C_2  and  C_22
    5  A    between atoms: C_11  and  C_25
    6  A    between atoms: C_14  and  C_18
    7  A    between atoms: C_14  and  C_20
    8  A    between atoms: C_20  and  C_28
                            x       y       z     vdW  Elec       q    Type
                         _______ _______ _______ _____ _____    ______ ____

>  <TORSDO>
F 8

$$$$
=
 OpenBabel11052412263D

 30 33  0  0  1  0  0  0  0  0999 V2000
  188.0240  177.2100  143.5590 C   0  0  1  0  0  0  0  0  0  0  0  0
  189.5200  176.8170  143.4910 C   0  0  2  0  0  3  0  0  0  0  0  0
  189.3330  177.8970  147.1170 C   0  0  0  0  0  2  0  0  0  0  0  0
  185.5300  178.7190  144.8820 C   0  0  1  0  0  3  0  0  0  0  0  0
  189.0550  177.5020  145.6900 C   0  0  0  0  0  0  0  0  0  0  0  0
  191.2560  176.3550  145.4400 C   0  0  0  0  0  2  0  0  0  0  0  0
  185.2380  178.2500  143.4920 C   0  0  1  0  0  3  0  0  0  0  0  0
  189.9630  176.9200  144.9120 C   0  0  0  0  0  0  0  0  0  0  0  0
  187.9090  177.9980  144.8850 C   0  0  2  0  0  3  0  0  0  0  0  0
  183.8100  178.7250  143.3210 C   0  0  0  0  0  2  0  0  0  0  0  0
  184.1860  178.6240  145.5540 C   0  0  0  0  0  2  0  0  0  0  0  0
  191.6560  177.0220  146.7580 C   0  0  0  0  0  2  0  0  0  0  0  0
  190.4640  177.0570  147.7140 C   0  0  0  0  0  2  0  0  0  0  0  0
  187.5370  178.0290  142.3460 C   0  0  0  0  0  2  0  0  0  0  0  0
  186.2550  178.8680  142.5080 C   0  0  1  0  0  3  0  0  0  0  0  0
  183.1770  178.7430  144.5790 O   0  0  0  0  0  0  0  0  0  0  0  0
  187.2460  175.8940  143.5920 C   0  0  0  0  0  1  0  0  0  0  0  0
  186.5610  177.8510  145.5860 C   0  0  0  0  0  2  0  0  0  0  0  0
  185.6950  179.0980  141.1370 C   0  0  0  0  0  3  0  0  0  0  0  0
  186.3600  178.8470  140.1460 O   0  0  0  0  0  0  0  0  0  0  0  0
  190.3750  177.7570  142.6380 C   0  0  0  0  0  2  0  0  0  0  0  0
  190.9240  177.0230  141.4230 C   0  0  0  0  0  2  0  0  0  0  0  0
  190.5040  177.7030  140.1300 C   0  0  0  0  0  2  0  0  0  0  0  0
  189.7210  176.7360  139.2550 C   0  0  0  0  0  2  0  0  0  0  0  0
  190.2850  176.7220  137.8470 C   0  0  0  0  0  2  0  0  0  0  0  0
  191.7420  176.2970  137.8590 C   0  0  0  0  0  2  0  0  0  0  0  0
  193.1110  174.1670  137.5890 N   0  0  0  0  0  2  0  0  0  0  0  0
  194.3690  174.8760  137.7610 C   0  0  0  0  0  1  0  0  0  0  0  0
  191.8440  174.8270  137.6220 C   0  0  0  0  0  0  0  0  0  0  0  0
  190.7920  174.1520  137.4760 O   0  0  0  0  0  0  0  0  0  0  0  0
  1 17  1  1  0  0  0
  1  9  1  0  0  0  0
  2 21  1  6  0  0  0
  2  1  1  0  0  0  0
  2  8  1  0  0  0  0
  3 13  1  0  0  0  0
  4 11  1  1  0  0  0
  4 18  1  0  0  0  0
  5  3  1  0  0  0  0
  6 12  1  0  0  0  0
  7 10  1  6  0  0  0
  7  4  1  0  0  0  0
  8  6  1  0  0  0  0
  8  5  2  0  0  0  0
  9 18  1  1  0  0  0
  9  5  1  0  0  0  0
 10 16  1  0  0  0  0
 12 13  1  0  0  0  0
 14 15  1  0  0  0  0
 14  1  1  0  0  0  0
 15 19  1  6  0  0  0
 15  7  1  0  0  0  0
 16 11  1  0  0  0  0
 20 19  2  0  0  0  0
 22 21  1  0  0  0  0
 23 22  1  0  0  0  0
 24 23  1  0  0  0  0
 25 26  1  0  0  0  0
 25 24  1  0  0  0  0
 27 29  1  0  0  0  0
 27 28  1  0  0  0  0
 29 26  1  0  0  0  0
 30 29  2  0  0  0  0
M  END
>  <MODEL>
6

>  <REMARK>
 VINA RESULT:      -7.8      1.673      2.413
  Name = 
  8 active torsions:
  status: ('A' for Active; 'I' for Inactive)
    1  A    between atoms: C_1  and  C_5
    2  A    between atoms: C_1  and  C_22
    3  A    between atoms: C_2  and  C_18
    4  A    between atoms: C_2  and  C_22
    5  A    between atoms: C_11  and  C_25
    6  A    between atoms: C_14  and  C_18
    7  A    between atoms: C_14  and  C_20
    8  A    between atoms: C_20  and  C_28
                            x       y       z     vdW  Elec       q    Type
                         _______ _______ _______ _____ _____    ______ ____

>  <TORSDO>
F 8

$$$$
=
 OpenBabel11052412263D

 30 33  0  0  1  0  0  0  0  0999 V2000
  187.6800  177.3700  143.3890 C   0  0  1  0  0  0  0  0  0  0  0  0
  187.0970  177.6690  141.9870 C   0  0  2  0  0  3  0  0  0  0  0  0
  190.7900  177.9510  141.1890 C   0  0  0  0  0  2  0  0  0  0  0  0
  190.0150  177.4310  145.5780 C   0  0  1  0  0  3  0  0  0  0  0  0
  189.4410  177.7170  141.8170 C   0  0  0  0  0  0  0  0  0  0  0  0
  188.2740  177.6760  139.6120 C   0  0  0  0  0  2  0  0  0  0  0  0
  188.6820  177.1180  146.1790 C   0  0  1  0  0  3  0  0  0  0  0  0
  188.3090  177.7150  141.1170 C   0  0  0  0  0  0  0  0  0  0  0  0
  189.1610  177.8030  143.2740 C   0  0  2  0  0  3  0  0  0  0  0  0
  189.0520  176.9600  147.6390 C   0  0  0  0  0  2  0  0  0  0  0  0
  190.9640  176.6620  146.4590 C   0  0  0  0  0  2  0  0  0  0  0  0
  189.5720  178.2220  139.0120 C   0  0  0  0  0  2  0  0  0  0  0  0
  190.7800  177.5880  139.7030 C   0  0  0  0  0  2  0  0  0  0  0  0
  186.9470  178.0910  144.5380 C   0  0  0  0  0  2  0  0  0  0  0  0
  187.6920  178.2640  145.8760 C   0  0  1  0  0  3  0  0  0  0  0  0
  190.3800  176.4990  147.7300 O   0  0  0  0  0  0  0  0  0  0  0  0
  187.5270  175.8630  143.5940 C   0  0  0  0  0  1  0  0  0  0  0  0
  190.1220  176.9810  144.1290 C   0  0  0  0  0  2  0  0  0  0  0  0
  186.6570  178.4560  146.9420 C   0  0  0  0  0  3  0  0  0  0  0  0
  186.0900  179.5280  147.0700 O   0  0  0  0  0  0  0  0  0  0  0  0
  186.3670  179.0100  141.8870 C   0  0  0  0  0  2  0  0  0  0  0  0
  185.0190  178.8340  141.2020 C   0  0  0  0  0  2  0  0  0  0  0  0
  184.0150  178.1590  142.1230 C   0  0  0  0  0  2  0  0  0  0  0  0
  183.7410  179.0340  143.3370 C   0  0  0  0  0  2  0  0  0  0  0  0
  182.4160  178.6570  143.9730 C   0  0  0  0  0  2  0  0  0  0  0  0
  181.2580  179.1910  143.1490 C   0  0  0  0  0  2  0  0  0  0  0  0
  179.6620  177.4970  142.1160 N   0  0  0  0  0  2  0  0  0  0  0  0
  180.3010  177.5920  140.8130 C   0  0  0  0  0  1  0  0  0  0  0  0
  180.0960  178.2590  143.2440 C   0  0  0  0  0  0  0  0  0  0  0  0
  179.5050  178.1220  144.3460 O   0  0  0  0  0  0  0  0  0  0  0  0
  1 17  1  1  0  0  0
  1 14  1  0  0  0  0
  2 21  1  1  0  0  0
  2  1  1  0  0  0  0
  3  5  1  0  0  0  0
  4 18  1  6  0  0  0
  4  7  1  0  0  0  0
  4 11  1  0  0  0  0
  5  9  1  0  0  0  0
  6  8  1  0  0  0  0
  7 10  1  1  0  0  0
  8  5  2  0  0  0  0
  8  2  1  0  0  0  0
  9  1  1  0  0  0  0
  9 18  1  1  0  0  0
 10 16  1  0  0  0  0
 11 16  1  0  0  0  0
 12  6  1  0  0  0  0
 12 13  1  0  0  0  0
 13  3  1  0  0  0  0
 14 15  1  0  0  0  0
 15  7  1  0  0  0  0
 15 19  1  1  0  0  0
 19 20  2  0  0  0  0
 22 21  1  0  0  0  0
 22 23  1  0  0  0  0
 23 24  1  0  0  0  0
 24 25  1  0  0  0  0
 26 29  1  0  0  0  0
 26 25  1  0  0  0  0
 27 29  1  0  0  0  0
 28 27  1  0  0  0  0
 29 30  2  0  0  0  0
M  END
>  <MODEL>
7

>  <REMARK>
 VINA RESULT:      -7.6      3.208      7.451
  Name = 
  8 active torsions:
  status: ('A' for Active; 'I' for Inactive)
    1  A    between atoms: C_1  and  C_5
    2  A    between atoms: C_1  and  C_22
    3  A    between atoms: C_2  and  C_18
    4  A    between atoms: C_2  and  C_22
    5  A    between atoms: C_11  and  C_25
    6  A    between atoms: C_14  and  C_18
    7  A    between atoms: C_14  and  C_20
    8  A    between atoms: C_20  and  C_28
                            x       y       z     vdW  Elec       q    Type
                         _______ _______ _______ _____ _____    ______ ____

>  <TORSDO>
F 8

$$$$
=
 OpenBabel11052412263D

 30 33  0  0  1  0  0  0  0  0999 V2000
  189.2910  177.8530  143.0020 C   0  0  1  0  0  0  0  0  0  0  0  0
  188.6000  178.1210  141.6430 C   0  0  2  0  0  3  0  0  0  0  0  0
  185.5470  178.0710  143.8870 C   0  0  0  0  0  2  0  0  0  0  0  0
  189.2970  176.9100  146.0610 C   0  0  1  0  0  3  0  0  0  0  0  0
  186.9360  178.0830  143.3030 C   0  0  0  0  0  0  0  0  0  0  0  0
  186.1500  178.9840  141.1130 C   0  0  0  0  0  2  0  0  0  0  0  0
  190.6770  177.0050  145.4940 C   0  0  1  0  0  3  0  0  0  0  0  0
  187.1810  178.3780  142.0290 C   0  0  0  0  0  0  0  0  0  0  0  0
  188.1250  177.4590  143.9390 C   0  0  2  0  0  3  0  0  0  0  0  0
  191.5100  176.5890  146.6880 C   0  0  0  0  0  2  0  0  0  0  0  0
  189.5090  177.2640  147.5090 C   0  0  0  0  0  2  0  0  0  0  0  0
  184.7300  178.6750  141.5930 C   0  0  0  0  0  2  0  0  0  0  0  0
  184.6020  178.9700  143.0880 C   0  0  0  0  0  2  0  0  0  0  0  0
  190.3860  176.7680  142.9420 C   0  0  0  0  0  2  0  0  0  0  0  0
  190.7980  176.0840  144.2600 C   0  0  1  0  0  3  0  0  0  0  0  0
  190.8330  176.9490  147.8700 O   0  0  0  0  0  0  0  0  0  0  0  0
  189.9460  179.1730  143.4070 C   0  0  0  0  0  1  0  0  0  0  0  0
  188.3250  177.8720  145.3950 C   0  0  0  0  0  2  0  0  0  0  0  0
  192.1750  175.5280  144.0630 C   0  0  0  0  0  3  0  0  0  0  0  0
  192.4200  174.3650  144.3370 O   0  0  0  0  0  0  0  0  0  0  0  0
  188.6410  176.9360  140.6760 C   0  0  0  0  0  2  0  0  0  0  0  0
  189.5000  177.2660  139.4640 C   0  0  0  0  0  2  0  0  0  0  0  0
  189.0530  178.5620  138.8060 C   0  0  0  0  0  2  0  0  0  0  0  0
  189.0780  178.4200  137.2910 C   0  0  0  0  0  2  0  0  0  0  0  0
  187.7480  178.8460  136.6990 C   0  0  0  0  0  2  0  0  0  0  0  0
  186.6250  177.9720  137.2270 C   0  0  0  0  0  2  0  0  0  0  0  0
  186.5500  175.6750  136.1310 N   0  0  0  0  0  2  0  0  0  0  0  0
  187.4430  175.1000  137.1250 C   0  0  0  0  0  1  0  0  0  0  0  0
  186.1540  177.0470  136.1540 C   0  0  0  0  0  0  0  0  0  0  0  0
  185.3700  177.4790  135.2700 O   0  0  0  0  0  0  0  0  0  0  0  0
  1 17  1  1  0  0  0
  1  9  1  0  0  0  0
  2 21  1  6  0  0  0
  2  8  1  0  0  0  0
  2  1  1  0  0  0  0
  4 18  1  6  0  0  0
  4 11  1  0  0  0  0
  5  3  1  0  0  0  0
  5  9  1  0  0  0  0
  6 12  1  0  0  0  0
  6  8  1  0  0  0  0
  7  4  1  0  0  0  0
  7 10  1  1  0  0  0
  8  5  2  0  0  0  0
  9 18  1  1  0  0  0
 10 16  1  0  0  0  0
 11 16  1  0  0  0  0
 12 13  1  0  0  0  0
 13  3  1  0  0  0  0
 14  1  1  0  0  0  0
 14 15  1  0  0  0  0
 15 19  1  6  0  0  0
 15  7  1  0  0  0  0
 19 20  2  0  0  0  0
 22 21  1  0  0  0  0
 23 22  1  0  0  0  0
 24 23  1  0  0  0  0
 25 26  1  0  0  0  0
 25 24  1  0  0  0  0
 27 29  1  0  0  0  0
 27 28  1  0  0  0  0
 29 26  1  0  0  0  0
 30 29  2  0  0  0  0
M  END
>  <MODEL>
8

>  <REMARK>
 VINA RESULT:      -7.4      2.719      5.722
  Name = 
  8 active torsions:
  status: ('A' for Active; 'I' for Inactive)
    1  A    between atoms: C_1  and  C_5
    2  A    between atoms: C_1  and  C_22
    3  A    between atoms: C_2  and  C_18
    4  A    between atoms: C_2  and  C_22
    5  A    between atoms: C_11  and  C_25
    6  A    between atoms: C_14  and  C_18
    7  A    between atoms: C_14  and  C_20
    8  A    between atoms: C_20  and  C_28
                            x       y       z     vdW  Elec       q    Type
                         _______ _______ _______ _____ _____    ______ ____

>  <TORSDO>
F 8

$$$$
=
 OpenBabel11052412263D

 30 33  0  0  1  0  0  0  0  0999 V2000
  188.6010  177.1370  143.3890 C   0  0  1  0  0  0  0  0  0  0  0  0
  187.9290  177.5130  142.0460 C   0  0  2  0  0  3  0  0  0  0  0  0
  191.5500  177.4620  140.9300 C   0  0  0  0  0  2  0  0  0  0  0  0
  191.1120  176.9410  145.3650 C   0  0  1  0  0  3  0  0  0  0  0  0
  190.2440  177.3440  141.6720 C   0  0  0  0  0  0  0  0  0  0  0  0
  188.8930  177.4510  139.5770 C   0  0  0  0  0  2  0  0  0  0  0  0
  189.8110  176.7440  146.0780 C   0  0  1  0  0  3  0  0  0  0  0  0
  189.0610  177.4600  141.0740 C   0  0  0  0  0  0  0  0  0  0  0  0
  190.1000  177.4310  143.1490 C   0  0  2  0  0  3  0  0  0  0  0  0
  190.2890  176.5270  147.4980 C   0  0  0  0  0  2  0  0  0  0  0  0
  192.0560  176.0710  146.1530 C   0  0  0  0  0  2  0  0  0  0  0  0
  190.1810  177.8830  138.8710 C   0  0  0  0  0  2  0  0  0  0  0  0
  191.3780  177.1270  139.4480 C   0  0  0  0  0  2  0  0  0  0  0  0
  188.0410  177.9040  144.6040 C   0  0  0  0  0  2  0  0  0  0  0  0
  188.9120  177.9830  145.8730 C   0  0  1  0  0  3  0  0  0  0  0  0
  191.5700  175.9410  147.4690 O   0  0  0  0  0  0  0  0  0  0  0  0
  188.3230  175.6470  143.5930 C   0  0  0  0  0  1  0  0  0  0  0  0
  191.0500  176.5080  143.9090 C   0  0  0  0  0  2  0  0  0  0  0  0
  187.9960  178.2530  147.0270 C   0  0  0  0  0  3  0  0  0  0  0  0
  186.8310  177.8900  146.9940 O   0  0  0  0  0  0  0  0  0  0  0  0
  187.3240  178.9180  142.0220 C   0  0  0  0  0  2  0  0  0  0  0  0
  185.8390  178.8540  141.6970 C   0  0  0  0  0  2  0  0  0  0  0  0
  184.9920  178.9900  142.9520 C   0  0  0  0  0  2  0  0  0  0  0  0
  183.5450  178.6280  142.6540 C   0  0  0  0  0  2  0  0  0  0  0  0
  183.4160  178.0840  141.2430 C   0  0  0  0  0  2  0  0  0  0  0  0
  182.5500  179.0000  140.3960 C   0  0  0  0  0  2  0  0  0  0  0  0
  182.8970  178.6400  137.9000 N   0  0  0  0  0  2  0  0  0  0  0  0
  181.8720  177.6100  137.8390 C   0  0  0  0  0  1  0  0  0  0  0  0
  183.2450  179.3100  139.1120 C   0  0  0  0  0  0  0  0  0  0  0  0
  184.1350  180.1990  139.0930 O   0  0  0  0  0  0  0  0  0  0  0  0
  1 17  1  1  0  0  0
  1 14  1  0  0  0  0
  2 21  1  1  0  0  0
  2  1  1  0  0  0  0
  3  5  1  0  0  0  0
  4 18  1  6  0  0  0
  4  7  1  0  0  0  0
  4 11  1  0  0  0  0
  5  9  1  0  0  0  0
  6  8  1  0  0  0  0
  7 10  1  1  0  0  0
  8  5  2  0  0  0  0
  8  2  1  0  0  0  0
  9  1  1  0  0  0  0
  9 18  1  1  0  0  0
 11 16  1  0  0  0  0
 12 13  1  0  0  0  0
 12  6  1  0  0  0  0
 13  3  1  0  0  0  0
 14 15  1  0  0  0  0
 15  7  1  0  0  0  0
 15 19  1  1  0  0  0
 16 10  1  0  0  0  0
 20 19  2  0  0  0  0
 22 21  1  0  0  0  0
 22 23  1  0  0  0  0
 24 23  1  0  0  0  0
 25 24  1  0  0  0  0
 26 25  1  0  0  0  0
 27 29  1  0  0  0  0
 28 27  1  0  0  0  0
 29 26  1  0  0  0  0
 30 29  2  0  0  0  0
M  END
>  <MODEL>
9

>  <REMARK>
 VINA RESULT:      -7.4      2.858      6.894
  Name = 
  8 active torsions:
  status: ('A' for Active; 'I' for Inactive)
    1  A    between atoms: C_1  and  C_5
    2  A    between atoms: C_1  and  C_22
    3  A    between atoms: C_2  and  C_18
    4  A    between atoms: C_2  and  C_22
    5  A    between atoms: C_11  and  C_25
    6  A    between atoms: C_14  and  C_18
    7  A    between atoms: C_14  and  C_20
    8  A    between atoms: C_20  and  C_28
                            x       y       z     vdW  Elec       q    Type
                         _______ _______ _______ _____ _____    ______ ____

>  <TORSDO>
F 8

$$$$
