=
 OpenBabel11052416553D

 32 36  0  0  1  0  0  0  0  0999 V2000
  180.4570  179.3180  142.1900 C   0  0  1  0  0  3  0  0  0  0  0  0
  185.3640  177.9500  142.9180 C   0  0  0  0  0  0  0  0  0  0  0  0
  186.2360  178.6120  147.6540 C   0  0  0  0  0  3  0  0  0  0  0  0
  187.5180  178.0880  147.4790 C   0  0  0  0  0  3  0  0  0  0  0  0
  183.2420  178.5670  141.9170 C   0  0  0  0  0  0  0  0  0  0  0  0
  183.6070  178.9050  144.2950 C   0  0  0  0  0  3  0  0  0  0  0  0
  181.4150  179.6180  143.3470 C   0  0  0  0  0  2  0  0  0  0  0  0
  185.3660  178.7130  146.5670 C   0  0  0  0  0  3  0  0  0  0  0  0
  184.9050  178.3850  144.1810 C   0  0  0  0  0  0  0  0  0  0  0  0
  185.7680  178.2890  145.2880 C   0  0  0  0  0  0  0  0  0  0  0  0
  187.4720  177.3310  143.8330 C   0  0  0  0  0  0  0  0  0  0  0  0
  181.1640  179.5130  140.8500 C   0  0  0  0  0  2  0  0  0  0  0  0
  182.7680  178.9850  143.1800 C   0  0  0  0  0  0  0  0  0  0  0  0
  182.3580  178.5670  140.7040 C   0  0  0  0  0  2  0  0  0  0  0  0
  187.9330  177.6620  146.2150 C   0  0  0  0  0  3  0  0  0  0  0  0
  187.0690  177.7560  145.1130 C   0  0  0  0  0  0  0  0  0  0  0  0
  184.5300  178.0390  141.8020 C   0  0  0  0  0  3  0  0  0  0  0  0
  186.6170  177.4440  142.7830 N   0  0  0  0  0  0  0  0  0  0  0  0
  179.8550  177.9230  142.3030 C   0  0  0  0  0  2  0  0  0  0  0  0
  179.2520  176.0290  140.7560 C   0  0  0  0  0  0  0  0  0  0  0  0
  179.5380  177.4090  140.9790 N   0  0  0  0  0  2  0  0  0  0  0  0
  179.2670  175.2070  141.7100 O   0  0  0  0  0  0  0  0  0  0  0  0
  178.9340  175.5580  139.3830 C   0  0  0  0  0  1  0  0  0  0  0  0
  188.8480  176.7960  143.5810 C   0  0  0  0  0  2  0  0  0  0  0  0
  189.6780  177.1070  141.2440 C   0  0  1  0  0  3  0  0  0  0  0  0
  191.0490  177.8320  143.0730 C   0  0  1  0  0  3  0  0  0  0  0  0
  191.8750  177.8710  141.8760 N   0  0  0  0  0  2  0  0  0  0  0  0
  191.1460  177.1140  140.8680 C   0  0  0  0  0  2  0  0  0  0  0  0
  191.2400  179.1050  143.8710 C   0  0  0  0  0  1  0  0  0  0  0  0
  189.6110  177.7090  142.6300 C   0  0  2  0  0  3  0  0  0  0  0  0
  188.3190  178.6030  139.5720 N   0  0  0  0  0  0  0  0  0  0  0  0
  188.9200  177.9440  140.3090 C   0  0  0  0  0  0  0  0  0  0  0  0
  1 19  1  1  0  0  0
  1  7  1  0  0  0  0
  2  9  1  0  0  0  0
  4  3  1  0  0  0  0
  5 13  1  0  0  0  0
  8  3  2  0  0  0  0
  9  6  1  0  0  0  0
  9 10  2  0  0  0  0
 10  8  1  0  0  0  0
 11 16  2  0  0  0  0
 12  1  1  0  0  0  0
 13  7  1  0  0  0  0
 13  6  2  0  0  0  0
 14 12  1  0  0  0  0
 14  5  1  0  0  0  0
 15  4  2  0  0  0  0
 16 10  1  0  0  0  0
 16 15  1  0  0  0  0
 17  5  2  0  0  0  0
 17  2  1  0  0  0  0
 18  2  2  0  0  0  0
 18 11  1  0  0  0  0
 20 21  1  0  0  0  0
 20 22  2  0  0  0  0
 21 19  1  0  0  0  0
 23 20  1  0  0  0  0
 24 11  1  0  0  0  0
 25 32  1  6  0  0  0
 25 30  1  0  0  0  0
 26 29  1  6  0  0  0
 27 26  1  0  0  0  0
 28 25  1  0  0  0  0
 28 27  1  0  0  0  0
 30 26  1  0  0  0  0
 30 24  1  1  0  0  0
 31 32  3  0  0  0  0
M  END
>  <MODEL>
1

>  <REMARK>
 VINA RESULT:     -10.3      0.000      0.000
  Name = 
  5 active torsions:
  status: ('A' for Active; 'I' for Inactive)
    1  A    between atoms: C_2  and  C_24
    2  A    between atoms: C_7  and  C_29
    3  A    between atoms: N_10  and  C_24
    4  A    between atoms: C_16  and  C_27
    5  A    between atoms: C_27  and  C_32
                            x       y       z     vdW  Elec       q    Type
                         _______ _______ _______ _____ _____    ______ ____

>  <TORSDO>
F 5

$$$$
=
 OpenBabel11052416553D

 32 36  0  0  1  0  0  0  0  0999 V2000
  188.9750  177.5590  136.8090 C   0  0  1  0  0  3  0  0  0  0  0  0
  188.6620  177.1640  141.9300 C   0  0  0  0  0  0  0  0  0  0  0  0
  184.5490  179.4320  143.1860 C   0  0  0  0  0  3  0  0  0  0  0  0
  184.7610  179.0550  144.5130 C   0  0  0  0  0  3  0  0  0  0  0  0
  189.4490  177.1370  139.6360 C   0  0  0  0  0  0  0  0  0  0  0  0
  187.3740  178.2710  140.1940 C   0  0  0  0  0  3  0  0  0  0  0  0
  188.1310  178.3410  137.8200 C   0  0  0  0  0  2  0  0  0  0  0  0
  185.4630  179.0590  142.1980 C   0  0  0  0  0  3  0  0  0  0  0  0
  187.5330  177.9190  141.5440 C   0  0  0  0  0  0  0  0  0  0  0  0
  186.6010  178.3020  142.5250 C   0  0  0  0  0  0  0  0  0  0  0  0
  187.9520  177.1600  144.2030 C   0  0  0  0  0  0  0  0  0  0  0  0
  190.4060  177.4020  137.3200 C   0  0  0  0  0  2  0  0  0  0  0  0
  188.3130  177.8740  139.2370 C   0  0  0  0  0  0  0  0  0  0  0  0
  190.4490  176.6270  138.6380 C   0  0  0  0  0  2  0  0  0  0  0  0
  185.8860  178.3020  144.8550 C   0  0  0  0  0  3  0  0  0  0  0  0
  186.8120  177.9190  143.8740 C   0  0  0  0  0  0  0  0  0  0  0  0
  189.6050  176.7760  140.9770 C   0  0  0  0  0  3  0  0  0  0  0  0
  188.8360  176.8130  143.2310 N   0  0  0  0  0  0  0  0  0  0  0  0
  188.3520  176.2080  136.4790 C   0  0  0  0  0  2  0  0  0  0  0  0
  186.0730  175.2360  136.9390 C   0  0  0  0  0  0  0  0  0  0  0  0
  186.9000  176.3120  136.4960 N   0  0  0  0  0  2  0  0  0  0  0  0
  186.5830  174.1540  137.3320 O   0  0  0  0  0  0  0  0  0  0  0  0
  184.5960  175.3970  136.9370 C   0  0  0  0  0  1  0  0  0  0  0  0
  188.2480  176.7610  145.6150 C   0  0  0  0  0  2  0  0  0  0  0  0
  190.7320  176.9680  145.4430 C   0  0  1  0  0  3  0  0  0  0  0  0
  189.6920  177.1820  147.5930 C   0  0  1  0  0  3  0  0  0  0  0  0
  191.1240  177.0630  147.8200 N   0  0  0  0  0  2  0  0  0  0  0  0
  191.6860  176.5950  146.5600 C   0  0  0  0  0  2  0  0  0  0  0  0
  189.1300  178.3060  148.4380 C   0  0  0  0  0  1  0  0  0  0  0  0
  189.4860  177.4830  146.1270 C   0  0  2  0  0  3  0  0  0  0  0  0
  191.7800  178.8710  143.9740 N   0  0  0  0  0  0  0  0  0  0  0  0
  191.3180  178.0330  144.6240 C   0  0  0  0  0  0  0  0  0  0  0  0
  1 19  1  1  0  0  0
  1 12  1  0  0  0  0
  1  7  1  0  0  0  0
  2 18  1  0  0  0  0
  3  4  1  0  0  0  0
  4 15  2  0  0  0  0
  5 17  1  0  0  0  0
  6  9  2  0  0  0  0
  7 13  1  0  0  0  0
  8 10  1  0  0  0  0
  8  3  2  0  0  0  0
  9  2  1  0  0  0  0
  9 10  1  0  0  0  0
 10 16  2  0  0  0  0
 11 24  1  0  0  0  0
 12 14  1  0  0  0  0
 13  5  2  0  0  0  0
 13  6  1  0  0  0  0
 14  5  1  0  0  0  0
 16 11  1  0  0  0  0
 16 15  1  0  0  0  0
 17  2  2  0  0  0  0
 18 11  2  0  0  0  0
 19 21  1  0  0  0  0
 20 22  2  0  0  0  0
 21 20  1  0  0  0  0
 23 20  1  0  0  0  0
 25 32  1  6  0  0  0
 25 30  1  0  0  0  0
 25 28  1  0  0  0  0
 26 27  1  0  0  0  0
 26 29  1  1  0  0  0
 28 27  1  0  0  0  0
 30 24  1  6  0  0  0
 30 26  1  0  0  0  0
 31 32  3  0  0  0  0
M  END
>  <MODEL>
2

>  <REMARK>
 VINA RESULT:      -9.2      3.460      6.090
  Name = 
  5 active torsions:
  status: ('A' for Active; 'I' for Inactive)
    1  A    between atoms: C_2  and  C_24
    2  A    between atoms: C_7  and  C_29
    3  A    between atoms: N_10  and  C_24
    4  A    between atoms: C_16  and  C_27
    5  A    between atoms: C_27  and  C_32
                            x       y       z     vdW  Elec       q    Type
                         _______ _______ _______ _____ _____    ______ ____

>  <TORSDO>
F 5

$$$$
=
 OpenBabel11052416553D

 32 36  0  0  1  0  0  0  0  0999 V2000
  187.4810  177.2970  136.2450 C   0  0  1  0  0  3  0  0  0  0  0  0
  189.2080  177.9950  141.0420 C   0  0  0  0  0  0  0  0  0  0  0  0
  185.2500  178.2070  143.8570 C   0  0  0  0  0  3  0  0  0  0  0  0
  186.0710  178.2970  144.9830 C   0  0  0  0  0  3  0  0  0  0  0  0
  189.0430  177.8240  138.6280 C   0  0  0  0  0  0  0  0  0  0  0  0
  187.0260  177.9050  139.9800 C   0  0  0  0  0  3  0  0  0  0  0  0
  186.7570  177.7820  137.5050 C   0  0  0  0  0  2  0  0  0  0  0  0
  185.8160  178.1060  142.5850 C   0  0  0  0  0  3  0  0  0  0  0  0
  187.7990  177.9960  141.1480 C   0  0  0  0  0  0  0  0  0  0  0  0
  187.2120  178.0940  142.4220 C   0  0  0  0  0  0  0  0  0  0  0  0
  189.4410  178.1720  143.4050 C   0  0  0  0  0  0  0  0  0  0  0  0
  188.8450  177.9760  136.1210 C   0  0  0  0  0  2  0  0  0  0  0  0
  187.6350  177.8030  138.7260 C   0  0  0  0  0  0  0  0  0  0  0  0
  189.7450  177.6470  137.3130 C   0  0  0  0  0  2  0  0  0  0  0  0
  187.4600  178.2860  144.8390 C   0  0  0  0  0  3  0  0  0  0  0  0
  188.0430  178.1850  143.5670 C   0  0  0  0  0  0  0  0  0  0  0  0
  189.8160  177.9040  139.7890 C   0  0  0  0  0  3  0  0  0  0  0  0
  189.9770  178.0830  142.1590 N   0  0  0  0  0  0  0  0  0  0  0  0
  187.6120  175.7800  136.2180 C   0  0  0  0  0  2  0  0  0  0  0  0
  186.3770  173.8040  137.1770 C   0  0  0  0  0  0  0  0  0  0  0  0
  186.4050  175.1660  136.7510 N   0  0  0  0  0  2  0  0  0  0  0  0
  187.4090  173.0860  137.1010 O   0  0  0  0  0  0  0  0  0  0  0  0
  185.1170  173.2290  137.7150 C   0  0  0  0  0  1  0  0  0  0  0  0
  190.3680  178.3050  144.5740 C   0  0  0  0  0  2  0  0  0  0  0  0
  190.4250  177.2690  146.8470 C   0  0  1  0  0  3  0  0  0  0  0  0
  191.7360  176.2960  145.0920 C   0  0  1  0  0  3  0  0  0  0  0  0
  192.1670  175.6830  146.3380 N   0  0  0  0  0  2  0  0  0  0  0  0
  191.6200  176.5180  147.3990 C   0  0  0  0  0  2  0  0  0  0  0  0
  191.5430  175.2280  144.0340 C   0  0  0  0  0  1  0  0  0  0  0  0
  190.4280  177.0020  145.3590 C   0  0  2  0  0  3  0  0  0  0  0  0
  188.2170  176.3320  147.9070 N   0  0  0  0  0  0  0  0  0  0  0  0
  189.1910  176.7440  147.4380 C   0  0  0  0  0  0  0  0  0  0  0  0
  1 19  1  1  0  0  0
  1  7  1  0  0  0  0
  2  9  1  0  0  0  0
  2 18  1  0  0  0  0
  3  4  1  0  0  0  0
  5 13  2  0  0  0  0
  5 17  1  0  0  0  0
  6  9  2  0  0  0  0
  7 13  1  0  0  0  0
  8  3  2  0  0  0  0
  9 10  1  0  0  0  0
 10  8  1  0  0  0  0
 10 16  2  0  0  0  0
 11 16  1  0  0  0  0
 11 24  1  0  0  0  0
 12  1  1  0  0  0  0
 12 14  1  0  0  0  0
 13  6  1  0  0  0  0
 14  5  1  0  0  0  0
 15  4  2  0  0  0  0
 16 15  1  0  0  0  0
 17  2  2  0  0  0  0
 18 11  2  0  0  0  0
 19 21  1  0  0  0  0
 20 23  1  0  0  0  0
 21 20  1  0  0  0  0
 22 20  2  0  0  0  0
 25 28  1  0  0  0  0
 25 32  1  1  0  0  0
 26 29  1  6  0  0  0
 26 30  1  0  0  0  0
 26 27  1  0  0  0  0
 27 28  1  0  0  0  0
 30 24  1  6  0  0  0
 30 25  1  0  0  0  0
 32 31  3  0  0  0  0
M  END
>  <MODEL>
3

>  <REMARK>
 VINA RESULT:      -8.4      3.773      6.150
  Name = 
  5 active torsions:
  status: ('A' for Active; 'I' for Inactive)
    1  A    between atoms: C_2  and  C_24
    2  A    between atoms: C_7  and  C_29
    3  A    between atoms: N_10  and  C_24
    4  A    between atoms: C_16  and  C_27
    5  A    between atoms: C_27  and  C_32
                            x       y       z     vdW  Elec       q    Type
                         _______ _______ _______ _____ _____    ______ ____

>  <TORSDO>
F 5

$$$$
=
 OpenBabel11052416553D

 32 36  0  0  1  0  0  0  0  0999 V2000
  191.3820  177.7360  144.3870 C   0  0  1  0  0  3  0  0  0  0  0  0
  189.1310  177.2750  139.7830 C   0  0  0  0  0  0  0  0  0  0  0  0
  192.6800  176.0740  136.6860 C   0  0  0  0  0  3  0  0  0  0  0  0
  191.7340  175.9580  135.6660 C   0  0  0  0  0  3  0  0  0  0  0  0
  189.5920  177.7830  142.1100 C   0  0  0  0  0  0  0  0  0  0  0  0
  191.4080  177.1680  140.6180 C   0  0  0  0  0  3  0  0  0  0  0  0
  191.9850  177.7240  142.9790 C   0  0  0  0  0  2  0  0  0  0  0  0
  192.2790  176.4290  137.9750 C   0  0  0  0  0  3  0  0  0  0  0  0
  190.5030  177.0350  139.5540 C   0  0  0  0  0  0  0  0  0  0  0  0
  190.9250  176.6740  138.2620 C   0  0  0  0  0  0  0  0  0  0  0  0
  188.6100  176.7990  137.5100 C   0  0  0  0  0  0  0  0  0  0  0  0
  190.1350  178.6180  144.4240 C   0  0  0  0  0  2  0  0  0  0  0  0
  190.9630  177.5240  141.8950 C   0  0  0  0  0  0  0  0  0  0  0  0
  189.0530  178.0990  143.4760 C   0  0  0  0  0  2  0  0  0  0  0  0
  190.3850  176.1970  135.9330 C   0  0  0  0  0  3  0  0  0  0  0  0
  189.9660  176.5540  137.2240 C   0  0  0  0  0  0  0  0  0  0  0  0
  188.6860  177.6400  141.0550 C   0  0  0  0  0  3  0  0  0  0  0  0
  188.2370  177.1530  138.7680 N   0  0  0  0  0  0  0  0  0  0  0  0
  191.0820  176.3280  144.8840 C   0  0  0  0  0  2  0  0  0  0  0  0
  191.7570  176.2310  147.3090 C   0  0  0  0  0  0  0  0  0  0  0  0
  192.0200  175.9590  145.9330 N   0  0  0  0  0  2  0  0  0  0  0  0
  190.6930  176.8050  147.6590 O   0  0  0  0  0  0  0  0  0  0  0  0
  192.7510  175.8310  148.3390 C   0  0  0  0  0  1  0  0  0  0  0  0
  187.5580  176.7270  136.4460 C   0  0  0  0  0  2  0  0  0  0  0  0
  185.7360  175.0230  136.3040 C   0  0  1  0  0  3  0  0  0  0  0  0
  185.1680  177.2960  136.8140 C   0  0  1  0  0  3  0  0  0  0  0  0
  183.9250  176.5990  136.5220 N   0  0  0  0  0  2  0  0  0  0  0  0
  184.3140  175.3460  135.8900 C   0  0  0  0  0  2  0  0  0  0  0  0
  185.0030  178.1370  138.0630 C   0  0  0  0  0  1  0  0  0  0  0  0
  186.2360  176.2500  137.0310 C   0  0  2  0  0  3  0  0  0  0  0  0
  185.7420  172.9680  137.9340 N   0  0  0  0  0  0  0  0  0  0  0  0
  185.7400  173.8760  137.2170 C   0  0  0  0  0  0  0  0  0  0  0  0
  1 12  1  0  0  0  0
  1 19  1  6  0  0  0
  2 17  1  0  0  0  0
  3  8  1  0  0  0  0
  4 15  1  0  0  0  0
  4  3  2  0  0  0  0
  5 14  1  0  0  0  0
  6 13  2  0  0  0  0
  7  1  1  0  0  0  0
  8 10  2  0  0  0  0
  9  2  2  0  0  0  0
  9  6  1  0  0  0  0
 10  9  1  0  0  0  0
 11 18  2  0  0  0  0
 13  5  1  0  0  0  0
 13  7  1  0  0  0  0
 14 12  1  0  0  0  0
 15 16  2  0  0  0  0
 16 11  1  0  0  0  0
 16 10  1  0  0  0  0
 17  5  2  0  0  0  0
 18  2  1  0  0  0  0
 19 21  1  0  0  0  0
 20 22  2  0  0  0  0
 20 23  1  0  0  0  0
 21 20  1  0  0  0  0
 24 11  1  0  0  0  0
 25 30  1  0  0  0  0
 25 32  1  1  0  0  0
 26 30  1  0  0  0  0
 26 29  1  1  0  0  0
 27 26  1  0  0  0  0
 28 25  1  0  0  0  0
 28 27  1  0  0  0  0
 30 24  1  6  0  0  0
 32 31  3  0  0  0  0
M  END
>  <MODEL>
4

>  <REMARK>
 VINA RESULT:      -8.3      4.787      9.599
  Name = 
  5 active torsions:
  status: ('A' for Active; 'I' for Inactive)
    1  A    between atoms: C_2  and  C_24
    2  A    between atoms: C_7  and  C_29
    3  A    between atoms: N_10  and  C_24
    4  A    between atoms: C_16  and  C_27
    5  A    between atoms: C_27  and  C_32
                            x       y       z     vdW  Elec       q    Type
                         _______ _______ _______ _____ _____    ______ ____

>  <TORSDO>
F 5

$$$$
=
 OpenBabel11052416553D

 32 36  0  0  1  0  0  0  0  0999 V2000
  191.6880  177.6010  143.9860 C   0  0  1  0  0  3  0  0  0  0  0  0
  188.3460  178.0190  140.0960 C   0  0  0  0  0  0  0  0  0  0  0  0
  190.5970  176.1590  136.2100 C   0  0  0  0  0  3  0  0  0  0  0  0
  189.4350  176.3520  135.4590 C   0  0  0  0  0  3  0  0  0  0  0  0
  189.4740  178.2450  142.2310 C   0  0  0  0  0  0  0  0  0  0  0  0
  190.6490  177.2870  140.3330 C   0  0  0  0  0  3  0  0  0  0  0  0
  191.9060  177.5270  142.4720 C   0  0  0  0  0  2  0  0  0  0  0  0
  190.6280  176.5210  137.5570 C   0  0  0  0  0  3  0  0  0  0  0  0
  189.5100  177.4550  139.5300 C   0  0  0  0  0  0  0  0  0  0  0  0
  189.4960  177.0820  138.1740 C   0  0  0  0  0  0  0  0  0  0  0  0
  187.1830  177.8360  138.0270 C   0  0  0  0  0  0  0  0  0  0  0  0
  190.7620  178.7660  144.3340 C   0  0  0  0  0  2  0  0  0  0  0  0
  190.6350  177.6620  141.6800 C   0  0  0  0  0  0  0  0  0  0  0  0
  189.3850  178.5990  143.6880 C   0  0  0  0  0  2  0  0  0  0  0  0
  188.3010  176.9070  136.0570 C   0  0  0  0  0  3  0  0  0  0  0  0
  188.3170  177.2750  137.4100 C   0  0  0  0  0  0  0  0  0  0  0  0
  188.3350  178.4030  141.4380 C   0  0  0  0  0  3  0  0  0  0  0  0
  187.2320  178.1920  139.3380 N   0  0  0  0  0  0  0  0  0  0  0  0
  191.1610  176.2860  144.5460 C   0  0  0  0  0  2  0  0  0  0  0  0
  191.7340  176.1920  146.9970 C   0  0  0  0  0  0  0  0  0  0  0  0
  192.0060  175.8370  145.6410 N   0  0  0  0  0  2  0  0  0  0  0  0
  190.7440  176.9130  147.2860 O   0  0  0  0  0  0  0  0  0  0  0  0
  192.6300  175.7030  148.0770 C   0  0  0  0  0  1  0  0  0  0  0  0
  185.9230  178.1000  137.2610 C   0  0  0  0  0  2  0  0  0  0  0  0
  184.1970  176.3410  136.8480 C   0  0  1  0  0  3  0  0  0  0  0  0
  183.6180  178.2490  138.1780 C   0  0  1  0  0  3  0  0  0  0  0  0
  182.3800  177.5500  137.8710 N   0  0  0  0  0  2  0  0  0  0  0  0
  182.7080  176.6190  136.8000 C   0  0  0  0  0  2  0  0  0  0  0  0
  183.6480  178.6190  139.6470 C   0  0  0  0  0  1  0  0  0  0  0  0
  184.7610  177.3160  137.8560 C   0  0  2  0  0  3  0  0  0  0  0  0
  184.6210  173.8870  137.6710 N   0  0  0  0  0  0  0  0  0  0  0  0
  184.4320  174.9680  137.3070 C   0  0  0  0  0  0  0  0  0  0  0  0
  1 12  1  0  0  0  0
  1 19  1  6  0  0  0
  2 17  1  0  0  0  0
  3  8  1  0  0  0  0
  4 15  1  0  0  0  0
  4  3  2  0  0  0  0
  5 14  1  0  0  0  0
  6 13  2  0  0  0  0
  7  1  1  0  0  0  0
  8 10  2  0  0  0  0
  9  2  2  0  0  0  0
  9  6  1  0  0  0  0
 10  9  1  0  0  0  0
 11 18  2  0  0  0  0
 13  5  1  0  0  0  0
 13  7  1  0  0  0  0
 14 12  1  0  0  0  0
 15 16  2  0  0  0  0
 16 11  1  0  0  0  0
 16 10  1  0  0  0  0
 17  5  2  0  0  0  0
 18  2  1  0  0  0  0
 19 21  1  0  0  0  0
 20 22  2  0  0  0  0
 20 23  1  0  0  0  0
 21 20  1  0  0  0  0
 24 11  1  0  0  0  0
 25 32  1  1  0  0  0
 25 30  1  0  0  0  0
 26 29  1  1  0  0  0
 27 26  1  0  0  0  0
 28 25  1  0  0  0  0
 28 27  1  0  0  0  0
 30 24  1  6  0  0  0
 30 26  1  0  0  0  0
 32 31  3  0  0  0  0
M  END
>  <MODEL>
5

>  <REMARK>
 VINA RESULT:      -8.1      4.057      9.470
  Name = 
  5 active torsions:
  status: ('A' for Active; 'I' for Inactive)
    1  A    between atoms: C_2  and  C_24
    2  A    between atoms: C_7  and  C_29
    3  A    between atoms: N_10  and  C_24
    4  A    between atoms: C_16  and  C_27
    5  A    between atoms: C_27  and  C_32
                            x       y       z     vdW  Elec       q    Type
                         _______ _______ _______ _____ _____    ______ ____

>  <TORSDO>
F 5

$$$$
=
 OpenBabel11052416553D

 32 36  0  0  1  0  0  0  0  0999 V2000
  181.6640  178.2770  139.2080 C   0  0  1  0  0  3  0  0  0  0  0  0
  186.0110  178.5400  141.9490 C   0  0  0  0  0  0  0  0  0  0  0  0
  184.6480  178.3780  146.6130 C   0  0  0  0  0  3  0  0  0  0  0  0
  185.9920  178.3770  146.9930 C   0  0  0  0  0  3  0  0  0  0  0  0
  184.3840  178.6040  140.1510 C   0  0  0  0  0  0  0  0  0  0  0  0
  183.6370  178.5020  142.4610 C   0  0  0  0  0  3  0  0  0  0  0  0
  181.8930  178.6180  140.6830 C   0  0  0  0  0  2  0  0  0  0  0  0
  184.3030  178.4170  145.2610 C   0  0  0  0  0  3  0  0  0  0  0  0
  184.9690  178.4970  142.9020 C   0  0  0  0  0  0  0  0  0  0  0  0
  185.2990  178.4550  144.2690 C   0  0  0  0  0  0  0  0  0  0  0  0
  187.6600  178.4900  143.6650 C   0  0  0  0  0  0  0  0  0  0  0  0
  182.6870  178.9980  138.3300 C   0  0  0  0  0  2  0  0  0  0  0  0
  183.3370  178.5400  141.0960 C   0  0  0  0  0  0  0  0  0  0  0  0
  184.1160  178.5750  138.6740 C   0  0  0  0  0  2  0  0  0  0  0  0
  186.9930  178.4140  146.0200 C   0  0  0  0  0  3  0  0  0  0  0  0
  186.6620  178.4520  144.6580 C   0  0  0  0  0  0  0  0  0  0  0  0
  185.7120  178.5880  140.5870 C   0  0  0  0  0  3  0  0  0  0  0  0
  187.3080  178.5370  142.3530 N   0  0  0  0  0  0  0  0  0  0  0  0
  181.6860  176.7730  138.9660 C   0  0  0  0  0  2  0  0  0  0  0  0
  180.1980  174.8950  139.7450 C   0  0  0  0  0  0  0  0  0  0  0  0
  180.9340  176.0900  140.0070 N   0  0  0  0  0  2  0  0  0  0  0  0
  180.1790  174.3930  138.5900 O   0  0  0  0  0  0  0  0  0  0  0  0
  179.4480  174.2380  140.8460 C   0  0  0  0  0  1  0  0  0  0  0  0
  189.1150  178.5280  144.0170 C   0  0  0  0  0  2  0  0  0  0  0  0
  190.3840  177.3590  145.8240 C   0  0  1  0  0  3  0  0  0  0  0  0
  190.5070  176.5160  143.5820 C   0  0  1  0  0  3  0  0  0  0  0  0
  191.5370  175.8370  144.3530 N   0  0  0  0  0  2  0  0  0  0  0  0
  191.6730  176.5960  145.5880 C   0  0  0  0  0  2  0  0  0  0  0  0
  189.7490  175.5110  142.7400 C   0  0  0  0  0  1  0  0  0  0  0  0
  189.5700  177.1820  144.5620 C   0  0  2  0  0  3  0  0  0  0  0  0
  189.0910  176.3150  147.8540 N   0  0  0  0  0  0  0  0  0  0  0  0
  189.6630  176.7760  146.9600 C   0  0  0  0  0  0  0  0  0  0  0  0
  1 19  1  1  0  0  0
  1  7  1  0  0  0  0
  2 18  2  0  0  0  0
  2  9  1  0  0  0  0
  3  4  1  0  0  0  0
  5 17  2  0  0  0  0
  5 13  1  0  0  0  0
  6  9  1  0  0  0  0
  7 13  1  0  0  0  0
  8  3  2  0  0  0  0
  9 10  2  0  0  0  0
 10 16  1  0  0  0  0
 10  8  1  0  0  0  0
 11 24  1  0  0  0  0
 11 16  2  0  0  0  0
 12 14  1  0  0  0  0
 12  1  1  0  0  0  0
 13  6  2  0  0  0  0
 14  5  1  0  0  0  0
 15  4  2  0  0  0  0
 16 15  1  0  0  0  0
 17  2  1  0  0  0  0
 18 11  1  0  0  0  0
 19 21  1  0  0  0  0
 20 21  1  0  0  0  0
 20 23  1  0  0  0  0
 22 20  2  0  0  0  0
 25 32  1  1  0  0  0
 26 29  1  1  0  0  0
 26 27  1  0  0  0  0
 26 30  1  0  0  0  0
 27 28  1  0  0  0  0
 28 25  1  0  0  0  0
 30 24  1  6  0  0  0
 30 25  1  0  0  0  0
 32 31  3  0  0  0  0
M  END
>  <MODEL>
6

>  <REMARK>
 VINA RESULT:      -8.1      2.048      3.121
  Name = 
  5 active torsions:
  status: ('A' for Active; 'I' for Inactive)
    1  A    between atoms: C_2  and  C_24
    2  A    between atoms: C_7  and  C_29
    3  A    between atoms: N_10  and  C_24
    4  A    between atoms: C_16  and  C_27
    5  A    between atoms: C_27  and  C_32
                            x       y       z     vdW  Elec       q    Type
                         _______ _______ _______ _____ _____    ______ ____

>  <TORSDO>
F 5

$$$$
=
 OpenBabel11052416553D

 32 36  0  0  1  0  0  0  0  0999 V2000
  189.6520  176.7930  144.3170 C   0  0  1  0  0  3  0  0  0  0  0  0
  185.9790  178.5410  141.1650 C   0  0  0  0  0  0  0  0  0  0  0  0
  181.8870  178.5750  143.7890 C   0  0  0  0  0  3  0  0  0  0  0  0
  181.2130  179.1480  142.7090 C   0  0  0  0  0  3  0  0  0  0  0  0
  188.0560  177.6670  142.0620 C   0  0  0  0  0  0  0  0  0  0  0  0
  186.0510  177.6750  143.4330 C   0  0  0  0  0  3  0  0  0  0  0  0
  188.1260  176.7100  144.4210 C   0  0  0  0  0  2  0  0  0  0  0  0
  183.2470  178.2770  143.6880 C   0  0  0  0  0  3  0  0  0  0  0  0
  185.3220  178.2530  142.3820 C   0  0  0  0  0  0  0  0  0  0  0  0
  183.9520  178.5490  142.5030 C   0  0  0  0  0  0  0  0  0  0  0  0
  183.9710  179.4040  140.2210 C   0  0  0  0  0  0  0  0  0  0  0  0
  190.1070  176.4630  142.8960 C   0  0  0  0  0  2  0  0  0  0  0  0
  187.4130  177.3950  143.2880 C   0  0  0  0  0  0  0  0  0  0  0  0
  189.5310  177.4510  141.8800 C   0  0  0  0  0  2  0  0  0  0  0  0
  181.8990  179.4250  141.5250 C   0  0  0  0  0  3  0  0  0  0  0  0
  183.2660  179.1320  141.4080 C   0  0  0  0  0  0  0  0  0  0  0  0
  187.3360  178.2530  141.0170 C   0  0  0  0  0  3  0  0  0  0  0  0
  185.2930  179.1000  140.1340 N   0  0  0  0  0  0  0  0  0  0  0  0
  190.1750  178.1510  144.7660 C   0  0  0  0  0  2  0  0  0  0  0  0
  189.7310  177.8070  147.2220 C   0  0  0  0  0  0  0  0  0  0  0  0
  189.5370  178.5420  146.0140 N   0  0  0  0  0  2  0  0  0  0  0  0
  190.4680  176.7870  147.2420 O   0  0  0  0  0  0  0  0  0  0  0  0
  189.0550  178.2530  148.4690 C   0  0  0  0  0  1  0  0  0  0  0  0
  183.2910  179.9820  139.0180 C   0  0  0  0  0  2  0  0  0  0  0  0
  183.0010  177.9060  137.6590 C   0  0  1  0  0  3  0  0  0  0  0  0
  181.4020  179.6780  137.4320 C   0  0  1  0  0  3  0  0  0  0  0  0
  181.1580  178.7390  136.3480 N   0  0  0  0  0  2  0  0  0  0  0  0
  182.3310  177.8780  136.3000 C   0  0  0  0  0  2  0  0  0  0  0  0
  180.0890  180.0680  138.0800 C   0  0  0  0  0  1  0  0  0  0  0  0
  182.2920  178.9890  138.4390 C   0  0  2  0  0  3  0  0  0  0  0  0
  182.6730  175.6000  138.8650 N   0  0  0  0  0  0  0  0  0  0  0  0
  182.8170  176.6160  138.3310 C   0  0  0  0  0  0  0  0  0  0  0  0
  1  7  1  0  0  0  0
  1 19  1  6  0  0  0
  2  9  1  0  0  0  0
  4  3  2  0  0  0  0
  5 13  2  0  0  0  0
  8  3  1  0  0  0  0
  9 10  1  0  0  0  0
  9  6  2  0  0  0  0
 10  8  2  0  0  0  0
 11 16  1  0  0  0  0
 12  1  1  0  0  0  0
 13  6  1  0  0  0  0
 13  7  1  0  0  0  0
 14  5  1  0  0  0  0
 14 12  1  0  0  0  0
 15  4  1  0  0  0  0
 16 15  2  0  0  0  0
 16 10  1  0  0  0  0
 17  2  2  0  0  0  0
 17  5  1  0  0  0  0
 18 11  2  0  0  0  0
 18  2  1  0  0  0  0
 19 21  1  0  0  0  0
 20 22  2  0  0  0  0
 20 23  1  0  0  0  0
 21 20  1  0  0  0  0
 24 11  1  0  0  0  0
 25 32  1  1  0  0  0
 25 30  1  0  0  0  0
 26 29  1  1  0  0  0
 26 30  1  0  0  0  0
 27 26  1  0  0  0  0
 28 27  1  0  0  0  0
 28 25  1  0  0  0  0
 30 24  1  6  0  0  0
 32 31  3  0  0  0  0
M  END
>  <MODEL>
7

>  <REMARK>
 VINA RESULT:      -7.7      3.248      8.251
  Name = 
  5 active torsions:
  status: ('A' for Active; 'I' for Inactive)
    1  A    between atoms: C_2  and  C_24
    2  A    between atoms: C_7  and  C_29
    3  A    between atoms: N_10  and  C_24
    4  A    between atoms: C_16  and  C_27
    5  A    between atoms: C_27  and  C_32
                            x       y       z     vdW  Elec       q    Type
                         _______ _______ _______ _____ _____    ______ ____

>  <TORSDO>
F 5

$$$$
=
 OpenBabel11052416553D

 32 36  0  0  1  0  0  0  0  0999 V2000
  179.6950  178.5910  141.4820 C   0  0  1  0  0  3  0  0  0  0  0  0
  184.8240  178.9560  141.2780 C   0  0  0  0  0  0  0  0  0  0  0  0
  186.4470  177.1960  145.5080 C   0  0  0  0  0  3  0  0  0  0  0  0
  187.7590  177.3650  145.0610 C   0  0  0  0  0  3  0  0  0  0  0  0
  182.4530  179.1910  140.8250 C   0  0  0  0  0  0  0  0  0  0  0  0
  183.1980  178.2850  142.9520 C   0  0  0  0  0  3  0  0  0  0  0  0
  180.7440  178.5370  142.5970 C   0  0  0  0  0  2  0  0  0  0  0  0
  185.3760  177.5460  144.6840 C   0  0  0  0  0  3  0  0  0  0  0  0
  184.5370  178.4290  142.5560 C   0  0  0  0  0  0  0  0  0  0  0  0
  185.6040  178.0690  143.3990 C   0  0  0  0  0  0  0  0  0  0  0  0
  187.1650  178.7620  141.6610 C   0  0  0  0  0  0  0  0  0  0  0  0
  180.0100  179.7270  140.5090 C   0  0  0  0  0  2  0  0  0  0  0  0
  182.1560  178.6460  142.0930 C   0  0  0  0  0  0  0  0  0  0  0  0
  181.3710  179.5280  139.8390 C   0  0  0  0  0  2  0  0  0  0  0  0
  188.0030  177.8830  143.7870 C   0  0  0  0  0  3  0  0  0  0  0  0
  186.9370  178.2380  142.9470 C   0  0  0  0  0  0  0  0  0  0  0  0
  183.7840  179.3260  140.4230 C   0  0  0  0  0  3  0  0  0  0  0  0
  186.1120  179.1060  140.8730 N   0  0  0  0  0  0  0  0  0  0  0  0
  179.5740  177.2570  140.7570 C   0  0  0  0  0  2  0  0  0  0  0  0
  179.6510  174.8010  141.3180 C   0  0  0  0  0  0  0  0  0  0  0  0
  179.5480  176.1670  141.7210 N   0  0  0  0  0  2  0  0  0  0  0  0
  179.7680  174.4980  140.1010 O   0  0  0  0  0  0  0  0  0  0  0  0
  179.6200  173.7280  142.3450 C   0  0  0  0  0  1  0  0  0  0  0  0
  188.5510  178.9990  141.1450 C   0  0  0  0  0  2  0  0  0  0  0  0
  190.5310  177.4770  141.2500 C   0  0  1  0  0  3  0  0  0  0  0  0
  189.4090  177.7840  139.1530 C   0  0  1  0  0  3  0  0  0  0  0  0
  190.6590  177.0950  138.8740 N   0  0  0  0  0  2  0  0  0  0  0  0
  191.4630  177.2280  140.0810 C   0  0  0  0  0  2  0  0  0  0  0  0
  188.2750  177.1180  138.4020 C   0  0  0  0  0  1  0  0  0  0  0  0
  189.1650  177.6990  140.6420 C   0  0  2  0  0  3  0  0  0  0  0  0
  190.4640  175.3660  142.8050 N   0  0  0  0  0  0  0  0  0  0  0  0
  190.4950  176.2970  142.1190 C   0  0  0  0  0  0  0  0  0  0  0  0
  1 19  1  6  0  0  0
  1  7  1  0  0  0  0
  2  9  1  0  0  0  0
  4  3  1  0  0  0  0
  5 13  1  0  0  0  0
  8  3  2  0  0  0  0
  9  6  1  0  0  0  0
  9 10  2  0  0  0  0
 10  8  1  0  0  0  0
 11 16  2  0  0  0  0
 12  1  1  0  0  0  0
 13  7  1  0  0  0  0
 13  6  2  0  0  0  0
 14 12  1  0  0  0  0
 14  5  1  0  0  0  0
 15  4  2  0  0  0  0
 16 10  1  0  0  0  0
 16 15  1  0  0  0  0
 17  5  2  0  0  0  0
 17  2  1  0  0  0  0
 18  2  2  0  0  0  0
 18 11  1  0  0  0  0
 19 21  1  0  0  0  0
 20 21  1  0  0  0  0
 20 23  1  0  0  0  0
 22 20  2  0  0  0  0
 24 11  1  0  0  0  0
 25 32  1  1  0  0  0
 26 29  1  6  0  0  0
 26 30  1  0  0  0  0
 27 26  1  0  0  0  0
 27 28  1  0  0  0  0
 28 25  1  0  0  0  0
 30 24  1  1  0  0  0
 30 25  1  0  0  0  0
 32 31  3  0  0  0  0
M  END
>  <MODEL>
8

>  <REMARK>
 VINA RESULT:      -7.7      1.653      2.601
  Name = 
  5 active torsions:
  status: ('A' for Active; 'I' for Inactive)
    1  A    between atoms: C_2  and  C_24
    2  A    between atoms: C_7  and  C_29
    3  A    between atoms: N_10  and  C_24
    4  A    between atoms: C_16  and  C_27
    5  A    between atoms: C_27  and  C_32
                            x       y       z     vdW  Elec       q    Type
                         _______ _______ _______ _____ _____    ______ ____

>  <TORSDO>
F 5

$$$$
