=
 OpenBabel11052413223D

 28 31  0  0  1  0  0  0  0  0999 V2000
  187.8110  178.2500  138.7750 C   0  0  0  0  0  0  0  0  0  0  0  0
  186.6050  178.1580  138.0140 N   0  0  0  0  0  2  0  0  0  0  0  0
  190.4100  177.8890  140.3620 C   0  0  0  0  0  2  0  0  0  0  0  0
  188.8690  176.5200  141.8600 C   0  0  0  0  0  2  0  0  0  0  0  0
  189.9430  176.6570  138.1700 C   0  0  0  0  0  2  0  0  0  0  0  0
  187.8640  177.7340  139.9720 N   0  0  0  0  0  0  0  0  0  0  0  0
  189.8130  177.8430  137.4120 O   0  0  0  0  0  0  0  0  0  0  0  0
  188.7340  178.6510  142.0840 C   0  0  0  0  0  2  0  0  0  0  0  0
  190.8670  176.8070  139.3810 C   0  0  0  0  0  2  0  0  0  0  0  0
  188.5950  177.4650  143.0240 C   0  0  1  0  0  3  0  0  0  0  0  0
  189.0350  178.8110  138.1030 C   0  0  0  0  0  2  0  0  0  0  0  0
  188.9890  177.7070  140.9250 C   0  0  2  0  0  0  0  0  0  0  0  0
  185.4090  177.4740  138.4980 C   0  0  2  0  0  3  0  0  0  0  0  0
  182.5810  177.5850  137.8310 C   0  0  0  0  0  2  0  0  0  0  0  0
  184.8730  176.5580  137.3880 C   0  0  0  0  0  2  0  0  0  0  0  0
  184.8960  179.7310  139.4190 N   0  0  0  0  0  1  0  0  0  0  0  0
  184.3230  178.4790  138.9450 C   0  0  1  0  0  3  0  0  0  0  0  0
  183.4150  178.7220  137.8970 O   0  0  0  0  0  0  0  0  0  0  0  0
  183.3740  176.2920  137.5360 C   0  0  0  0  0  2  0  0  0  0  0  0
  187.1680  177.3520  143.4650 C   0  0  0  0  0  3  0  0  0  0  0  0
  186.7400  177.3460  144.7320 C   0  0  0  0  0  3  0  0  0  0  0  0
  188.0120  178.5990  148.1470 C   0  0  0  0  0  2  0  0  0  0  0  0
  187.5590  177.4700  145.9510 C   0  0  0  0  0  0  0  0  0  0  0  0
  189.7370  177.2220  147.0470 C   0  0  0  0  0  0  0  0  0  0  0  0
  186.9790  177.8450  147.2990 C   0  0  0  0  0  2  0  0  0  0  0  0
  188.8500  177.1180  145.8720 C   0  0  0  0  0  3  0  0  0  0  0  0
  191.0160  176.6020  147.0260 N   0  0  0  0  0  1  0  0  0  0  0  0
  189.3310  177.8760  148.1400 C   0  0  0  0  0  3  0  0  0  0  0  0
  1  6  2  0  0  0  0
  2  1  1  0  0  0  0
  4 10  1  0  0  0  0
  5  9  1  0  0  0  0
  6 12  1  0  0  0  0
  7 11  1  0  0  0  0
  7  5  1  0  0  0  0
  8 10  1  0  0  0  0
  9  3  1  0  0  0  0
 10 20  1  6  0  0  0
 11  1  1  0  0  0  0
 12  3  1  6  0  0  0
 12  4  1  0  0  0  0
 12  8  1  0  0  0  0
 13  2  1  6  0  0  0
 13 17  1  0  0  0  0
 14 18  1  0  0  0  0
 15 19  1  0  0  0  0
 15 13  1  0  0  0  0
 17 16  1  6  0  0  0
 18 17  1  0  0  0  0
 19 14  1  0  0  0  0
 20 21  2  0  0  0  0
 21 23  1  0  0  0  0
 23 25  1  0  0  0  0
 24 28  2  0  0  0  0
 25 22  1  0  0  0  0
 26 23  2  0  0  0  0
 26 24  1  0  0  0  0
 27 24  1  0  0  0  0
 28 22  1  0  0  0  0
M  END
>  <MODEL>
1

>  <REMARK>
 VINA RESULT:      -8.7      0.000      0.000
  Name = 
  3 active torsions:
  status: ('A' for Active; 'I' for Inactive)
    1  A    between atoms: N_2  and  C_3
    2  A    between atoms: C_9  and  C_18
    3  A    between atoms: C_14  and  C_25
                            x       y       z     vdW  Elec       q    Type
                         _______ _______ _______ _____ _____    ______ ____

>  <TORSDO>
F 3

$$$$
=
 OpenBabel11052413223D

 28 31  0  0  1  0  0  0  0  0999 V2000
  188.7190  175.7670  136.7250 C   0  0  0  0  0  0  0  0  0  0  0  0
  187.5050  175.1330  136.3150 N   0  0  0  0  0  2  0  0  0  0  0  0
  191.4040  176.6620  137.9050 C   0  0  0  0  0  2  0  0  0  0  0  0
  190.1160  176.3880  140.0860 C   0  0  0  0  0  2  0  0  0  0  0  0
  191.0130  174.3110  136.9770 C   0  0  0  0  0  2  0  0  0  0  0  0
  188.8860  176.1020  137.9740 N   0  0  0  0  0  0  0  0  0  0  0  0
  190.7000  174.7670  135.6740 O   0  0  0  0  0  0  0  0  0  0  0  0
  189.7140  178.1880  138.9870 C   0  0  0  0  0  2  0  0  0  0  0  0
  191.9580  175.2450  137.7370 C   0  0  0  0  0  2  0  0  0  0  0  0
  189.7680  177.8240  140.4600 C   0  0  1  0  0  3  0  0  0  0  0  0
  189.8320  175.8900  135.7200 C   0  0  0  0  0  2  0  0  0  0  0  0
  190.0430  176.7540  138.6170 C   0  0  2  0  0  0  0  0  0  0  0  0
  186.4280  174.8010  137.2440 C   0  0  2  0  0  3  0  0  0  0  0  0
  183.7880  173.6150  136.9710 C   0  0  0  0  0  2  0  0  0  0  0  0
  186.2910  173.2740  137.3230 C   0  0  0  0  0  2  0  0  0  0  0  0
  185.2910  176.6860  136.0790 N   0  0  0  0  0  1  0  0  0  0  0  0
  185.0910  175.4460  136.8150 C   0  0  1  0  0  3  0  0  0  0  0  0
  184.3290  174.5400  136.0520 O   0  0  0  0  0  0  0  0  0  0  0  0
  184.8830  172.8440  137.7410 C   0  0  0  0  0  2  0  0  0  0  0  0
  188.3870  177.8940  141.0350 C   0  0  0  0  0  3  0  0  0  0  0  0
  188.0810  177.8840  142.3380 C   0  0  0  0  0  3  0  0  0  0  0  0
  191.3750  177.7120  144.3310 C   0  0  0  0  0  2  0  0  0  0  0  0
  189.0180  177.8260  143.4740 C   0  0  0  0  0  0  0  0  0  0  0  0
  189.4640  177.1600  145.7900 C   0  0  0  0  0  0  0  0  0  0  0  0
  190.3820  178.4850  143.4530 C   0  0  0  0  0  2  0  0  0  0  0  0
  188.5830  177.2640  144.6100 C   0  0  0  0  0  3  0  0  0  0  0  0
  188.9170  176.8120  147.0550 N   0  0  0  0  0  1  0  0  0  0  0  0
  190.7720  177.4170  145.6770 C   0  0  0  0  0  3  0  0  0  0  0  0
  1  6  2  0  0  0  0
  2  1  1  0  0  0  0
  4 10  1  0  0  0  0
  5  9  1  0  0  0  0
  6 12  1  0  0  0  0
  7 11  1  0  0  0  0
  7  5  1  0  0  0  0
  8 10  1  0  0  0  0
  9  3  1  0  0  0  0
 10 20  1  6  0  0  0
 11  1  1  0  0  0  0
 12  3  1  6  0  0  0
 12  8  1  0  0  0  0
 12  4  1  0  0  0  0
 13  2  1  6  0  0  0
 13 15  1  0  0  0  0
 14 19  1  0  0  0  0
 15 19  1  0  0  0  0
 17 16  1  6  0  0  0
 17 13  1  0  0  0  0
 18 17  1  0  0  0  0
 18 14  1  0  0  0  0
 20 21  2  0  0  0  0
 21 23  1  0  0  0  0
 22 28  1  0  0  0  0
 23 26  2  0  0  0  0
 24 27  1  0  0  0  0
 25 23  1  0  0  0  0
 25 22  1  0  0  0  0
 26 24  1  0  0  0  0
 28 24  2  0  0  0  0
M  END
>  <MODEL>
2

>  <REMARK>
 VINA RESULT:      -7.9      2.404      3.373
  Name = 
  3 active torsions:
  status: ('A' for Active; 'I' for Inactive)
    1  A    between atoms: N_2  and  C_3
    2  A    between atoms: C_9  and  C_18
    3  A    between atoms: C_14  and  C_25
                            x       y       z     vdW  Elec       q    Type
                         _______ _______ _______ _____ _____    ______ ____

>  <TORSDO>
F 3

$$$$
=
 OpenBabel11052413223D

 28 31  0  0  1  0  0  0  0  0999 V2000
  187.2630  176.4900  137.5840 C   0  0  0  0  0  0  0  0  0  0  0  0
  186.9170  175.2240  137.0160 N   0  0  0  0  0  2  0  0  0  0  0  0
  188.4860  179.1410  138.5220 C   0  0  0  0  0  2  0  0  0  0  0  0
  190.2440  177.5650  139.4790 C   0  0  0  0  0  2  0  0  0  0  0  0
  188.5960  178.3470  136.0930 C   0  0  0  0  0  2  0  0  0  0  0  0
  188.2520  176.5730  138.4310 N   0  0  0  0  0  0  0  0  0  0  0  0
  187.1910  178.3090  135.9350 O   0  0  0  0  0  0  0  0  0  0  0  0
  188.4220  177.7190  140.6030 C   0  0  0  0  0  2  0  0  0  0  0  0
  189.0640  179.3780  137.1250 C   0  0  0  0  0  2  0  0  0  0  0  0
  189.8840  177.5070  140.9580 C   0  0  1  0  0  3  0  0  0  0  0  0
  186.5640  177.7180  137.0650 C   0  0  0  0  0  2  0  0  0  0  0  0
  188.7820  177.7590  139.1300 C   0  0  2  0  0  0  0  0  0  0  0  0
  187.6470  173.9940  137.3120 C   0  0  2  0  0  3  0  0  0  0  0  0
  187.9130  171.4130  136.0010 C   0  0  0  0  0  2  0  0  0  0  0  0
  188.7530  173.8060  136.2640 C   0  0  0  0  0  2  0  0  0  0  0  0
  185.3490  173.1260  137.7280 N   0  0  0  0  0  1  0  0  0  0  0  0
  186.7050  172.7690  137.3340 C   0  0  1  0  0  3  0  0  0  0  0  0
  186.6980  172.1290  136.0800 O   0  0  0  0  0  0  0  0  0  0  0  0
  189.1470  172.3370  136.1010 C   0  0  0  0  0  2  0  0  0  0  0  0
  190.0640  176.1170  141.4860 C   0  0  0  0  0  3  0  0  0  0  0  0
  189.8310  175.7230  142.7430 C   0  0  0  0  0  3  0  0  0  0  0  0
  189.6290  177.4500  146.1830 C   0  0  0  0  0  2  0  0  0  0  0  0
  189.3330  176.5470  143.8590 C   0  0  0  0  0  0  0  0  0  0  0  0
  187.4300  177.5040  145.0700 C   0  0  0  0  0  0  0  0  0  0  0  0
  190.2470  177.3230  144.7840 C   0  0  0  0  0  2  0  0  0  0  0  0
  188.0070  176.7000  143.9740 C   0  0  0  0  0  3  0  0  0  0  0  0
  186.0580  177.8780  145.0280 N   0  0  0  0  0  1  0  0  0  0  0  0
  188.1980  177.9010  146.0890 C   0  0  0  0  0  3  0  0  0  0  0  0
  1  6  2  0  0  0  0
  2  1  1  0  0  0  0
  4 10  1  0  0  0  0
  5  9  1  0  0  0  0
  6 12  1  0  0  0  0
  7  5  1  0  0  0  0
  7 11  1  0  0  0  0
  8 10  1  0  0  0  0
  9  3  1  0  0  0  0
 10 20  1  6  0  0  0
 11  1  1  0  0  0  0
 12  3  1  6  0  0  0
 12  4  1  0  0  0  0
 12  8  1  0  0  0  0
 13  2  1  6  0  0  0
 13 17  1  0  0  0  0
 14 18  1  0  0  0  0
 14 19  1  0  0  0  0
 15 13  1  0  0  0  0
 17 16  1  6  0  0  0
 18 17  1  0  0  0  0
 19 15  1  0  0  0  0
 20 21  2  0  0  0  0
 21 23  1  0  0  0  0
 23 26  2  0  0  0  0
 23 25  1  0  0  0  0
 24 28  2  0  0  0  0
 25 22  1  0  0  0  0
 26 24  1  0  0  0  0
 27 24  1  0  0  0  0
 28 22  1  0  0  0  0
M  END
>  <MODEL>
3

>  <REMARK>
 VINA RESULT:      -7.3      3.032      4.272
  Name = 
  3 active torsions:
  status: ('A' for Active; 'I' for Inactive)
    1  A    between atoms: N_2  and  C_3
    2  A    between atoms: C_9  and  C_18
    3  A    between atoms: C_14  and  C_25
                            x       y       z     vdW  Elec       q    Type
                         _______ _______ _______ _____ _____    ______ ____

>  <TORSDO>
F 3

$$$$
=
 OpenBabel11052413223D

 28 31  0  0  1  0  0  0  0  0999 V2000
  183.0860  176.6820  138.4540 C   0  0  0  0  0  0  0  0  0  0  0  0
  183.6320  175.7880  137.4800 N   0  0  0  0  0  2  0  0  0  0  0  0
  182.1280  179.0000  140.2170 C   0  0  0  0  0  2  0  0  0  0  0  0
  184.6320  179.4540  140.3390 C   0  0  0  0  0  2  0  0  0  0  0  0
  181.9000  179.0110  137.6690 C   0  0  0  0  0  2  0  0  0  0  0  0
  183.8820  177.4210  139.1760 N   0  0  0  0  0  0  0  0  0  0  0  0
  181.0880  177.8530  137.6350 O   0  0  0  0  0  0  0  0  0  0  0  0
  183.9100  177.8710  141.5960 C   0  0  0  0  0  2  0  0  0  0  0  0
  181.7650  179.8090  138.9690 C   0  0  0  0  0  2  0  0  0  0  0  0
  185.0110  178.9100  141.7110 C   0  0  1  0  0  3  0  0  0  0  0  0
  181.5910  176.8500  138.5060 C   0  0  0  0  0  2  0  0  0  0  0  0
  183.5460  178.4030  140.2230 C   0  0  2  0  0  0  0  0  0  0  0  0
  185.0640  175.6770  137.2190 C   0  0  2  0  0  3  0  0  0  0  0  0
  186.6700  174.4310  135.1390 C   0  0  0  0  0  2  0  0  0  0  0  0
  185.4060  176.4880  135.9600 C   0  0  0  0  0  2  0  0  0  0  0  0
  184.6480  173.2920  137.8050 N   0  0  0  0  0  1  0  0  0  0  0  0
  185.4960  174.2030  137.0490 C   0  0  1  0  0  3  0  0  0  0  0  0
  185.5070  173.8460  135.6870 O   0  0  0  0  0  0  0  0  0  0  0  0
  186.6680  175.9700  135.2680 C   0  0  0  0  0  2  0  0  0  0  0  0
  186.3420  178.2250  141.6520 C   0  0  0  0  0  3  0  0  0  0  0  0
  187.0660  177.8330  142.7060 C   0  0  0  0  0  3  0  0  0  0  0  0
  185.3620  179.0780  145.9310 C   0  0  0  0  0  2  0  0  0  0  0  0
  186.7120  177.9650  144.1310 C   0  0  0  0  0  0  0  0  0  0  0  0
  187.3750  177.7650  146.4810 C   0  0  0  0  0  0  0  0  0  0  0  0
  185.3150  178.3060  144.6050 C   0  0  0  0  0  2  0  0  0  0  0  0
  187.6500  177.6510  145.0360 C   0  0  0  0  0  3  0  0  0  0  0  0
  188.2690  177.1820  147.4210 N   0  0  0  0  0  1  0  0  0  0  0  0
  186.2750  178.3930  146.9090 C   0  0  0  0  0  3  0  0  0  0  0  0
  1 11  1  0  0  0  0
  1  6  2  0  0  0  0
  2  1  1  0  0  0  0
  4 10  1  0  0  0  0
  5  9  1  0  0  0  0
  6 12  1  0  0  0  0
  7  5  1  0  0  0  0
  7 11  1  0  0  0  0
  8 10  1  0  0  0  0
  9  3  1  0  0  0  0
 10 20  1  6  0  0  0
 12  3  1  6  0  0  0
 12  4  1  0  0  0  0
 12  8  1  0  0  0  0
 13  2  1  6  0  0  0
 14 19  1  0  0  0  0
 14 18  1  0  0  0  0
 15 13  1  0  0  0  0
 17 13  1  0  0  0  0
 17 16  1  1  0  0  0
 18 17  1  0  0  0  0
 19 15  1  0  0  0  0
 20 21  2  0  0  0  0
 21 23  1  0  0  0  0
 22 28  1  0  0  0  0
 23 25  1  0  0  0  0
 23 26  2  0  0  0  0
 24 28  2  0  0  0  0
 24 27  1  0  0  0  0
 25 22  1  0  0  0  0
 26 24  1  0  0  0  0
M  END
>  <MODEL>
4

>  <REMARK>
 VINA RESULT:      -7.2      2.860      5.161
  Name = 
  3 active torsions:
  status: ('A' for Active; 'I' for Inactive)
    1  A    between atoms: N_2  and  C_3
    2  A    between atoms: C_9  and  C_18
    3  A    between atoms: C_14  and  C_25
                            x       y       z     vdW  Elec       q    Type
                         _______ _______ _______ _____ _____    ______ ____

>  <TORSDO>
F 3

$$$$
=
 OpenBabel11052413223D

 28 31  0  0  1  0  0  0  0  0999 V2000
  189.3070  175.6690  137.1830 C   0  0  0  0  0  0  0  0  0  0  0  0
  190.3410  174.8190  136.6800 N   0  0  0  0  0  2  0  0  0  0  0  0
  187.4170  177.9100  138.0830 C   0  0  0  0  0  2  0  0  0  0  0  0
  189.4430  178.5470  139.4910 C   0  0  0  0  0  2  0  0  0  0  0  0
  188.5720  177.9050  135.8010 C   0  0  0  0  0  2  0  0  0  0  0  0
  189.5520  176.4640  138.1870 N   0  0  0  0  0  0  0  0  0  0  0  0
  187.9770  176.6900  135.3880 O   0  0  0  0  0  0  0  0  0  0  0  0
  188.2660  176.9140  140.2370 C   0  0  0  0  0  2  0  0  0  0  0  0
  187.7200  178.6900  136.8020 C   0  0  0  0  0  2  0  0  0  0  0  0
  189.0720  178.0320  140.8760 C   0  0  1  0  0  3  0  0  0  0  0  0
  188.0040  175.7260  136.4320 C   0  0  0  0  0  2  0  0  0  0  0  0
  188.6520  177.4190  138.8600 C   0  0  2  0  0  0  0  0  0  0  0  0
  191.6980  174.8140  137.2180 C   0  0  2  0  0  3  0  0  0  0  0  0
  194.3540  175.0740  136.0630 C   0  0  0  0  0  2  0  0  0  0  0  0
  192.3030  176.2170  137.0590 C   0  0  0  0  0  2  0  0  0  0  0  0
  191.8040  172.6270  136.0300 N   0  0  0  0  0  1  0  0  0  0  0  0
  192.5820  173.7590  136.5160 C   0  0  1  0  0  3  0  0  0  0  0  0
  193.3060  174.3450  135.4600 O   0  0  0  0  0  0  0  0  0  0  0  0
  193.8320  176.1810  137.0060 C   0  0  0  0  0  2  0  0  0  0  0  0
  190.2720  177.4470  141.5550 C   0  0  0  0  0  3  0  0  0  0  0  0
  190.3380  177.0690  142.8370 C   0  0  0  0  0  3  0  0  0  0  0  0
  186.8130  177.2930  144.3780 C   0  0  0  0  0  2  0  0  0  0  0  0
  189.2590  177.1210  143.8390 C   0  0  0  0  0  0  0  0  0  0  0  0
  188.5260  177.7160  146.1000 C   0  0  0  0  0  0  0  0  0  0  0  0
  187.8900  176.5160  143.6080 C   0  0  0  0  0  2  0  0  0  0  0  0
  189.5550  177.6230  145.0460 C   0  0  0  0  0  3  0  0  0  0  0  0
  188.9090  177.9950  147.4410 N   0  0  0  0  0  1  0  0  0  0  0  0
  187.2390  177.5140  145.8030 C   0  0  0  0  0  3  0  0  0  0  0  0
  1  6  2  0  0  0  0
  2  1  1  0  0  0  0
  4 10  1  0  0  0  0
  5  9  1  0  0  0  0
  6 12  1  0  0  0  0
  7  5  1  0  0  0  0
  7 11  1  0  0  0  0
  8 10  1  0  0  0  0
  9  3  1  0  0  0  0
 10 20  1  6  0  0  0
 11  1  1  0  0  0  0
 12  3  1  6  0  0  0
 12  4  1  0  0  0  0
 12  8  1  0  0  0  0
 13  2  1  6  0  0  0
 14 19  1  0  0  0  0
 15 13  1  0  0  0  0
 17 16  1  6  0  0  0
 17 13  1  0  0  0  0
 18 14  1  0  0  0  0
 18 17  1  0  0  0  0
 19 15  1  0  0  0  0
 20 21  2  0  0  0  0
 21 23  1  0  0  0  0
 22 28  1  0  0  0  0
 23 26  2  0  0  0  0
 24 27  1  0  0  0  0
 25 23  1  0  0  0  0
 25 22  1  0  0  0  0
 26 24  1  0  0  0  0
 28 24  2  0  0  0  0
M  END
>  <MODEL>
5

>  <REMARK>
 VINA RESULT:      -7.2      2.944      5.731
  Name = 
  3 active torsions:
  status: ('A' for Active; 'I' for Inactive)
    1  A    between atoms: N_2  and  C_3
    2  A    between atoms: C_9  and  C_18
    3  A    between atoms: C_14  and  C_25
                            x       y       z     vdW  Elec       q    Type
                         _______ _______ _______ _____ _____    ______ ____

>  <TORSDO>
F 3

$$$$
=
 OpenBabel11052413223D

 28 31  0  0  1  0  0  0  0  0999 V2000
  186.7890  177.8420  137.1940 C   0  0  0  0  0  0  0  0  0  0  0  0
  185.4290  177.4940  136.9240 N   0  0  0  0  0  2  0  0  0  0  0  0
  189.7900  178.0360  137.7960 C   0  0  0  0  0  2  0  0  0  0  0  0
  189.0730  176.7830  139.8950 C   0  0  0  0  0  2  0  0  0  0  0  0
  188.8240  176.4080  136.0760 C   0  0  0  0  0  2  0  0  0  0  0  0
  187.3180  177.5450  138.3490 N   0  0  0  0  0  0  0  0  0  0  0  0
  188.2630  177.4280  135.2730 O   0  0  0  0  0  0  0  0  0  0  0  0
  188.6830  178.8930  139.8910 C   0  0  0  0  0  2  0  0  0  0  0  0
  190.0620  176.8590  136.8560 C   0  0  0  0  0  2  0  0  0  0  0  0
  189.0540  177.8760  140.9560 C   0  0  1  0  0  3  0  0  0  0  0  0
  187.6150  178.4090  136.0720 C   0  0  0  0  0  2  0  0  0  0  0  0
  188.6850  177.8000  138.8400 C   0  0  2  0  0  0  0  0  0  0  0  0
  184.5870  176.7780  137.8780 C   0  0  2  0  0  3  0  0  0  0  0  0
  181.7200  176.5660  138.3150 C   0  0  0  0  0  2  0  0  0  0  0  0
  183.8030  175.6890  137.1320 C   0  0  0  0  0  2  0  0  0  0  0  0
  184.1680  179.0810  138.7290 N   0  0  0  0  0  1  0  0  0  0  0  0
  183.6220  177.7360  138.6130 C   0  0  1  0  0  3  0  0  0  0  0  0
  182.3720  177.7690  137.9660 O   0  0  0  0  0  0  0  0  0  0  0  0
  182.5060  175.3180  137.8540 C   0  0  0  0  0  2  0  0  0  0  0  0
  187.8920  177.6860  141.8820 C   0  0  0  0  0  3  0  0  0  0  0  0
  187.9630  177.5830  143.2140 C   0  0  0  0  0  3  0  0  0  0  0  0
  191.6570  177.9690  144.2430 C   0  0  0  0  0  2  0  0  0  0  0  0
  189.1740  177.6550  144.0520 C   0  0  0  0  0  0  0  0  0  0  0  0
  190.3570  176.9740  146.0860 C   0  0  0  0  0  0  0  0  0  0  0  0
  190.3380  178.5720  143.7410 C   0  0  0  0  0  2  0  0  0  0  0  0
  189.1780  176.9600  145.1970 C   0  0  0  0  0  3  0  0  0  0  0  0
  190.2530  176.4600  147.4080 N   0  0  0  0  0  1  0  0  0  0  0  0
  191.5140  177.4920  145.6610 C   0  0  0  0  0  3  0  0  0  0  0  0
  1  6  2  0  0  0  0
  2  1  1  0  0  0  0
  4 10  1  0  0  0  0
  5  9  1  0  0  0  0
  6 12  1  0  0  0  0
  7 11  1  0  0  0  0
  7  5  1  0  0  0  0
  8 10  1  0  0  0  0
  9  3  1  0  0  0  0
 10 20  1  1  0  0  0
 11  1  1  0  0  0  0
 12  3  1  6  0  0  0
 12  8  1  0  0  0  0
 12  4  1  0  0  0  0
 13  2  1  6  0  0  0
 13 17  1  0  0  0  0
 15 19  1  0  0  0  0
 15 13  1  0  0  0  0
 17 16  1  6  0  0  0
 18 14  1  0  0  0  0
 18 17  1  0  0  0  0
 19 14  1  0  0  0  0
 20 21  2  0  0  0  0
 21 23  1  0  0  0  0
 22 28  1  0  0  0  0
 23 26  2  0  0  0  0
 24 27  1  0  0  0  0
 25 23  1  0  0  0  0
 25 22  1  0  0  0  0
 26 24  1  0  0  0  0
 28 24  2  0  0  0  0
M  END
>  <MODEL>
6

>  <REMARK>
 VINA RESULT:      -7.0      1.620      2.339
  Name = 
  3 active torsions:
  status: ('A' for Active; 'I' for Inactive)
    1  A    between atoms: N_2  and  C_3
    2  A    between atoms: C_9  and  C_18
    3  A    between atoms: C_14  and  C_25
                            x       y       z     vdW  Elec       q    Type
                         _______ _______ _______ _____ _____    ______ ____

>  <TORSDO>
F 3

$$$$
=
 OpenBabel11052413223D

 28 31  0  0  1  0  0  0  0  0999 V2000
  189.3560  177.8850  138.6530 C   0  0  0  0  0  0  0  0  0  0  0  0
  189.3970  178.0720  140.0700 N   0  0  0  0  0  2  0  0  0  0  0  0
  188.8540  177.1270  135.7250 C   0  0  0  0  0  2  0  0  0  0  0  0
  189.4480  174.8120  136.6090 C   0  0  0  0  0  2  0  0  0  0  0  0
  186.9620  177.6470  137.3660 C   0  0  0  0  0  2  0  0  0  0  0  0
  189.6590  176.7230  138.1430 N   0  0  0  0  0  0  0  0  0  0  0  0
  187.4080  178.9650  137.6200 O   0  0  0  0  0  0  0  0  0  0  0  0
  191.1070  176.1240  136.2450 C   0  0  0  0  0  2  0  0  0  0  0  0
  187.3430  177.1340  135.9750 C   0  0  0  0  0  2  0  0  0  0  0  0
  190.8850  174.6250  136.1400 C   0  0  1  0  0  3  0  0  0  0  0  0
  188.8160  179.0030  137.8030 C   0  0  0  0  0  2  0  0  0  0  0  0
  189.6810  176.3050  136.7290 C   0  0  2  0  0  0  0  0  0  0  0  0
  189.7330  177.0010  141.0040 C   0  0  2  0  0  3  0  0  0  0  0  0
  190.7310  176.9100  143.7340 C   0  0  0  0  0  2  0  0  0  0  0  0
  188.7250  177.0140  142.1620 C   0  0  0  0  0  2  0  0  0  0  0  0
  192.0500  177.8130  140.5820 N   0  0  0  0  0  1  0  0  0  0  0  0
  191.1760  177.1480  141.5380 C   0  0  1  0  0  3  0  0  0  0  0  0
  191.1800  177.8360  142.7670 O   0  0  0  0  0  0  0  0  0  0  0  0
  189.3050  176.3960  143.4360 C   0  0  0  0  0  2  0  0  0  0  0  0
  191.6930  173.9330  137.1940 C   0  0  0  0  0  3  0  0  0  0  0  0
  193.0270  173.8370  137.2180 C   0  0  0  0  0  3  0  0  0  0  0  0
  195.8840  174.0710  134.6410 C   0  0  0  0  0  2  0  0  0  0  0  0
  193.9810  174.4000  136.2450 C   0  0  0  0  0  0  0  0  0  0  0  0
  195.2890  176.3190  135.4630 C   0  0  0  0  0  0  0  0  0  0  0  0
  194.4630  173.6380  135.0280 C   0  0  0  0  0  2  0  0  0  0  0  0
  194.3330  175.6850  136.3920 C   0  0  0  0  0  3  0  0  0  0  0  0
  195.4480  177.7320  135.4650 N   0  0  0  0  0  1  0  0  0  0  0  0
  195.9870  175.5710  134.6020 C   0  0  0  0  0  3  0  0  0  0  0  0
  1  2  1  0  0  0  0
  3  9  1  0  0  0  0
  4 12  1  0  0  0  0
  5  7  1  0  0  0  0
  6  1  2  0  0  0  0
  7 11  1  0  0  0  0
  8 12  1  0  0  0  0
  9  5  1  0  0  0  0
 10  8  1  0  0  0  0
 10  4  1  0  0  0  0
 10 20  1  1  0  0  0
 11  1  1  0  0  0  0
 12  3  1  6  0  0  0
 12  6  1  0  0  0  0
 13  2  1  6  0  0  0
 13 17  1  0  0  0  0
 13 15  1  0  0  0  0
 15 19  1  0  0  0  0
 17 16  1  6  0  0  0
 17 18  1  0  0  0  0
 18 14  1  0  0  0  0
 19 14  1  0  0  0  0
 20 21  2  0  0  0  0
 22 25  1  0  0  0  0
 23 26  2  0  0  0  0
 23 21  1  0  0  0  0
 24 27  1  0  0  0  0
 24 26  1  0  0  0  0
 25 23  1  0  0  0  0
 28 22  1  0  0  0  0
 28 24  2  0  0  0  0
M  END
>  <MODEL>
7

>  <REMARK>
 VINA RESULT:      -6.9      4.027      8.797
  Name = 
  3 active torsions:
  status: ('A' for Active; 'I' for Inactive)
    1  A    between atoms: N_2  and  C_3
    2  A    between atoms: C_9  and  C_18
    3  A    between atoms: C_14  and  C_25
                            x       y       z     vdW  Elec       q    Type
                         _______ _______ _______ _____ _____    ______ ____

>  <TORSDO>
F 3

$$$$
=
 OpenBabel11052413223D

 28 31  0  0  1  0  0  0  0  0999 V2000
  190.4270  177.3730  140.5190 C   0  0  0  0  0  0  0  0  0  0  0  0
  190.7710  176.7720  139.2680 N   0  0  0  0  0  2  0  0  0  0  0  0
  189.4980  178.1530  143.3350 C   0  0  0  0  0  2  0  0  0  0  0  0
  187.2480  177.4120  142.3970 C   0  0  0  0  0  2  0  0  0  0  0  0
  190.7970  176.0040  142.8510 C   0  0  0  0  0  2  0  0  0  0  0  0
  189.1740  177.4730  140.8670 N   0  0  0  0  0  0  0  0  0  0  0  0
  191.9270  176.6820  142.3360 O   0  0  0  0  0  0  0  0  0  0  0  0
  187.9080  179.3660  141.8020 C   0  0  0  0  0  2  0  0  0  0  0  0
  190.0160  176.8200  143.8830 C   0  0  0  0  0  2  0  0  0  0  0  0
  186.5560  178.7330  142.0850 C   0  0  1  0  0  3  0  0  0  0  0  0
  191.5400  177.7350  141.4650 C   0  0  0  0  0  2  0  0  0  0  0  0
  188.5920  178.0450  142.0960 C   0  0  2  0  0  0  0  0  0  0  0  0
  189.7780  176.2200  138.3510 C   0  0  2  0  0  3  0  0  0  0  0  0
  189.5740  175.9900  135.4600 C   0  0  0  0  0  2  0  0  0  0  0  0
  190.3680  174.9800  137.6630 C   0  0  0  0  0  2  0  0  0  0  0  0
  189.4310  178.6260  137.8090 N   0  0  0  0  0  1  0  0  0  0  0  0
  189.3350  177.2650  137.3020 C   0  0  1  0  0  3  0  0  0  0  0  0
  190.0880  177.1270  136.1200 O   0  0  0  0  0  0  0  0  0  0  0  0
  189.7100  174.7060  136.3090 C   0  0  0  0  0  2  0  0  0  0  0  0
  185.7840  178.6290  140.8050 C   0  0  0  0  0  3  0  0  0  0  0  0
  184.4520  178.5750  140.6990 C   0  0  0  0  0  3  0  0  0  0  0  0
  181.1180  179.0540  142.5710 C   0  0  0  0  0  2  0  0  0  0  0  0
  183.4660  178.6280  141.7930 C   0  0  0  0  0  0  0  0  0  0  0  0
  182.9920  178.9790  144.1710 C   0  0  0  0  0  0  0  0  0  0  0  0
  182.0090  178.2580  141.6080 C   0  0  0  0  0  2  0  0  0  0  0  0
  183.9180  178.9010  143.0240 C   0  0  0  0  0  3  0  0  0  0  0  0
  183.5070  179.0030  145.4970 N   0  0  0  0  0  1  0  0  0  0  0  0
  181.6710  179.0030  143.9680 C   0  0  0  0  0  3  0  0  0  0  0  0
  1  6  2  0  0  0  0
  1 11  1  0  0  0  0
  2  1  1  0  0  0  0
  3  9  1  0  0  0  0
  5  9  1  0  0  0  0
  6 12  1  0  0  0  0
  7  5  1  0  0  0  0
  8 10  1  0  0  0  0
 10 20  1  6  0  0  0
 10  4  1  0  0  0  0
 11  7  1  0  0  0  0
 12  8  1  6  0  0  0
 12  4  1  0  0  0  0
 12  3  1  0  0  0  0
 13  2  1  1  0  0  0
 14 18  1  0  0  0  0
 14 19  1  0  0  0  0
 15 13  1  0  0  0  0
 17 16  1  1  0  0  0
 17 13  1  0  0  0  0
 18 17  1  0  0  0  0
 19 15  1  0  0  0  0
 21 20  2  0  0  0  0
 21 23  1  0  0  0  0
 22 28  1  0  0  0  0
 23 26  2  0  0  0  0
 24 27  1  0  0  0  0
 25 23  1  0  0  0  0
 25 22  1  0  0  0  0
 26 24  1  0  0  0  0
 28 24  2  0  0  0  0
M  END
>  <MODEL>
8

>  <REMARK>
 VINA RESULT:      -6.9      3.278      5.503
  Name = 
  3 active torsions:
  status: ('A' for Active; 'I' for Inactive)
    1  A    between atoms: N_2  and  C_3
    2  A    between atoms: C_9  and  C_18
    3  A    between atoms: C_14  and  C_25
                            x       y       z     vdW  Elec       q    Type
                         _______ _______ _______ _____ _____    ______ ____

>  <TORSDO>
F 3

$$$$
=
 OpenBabel11052413223D

 28 31  0  0  1  0  0  0  0  0999 V2000
  188.5630  178.0520  141.0440 C   0  0  0  0  0  0  0  0  0  0  0  0
  189.2380  177.7130  139.8300 N   0  0  0  0  0  2  0  0  0  0  0  0
  186.9340  178.2510  143.6340 C   0  0  0  0  0  2  0  0  0  0  0  0
  185.0320  177.6600  142.0470 C   0  0  0  0  0  2  0  0  0  0  0  0
  188.4550  176.2650  143.1030 C   0  0  0  0  0  2  0  0  0  0  0  0
  187.2590  178.0570  141.0820 N   0  0  0  0  0  0  0  0  0  0  0  0
  189.6270  177.0530  143.0200 O   0  0  0  0  0  0  0  0  0  0  0  0
  185.6800  179.7060  142.0030 C   0  0  0  0  0  2  0  0  0  0  0  0
  187.3950  176.8490  144.0400 C   0  0  0  0  0  2  0  0  0  0  0  0
  184.3470  179.0020  141.8190 C   0  0  1  0  0  3  0  0  0  0  0  0
  189.3890  178.2470  142.2870 C   0  0  0  0  0  2  0  0  0  0  0  0
  186.3620  178.3670  142.2110 C   0  0  2  0  0  0  0  0  0  0  0  0
  188.5340  177.3300  138.6100 C   0  0  2  0  0  3  0  0  0  0  0  0
  189.3320  176.8620  135.8530 C   0  0  0  0  0  2  0  0  0  0  0  0
  188.9820  175.9200  138.1970 C   0  0  0  0  0  2  0  0  0  0  0  0
  189.0560  179.6790  137.9680 N   0  0  0  0  0  1  0  0  0  0  0  0
  188.7920  178.3380  137.4670 C   0  0  1  0  0  3  0  0  0  0  0  0
  189.8550  177.9010  136.6540 O   0  0  0  0  0  0  0  0  0  0  0  0
  188.8090  175.6780  136.6970 C   0  0  0  0  0  2  0  0  0  0  0  0
  183.9140  179.1330  140.3910 C   0  0  0  0  0  3  0  0  0  0  0  0
  182.6620  178.9930  139.9380 C   0  0  0  0  0  3  0  0  0  0  0  0
  180.0770  179.0950  142.7950 C   0  0  0  0  0  2  0  0  0  0  0  0
  181.4530  178.7080  140.7310 C   0  0  0  0  0  0  0  0  0  0  0  0
  179.6730  177.1400  141.3470 C   0  0  0  0  0  0  0  0  0  0  0  0
  180.7650  179.7490  141.5880 C   0  0  0  0  0  2  0  0  0  0  0  0
  180.8820  177.5040  140.5820 C   0  0  0  0  0  3  0  0  0  0  0  0
  178.9310  175.9810  140.9890 N   0  0  0  0  0  1  0  0  0  0  0  0
  179.2600  177.9100  142.3590 C   0  0  0  0  0  3  0  0  0  0  0  0
  1  6  2  0  0  0  0
  1 11  1  0  0  0  0
  2  1  1  0  0  0  0
  3  9  1  0  0  0  0
  4 12  1  0  0  0  0
  5  9  1  0  0  0  0
  6 12  1  0  0  0  0
  7  5  1  0  0  0  0
 10 20  1  6  0  0  0
 10  8  1  0  0  0  0
 10  4  1  0  0  0  0
 11  7  1  0  0  0  0
 12  8  1  6  0  0  0
 12  3  1  0  0  0  0
 13  2  1  1  0  0  0
 14 18  1  0  0  0  0
 14 19  1  0  0  0  0
 15 13  1  0  0  0  0
 17 16  1  1  0  0  0
 17 13  1  0  0  0  0
 18 17  1  0  0  0  0
 19 15  1  0  0  0  0
 21 20  2  0  0  0  0
 21 23  1  0  0  0  0
 23 25  1  0  0  0  0
 24 28  2  0  0  0  0
 25 22  1  0  0  0  0
 26 23  2  0  0  0  0
 26 24  1  0  0  0  0
 27 24  1  0  0  0  0
 28 22  1  0  0  0  0
M  END
>  <MODEL>
9

>  <REMARK>
 VINA RESULT:      -6.7      3.151      6.665
  Name = 
  3 active torsions:
  status: ('A' for Active; 'I' for Inactive)
    1  A    between atoms: N_2  and  C_3
    2  A    between atoms: C_9  and  C_18
    3  A    between atoms: C_14  and  C_25
                            x       y       z     vdW  Elec       q    Type
                         _______ _______ _______ _____ _____    ______ ____

>  <TORSDO>
F 3

$$$$
