=
 OpenBabel11052414283D

 32 37  0  0  1  0  0  0  0  0999 V2000
  189.3190  177.2110  139.4190 C   0  0  2  0  0  0  0  0  0  0  0  0
  188.6710  177.7730  141.8490 C   0  0  2  0  0  3  0  0  0  0  0  0
  188.7600  176.4600  136.2720 O   0  0  0  0  0  1  0  0  0  0  0  0
  188.8600  176.2070  138.5400 O   0  0  0  0  0  0  0  0  0  0  0  0
  189.1640  176.6950  140.8650 C   0  0  2  0  0  3  0  0  0  0  0  0
  188.5380  177.2040  143.2850 C   0  0  2  0  0  3  0  0  0  0  0  0
  183.7370  179.0740  142.3840 C   0  0  0  0  0  2  0  0  0  0  0  0
  187.3950  178.3930  141.3090 C   0  0  0  0  0  0  0  0  0  0  0  0
  185.0650  178.3540  144.3890 C   0  0  0  0  0  2  0  0  0  0  0  0
  186.1720  177.8650  143.4620 C   0  0  2  0  0  3  0  0  0  0  0  0
  190.5490  176.2430  141.2040 C   0  0  0  0  0  2  0  0  0  0  0  0
  188.1780  178.3610  137.6600 C   0  0  2  0  0  0  0  0  0  0  0  0
  187.5090  177.9120  144.1650 C   0  0  0  0  0  2  0  0  0  0  0  0
  188.1460  176.8140  137.4790 C   0  0  1  0  0  0  0  0  0  0  0  0
  191.4120  177.0990  140.3200 C   0  0  0  0  0  2  0  0  0  0  0  0
  189.3010  179.0300  136.8540 C   0  0  0  0  0  1  0  0  0  0  0  0
  187.3770  178.7540  140.0220 C   0  0  0  0  0  3  0  0  0  0  0  0
  188.5610  178.5150  139.1150 C   0  0  1  0  0  3  0  0  0  0  0  0
  186.2110  178.7270  142.1980 C   0  0  2  0  0  3  0  0  0  0  0  0
  190.6910  177.4290  139.1580 O   0  0  0  0  0  0  0  0  0  0  0  0
  183.7170  178.2590  143.6760 C   0  0  0  0  0  2  0  0  0  0  0  0
  184.8670  178.6010  141.4720 C   0  0  0  0  0  2  0  0  0  0  0  0
  186.0180  176.6880  136.3370 O   0  0  0  0  0  1  0  0  0  0  0  0
  186.7140  176.2380  137.4630 C   0  0  1  0  0  3  0  0  0  0  0  0
  186.7210  174.7830  137.4730 N   0  0  0  0  0  2  0  0  0  0  0  0
  185.4620  174.3780  137.1860 O   0  0  0  0  0  1  0  0  0  0  0  0
  187.1890  179.9800  136.5350 O   0  0  0  0  0  1  0  0  0  0  0  0
  186.9420  178.9910  137.3780 O   0  0  0  0  0  0  0  0  0  0  0  0
  189.7800  177.0420  143.9400 O   0  0  0  0  0  0  0  0  0  0  0  0
  191.6000  178.5770  143.9680 C   0  0  0  0  0  2  0  0  0  0  0  0
  190.1920  178.2870  144.4470 C   0  0  0  0  0  3  0  0  0  0  0  0
  191.3690  178.0790  145.3770 C   0  0  0  0  0  2  0  0  0  0  0  0
  1  4  1  6  0  0  0
  1  5  1  0  0  0  0
  2  8  1  6  0  0  0
  2  6  1  0  0  0  0
  5 11  1  1  0  0  0
  5  2  1  0  0  0  0
  6 29  1  1  0  0  0
  6 13  1  0  0  0  0
  7 21  1  0  0  0  0
  8 19  1  0  0  0  0
 10 13  1  1  0  0  0
 10  9  1  0  0  0  0
 12 16  1  6  0  0  0
 12 18  1  0  0  0  0
 14  3  1  6  0  0  0
 14 12  1  0  0  0  0
 14  4  1  0  0  0  0
 15 11  1  0  0  0  0
 17  8  2  0  0  0  0
 18  1  1  0  0  0  0
 18 17  1  1  0  0  0
 19 22  1  6  0  0  0
 19 10  1  0  0  0  0
 20  1  1  0  0  0  0
 20 15  1  0  0  0  0
 21  9  1  0  0  0  0
 22  7  1  0  0  0  0
 24 23  1  6  0  0  0
 24 25  1  0  0  0  0
 24 14  1  0  0  0  0
 26 25  1  0  0  0  0
 27 28  1  0  0  0  0
 28 12  1  0  0  0  0
 29 31  1  0  0  0  0
 30 31  1  0  0  0  0
 30 32  1  0  0  0  0
 31 32  1  0  0  0  0
M  END
>  <MODEL>
1

>  <REMARK>
 VINA RESULT:      -7.0      0.000      0.000
  Name = 
  5 active torsions:
  status: ('A' for Active; 'I' for Inactive)
    1  A    between atoms: C_6  and  O_29
    2  A    between atoms: N_15  and  C_26
    3  A    between atoms: C_16  and  O_22
    4  A    between atoms: C_18  and  O_29
    5  A    between atoms: C_19  and  C_26
                            x       y       z     vdW  Elec       q    Type
                         _______ _______ _______ _____ _____    ______ ____

>  <TORSDO>
F 5

$$$$
=
 OpenBabel11052414283D

 32 37  0  0  1  0  0  0  0  0999 V2000
  188.0030  176.8360  137.4000 C   0  0  2  0  0  0  0  0  0  0  0  0
  187.9190  178.0770  139.6570 C   0  0  2  0  0  3  0  0  0  0  0  0
  186.8140  175.0050  134.9470 O   0  0  0  0  0  1  0  0  0  0  0  0
  187.5810  175.5410  137.0320 O   0  0  0  0  0  0  0  0  0  0  0  0
  188.3730  176.8150  138.8980 C   0  0  2  0  0  3  0  0  0  0  0  0
  188.3190  178.0060  141.1530 C   0  0  2  0  0  3  0  0  0  0  0  0
  183.1500  178.7520  141.4240 C   0  0  0  0  0  2  0  0  0  0  0  0
  186.4340  178.2890  139.4250 C   0  0  0  0  0  0  0  0  0  0  0  0
  185.1020  178.9430  142.9900 C   0  0  0  0  0  2  0  0  0  0  0  0
  186.0020  178.3380  141.9190 C   0  0  2  0  0  3  0  0  0  0  0  0
  189.8650  176.7080  138.8680 C   0  0  0  0  0  2  0  0  0  0  0  0
  186.1870  177.1540  135.8770 C   0  0  2  0  0  0  0  0  0  0  0  0
  187.4260  178.8100  142.0980 C   0  0  0  0  0  2  0  0  0  0  0  0
  186.4820  175.6490  136.1450 C   0  0  1  0  0  0  0  0  0  0  0  0
  190.2230  177.3350  137.5500 C   0  0  0  0  0  2  0  0  0  0  0  0
  186.8540  177.6720  134.5940 C   0  0  0  0  0  1  0  0  0  0  0  0
  185.9820  178.1930  138.1700 C   0  0  0  0  0  3  0  0  0  0  0  0
  186.9000  177.8390  137.0220 C   0  0  1  0  0  3  0  0  0  0  0  0
  185.4890  178.7250  140.5290 C   0  0  2  0  0  3  0  0  0  0  0  0
  189.1590  177.1500  136.6500 O   0  0  0  0  0  0  0  0  0  0  0  0
  183.6760  178.4210  142.8200 C   0  0  0  0  0  2  0  0  0  0  0  0
  184.0710  178.1700  140.3550 C   0  0  0  0  0  2  0  0  0  0  0  0
  184.4610  174.3780  135.7580 O   0  0  0  0  0  1  0  0  0  0  0  0
  185.2820  174.8990  136.7630 C   0  0  1  0  0  3  0  0  0  0  0  0
  185.7160  173.8190  137.6360 N   0  0  0  0  0  2  0  0  0  0  0  0
  184.6700  172.9700  137.7670 O   0  0  0  0  0  1  0  0  0  0  0  0
  184.4330  177.5340  134.5940 O   0  0  0  0  0  1  0  0  0  0  0  0
  184.8070  177.4680  135.8610 O   0  0  0  0  0  0  0  0  0  0  0  0
  189.6930  178.2540  141.3770 O   0  0  0  0  0  0  0  0  0  0  0  0
  191.3990  177.0710  142.5430 C   0  0  0  0  0  2  0  0  0  0  0  0
  190.0460  177.7480  142.6390 C   0  0  0  0  0  3  0  0  0  0  0  0
  190.1360  176.2390  142.5610 C   0  0  0  0  0  2  0  0  0  0  0  0
  1 20  1  6  0  0  0
  1  5  1  0  0  0  0
  2  8  1  1  0  0  0
  2  6  1  0  0  0  0
  4  1  1  0  0  0  0
  5 11  1  6  0  0  0
  5  2  1  0  0  0  0
  6 29  1  6  0  0  0
  6 13  1  0  0  0  0
  7 21  1  0  0  0  0
  8 19  1  0  0  0  0
 10 13  1  1  0  0  0
 10  9  1  0  0  0  0
 12 16  1  6  0  0  0
 12 14  1  0  0  0  0
 12 18  1  0  0  0  0
 14  3  1  6  0  0  0
 14 24  1  0  0  0  0
 14  4  1  0  0  0  0
 15 11  1  0  0  0  0
 17  8  2  0  0  0  0
 18  1  1  0  0  0  0
 18 17  1  1  0  0  0
 19 22  1  6  0  0  0
 19 10  1  0  0  0  0
 20 15  1  0  0  0  0
 21  9  1  0  0  0  0
 22  7  1  0  0  0  0
 24 23  1  6  0  0  0
 24 25  1  0  0  0  0
 25 26  1  0  0  0  0
 27 28  1  0  0  0  0
 28 12  1  0  0  0  0
 29 31  1  0  0  0  0
 30 32  1  0  0  0  0
 30 31  1  0  0  0  0
 32 31  1  0  0  0  0
M  END
>  <MODEL>
2

>  <REMARK>
 VINA RESULT:      -6.6      1.789      2.453
  Name = 
  5 active torsions:
  status: ('A' for Active; 'I' for Inactive)
    1  A    between atoms: C_6  and  O_29
    2  A    between atoms: N_15  and  C_26
    3  A    between atoms: C_16  and  O_22
    4  A    between atoms: C_18  and  O_29
    5  A    between atoms: C_19  and  C_26
                            x       y       z     vdW  Elec       q    Type
                         _______ _______ _______ _____ _____    ______ ____

>  <TORSDO>
F 5

$$$$
=
 OpenBabel11052414283D

 32 37  0  0  1  0  0  0  0  0999 V2000
  189.4390  176.7600  137.9830 C   0  0  2  0  0  0  0  0  0  0  0  0
  188.9470  177.8450  140.2680 C   0  0  2  0  0  3  0  0  0  0  0  0
  188.6940  175.2260  135.1770 O   0  0  0  0  0  1  0  0  0  0  0  0
  189.0100  175.5410  137.4170 O   0  0  0  0  0  0  0  0  0  0  0  0
  189.4600  176.6010  139.5170 C   0  0  2  0  0  3  0  0  0  0  0  0
  188.9930  177.6330  141.8030 C   0  0  2  0  0  3  0  0  0  0  0  0
  183.9700  178.8540  141.0040 C   0  0  0  0  0  2  0  0  0  0  0  0
  187.5730  178.2140  139.7370 C   0  0  0  0  0  0  0  0  0  0  0  0
  185.5280  178.7460  142.9690 C   0  0  0  0  0  2  0  0  0  0  0  0
  186.5960  178.1330  142.0700 C   0  0  2  0  0  3  0  0  0  0  0  0
  190.9070  176.3520  139.8040 C   0  0  0  0  0  2  0  0  0  0  0  0
  188.0440  177.3570  136.1340 C   0  0  2  0  0  0  0  0  0  0  0  0
  187.9760  178.4520  142.5970 C   0  0  0  0  0  2  0  0  0  0  0  0
  188.1520  175.8150  136.3260 C   0  0  1  0  0  0  0  0  0  0  0  0
  191.6010  177.0310  138.6570 C   0  0  0  0  0  2  0  0  0  0  0  0
  189.0220  177.8950  135.0790 C   0  0  0  0  0  1  0  0  0  0  0  0
  187.4100  178.2500  138.4090 C   0  0  0  0  0  3  0  0  0  0  0  0
  188.5320  177.8890  137.4640 C   0  0  1  0  0  3  0  0  0  0  0  0
  186.4420  178.6630  140.6420 C   0  0  2  0  0  3  0  0  0  0  0  0
  190.7560  177.0120  137.5340 O   0  0  0  0  0  0  0  0  0  0  0  0
  184.1410  178.3780  142.4450 C   0  0  0  0  0  2  0  0  0  0  0  0
  185.0600  178.2610  140.1130 C   0  0  0  0  0  2  0  0  0  0  0  0
  186.1310  174.8660  135.3950 O   0  0  0  0  0  1  0  0  0  0  0  0
  186.7880  175.1430  136.5970 C   0  0  1  0  0  3  0  0  0  0  0  0
  186.9390  173.9120  137.3570 N   0  0  0  0  0  2  0  0  0  0  0  0
  185.6980  173.4010  137.5350 O   0  0  0  0  0  1  0  0  0  0  0  0
  186.7300  178.2300  134.5940 O   0  0  0  0  0  1  0  0  0  0  0  0
  186.7320  177.8030  135.8450 O   0  0  0  0  0  0  0  0  0  0  0  0
  190.2960  177.7310  142.3420 O   0  0  0  0  0  0  0  0  0  0  0  0
  191.6110  178.5760  144.1380 C   0  0  0  0  0  2  0  0  0  0  0  0
  190.2130  178.2800  143.6330 C   0  0  0  0  0  3  0  0  0  0  0  0
  190.8800  177.3410  144.6150 C   0  0  0  0  0  2  0  0  0  0  0  0
  1  4  1  6  0  0  0
  1  5  1  0  0  0  0
  2  8  1  6  0  0  0
  2  6  1  0  0  0  0
  5 11  1  1  0  0  0
  5  2  1  0  0  0  0
  6 29  1  1  0  0  0
  6 13  1  0  0  0  0
  7 21  1  0  0  0  0
  8 19  1  0  0  0  0
 10 13  1  1  0  0  0
 10  9  1  0  0  0  0
 12 16  1  6  0  0  0
 12 14  1  0  0  0  0
 12 18  1  0  0  0  0
 14  3  1  6  0  0  0
 14 24  1  0  0  0  0
 14  4  1  0  0  0  0
 15 11  1  0  0  0  0
 17  8  2  0  0  0  0
 18  1  1  0  0  0  0
 18 17  1  1  0  0  0
 19 22  1  6  0  0  0
 19 10  1  0  0  0  0
 20  1  1  0  0  0  0
 20 15  1  0  0  0  0
 21  9  1  0  0  0  0
 22  7  1  0  0  0  0
 24 23  1  6  0  0  0
 24 25  1  0  0  0  0
 25 26  1  0  0  0  0
 27 28  1  0  0  0  0
 28 12  1  0  0  0  0
 29 31  1  0  0  0  0
 30 32  1  0  0  0  0
 31 30  1  0  0  0  0
 31 32  1  0  0  0  0
M  END
>  <MODEL>
3

>  <REMARK>
 VINA RESULT:      -6.6      1.310      1.584
  Name = 
  5 active torsions:
  status: ('A' for Active; 'I' for Inactive)
    1  A    between atoms: C_6  and  O_29
    2  A    between atoms: N_15  and  C_26
    3  A    between atoms: C_16  and  O_22
    4  A    between atoms: C_18  and  O_29
    5  A    between atoms: C_19  and  C_26
                            x       y       z     vdW  Elec       q    Type
                         _______ _______ _______ _____ _____    ______ ____

>  <TORSDO>
F 5

$$$$
=
 OpenBabel11052414283D

 32 37  0  0  1  0  0  0  0  0999 V2000
  189.1870  177.2760  140.1010 C   0  0  2  0  0  0  0  0  0  0  0  0
  188.2460  177.8960  142.4190 C   0  0  2  0  0  3  0  0  0  0  0  0
  189.0180  176.4220  136.9350 O   0  0  0  0  0  1  0  0  0  0  0  0
  188.8520  176.2380  139.2060 O   0  0  0  0  0  0  0  0  0  0  0  0
  188.8700  176.7990  141.5340 C   0  0  2  0  0  3  0  0  0  0  0  0
  187.9530  177.3660  143.8460 C   0  0  2  0  0  3  0  0  0  0  0  0
  183.2620  179.1110  142.3260 C   0  0  0  0  0  2  0  0  0  0  0  0
  187.0320  178.4730  141.7130 C   0  0  0  0  0  0  0  0  0  0  0  0
  184.3540  178.4760  144.4950 C   0  0  0  0  0  2  0  0  0  0  0  0
  185.5710  177.9830  143.7210 C   0  0  2  0  0  3  0  0  0  0  0  0
  190.2130  176.3850  142.0490 C   0  0  0  0  0  2  0  0  0  0  0  0
  188.2440  178.3500  138.1840 C   0  0  2  0  0  0  0  0  0  0  0  0
  186.8140  178.0780  144.5760 C   0  0  0  0  0  2  0  0  0  0  0  0
  188.2590  176.7990  138.0500 C   0  0  1  0  0  0  0  0  0  0  0  0
  191.1590  177.2320  141.2460 C   0  0  0  0  0  2  0  0  0  0  0  0
  189.4430  179.0190  137.4960 C   0  0  0  0  0  1  0  0  0  0  0  0
  187.1610  178.7960  140.4210 C   0  0  0  0  0  3  0  0  0  0  0  0
  188.4490  178.5540  139.6690 C   0  0  1  0  0  3  0  0  0  0  0  0
  185.7460  178.8090  142.4440 C   0  0  2  0  0  3  0  0  0  0  0  0
  190.5760  177.5140  139.9970 O   0  0  0  0  0  0  0  0  0  0  0  0
  183.1020  178.3330  143.6320 C   0  0  0  0  0  2  0  0  0  0  0  0
  184.5000  178.6340  141.5690 C   0  0  0  0  0  2  0  0  0  0  0  0
  185.9030  177.2030  137.6810 O   0  0  0  0  0  1  0  0  0  0  0  0
  186.8490  176.1930  137.8830 C   0  0  1  0  0  3  0  0  0  0  0  0
  186.7960  175.2570  136.7700 N   0  0  0  0  0  2  0  0  0  0  0  0
  186.7060  174.0150  137.3010 O   0  0  0  0  0  1  0  0  0  0  0  0
  187.3400  179.7080  136.7000 O   0  0  0  0  0  1  0  0  0  0  0  0
  187.0400  178.9470  137.7380 O   0  0  0  0  0  0  0  0  0  0  0  0
  189.1110  177.2480  144.6480 O   0  0  0  0  0  0  0  0  0  0  0  0
  190.1180  177.8360  146.7240 C   0  0  0  0  0  2  0  0  0  0  0  0
  188.8320  177.7610  145.9260 C   0  0  0  0  0  3  0  0  0  0  0  0
  189.1440  176.7040  146.9640 C   0  0  0  0  0  2  0  0  0  0  0  0
  1  4  1  6  0  0  0
  1  5  1  0  0  0  0
  2  8  1  6  0  0  0
  2  6  1  0  0  0  0
  5 11  1  1  0  0  0
  5  2  1  0  0  0  0
  6 13  1  0  0  0  0
  6 29  1  1  0  0  0
  7 21  1  0  0  0  0
  8 19  1  0  0  0  0
 10  9  1  1  0  0  0
 10 13  1  0  0  0  0
 12 16  1  6  0  0  0
 12 18  1  0  0  0  0
 14  3  1  6  0  0  0
 14 12  1  0  0  0  0
 14  4  1  0  0  0  0
 15 11  1  0  0  0  0
 17  8  2  0  0  0  0
 18  1  1  0  0  0  0
 18 17  1  1  0  0  0
 19 22  1  6  0  0  0
 19 10  1  0  0  0  0
 20  1  1  0  0  0  0
 20 15  1  0  0  0  0
 21  9  1  0  0  0  0
 22  7  1  0  0  0  0
 24 23  1  6  0  0  0
 24 14  1  0  0  0  0
 25 26  1  0  0  0  0
 25 24  1  0  0  0  0
 27 28  1  0  0  0  0
 28 12  1  0  0  0  0
 29 31  1  0  0  0  0
 30 32  1  0  0  0  0
 31 30  1  0  0  0  0
 31 32  1  0  0  0  0
M  END
>  <MODEL>
4

>  <REMARK>
 VINA RESULT:      -6.5      1.020      1.121
  Name = 
  5 active torsions:
  status: ('A' for Active; 'I' for Inactive)
    1  A    between atoms: C_6  and  O_29
    2  A    between atoms: N_15  and  C_26
    3  A    between atoms: C_16  and  O_22
    4  A    between atoms: C_18  and  O_29
    5  A    between atoms: C_19  and  C_26
                            x       y       z     vdW  Elec       q    Type
                         _______ _______ _______ _____ _____    ______ ____

>  <TORSDO>
F 5

$$$$
=
 OpenBabel11052414283D

 32 37  0  0  1  0  0  0  0  0999 V2000
  185.1220  178.3790  138.6940 C   0  0  2  0  0  0  0  0  0  0  0  0
  187.0330  178.4890  140.4190 C   0  0  2  0  0  3  0  0  0  0  0  0
  182.0670  177.7830  137.6480 O   0  0  0  0  0  1  0  0  0  0  0  0
  184.1800  177.3670  138.4090 O   0  0  0  0  0  0  0  0  0  0  0  0
  186.3950  177.7100  139.2530 C   0  0  2  0  0  3  0  0  0  0  0  0
  188.3080  177.7770  140.9390 C   0  0  2  0  0  3  0  0  0  0  0  0
  185.4060  178.1520  145.2730 C   0  0  0  0  0  2  0  0  0  0  0  0
  185.9830  178.7320  141.4880 C   0  0  0  0  0  0  0  0  0  0  0  0
  187.8120  177.6950  144.7270 C   0  0  0  0  0  2  0  0  0  0  0  0
  187.4540  177.6580  143.2460 C   0  0  2  0  0  3  0  0  0  0  0  0
  187.3010  177.6770  138.0630 C   0  0  0  0  0  2  0  0  0  0  0  0
  182.9950  179.2770  139.3170 C   0  0  2  0  0  0  0  0  0  0  0  0
  188.6470  178.0500  142.4040 C   0  0  0  0  0  2  0  0  0  0  0  0
  182.8910  177.8190  138.7800 C   0  0  1  0  0  0  0  0  0  0  0  0
  186.8150  178.8340  137.2360 C   0  0  0  0  0  2  0  0  0  0  0  0
  182.6980  180.3310  138.2400 C   0  0  0  0  0  1  0  0  0  0  0  0
  184.7890  179.1860  141.0930 C   0  0  0  0  0  3  0  0  0  0  0  0
  184.4690  179.4070  139.6320 C   0  0  1  0  0  3  0  0  0  0  0  0
  186.2820  178.6020  142.9700 C   0  0  2  0  0  3  0  0  0  0  0  0
  185.4450  179.0310  137.4830 O   0  0  0  0  0  0  0  0  0  0  0  0
  186.6100  177.2560  145.5590 C   0  0  0  0  0  2  0  0  0  0  0  0
  185.0690  178.1350  143.7840 C   0  0  0  0  0  2  0  0  0  0  0  0
  180.9210  176.9860  139.9090 O   0  0  0  0  0  1  0  0  0  0  0  0
  182.3080  176.8330  139.8160 C   0  0  1  0  0  3  0  0  0  0  0  0
  182.6180  175.4530  139.4760 N   0  0  0  0  0  2  0  0  0  0  0  0
  181.5080  174.9260  138.9090 O   0  0  0  0  0  1  0  0  0  0  0  0
  181.1290  180.1900  140.0580 O   0  0  0  0  0  1  0  0  0  0  0  0
  182.1950  179.5190  140.4600 O   0  0  0  0  0  0  0  0  0  0  0  0
  189.4280  177.9460  140.0920 O   0  0  0  0  0  0  0  0  0  0  0  0
  191.6300  177.1710  139.6250 C   0  0  0  0  0  2  0  0  0  0  0  0
  190.2880  176.8470  140.2520 C   0  0  0  0  0  3  0  0  0  0  0  0
  190.6430  176.2920  138.8880 C   0  0  0  0  0  2  0  0  0  0  0  0
  1 20  1  6  0  0  0
  1  5  1  0  0  0  0
  1 18  1  0  0  0  0
  2  6  1  0  0  0  0
  2  8  1  1  0  0  0
  4  1  1  0  0  0  0
  4 14  1  0  0  0  0
  5 11  1  6  0  0  0
  5  2  1  0  0  0  0
  6 29  1  6  0  0  0
  6 13  1  0  0  0  0
  7 21  1  0  0  0  0
  8 19  1  0  0  0  0
  9 21  1  0  0  0  0
 10 13  1  6  0  0  0
 10  9  1  0  0  0  0
 12 16  1  6  0  0  0
 12 18  1  0  0  0  0
 12 28  1  0  0  0  0
 14  3  1  6  0  0  0
 14 12  1  0  0  0  0
 14 24  1  0  0  0  0
 15 20  1  0  0  0  0
 15 11  1  0  0  0  0
 17  8  2  0  0  0  0
 18 17  1  1  0  0  0
 19 10  1  0  0  0  0
 19 22  1  1  0  0  0
 22  7  1  0  0  0  0
 24 23  1  6  0  0  0
 25 24  1  0  0  0  0
 26 25  1  0  0  0  0
 27 28  1  0  0  0  0
 29 31  1  0  0  0  0
 30 31  1  0  0  0  0
 32 30  1  0  0  0  0
 32 31  1  0  0  0  0
M  END
>  <MODEL>
5

>  <REMARK>
 VINA RESULT:      -6.2      2.871      4.582
  Name = 
  5 active torsions:
  status: ('A' for Active; 'I' for Inactive)
    1  A    between atoms: C_6  and  O_29
    2  A    between atoms: N_15  and  C_26
    3  A    between atoms: C_16  and  O_22
    4  A    between atoms: C_18  and  O_29
    5  A    between atoms: C_19  and  C_26
                            x       y       z     vdW  Elec       q    Type
                         _______ _______ _______ _____ _____    ______ ____

>  <TORSDO>
F 5

$$$$
=
 OpenBabel11052414283D

 32 37  0  0  1  0  0  0  0  0999 V2000
  189.4110  177.6010  141.7780 C   0  0  2  0  0  0  0  0  0  0  0  0
  186.8460  177.8590  141.7680 C   0  0  2  0  0  3  0  0  0  0  0  0
  192.4190  177.6700  143.0940 O   0  0  0  0  0  1  0  0  0  0  0  0
  190.4300  178.4410  142.2750 O   0  0  0  0  0  0  0  0  0  0  0  0
  188.2050  178.4820  141.3920 C   0  0  2  0  0  3  0  0  0  0  0  0
  185.6720  178.7810  141.3540 C   0  0  2  0  0  3  0  0  0  0  0  0
  184.8150  178.1230  146.4720 C   0  0  0  0  0  2  0  0  0  0  0  0
  186.8570  177.4950  143.2420 C   0  0  0  0  0  0  0  0  0  0  0  0
  183.4980  178.9300  144.4940 C   0  0  0  0  0  2  0  0  0  0  0  0
  184.7590  178.8540  143.6410 C   0  0  2  0  0  3  0  0  0  0  0  0
  188.3510  178.6110  139.9080 C   0  0  0  0  0  2  0  0  0  0  0  0
  190.4110  176.4050  143.5920 C   0  0  2  0  0  0  0  0  0  0  0  0
  184.4020  178.6220  142.1910 C   0  0  0  0  0  2  0  0  0  0  0  0
  191.0540  177.8070  143.3760 C   0  0  1  0  0  0  0  0  0  0  0  0
  189.0960  177.3610  139.5320 C   0  0  0  0  0  2  0  0  0  0  0  0
  191.2010  175.2770  142.9120 C   0  0  0  0  0  1  0  0  0  0  0  0
  187.9270  176.8440  143.7130 C   0  0  0  0  0  3  0  0  0  0  0  0
  189.1090  176.5200  142.8290 C   0  0  1  0  0  3  0  0  0  0  0  0
  185.6630  177.7270  144.1480 C   0  0  2  0  0  3  0  0  0  0  0  0
  189.8970  176.9620  140.6160 O   0  0  0  0  0  0  0  0  0  0  0  0
  183.8750  179.2070  145.9480 C   0  0  0  0  0  2  0  0  0  0  0  0
  186.0630  178.0290  145.5960 C   0  0  0  0  0  2  0  0  0  0  0  0
  191.2690  180.0420  144.2770 O   0  0  0  0  0  1  0  0  0  0  0  0
  190.9210  178.7280  144.6080 C   0  0  1  0  0  3  0  0  0  0  0  0
  189.5700  178.7100  145.1470 N   0  0  0  0  0  2  0  0  0  0  0  0
  189.6700  178.3790  146.4560 O   0  0  0  0  0  1  0  0  0  0  0  0
  191.3540  175.7260  145.4660 O   0  0  0  0  0  1  0  0  0  0  0  0
  190.1900  176.0850  144.9530 O   0  0  0  0  0  0  0  0  0  0  0  0
  185.4030  178.7570  139.9660 O   0  0  0  0  0  0  0  0  0  0  0  0
  183.7460  178.3470  138.3060 C   0  0  0  0  0  2  0  0  0  0  0  0
  184.0190  178.6070  139.7740 C   0  0  0  0  0  3  0  0  0  0  0  0
  183.5180  179.7250  138.8860 C   0  0  0  0  0  2  0  0  0  0  0  0
  1 20  1  6  0  0  0
  1  4  1  0  0  0  0
  1 18  1  0  0  0  0
  2  8  1  1  0  0  0
  4 14  1  0  0  0  0
  5 11  1  6  0  0  0
  5  2  1  0  0  0  0
  5  1  1  0  0  0  0
  6 29  1  6  0  0  0
  6  2  1  0  0  0  0
  6 13  1  0  0  0  0
  8 17  2  0  0  0  0
  8 19  1  0  0  0  0
  9 21  1  0  0  0  0
 10 13  1  6  0  0  0
 10 19  1  0  0  0  0
 10  9  1  0  0  0  0
 12 16  1  6  0  0  0
 12 28  1  0  0  0  0
 14  3  1  6  0  0  0
 14 12  1  0  0  0  0
 14 24  1  0  0  0  0
 15 11  1  0  0  0  0
 15 20  1  0  0  0  0
 18 12  1  0  0  0  0
 18 17  1  1  0  0  0
 19 22  1  1  0  0  0
 21  7  1  0  0  0  0
 22  7  1  0  0  0  0
 24 23  1  6  0  0  0
 24 25  1  0  0  0  0
 25 26  1  0  0  0  0
 28 27  1  0  0  0  0
 30 32  1  0  0  0  0
 30 31  1  0  0  0  0
 31 29  1  0  0  0  0
 32 31  1  0  0  0  0
M  END
>  <MODEL>
6

>  <REMARK>
 VINA RESULT:      -6.1      2.740      6.255
  Name = 
  5 active torsions:
  status: ('A' for Active; 'I' for Inactive)
    1  A    between atoms: C_6  and  O_29
    2  A    between atoms: N_15  and  C_26
    3  A    between atoms: C_16  and  O_22
    4  A    between atoms: C_18  and  O_29
    5  A    between atoms: C_19  and  C_26
                            x       y       z     vdW  Elec       q    Type
                         _______ _______ _______ _____ _____    ______ ____

>  <TORSDO>
F 5

$$$$
=
 OpenBabel11052414283D

 32 37  0  0  1  0  0  0  0  0999 V2000
  182.2310  177.1600  138.6690 C   0  0  2  0  0  0  0  0  0  0  0  0
  184.0680  175.9510  137.3250 C   0  0  2  0  0  3  0  0  0  0  0  0
  181.0490  179.1980  140.9570 O   0  0  0  0  0  1  0  0  0  0  0  0
  182.0730  177.3640  140.0570 O   0  0  0  0  0  0  0  0  0  0  0  0
  183.0310  175.8570  138.4620 C   0  0  2  0  0  3  0  0  0  0  0  0
  184.8390  174.6170  137.1570 C   0  0  2  0  0  3  0  0  0  0  0  0
  188.7150  178.0490  137.9000 C   0  0  0  0  0  2  0  0  0  0  0  0
  184.9620  177.1550  137.5660 C   0  0  0  0  0  0  0  0  0  0  0  0
  188.5010  175.7040  137.0330 C   0  0  0  0  0  2  0  0  0  0  0  0
  187.0320  175.7030  137.4410 C   0  0  2  0  0  3  0  0  0  0  0  0
  181.9630  174.8610  138.1400 C   0  0  0  0  0  2  0  0  0  0  0  0
  182.4560  179.5160  139.0080 C   0  0  2  0  0  0  0  0  0  0  0  0
  186.2420  174.7540  136.5680 C   0  0  0  0  0  2  0  0  0  0  0  0
  182.2210  178.7430  140.3400 C   0  0  1  0  0  0  0  0  0  0  0  0
  180.8750  175.7110  137.5460 C   0  0  0  0  0  2  0  0  0  0  0  0
  181.1640  180.1080  138.4280 C   0  0  0  0  0  1  0  0  0  0  0  0
  184.3720  178.3110  137.8890 C   0  0  0  0  0  3  0  0  0  0  0  0
  182.8740  178.4160  138.0580 C   0  0  1  0  0  3  0  0  0  0  0  0
  186.4600  177.1180  137.3300 C   0  0  2  0  0  3  0  0  0  0  0  0
  180.9480  177.0010  138.1000 O   0  0  0  0  0  0  0  0  0  0  0  0
  189.2890  176.6340  137.9520 C   0  0  0  0  0  2  0  0  0  0  0  0
  187.2360  178.0390  138.2790 C   0  0  0  0  0  2  0  0  0  0  0  0
  182.8850  178.9510  142.6560 O   0  0  0  0  0  1  0  0  0  0  0  0
  183.3780  178.9120  141.3490 C   0  0  1  0  0  3  0  0  0  0  0  0
  184.3500  177.8360  141.2340 N   0  0  0  0  0  2  0  0  0  0  0  0
  185.5760  178.3920  141.3710 O   0  0  0  0  0  1  0  0  0  0  0  0
  182.8880  181.6600  138.7190 O   0  0  0  0  0  1  0  0  0  0  0  0
  183.4460  180.5250  139.1040 O   0  0  0  0  0  0  0  0  0  0  0  0
  184.0840  173.6130  136.5090 O   0  0  0  0  0  0  0  0  0  0  0  0
  184.2970  171.2970  135.9980 C   0  0  0  0  0  2  0  0  0  0  0  0
  184.4140  172.3660  137.0660 C   0  0  0  0  0  3  0  0  0  0  0  0
  183.1970  171.4650  137.0230 C   0  0  0  0  0  2  0  0  0  0  0  0
  1 20  1  6  0  0  0
  1  4  1  0  0  0  0
  2  8  1  1  0  0  0
  2  5  1  0  0  0  0
  4 14  1  0  0  0  0
  5 11  1  6  0  0  0
  5  1  1  0  0  0  0
  6 29  1  6  0  0  0
  6  2  1  0  0  0  0
  7 21  1  0  0  0  0
  7 22  1  0  0  0  0
  8 17  2  0  0  0  0
  9 10  1  0  0  0  0
  9 21  1  0  0  0  0
 10 13  1  6  0  0  0
 12 16  1  6  0  0  0
 12 28  1  0  0  0  0
 12 14  1  0  0  0  0
 13  6  1  0  0  0  0
 14  3  1  1  0  0  0
 14 24  1  0  0  0  0
 15 20  1  0  0  0  0
 15 11  1  0  0  0  0
 18 17  1  1  0  0  0
 18  1  1  0  0  0  0
 18 12  1  0  0  0  0
 19 10  1  0  0  0  0
 19  8  1  0  0  0  0
 19 22  1  1  0  0  0
 24 23  1  1  0  0  0
 25 24  1  0  0  0  0
 25 26  1  0  0  0  0
 27 28  1  0  0  0  0
 29 31  1  0  0  0  0
 30 32  1  0  0  0  0
 30 31  1  0  0  0  0
 32 31  1  0  0  0  0
M  END
>  <MODEL>
7

>  <REMARK>
 VINA RESULT:      -5.8      4.019      7.838
  Name = 
  5 active torsions:
  status: ('A' for Active; 'I' for Inactive)
    1  A    between atoms: C_6  and  O_29
    2  A    between atoms: N_15  and  C_26
    3  A    between atoms: C_16  and  O_22
    4  A    between atoms: C_18  and  O_29
    5  A    between atoms: C_19  and  C_26
                            x       y       z     vdW  Elec       q    Type
                         _______ _______ _______ _____ _____    ______ ____

>  <TORSDO>
F 5

$$$$
=
 OpenBabel11052414283D

 32 37  0  0  1  0  0  0  0  0999 V2000
  190.5690  176.2000  136.1030 C   0  0  2  0  0  0  0  0  0  0  0  0
  189.0200  177.0450  137.9810 C   0  0  2  0  0  3  0  0  0  0  0  0
  193.4270  175.2900  134.7660 O   0  0  0  0  0  1  0  0  0  0  0  0
  191.8280  176.6570  135.6570 O   0  0  0  0  0  0  0  0  0  0  0  0
  189.8060  177.3990  136.7040 C   0  0  2  0  0  3  0  0  0  0  0  0
  188.2700  178.2820  138.5390 C   0  0  2  0  0  3  0  0  0  0  0  0
  191.1530  176.7920  142.6400 C   0  0  0  0  0  2  0  0  0  0  0  0
  189.9590  176.3910  138.9780 C   0  0  0  0  0  0  0  0  0  0  0  0
  189.1680  178.2780  142.2530 C   0  0  0  0  0  2  0  0  0  0  0  0
  189.3370  178.0880  140.7500 C   0  0  2  0  0  3  0  0  0  0  0  0
  188.8870  177.7960  135.5920 C   0  0  0  0  0  2  0  0  0  0  0  0
  192.1170  174.4540  136.6270 C   0  0  2  0  0  0  0  0  0  0  0  0
  188.0100  178.2530  140.0450 C   0  0  0  0  0  2  0  0  0  0  0  0
  192.8070  175.6800  135.9590 C   0  0  1  0  0  0  0  0  0  0  0  0
  188.7020  176.5130  134.8310 C   0  0  0  0  0  2  0  0  0  0  0  0
  191.7840  173.3390  135.6250 C   0  0  0  0  0  1  0  0  0  0  0  0
  190.7670  175.4250  138.5280 C   0  0  0  0  0  3  0  0  0  0  0  0
  190.7880  175.0250  137.0710 C   0  0  1  0  0  3  0  0  0  0  0  0
  189.9180  176.7020  140.4620 C   0  0  2  0  0  3  0  0  0  0  0  0
  189.8540  175.7210  134.9830 O   0  0  0  0  0  0  0  0  0  0  0  0
  190.5240  178.1510  142.9440 C   0  0  0  0  0  2  0  0  0  0  0  0
  191.2930  176.5940  141.1330 C   0  0  0  0  0  2  0  0  0  0  0  0
  194.7330  177.1370  136.0940 O   0  0  0  0  0  1  0  0  0  0  0  0
  193.8830  176.3300  136.8560 C   0  0  1  0  0  3  0  0  0  0  0  0
  193.2870  177.1270  137.9160 N   0  0  0  0  0  2  0  0  0  0  0  0
  193.9190  176.7950  139.0660 O   0  0  0  0  0  1  0  0  0  0  0  0
  193.6860  173.0250  137.2280 O   0  0  0  0  0  1  0  0  0  0  0  0
  192.8430  173.9180  137.7180 O   0  0  0  0  0  0  0  0  0  0  0  0
  187.1080  178.6100  137.8030 O   0  0  0  0  0  0  0  0  0  0  0  0
  185.2960  177.5020  136.7270 C   0  0  0  0  0  2  0  0  0  0  0  0
  186.1610  177.5850  137.9680 C   0  0  0  0  0  3  0  0  0  0  0  0
  184.7720  178.1890  137.9680 C   0  0  0  0  0  2  0  0  0  0  0  0
  1 20  1  6  0  0  0
  1  5  1  0  0  0  0
  1 18  1  0  0  0  0
  2  6  1  0  0  0  0
  2  8  1  1  0  0  0
  4 14  1  0  0  0  0
  4  1  1  0  0  0  0
  5 11  1  6  0  0  0
  5  2  1  0  0  0  0
  6 29  1  6  0  0  0
  6 13  1  0  0  0  0
  7 21  1  0  0  0  0
  8 19  1  0  0  0  0
  9 21  1  0  0  0  0
 10 13  1  6  0  0  0
 10  9  1  0  0  0  0
 12 16  1  6  0  0  0
 12 18  1  0  0  0  0
 12 28  1  0  0  0  0
 14  3  1  6  0  0  0
 14 12  1  0  0  0  0
 14 24  1  0  0  0  0
 15 20  1  0  0  0  0
 15 11  1  0  0  0  0
 17  8  2  0  0  0  0
 18 17  1  1  0  0  0
 19 10  1  0  0  0  0
 19 22  1  6  0  0  0
 22  7  1  0  0  0  0
 24 23  1  6  0  0  0
 24 25  1  0  0  0  0
 25 26  1  0  0  0  0
 27 28  1  0  0  0  0
 29 31  1  0  0  0  0
 30 31  1  0  0  0  0
 30 32  1  0  0  0  0
 31 32  1  0  0  0  0
M  END
>  <MODEL>
8

>  <REMARK>
 VINA RESULT:      -5.7      3.221      6.387
  Name = 
  5 active torsions:
  status: ('A' for Active; 'I' for Inactive)
    1  A    between atoms: C_6  and  O_29
    2  A    between atoms: N_15  and  C_26
    3  A    between atoms: C_16  and  O_22
    4  A    between atoms: C_18  and  O_29
    5  A    between atoms: C_19  and  C_26
                            x       y       z     vdW  Elec       q    Type
                         _______ _______ _______ _____ _____    ______ ____

>  <TORSDO>
F 5

$$$$
=
 OpenBabel11052414283D

 32 37  0  0  1  0  0  0  0  0999 V2000
  183.7250  177.1280  136.7500 C   0  0  2  0  0  0  0  0  0  0  0  0
  184.8810  178.3620  138.6940 C   0  0  2  0  0  3  0  0  0  0  0  0
  181.3970  175.2970  135.3320 O   0  0  0  0  0  1  0  0  0  0  0  0
  183.1740  175.8320  136.6650 O   0  0  0  0  0  0  0  0  0  0  0  0
  184.8520  177.1050  137.8040 C   0  0  2  0  0  3  0  0  0  0  0  0
  186.0320  178.2900  139.7300 C   0  0  2  0  0  3  0  0  0  0  0  0
  181.8430  179.0100  142.7780 C   0  0  0  0  0  2  0  0  0  0  0  0
  183.5090  178.5680  139.3100 C   0  0  0  0  0  0  0  0  0  0  0  0
  184.3330  179.2060  143.0280 C   0  0  0  0  0  2  0  0  0  0  0  0
  184.5050  178.6080  141.6360 C   0  0  2  0  0  3  0  0  0  0  0  0
  186.0870  177.0050  136.9650 C   0  0  0  0  0  2  0  0  0  0  0  0
  181.3720  177.4410  136.4640 C   0  0  2  0  0  0  0  0  0  0  0  0
  185.7960  179.0870  141.0120 C   0  0  0  0  0  2  0  0  0  0  0  0
  181.7690  175.9360  136.5210 C   0  0  1  0  0  0  0  0  0  0  0  0
  185.6670  177.6370  135.6680 C   0  0  0  0  0  2  0  0  0  0  0  0
  181.2310  177.9650  135.0270 C   0  0  0  0  0  1  0  0  0  0  0  0
  182.4460  178.4730  138.5030 C   0  0  0  0  0  3  0  0  0  0  0  0
  182.5920  178.1260  137.0390 C   0  0  1  0  0  3  0  0  0  0  0  0
  183.3170  178.9960  140.7520 C   0  0  2  0  0  3  0  0  0  0  0  0
  184.2850  177.4500  135.4930 O   0  0  0  0  0  0  0  0  0  0  0  0
  183.0460  178.6780  143.6590 C   0  0  0  0  0  2  0  0  0  0  0  0
  182.0340  178.4360  141.3760 C   0  0  0  0  0  2  0  0  0  0  0  0
  180.7670  173.8780  137.3010 O   0  0  0  0  0  1  0  0  0  0  0  0
  181.1010  175.1790  137.6890 C   0  0  1  0  0  3  0  0  0  0  0  0
  181.9670  175.1250  138.8570 N   0  0  0  0  0  2  0  0  0  0  0  0
  181.2080  175.4530  139.9280 O   0  0  0  0  0  1  0  0  0  0  0  0
  179.4470  178.5170  136.4400 O   0  0  0  0  0  1  0  0  0  0  0  0
  180.2050  177.7490  137.2040 O   0  0  0  0  0  0  0  0  0  0  0  0
  187.3050  178.5440  139.1700 O   0  0  0  0  0  0  0  0  0  0  0  0
  189.6510  178.1940  139.3740 C   0  0  0  0  0  2  0  0  0  0  0  0
  188.2830  177.9190  139.9630 C   0  0  0  0  0  3  0  0  0  0  0  0
  188.9830  176.8570  139.1410 C   0  0  0  0  0  2  0  0  0  0  0  0
  1 20  1  6  0  0  0
  1 18  1  0  0  0  0
  1  5  1  0  0  0  0
  2  8  1  1  0  0  0
  2  6  1  0  0  0  0
  4  1  1  0  0  0  0
  5 11  1  6  0  0  0
  5  2  1  0  0  0  0
  6 29  1  6  0  0  0
  6 13  1  0  0  0  0
  7 21  1  0  0  0  0
  8 19  1  0  0  0  0
  9 21  1  0  0  0  0
 10 13  1  6  0  0  0
 10  9  1  0  0  0  0
 12 16  1  6  0  0  0
 12 14  1  0  0  0  0
 12 18  1  0  0  0  0
 12 28  1  0  0  0  0
 14  3  1  6  0  0  0
 14  4  1  0  0  0  0
 14 24  1  0  0  0  0
 15 11  1  0  0  0  0
 17  8  2  0  0  0  0
 18 17  1  1  0  0  0
 19 22  1  1  0  0  0
 19 10  1  0  0  0  0
 20 15  1  0  0  0  0
 22  7  1  0  0  0  0
 24 23  1  6  0  0  0
 24 25  1  0  0  0  0
 25 26  1  0  0  0  0
 27 28  1  0  0  0  0
 29 31  1  0  0  0  0
 30 31  1  0  0  0  0
 32 30  1  0  0  0  0
 32 31  1  0  0  0  0
M  END
>  <MODEL>
9

>  <REMARK>
 VINA RESULT:      -5.7      3.582      5.592
  Name = 
  5 active torsions:
  status: ('A' for Active; 'I' for Inactive)
    1  A    between atoms: C_6  and  O_29
    2  A    between atoms: N_15  and  C_26
    3  A    between atoms: C_16  and  O_22
    4  A    between atoms: C_18  and  O_29
    5  A    between atoms: C_19  and  C_26
                            x       y       z     vdW  Elec       q    Type
                         _______ _______ _______ _____ _____    ______ ____

>  <TORSDO>
F 5

$$$$
