=
 OpenBabel11052415453D

 34 37  0  0  0  0  0  0  0  0999 V2000
  185.2130  178.2510  142.9750 C   0  0  0  0  0  0  0  0  0  0  0  0
  181.5490  179.2650  143.3300 C   0  0  0  0  0  3  0  0  0  0  0  0
  180.6530  178.1250  141.1860 C   0  0  0  0  0  0  0  0  0  0  0  0
  183.3400  178.9360  144.9220 N   0  0  0  0  0  0  0  0  0  0  0  0
  186.8490  177.8820  144.7920 C   0  0  0  0  0  3  0  0  0  0  0  0
  186.1910  178.2300  147.0930 C   0  0  0  0  0  3  0  0  0  0  0  0
  181.2530  176.1200  139.6970 C   0  0  0  0  0  1  0  0  0  0  0  0
  187.1620  177.8810  146.1530 C   0  0  0  0  0  3  0  0  0  0  0  0
  184.5910  178.5860  145.3110 C   0  0  0  0  0  0  0  0  0  0  0  0
  185.5620  178.2220  144.3480 C   0  0  0  0  0  0  0  0  0  0  0  0
  184.9080  178.5820  146.6720 C   0  0  0  0  0  3  0  0  0  0  0  0
  181.0010  178.7460  142.2720 C   0  0  0  0  0  0  0  0  0  0  0  0
  179.2030  177.9920  140.8630 C   0  0  0  0  0  1  0  0  0  0  0  0
  181.6780  177.3170  140.4750 C   0  0  0  0  0  0  0  0  0  0  0  0
  182.9910  177.6080  140.4910 C   0  0  0  0  0  3  0  0  0  0  0  0
  182.9650  178.9630  143.6190 C   0  0  0  0  0  0  0  0  0  0  0  0
  183.6020  178.8230  141.1400 C   0  0  0  0  0  2  0  0  0  0  0  0
  183.9120  178.6440  142.6080 C   0  0  0  0  0  0  0  0  0  0  0  0
  186.1050  177.9190  141.9390 O   0  0  0  0  0  0  0  0  0  0  0  0
  186.9910  178.8300  141.3000 C   0  0  0  0  0  2  0  0  0  0  0  0
  188.0050  178.0680  140.4570 C   0  0  0  0  0  2  0  0  0  0  0  0
  191.6640  177.3520  141.1300 C   0  0  0  0  0  3  0  0  0  0  0  0
  189.4090  178.2090  142.5420 C   0  0  0  0  0  3  0  0  0  0  0  0
  191.7550  177.6130  142.5000 C   0  0  0  0  0  3  0  0  0  0  0  0
  190.6270  178.0390  143.2080 C   0  0  0  0  0  0  0  0  0  0  0  0
  189.3120  177.9320  141.1710 C   0  0  0  0  0  0  0  0  0  0  0  0
  190.4430  177.5090  140.4660 C   0  0  0  0  0  3  0  0  0  0  0  0
  190.7190  178.2890  144.6750 C   0  0  0  0  0  2  0  0  0  0  0  0
  191.3370  176.7920  146.6290 C   0  0  0  0  0  0  0  0  0  0  0  0
  190.3240  177.1660  147.2820 O   0  0  0  0  0  0  0  0  0  0  0  0
  191.5700  177.2890  145.3090 N   0  0  0  0  0  2  0  0  0  0  0  0
  192.2780  175.8370  147.2190 C   0  0  0  0  0  0  0  0  0  0  0  0
  192.8460  176.0940  148.3140 O   0  0  0  0  0  0  0  0  0  0  0  0
  192.5410  174.6660  146.5890 F   0  0  0  0  0  0  0  0  0  0  0  0
  1 10  1  0  0  0  0
  2 16  1  0  0  0  0
  3 12  2  0  0  0  0
  4  9  1  0  0  0  0
  5  8  1  0  0  0  0
  7 14  1  0  0  0  0
  8  6  2  0  0  0  0
  9 11  2  0  0  0  0
 10  5  2  0  0  0  0
 10  9  1  0  0  0  0
 11  6  1  0  0  0  0
 12  2  2  0  0  0  0
 13  3  1  0  0  0  0
 14 15  2  0  0  0  0
 14  3  1  0  0  0  0
 15 17  1  0  0  0  0
 16  4  2  0  0  0  0
 17 18  1  0  0  0  0
 18  1  2  0  0  0  0
 18 16  1  0  0  0  0
 19  1  1  0  0  0  0
 20 19  1  0  0  0  0
 21 26  1  0  0  0  0
 21 20  1  0  0  0  0
 22 24  1  0  0  0  0
 23 25  1  0  0  0  0
 24 25  2  0  0  0  0
 25 28  1  0  0  0  0
 26 23  2  0  0  0  0
 27 22  2  0  0  0  0
 27 26  1  0  0  0  0
 28 31  1  0  0  0  0
 29 32  1  0  0  0  0
 29 30  2  0  0  0  0
 31 29  1  0  0  0  0
 32 33  2  0  0  0  0
 34 32  1  0  0  0  0
M  END
>  <MODEL>
1

>  <REMARK>
 VINA RESULT:     -10.3      0.000      0.000
  Name = 
  7 active torsions:
  status: ('A' for Active; 'I' for Inactive)
    1  A    between atoms: C_1  and  O_9
    2  A    between atoms: C_7  and  C_11
    3  A    between atoms: C_8  and  O_9
    4  A    between atoms: C_8  and  C_18
    5  A    between atoms: C_18  and  C_30
    6  A    between atoms: C_26  and  C_28
    7  A    between atoms: C_26  and  N_29
                            x       y       z     vdW  Elec       q    Type
                         _______ _______ _______ _____ _____    ______ ____

>  <TORSDO>
F 7

$$$$
=
 OpenBabel11052415453D

 34 37  0  0  0  0  0  0  0  0999 V2000
  187.9050  177.1830  144.8490 C   0  0  0  0  0  0  0  0  0  0  0  0
  191.4620  176.6110  143.5820 C   0  0  0  0  0  3  0  0  0  0  0  0
  191.0470  177.1680  141.0880 C   0  0  0  0  0  0  0  0  0  0  0  0
  190.5470  177.2300  145.7350 N   0  0  0  0  0  0  0  0  0  0  0  0
  187.2190  177.9160  147.1080 C   0  0  0  0  0  3  0  0  0  0  0  0
  188.8930  178.2860  148.8140 C   0  0  0  0  0  3  0  0  0  0  0  0
  189.4460  178.6140  139.6970 C   0  0  0  0  0  1  0  0  0  0  0  0
  187.5550  178.2750  148.4160 C   0  0  0  0  0  3  0  0  0  0  0  0
  189.5610  177.5720  146.5990 C   0  0  0  0  0  0  0  0  0  0  0  0
  188.2100  177.5700  146.1780 C   0  0  0  0  0  0  0  0  0  0  0  0
  189.8940  177.9350  147.9070 C   0  0  0  0  0  3  0  0  0  0  0  0
  191.3580  176.8520  142.3100 C   0  0  0  0  0  0  0  0  0  0  0  0
  192.1370  177.3210  140.0830 C   0  0  0  0  0  1  0  0  0  0  0  0
  189.6700  177.6560  140.8140 C   0  0  0  0  0  0  0  0  0  0  0  0
  188.5950  177.2760  141.5270 C   0  0  0  0  0  3  0  0  0  0  0  0
  190.2970  176.8660  144.4520 C   0  0  0  0  0  0  0  0  0  0  0  0
  188.6040  176.2490  142.6290 C   0  0  0  0  0  2  0  0  0  0  0  0
  188.9540  176.8080  143.9880 C   0  0  0  0  0  0  0  0  0  0  0  0
  186.5970  177.1350  144.3340 O   0  0  0  0  0  0  0  0  0  0  0  0
  185.9530  178.1950  143.6370 C   0  0  0  0  0  2  0  0  0  0  0  0
  184.6760  178.5970  144.3620 C   0  0  0  0  0  2  0  0  0  0  0  0
  181.1430  178.9710  143.0480 C   0  0  0  0  0  3  0  0  0  0  0  0
  183.7140  178.5440  142.0370 C   0  0  0  0  0  3  0  0  0  0  0  0
  181.3350  178.8080  141.6730 C   0  0  0  0  0  3  0  0  0  0  0  0
  182.6200  178.5920  141.1660 C   0  0  0  0  0  0  0  0  0  0  0  0
  183.5210  178.6900  143.4180 C   0  0  0  0  0  0  0  0  0  0  0  0
  182.2340  178.9090  143.9200 C   0  0  0  0  0  3  0  0  0  0  0  0
  182.8190  178.3890  139.7020 C   0  0  0  0  0  2  0  0  0  0  0  0
  184.7620  177.9920  138.1190 C   0  0  0  0  0  0  0  0  0  0  0  0
  183.9860  177.5810  137.2130 O   0  0  0  0  0  0  0  0  0  0  0  0
  184.2380  178.4430  139.3700 N   0  0  0  0  0  2  0  0  0  0  0  0
  186.2080  178.0190  137.8880 C   0  0  0  0  0  0  0  0  0  0  0  0
  186.7680  179.0690  137.4760 O   0  0  0  0  0  0  0  0  0  0  0  0
  186.9530  176.9110  138.1210 F   0  0  0  0  0  0  0  0  0  0  0  0
  1 10  1  0  0  0  0
  2 16  1  0  0  0  0
  3 12  2  0  0  0  0
  4  9  1  0  0  0  0
  5  8  1  0  0  0  0
  7 14  1  0  0  0  0
  8  6  2  0  0  0  0
  9 11  2  0  0  0  0
 10  9  1  0  0  0  0
 10  5  2  0  0  0  0
 11  6  1  0  0  0  0
 12  2  2  0  0  0  0
 13  3  1  0  0  0  0
 14  3  1  0  0  0  0
 14 15  2  0  0  0  0
 15 17  1  0  0  0  0
 16  4  2  0  0  0  0
 17 18  1  0  0  0  0
 18 16  1  0  0  0  0
 18  1  2  0  0  0  0
 19  1  1  0  0  0  0
 20 19  1  0  0  0  0
 20 21  1  0  0  0  0
 22 27  1  0  0  0  0
 23 26  1  0  0  0  0
 24 22  2  0  0  0  0
 25 24  1  0  0  0  0
 25 23  2  0  0  0  0
 26 27  2  0  0  0  0
 26 21  1  0  0  0  0
 28 25  1  0  0  0  0
 29 31  1  0  0  0  0
 30 29  2  0  0  0  0
 31 28  1  0  0  0  0
 32 29  1  0  0  0  0
 32 34  1  0  0  0  0
 33 32  2  0  0  0  0
M  END
>  <MODEL>
2

>  <REMARK>
 VINA RESULT:      -9.8      2.923      8.165
  Name = 
  7 active torsions:
  status: ('A' for Active; 'I' for Inactive)
    1  A    between atoms: C_1  and  O_9
    2  A    between atoms: C_7  and  C_11
    3  A    between atoms: C_8  and  O_9
    4  A    between atoms: C_8  and  C_18
    5  A    between atoms: C_18  and  C_30
    6  A    between atoms: C_26  and  C_28
    7  A    between atoms: C_26  and  N_29
                            x       y       z     vdW  Elec       q    Type
                         _______ _______ _______ _____ _____    ______ ____

>  <TORSDO>
F 7

$$$$
=
 OpenBabel11052415453D

 34 37  0  0  0  0  0  0  0  0999 V2000
  185.4370  178.1670  143.0080 C   0  0  0  0  0  0  0  0  0  0  0  0
  181.7950  179.2870  143.2570 C   0  0  0  0  0  3  0  0  0  0  0  0
  180.9200  178.1390  141.1090 C   0  0  0  0  0  0  0  0  0  0  0  0
  183.5380  178.9340  144.8980 N   0  0  0  0  0  0  0  0  0  0  0  0
  187.0180  177.7810  144.8690 C   0  0  0  0  0  3  0  0  0  0  0  0
  186.3150  178.1830  147.1480 C   0  0  0  0  0  3  0  0  0  0  0  0
  181.4990  176.0960  139.6660 C   0  0  0  0  0  1  0  0  0  0  0  0
  187.2990  177.7930  146.2380 C   0  0  0  0  0  3  0  0  0  0  0  0
  184.7690  178.5560  145.3220 C   0  0  0  0  0  0  0  0  0  0  0  0
  185.7520  178.1500  144.3890 C   0  0  0  0  0  0  0  0  0  0  0  0
  185.0530  178.5640  146.6910 C   0  0  0  0  0  3  0  0  0  0  0  0
  181.2590  178.7680  142.1950 C   0  0  0  0  0  0  0  0  0  0  0  0
  179.4750  178.0420  140.7530 C   0  0  0  0  0  1  0  0  0  0  0  0
  181.9390  177.2930  140.4360 C   0  0  0  0  0  0  0  0  0  0  0  0
  183.2590  177.5470  140.4800 C   0  0  0  0  0  3  0  0  0  0  0  0
  183.1950  178.9510  143.5860 C   0  0  0  0  0  0  0  0  0  0  0  0
  183.8870  178.7550  141.1260 C   0  0  0  0  0  2  0  0  0  0  0  0
  184.1570  178.5910  142.6030 C   0  0  0  0  0  0  0  0  0  0  0  0
  186.3440  177.7950  141.9990 O   0  0  0  0  0  0  0  0  0  0  0  0
  187.2950  178.6620  141.3930 C   0  0  0  0  0  2  0  0  0  0  0  0
  187.4420  178.3280  139.9150 C   0  0  0  0  0  2  0  0  0  0  0  0
  190.3500  176.7830  138.0420 C   0  0  0  0  0  3  0  0  0  0  0  0
  189.8020  177.7780  140.5960 C   0  0  0  0  0  3  0  0  0  0  0  0
  191.3370  176.7480  139.0330 C   0  0  0  0  0  3  0  0  0  0  0  0
  191.0620  177.2430  140.3110 C   0  0  0  0  0  0  0  0  0  0  0  0
  188.8060  177.7990  139.6100 C   0  0  0  0  0  0  0  0  0  0  0  0
  189.0860  177.3050  138.3310 C   0  0  0  0  0  3  0  0  0  0  0  0
  192.1060  177.1790  141.3750 C   0  0  0  0  0  2  0  0  0  0  0  0
  191.4440  176.9550  143.8150 C   0  0  0  0  0  0  0  0  0  0  0  0
  191.8190  175.7510  143.8420 O   0  0  0  0  0  0  0  0  0  0  0  0
  191.5950  177.7310  142.6230 N   0  0  0  0  0  2  0  0  0  0  0  0
  190.8610  177.5700  145.0090 C   0  0  0  0  0  0  0  0  0  0  0  0
  190.9660  177.0070  146.1310 O   0  0  0  0  0  0  0  0  0  0  0  0
  190.2060  178.7520  144.9140 F   0  0  0  0  0  0  0  0  0  0  0  0
  1 10  1  0  0  0  0
  2 16  1  0  0  0  0
  3 12  2  0  0  0  0
  4  9  1  0  0  0  0
  5  8  1  0  0  0  0
  7 14  1  0  0  0  0
  8  6  2  0  0  0  0
  9 11  2  0  0  0  0
 10  5  2  0  0  0  0
 10  9  1  0  0  0  0
 11  6  1  0  0  0  0
 12  2  2  0  0  0  0
 13  3  1  0  0  0  0
 14 15  2  0  0  0  0
 14  3  1  0  0  0  0
 15 17  1  0  0  0  0
 16  4  2  0  0  0  0
 17 18  1  0  0  0  0
 18  1  2  0  0  0  0
 18 16  1  0  0  0  0
 19  1  1  0  0  0  0
 20 19  1  0  0  0  0
 21 20  1  0  0  0  0
 22 27  2  0  0  0  0
 22 24  1  0  0  0  0
 24 25  2  0  0  0  0
 25 23  1  0  0  0  0
 25 28  1  0  0  0  0
 26 21  1  0  0  0  0
 26 23  2  0  0  0  0
 27 26  1  0  0  0  0
 28 31  1  0  0  0  0
 29 30  2  0  0  0  0
 29 32  1  0  0  0  0
 31 29  1  0  0  0  0
 32 33  2  0  0  0  0
 34 32  1  0  0  0  0
M  END
>  <MODEL>
3

>  <REMARK>
 VINA RESULT:      -9.8      1.473      2.017
  Name = 
  7 active torsions:
  status: ('A' for Active; 'I' for Inactive)
    1  A    between atoms: C_1  and  O_9
    2  A    between atoms: C_7  and  C_11
    3  A    between atoms: C_8  and  O_9
    4  A    between atoms: C_8  and  C_18
    5  A    between atoms: C_18  and  C_30
    6  A    between atoms: C_26  and  C_28
    7  A    between atoms: C_26  and  N_29
                            x       y       z     vdW  Elec       q    Type
                         _______ _______ _______ _____ _____    ______ ____

>  <TORSDO>
F 7

$$$$
=
 OpenBabel11052415453D

 34 37  0  0  0  0  0  0  0  0999 V2000
  187.6770  178.3000  140.3200 C   0  0  0  0  0  0  0  0  0  0  0  0
  187.9870  178.2180  136.5150 C   0  0  0  0  0  3  0  0  0  0  0  0
  190.0920  176.7210  136.3590 C   0  0  0  0  0  0  0  0  0  0  0  0
  186.1200  178.5390  138.0210 N   0  0  0  0  0  0  0  0  0  0  0  0
  185.6090  178.5510  141.6510 C   0  0  0  0  0  3  0  0  0  0  0  0
  183.4860  178.8490  140.5320 C   0  0  0  0  0  3  0  0  0  0  0  0
  191.2330  174.8830  137.7420 C   0  0  0  0  0  1  0  0  0  0  0  0
  184.2260  178.7360  141.7100 C   0  0  0  0  0  3  0  0  0  0  0  0
  185.5140  178.5980  139.2320 C   0  0  0  0  0  0  0  0  0  0  0  0
  186.2740  178.4690  140.4180 C   0  0  0  0  0  0  0  0  0  0  0  0
  184.1300  178.7810  139.2950 C   0  0  0  0  0  3  0  0  0  0  0  0
  189.0460  177.4910  136.3260 C   0  0  0  0  0  0  0  0  0  0  0  0
  190.6070  176.1480  135.0830 C   0  0  0  0  0  1  0  0  0  0  0  0
  190.5460  176.2020  137.6760 C   0  0  0  0  0  0  0  0  0  0  0  0
  190.3700  176.8650  138.8330 C   0  0  0  0  0  3  0  0  0  0  0  0
  187.4590  178.3650  137.8860 C   0  0  0  0  0  0  0  0  0  0  0  0
  189.7840  178.2470  138.9590 C   0  0  0  0  0  2  0  0  0  0  0  0
  188.2750  178.2690  139.0460 C   0  0  0  0  0  0  0  0  0  0  0  0
  188.5260  178.1730  141.4350 O   0  0  0  0  0  0  0  0  0  0  0  0
  188.7890  176.9590  142.1290 C   0  0  0  0  0  2  0  0  0  0  0  0
  190.1940  176.9860  142.7160 C   0  0  0  0  0  2  0  0  0  0  0  0
  191.3040  176.7470  146.3300 C   0  0  0  0  0  3  0  0  0  0  0  0
  188.9600  177.2540  144.8930 C   0  0  0  0  0  3  0  0  0  0  0  0
  190.1040  176.9780  147.0090 C   0  0  0  0  0  3  0  0  0  0  0  0
  188.9310  177.2290  146.2920 C   0  0  0  0  0  0  0  0  0  0  0  0
  190.1590  177.0060  144.2100 C   0  0  0  0  0  0  0  0  0  0  0  0
  191.3310  176.7580  144.9320 C   0  0  0  0  0  3  0  0  0  0  0  0
  187.6460  177.4460  147.0170 C   0  0  0  0  0  2  0  0  0  0  0  0
  185.7260  178.9770  146.3760 C   0  0  0  0  0  0  0  0  0  0  0  0
  185.8620  179.6490  147.4350 O   0  0  0  0  0  0  0  0  0  0  0  0
  186.6080  177.8880  146.0930 N   0  0  0  0  0  2  0  0  0  0  0  0
  184.6670  179.3160  145.4230 C   0  0  0  0  0  0  0  0  0  0  0  0
  183.5060  178.8500  145.5670 O   0  0  0  0  0  0  0  0  0  0  0  0
  184.9320  180.1380  144.3780 F   0  0  0  0  0  0  0  0  0  0  0  0
  1 10  1  0  0  0  0
  1 19  1  0  0  0  0
  2 16  1  0  0  0  0
  3 14  1  0  0  0  0
  4  9  1  0  0  0  0
  5  8  1  0  0  0  0
  6  8  2  0  0  0  0
  9 11  2  0  0  0  0
  9 10  1  0  0  0  0
 10  5  2  0  0  0  0
 11  6  1  0  0  0  0
 12  3  2  0  0  0  0
 12  2  2  0  0  0  0
 13  3  1  0  0  0  0
 14  7  1  0  0  0  0
 14 15  2  0  0  0  0
 15 17  1  0  0  0  0
 16  4  2  0  0  0  0
 16 18  1  0  0  0  0
 17 18  1  0  0  0  0
 18  1  2  0  0  0  0
 19 20  1  0  0  0  0
 20 21  1  0  0  0  0
 21 26  1  0  0  0  0
 22 24  1  0  0  0  0
 23 25  1  0  0  0  0
 25 24  2  0  0  0  0
 25 28  1  0  0  0  0
 26 23  2  0  0  0  0
 26 27  1  0  0  0  0
 27 22  2  0  0  0  0
 29 30  2  0  0  0  0
 31 29  1  0  0  0  0
 31 28  1  0  0  0  0
 32 33  2  0  0  0  0
 32 29  1  0  0  0  0
 34 32  1  0  0  0  0
M  END
>  <MODEL>
4

>  <REMARK>
 VINA RESULT:      -9.6      3.310      6.902
  Name = 
  7 active torsions:
  status: ('A' for Active; 'I' for Inactive)
    1  A    between atoms: C_1  and  O_9
    2  A    between atoms: C_7  and  C_11
    3  A    between atoms: C_8  and  O_9
    4  A    between atoms: C_8  and  C_18
    5  A    between atoms: C_18  and  C_30
    6  A    between atoms: C_26  and  C_28
    7  A    between atoms: C_26  and  N_29
                            x       y       z     vdW  Elec       q    Type
                         _______ _______ _______ _____ _____    ______ ____

>  <TORSDO>
F 7

$$$$
=
 OpenBabel11052415453D

 34 37  0  0  0  0  0  0  0  0999 V2000
  187.9920  177.1580  144.9010 C   0  0  0  0  0  0  0  0  0  0  0  0
  191.5140  176.5700  143.5470 C   0  0  0  0  0  3  0  0  0  0  0  0
  191.0420  177.1360  141.0660 C   0  0  0  0  0  0  0  0  0  0  0  0
  190.6550  177.1880  145.7230 N   0  0  0  0  0  0  0  0  0  0  0  0
  187.3640  177.8880  147.1780 C   0  0  0  0  0  3  0  0  0  0  0  0
  189.0800  178.2440  148.8440 C   0  0  0  0  0  3  0  0  0  0  0  0
  189.4160  178.5960  139.7180 C   0  0  0  0  0  1  0  0  0  0  0  0
  187.7330  178.2420  148.4780 C   0  0  0  0  0  3  0  0  0  0  0  0
  189.6920  177.5330  146.6120 C   0  0  0  0  0  0  0  0  0  0  0  0
  188.3310  177.5390  146.2230 C   0  0  0  0  0  0  0  0  0  0  0  0
  190.0570  177.8900  147.9120 C   0  0  0  0  0  3  0  0  0  0  0  0
  191.3810  176.8160  142.2790 C   0  0  0  0  0  0  0  0  0  0  0  0
  192.1080  177.2870  140.0350 C   0  0  0  0  0  1  0  0  0  0  0  0
  189.6620  177.6330  140.8260 C   0  0  0  0  0  0  0  0  0  0  0  0
  188.6020  177.2570  141.5640 C   0  0  0  0  0  3  0  0  0  0  0  0
  190.3710  176.8290  144.4460 C   0  0  0  0  0  0  0  0  0  0  0  0
  188.6320  176.2260  142.6620 C   0  0  0  0  0  2  0  0  0  0  0  0
  189.0170  176.7800  144.0140 C   0  0  0  0  0  0  0  0  0  0  0  0
  186.6720  177.1190  144.4170 O   0  0  0  0  0  0  0  0  0  0  0  0
  186.0170  178.1840  143.7390 C   0  0  0  0  0  2  0  0  0  0  0  0
  184.7760  178.6120  144.5110 C   0  0  0  0  0  2  0  0  0  0  0  0
  181.2090  179.0850  143.3270 C   0  0  0  0  0  3  0  0  0  0  0  0
  183.7210  178.5470  142.2270 C   0  0  0  0  0  3  0  0  0  0  0  0
  181.3400  178.8880  141.9490 C   0  0  0  0  0  3  0  0  0  0  0  0
  182.5960  178.6160  141.3980 C   0  0  0  0  0  0  0  0  0  0  0  0
  183.5890  178.7270  143.6100 C   0  0  0  0  0  0  0  0  0  0  0  0
  182.3310  179.0010  144.1570 C   0  0  0  0  0  3  0  0  0  0  0  0
  182.7310  178.3780  139.9320 C   0  0  0  0  0  2  0  0  0  0  0  0
  182.2110  180.5060  138.6490 C   0  0  0  0  0  0  0  0  0  0  0  0
  183.4070  180.8960  138.7440 O   0  0  0  0  0  0  0  0  0  0  0  0
  181.8190  179.2420  139.1910 N   0  0  0  0  0  2  0  0  0  0  0  0
  181.2170  181.3430  137.9740 C   0  0  0  0  0  0  0  0  0  0  0  0
  180.3940  182.0200  138.6450 O   0  0  0  0  0  0  0  0  0  0  0  0
  181.1800  181.3950  136.6210 F   0  0  0  0  0  0  0  0  0  0  0  0
  1 10  1  0  0  0  0
  2 16  1  0  0  0  0
  3 12  2  0  0  0  0
  4  9  1  0  0  0  0
  5  8  1  0  0  0  0
  7 14  1  0  0  0  0
  8  6  2  0  0  0  0
  9 11  2  0  0  0  0
 10  9  1  0  0  0  0
 10  5  2  0  0  0  0
 11  6  1  0  0  0  0
 12  2  2  0  0  0  0
 13  3  1  0  0  0  0
 14  3  1  0  0  0  0
 14 15  2  0  0  0  0
 15 17  1  0  0  0  0
 16  4  2  0  0  0  0
 17 18  1  0  0  0  0
 18 16  1  0  0  0  0
 18  1  2  0  0  0  0
 19  1  1  0  0  0  0
 20 19  1  0  0  0  0
 20 21  1  0  0  0  0
 22 27  1  0  0  0  0
 23 26  1  0  0  0  0
 24 22  2  0  0  0  0
 25 24  1  0  0  0  0
 25 23  2  0  0  0  0
 26 27  2  0  0  0  0
 26 21  1  0  0  0  0
 28 25  1  0  0  0  0
 29 30  2  0  0  0  0
 29 31  1  0  0  0  0
 31 28  1  0  0  0  0
 32 33  2  0  0  0  0
 32 29  1  0  0  0  0
 34 32  1  0  0  0  0
M  END
>  <MODEL>
5

>  <REMARK>
 VINA RESULT:      -9.5      3.790      9.004
  Name = 
  7 active torsions:
  status: ('A' for Active; 'I' for Inactive)
    1  A    between atoms: C_1  and  O_9
    2  A    between atoms: C_7  and  C_11
    3  A    between atoms: C_8  and  O_9
    4  A    between atoms: C_8  and  C_18
    5  A    between atoms: C_18  and  C_30
    6  A    between atoms: C_26  and  C_28
    7  A    between atoms: C_26  and  N_29
                            x       y       z     vdW  Elec       q    Type
                         _______ _______ _______ _____ _____    ______ ____

>  <TORSDO>
F 7

$$$$
=
 OpenBabel11052415453D

 34 37  0  0  0  0  0  0  0  0999 V2000
  186.8280  178.0810  143.4360 C   0  0  0  0  0  0  0  0  0  0  0  0
  183.3140  179.3790  144.1730 C   0  0  0  0  0  3  0  0  0  0  0  0
  182.1810  178.6120  141.9760 C   0  0  0  0  0  0  0  0  0  0  0  0
  185.1540  178.6830  145.5810 N   0  0  0  0  0  0  0  0  0  0  0  0
  188.5230  177.3310  145.0720 C   0  0  0  0  0  3  0  0  0  0  0  0
  188.0420  177.4410  147.4400 C   0  0  0  0  0  3  0  0  0  0  0  0
  182.4840  176.7680  140.2160 C   0  0  0  0  0  1  0  0  0  0  0  0
  188.9150  177.1270  146.3970 C   0  0  0  0  0  3  0  0  0  0  0  0
  186.3830  178.1710  145.8340 C   0  0  0  0  0  0  0  0  0  0  0  0
  187.2530  177.8440  144.7670 C   0  0  0  0  0  0  0  0  0  0  0  0
  186.7780  177.9630  147.1580 C   0  0  0  0  0  3  0  0  0  0  0  0
  182.6540  179.0540  143.1030 C   0  0  0  0  0  0  0  0  0  0  0  0
  180.7090  178.6570  141.7450 C   0  0  0  0  0  1  0  0  0  0  0  0
  183.0740  177.8100  141.1010 C   0  0  0  0  0  0  0  0  0  0  0  0
  184.4090  177.9720  141.0580 C   0  0  0  0  0  3  0  0  0  0  0  0
  184.7060  178.9120  144.3210 C   0  0  0  0  0  0  0  0  0  0  0  0
  185.1770  179.0310  141.8050 C   0  0  0  0  0  2  0  0  0  0  0  0
  185.5550  178.6380  143.2140 C   0  0  0  0  0  0  0  0  0  0  0  0
  187.6180  177.8030  142.3060 O   0  0  0  0  0  0  0  0  0  0  0  0
  188.6970  178.6070  141.8440 C   0  0  0  0  0  2  0  0  0  0  0  0
  189.9140  177.7370  141.5600 C   0  0  0  0  0  2  0  0  0  0  0  0
  191.3310  176.5130  138.2670 C   0  0  0  0  0  3  0  0  0  0  0  0
  189.1970  178.0750  139.1710 C   0  0  0  0  0  3  0  0  0  0  0  0
  190.4550  177.0990  137.3470 C   0  0  0  0  0  3  0  0  0  0  0  0
  189.3890  177.8830  137.7990 C   0  0  0  0  0  0  0  0  0  0  0  0
  190.0830  177.5020  140.0930 C   0  0  0  0  0  0  0  0  0  0  0  0
  191.1470  176.7170  139.6380 C   0  0  0  0  0  3  0  0  0  0  0  0
  188.4730  178.5310  136.8160 C   0  0  0  0  0  2  0  0  0  0  0  0
  186.0560  178.0100  137.3880 C   0  0  0  0  0  0  0  0  0  0  0  0
  185.9890  179.0010  138.1650 O   0  0  0  0  0  0  0  0  0  0  0  0
  187.2570  177.7430  136.6590 N   0  0  0  0  0  2  0  0  0  0  0  0
  184.8970  177.1300  137.2200 C   0  0  0  0  0  0  0  0  0  0  0  0
  185.0560  175.8920  137.0520 O   0  0  0  0  0  0  0  0  0  0  0  0
  183.6440  177.6460  137.2480 F   0  0  0  0  0  0  0  0  0  0  0  0
  1 10  1  0  0  0  0
  2 16  1  0  0  0  0
  3 12  2  0  0  0  0
  4  9  1  0  0  0  0
  5  8  1  0  0  0  0
  7 14  1  0  0  0  0
  8  6  2  0  0  0  0
  9 11  2  0  0  0  0
 10  5  2  0  0  0  0
 10  9  1  0  0  0  0
 11  6  1  0  0  0  0
 12  2  2  0  0  0  0
 13  3  1  0  0  0  0
 14  3  1  0  0  0  0
 15 14  2  0  0  0  0
 15 17  1  0  0  0  0
 16  4  2  0  0  0  0
 17 18  1  0  0  0  0
 18  1  2  0  0  0  0
 18 16  1  0  0  0  0
 19  1  1  0  0  0  0
 20 19  1  0  0  0  0
 21 20  1  0  0  0  0
 22 27  1  0  0  0  0
 23 26  1  0  0  0  0
 24 25  1  0  0  0  0
 24 22  2  0  0  0  0
 25 23  2  0  0  0  0
 26 21  1  0  0  0  0
 27 26  2  0  0  0  0
 28 25  1  0  0  0  0
 29 30  2  0  0  0  0
 31 28  1  0  0  0  0
 31 29  1  0  0  0  0
 32 34  1  0  0  0  0
 32 29  1  0  0  0  0
 33 32  2  0  0  0  0
M  END
>  <MODEL>
6

>  <REMARK>
 VINA RESULT:      -9.4      3.456      5.566
  Name = 
  7 active torsions:
  status: ('A' for Active; 'I' for Inactive)
    1  A    between atoms: C_1  and  O_9
    2  A    between atoms: C_7  and  C_11
    3  A    between atoms: C_8  and  O_9
    4  A    between atoms: C_8  and  C_18
    5  A    between atoms: C_18  and  C_30
    6  A    between atoms: C_26  and  C_28
    7  A    between atoms: C_26  and  N_29
                            x       y       z     vdW  Elec       q    Type
                         _______ _______ _______ _____ _____    ______ ____

>  <TORSDO>
F 7

$$$$
=
 OpenBabel11052415453D

 34 37  0  0  0  0  0  0  0  0999 V2000
  187.3010  178.2680  143.7460 C   0  0  0  0  0  0  0  0  0  0  0  0
  183.7130  179.1640  144.6950 C   0  0  0  0  0  3  0  0  0  0  0  0
  182.6040  178.6720  142.4090 C   0  0  0  0  0  0  0  0  0  0  0  0
  185.6220  178.3940  145.9660 N   0  0  0  0  0  0  0  0  0  0  0  0
  189.0730  177.3970  145.2340 C   0  0  0  0  0  3  0  0  0  0  0  0
  188.6230  177.0940  147.5910 C   0  0  0  0  0  3  0  0  0  0  0  0
  183.0140  177.1590  140.3760 C   0  0  0  0  0  1  0  0  0  0  0  0
  189.5000  177.0150  146.5080 C   0  0  0  0  0  3  0  0  0  0  0  0
  186.8890  177.9430  146.1290 C   0  0  0  0  0  0  0  0  0  0  0  0
  187.7640  177.8550  145.0200 C   0  0  0  0  0  0  0  0  0  0  0  0
  187.3200  177.5580  147.4020 C   0  0  0  0  0  3  0  0  0  0  0  0
  183.0620  178.9640  143.5890 C   0  0  0  0  0  0  0  0  0  0  0  0
  181.1290  178.6430  142.1940 C   0  0  0  0  0  1  0  0  0  0  0  0
  183.5400  178.0890  141.4130 C   0  0  0  0  0  0  0  0  0  0  0  0
  184.8580  178.3550  141.3910 C   0  0  0  0  0  3  0  0  0  0  0  0
  185.1380  178.7860  144.7610 C   0  0  0  0  0  0  0  0  0  0  0  0
  185.5590  179.3380  142.2930 C   0  0  0  0  0  2  0  0  0  0  0  0
  185.9870  178.7560  143.6200 C   0  0  0  0  0  0  0  0  0  0  0  0
  188.0910  178.2330  142.5820 O   0  0  0  0  0  0  0  0  0  0  0  0
  188.5260  177.0490  141.9240 C   0  0  0  0  0  2  0  0  0  0  0  0
  189.9270  177.2470  141.3630 C   0  0  0  0  0  2  0  0  0  0  0  0
  189.0120  178.4360  137.8840 C   0  0  0  0  0  3  0  0  0  0  0  0
  190.7000  176.5510  139.0710 C   0  0  0  0  0  3  0  0  0  0  0  0
  189.7960  177.5990  137.0840 C   0  0  0  0  0  3  0  0  0  0  0  0
  190.6390  176.6530  137.6770 C   0  0  0  0  0  0  0  0  0  0  0  0
  189.9030  177.3780  139.8730 C   0  0  0  0  0  0  0  0  0  0  0  0
  189.0630  178.3240  139.2770 C   0  0  0  0  0  3  0  0  0  0  0  0
  191.4520  175.7410  136.8230 C   0  0  0  0  0  2  0  0  0  0  0  0
  193.8620  175.3980  137.5390 C   0  0  0  0  0  0  0  0  0  0  0  0
  194.2530  176.3430  136.8010 O   0  0  0  0  0  0  0  0  0  0  0  0
  192.4720  175.0720  137.6200 N   0  0  0  0  0  2  0  0  0  0  0  0
  194.8320  174.6330  138.3270 C   0  0  0  0  0  0  0  0  0  0  0  0
  195.4990  175.1940  139.2360 O   0  0  0  0  0  0  0  0  0  0  0  0
  195.0140  173.3120  138.0820 F   0  0  0  0  0  0  0  0  0  0  0  0
  1 10  1  0  0  0  0
  2 16  1  0  0  0  0
  3 12  2  0  0  0  0
  4  9  1  0  0  0  0
  5  8  1  0  0  0  0
  7 14  1  0  0  0  0
  8  6  2  0  0  0  0
  9 11  2  0  0  0  0
 10  5  2  0  0  0  0
 10  9  1  0  0  0  0
 11  6  1  0  0  0  0
 12  2  2  0  0  0  0
 13  3  1  0  0  0  0
 14  3  1  0  0  0  0
 15 14  2  0  0  0  0
 15 17  1  0  0  0  0
 16  4  2  0  0  0  0
 17 18  1  0  0  0  0
 18  1  2  0  0  0  0
 18 16  1  0  0  0  0
 19  1  1  0  0  0  0
 20 19  1  0  0  0  0
 21 20  1  0  0  0  0
 22 27  1  0  0  0  0
 23 26  1  0  0  0  0
 24 25  1  0  0  0  0
 24 22  2  0  0  0  0
 25 23  2  0  0  0  0
 26 21  1  0  0  0  0
 27 26  2  0  0  0  0
 28 31  1  0  0  0  0
 28 25  1  0  0  0  0
 29 31  1  0  0  0  0
 29 32  1  0  0  0  0
 30 29  2  0  0  0  0
 32 33  2  0  0  0  0
 34 32  1  0  0  0  0
M  END
>  <MODEL>
7

>  <REMARK>
 VINA RESULT:      -9.4      3.713      4.959
  Name = 
  7 active torsions:
  status: ('A' for Active; 'I' for Inactive)
    1  A    between atoms: C_1  and  O_9
    2  A    between atoms: C_7  and  C_11
    3  A    between atoms: C_8  and  O_9
    4  A    between atoms: C_8  and  C_18
    5  A    between atoms: C_18  and  C_30
    6  A    between atoms: C_26  and  C_28
    7  A    between atoms: C_26  and  N_29
                            x       y       z     vdW  Elec       q    Type
                         _______ _______ _______ _____ _____    ______ ____

>  <TORSDO>
F 7

$$$$
=
 OpenBabel11052415453D

 34 37  0  0  0  0  0  0  0  0999 V2000
  189.1520  178.2530  141.4030 C   0  0  0  0  0  0  0  0  0  0  0  0
  191.9990  176.6240  143.3590 C   0  0  0  0  0  3  0  0  0  0  0  0
  190.9760  176.8410  145.7260 C   0  0  0  0  0  0  0  0  0  0  0  0
  191.2170  176.4090  141.0790 N   0  0  0  0  0  0  0  0  0  0  0  0
  188.4810  177.7910  139.0690 C   0  0  0  0  0  3  0  0  0  0  0  0
  189.7280  176.1910  137.7510 C   0  0  0  0  0  3  0  0  0  0  0  0
  188.6440  176.9670  146.7930 C   0  0  0  0  0  1  0  0  0  0  0  0
  188.6810  177.1080  137.8670 C   0  0  0  0  0  3  0  0  0  0  0  0
  190.3800  176.6440  140.0390 C   0  0  0  0  0  0  0  0  0  0  0  0
  189.3150  177.5650  140.1740 C   0  0  0  0  0  0  0  0  0  0  0  0
  190.5760  175.9610  138.8360 C   0  0  0  0  0  3  0  0  0  0  0  0
  191.5850  176.6980  144.5870 C   0  0  0  0  0  0  0  0  0  0  0  0
  191.5470  176.1850  146.9370 C   0  0  0  0  0  1  0  0  0  0  0  0
  189.5930  177.3840  145.7240 C   0  0  0  0  0  0  0  0  0  0  0  0
  189.1380  178.2460  144.7970 C   0  0  0  0  0  3  0  0  0  0  0  0
  191.0860  177.0380  142.2740 C   0  0  0  0  0  0  0  0  0  0  0  0
  189.9690  178.8530  143.6970 C   0  0  0  0  0  2  0  0  0  0  0  0
  190.0570  178.0020  142.4520 C   0  0  0  0  0  0  0  0  0  0  0  0
  188.1350  179.1950  141.6380 O   0  0  0  0  0  0  0  0  0  0  0  0
  186.7390  178.9250  141.5820 C   0  0  0  0  0  2  0  0  0  0  0  0
  186.3820  177.8160  142.5630 C   0  0  0  0  0  2  0  0  0  0  0  0
  184.5620  178.7190  145.7610 C   0  0  0  0  0  3  0  0  0  0  0  0
  184.0180  178.5450  143.0250 C   0  0  0  0  0  3  0  0  0  0  0  0
  183.2780  178.9990  145.2850 C   0  0  0  0  0  3  0  0  0  0  0  0
  183.0030  178.9090  143.9170 C   0  0  0  0  0  0  0  0  0  0  0  0
  185.3020  178.2480  143.5020 C   0  0  0  0  0  0  0  0  0  0  0  0
  185.5720  178.3420  144.8700 C   0  0  0  0  0  3  0  0  0  0  0  0
  181.6250  179.1790  143.4140 C   0  0  0  0  0  2  0  0  0  0  0  0
  180.4140  177.9730  141.5380 C   0  0  0  0  0  0  0  0  0  0  0  0
  179.4690  177.6520  142.3080 O   0  0  0  0  0  0  0  0  0  0  0  0
  181.5020  178.7650  142.0210 N   0  0  0  0  0  2  0  0  0  0  0  0
  180.3980  177.5440  140.1380 C   0  0  0  0  0  0  0  0  0  0  0  0
  180.0640  178.3490  139.2280 O   0  0  0  0  0  0  0  0  0  0  0  0
  180.7470  176.2760  139.8130 F   0  0  0  0  0  0  0  0  0  0  0  0
  1 19  1  0  0  0  0
  1 18  1  0  0  0  0
  2 12  2  0  0  0  0
  3 13  1  0  0  0  0
  4 16  1  0  0  0  0
  5 10  1  0  0  0  0
  6  8  1  0  0  0  0
  6 11  2  0  0  0  0
  8  5  2  0  0  0  0
  9 10  1  0  0  0  0
  9  4  2  0  0  0  0
 10  1  2  0  0  0  0
 11  9  1  0  0  0  0
 12  3  2  0  0  0  0
 14  3  1  0  0  0  0
 14  7  1  0  0  0  0
 15 14  2  0  0  0  0
 16 18  2  0  0  0  0
 16  2  1  0  0  0  0
 17 15  1  0  0  0  0
 18 17  1  0  0  0  0
 20 19  1  0  0  0  0
 20 21  1  0  0  0  0
 21 26  1  0  0  0  0
 23 26  2  0  0  0  0
 23 25  1  0  0  0  0
 24 22  1  0  0  0  0
 25 24  2  0  0  0  0
 26 27  1  0  0  0  0
 27 22  2  0  0  0  0
 28 25  1  0  0  0  0
 29 31  1  0  0  0  0
 29 30  2  0  0  0  0
 31 28  1  0  0  0  0
 32 29  1  0  0  0  0
 33 32  2  0  0  0  0
 34 32  1  0  0  0  0
M  END
>  <MODEL>
8

>  <REMARK>
 VINA RESULT:      -9.3      3.354      9.271
  Name = 
  7 active torsions:
  status: ('A' for Active; 'I' for Inactive)
    1  A    between atoms: C_1  and  O_9
    2  A    between atoms: C_7  and  C_11
    3  A    between atoms: C_8  and  O_9
    4  A    between atoms: C_8  and  C_18
    5  A    between atoms: C_18  and  C_30
    6  A    between atoms: C_26  and  C_28
    7  A    between atoms: C_26  and  N_29
                            x       y       z     vdW  Elec       q    Type
                         _______ _______ _______ _____ _____    ______ ____

>  <TORSDO>
F 7

$$$$
=
 OpenBabel11052415453D

 34 37  0  0  0  0  0  0  0  0999 V2000
  187.9420  177.1280  144.8740 C   0  0  0  0  0  0  0  0  0  0  0  0
  191.5150  176.6820  143.6040 C   0  0  0  0  0  3  0  0  0  0  0  0
  191.0800  177.2330  141.1120 C   0  0  0  0  0  0  0  0  0  0  0  0
  190.5810  177.2630  145.7590 N   0  0  0  0  0  0  0  0  0  0  0  0
  187.2310  177.8300  147.1360 C   0  0  0  0  0  3  0  0  0  0  0  0
  188.8920  178.2530  148.8420 C   0  0  0  0  0  3  0  0  0  0  0  0
  189.4300  178.6280  139.7260 C   0  0  0  0  0  1  0  0  0  0  0  0
  187.5550  178.1970  148.4440 C   0  0  0  0  0  3  0  0  0  0  0  0
  189.5840  177.5690  146.6250 C   0  0  0  0  0  0  0  0  0  0  0  0
  188.2340  177.5210  146.2040 C   0  0  0  0  0  0  0  0  0  0  0  0
  189.9040  177.9380  147.9340 C   0  0  0  0  0  3  0  0  0  0  0  0
  191.4030  176.9240  142.3330 C   0  0  0  0  0  0  0  0  0  0  0  0
  192.1640  177.4270  140.1070 C   0  0  0  0  0  1  0  0  0  0  0  0
  189.6880  177.6740  140.8400 C   0  0  0  0  0  0  0  0  0  0  0  0
  188.6260  177.2560  141.5520 C   0  0  0  0  0  3  0  0  0  0  0  0
  190.3420  176.8950  144.4750 C   0  0  0  0  0  0  0  0  0  0  0  0
  188.6710  176.2250  142.6510 C   0  0  0  0  0  2  0  0  0  0  0  0
  189.0020  176.7920  144.0110 C   0  0  0  0  0  0  0  0  0  0  0  0
  186.6360  177.0370  144.3590 O   0  0  0  0  0  0  0  0  0  0  0  0
  185.9760  178.0570  143.6180 C   0  0  0  0  0  2  0  0  0  0  0  0
  184.8580  178.6680  144.4520 C   0  0  0  0  0  2  0  0  0  0  0  0
  181.1790  179.0430  143.6300 C   0  0  0  0  0  3  0  0  0  0  0  0
  183.5840  178.5860  142.2820 C   0  0  0  0  0  3  0  0  0  0  0  0
  181.1790  178.8590  142.2440 C   0  0  0  0  0  3  0  0  0  0  0  0
  182.3820  178.6280  141.5690 C   0  0  0  0  0  0  0  0  0  0  0  0
  183.5840  178.7540  143.6740 C   0  0  0  0  0  0  0  0  0  0  0  0
  182.3790  178.9880  144.3450 C   0  0  0  0  0  3  0  0  0  0  0  0
  182.3770  178.4030  140.0950 C   0  0  0  0  0  2  0  0  0  0  0  0
  181.5450  176.1120  139.3880 C   0  0  0  0  0  0  0  0  0  0  0  0
  182.7080  175.6280  139.4640 O   0  0  0  0  0  0  0  0  0  0  0  0
  181.3100  177.4810  139.7240 N   0  0  0  0  0  2  0  0  0  0  0  0
  180.4260  175.2690  138.9620 C   0  0  0  0  0  0  0  0  0  0  0  0
  180.1360  175.1630  137.7410 O   0  0  0  0  0  0  0  0  0  0  0  0
  179.6960  174.5940  139.8830 F   0  0  0  0  0  0  0  0  0  0  0  0
  1 10  1  0  0  0  0
  2 16  1  0  0  0  0
  3 12  2  0  0  0  0
  4  9  1  0  0  0  0
  5  8  1  0  0  0  0
  7 14  1  0  0  0  0
  8  6  2  0  0  0  0
  9 11  2  0  0  0  0
 10  9  1  0  0  0  0
 10  5  2  0  0  0  0
 11  6  1  0  0  0  0
 12  2  2  0  0  0  0
 13  3  1  0  0  0  0
 14  3  1  0  0  0  0
 14 15  2  0  0  0  0
 15 17  1  0  0  0  0
 16  4  2  0  0  0  0
 17 18  1  0  0  0  0
 18 16  1  0  0  0  0
 18  1  2  0  0  0  0
 19  1  1  0  0  0  0
 20 19  1  0  0  0  0
 20 21  1  0  0  0  0
 22 27  1  0  0  0  0
 23 26  1  0  0  0  0
 24 22  2  0  0  0  0
 25 24  1  0  0  0  0
 25 23  2  0  0  0  0
 26 27  2  0  0  0  0
 26 21  1  0  0  0  0
 28 25  1  0  0  0  0
 29 30  2  0  0  0  0
 29 31  1  0  0  0  0
 31 28  1  0  0  0  0
 32 29  1  0  0  0  0
 32 34  1  0  0  0  0
 33 32  2  0  0  0  0
M  END
>  <MODEL>
9

>  <REMARK>
 VINA RESULT:      -9.2      3.385      8.808
  Name = 
  7 active torsions:
  status: ('A' for Active; 'I' for Inactive)
    1  A    between atoms: C_1  and  O_9
    2  A    between atoms: C_7  and  C_11
    3  A    between atoms: C_8  and  O_9
    4  A    between atoms: C_8  and  C_18
    5  A    between atoms: C_18  and  C_30
    6  A    between atoms: C_26  and  C_28
    7  A    between atoms: C_26  and  N_29
                            x       y       z     vdW  Elec       q    Type
                         _______ _______ _______ _____ _____    ______ ____

>  <TORSDO>
F 7

$$$$
