=
 OpenBabel11052416313D

 43 49  0  0  1  0  0  0  0  0999 V2000
  183.9580  177.1880  135.8800 N   0  0  0  0  0  2  0  0  0  0  0  0
  189.1170  177.9460  137.8340 C   0  0  2  0  0  3  0  0  0  0  0  0
  187.0340  177.4260  135.8920 C   0  0  1  0  0  3  0  0  0  0  0  0
  184.5510  176.4980  137.0170 C   0  0  0  0  0  2  0  0  0  0  0  0
  184.8540  177.0450  134.7420 C   0  0  0  0  0  2  0  0  0  0  0  0
  186.7070  177.9060  137.3340 C   0  0  1  0  0  3  0  0  0  0  0  0
  186.0490  177.9790  134.8730 C   0  0  0  0  0  2  0  0  0  0  0  0
  185.3210  177.4970  137.8740 C   0  0  0  0  0  2  0  0  0  0  0  0
  187.7240  177.8270  139.7130 C   0  0  0  0  0  2  0  0  0  0  0  0
  187.7980  177.3910  138.2660 C   0  0  2  0  0  3  0  0  0  0  0  0
  189.5100  177.3630  136.4850 C   0  0  0  0  0  2  0  0  0  0  0  0
  189.9960  177.6960  139.0390 C   0  0  1  0  0  3  0  0  0  0  0  0
  189.1060  177.9930  140.1920 N   0  0  2  0  0  0  0  0  0  0  0  0
  188.4610  177.8150  135.4640 C   0  0  0  0  0  2  0  0  0  0  0  0
  188.9670  177.8690  142.6310 C   0  0  1  0  0  3  0  0  0  0  0  0
  190.4150  177.6970  142.2250 C   0  0  0  0  0  2  0  0  0  0  0  0
  189.3170  177.1240  141.3520 C   0  0  2  0  0  3  0  0  0  0  0  0
  188.6250  176.8670  143.7210 C   0  0  0  0  0  2  0  0  0  0  0  0
  188.1600  177.5770  144.9970 C   0  0  2  0  0  3  0  0  0  0  0  0
  189.0080  177.2390  146.2320 C   0  0  1  0  0  3  0  0  0  0  0  0
  190.4950  177.0920  145.9130 C   0  0  0  0  0  2  0  0  0  0  0  0
  191.3020  176.9340  147.1880 C   0  0  0  0  0  2  0  0  0  0  0  0
  191.8000  175.5090  147.2970 C   0  0  0  0  0  1  0  0  0  0  0  0
  188.7960  178.2770  147.3240 C   0  0  0  0  0  2  0  0  0  0  0  0
  187.9900  176.2920  148.3550 F   0  0  0  0  0  0  0  0  0  0  0  0
  188.1610  177.6500  148.5530 C   0  0  0  0  0  2  0  0  0  0  0  0
  186.8130  177.2940  145.2360 O   0  0  0  0  0  0  0  0  0  0  0  0
  186.1930  178.5440  145.3270 C   0  0  0  0  0  2  0  0  0  0  0  0
  185.0650  178.6180  144.3560 C   0  0  0  0  0  0  0  0  0  0  0  0
  182.7470  178.9870  143.9070 N   0  0  0  0  0  0  0  0  0  0  0  0
  184.1970  178.3520  142.1150 C   0  0  0  0  0  3  0  0  0  0  0  0
  182.9290  178.7000  142.5890 C   0  0  0  0  0  3  0  0  0  0  0  0
  185.2700  178.3110  143.0090 C   0  0  0  0  0  3  0  0  0  0  0  0
  183.7790  178.9500  144.7930 C   0  0  0  0  0  3  0  0  0  0  0  0
  190.5530  176.2590  139.0170 C   0  0  0  0  0  2  0  0  0  0  0  0
  192.4400  173.2670  136.3450 C   0  0  0  0  0  2  0  0  0  0  0  0
  194.1290  175.1470  135.8520 C   0  0  2  0  0  3  0  0  0  0  0  0
  193.3150  173.9630  135.3000 C   0  0  1  0  0  3  0  0  0  0  0  0
  191.9810  176.2570  138.5720 C   0  0  0  0  0  3  0  0  0  0  0  0
  191.5990  174.2740  137.1230 C   0  0  0  0  0  2  0  0  0  0  0  0
  192.4650  175.3640  137.7030 C   0  0  0  0  0  0  0  0  0  0  0  0
  194.7740  173.7880  135.6690 C   0  0  0  0  0  2  0  0  0  0  0  0
  193.9200  175.4180  137.3460 C   0  0  0  0  0  2  0  0  0  0  0  0
  1  4  1  0  0  0  0
  2 11  1  6  0  0  0
  2 10  1  0  0  0  0
  2 12  1  0  0  0  0
  3  7  1  6  0  0  0
  3  6  1  0  0  0  0
  4  8  1  0  0  0  0
  5  7  1  0  0  0  0
  5  1  1  0  0  0  0
  6  8  1  1  0  0  0
  6 10  1  0  0  0  0
 10  9  1  1  0  0  0
 12 35  1  1  0  0  0
 12 13  1  0  0  0  0
 13  9  1  6  0  0  0
 13 17  1  0  0  0  0
 14  3  1  0  0  0  0
 14 11  1  0  0  0  0
 15 18  1  1  0  0  0
 16 15  1  0  0  0  0
 17 16  1  1  0  0  0
 17 15  1  0  0  0  0
 19 18  1  6  0  0  0
 19 27  1  0  0  0  0
 19 20  1  0  0  0  0
 20 21  1  6  0  0  0
 20 24  1  0  0  0  0
 21 22  1  0  0  0  0
 22 23  1  0  0  0  0
 24 26  1  0  0  0  0
 25 26  1  0  0  0  0
 27 28  1  0  0  0  0
 29 34  1  0  0  0  0
 29 28  1  0  0  0  0
 30 34  2  0  0  0  0
 31 32  2  0  0  0  0
 31 33  1  0  0  0  0
 32 30  1  0  0  0  0
 33 29  2  0  0  0  0
 36 40  1  0  0  0  0
 37 42  1  1  0  0  0
 37 43  1  0  0  0  0
 38 42  1  1  0  0  0
 38 37  1  0  0  0  0
 38 36  1  0  0  0  0
 39 35  1  0  0  0  0
 40 41  1  0  0  0  0
 41 39  2  0  0  0  0
 43 41  1  0  0  0  0
M  END
>  <MODEL>
1

>  <REMARK>
 VINA RESULT:      -8.6      0.000      0.000
  Name = 
  13 active torsions:
  status: ('A' for Active; 'I' for Inactive)
    1  A    between atoms: C_1  and  C_28
    2  A    between atoms: C_1  and  C_34
    3  A    between atoms: C_2  and  C_6
    4  A    between atoms: C_3  and  C_4
    5  A    between atoms: C_3  and  C_12
    6  A    between atoms: C_4  and  C_15
    7  A    between atoms: C_4  and  C_22
    8  A    between atoms: C_6  and  C_22
    9  A    between atoms: C_11  and  C_14
   10  A    between atoms: C_13  and  N_38
   11  A    between atoms: C_14  and  O_41
   12  A    between atoms: C_15  and  C_42
   13  A    between atoms: C_22  and  O_41
                            x       y       z     vdW  Elec       q    Type
                         _______ _______ _______ _____ _____    ______ ____

>  <TORSDO>
F 13

$$$$
=
 OpenBabel11052416313D

 43 49  0  0  1  0  0  0  0  0999 V2000
  190.4620  175.4190  135.8880 N   0  0  0  0  0  2  0  0  0  0  0  0
  189.7840  177.9580  140.7970 C   0  0  2  0  0  3  0  0  0  0  0  0
  191.1090  176.4180  138.7350 C   0  0  1  0  0  3  0  0  0  0  0  0
  189.3370  175.2410  136.7940 C   0  0  0  0  0  2  0  0  0  0  0  0
  191.6900  175.2000  136.6380 C   0  0  0  0  0  2  0  0  0  0  0  0
  189.7800  177.1770  138.4620 C   0  0  1  0  0  3  0  0  0  0  0  0
  192.0130  176.4030  137.5120 C   0  0  0  0  0  2  0  0  0  0  0  0
  188.8990  176.5970  137.3370 C   0  0  0  0  0  2  0  0  0  0  0  0
  187.6920  178.0140  139.7450 C   0  0  0  0  0  2  0  0  0  0  0  0
  188.9860  177.2300  139.7640 C   0  0  2  0  0  3  0  0  0  0  0  0
  191.0130  177.1460  141.1740 C   0  0  0  0  0  2  0  0  0  0  0  0
  188.7500  178.2790  141.8530 C   0  0  1  0  0  3  0  0  0  0  0  0
  187.5440  178.6470  141.0660 N   0  0  2  0  0  0  0  0  0  0  0  0
  191.8850  177.0210  139.9200 C   0  0  0  0  0  2  0  0  0  0  0  0
  185.1140  178.9090  140.9810 C   0  0  1  0  0  3  0  0  0  0  0  0
  185.6000  179.3920  142.3300 C   0  0  0  0  0  2  0  0  0  0  0  0
  186.2800  178.2130  141.6640 C   0  0  2  0  0  3  0  0  0  0  0  0
  183.8540  178.0790  141.1640 C   0  0  0  0  0  2  0  0  0  0  0  0
  182.6140  178.8470  140.6940 C   0  0  2  0  0  3  0  0  0  0  0  0
  181.3880  178.6480  141.5970 C   0  0  1  0  0  3  0  0  0  0  0  0
  181.4680  179.4460  142.8970 C   0  0  0  0  0  2  0  0  0  0  0  0
  181.7150  178.5250  144.0760 C   0  0  0  0  0  2  0  0  0  0  0  0
  183.0530  178.8560  144.7040 C   0  0  0  0  0  1  0  0  0  0  0  0
  180.1100  178.9820  140.8420 C   0  0  0  0  0  2  0  0  0  0  0  0
  180.2740  181.2400  140.1190 F   0  0  0  0  0  0  0  0  0  0  0  0
  179.7020  180.4250  141.0780 C   0  0  0  0  0  2  0  0  0  0  0  0
  182.3110  178.5010  139.3750 O   0  0  0  0  0  0  0  0  0  0  0  0
  182.7150  177.1690  139.2490 C   0  0  0  0  0  2  0  0  0  0  0  0
  183.3370  176.9540  137.9130 C   0  0  0  0  0  0  0  0  0  0  0  0
  183.2600  175.9860  135.7290 N   0  0  0  0  0  0  0  0  0  0  0  0
  185.1970  177.2210  136.3920 C   0  0  0  0  0  3  0  0  0  0  0  0
  184.4960  176.4770  135.4380 C   0  0  0  0  0  3  0  0  0  0  0  0
  184.6100  177.4590  137.6360 C   0  0  0  0  0  3  0  0  0  0  0  0
  182.6740  176.2030  136.9370 C   0  0  0  0  0  3  0  0  0  0  0  0
  188.5510  177.0800  142.8000 C   0  0  0  0  0  2  0  0  0  0  0  0
  186.7340  178.2570  146.6690 C   0  0  0  0  0  2  0  0  0  0  0  0
  188.8370  177.1820  147.6940 C   0  0  2  0  0  3  0  0  0  0  0  0
  187.3210  177.4220  147.8090 C   0  0  1  0  0  3  0  0  0  0  0  0
  189.2860  177.2980  144.0850 C   0  0  0  0  0  3  0  0  0  0  0  0
  187.1640  177.7180  145.3080 C   0  0  0  0  0  2  0  0  0  0  0  0
  188.6630  177.5800  145.2340 C   0  0  0  0  0  0  0  0  0  0  0  0
  188.2960  178.2680  148.6020 C   0  0  0  0  0  2  0  0  0  0  0  0
  189.4880  177.8200  146.4630 C   0  0  0  0  0  2  0  0  0  0  0  0
  1  5  1  0  0  0  0
  1  4  1  0  0  0  0
  2 11  1  1  0  0  0
  2 12  1  0  0  0  0
  3  7  1  6  0  0  0
  3 14  1  0  0  0  0
  4  8  1  0  0  0  0
  5  7  1  0  0  0  0
  6  8  1  6  0  0  0
  6  3  1  0  0  0  0
  6 10  1  0  0  0  0
 10  9  1  6  0  0  0
 10  2  1  0  0  0  0
 12 35  1  1  0  0  0
 13  9  1  6  0  0  0
 13 17  1  0  0  0  0
 13 12  1  0  0  0  0
 14 11  1  0  0  0  0
 15 18  1  1  0  0  0
 15 17  1  0  0  0  0
 15 16  1  0  0  0  0
 17 16  1  1  0  0  0
 19 18  1  1  0  0  0
 19 20  1  0  0  0  0
 20 24  1  6  0  0  0
 20 21  1  0  0  0  0
 21 22  1  0  0  0  0
 22 23  1  0  0  0  0
 24 26  1  0  0  0  0
 25 26  1  0  0  0  0
 27 19  1  0  0  0  0
 28 27  1  0  0  0  0
 29 28  1  0  0  0  0
 30 34  1  0  0  0  0
 31 33  2  0  0  0  0
 32 30  2  0  0  0  0
 32 31  1  0  0  0  0
 33 29  1  0  0  0  0
 34 29  2  0  0  0  0
 35 39  1  0  0  0  0
 37 43  1  6  0  0  0
 37 38  1  0  0  0  0
 37 42  1  0  0  0  0
 38 36  1  6  0  0  0
 38 42  1  0  0  0  0
 39 41  2  0  0  0  0
 40 36  1  0  0  0  0
 41 40  1  0  0  0  0
 41 43  1  0  0  0  0
M  END
>  <MODEL>
2

>  <REMARK>
 VINA RESULT:      -8.5      2.831      8.006
  Name = 
  13 active torsions:
  status: ('A' for Active; 'I' for Inactive)
    1  A    between atoms: C_1  and  C_28
    2  A    between atoms: C_1  and  C_34
    3  A    between atoms: C_2  and  C_6
    4  A    between atoms: C_3  and  C_4
    5  A    between atoms: C_3  and  C_12
    6  A    between atoms: C_4  and  C_15
    7  A    between atoms: C_4  and  C_22
    8  A    between atoms: C_6  and  C_22
    9  A    between atoms: C_11  and  C_14
   10  A    between atoms: C_13  and  N_38
   11  A    between atoms: C_14  and  O_41
   12  A    between atoms: C_15  and  C_42
   13  A    between atoms: C_22  and  O_41
                            x       y       z     vdW  Elec       q    Type
                         _______ _______ _______ _____ _____    ______ ____

>  <TORSDO>
F 13

$$$$
=
 OpenBabel11052416313D

 43 49  0  0  1  0  0  0  0  0999 V2000
  179.6360  180.2840  138.9900 N   0  0  0  0  0  2  0  0  0  0  0  0
  183.2150  178.2910  142.7600 C   0  0  2  0  0  3  0  0  0  0  0  0
  180.7680  179.4490  141.7360 C   0  0  1  0  0  3  0  0  0  0  0  0
  181.0230  180.6950  139.1520 C   0  0  0  0  0  2  0  0  0  0  0  0
  178.9740  180.3910  140.2820 C   0  0  0  0  0  2  0  0  0  0  0  0
  181.8550  178.8640  140.7900 C   0  0  1  0  0  3  0  0  0  0  0  0
  179.3650  179.2330  141.1890 C   0  0  0  0  0  2  0  0  0  0  0  0
  181.8970  179.4640  139.3700 C   0  0  0  0  0  2  0  0  0  0  0  0
  184.4090  178.4410  140.7510 C   0  0  0  0  0  2  0  0  0  0  0  0
  183.2130  179.0340  141.4640 C   0  0  2  0  0  3  0  0  0  0  0  0
  182.2580  178.9510  143.7410 C   0  0  0  0  0  2  0  0  0  0  0  0
  184.6880  178.2090  143.0960 C   0  0  1  0  0  3  0  0  0  0  0  0
  185.3350  177.9490  141.7840 N   0  0  2  0  0  0  0  0  0  0  0  0
  180.8480  178.8460  143.1500 C   0  0  0  0  0  2  0  0  0  0  0  0
  187.6090  177.6600  140.9310 C   0  0  1  0  0  3  0  0  0  0  0  0
  187.6830  177.8770  142.4270 C   0  0  0  0  0  2  0  0  0  0  0  0
  186.6320  178.6050  141.6140 C   0  0  2  0  0  3  0  0  0  0  0  0
  188.6990  178.4680  140.2480 C   0  0  0  0  0  2  0  0  0  0  0  0
  189.7700  177.5530  139.6460 C   0  0  2  0  0  3  0  0  0  0  0  0
  189.2430  176.6450  138.5240 C   0  0  1  0  0  3  0  0  0  0  0  0
  188.5870  177.4230  137.3850 C   0  0  0  0  0  2  0  0  0  0  0  0
  187.1760  176.9220  137.1380 C   0  0  0  0  0  2  0  0  0  0  0  0
  186.1970  178.0630  137.3210 C   0  0  0  0  0  1  0  0  0  0  0  0
  190.3560  175.7550  137.9920 C   0  0  0  0  0  2  0  0  0  0  0  0
  192.6860  176.2160  137.9110 F   0  0  0  0  0  0  0  0  0  0  0  0
  191.4670  176.5850  137.3740 C   0  0  0  0  0  2  0  0  0  0  0  0
  190.3670  176.7900  140.6520 O   0  0  0  0  0  0  0  0  0  0  0  0
  191.3750  177.6060  141.1730 C   0  0  0  0  0  2  0  0  0  0  0  0
  191.4660  177.4150  142.6480 C   0  0  0  0  0  0  0  0  0  0  0  0
  191.6610  175.9630  144.5360 N   0  0  0  0  0  0  0  0  0  0  0  0
  191.4160  178.3140  144.8920 C   0  0  0  0  0  3  0  0  0  0  0  0
  191.5710  177.0180  145.3910 C   0  0  0  0  0  3  0  0  0  0  0  0
  191.3630  178.5100  143.5100 C   0  0  0  0  0  3  0  0  0  0  0  0
  191.6080  176.1330  143.1870 C   0  0  0  0  0  3  0  0  0  0  0  0
  185.1580  179.5010  143.7940 C   0  0  0  0  0  2  0  0  0  0  0  0
  188.1320  177.2040  146.1460 C   0  0  0  0  0  2  0  0  0  0  0  0
  187.3820  178.7140  148.0930 C   0  0  2  0  0  3  0  0  0  0  0  0
  188.5460  177.9880  147.3930 C   0  0  1  0  0  3  0  0  0  0  0  0
  185.1550  179.3250  145.2800 C   0  0  0  0  0  3  0  0  0  0  0  0
  187.2950  178.0620  145.2030 C   0  0  0  0  0  2  0  0  0  0  0  0
  186.1280  178.6800  145.9310 C   0  0  0  0  0  0  0  0  0  0  0  0
  187.8830  177.3810  148.6130 C   0  0  0  0  0  2  0  0  0  0  0  0
  186.0190  178.5210  147.4190 C   0  0  0  0  0  2  0  0  0  0  0  0
  1  4  1  0  0  0  0
  1  5  1  0  0  0  0
  2 12  1  0  0  0  0
  2 11  1  1  0  0  0
  3  7  1  6  0  0  0
  3 14  1  0  0  0  0
  4  8  1  0  0  0  0
  5  7  1  0  0  0  0
  6  8  1  6  0  0  0
  6 10  1  0  0  0  0
  6  3  1  0  0  0  0
 10  9  1  6  0  0  0
 10  2  1  0  0  0  0
 12 35  1  6  0  0  0
 13  9  1  6  0  0  0
 13 12  1  0  0  0  0
 14 11  1  0  0  0  0
 15 18  1  6  0  0  0
 15 17  1  0  0  0  0
 15 16  1  0  0  0  0
 17 13  1  0  0  0  0
 17 16  1  1  0  0  0
 19 18  1  1  0  0  0
 19 27  1  0  0  0  0
 20 21  1  6  0  0  0
 20 19  1  0  0  0  0
 22 23  1  0  0  0  0
 22 21  1  0  0  0  0
 24 20  1  0  0  0  0
 26 25  1  0  0  0  0
 26 24  1  0  0  0  0
 27 28  1  0  0  0  0
 28 29  1  0  0  0  0
 29 34  2  0  0  0  0
 29 33  1  0  0  0  0
 30 32  2  0  0  0  0
 31 32  1  0  0  0  0
 33 31  2  0  0  0  0
 34 30  1  0  0  0  0
 35 39  1  0  0  0  0
 37 43  1  6  0  0  0
 37 42  1  0  0  0  0
 38 36  1  6  0  0  0
 38 37  1  0  0  0  0
 38 42  1  0  0  0  0
 39 41  2  0  0  0  0
 40 41  1  0  0  0  0
 40 36  1  0  0  0  0
 41 43  1  0  0  0  0
M  END
>  <MODEL>
3

>  <REMARK>
 VINA RESULT:      -8.4      2.963      8.835
  Name = 
  13 active torsions:
  status: ('A' for Active; 'I' for Inactive)
    1  A    between atoms: C_1  and  C_28
    2  A    between atoms: C_1  and  C_34
    3  A    between atoms: C_2  and  C_6
    4  A    between atoms: C_3  and  C_4
    5  A    between atoms: C_3  and  C_12
    6  A    between atoms: C_4  and  C_15
    7  A    between atoms: C_4  and  C_22
    8  A    between atoms: C_6  and  C_22
    9  A    between atoms: C_11  and  C_14
   10  A    between atoms: C_13  and  N_38
   11  A    between atoms: C_14  and  O_41
   12  A    between atoms: C_15  and  C_42
   13  A    between atoms: C_22  and  O_41
                            x       y       z     vdW  Elec       q    Type
                         _______ _______ _______ _____ _____    ______ ____

>  <TORSDO>
F 13

$$$$
=
 OpenBabel11052416313D

 43 49  0  0  1  0  0  0  0  0999 V2000
  191.6580  176.2230  137.0570 N   0  0  0  0  0  2  0  0  0  0  0  0
  189.4250  178.1870  141.7630 C   0  0  2  0  0  3  0  0  0  0  0  0
  191.3970  176.9490  140.0440 C   0  0  1  0  0  3  0  0  0  0  0  0
  190.3430  175.8880  137.5830 C   0  0  0  0  0  2  0  0  0  0  0  0
  192.6410  175.9930  138.1050 C   0  0  0  0  0  2  0  0  0  0  0  0
  190.1390  177.6590  139.4680 C   0  0  1  0  0  3  0  0  0  0  0  0
  192.6050  177.1130  139.1350 C   0  0  0  0  0  2  0  0  0  0  0  0
  189.6590  177.1530  138.0910 C   0  0  0  0  0  2  0  0  0  0  0  0
  187.7140  178.2380  140.1650 C   0  0  0  0  0  2  0  0  0  0  0  0
  189.0110  177.5290  140.4870 C   0  0  2  0  0  3  0  0  0  0  0  0
  190.5620  177.4090  142.4060 C   0  0  0  0  0  2  0  0  0  0  0  0
  188.1130  178.3370  142.5020 C   0  0  1  0  0  3  0  0  0  0  0  0
  187.1500  178.7200  141.4370 N   0  0  2  0  0  0  0  0  0  0  0  0
  191.7570  177.4650  141.4490 C   0  0  0  0  0  2  0  0  0  0  0  0
  184.7980  178.9660  140.8130 C   0  0  1  0  0  3  0  0  0  0  0  0
  184.9190  179.1620  142.3090 C   0  0  0  0  0  2  0  0  0  0  0  0
  185.8100  178.1550  141.6090 C   0  0  2  0  0  3  0  0  0  0  0  0
  183.5850  178.1020  140.5130 C   0  0  0  0  0  2  0  0  0  0  0  0
  182.7530  178.6950  139.3710 C   0  0  2  0  0  3  0  0  0  0  0  0
  181.5140  179.4670  139.8490 C   0  0  1  0  0  3  0  0  0  0  0  0
  180.7190  180.0880  138.7030 C   0  0  0  0  0  2  0  0  0  0  0  0
  181.4520  181.2870  138.1310 C   0  0  0  0  0  2  0  0  0  0  0  0
  180.6670  181.8480  136.9640 C   0  0  0  0  0  1  0  0  0  0  0  0
  180.6220  178.5710  140.6950 C   0  0  0  0  0  2  0  0  0  0  0  0
  181.5000  179.3920  142.7460 F   0  0  0  0  0  0  0  0  0  0  0  0
  180.3250  179.2130  142.0390 C   0  0  0  0  0  2  0  0  0  0  0  0
  182.3860  177.6890  138.4750 O   0  0  0  0  0  0  0  0  0  0  0  0
  183.2640  177.8300  137.3960 C   0  0  0  0  0  2  0  0  0  0  0  0
  184.1610  176.6430  137.3160 C   0  0  0  0  0  0  0  0  0  0  0  0
  184.5010  174.2890  137.5570 N   0  0  0  0  0  0  0  0  0  0  0  0
  186.3520  175.6820  136.9650 C   0  0  0  0  0  3  0  0  0  0  0  0
  185.8190  174.4200  137.2450 C   0  0  0  0  0  3  0  0  0  0  0  0
  185.5130  176.7990  137.0020 C   0  0  0  0  0  3  0  0  0  0  0  0
  183.6690  175.3660  137.6030 C   0  0  0  0  0  3  0  0  0  0  0  0
  187.7570  177.0350  143.2460 C   0  0  0  0  0  2  0  0  0  0  0  0
  189.5250  177.0130  147.3120 C   0  0  0  0  0  2  0  0  0  0  0  0
  187.5790  178.5970  147.8910 C   0  0  2  0  0  3  0  0  0  0  0  0
  189.0610  178.2400  148.1010 C   0  0  1  0  0  3  0  0  0  0  0  0
  187.0330  177.3400  144.5200 C   0  0  0  0  0  3  0  0  0  0  0  0
  189.1250  177.1140  145.8430 C   0  0  0  0  0  2  0  0  0  0  0  0
  187.6480  177.3880  145.7060 C   0  0  0  0  0  0  0  0  0  0  0  0
  188.0170  177.8200  149.1160 C   0  0  0  0  0  2  0  0  0  0  0  0
  186.8310  177.6630  146.9330 C   0  0  0  0  0  2  0  0  0  0  0  0
  1  4  1  0  0  0  0
  1  5  1  0  0  0  0
  2 11  1  1  0  0  0
  2 12  1  0  0  0  0
  3  7  1  6  0  0  0
  3 14  1  0  0  0  0
  4  8  1  0  0  0  0
  5  7  1  0  0  0  0
  6  8  1  6  0  0  0
  6  3  1  0  0  0  0
  6 10  1  0  0  0  0
 10  9  1  6  0  0  0
 10  2  1  0  0  0  0
 12 35  1  6  0  0  0
 13  9  1  6  0  0  0
 13 17  1  0  0  0  0
 13 12  1  0  0  0  0
 14 11  1  0  0  0  0
 15 18  1  1  0  0  0
 15 17  1  0  0  0  0
 15 16  1  0  0  0  0
 17 16  1  1  0  0  0
 19 20  1  0  0  0  0
 19 18  1  1  0  0  0
 20 21  1  6  0  0  0
 20 24  1  0  0  0  0
 22 21  1  0  0  0  0
 23 22  1  0  0  0  0
 24 26  1  0  0  0  0
 26 25  1  0  0  0  0
 27 19  1  0  0  0  0
 28 27  1  0  0  0  0
 29 28  1  0  0  0  0
 29 34  1  0  0  0  0
 30 34  2  0  0  0  0
 31 33  1  0  0  0  0
 31 32  2  0  0  0  0
 32 30  1  0  0  0  0
 33 29  2  0  0  0  0
 35 39  1  0  0  0  0
 37 43  1  6  0  0  0
 37 38  1  0  0  0  0
 37 42  1  0  0  0  0
 38 36  1  6  0  0  0
 38 42  1  0  0  0  0
 39 41  2  0  0  0  0
 40 36  1  0  0  0  0
 41 40  1  0  0  0  0
 41 43  1  0  0  0  0
M  END
>  <MODEL>
4

>  <REMARK>
 VINA RESULT:      -8.4      2.913      8.734
  Name = 
  13 active torsions:
  status: ('A' for Active; 'I' for Inactive)
    1  A    between atoms: C_1  and  C_28
    2  A    between atoms: C_1  and  C_34
    3  A    between atoms: C_2  and  C_6
    4  A    between atoms: C_3  and  C_4
    5  A    between atoms: C_3  and  C_12
    6  A    between atoms: C_4  and  C_15
    7  A    between atoms: C_4  and  C_22
    8  A    between atoms: C_6  and  C_22
    9  A    between atoms: C_11  and  C_14
   10  A    between atoms: C_13  and  N_38
   11  A    between atoms: C_14  and  O_41
   12  A    between atoms: C_15  and  C_42
   13  A    between atoms: C_22  and  O_41
                            x       y       z     vdW  Elec       q    Type
                         _______ _______ _______ _____ _____    ______ ____

>  <TORSDO>
F 13

$$$$
=
 OpenBabel11052416313D

 43 49  0  0  1  0  0  0  0  0999 V2000
  190.3630  175.5170  135.8710 N   0  0  0  0  0  2  0  0  0  0  0  0
  189.5970  178.0270  140.7810 C   0  0  2  0  0  3  0  0  0  0  0  0
  190.9650  176.5140  138.7290 C   0  0  1  0  0  3  0  0  0  0  0  0
  189.2300  175.3200  136.7640 C   0  0  0  0  0  2  0  0  0  0  0  0
  191.5860  175.3120  136.6330 C   0  0  0  0  0  2  0  0  0  0  0  0
  189.6290  177.2560  138.4440 C   0  0  1  0  0  3  0  0  0  0  0  0
  191.8830  176.5160  137.5160 C   0  0  0  0  0  2  0  0  0  0  0  0
  188.7680  176.6680  137.3070 C   0  0  0  0  0  2  0  0  0  0  0  0
  187.5160  178.0580  139.7080 C   0  0  0  0  0  2  0  0  0  0  0  0
  188.8210  177.2920  139.7380 C   0  0  2  0  0  3  0  0  0  0  0  0
  190.8330  177.2310  141.1690 C   0  0  0  0  0  2  0  0  0  0  0  0
  188.5470  178.3300  141.8280 C   0  0  1  0  0  3  0  0  0  0  0  0
  187.3450  178.6840  141.0290 N   0  0  2  0  0  0  0  0  0  0  0  0
  191.7200  177.1220  139.9240 C   0  0  0  0  0  2  0  0  0  0  0  0
  184.9170  178.9720  140.9740 C   0  0  1  0  0  3  0  0  0  0  0  0
  185.4160  179.3790  142.3440 C   0  0  0  0  0  2  0  0  0  0  0  0
  186.0810  178.2310  141.6120 C   0  0  2  0  0  3  0  0  0  0  0  0
  183.6510  178.1450  141.1220 C   0  0  0  0  0  2  0  0  0  0  0  0
  182.7740  178.2490  139.8690 C   0  0  2  0  0  3  0  0  0  0  0  0
  183.0430  177.1430  138.8370 C   0  0  1  0  0  3  0  0  0  0  0  0
  181.7710  176.4350  138.3760 C   0  0  0  0  0  2  0  0  0  0  0  0
  181.2190  175.5540  139.4810 C   0  0  0  0  0  2  0  0  0  0  0  0
  179.8480  176.0520  139.8860 C   0  0  0  0  0  1  0  0  0  0  0  0
  183.8060  177.7010  137.6450 C   0  0  0  0  0  2  0  0  0  0  0  0
  185.4740  177.0860  136.0680 F   0  0  0  0  0  0  0  0  0  0  0  0
  185.0570  176.8860  137.3710 C   0  0  0  0  0  2  0  0  0  0  0  0
  182.9230  179.5090  139.2860 O   0  0  0  0  0  0  0  0  0  0  0  0
  181.6680  180.1130  139.4070 C   0  0  0  0  0  2  0  0  0  0  0  0
  181.2870  180.7480  138.1150 C   0  0  0  0  0  0  0  0  0  0  0  0
  180.7540  182.7070  136.8520 N   0  0  0  0  0  0  0  0  0  0  0  0
  180.6440  180.5670  135.7910 C   0  0  0  0  0  3  0  0  0  0  0  0
  180.5120  181.9580  135.7420 C   0  0  0  0  0  3  0  0  0  0  0  0
  181.0340  179.9620  136.9880 C   0  0  0  0  0  3  0  0  0  0  0  0
  181.1310  182.1350  138.0280 C   0  0  0  0  0  3  0  0  0  0  0  0
  188.3550  177.1240  142.7680 C   0  0  0  0  0  2  0  0  0  0  0  0
  186.7590  178.2600  146.7460 C   0  0  0  0  0  2  0  0  0  0  0  0
  188.8860  177.1200  147.6430 C   0  0  2  0  0  3  0  0  0  0  0  0
  187.3840  177.3900  147.8390 C   0  0  1  0  0  3  0  0  0  0  0  0
  189.1580  177.3010  144.0190 C   0  0  0  0  0  3  0  0  0  0  0  0
  187.1080  177.7400  145.3550 C   0  0  0  0  0  2  0  0  0  0  0  0
  188.5990  177.5720  145.2020 C   0  0  0  0  0  0  0  0  0  0  0  0
  188.4160  178.1990  148.5980 C   0  0  0  0  0  2  0  0  0  0  0  0
  189.4900  177.7700  146.3930 C   0  0  0  0  0  2  0  0  0  0  0  0
  1  5  1  0  0  0  0
  1  4  1  0  0  0  0
  2 11  1  1  0  0  0
  2 12  1  0  0  0  0
  3  7  1  6  0  0  0
  3 14  1  0  0  0  0
  4  8  1  0  0  0  0
  5  7  1  0  0  0  0
  6  8  1  6  0  0  0
  6  3  1  0  0  0  0
  6 10  1  0  0  0  0
 10  9  1  6  0  0  0
 10  2  1  0  0  0  0
 12 35  1  6  0  0  0
 13  9  1  6  0  0  0
 13 17  1  0  0  0  0
 13 12  1  0  0  0  0
 14 11  1  0  0  0  0
 15 18  1  1  0  0  0
 15 17  1  0  0  0  0
 15 16  1  0  0  0  0
 17 16  1  1  0  0  0
 19 18  1  1  0  0  0
 20 24  1  6  0  0  0
 20 19  1  0  0  0  0
 21 20  1  0  0  0  0
 21 22  1  0  0  0  0
 22 23  1  0  0  0  0
 25 26  1  0  0  0  0
 26 24  1  0  0  0  0
 27 28  1  0  0  0  0
 27 19  1  0  0  0  0
 29 28  1  0  0  0  0
 30 34  2  0  0  0  0
 31 33  1  0  0  0  0
 32 31  2  0  0  0  0
 32 30  1  0  0  0  0
 33 29  2  0  0  0  0
 34 29  1  0  0  0  0
 35 39  1  0  0  0  0
 37 43  1  6  0  0  0
 37 38  1  0  0  0  0
 37 42  1  0  0  0  0
 38 36  1  6  0  0  0
 38 42  1  0  0  0  0
 39 41  2  0  0  0  0
 40 36  1  0  0  0  0
 41 40  1  0  0  0  0
 41 43  1  0  0  0  0
M  END
>  <MODEL>
5

>  <REMARK>
 VINA RESULT:      -8.2      3.620      8.387
  Name = 
  13 active torsions:
  status: ('A' for Active; 'I' for Inactive)
    1  A    between atoms: C_1  and  C_28
    2  A    between atoms: C_1  and  C_34
    3  A    between atoms: C_2  and  C_6
    4  A    between atoms: C_3  and  C_4
    5  A    between atoms: C_3  and  C_12
    6  A    between atoms: C_4  and  C_15
    7  A    between atoms: C_4  and  C_22
    8  A    between atoms: C_6  and  C_22
    9  A    between atoms: C_11  and  C_14
   10  A    between atoms: C_13  and  N_38
   11  A    between atoms: C_14  and  O_41
   12  A    between atoms: C_15  and  C_42
   13  A    between atoms: C_22  and  O_41
                            x       y       z     vdW  Elec       q    Type
                         _______ _______ _______ _____ _____    ______ ____

>  <TORSDO>
F 13

$$$$
=
 OpenBabel11052416313D

 43 49  0  0  1  0  0  0  0  0999 V2000
  192.9070  175.1240  146.7940 N   0  0  0  0  0  2  0  0  0  0  0  0
  188.6990  178.2180  144.8680 C   0  0  2  0  0  3  0  0  0  0  0  0
  190.3010  176.7760  146.7980 C   0  0  1  0  0  3  0  0  0  0  0  0
  192.0570  174.7970  145.6590 C   0  0  0  0  0  2  0  0  0  0  0  0
  192.0530  175.4130  147.9370 C   0  0  0  0  0  2  0  0  0  0  0  0
  190.8110  177.0520  145.3560 C   0  0  1  0  0  3  0  0  0  0  0  0
  191.4340  176.7970  147.8130 C   0  0  0  0  0  2  0  0  0  0  0  0
  191.8420  176.0440  144.8080 C   0  0  0  0  0  2  0  0  0  0  0  0
  189.8680  177.4690  142.9810 C   0  0  0  0  0  2  0  0  0  0  0  0
  189.6020  177.1120  144.4280 C   0  0  2  0  0  3  0  0  0  0  0  0
  188.0820  177.8820  146.2170 C   0  0  0  0  0  2  0  0  0  0  0  0
  187.8020  178.4150  143.6660 C   0  0  1  0  0  3  0  0  0  0  0  0
  188.7230  178.2650  142.5090 N   0  0  2  0  0  0  0  0  0  0  0  0
  189.2240  177.7860  147.2340 C   0  0  0  0  0  2  0  0  0  0  0  0
  188.7830  178.0980  140.0700 C   0  0  1  0  0  3  0  0  0  0  0  0
  187.4250  178.6260  140.4800 C   0  0  0  0  0  2  0  0  0  0  0  0
  188.1260  177.6010  141.3490 C   0  0  2  0  0  3  0  0  0  0  0  0
  188.6120  177.0560  138.9770 C   0  0  0  0  0  2  0  0  0  0  0  0
  188.9590  177.6360  137.6020 C   0  0  2  0  0  3  0  0  0  0  0  0
  187.8300  177.4920  136.5710 C   0  0  1  0  0  3  0  0  0  0  0  0
  188.2880  176.8250  135.2750 C   0  0  0  0  0  2  0  0  0  0  0  0
  187.7610  175.4050  135.1900 C   0  0  0  0  0  2  0  0  0  0  0  0
  188.9170  174.4320  135.2820 C   0  0  0  0  0  1  0  0  0  0  0  0
  186.6520  176.7420  137.1720 C   0  0  0  0  0  2  0  0  0  0  0  0
  185.1050  178.2720  138.1270 F   0  0  0  0  0  0  0  0  0  0  0  0
  185.3620  177.5230  136.9940 C   0  0  0  0  0  2  0  0  0  0  0  0
  190.1360  177.0550  137.1240 O   0  0  0  0  0  0  0  0  0  0  0  0
  190.5890  176.2450  138.1690 C   0  0  0  0  0  2  0  0  0  0  0  0
  191.9160  175.6640  137.8180 C   0  0  0  0  0  0  0  0  0  0  0  0
  194.2930  175.8680  137.6930 N   0  0  0  0  0  0  0  0  0  0  0  0
  193.2460  173.8860  136.8610 C   0  0  0  0  0  3  0  0  0  0  0  0
  194.3960  174.6400  137.1140 C   0  0  0  0  0  3  0  0  0  0  0  0
  191.9990  174.4050  137.2160 C   0  0  0  0  0  3  0  0  0  0  0  0
  193.0870  176.3920  138.0430 C   0  0  0  0  0  3  0  0  0  0  0  0
  186.6360  177.4060  143.6880 C   0  0  0  0  0  2  0  0  0  0  0  0
  183.0740  178.9680  141.5610 C   0  0  0  0  0  2  0  0  0  0  0  0
  181.8670  178.5410  143.7950 C   0  0  2  0  0  3  0  0  0  0  0  0
  181.7920  178.5070  142.2580 C   0  0  1  0  0  3  0  0  0  0  0  0
  185.4280  178.0140  144.3280 C   0  0  0  0  0  3  0  0  0  0  0  0
  184.3000  178.2590  142.1270 C   0  0  0  0  0  2  0  0  0  0  0  0
  184.3560  178.3970  143.6270 C   0  0  0  0  0  0  0  0  0  0  0  0
  181.1950  179.6640  143.0310 C   0  0  0  0  0  2  0  0  0  0  0  0
  183.2080  179.0310  144.3530 C   0  0  0  0  0  2  0  0  0  0  0  0
  1  5  1  0  0  0  0
  2 11  1  1  0  0  0
  3 14  1  1  0  0  0
  3  7  1  0  0  0  0
  4  1  1  0  0  0  0
  6  8  1  6  0  0  0
  6  3  1  0  0  0  0
  7  5  1  0  0  0  0
  8  4  1  0  0  0  0
 10  9  1  6  0  0  0
 10  2  1  0  0  0  0
 10  6  1  0  0  0  0
 11 14  1  0  0  0  0
 12 35  1  6  0  0  0
 12  2  1  0  0  0  0
 13  9  1  1  0  0  0
 13 12  1  0  0  0  0
 15 18  1  6  0  0  0
 15 16  1  0  0  0  0
 15 17  1  0  0  0  0
 17 16  1  6  0  0  0
 17 13  1  0  0  0  0
 19 18  1  1  0  0  0
 20 21  1  6  0  0  0
 20 24  1  0  0  0  0
 20 19  1  0  0  0  0
 22 21  1  0  0  0  0
 22 23  1  0  0  0  0
 26 24  1  0  0  0  0
 26 25  1  0  0  0  0
 27 19  1  0  0  0  0
 27 28  1  0  0  0  0
 29 34  1  0  0  0  0
 29 28  1  0  0  0  0
 30 34  2  0  0  0  0
 31 32  2  0  0  0  0
 31 33  1  0  0  0  0
 32 30  1  0  0  0  0
 33 29  2  0  0  0  0
 35 39  1  0  0  0  0
 36 40  1  0  0  0  0
 37 42  1  6  0  0  0
 37 43  1  0  0  0  0
 38 36  1  6  0  0  0
 38 42  1  0  0  0  0
 38 37  1  0  0  0  0
 40 41  1  0  0  0  0
 41 39  2  0  0  0  0
 41 43  1  0  0  0  0
M  END
>  <MODEL>
6

>  <REMARK>
 VINA RESULT:      -7.7      2.916     10.516
  Name = 
  13 active torsions:
  status: ('A' for Active; 'I' for Inactive)
    1  A    between atoms: C_1  and  C_28
    2  A    between atoms: C_1  and  C_34
    3  A    between atoms: C_2  and  C_6
    4  A    between atoms: C_3  and  C_4
    5  A    between atoms: C_3  and  C_12
    6  A    between atoms: C_4  and  C_15
    7  A    between atoms: C_4  and  C_22
    8  A    between atoms: C_6  and  C_22
    9  A    between atoms: C_11  and  C_14
   10  A    between atoms: C_13  and  N_38
   11  A    between atoms: C_14  and  O_41
   12  A    between atoms: C_15  and  C_42
   13  A    between atoms: C_22  and  O_41
                            x       y       z     vdW  Elec       q    Type
                         _______ _______ _______ _____ _____    ______ ____

>  <TORSDO>
F 13

$$$$
=
 OpenBabel11052416313D

 43 49  0  0  1  0  0  0  0  0999 V2000
  188.2230  178.1400  148.9290 N   0  0  0  0  0  2  0  0  0  0  0  0
  187.5380  177.1760  143.4880 C   0  0  2  0  0  3  0  0  0  0  0  0
  188.9440  177.5120  145.9950 C   0  0  1  0  0  3  0  0  0  0  0  0
  187.4890  178.9840  147.9980 C   0  0  0  0  0  2  0  0  0  0  0  0
  189.5520  177.9050  148.3820 C   0  0  0  0  0  2  0  0  0  0  0  0
  187.3940  177.4150  145.9340 C   0  0  1  0  0  3  0  0  0  0  0  0
  189.5020  176.8780  147.2600 C   0  0  0  0  0  2  0  0  0  0  0  0
  186.6360  178.1120  147.0830 C   0  0  0  0  0  2  0  0  0  0  0  0
  185.4560  177.8930  144.2860 C   0  0  0  0  0  2  0  0  0  0  0  0
  186.9350  177.9800  144.5940 C   0  0  2  0  0  3  0  0  0  0  0  0
  189.0440  177.3850  143.4530 C   0  0  0  0  0  2  0  0  0  0  0  0
  186.7020  177.5730  142.2920 C   0  0  1  0  0  3  0  0  0  0  0  0
  185.3230  177.6610  142.8380 N   0  0  2  0  0  0  0  0  0  0  0  0
  189.6130  176.8550  144.7740 C   0  0  0  0  0  2  0  0  0  0  0  0
  183.1210  178.2150  141.9280 C   0  0  1  0  0  3  0  0  0  0  0  0
  184.1490  178.3780  140.8280 C   0  0  0  0  0  2  0  0  0  0  0  0
  184.5130  178.7330  142.2550 C   0  0  2  0  0  3  0  0  0  0  0  0
  182.1470  179.3800  141.8860 C   0  0  0  0  0  2  0  0  0  0  0  0
  180.9080  179.0340  141.0530 C   0  0  2  0  0  3  0  0  0  0  0  0
  179.6090  179.6450  141.5990 C   0  0  1  0  0  3  0  0  0  0  0  0
  179.7890  180.3090  142.9630 C   0  0  0  0  0  2  0  0  0  0  0  0
  178.9970  179.5710  144.0260 C   0  0  0  0  0  2  0  0  0  0  0  0
  179.6810  178.2570  144.3430 C   0  0  0  0  0  1  0  0  0  0  0  0
  179.0210  180.6290  140.5990 C   0  0  0  0  0  2  0  0  0  0  0  0
  179.9660  180.6230  138.4180 F   0  0  0  0  0  0  0  0  0  0  0  0
  180.0980  181.1760  139.6780 C   0  0  0  0  0  2  0  0  0  0  0  0
  180.7850  177.6470  140.9360 O   0  0  0  0  0  0  0  0  0  0  0  0
  180.3700  177.4320  139.6180 C   0  0  0  0  0  2  0  0  0  0  0  0
  181.5140  176.9370  138.8030 C   0  0  0  0  0  0  0  0  0  0  0  0
  183.1390  175.2480  138.3340 N   0  0  0  0  0  0  0  0  0  0  0  0
  183.1650  177.2780  137.0700 C   0  0  0  0  0  3  0  0  0  0  0  0
  183.6890  176.0130  137.3510 C   0  0  0  0  0  3  0  0  0  0  0  0
  182.0710  177.7400  137.8040 C   0  0  0  0  0  3  0  0  0  0  0  0
  182.0750  175.6830  139.0620 C   0  0  0  0  0  3  0  0  0  0  0  0
  187.2270  178.8840  141.6730 C   0  0  0  0  0  2  0  0  0  0  0  0
  186.8970  177.7040  137.4130 C   0  0  0  0  0  2  0  0  0  0  0  0
  189.2790  178.6640  137.2250 C   0  0  2  0  0  3  0  0  0  0  0  0
  187.9000  178.4870  136.5640 C   0  0  1  0  0  3  0  0  0  0  0  0
  188.3700  178.6060  140.7480 C   0  0  0  0  0  3  0  0  0  0  0  0
  186.8240  178.2530  138.8340 C   0  0  0  0  0  2  0  0  0  0  0  0
  188.1980  178.3270  139.4530 C   0  0  0  0  0  0  0  0  0  0  0  0
  189.0560  177.5830  136.1870 C   0  0  0  0  0  2  0  0  0  0  0  0
  189.4030  178.0240  138.6120 C   0  0  0  0  0  2  0  0  0  0  0  0
  2 11  1  6  0  0  0
  2 10  1  0  0  0  0
  3 14  1  6  0  0  0
  3  7  1  0  0  0  0
  4  1  1  0  0  0  0
  5  1  1  0  0  0  0
  6  3  1  0  0  0  0
  6  8  1  1  0  0  0
  7  5  1  0  0  0  0
  8  4  1  0  0  0  0
 10  9  1  1  0  0  0
 10  6  1  0  0  0  0
 11 14  1  0  0  0  0
 12 35  1  1  0  0  0
 12 13  1  0  0  0  0
 12  2  1  0  0  0  0
 13  9  1  1  0  0  0
 15 18  1  6  0  0  0
 15 17  1  0  0  0  0
 16 15  1  0  0  0  0
 17 16  1  6  0  0  0
 17 13  1  0  0  0  0
 19 20  1  0  0  0  0
 19 18  1  1  0  0  0
 20 24  1  6  0  0  0
 20 21  1  0  0  0  0
 21 22  1  0  0  0  0
 22 23  1  0  0  0  0
 25 26  1  0  0  0  0
 26 24  1  0  0  0  0
 27 19  1  0  0  0  0
 28 27  1  0  0  0  0
 29 34  1  0  0  0  0
 29 28  1  0  0  0  0
 30 34  2  0  0  0  0
 31 32  2  0  0  0  0
 31 33  1  0  0  0  0
 32 30  1  0  0  0  0
 33 29  2  0  0  0  0
 36 40  1  0  0  0  0
 37 42  1  6  0  0  0
 37 43  1  0  0  0  0
 38 42  1  6  0  0  0
 38 37  1  0  0  0  0
 38 36  1  0  0  0  0
 39 35  1  0  0  0  0
 40 41  1  0  0  0  0
 41 39  2  0  0  0  0
 43 41  1  0  0  0  0
M  END
>  <MODEL>
7

>  <REMARK>
 VINA RESULT:      -7.7      3.606      8.678
  Name = 
  13 active torsions:
  status: ('A' for Active; 'I' for Inactive)
    1  A    between atoms: C_1  and  C_28
    2  A    between atoms: C_1  and  C_34
    3  A    between atoms: C_2  and  C_6
    4  A    between atoms: C_3  and  C_4
    5  A    between atoms: C_3  and  C_12
    6  A    between atoms: C_4  and  C_15
    7  A    between atoms: C_4  and  C_22
    8  A    between atoms: C_6  and  C_22
    9  A    between atoms: C_11  and  C_14
   10  A    between atoms: C_13  and  N_38
   11  A    between atoms: C_14  and  O_41
   12  A    between atoms: C_15  and  C_42
   13  A    between atoms: C_22  and  O_41
                            x       y       z     vdW  Elec       q    Type
                         _______ _______ _______ _____ _____    ______ ____

>  <TORSDO>
F 13

$$$$
=
 OpenBabel11052416313D

 43 49  0  0  1  0  0  0  0  0999 V2000
  187.9410  178.2410  148.9000 N   0  0  0  0  0  2  0  0  0  0  0  0
  187.7150  177.1260  143.4500 C   0  0  2  0  0  3  0  0  0  0  0  0
  188.9040  177.5210  146.0590 C   0  0  1  0  0  3  0  0  0  0  0  0
  187.3010  179.0660  147.8860 C   0  0  0  0  0  2  0  0  0  0  0  0
  189.3080  177.9770  148.4780 C   0  0  0  0  0  2  0  0  0  0  0  0
  187.3640  177.4380  145.8670 C   0  0  1  0  0  3  0  0  0  0  0  0
  189.3420  176.9180  147.3850 C   0  0  0  0  0  2  0  0  0  0  0  0
  186.5180  178.1760  146.9250 C   0  0  0  0  0  2  0  0  0  0  0  0
  185.5810  177.8890  144.0440 C   0  0  0  0  0  2  0  0  0  0  0  0
  187.0290  177.9690  144.4760 C   0  0  2  0  0  3  0  0  0  0  0  0
  189.2210  177.3190  143.5400 C   0  0  0  0  0  2  0  0  0  0  0  0
  186.9910  177.4980  142.1750 C   0  0  1  0  0  3  0  0  0  0  0  0
  185.5710  177.6160  142.5970 N   0  0  2  0  0  0  0  0  0  0  0  0
  189.6670  176.8220  144.9190 C   0  0  0  0  0  2  0  0  0  0  0  0
  183.4400  178.1860  141.5400 C   0  0  1  0  0  3  0  0  0  0  0  0
  184.5290  178.2590  140.4910 C   0  0  0  0  0  2  0  0  0  0  0  0
  184.8290  178.6790  141.9160 C   0  0  2  0  0  3  0  0  0  0  0  0
  182.5080  179.3750  141.3850 C   0  0  0  0  0  2  0  0  0  0  0  0
  181.2710  179.0030  140.5600 C   0  0  2  0  0  3  0  0  0  0  0  0
  180.0420  179.8720  140.8680 C   0  0  1  0  0  3  0  0  0  0  0  0
  179.9120  180.2170  142.3500 C   0  0  0  0  0  2  0  0  0  0  0  0
  179.1220  179.1490  143.0810 C   0  0  0  0  0  2  0  0  0  0  0  0
  180.0500  178.3660  143.9860 C   0  0  0  0  0  1  0  0  0  0  0  0
  180.0580  181.1370  140.0230 C   0  0  0  0  0  2  0  0  0  0  0  0
  181.9080  181.2350  138.5350 F   0  0  0  0  0  0  0  0  0  0  0  0
  180.5830  180.8510  138.6270 C   0  0  0  0  0  2  0  0  0  0  0  0
  180.9710  177.6500  140.7340 O   0  0  0  0  0  0  0  0  0  0  0  0
  180.5110  177.2190  139.4870 C   0  0  0  0  0  2  0  0  0  0  0  0
  181.6640  176.8060  138.6390 C   0  0  0  0  0  0  0  0  0  0  0  0
  183.4280  175.2670  138.1570 N   0  0  0  0  0  0  0  0  0  0  0  0
  183.2010  177.2380  136.8230 C   0  0  0  0  0  3  0  0  0  0  0  0
  183.8590  176.0410  137.1240 C   0  0  0  0  0  3  0  0  0  0  0  0
  182.0970  177.6190  137.5890 C   0  0  0  0  0  3  0  0  0  0  0  0
  182.3570  175.6240  138.9170 C   0  0  0  0  0  3  0  0  0  0  0  0
  187.5850  178.7840  141.5680 C   0  0  0  0  0  2  0  0  0  0  0  0
  191.2820  177.0810  139.8110 C   0  0  0  0  0  2  0  0  0  0  0  0
  189.7730  176.5420  137.7950 C   0  0  2  0  0  3  0  0  0  0  0  0
  190.9350  176.0900  138.6970 C   0  0  1  0  0  3  0  0  0  0  0  0
  187.8580  178.5980  140.1090 C   0  0  0  0  0  3  0  0  0  0  0  0
  190.0380  177.5020  140.5870 C   0  0  0  0  0  2  0  0  0  0  0  0
  188.9670  178.0080  139.6520 C   0  0  0  0  0  0  0  0  0  0  0  0
  191.2100  176.7290  137.3520 C   0  0  0  0  0  2  0  0  0  0  0  0
  189.1710  177.9010  138.1700 C   0  0  0  0  0  2  0  0  0  0  0  0
  2 11  1  6  0  0  0
  2 10  1  0  0  0  0
  3 14  1  6  0  0  0
  3  7  1  0  0  0  0
  4  1  1  0  0  0  0
  5  1  1  0  0  0  0
  6  3  1  0  0  0  0
  6  8  1  1  0  0  0
  7  5  1  0  0  0  0
  8  4  1  0  0  0  0
 10  9  1  6  0  0  0
 10  6  1  0  0  0  0
 11 14  1  0  0  0  0
 12 35  1  1  0  0  0
 12 13  1  0  0  0  0
 12  2  1  0  0  0  0
 13  9  1  1  0  0  0
 15 18  1  6  0  0  0
 15 17  1  0  0  0  0
 16 15  1  0  0  0  0
 17 16  1  6  0  0  0
 17 13  1  0  0  0  0
 19 27  1  0  0  0  0
 19 20  1  0  0  0  0
 19 18  1  1  0  0  0
 20 24  1  6  0  0  0
 20 21  1  0  0  0  0
 21 22  1  0  0  0  0
 22 23  1  0  0  0  0
 25 26  1  0  0  0  0
 26 24  1  0  0  0  0
 28 27  1  0  0  0  0
 29 34  1  0  0  0  0
 29 28  1  0  0  0  0
 30 34  2  0  0  0  0
 31 32  2  0  0  0  0
 31 33  1  0  0  0  0
 32 30  1  0  0  0  0
 33 29  2  0  0  0  0
 36 40  1  0  0  0  0
 37 42  1  6  0  0  0
 37 43  1  0  0  0  0
 37 38  1  0  0  0  0
 38 42  1  6  0  0  0
 38 36  1  0  0  0  0
 39 35  1  0  0  0  0
 41 39  2  0  0  0  0
 41 40  1  0  0  0  0
 43 41  1  0  0  0  0
M  END
>  <MODEL>
8

>  <REMARK>
 VINA RESULT:      -7.4      3.335      8.468
  Name = 
  13 active torsions:
  status: ('A' for Active; 'I' for Inactive)
    1  A    between atoms: C_1  and  C_28
    2  A    between atoms: C_1  and  C_34
    3  A    between atoms: C_2  and  C_6
    4  A    between atoms: C_3  and  C_4
    5  A    between atoms: C_3  and  C_12
    6  A    between atoms: C_4  and  C_15
    7  A    between atoms: C_4  and  C_22
    8  A    between atoms: C_6  and  C_22
    9  A    between atoms: C_11  and  C_14
   10  A    between atoms: C_13  and  N_38
   11  A    between atoms: C_14  and  O_41
   12  A    between atoms: C_15  and  C_42
   13  A    between atoms: C_22  and  O_41
                            x       y       z     vdW  Elec       q    Type
                         _______ _______ _______ _____ _____    ______ ____

>  <TORSDO>
F 13

$$$$
=
 OpenBabel11052416313D

 43 49  0  0  1  0  0  0  0  0999 V2000
  191.0610  175.5170  136.2420 N   0  0  0  0  0  2  0  0  0  0  0  0
  189.5860  178.0630  140.9690 C   0  0  2  0  0  3  0  0  0  0  0  0
  191.2450  176.5460  139.1450 C   0  0  1  0  0  3  0  0  0  0  0  0
  189.8160  175.3150  136.9690 C   0  0  0  0  0  2  0  0  0  0  0  0
  192.1660  175.3320  137.1710 C   0  0  0  0  0  2  0  0  0  0  0  0
  189.9540  177.2700  138.6680 C   0  0  1  0  0  3  0  0  0  0  0  0
  192.3240  176.5470  138.0730 C   0  0  0  0  0  2  0  0  0  0  0  0
  189.2680  176.6620  137.4270 C   0  0  0  0  0  2  0  0  0  0  0  0
  187.6770  178.0600  139.6130 C   0  0  0  0  0  2  0  0  0  0  0  0
  188.9720  177.3090  139.8340 C   0  0  2  0  0  3  0  0  0  0  0  0
  190.7630  177.2830  141.5350 C   0  0  0  0  0  2  0  0  0  0  0  0
  188.3960  178.3630  141.8540 C   0  0  1  0  0  3  0  0  0  0  0  0
  187.3160  178.6970  140.8900 N   0  0  2  0  0  0  0  0  0  0  0  0
  191.8180  177.1740  140.4280 C   0  0  0  0  0  2  0  0  0  0  0  0
  184.9150  178.9980  140.5330 C   0  0  1  0  0  3  0  0  0  0  0  0
  185.2350  179.3660  141.9660 C   0  0  0  0  0  2  0  0  0  0  0  0
  185.9870  178.2340  141.2940 C   0  0  2  0  0  3  0  0  0  0  0  0
  183.6390  178.1740  140.4950 C   0  0  0  0  0  2  0  0  0  0  0  0
  182.8910  178.3740  139.1730 C   0  0  2  0  0  3  0  0  0  0  0  0
  181.7580  179.4080  139.2570 C   0  0  1  0  0  3  0  0  0  0  0  0
  181.1910  179.5590  140.6660 C   0  0  0  0  0  2  0  0  0  0  0  0
  179.6790  179.4280  140.6510 C   0  0  0  0  0  2  0  0  0  0  0  0
  179.2990  178.0220  140.2380 C   0  0  0  0  0  1  0  0  0  0  0  0
  182.2250  180.7540  138.7210 C   0  0  0  0  0  2  0  0  0  0  0  0
  180.4600  180.3580  137.1790 F   0  0  0  0  0  0  0  0  0  0  0  0
  181.1850  181.3610  137.7970 C   0  0  0  0  0  2  0  0  0  0  0  0
  182.4020  177.1490  138.7110 O   0  0  0  0  0  0  0  0  0  0  0  0
  183.5240  176.3180  138.6390 C   0  0  0  0  0  2  0  0  0  0  0  0
  183.1920  175.0910  137.8600 C   0  0  0  0  0  0  0  0  0  0  0  0
  183.8770  173.0350  136.8530 N   0  0  0  0  0  0  0  0  0  0  0  0
  181.6160  173.7660  136.5940 C   0  0  0  0  0  3  0  0  0  0  0  0
  182.6270  172.8300  136.3570 C   0  0  0  0  0  3  0  0  0  0  0  0
  181.9050  174.9030  137.3510 C   0  0  0  0  0  3  0  0  0  0  0  0
  184.1790  174.1390  137.5900 C   0  0  0  0  0  3  0  0  0  0  0  0
  188.0850  177.1640  142.7710 C   0  0  0  0  0  2  0  0  0  0  0  0
  186.7470  178.5540  146.7620 C   0  0  0  0  0  2  0  0  0  0  0  0
  188.6830  177.0980  147.6370 C   0  0  2  0  0  3  0  0  0  0  0  0
  187.2440  177.6010  147.8520 C   0  0  1  0  0  3  0  0  0  0  0  0
  188.9250  177.2180  144.0080 C   0  0  0  0  0  3  0  0  0  0  0  0
  186.9900  177.9790  145.3700 C   0  0  0  0  0  2  0  0  0  0  0  0
  188.4340  177.5790  145.1980 C   0  0  0  0  0  0  0  0  0  0  0  0
  188.4020  178.2420  148.5910 C   0  0  0  0  0  2  0  0  0  0  0  0
  189.3620  177.6400  146.3740 C   0  0  0  0  0  2  0  0  0  0  0  0
  1  4  1  0  0  0  0
  1  5  1  0  0  0  0
  2 11  1  1  0  0  0
  2 12  1  0  0  0  0
  3  7  1  6  0  0  0
  3 14  1  0  0  0  0
  4  8  1  0  0  0  0
  5  7  1  0  0  0  0
  6  8  1  6  0  0  0
  6  3  1  0  0  0  0
  6 10  1  0  0  0  0
 10  9  1  6  0  0  0
 10  2  1  0  0  0  0
 12 35  1  6  0  0  0
 13  9  1  6  0  0  0
 13 17  1  0  0  0  0
 13 12  1  0  0  0  0
 14 11  1  0  0  0  0
 15 18  1  1  0  0  0
 15 17  1  0  0  0  0
 15 16  1  0  0  0  0
 17 16  1  1  0  0  0
 19 20  1  0  0  0  0
 19 18  1  1  0  0  0
 20 24  1  1  0  0  0
 20 21  1  0  0  0  0
 22 21  1  0  0  0  0
 23 22  1  0  0  0  0
 25 26  1  0  0  0  0
 26 24  1  0  0  0  0
 27 19  1  0  0  0  0
 28 27  1  0  0  0  0
 29 28  1  0  0  0  0
 30 34  2  0  0  0  0
 31 33  1  0  0  0  0
 32 31  2  0  0  0  0
 32 30  1  0  0  0  0
 33 29  2  0  0  0  0
 34 29  1  0  0  0  0
 35 39  1  0  0  0  0
 37 43  1  6  0  0  0
 37 38  1  0  0  0  0
 37 42  1  0  0  0  0
 38 36  1  6  0  0  0
 38 42  1  0  0  0  0
 39 41  2  0  0  0  0
 40 36  1  0  0  0  0
 41 40  1  0  0  0  0
 41 43  1  0  0  0  0
M  END
>  <MODEL>
9

>  <REMARK>
 VINA RESULT:      -7.4      3.469      8.737
  Name = 
  13 active torsions:
  status: ('A' for Active; 'I' for Inactive)
    1  A    between atoms: C_1  and  C_28
    2  A    between atoms: C_1  and  C_34
    3  A    between atoms: C_2  and  C_6
    4  A    between atoms: C_3  and  C_4
    5  A    between atoms: C_3  and  C_12
    6  A    between atoms: C_4  and  C_15
    7  A    between atoms: C_4  and  C_22
    8  A    between atoms: C_6  and  C_22
    9  A    between atoms: C_11  and  C_14
   10  A    between atoms: C_13  and  N_38
   11  A    between atoms: C_14  and  O_41
   12  A    between atoms: C_15  and  C_42
   13  A    between atoms: C_22  and  O_41
                            x       y       z     vdW  Elec       q    Type
                         _______ _______ _______ _____ _____    ______ ____

>  <TORSDO>
F 13

$$$$
