=
 OpenBabel11052412313D

 30 33  0  0  1  0  0  0  0  0999 V2000
  189.1460  174.8370  137.5610 O   0  0  0  0  0  0  0  0  0  0  0  0
  188.3830  172.9770  136.2120 C   0  0  0  0  0  0  0  0  0  0  0  0
  192.3020  175.4140  135.5450 C   0  0  0  0  0  2  0  0  0  0  0  0
  190.0830  175.8650  137.8810 C   0  0  2  0  0  0  0  0  0  0  0  0
  189.7210  177.9550  138.9650 C   0  0  0  0  0  2  0  0  0  0  0  0
  189.6420  176.4860  139.2080 C   0  0  2  0  0  3  0  0  0  0  0  0
  193.5550  176.1430  135.9980 C   0  0  0  0  0  2  0  0  0  0  0  0
  190.0250  176.8590  136.8790 O   0  0  0  0  0  0  0  0  0  0  0  0
  188.6530  171.9370  135.3190 C   0  0  0  0  0  3  0  0  0  0  0  0
  187.0840  173.1800  136.6590 O   0  0  0  0  0  1  0  0  0  0  0  0
  191.8630  174.4700  136.6560 C   0  0  1  0  0  3  0  0  0  0  0  0
  189.9560  171.7210  134.8660 C   0  0  0  0  0  3  0  0  0  0  0  0
  189.4210  173.8100  136.6510 C   0  0  0  0  0  0  0  0  0  0  0  0
  191.5180  175.2750  137.9300 C   0  0  1  0  0  3  0  0  0  0  0  0
  193.3770  176.7470  137.3660 C   0  0  0  0  0  3  0  0  0  0  0  0
  192.4990  176.3170  138.2110 N   0  0  0  0  0  0  0  0  0  0  0  0
  189.5600  178.0520  137.4690 C   0  0  1  0  0  3  0  0  0  0  0  0
  190.9940  172.5460  135.3050 C   0  0  0  0  0  3  0  0  0  0  0  0
  190.7350  173.5920  136.1980 C   0  0  0  0  0  0  0  0  0  0  0  0
  190.4460  176.1140  140.2930 O   0  0  0  0  0  0  0  0  0  0  0  0
  190.3050  177.1560  141.2150 C   0  0  0  0  0  2  0  0  0  0  0  0
  190.3610  175.3080  142.7390 O   0  0  0  0  0  1  0  0  0  0  0  0
  189.9060  176.6180  142.5830 C   0  0  2  0  0  3  0  0  0  0  0  0
  188.4020  176.6670  142.7620 C   0  0  0  0  0  1  0  0  0  0  0  0
  188.0920  178.2770  137.1170 C   0  0  0  0  0  2  0  0  0  0  0  0
  187.3440  178.6880  138.2950 N   0  0  0  0  0  2  0  0  0  0  0  0
  185.9910  178.4540  138.0160 N   0  0  0  0  0  2  0  0  0  0  0  0
  185.2620  179.4690  139.9860 O   0  0  0  0  0  0  0  0  0  0  0  0
  184.9670  178.8800  138.9120 C   0  0  0  0  0  0  0  0  0  0  0  0
  183.5420  178.6340  138.5720 C   0  0  0  0  0  1  0  0  0  0  0  0
  1  4  1  0  0  0  0
  2 13  1  0  0  0  0
  2 10  1  0  0  0  0
  3  7  1  0  0  0  0
  4  8  1  6  0  0  0
  4 14  1  0  0  0  0
  4  6  1  0  0  0  0
  5  6  1  0  0  0  0
  6 20  1  1  0  0  0
  7 15  1  0  0  0  0
  8 17  1  0  0  0  0
  9  2  2  0  0  0  0
 11  3  1  6  0  0  0
 11 14  1  0  0  0  0
 12 18  2  0  0  0  0
 12  9  1  0  0  0  0
 13  1  1  0  0  0  0
 14 16  1  6  0  0  0
 15 16  2  0  0  0  0
 17 25  1  1  0  0  0
 17  5  1  0  0  0  0
 18 19  1  0  0  0  0
 19 13  2  0  0  0  0
 19 11  1  0  0  0  0
 20 21  1  0  0  0  0
 21 23  1  0  0  0  0
 23 22  1  0  0  0  0
 23 24  1  6  0  0  0
 25 26  1  0  0  0  0
 27 26  1  0  0  0  0
 27 29  1  0  0  0  0
 29 28  2  0  0  0  0
 30 29  1  0  0  0  0
M  END
>  <MODEL>
1

>  <REMARK>
 VINA RESULT:      -6.3      0.000      0.000
  Name = 
  6 active torsions:
  status: ('A' for Active; 'I' for Inactive)
    1  A    between atoms: N_7  and  N_16
    2  A    between atoms: C_8  and  O_12
    3  A    between atoms: C_9  and  O_12
    4  A    between atoms: C_9  and  C_17
    5  A    between atoms: N_16  and  C_30
    6  A    between atoms: C_27  and  C_30
                            x       y       z     vdW  Elec       q    Type
                         _______ _______ _______ _____ _____    ______ ____

>  <TORSDO>
F 6

$$$$
=
 OpenBabel11052412313D

 30 33  0  0  1  0  0  0  0  0999 V2000
  190.5540  175.9900  139.6160 O   0  0  0  0  0  0  0  0  0  0  0  0
  190.2860  177.0590  141.7720 C   0  0  0  0  0  0  0  0  0  0  0  0
  188.7060  178.6850  137.6980 C   0  0  0  0  0  2  0  0  0  0  0  0
  190.3600  175.9300  138.2030 C   0  0  2  0  0  0  0  0  0  0  0  0
  191.7000  174.8770  136.5380 C   0  0  0  0  0  2  0  0  0  0  0  0
  190.8630  174.5630  137.7330 C   0  0  2  0  0  3  0  0  0  0  0  0
  188.0650  178.5550  136.3270 C   0  0  0  0  0  2  0  0  0  0  0  0
  191.1490  176.9320  137.5940 O   0  0  0  0  0  0  0  0  0  0  0  0
  189.6050  177.9470  142.6080 C   0  0  0  0  0  3  0  0  0  0  0  0
  191.3660  176.3400  142.2670 O   0  0  0  0  0  1  0  0  0  0  0  0
  188.3240  177.4670  138.5290 C   0  0  1  0  0  3  0  0  0  0  0  0
  188.5150  178.6730  142.1220 C   0  0  0  0  0  3  0  0  0  0  0  0
  189.8800  176.8970  140.4400 C   0  0  0  0  0  0  0  0  0  0  0  0
  188.8670  176.1810  137.8640 C   0  0  1  0  0  3  0  0  0  0  0  0
  188.3420  177.2060  135.7160 C   0  0  0  0  0  3  0  0  0  0  0  0
  188.6530  176.1690  136.4220 N   0  0  0  0  0  0  0  0  0  0  0  0
  192.1230  176.3000  136.7950 C   0  0  1  0  0  3  0  0  0  0  0  0
  188.1040  178.5110  140.7960 C   0  0  0  0  0  3  0  0  0  0  0  0
  188.7800  177.6250  139.9510 C   0  0  0  0  0  0  0  0  0  0  0  0
  189.8340  173.6730  137.4040 O   0  0  0  0  0  0  0  0  0  0  0  0
  190.2500  173.0710  136.2120 C   0  0  0  0  0  2  0  0  0  0  0  0
  188.5100  173.3740  134.5940 O   0  0  0  0  0  1  0  0  0  0  0  0
  189.0690  172.4510  135.4780 C   0  0  2  0  0  3  0  0  0  0  0  0
  188.0170  171.9720  136.4590 C   0  0  0  0  0  1  0  0  0  0  0  0
  193.4780  176.3220  137.4980 C   0  0  0  0  0  2  0  0  0  0  0  0
  194.5570  176.3040  136.5240 N   0  0  0  0  0  2  0  0  0  0  0  0
  195.3470  175.1840  136.8170 N   0  0  0  0  0  2  0  0  0  0  0  0
  197.3170  176.2090  136.1040 O   0  0  0  0  0  0  0  0  0  0  0  0
  196.7540  175.1920  136.5880 C   0  0  0  0  0  0  0  0  0  0  0  0
  197.5620  173.9930  136.9320 C   0  0  0  0  0  1  0  0  0  0  0  0
  1 13  1  0  0  0  0
  2 10  1  0  0  0  0
  2  9  1  0  0  0  0
  4  8  1  6  0  0  0
  4  1  1  0  0  0  0
  5 17  1  0  0  0  0
  5  6  1  0  0  0  0
  6 20  1  6  0  0  0
  6  4  1  0  0  0  0
  7  3  1  0  0  0  0
 11  3  1  6  0  0  0
 11 19  1  0  0  0  0
 12  9  2  0  0  0  0
 13  2  2  0  0  0  0
 14 16  1  6  0  0  0
 14  4  1  0  0  0  0
 14 11  1  0  0  0  0
 15  7  1  0  0  0  0
 15 16  2  0  0  0  0
 17 25  1  1  0  0  0
 17  8  1  0  0  0  0
 18 12  1  0  0  0  0
 19 13  1  0  0  0  0
 19 18  2  0  0  0  0
 21 20  1  0  0  0  0
 22 23  1  0  0  0  0
 23 21  1  0  0  0  0
 23 24  1  1  0  0  0
 26 27  1  0  0  0  0
 26 25  1  0  0  0  0
 28 29  2  0  0  0  0
 29 27  1  0  0  0  0
 29 30  1  0  0  0  0
M  END
>  <MODEL>
2

>  <REMARK>
 VINA RESULT:      -6.3      2.311      7.371
  Name = 
  6 active torsions:
  status: ('A' for Active; 'I' for Inactive)
    1  A    between atoms: N_7  and  N_16
    2  A    between atoms: C_8  and  O_12
    3  A    between atoms: C_9  and  O_12
    4  A    between atoms: C_9  and  C_17
    5  A    between atoms: N_16  and  C_30
    6  A    between atoms: C_27  and  C_30
                            x       y       z     vdW  Elec       q    Type
                         _______ _______ _______ _____ _____    ______ ____

>  <TORSDO>
F 6

$$$$
=
 OpenBabel11052412313D

 30 33  0  0  1  0  0  0  0  0999 V2000
  181.2320  181.9450  138.2550 O   0  0  0  0  0  0  0  0  0  0  0  0
  181.3910  183.9750  136.9460 C   0  0  0  0  0  0  0  0  0  0  0  0
  180.0070  179.8100  135.3750 C   0  0  0  0  0  2  0  0  0  0  0  0
  180.9340  180.5570  138.4020 C   0  0  2  0  0  0  0  0  0  0  0  0
  181.8450  178.9700  139.9280 C   0  0  0  0  0  2  0  0  0  0  0  0
  181.0390  180.2240  139.8920 C   0  0  2  0  0  3  0  0  0  0  0  0
  179.2620  178.4880  135.4690 C   0  0  0  0  0  2  0  0  0  0  0  0
  181.9090  179.8080  137.7060 O   0  0  0  0  0  0  0  0  0  0  0  0
  181.0170  184.7310  135.8320 C   0  0  0  0  0  3  0  0  0  0  0  0
  182.2830  184.5050  137.8690 O   0  0  0  0  0  1  0  0  0  0  0  0
  179.3840  180.7870  136.3630 C   0  0  1  0  0  3  0  0  0  0  0  0
  180.1180  184.2100  134.9000 C   0  0  0  0  0  3  0  0  0  0  0  0
  180.8680  182.6870  137.1270 C   0  0  0  0  0  0  0  0  0  0  0  0
  179.5340  180.2500  137.8050 C   0  0  1  0  0  3  0  0  0  0  0  0
  179.1440  178.0230  136.8960 C   0  0  0  0  0  3  0  0  0  0  0  0
  179.2280  178.8280  137.9040 N   0  0  0  0  0  0  0  0  0  0  0  0
  182.6330  179.0470  138.6460 C   0  0  1  0  0  3  0  0  0  0  0  0
  179.5900  182.9290  135.0790 C   0  0  0  0  0  3  0  0  0  0  0  0
  179.9600  182.1620  136.1900 C   0  0  0  0  0  0  0  0  0  0  0  0
  179.7960  180.0390  140.5110 O   0  0  0  0  0  0  0  0  0  0  0  0
  180.0110  179.0210  141.4460 C   0  0  0  0  0  2  0  0  0  0  0  0
  180.0950  180.7310  143.1200 O   0  0  0  0  0  1  0  0  0  0  0  0
  179.5840  179.4640  142.8380 C   0  0  2  0  0  3  0  0  0  0  0  0
  180.0510  178.4730  143.8860 C   0  0  0  0  0  1  0  0  0  0  0  0
  183.9930  179.6890  138.9090 C   0  0  0  0  0  2  0  0  0  0  0  0
  184.4700  179.3450  140.2390 N   0  0  0  0  0  2  0  0  0  0  0  0
  185.8190  178.9900  140.1060 N   0  0  0  0  0  2  0  0  0  0  0  0
  186.1330  178.7610  142.4050 O   0  0  0  0  0  0  0  0  0  0  0  0
  186.6210  178.6960  141.2460 C   0  0  0  0  0  0  0  0  0  0  0  0
  188.0430  178.3020  141.0640 C   0  0  0  0  0  1  0  0  0  0  0  0
  1  4  1  0  0  0  0
  2 13  1  0  0  0  0
  2 10  1  0  0  0  0
  3  7  1  0  0  0  0
  4  8  1  6  0  0  0
  4  6  1  0  0  0  0
  6  5  1  0  0  0  0
  6 20  1  6  0  0  0
  7 15  1  0  0  0  0
  8 17  1  0  0  0  0
  9  2  2  0  0  0  0
 11  3  1  6  0  0  0
 11 14  1  0  0  0  0
 12 18  2  0  0  0  0
 12  9  1  0  0  0  0
 13  1  1  0  0  0  0
 14 16  1  6  0  0  0
 14  4  1  0  0  0  0
 15 16  2  0  0  0  0
 17 25  1  1  0  0  0
 17  5  1  0  0  0  0
 18 19  1  0  0  0  0
 19 11  1  0  0  0  0
 19 13  2  0  0  0  0
 20 21  1  0  0  0  0
 21 23  1  0  0  0  0
 23 22  1  0  0  0  0
 23 24  1  1  0  0  0
 25 26  1  0  0  0  0
 27 26  1  0  0  0  0
 27 29  1  0  0  0  0
 29 28  2  0  0  0  0
 30 29  1  0  0  0  0
M  END
>  <MODEL>
3

>  <REMARK>
 VINA RESULT:      -6.1      5.800     11.031
  Name = 
  6 active torsions:
  status: ('A' for Active; 'I' for Inactive)
    1  A    between atoms: N_7  and  N_16
    2  A    between atoms: C_8  and  O_12
    3  A    between atoms: C_9  and  O_12
    4  A    between atoms: C_9  and  C_17
    5  A    between atoms: N_16  and  C_30
    6  A    between atoms: C_27  and  C_30
                            x       y       z     vdW  Elec       q    Type
                         _______ _______ _______ _____ _____    ______ ____

>  <TORSDO>
F 6

$$$$
=
 OpenBabel11052412313D

 30 33  0  0  1  0  0  0  0  0999 V2000
  182.9530  178.8930  140.0290 O   0  0  0  0  0  0  0  0  0  0  0  0
  185.1560  178.9440  141.0330 C   0  0  0  0  0  0  0  0  0  0  0  0
  181.1260  179.7460  143.2370 C   0  0  0  0  0  2  0  0  0  0  0  0
  181.5320  179.0150  140.0930 C   0  0  2  0  0  0  0  0  0  0  0  0
  179.9920  179.6410  138.3880 C   0  0  0  0  0  2  0  0  0  0  0  0
  180.9770  178.5770  138.7370 C   0  0  2  0  0  3  0  0  0  0  0  0
  179.6620  179.4900  143.5510 C   0  0  0  0  0  2  0  0  0  0  0  0
  181.2030  180.3740  140.2960 O   0  0  0  0  0  0  0  0  0  0  0  0
  185.9750  178.8610  142.1620 C   0  0  0  0  0  3  0  0  0  0  0  0
  185.7260  179.1430  139.7830 O   0  0  0  0  0  1  0  0  0  0  0  0
  181.7120  178.4910  142.6050 C   0  0  1  0  0  3  0  0  0  0  0  0
  185.4130  178.6570  143.4240 C   0  0  0  0  0  3  0  0  0  0  0  0
  183.7650  178.8290  141.1660 C   0  0  0  0  0  0  0  0  0  0  0  0
  180.9830  178.1760  141.2780 C   0  0  1  0  0  3  0  0  0  0  0  0
  178.9320  178.9310  142.3570 C   0  0  0  0  0  3  0  0  0  0  0  0
  179.5370  178.3220  141.3910 N   0  0  0  0  0  0  0  0  0  0  0  0
  180.5020  180.8300  139.1610 C   0  0  1  0  0  3  0  0  0  0  0  0
  184.0280  178.5360  143.5610 C   0  0  0  0  0  3  0  0  0  0  0  0
  183.1980  178.6200  142.4370 C   0  0  0  0  0  0  0  0  0  0  0  0
  180.3650  177.3180  138.7650 O   0  0  0  0  0  0  0  0  0  0  0  0
  181.0390  176.5710  137.7930 C   0  0  0  0  0  2  0  0  0  0  0  0
  182.5820  175.6350  139.3680 O   0  0  0  0  0  1  0  0  0  0  0  0
  181.6340  175.3070  138.3980 C   0  0  2  0  0  3  0  0  0  0  0  0
  182.2710  174.4460  137.3250 C   0  0  0  0  0  1  0  0  0  0  0  0
  181.4190  181.6710  138.2770 C   0  0  0  0  0  2  0  0  0  0  0  0
  180.7270  182.0730  137.0630 N   0  0  0  0  0  2  0  0  0  0  0  0
  179.9840  183.2180  137.3810 N   0  0  0  0  0  2  0  0  0  0  0  0
  181.7190  184.6740  136.8240 O   0  0  0  0  0  0  0  0  0  0  0  0
  180.5380  184.5230  137.2340 C   0  0  0  0  0  0  0  0  0  0  0  0
  179.7110  185.7140  137.5610 C   0  0  0  0  0  1  0  0  0  0  0  0
  1 13  1  0  0  0  0
  2 13  2  0  0  0  0
  2  9  1  0  0  0  0
  3  7  1  0  0  0  0
  4  1  1  6  0  0  0
  4  8  1  0  0  0  0
  4 14  1  0  0  0  0
  5  6  1  0  0  0  0
  5 17  1  0  0  0  0
  6 20  1  1  0  0  0
  6  4  1  0  0  0  0
  9 12  2  0  0  0  0
 10  2  1  0  0  0  0
 11  3  1  6  0  0  0
 12 18  1  0  0  0  0
 13 19  1  0  0  0  0
 14 16  1  1  0  0  0
 14 11  1  0  0  0  0
 15  7  1  0  0  0  0
 16 15  2  0  0  0  0
 17 25  1  6  0  0  0
 17  8  1  0  0  0  0
 19 11  1  0  0  0  0
 19 18  2  0  0  0  0
 21 23  1  0  0  0  0
 21 20  1  0  0  0  0
 23 24  1  6  0  0  0
 23 22  1  0  0  0  0
 26 27  1  0  0  0  0
 26 25  1  0  0  0  0
 28 29  2  0  0  0  0
 29 27  1  0  0  0  0
 29 30  1  0  0  0  0
M  END
>  <MODEL>
4

>  <REMARK>
 VINA RESULT:      -6.0      6.992     10.296
  Name = 
  6 active torsions:
  status: ('A' for Active; 'I' for Inactive)
    1  A    between atoms: N_7  and  N_16
    2  A    between atoms: C_8  and  O_12
    3  A    between atoms: C_9  and  O_12
    4  A    between atoms: C_9  and  C_17
    5  A    between atoms: N_16  and  C_30
    6  A    between atoms: C_27  and  C_30
                            x       y       z     vdW  Elec       q    Type
                         _______ _______ _______ _____ _____    ______ ____

>  <TORSDO>
F 6

$$$$
=
 OpenBabel11052412313D

 30 33  0  0  1  0  0  0  0  0999 V2000
  185.1350  178.5260  138.2810 O   0  0  0  0  0  0  0  0  0  0  0  0
  187.3220  177.8640  137.4820 C   0  0  0  0  0  0  0  0  0  0  0  0
  183.5890  175.0940  137.8460 C   0  0  0  0  0  2  0  0  0  0  0  0
  183.7710  178.2530  138.6010 C   0  0  2  0  0  0  0  0  0  0  0  0
  182.3550  179.3060  140.2020 C   0  0  0  0  0  2  0  0  0  0  0  0
  183.1080  179.5890  138.9460 C   0  0  2  0  0  3  0  0  0  0  0  0
  182.1100  174.7650  137.7300 C   0  0  0  0  0  2  0  0  0  0  0  0
  183.7300  177.4240  139.7440 O   0  0  0  0  0  0  0  0  0  0  0  0
  188.1310  176.9950  136.7440 C   0  0  0  0  0  3  0  0  0  0  0  0
  187.8940  178.9460  138.1380 O   0  0  0  0  0  1  0  0  0  0  0  0
  183.8920  176.2860  136.9490 C   0  0  1  0  0  3  0  0  0  0  0  0
  187.5660  175.9060  136.0780 C   0  0  0  0  0  3  0  0  0  0  0  0
  185.9400  177.6400  137.5580 C   0  0  0  0  0  0  0  0  0  0  0  0
  183.0870  177.5200  137.4160 C   0  0  1  0  0  3  0  0  0  0  0  0
  181.2570  175.9920  137.9230 C   0  0  0  0  0  3  0  0  0  0  0  0
  181.7030  177.1900  137.7380 N   0  0  0  0  0  0  0  0  0  0  0  0
  183.1140  178.1440  140.7880 C   0  0  1  0  0  3  0  0  0  0  0  0
  186.1890  175.6820  136.1470 C   0  0  0  0  0  3  0  0  0  0  0  0
  185.3700  176.5450  136.8840 C   0  0  0  0  0  0  0  0  0  0  0  0
  182.2520  180.0620  137.9440 O   0  0  0  0  0  0  0  0  0  0  0  0
  181.4460  181.0100  138.5810 C   0  0  0  0  0  2  0  0  0  0  0  0
  180.7080  181.1940  136.3100 O   0  0  0  0  0  1  0  0  0  0  0  0
  180.6280  181.7960  137.5660 C   0  0  2  0  0  3  0  0  0  0  0  0
  181.1090  183.2310  137.4820 C   0  0  0  0  0  1  0  0  0  0  0  0
  184.1650  178.6510  141.7720 C   0  0  0  0  0  2  0  0  0  0  0  0
  183.6630  178.5790  143.1350 N   0  0  0  0  0  2  0  0  0  0  0  0
  184.7780  178.4290  143.9690 N   0  0  0  0  0  2  0  0  0  0  0  0
  183.6220  179.1080  145.8770 O   0  0  0  0  0  0  0  0  0  0  0  0
  184.7000  178.7070  145.3650 C   0  0  0  0  0  0  0  0  0  0  0  0
  185.8990  178.5160  146.2220 C   0  0  0  0  0  1  0  0  0  0  0  0
  2 13  1  0  0  0  0
  2 10  1  0  0  0  0
  4  1  1  6  0  0  0
  4  6  1  0  0  0  0
  4  8  1  0  0  0  0
  5 17  1  0  0  0  0
  6 20  1  6  0  0  0
  6  5  1  0  0  0  0
  7  3  1  0  0  0  0
  7 15  1  0  0  0  0
  8 17  1  0  0  0  0
  9  2  2  0  0  0  0
 11 14  1  0  0  0  0
 11  3  1  1  0  0  0
 12 18  2  0  0  0  0
 12  9  1  0  0  0  0
 13  1  1  0  0  0  0
 14 16  1  1  0  0  0
 14  4  1  0  0  0  0
 16 15  2  0  0  0  0
 17 25  1  1  0  0  0
 18 19  1  0  0  0  0
 19 11  1  0  0  0  0
 19 13  2  0  0  0  0
 20 21  1  0  0  0  0
 22 23  1  0  0  0  0
 23 24  1  6  0  0  0
 23 21  1  0  0  0  0
 25 26  1  0  0  0  0
 26 27  1  0  0  0  0
 27 29  1  0  0  0  0
 29 28  2  0  0  0  0
 29 30  1  0  0  0  0
M  END
>  <MODEL>
5

>  <REMARK>
 VINA RESULT:      -5.9      4.479      8.169
  Name = 
  6 active torsions:
  status: ('A' for Active; 'I' for Inactive)
    1  A    between atoms: N_7  and  N_16
    2  A    between atoms: C_8  and  O_12
    3  A    between atoms: C_9  and  O_12
    4  A    between atoms: C_9  and  C_17
    5  A    between atoms: N_16  and  C_30
    6  A    between atoms: C_27  and  C_30
                            x       y       z     vdW  Elec       q    Type
                         _______ _______ _______ _____ _____    ______ ____

>  <TORSDO>
F 6

$$$$
=
 OpenBabel11052412313D

 30 33  0  0  1  0  0  0  0  0999 V2000
  191.7280  176.3730  136.9380 O   0  0  0  0  0  0  0  0  0  0  0  0
  193.8370  175.3580  136.3200 C   0  0  0  0  0  0  0  0  0  0  0  0
  189.8040  173.1090  136.9610 C   0  0  0  0  0  2  0  0  0  0  0  0
  190.3360  176.3050  137.2480 C   0  0  2  0  0  0  0  0  0  0  0  0
  189.0240  177.7380  138.6270 C   0  0  0  0  0  2  0  0  0  0  0  0
  189.8270  177.7430  137.3690 C   0  0  2  0  0  3  0  0  0  0  0  0
  188.2990  172.9330  136.8440 C   0  0  0  0  0  2  0  0  0  0  0  0
  190.1810  175.6670  138.4990 O   0  0  0  0  0  0  0  0  0  0  0  0
  194.5530  174.3040  135.7470 C   0  0  0  0  0  3  0  0  0  0  0  0
  194.5190  176.4560  136.8290 O   0  0  0  0  0  1  0  0  0  0  0  0
  190.2580  174.1110  135.9090 C   0  0  1  0  0  3  0  0  0  0  0  0
  193.8780  173.1970  135.2290 C   0  0  0  0  0  3  0  0  0  0  0  0
  192.4380  175.3040  136.3810 C   0  0  0  0  0  0  0  0  0  0  0  0
  189.5920  175.4830  136.1610 C   0  0  1  0  0  3  0  0  0  0  0  0
  187.5900  174.2620  136.8250 C   0  0  0  0  0  3  0  0  0  0  0  0
  188.1750  175.3620  136.4810 N   0  0  0  0  0  0  0  0  0  0  0  0
  189.6330  176.5990  139.4040 C   0  0  1  0  0  3  0  0  0  0  0  0
  192.4830  173.1410  135.2830 C   0  0  0  0  0  3  0  0  0  0  0  0
  191.7570  174.1910  135.8570 C   0  0  0  0  0  0  0  0  0  0  0  0
  189.0480  178.1530  136.2800 O   0  0  0  0  0  0  0  0  0  0  0  0
  188.0080  178.8980  136.8450 C   0  0  0  0  0  2  0  0  0  0  0  0
  185.8970  177.7670  136.8780 O   0  0  0  0  0  1  0  0  0  0  0  0
  186.6950  178.6280  136.1240 C   0  0  2  0  0  3  0  0  0  0  0  0
  186.9460  178.0300  134.7530 C   0  0  0  0  0  1  0  0  0  0  0  0
  190.7190  177.1280  140.3370 C   0  0  0  0  0  2  0  0  0  0  0  0
  190.4480  176.7300  141.7090 N   0  0  0  0  0  2  0  0  0  0  0  0
  189.3250  177.4560  142.1270 N   0  0  0  0  0  2  0  0  0  0  0  0
  188.3720  175.6280  143.2180 O   0  0  0  0  0  0  0  0  0  0  0  0
  188.2960  176.8450  142.9020 C   0  0  0  0  0  0  0  0  0  0  0  0
  187.1300  177.6520  143.3450 C   0  0  0  0  0  1  0  0  0  0  0  0
  2 13  1  0  0  0  0
  2 10  1  0  0  0  0
  4  1  1  6  0  0  0
  4  6  1  0  0  0  0
  4  8  1  0  0  0  0
  5 17  1  0  0  0  0
  6 20  1  6  0  0  0
  6  5  1  0  0  0  0
  7  3  1  0  0  0  0
  8 17  1  0  0  0  0
  9  2  2  0  0  0  0
 11 14  1  0  0  0  0
 11  3  1  1  0  0  0
 12 18  2  0  0  0  0
 12  9  1  0  0  0  0
 13  1  1  0  0  0  0
 14 16  1  1  0  0  0
 14  4  1  0  0  0  0
 15  7  1  0  0  0  0
 16 15  2  0  0  0  0
 17 25  1  1  0  0  0
 18 19  1  0  0  0  0
 19 11  1  0  0  0  0
 19 13  2  0  0  0  0
 20 21  1  0  0  0  0
 23 24  1  6  0  0  0
 23 21  1  0  0  0  0
 23 22  1  0  0  0  0
 25 26  1  0  0  0  0
 26 27  1  0  0  0  0
 27 29  1  0  0  0  0
 29 28  2  0  0  0  0
 29 30  1  0  0  0  0
M  END
>  <MODEL>
6

>  <REMARK>
 VINA RESULT:      -5.5      2.228      4.951
  Name = 
  6 active torsions:
  status: ('A' for Active; 'I' for Inactive)
    1  A    between atoms: N_7  and  N_16
    2  A    between atoms: C_8  and  O_12
    3  A    between atoms: C_9  and  O_12
    4  A    between atoms: C_9  and  C_17
    5  A    between atoms: N_16  and  C_30
    6  A    between atoms: C_27  and  C_30
                            x       y       z     vdW  Elec       q    Type
                         _______ _______ _______ _____ _____    ______ ____

>  <TORSDO>
F 6

$$$$
=
 OpenBabel11052412313D

 30 33  0  0  1  0  0  0  0  0999 V2000
  183.8050  177.2760  140.8180 O   0  0  0  0  0  0  0  0  0  0  0  0
  184.6250  178.1250  142.9320 C   0  0  0  0  0  0  0  0  0  0  0  0
  181.0690  179.8760  140.4760 C   0  0  0  0  0  2  0  0  0  0  0  0
  182.9120  177.3090  139.7040 C   0  0  2  0  0  0  0  0  0  0  0  0
  183.2610  176.5640  137.4680 C   0  0  0  0  0  2  0  0  0  0  0  0
  183.1830  176.0560  138.8680 C   0  0  2  0  0  3  0  0  0  0  0  0
  179.8210  179.7820  139.6150 C   0  0  0  0  0  2  0  0  0  0  0  0
  183.2090  178.4450  138.9190 O   0  0  0  0  0  0  0  0  0  0  0  0
  184.4200  178.8540  144.1070 C   0  0  0  0  0  3  0  0  0  0  0  0
  185.8470  177.5030  142.7120 O   0  0  0  0  0  1  0  0  0  0  0  0
  181.2480  178.5570  141.2160 C   0  0  1  0  0  3  0  0  0  0  0  0
  183.1940  179.4790  144.3400 C   0  0  0  0  0  3  0  0  0  0  0  0
  183.5990  178.0250  141.9820 C   0  0  0  0  0  0  0  0  0  0  0  0
  181.4460  177.4050  140.2050 C   0  0  1  0  0  3  0  0  0  0  0  0
  179.8250  178.5310  138.7750 C   0  0  0  0  0  3  0  0  0  0  0  0
  180.5190  177.4850  139.0820 N   0  0  0  0  0  0  0  0  0  0  0  0
  183.6660  178.0030  137.6610 C   0  0  1  0  0  3  0  0  0  0  0  0
  182.1670  179.3780  143.3980 C   0  0  0  0  0  3  0  0  0  0  0  0
  182.3620  178.6520  142.2170 C   0  0  0  0  0  0  0  0  0  0  0  0
  182.1890  175.0780  138.9920 O   0  0  0  0  0  0  0  0  0  0  0  0
  182.0330  174.5620  137.7010 C   0  0  0  0  0  2  0  0  0  0  0  0
  179.9060  175.0280  136.7030 O   0  0  0  0  0  1  0  0  0  0  0  0
  180.6020  174.0950  137.4730 C   0  0  2  0  0  3  0  0  0  0  0  0
  179.8890  173.8810  138.7940 C   0  0  0  0  0  1  0  0  0  0  0  0
  185.1850  178.1310  137.5770 C   0  0  0  0  0  2  0  0  0  0  0  0
  185.6810  179.0030  138.6300 N   0  0  0  0  0  2  0  0  0  0  0  0
  186.6030  178.2540  139.3740 N   0  0  0  0  0  2  0  0  0  0  0  0
  188.4300  179.0020  138.1320 O   0  0  0  0  0  0  0  0  0  0  0  0
  187.9970  178.2960  139.0810 C   0  0  0  0  0  0  0  0  0  0  0  0
  188.9470  177.5060  139.9060 C   0  0  0  0  0  1  0  0  0  0  0  0
  1 13  1  0  0  0  0
  2  9  1  0  0  0  0
  4  8  1  6  0  0  0
  4 14  1  0  0  0  0
  4  1  1  0  0  0  0
  5 17  1  0  0  0  0
  5  6  1  0  0  0  0
  6 20  1  6  0  0  0
  6  4  1  0  0  0  0
  7  3  1  0  0  0  0
  9 12  2  0  0  0  0
 10  2  1  0  0  0  0
 11  3  1  6  0  0  0
 11 19  1  0  0  0  0
 13 19  1  0  0  0  0
 13  2  2  0  0  0  0
 14 16  1  6  0  0  0
 14 11  1  0  0  0  0
 15 16  2  0  0  0  0
 15  7  1  0  0  0  0
 17 25  1  1  0  0  0
 17  8  1  0  0  0  0
 18 12  1  0  0  0  0
 19 18  2  0  0  0  0
 21 20  1  0  0  0  0
 22 23  1  0  0  0  0
 23 21  1  0  0  0  0
 23 24  1  1  0  0  0
 25 26  1  0  0  0  0
 26 27  1  0  0  0  0
 28 29  2  0  0  0  0
 29 27  1  0  0  0  0
 29 30  1  0  0  0  0
M  END
>  <MODEL>
7

>  <REMARK>
 VINA RESULT:      -5.5      4.449      9.541
  Name = 
  6 active torsions:
  status: ('A' for Active; 'I' for Inactive)
    1  A    between atoms: N_7  and  N_16
    2  A    between atoms: C_8  and  O_12
    3  A    between atoms: C_9  and  O_12
    4  A    between atoms: C_9  and  C_17
    5  A    between atoms: N_16  and  C_30
    6  A    between atoms: C_27  and  C_30
                            x       y       z     vdW  Elec       q    Type
                         _______ _______ _______ _____ _____    ______ ____

>  <TORSDO>
F 6

$$$$
=
 OpenBabel11052412313D

 30 33  0  0  1  0  0  0  0  0999 V2000
  181.0910  177.3580  138.6820 O   0  0  0  0  0  0  0  0  0  0  0  0
  180.7000  174.9700  138.7440 C   0  0  0  0  0  0  0  0  0  0  0  0
  179.9900  177.9500  142.2590 C   0  0  0  0  0  2  0  0  0  0  0  0
  181.0900  178.6550  139.2790 C   0  0  2  0  0  0  0  0  0  0  0  0
  182.4620  180.5420  138.7960 C   0  0  0  0  0  2  0  0  0  0  0  0
  181.4260  179.6630  138.1790 C   0  0  2  0  0  3  0  0  0  0  0  0
  179.5350  179.2650  142.8700 C   0  0  0  0  0  2  0  0  0  0  0  0
  182.1070  178.7040  140.2580 O   0  0  0  0  0  0  0  0  0  0  0  0
  180.0610  173.8610  139.3040 C   0  0  0  0  0  3  0  0  0  0  0  0
  181.5690  174.7960  137.6750 O   0  0  0  0  0  1  0  0  0  0  0  0
  179.3040  177.7800  140.9100 C   0  0  1  0  0  3  0  0  0  0  0  0
  179.1820  174.0250  140.3770 C   0  0  0  0  0  3  0  0  0  0  0  0
  180.4630  176.2510  139.2620 C   0  0  0  0  0  0  0  0  0  0  0  0
  179.7190  178.9230  139.9560 C   0  0  1  0  0  3  0  0  0  0  0  0
  179.6730  180.4030  141.8930 C   0  0  0  0  0  3  0  0  0  0  0  0
  179.7110  180.2250  140.6130 N   0  0  0  0  0  0  0  0  0  0  0  0
  183.0690  179.6490  139.8480 C   0  0  1  0  0  3  0  0  0  0  0  0
  178.9390  175.3010  140.8930 C   0  0  0  0  0  3  0  0  0  0  0  0
  179.5750  176.4180  140.3400 C   0  0  0  0  0  0  0  0  0  0  0  0
  180.3230  180.4130  137.7530 O   0  0  0  0  0  0  0  0  0  0  0  0
  180.8110  181.2070  136.7110 C   0  0  0  0  0  2  0  0  0  0  0  0
  181.1530  183.5780  136.7460 O   0  0  0  0  0  1  0  0  0  0  0  0
  180.1700  182.5880  136.7360 C   0  0  2  0  0  3  0  0  0  0  0  0
  179.2700  182.7410  137.9460 C   0  0  0  0  0  1  0  0  0  0  0  0
  184.2970  178.9400  139.2820 C   0  0  0  0  0  2  0  0  0  0  0  0
  185.4760  179.2590  140.0710 N   0  0  0  0  0  2  0  0  0  0  0  0
  185.0520  179.3810  141.4010 N   0  0  0  0  0  2  0  0  0  0  0  0
  186.7130  177.9590  142.2120 O   0  0  0  0  0  0  0  0  0  0  0  0
  185.7250  178.7000  142.4570 C   0  0  0  0  0  0  0  0  0  0  0  0
  185.2600  178.8710  143.8580 C   0  0  0  0  0  1  0  0  0  0  0  0
  1 13  1  0  0  0  0
  2 13  2  0  0  0  0
  2  9  1  0  0  0  0
  3  7  1  0  0  0  0
  4  1  1  6  0  0  0
  4 14  1  0  0  0  0
  4  8  1  0  0  0  0
  5 17  1  0  0  0  0
  6 20  1  1  0  0  0
  6  5  1  0  0  0  0
  6  4  1  0  0  0  0
  9 12  2  0  0  0  0
 10  2  1  0  0  0  0
 11  3  1  1  0  0  0
 12 18  1  0  0  0  0
 13 19  1  0  0  0  0
 14 16  1  1  0  0  0
 14 11  1  0  0  0  0
 15  7  1  0  0  0  0
 16 15  2  0  0  0  0
 17 25  1  6  0  0  0
 17  8  1  0  0  0  0
 19 18  2  0  0  0  0
 19 11  1  0  0  0  0
 21 23  1  0  0  0  0
 21 20  1  0  0  0  0
 23 22  1  0  0  0  0
 23 24  1  1  0  0  0
 25 26  1  0  0  0  0
 26 27  1  0  0  0  0
 27 29  1  0  0  0  0
 28 29  2  0  0  0  0
 29 30  1  0  0  0  0
M  END
>  <MODEL>
8

>  <REMARK>
 VINA RESULT:      -5.5      6.769     10.417
  Name = 
  6 active torsions:
  status: ('A' for Active; 'I' for Inactive)
    1  A    between atoms: N_7  and  N_16
    2  A    between atoms: C_8  and  O_12
    3  A    between atoms: C_9  and  O_12
    4  A    between atoms: C_9  and  C_17
    5  A    between atoms: N_16  and  C_30
    6  A    between atoms: C_27  and  C_30
                            x       y       z     vdW  Elec       q    Type
                         _______ _______ _______ _____ _____    ______ ____

>  <TORSDO>
F 6

$$$$
=
 OpenBabel11052412313D

 30 33  0  0  1  0  0  0  0  0999 V2000
  182.7880  179.7850  138.7390 O   0  0  0  0  0  0  0  0  0  0  0  0
  184.8860  178.5780  138.7910 C   0  0  0  0  0  0  0  0  0  0  0  0
  180.8790  177.0210  136.9860 C   0  0  0  0  0  2  0  0  0  0  0  0
  181.4060  179.9020  138.4020 C   0  0  2  0  0  0  0  0  0  0  0  0
  179.6960  181.1790  139.4610 C   0  0  0  0  0  2  0  0  0  0  0  0
  180.9800  181.3370  138.7190 C   0  0  2  0  0  3  0  0  0  0  0  0
  179.5840  177.1580  136.2030 C   0  0  0  0  0  2  0  0  0  0  0  0
  180.6630  179.0230  139.2210 O   0  0  0  0  0  0  0  0  0  0  0  0
  185.7220  177.5780  138.2860 C   0  0  0  0  0  3  0  0  0  0  0  0
  185.3250  179.3770  139.8380 O   0  0  0  0  0  1  0  0  0  0  0  0
  181.8180  178.1450  136.5690 C   0  0  1  0  0  3  0  0  0  0  0  0
  185.2930  176.7710  137.2310 C   0  0  0  0  0  3  0  0  0  0  0  0
  183.6110  178.7690  138.2410 C   0  0  0  0  0  0  0  0  0  0  0  0
  181.1900  179.5150  136.9140 C   0  0  1  0  0  3  0  0  0  0  0  0
  179.0380  178.5600  136.2840 C   0  0  0  0  0  3  0  0  0  0  0  0
  179.7780  179.5830  136.5590 N   0  0  0  0  0  0  0  0  0  0  0  0
  179.8200  179.7950  140.0450 C   0  0  1  0  0  3  0  0  0  0  0  0
  184.0240  176.9610  136.6770 C   0  0  0  0  0  3  0  0  0  0  0  0
  183.1790  177.9580  137.1760 C   0  0  0  0  0  0  0  0  0  0  0  0
  180.8060  182.1310  137.5790 O   0  0  0  0  0  0  0  0  0  0  0  0
  180.0530  183.2250  138.0180 C   0  0  0  0  0  2  0  0  0  0  0  0
  181.8410  184.6250  137.2550 O   0  0  0  0  0  1  0  0  0  0  0  0
  180.4520  184.4920  137.2730 C   0  0  2  0  0  3  0  0  0  0  0  0
  179.8250  185.7140  137.9140 C   0  0  0  0  0  1  0  0  0  0  0  0
  180.3920  179.8760  141.4580 C   0  0  0  0  0  2  0  0  0  0  0  0
  181.0950  178.6480  141.7930 N   0  0  0  0  0  2  0  0  0  0  0  0
  182.4250  179.0020  142.0560 N   0  0  0  0  0  2  0  0  0  0  0  0
  182.2220  178.6290  144.3490 O   0  0  0  0  0  0  0  0  0  0  0  0
  182.9510  178.9680  143.3800 C   0  0  0  0  0  0  0  0  0  0  0  0
  184.3730  179.3290  143.6160 C   0  0  0  0  0  1  0  0  0  0  0  0
  2 10  1  0  0  0  0
  4  6  1  0  0  0  0
  4  1  1  1  0  0  0
  4  8  1  0  0  0  0
  5 17  1  0  0  0  0
  6 20  1  6  0  0  0
  6  5  1  0  0  0  0
  7 15  1  0  0  0  0
  7  3  1  0  0  0  0
  8 17  1  0  0  0  0
  9  2  1  0  0  0  0
 11 14  1  0  0  0  0
 11  3  1  1  0  0  0
 11 19  1  0  0  0  0
 12  9  2  0  0  0  0
 13  1  1  0  0  0  0
 13  2  2  0  0  0  0
 14 16  1  1  0  0  0
 14  4  1  0  0  0  0
 15 16  2  0  0  0  0
 17 25  1  1  0  0  0
 18 19  2  0  0  0  0
 18 12  1  0  0  0  0
 19 13  1  0  0  0  0
 20 21  1  0  0  0  0
 22 23  1  0  0  0  0
 23 24  1  1  0  0  0
 23 21  1  0  0  0  0
 25 26  1  0  0  0  0
 26 27  1  0  0  0  0
 27 29  1  0  0  0  0
 29 30  1  0  0  0  0
 29 28  2  0  0  0  0
M  END
>  <MODEL>
9

>  <REMARK>
 VINA RESULT:      -5.5      6.016     10.028
  Name = 
  6 active torsions:
  status: ('A' for Active; 'I' for Inactive)
    1  A    between atoms: N_7  and  N_16
    2  A    between atoms: C_8  and  O_12
    3  A    between atoms: C_9  and  O_12
    4  A    between atoms: C_9  and  C_17
    5  A    between atoms: N_16  and  C_30
    6  A    between atoms: C_27  and  C_30
                            x       y       z     vdW  Elec       q    Type
                         _______ _______ _______ _____ _____    ______ ____

>  <TORSDO>
F 6

$$$$
