=
 OpenBabel11052415573D

 34 39  0  0  0  0  0  0  0  0999 V2000
  182.9560  178.4410  141.4270 C   0  0  0  0  0  0  0  0  0  0  0  0
  180.5180  179.0020  139.2900 C   0  0  0  0  0  1  0  0  0  0  0  0
  183.3250  178.8340  143.8340 C   0  0  0  0  0  0  0  0  0  0  0  0
  183.7850  178.3990  142.5680 C   0  0  0  0  0  3  0  0  0  0  0  0
  181.2090  179.3560  142.8330 C   0  0  0  0  0  0  0  0  0  0  0  0
  179.9490  179.8170  142.7450 N   0  0  0  0  0  0  0  0  0  0  0  0
  182.0120  179.3170  143.9670 C   0  0  0  0  0  3  0  0  0  0  0  0
  180.5930  179.2000  140.7640 C   0  0  0  0  0  0  0  0  0  0  0  0
  181.6570  178.9420  141.6070 C   0  0  0  0  0  0  0  0  0  0  0  0
  179.6130  179.7070  141.4870 O   0  0  0  0  0  0  0  0  0  0  0  0
  187.5650  177.4580  144.1730 C   0  0  0  0  0  3  0  0  0  0  0  0
  186.1070  178.3560  146.3470 N   0  0  0  0  0  0  0  0  0  0  0  0
  190.0390  177.0950  146.9070 C   0  0  0  0  0  0  0  0  0  0  0  0
  189.4660  177.0630  145.6280 C   0  0  0  0  0  3  0  0  0  0  0  0
  188.1470  177.4850  145.4380 C   0  0  0  0  0  0  0  0  0  0  0  0
  184.1580  178.7900  145.0030 N   0  0  0  0  0  2  0  0  0  0  0  0
  187.9600  177.9790  147.8090 C   0  0  0  0  0  3  0  0  0  0  0  0
  187.3890  177.9450  146.5340 C   0  0  0  0  0  0  0  0  0  0  0  0
  189.2800  177.5550  147.9940 C   0  0  0  0  0  3  0  0  0  0  0  0
  185.5150  178.3370  145.1210 C   0  0  0  0  0  0  0  0  0  0  0  0
  186.2470  177.8850  144.0110 C   0  0  0  0  0  3  0  0  0  0  0  0
  191.4290  176.6500  147.1010 C   0  0  0  0  0  0  0  0  0  0  0  0
  192.0860  177.0320  148.1060 O   0  0  0  0  0  1  0  0  0  0  0  0
  192.0290  175.8010  146.1780 O   0  0  0  0  0  0  0  0  0  0  0  0
  182.9810  176.1480  138.4550 C   0  0  0  0  0  3  0  0  0  0  0  0
  183.2650  177.0230  137.2810 C   0  0  0  0  0  2  0  0  0  0  0  0
  184.6740  177.5150  137.2960 C   0  0  0  0  0  0  0  0  0  0  0  0
  185.1440  178.2860  138.2780 C   0  0  0  0  0  3  0  0  0  0  0  0
  183.0380  176.5840  139.7120 C   0  0  0  0  0  3  0  0  0  0  0  0
  184.4250  178.6420  139.5190 C   0  0  0  0  0  3  0  0  0  0  0  0
  183.4580  177.9400  140.1340 C   0  0  0  0  0  0  0  0  0  0  0  0
  185.5080  177.2400  136.1770 N   0  0  0  0  0  0  0  0  0  0  0  0
  186.6420  176.5320  135.5160 C   0  0  0  0  0  2  0  0  0  0  0  0
  185.9260  177.4340  134.7580 C   0  0  0  0  0  2  0  0  0  0  0  0
  1  9  1  0  0  0  0
  1  4  2  0  0  0  0
  2  8  1  0  0  0  0
  3  7  2  0  0  0  0
  3 16  1  0  0  0  0
  4  3  1  0  0  0  0
  5  7  1  0  0  0  0
  6  5  2  0  0  0  0
  8 10  1  0  0  0  0
  8  9  2  0  0  0  0
  9  5  1  0  0  0  0
 10  6  1  0  0  0  0
 11 15  1  0  0  0  0
 12 18  1  0  0  0  0
 13 22  1  0  0  0  0
 13 19  1  0  0  0  0
 14 13  2  0  0  0  0
 15 14  1  0  0  0  0
 15 18  2  0  0  0  0
 16 20  1  0  0  0  0
 17 19  2  0  0  0  0
 18 17  1  0  0  0  0
 20 12  2  0  0  0  0
 21 11  2  0  0  0  0
 21 20  1  0  0  0  0
 22 23  1  0  0  0  0
 24 22  2  0  0  0  0
 25 29  2  0  0  0  0
 26 27  1  0  0  0  0
 26 25  1  0  0  0  0
 27 28  2  0  0  0  0
 28 30  1  0  0  0  0
 29 31  1  0  0  0  0
 30 31  2  0  0  0  0
 31  1  1  0  0  0  0
 32 27  1  0  0  0  0
 33 32  1  0  0  0  0
 34 33  1  0  0  0  0
 34 32  1  0  0  0  0
M  END
>  <MODEL>
1

>  <REMARK>
 VINA RESULT:     -10.7      0.000      0.000
  Name = 
  4 active torsions:
  status: ('A' for Active; 'I' for Inactive)
    1  A    between atoms: C_1  and  C_34
    2  A    between atoms: N_3  and  C_25
    3  A    between atoms: C_7  and  C_11
    4  A    between atoms: C_8  and  N_18
                            x       y       z     vdW  Elec       q    Type
                         _______ _______ _______ _____ _____    ______ ____

>  <TORSDO>
F 4

$$$$
=
 OpenBabel11052415573D

 34 39  0  0  0  0  0  0  0  0999 V2000
  188.0670  177.8870  144.9900 C   0  0  0  0  0  0  0  0  0  0  0  0
  190.9060  176.9540  146.3650 C   0  0  0  0  0  1  0  0  0  0  0  0
  185.7820  178.3560  145.7930 C   0  0  0  0  0  0  0  0  0  0  0  0
  186.7180  178.2200  144.7400 C   0  0  0  0  0  3  0  0  0  0  0  0
  187.5270  177.8270  147.3510 C   0  0  0  0  0  0  0  0  0  0  0  0
  188.1050  177.5630  148.5350 N   0  0  0  0  0  0  0  0  0  0  0  0
  186.1970  178.1590  147.1210 C   0  0  0  0  0  3  0  0  0  0  0  0
  189.5930  177.3030  146.9720 C   0  0  0  0  0  0  0  0  0  0  0  0
  188.4310  177.6890  146.3310 C   0  0  0  0  0  0  0  0  0  0  0  0
  189.3460  177.2520  148.2670 O   0  0  0  0  0  0  0  0  0  0  0  0
  183.5750  178.4050  141.9050 C   0  0  0  0  0  3  0  0  0  0  0  0
  182.3940  179.1210  144.3030 N   0  0  0  0  0  0  0  0  0  0  0  0
  180.1480  179.2700  140.7960 C   0  0  0  0  0  0  0  0  0  0  0  0
  181.4880  178.8610  140.7560 C   0  0  0  0  0  3  0  0  0  0  0  0
  182.2430  178.8110  141.9310 C   0  0  0  0  0  0  0  0  0  0  0  0
  184.4080  178.7000  145.5510 N   0  0  0  0  0  2  0  0  0  0  0  0
  180.3220  179.5790  143.2030 C   0  0  0  0  0  3  0  0  0  0  0  0
  181.6570  179.1710  143.1620 C   0  0  0  0  0  0  0  0  0  0  0  0
  179.5710  179.6280  142.0240 C   0  0  0  0  0  3  0  0  0  0  0  0
  183.6980  178.7310  144.3030 C   0  0  0  0  0  0  0  0  0  0  0  0
  184.3070  178.3630  143.0920 C   0  0  0  0  0  3  0  0  0  0  0  0
  179.3560  179.3210  139.5560 C   0  0  0  0  0  0  0  0  0  0  0  0
  179.0400  180.4290  139.0460 O   0  0  0  0  0  1  0  0  0  0  0  0
  178.9520  178.1460  138.9340 O   0  0  0  0  0  0  0  0  0  0  0  0
  191.3220  178.5530  143.2440 C   0  0  0  0  0  3  0  0  0  0  0  0
  191.6700  177.2780  142.5540 C   0  0  0  0  0  2  0  0  0  0  0  0
  190.7580  177.0130  141.4030 C   0  0  0  0  0  0  0  0  0  0  0  0
  189.4460  176.8360  141.5670 C   0  0  0  0  0  3  0  0  0  0  0  0
  190.1530  178.7500  143.8530 C   0  0  0  0  0  3  0  0  0  0  0  0
  188.7000  177.0070  142.8310 C   0  0  0  0  0  3  0  0  0  0  0  0
  189.0210  177.7950  143.8700 C   0  0  0  0  0  0  0  0  0  0  0  0
  191.3210  176.8410  140.1080 N   0  0  0  0  0  0  0  0  0  0  0  0
  191.2260  176.4960  138.6600 C   0  0  0  0  0  2  0  0  0  0  0  0
  192.4620  176.8630  139.1470 C   0  0  0  0  0  2  0  0  0  0  0  0
  1  9  1  0  0  0  0
  2  8  1  0  0  0  0
  3  7  2  0  0  0  0
  4  1  2  0  0  0  0
  4  3  1  0  0  0  0
  5  6  2  0  0  0  0
  7  5  1  0  0  0  0
  8 10  1  0  0  0  0
  9  8  2  0  0  0  0
  9  5  1  0  0  0  0
 10  6  1  0  0  0  0
 11 15  1  0  0  0  0
 11 21  2  0  0  0  0
 13 19  1  0  0  0  0
 14 13  2  0  0  0  0
 14 15  1  0  0  0  0
 15 18  2  0  0  0  0
 16  3  1  0  0  0  0
 18 17  1  0  0  0  0
 18 12  1  0  0  0  0
 19 17  2  0  0  0  0
 20 12  2  0  0  0  0
 20 16  1  0  0  0  0
 21 20  1  0  0  0  0
 22 13  1  0  0  0  0
 23 22  1  0  0  0  0
 24 22  2  0  0  0  0
 25 29  2  0  0  0  0
 26 25  1  0  0  0  0
 27 28  2  0  0  0  0
 27 26  1  0  0  0  0
 28 30  1  0  0  0  0
 29 31  1  0  0  0  0
 30 31  2  0  0  0  0
 31  1  1  0  0  0  0
 32 27  1  0  0  0  0
 33 34  1  0  0  0  0
 33 32  1  0  0  0  0
 34 32  1  0  0  0  0
M  END
>  <MODEL>
2

>  <REMARK>
 VINA RESULT:     -10.2      2.813      8.794
  Name = 
  4 active torsions:
  status: ('A' for Active; 'I' for Inactive)
    1  A    between atoms: C_1  and  C_34
    2  A    between atoms: N_3  and  C_25
    3  A    between atoms: C_7  and  C_11
    4  A    between atoms: C_8  and  N_18
                            x       y       z     vdW  Elec       q    Type
                         _______ _______ _______ _____ _____    ______ ____

>  <TORSDO>
F 4

$$$$
=
 OpenBabel11052415573D

 34 39  0  0  0  0  0  0  0  0999 V2000
  183.0810  179.0390  140.6910 C   0  0  0  0  0  0  0  0  0  0  0  0
  179.9170  179.5860  141.4090 C   0  0  0  0  0  1  0  0  0  0  0  0
  185.1150  178.4820  141.9720 C   0  0  0  0  0  0  0  0  0  0  0  0
  184.4710  178.8050  140.7530 C   0  0  0  0  0  3  0  0  0  0  0  0
  182.9910  178.6280  143.0770 C   0  0  0  0  0  0  0  0  0  0  0  0
  182.1090  178.6270  144.0910 N   0  0  0  0  0  0  0  0  0  0  0  0
  184.3590  178.3900  143.1530 C   0  0  0  0  0  3  0  0  0  0  0  0
  181.0550  179.1580  142.2670 C   0  0  0  0  0  0  0  0  0  0  0  0
  182.3700  178.9470  141.8990 C   0  0  0  0  0  0  0  0  0  0  0  0
  180.9580  178.9490  143.5660 O   0  0  0  0  0  0  0  0  0  0  0  0
  187.5560  177.3630  145.5450 C   0  0  0  0  0  3  0  0  0  0  0  0
  188.6620  177.7300  143.0350 N   0  0  0  0  0  0  0  0  0  0  0  0
  191.1400  176.7150  146.2290 C   0  0  0  0  0  0  0  0  0  0  0  0
  189.7610  176.8680  146.4290 C   0  0  0  0  0  3  0  0  0  0  0  0
  188.9290  177.2090  145.3600 C   0  0  0  0  0  0  0  0  0  0  0  0
  186.5280  178.2360  142.0450 N   0  0  0  0  0  2  0  0  0  0  0  0
  190.8480  177.2470  143.8720 C   0  0  0  0  0  3  0  0  0  0  0  0
  189.4750  177.3990  144.0740 C   0  0  0  0  0  0  0  0  0  0  0  0
  191.6770  176.9070  144.9460 C   0  0  0  0  0  3  0  0  0  0  0  0
  187.3190  177.8890  143.1920 C   0  0  0  0  0  0  0  0  0  0  0  0
  186.7470  177.7030  144.4600 C   0  0  0  0  0  3  0  0  0  0  0  0
  192.0120  176.3560  147.3580 C   0  0  0  0  0  0  0  0  0  0  0  0
  192.6940  175.2970  147.3260 O   0  0  0  0  0  0  0  0  0  0  0  0
  192.0940  177.1840  148.4720 O   0  0  0  0  0  1  0  0  0  0  0  0
  181.5280  178.1390  137.3950 C   0  0  0  0  0  3  0  0  0  0  0  0
  180.3750  179.0720  137.2320 C   0  0  0  0  0  2  0  0  0  0  0  0
  180.8350  180.4690  136.9790 C   0  0  0  0  0  0  0  0  0  0  0  0
  181.5570  181.1480  137.8710 C   0  0  0  0  0  3  0  0  0  0  0  0
  182.4140  178.2510  138.3840 C   0  0  0  0  0  3  0  0  0  0  0  0
  182.1130  180.6070  139.1290 C   0  0  0  0  0  3  0  0  0  0  0  0
  182.4410  179.3310  139.3970 C   0  0  0  0  0  0  0  0  0  0  0  0
  180.4010  181.1290  135.7960 N   0  0  0  0  0  0  0  0  0  0  0  0
  180.4810  182.2260  134.7880 C   0  0  0  0  0  2  0  0  0  0  0  0
  179.5120  181.2630  134.6050 C   0  0  0  0  0  2  0  0  0  0  0  0
  1  4  2  0  0  0  0
  1  9  1  0  0  0  0
  2  8  1  0  0  0  0
  3 16  1  0  0  0  0
  3  7  2  0  0  0  0
  4  3  1  0  0  0  0
  5  7  1  0  0  0  0
  5  6  2  0  0  0  0
  8 10  1  0  0  0  0
  9  8  2  0  0  0  0
  9  5  1  0  0  0  0
 10  6  1  0  0  0  0
 12 20  2  0  0  0  0
 12 18  1  0  0  0  0
 13 14  1  0  0  0  0
 13 22  1  0  0  0  0
 15 11  1  0  0  0  0
 15 14  2  0  0  0  0
 16 20  1  0  0  0  0
 17 18  2  0  0  0  0
 17 19  1  0  0  0  0
 18 15  1  0  0  0  0
 19 13  2  0  0  0  0
 20 21  1  0  0  0  0
 21 11  2  0  0  0  0
 22 24  1  0  0  0  0
 23 22  2  0  0  0  0
 25 29  2  0  0  0  0
 26 25  1  0  0  0  0
 27 26  1  0  0  0  0
 27 28  2  0  0  0  0
 28 30  1  0  0  0  0
 29 31  1  0  0  0  0
 30 31  2  0  0  0  0
 31  1  1  0  0  0  0
 32 27  1  0  0  0  0
 33 32  1  0  0  0  0
 34 33  1  0  0  0  0
 34 32  1  0  0  0  0
M  END
>  <MODEL>
3

>  <REMARK>
 VINA RESULT:      -9.2      2.467      3.444
  Name = 
  4 active torsions:
  status: ('A' for Active; 'I' for Inactive)
    1  A    between atoms: C_1  and  C_34
    2  A    between atoms: N_3  and  C_25
    3  A    between atoms: C_7  and  C_11
    4  A    between atoms: C_8  and  N_18
                            x       y       z     vdW  Elec       q    Type
                         _______ _______ _______ _____ _____    ______ ____

>  <TORSDO>
F 4

$$$$
=
 OpenBabel11052415573D

 34 39  0  0  0  0  0  0  0  0999 V2000
  182.4560  178.3340  140.5260 C   0  0  0  0  0  0  0  0  0  0  0  0
  180.3980  178.5210  137.9650 C   0  0  0  0  0  1  0  0  0  0  0  0
  182.3780  178.9710  142.9070 C   0  0  0  0  0  0  0  0  0  0  0  0
  183.0740  178.4560  141.7880 C   0  0  0  0  0  3  0  0  0  0  0  0
  180.4430  179.2470  141.5180 C   0  0  0  0  0  0  0  0  0  0  0  0
  179.1940  179.6060  141.1730 N   0  0  0  0  0  0  0  0  0  0  0  0
  181.0370  179.3700  142.7680 C   0  0  0  0  0  3  0  0  0  0  0  0
  180.2050  178.8580  139.4020 C   0  0  0  0  0  0  0  0  0  0  0  0
  181.1200  178.7560  140.4330 C   0  0  0  0  0  0  0  0  0  0  0  0
  179.0890  179.3570  139.8950 O   0  0  0  0  0  0  0  0  0  0  0  0
  186.5240  177.8220  144.1220 C   0  0  0  0  0  3  0  0  0  0  0  0
  184.6910  178.8960  145.8950 N   0  0  0  0  0  0  0  0  0  0  0  0
  188.4940  177.8730  147.2590 C   0  0  0  0  0  0  0  0  0  0  0  0
  188.1520  177.6730  145.9150 C   0  0  0  0  0  3  0  0  0  0  0  0
  186.8770  178.0150  145.4560 C   0  0  0  0  0  0  0  0  0  0  0  0
  182.9960  179.0940  144.1980 N   0  0  0  0  0  2  0  0  0  0  0  0
  186.2700  178.7650  147.6850 C   0  0  0  0  0  3  0  0  0  0  0  0
  185.9310  178.5640  146.3450 C   0  0  0  0  0  0  0  0  0  0  0  0
  187.5470  178.4200  148.1400 C   0  0  0  0  0  3  0  0  0  0  0  0
  184.3220  178.7150  144.5970 C   0  0  0  0  0  0  0  0  0  0  0  0
  185.2450  178.1720  143.6890 C   0  0  0  0  0  3  0  0  0  0  0  0
  189.8380  177.5120  147.7380 C   0  0  0  0  0  0  0  0  0  0  0  0
  190.5170  176.6380  147.1360 O   0  0  0  0  0  0  0  0  0  0  0  0
  190.3720  178.1330  148.8610 O   0  0  0  0  0  1  0  0  0  0  0  0
  183.1610  175.7530  137.8930 C   0  0  0  0  0  3  0  0  0  0  0  0
  183.5520  176.5230  136.6770 C   0  0  0  0  0  2  0  0  0  0  0  0
  184.8910  177.1610  136.8430 C   0  0  0  0  0  0  0  0  0  0  0  0
  185.1270  178.0770  137.7820 C   0  0  0  0  0  3  0  0  0  0  0  0
  182.9760  176.3240  139.0830 C   0  0  0  0  0  3  0  0  0  0  0  0
  184.1890  178.4850  138.8500 C   0  0  0  0  0  3  0  0  0  0  0  0
  183.2010  177.7550  139.3940 C   0  0  0  0  0  0  0  0  0  0  0  0
  185.9150  176.8570  135.9030 N   0  0  0  0  0  0  0  0  0  0  0  0
  186.9590  177.2490  134.9130 C   0  0  0  0  0  2  0  0  0  0  0  0
  186.7740  175.9030  135.1440 C   0  0  0  0  0  2  0  0  0  0  0  0
  1  4  2  0  0  0  0
  2  8  1  0  0  0  0
  3 16  1  0  0  0  0
  4  3  1  0  0  0  0
  5  7  1  0  0  0  0
  6  5  2  0  0  0  0
  7  3  2  0  0  0  0
  8 10  1  0  0  0  0
  8  9  2  0  0  0  0
  9  1  1  0  0  0  0
  9  5  1  0  0  0  0
 10  6  1  0  0  0  0
 11 15  1  0  0  0  0
 12 18  1  0  0  0  0
 13 22  1  0  0  0  0
 13 19  1  0  0  0  0
 14 13  2  0  0  0  0
 15 14  1  0  0  0  0
 15 18  2  0  0  0  0
 16 20  1  0  0  0  0
 17 19  2  0  0  0  0
 18 17  1  0  0  0  0
 20 12  2  0  0  0  0
 21 11  2  0  0  0  0
 21 20  1  0  0  0  0
 22 24  1  0  0  0  0
 23 22  2  0  0  0  0
 25 29  2  0  0  0  0
 26 27  1  0  0  0  0
 26 25  1  0  0  0  0
 27 28  2  0  0  0  0
 28 30  1  0  0  0  0
 29 31  1  0  0  0  0
 30 31  2  0  0  0  0
 31  1  1  0  0  0  0
 32 27  1  0  0  0  0
 33 34  1  0  0  0  0
 33 32  1  0  0  0  0
 34 32  1  0  0  0  0
M  END
>  <MODEL>
4

>  <REMARK>
 VINA RESULT:      -9.2      1.099      1.506
  Name = 
  4 active torsions:
  status: ('A' for Active; 'I' for Inactive)
    1  A    between atoms: C_1  and  C_34
    2  A    between atoms: N_3  and  C_25
    3  A    between atoms: C_7  and  C_11
    4  A    between atoms: C_8  and  N_18
                            x       y       z     vdW  Elec       q    Type
                         _______ _______ _______ _____ _____    ______ ____

>  <TORSDO>
F 4

$$$$
=
 OpenBabel11052415573D

 34 39  0  0  0  0  0  0  0  0999 V2000
  182.7830  177.1880  138.8240 C   0  0  0  0  0  0  0  0  0  0  0  0
  181.9590  177.7200  135.6830 C   0  0  0  0  0  1  0  0  0  0  0  0
  182.6950  178.4850  140.9200 C   0  0  0  0  0  0  0  0  0  0  0  0
  183.0560  177.3200  140.2020 C   0  0  0  0  0  3  0  0  0  0  0  0
  181.7880  179.3960  138.8950 C   0  0  0  0  0  0  0  0  0  0  0  0
  181.2180  180.2970  138.0770 N   0  0  0  0  0  0  0  0  0  0  0  0
  182.0470  179.5390  140.2530 C   0  0  0  0  0  3  0  0  0  0  0  0
  181.7700  178.5570  136.9000 C   0  0  0  0  0  0  0  0  0  0  0  0
  182.1440  178.2710  138.1990 C   0  0  0  0  0  0  0  0  0  0  0  0
  181.2250  179.7580  136.8880 O   0  0  0  0  0  0  0  0  0  0  0  0
  186.5210  177.7340  143.1070 C   0  0  0  0  0  3  0  0  0  0  0  0
  184.2050  178.5500  144.3840 N   0  0  0  0  0  0  0  0  0  0  0  0
  187.6500  177.8830  146.6330 C   0  0  0  0  0  0  0  0  0  0  0  0
  187.6690  177.6950  145.2440 C   0  0  0  0  0  3  0  0  0  0  0  0
  186.5150  177.9170  144.4880 C   0  0  0  0  0  0  0  0  0  0  0  0
  182.9630  178.6280  142.3240 N   0  0  0  0  0  2  0  0  0  0  0  0
  185.3050  178.5230  146.5060 C   0  0  0  0  0  3  0  0  0  0  0  0
  185.3260  178.3340  145.1220 C   0  0  0  0  0  0  0  0  0  0  0  0
  186.4630  178.2980  147.2580 C   0  0  0  0  0  3  0  0  0  0  0  0
  184.1850  178.3750  143.0340 C   0  0  0  0  0  0  0  0  0  0  0  0
  185.3550  177.9630  142.3760 C   0  0  0  0  0  3  0  0  0  0  0  0
  188.8680  177.6480  147.4250 C   0  0  0  0  0  0  0  0  0  0  0  0
  189.0470  178.2530  148.5150 O   0  0  0  0  0  1  0  0  0  0  0  0
  189.8330  176.7530  146.9770 O   0  0  0  0  0  0  0  0  0  0  0  0
  185.1330  174.7880  137.1490 C   0  0  0  0  0  3  0  0  0  0  0  0
  184.6990  173.4320  137.5940 C   0  0  0  0  0  2  0  0  0  0  0  0
  183.3910  173.0510  136.9840 C   0  0  0  0  0  0  0  0  0  0  0  0
  182.2740  173.7390  137.2190 C   0  0  0  0  0  3  0  0  0  0  0  0
  184.4430  175.8940  137.4230 C   0  0  0  0  0  3  0  0  0  0  0  0
  182.1810  175.0110  137.9670 C   0  0  0  0  0  3  0  0  0  0  0  0
  183.1370  175.9430  138.1200 C   0  0  0  0  0  0  0  0  0  0  0  0
  183.3170  171.8570  136.2150 N   0  0  0  0  0  0  0  0  0  0  0  0
  183.0640  171.1150  134.9460 C   0  0  0  0  0  2  0  0  0  0  0  0
  183.4290  170.3780  136.0510 C   0  0  0  0  0  2  0  0  0  0  0  0
  1  4  2  0  0  0  0
  2  8  1  0  0  0  0
  3 16  1  0  0  0  0
  4  3  1  0  0  0  0
  5  7  1  0  0  0  0
  6  5  2  0  0  0  0
  7  3  2  0  0  0  0
  8  9  2  0  0  0  0
  9  1  1  0  0  0  0
  9  5  1  0  0  0  0
 10  8  1  0  0  0  0
 10  6  1  0  0  0  0
 11 15  1  0  0  0  0
 12 18  1  0  0  0  0
 13 19  1  0  0  0  0
 13 22  1  0  0  0  0
 14 13  2  0  0  0  0
 15 18  2  0  0  0  0
 15 14  1  0  0  0  0
 16 20  1  0  0  0  0
 17 19  2  0  0  0  0
 18 17  1  0  0  0  0
 20 12  2  0  0  0  0
 21 20  1  0  0  0  0
 21 11  2  0  0  0  0
 22 23  1  0  0  0  0
 24 22  2  0  0  0  0
 25 29  2  0  0  0  0
 25 26  1  0  0  0  0
 27 28  2  0  0  0  0
 27 26  1  0  0  0  0
 28 30  1  0  0  0  0
 29 31  1  0  0  0  0
 30 31  2  0  0  0  0
 31  1  1  0  0  0  0
 32 27  1  0  0  0  0
 33 34  1  0  0  0  0
 33 32  1  0  0  0  0
 34 32  1  0  0  0  0
M  END
>  <MODEL>
5

>  <REMARK>
 VINA RESULT:      -9.1      2.745      3.774
  Name = 
  4 active torsions:
  status: ('A' for Active; 'I' for Inactive)
    1  A    between atoms: C_1  and  C_34
    2  A    between atoms: N_3  and  C_25
    3  A    between atoms: C_7  and  C_11
    4  A    between atoms: C_8  and  N_18
                            x       y       z     vdW  Elec       q    Type
                         _______ _______ _______ _____ _____    ______ ____

>  <TORSDO>
F 4

$$$$
=
 OpenBabel11052415573D

 34 39  0  0  0  0  0  0  0  0999 V2000
  189.4440  177.7740  140.9740 C   0  0  0  0  0  0  0  0  0  0  0  0
  192.5900  177.0380  140.3530 C   0  0  0  0  0  1  0  0  0  0  0  0
  187.4370  178.2480  139.6200 C   0  0  0  0  0  0  0  0  0  0  0  0
  188.0850  178.1430  140.8740 C   0  0  0  0  0  3  0  0  0  0  0  0
  189.4940  177.6210  138.5570 C   0  0  0  0  0  0  0  0  0  0  0  0
  190.3540  177.3650  137.5570 N   0  0  0  0  0  0  0  0  0  0  0  0
  188.1550  177.9790  138.4420 C   0  0  0  0  0  3  0  0  0  0  0  0
  191.4270  177.2140  139.4400 C   0  0  0  0  0  0  0  0  0  0  0  0
  190.1220  177.5260  139.7700 C   0  0  0  0  0  0  0  0  0  0  0  0
  191.5050  177.1240  138.1270 O   0  0  0  0  0  0  0  0  0  0  0  0
  184.3000  178.2740  142.8050 C   0  0  0  0  0  3  0  0  0  0  0  0
  183.7710  178.9770  140.1810 N   0  0  0  0  0  0  0  0  0  0  0  0
  180.6810  179.0490  142.9760 C   0  0  0  0  0  0  0  0  0  0  0  0
  181.9740  178.6720  143.3660 C   0  0  0  0  0  3  0  0  0  0  0  0
  183.0110  178.6470  142.4300 C   0  0  0  0  0  0  0  0  0  0  0  0
  186.0530  178.6170  139.5060 N   0  0  0  0  0  2  0  0  0  0  0  0
  181.4730  179.3790  140.6990 C   0  0  0  0  0  3  0  0  0  0  0  0
  182.7600  179.0020  141.0890 C   0  0  0  0  0  0  0  0  0  0  0  0
  180.4370  179.4010  141.6390 C   0  0  0  0  0  3  0  0  0  0  0  0
  185.0390  178.6140  140.5220 C   0  0  0  0  0  0  0  0  0  0  0  0
  185.3180  178.2580  141.8510 C   0  0  0  0  0  3  0  0  0  0  0  0
  179.5910  179.0740  143.9650 C   0  0  0  0  0  0  0  0  0  0  0  0
  178.9310  180.1290  144.1600 O   0  0  0  0  0  0  0  0  0  0  0  0
  179.2790  177.9320  144.6940 O   0  0  0  0  0  1  0  0  0  0  0  0
  191.0990  179.0430  144.0950 C   0  0  0  0  0  3  0  0  0  0  0  0
  190.5160  178.2390  145.2080 C   0  0  0  0  0  2  0  0  0  0  0  0
  190.9920  176.8250  145.1660 C   0  0  0  0  0  0  0  0  0  0  0  0
  190.7270  176.0200  144.1370 C   0  0  0  0  0  3  0  0  0  0  0  0
  190.8610  178.7790  142.8110 C   0  0  0  0  0  3  0  0  0  0  0  0
  190.0760  176.4180  142.8710 C   0  0  0  0  0  3  0  0  0  0  0  0
  190.0720  177.6340  142.3000 C   0  0  0  0  0  0  0  0  0  0  0  0
  191.6560  176.2920  146.3060 N   0  0  0  0  0  0  0  0  0  0  0  0
  192.4800  175.2550  146.9910 C   0  0  0  0  0  2  0  0  0  0  0  0
  192.0680  176.3360  147.7390 C   0  0  0  0  0  2  0  0  0  0  0  0
  1 31  1  0  0  0  0
  3  4  1  0  0  0  0
  4  1  2  0  0  0  0
  5  9  1  0  0  0  0
  6 10  1  0  0  0  0
  6  5  2  0  0  0  0
  7  5  1  0  0  0  0
  7  3  2  0  0  0  0
  8  9  2  0  0  0  0
  8  2  1  0  0  0  0
  9  1  1  0  0  0  0
 10  8  1  0  0  0  0
 12 20  2  0  0  0  0
 12 18  1  0  0  0  0
 13 14  1  0  0  0  0
 13 22  1  0  0  0  0
 15 11  1  0  0  0  0
 15 14  2  0  0  0  0
 16  3  1  0  0  0  0
 16 20  1  0  0  0  0
 17 18  2  0  0  0  0
 17 19  1  0  0  0  0
 18 15  1  0  0  0  0
 19 13  2  0  0  0  0
 20 21  1  0  0  0  0
 21 11  2  0  0  0  0
 22 23  2  0  0  0  0
 22 24  1  0  0  0  0
 25 26  1  0  0  0  0
 27 26  1  0  0  0  0
 27 32  1  0  0  0  0
 28 27  2  0  0  0  0
 29 25  2  0  0  0  0
 30 28  1  0  0  0  0
 31 29  1  0  0  0  0
 31 30  2  0  0  0  0
 32 33  1  0  0  0  0
 32 34  1  0  0  0  0
 33 34  1  0  0  0  0
M  END
>  <MODEL>
6

>  <REMARK>
 VINA RESULT:      -9.0      3.588      9.568
  Name = 
  4 active torsions:
  status: ('A' for Active; 'I' for Inactive)
    1  A    between atoms: C_1  and  C_34
    2  A    between atoms: N_3  and  C_25
    3  A    between atoms: C_7  and  C_11
    4  A    between atoms: C_8  and  N_18
                            x       y       z     vdW  Elec       q    Type
                         _______ _______ _______ _____ _____    ______ ____

>  <TORSDO>
F 4

$$$$
=
 OpenBabel11052415573D

 34 39  0  0  0  0  0  0  0  0999 V2000
  189.8520  176.6880  137.9340 C   0  0  0  0  0  0  0  0  0  0  0  0
  189.7370  176.9950  134.6600 C   0  0  0  0  0  1  0  0  0  0  0  0
  188.5570  177.5660  139.8400 C   0  0  0  0  0  0  0  0  0  0  0  0
  189.6420  176.8200  139.3230 C   0  0  0  0  0  3  0  0  0  0  0  0
  187.8830  178.0560  137.5910 C   0  0  0  0  0  0  0  0  0  0  0  0
  187.1700  178.6050  136.5930 N   0  0  0  0  0  0  0  0  0  0  0  0
  187.6600  178.1920  138.9560 C   0  0  0  0  0  3  0  0  0  0  0  0
  188.8290  177.5060  135.7230 C   0  0  0  0  0  0  0  0  0  0  0  0
  188.9380  177.3400  137.0910 C   0  0  0  0  0  0  0  0  0  0  0  0
  187.7680  178.2530  135.4870 O   0  0  0  0  0  0  0  0  0  0  0  0
  191.3500  176.6360  143.2040 C   0  0  0  0  0  3  0  0  0  0  0  0
  188.7790  177.5730  143.6130 N   0  0  0  0  0  0  0  0  0  0  0  0
  191.1970  176.7460  146.9040 C   0  0  0  0  0  0  0  0  0  0  0  0
  191.6860  176.5500  145.6050 C   0  0  0  0  0  3  0  0  0  0  0  0
  190.8770  176.8260  144.5000 C   0  0  0  0  0  0  0  0  0  0  0  0
  188.3300  177.7030  141.2520 N   0  0  0  0  0  2  0  0  0  0  0  0
  189.0750  177.5010  145.9830 C   0  0  0  0  0  3  0  0  0  0  0  0
  189.5640  177.3050  144.6890 C   0  0  0  0  0  0  0  0  0  0  0  0
  189.8900  177.2220  147.0860 C   0  0  0  0  0  3  0  0  0  0  0  0
  189.2180  177.3930  142.3360 C   0  0  0  0  0  0  0  0  0  0  0  0
  190.5210  176.9200  142.1180 C   0  0  0  0  0  3  0  0  0  0  0  0
  192.0540  176.4540  148.0650 C   0  0  0  0  0  0  0  0  0  0  0  0
  192.4570  175.2800  148.2810 O   0  0  0  0  0  0  0  0  0  0  0  0
  192.4290  177.4730  148.9330 O   0  0  0  0  0  1  0  0  0  0  0  0
  191.3820  173.7060  136.2440 C   0  0  0  0  0  3  0  0  0  0  0  0
  192.5050  174.2460  135.4250 C   0  0  0  0  0  2  0  0  0  0  0  0
  193.6300  174.7170  136.2850 C   0  0  0  0  0  0  0  0  0  0  0  0
  193.4820  175.7130  137.1600 C   0  0  0  0  0  3  0  0  0  0  0  0
  190.6900  174.4510  137.1040 C   0  0  0  0  0  3  0  0  0  0  0  0
  192.2100  176.3810  137.5060 C   0  0  0  0  0  3  0  0  0  0  0  0
  190.9700  175.8680  137.4330 C   0  0  0  0  0  0  0  0  0  0  0  0
  194.9230  174.1570  136.0890 N   0  0  0  0  0  0  0  0  0  0  0  0
  196.3490  174.2410  135.6640 C   0  0  0  0  0  2  0  0  0  0  0  0
  195.9000  173.0310  136.1470 C   0  0  0  0  0  2  0  0  0  0  0  0
  1  4  2  0  0  0  0
  2  8  1  0  0  0  0
  3 16  1  0  0  0  0
  4  3  1  0  0  0  0
  5  7  1  0  0  0  0
  6  5  2  0  0  0  0
  7  3  2  0  0  0  0
  8  9  2  0  0  0  0
  9  5  1  0  0  0  0
  9  1  1  0  0  0  0
 10  8  1  0  0  0  0
 10  6  1  0  0  0  0
 11 15  1  0  0  0  0
 12 18  1  0  0  0  0
 13 19  1  0  0  0  0
 13 22  1  0  0  0  0
 14 13  2  0  0  0  0
 15 18  2  0  0  0  0
 15 14  1  0  0  0  0
 16 20  1  0  0  0  0
 17 19  2  0  0  0  0
 18 17  1  0  0  0  0
 20 12  2  0  0  0  0
 21 20  1  0  0  0  0
 21 11  2  0  0  0  0
 22 23  2  0  0  0  0
 22 24  1  0  0  0  0
 25 29  2  0  0  0  0
 26 25  1  0  0  0  0
 26 27  1  0  0  0  0
 27 28  2  0  0  0  0
 28 30  1  0  0  0  0
 29 31  1  0  0  0  0
 31 30  2  0  0  0  0
 31  1  1  0  0  0  0
 32 34  1  0  0  0  0
 32 27  1  0  0  0  0
 33 32  1  0  0  0  0
 33 34  1  0  0  0  0
M  END
>  <MODEL>
7

>  <REMARK>
 VINA RESULT:      -9.0      4.977      7.257
  Name = 
  4 active torsions:
  status: ('A' for Active; 'I' for Inactive)
    1  A    between atoms: C_1  and  C_34
    2  A    between atoms: N_3  and  C_25
    3  A    between atoms: C_7  and  C_11
    4  A    between atoms: C_8  and  N_18
                            x       y       z     vdW  Elec       q    Type
                         _______ _______ _______ _____ _____    ______ ____

>  <TORSDO>
F 4

$$$$
=
 OpenBabel11052415573D

 34 39  0  0  0  0  0  0  0  0999 V2000
  182.4940  177.7320  138.6520 C   0  0  0  0  0  0  0  0  0  0  0  0
  179.7270  178.8480  137.2630 C   0  0  0  0  0  1  0  0  0  0  0  0
  184.5710  178.7430  139.5180 C   0  0  0  0  0  0  0  0  0  0  0  0
  183.7840  177.6070  139.2080 C   0  0  0  0  0  3  0  0  0  0  0  0
  182.7890  180.1360  138.7190 C   0  0  0  0  0  0  0  0  0  0  0  0
  182.1460  181.2640  138.3750 N   0  0  0  0  0  0  0  0  0  0  0  0
  184.0600  180.0290  139.2720 C   0  0  0  0  0  3  0  0  0  0  0  0
  180.8930  179.5710  137.8420 C   0  0  0  0  0  0  0  0  0  0  0  0
  182.0320  179.0370  138.4130 C   0  0  0  0  0  0  0  0  0  0  0  0
  181.0100  180.8850  137.8520 O   0  0  0  0  0  0  0  0  0  0  0  0
  185.6840  177.8780  143.7610 C   0  0  0  0  0  3  0  0  0  0  0  0
  187.5670  178.3280  141.7840 N   0  0  0  0  0  0  0  0  0  0  0  0
  188.8380  177.5680  145.6790 C   0  0  0  0  0  0  0  0  0  0  0  0
  187.4690  177.5940  145.3790 C   0  0  0  0  0  3  0  0  0  0  0  0
  187.0410  177.8490  144.0730 C   0  0  0  0  0  0  0  0  0  0  0  0
  185.8830  178.6280  140.0910 N   0  0  0  0  0  2  0  0  0  0  0  0
  189.3510  178.0530  143.3510 C   0  0  0  0  0  3  0  0  0  0  0  0
  187.9870  178.0800  143.0530 C   0  0  0  0  0  0  0  0  0  0  0  0
  189.7750  177.7980  144.6590 C   0  0  0  0  0  3  0  0  0  0  0  0
  186.2460  178.3640  141.4540 C   0  0  0  0  0  0  0  0  0  0  0  0
  185.2830  178.1350  142.4500 C   0  0  0  0  0  3  0  0  0  0  0  0
  189.2850  177.2980  147.0550 C   0  0  0  0  0  0  0  0  0  0  0  0
  188.5260  177.5420  148.0320 O   0  0  0  0  0  1  0  0  0  0  0  0
  190.5490  176.7690  147.2920 O   0  0  0  0  0  0  0  0  0  0  0  0
  179.7470  175.2650  139.3280 C   0  0  0  0  0  3  0  0  0  0  0  0
  179.1740  174.9330  137.9920 C   0  0  0  0  0  2  0  0  0  0  0  0
  180.1220  174.1170  137.1780 C   0  0  0  0  0  0  0  0  0  0  0  0
  181.3170  174.5790  136.8080 C   0  0  0  0  0  3  0  0  0  0  0  0
  180.8460  176.0040  139.4810 C   0  0  0  0  0  3  0  0  0  0  0  0
  181.9240  175.8550  137.2420 C   0  0  0  0  0  3  0  0  0  0  0  0
  181.6890  176.5280  138.3820 C   0  0  0  0  0  0  0  0  0  0  0  0
  179.6940  172.8480  136.6960 N   0  0  0  0  0  0  0  0  0  0  0  0
  179.1070  171.9610  135.6520 C   0  0  0  0  0  2  0  0  0  0  0  0
  179.4830  171.3790  136.8440 C   0  0  0  0  0  2  0  0  0  0  0  0
  1  4  2  0  0  0  0
  2  8  1  0  0  0  0
  3 16  1  0  0  0  0
  4  3  1  0  0  0  0
  5  7  1  0  0  0  0
  6  5  2  0  0  0  0
  7  3  2  0  0  0  0
  8 10  1  0  0  0  0
  8  9  2  0  0  0  0
  9  1  1  0  0  0  0
  9  5  1  0  0  0  0
 10  6  1  0  0  0  0
 11 15  1  0  0  0  0
 12 18  1  0  0  0  0
 13 22  1  0  0  0  0
 14 13  1  0  0  0  0
 15 14  2  0  0  0  0
 16 20  1  0  0  0  0
 17 19  1  0  0  0  0
 18 17  2  0  0  0  0
 18 15  1  0  0  0  0
 19 13  2  0  0  0  0
 20 12  2  0  0  0  0
 20 21  1  0  0  0  0
 21 11  2  0  0  0  0
 22 24  2  0  0  0  0
 22 23  1  0  0  0  0
 25 29  2  0  0  0  0
 26 25  1  0  0  0  0
 27 26  1  0  0  0  0
 28 27  2  0  0  0  0
 28 30  1  0  0  0  0
 30 31  2  0  0  0  0
 31  1  1  0  0  0  0
 31 29  1  0  0  0  0
 32 34  1  0  0  0  0
 32 27  1  0  0  0  0
 33 32  1  0  0  0  0
 33 34  1  0  0  0  0
M  END
>  <MODEL>
8

>  <REMARK>
 VINA RESULT:      -8.5      3.117      4.361
  Name = 
  4 active torsions:
  status: ('A' for Active; 'I' for Inactive)
    1  A    between atoms: C_1  and  C_34
    2  A    between atoms: N_3  and  C_25
    3  A    between atoms: C_7  and  C_11
    4  A    between atoms: C_8  and  N_18
                            x       y       z     vdW  Elec       q    Type
                         _______ _______ _______ _____ _____    ______ ____

>  <TORSDO>
F 4

$$$$
=
 OpenBabel11052415573D

 34 39  0  0  0  0  0  0  0  0999 V2000
  188.1440  175.9640  137.3300 C   0  0  0  0  0  0  0  0  0  0  0  0
  186.5640  176.8940  134.5980 C   0  0  0  0  0  1  0  0  0  0  0  0
  189.3250  177.1100  139.1670 C   0  0  0  0  0  0  0  0  0  0  0  0
  188.9100  175.9250  138.5140 C   0  0  0  0  0  3  0  0  0  0  0  0
  188.2170  178.3820  137.4620 C   0  0  0  0  0  0  0  0  0  0  0  0
  187.8120  179.4650  136.7780 N   0  0  0  0  0  0  0  0  0  0  0  0
  188.9680  178.3600  138.6320 C   0  0  0  0  0  3  0  0  0  0  0  0
  187.1660  177.6930  135.7000 C   0  0  0  0  0  0  0  0  0  0  0  0
  187.8220  177.2350  136.8270 C   0  0  0  0  0  0  0  0  0  0  0  0
  187.1850  179.0120  135.7260 O   0  0  0  0  0  0  0  0  0  0  0  0
  187.8960  177.4530  143.3890 C   0  0  0  0  0  3  0  0  0  0  0  0
  190.5710  177.1810  142.7350 N   0  0  0  0  0  0  0  0  0  0  0  0
  189.4730  177.5120  146.7410 C   0  0  0  0  0  0  0  0  0  0  0  0
  188.4930  177.5380  145.7390 C   0  0  0  0  0  3  0  0  0  0  0  0
  188.8590  177.4280  144.3950 C   0  0  0  0  0  0  0  0  0  0  0  0
  190.1000  177.0820  140.3770 N   0  0  0  0  0  2  0  0  0  0  0  0
  191.1950  177.2610  145.0410 C   0  0  0  0  0  3  0  0  0  0  0  0
  190.2180  177.2890  144.0430 C   0  0  0  0  0  0  0  0  0  0  0  0
  190.8240  177.3730  146.3840 C   0  0  0  0  0  3  0  0  0  0  0  0
  189.6480  177.2050  141.7340 C   0  0  0  0  0  0  0  0  0  0  0  0
  188.2880  177.3400  142.0550 C   0  0  0  0  0  3  0  0  0  0  0  0
  189.0830  177.6280  148.1560 C   0  0  0  0  0  0  0  0  0  0  0  0
  189.8050  178.2660  148.9670 O   0  0  0  0  0  1  0  0  0  0  0  0
  187.9100  177.0360  148.6100 O   0  0  0  0  0  0  0  0  0  0  0  0
  188.5560  172.8960  135.2070 C   0  0  0  0  0  3  0  0  0  0  0  0
  187.8510  171.8070  135.9420 C   0  0  0  0  0  2  0  0  0  0  0  0
  186.3710  171.9990  135.9140 C   0  0  0  0  0  0  0  0  0  0  0  0
  185.7850  173.0640  136.4620 C   0  0  0  0  0  3  0  0  0  0  0  0
  188.5020  174.1740  135.5810 C   0  0  0  0  0  3  0  0  0  0  0  0
  186.4800  174.2380  137.0300 C   0  0  0  0  0  3  0  0  0  0  0  0
  187.6950  174.7080  136.7020 C   0  0  0  0  0  0  0  0  0  0  0  0
  185.5570  170.9620  135.3780 N   0  0  0  0  0  0  0  0  0  0  0  0
  184.2370  170.3160  135.1240 C   0  0  0  0  0  2  0  0  0  0  0  0
  185.3610  169.6810  134.6400 C   0  0  0  0  0  2  0  0  0  0  0  0
  1  4  2  0  0  0  0
  2  8  1  0  0  0  0
  3 16  1  0  0  0  0
  4  3  1  0  0  0  0
  5  7  1  0  0  0  0
  6  5  2  0  0  0  0
  7  3  2  0  0  0  0
  8 10  1  0  0  0  0
  8  9  2  0  0  0  0
  9  1  1  0  0  0  0
  9  5  1  0  0  0  0
 10  6  1  0  0  0  0
 11 15  1  0  0  0  0
 12 18  1  0  0  0  0
 13 22  1  0  0  0  0
 14 13  2  0  0  0  0
 15 14  1  0  0  0  0
 16 20  1  0  0  0  0
 17 19  2  0  0  0  0
 18 15  2  0  0  0  0
 18 17  1  0  0  0  0
 19 13  1  0  0  0  0
 20 21  1  0  0  0  0
 20 12  2  0  0  0  0
 21 11  2  0  0  0  0
 22 24  2  0  0  0  0
 22 23  1  0  0  0  0
 25 29  2  0  0  0  0
 25 26  1  0  0  0  0
 27 26  1  0  0  0  0
 27 28  2  0  0  0  0
 28 30  1  0  0  0  0
 29 31  1  0  0  0  0
 31 30  2  0  0  0  0
 31  1  1  0  0  0  0
 32 27  1  0  0  0  0
 33 32  1  0  0  0  0
 34 33  1  0  0  0  0
 34 32  1  0  0  0  0
M  END
>  <MODEL>
9

>  <REMARK>
 VINA RESULT:      -8.4      4.791      6.308
  Name = 
  4 active torsions:
  status: ('A' for Active; 'I' for Inactive)
    1  A    between atoms: C_1  and  C_34
    2  A    between atoms: N_3  and  C_25
    3  A    between atoms: C_7  and  C_11
    4  A    between atoms: C_8  and  N_18
                            x       y       z     vdW  Elec       q    Type
                         _______ _______ _______ _____ _____    ______ ____

>  <TORSDO>
F 4

$$$$
