=
 OpenBabel11052412343D

 30 34  0  0  1  0  0  0  0  0999 V2000
  187.6690  178.4840  140.3500 C   0  0  1  0  0  3  0  0  0  0  0  0
  185.5730  178.0150  138.0190 C   0  0  0  0  0  2  0  0  0  0  0  0
  186.5510  178.7670  141.0390 C   0  0  2  0  0  3  0  0  0  0  0  0
  188.7910  177.6920  140.9950 C   0  0  0  0  0  2  0  0  0  0  0  0
  187.3190  177.0570  144.3810 C   0  0  0  0  0  2  0  0  0  0  0  0
  187.3610  177.7070  143.0540 C   0  0  0  0  0  0  0  0  0  0  0  0
  189.5440  176.9010  143.3050 C   0  0  0  0  0  2  0  0  0  0  0  0
  183.5290  178.5640  141.1870 O   0  0  0  0  0  0  0  0  0  0  0  0
  184.5530  177.6560  139.1080 C   0  0  2  0  0  3  0  0  0  0  0  0
  188.6350  177.6350  142.4490 N   0  0  0  0  0  0  0  0  0  0  0  0
  186.3220  178.2200  142.3900 C   0  0  0  0  0  0  0  0  0  0  0  0
  184.0810  177.5420  141.8330 O   0  0  0  0  0  0  0  0  0  0  0  0
  189.3760  177.3540  145.7490 C   0  0  0  0  0  1  0  0  0  0  0  0
  186.8500  177.5220  138.3440 O   0  0  0  0  0  0  0  0  0  0  0  0
  188.7630  176.5920  144.5920 C   0  0  1  0  0  3  0  0  0  0  0  0
  187.5910  178.6080  138.8470 C   0  0  2  0  0  3  0  0  0  0  0  0
  185.5320  179.4840  140.4150 O   0  0  0  0  0  0  0  0  0  0  0  0
  183.3490  177.2890  138.5100 O   0  0  0  0  0  1  0  0  0  0  0  0
  184.3140  178.8540  140.0460 C   0  0  2  0  0  3  0  0  0  0  0  0
  184.9120  178.0420  142.8730 C   0  0  2  0  0  3  0  0  0  0  0  0
  188.9670  178.6810  138.1830 C   0  0  2  0  0  3  0  0  0  0  0  0
  189.0340  179.8060  137.3560 O   0  0  0  0  0  1  0  0  0  0  0  0
  189.2170  177.4320  137.3520 C   0  0  0  0  0  2  0  0  0  0  0  0
  190.5250  176.7810  137.7600 C   0  0  0  0  0  3  0  0  0  0  0  0
  191.1370  176.1040  136.5510 C   0  0  0  0  0  2  0  0  0  0  0  0
  190.4070  175.2810  137.5910 C   0  0  0  0  0  2  0  0  0  0  0  0
  184.3610  179.2200  143.6310 C   0  0  0  0  0  0  0  0  0  0  0  0
  184.8590  180.3700  143.4740 O   0  0  0  0  0  0  0  0  0  0  0  0
  181.9760  178.9360  144.0760 C   0  0  0  0  0  2  0  0  0  0  0  0
  183.2220  179.0130  144.5280 C   0  0  0  0  0  3  0  0  0  0  0  0
  1  4  1  6  0  0  0
  1  3  1  0  0  0  0
  2 14  1  0  0  0  0
  2  9  1  0  0  0  0
  3 17  1  6  0  0  0
  3 11  1  0  0  0  0
  4 10  1  0  0  0  0
  5 15  1  0  0  0  0
  6  5  1  0  0  0  0
  7 15  1  0  0  0  0
  8 12  1  0  0  0  0
  9 18  1  6  0  0  0
  9 19  1  0  0  0  0
 10  6  1  0  0  0  0
 10  7  1  0  0  0  0
 11 20  1  0  0  0  0
 11  6  2  0  0  0  0
 12 20  1  0  0  0  0
 14 16  1  0  0  0  0
 15 13  1  1  0  0  0
 16 21  1  6  0  0  0
 16  1  1  0  0  0  0
 19 17  1  1  0  0  0
 19  8  1  0  0  0  0
 20 27  1  6  0  0  0
 21 22  1  6  0  0  0
 23 24  1  0  0  0  0
 23 21  1  0  0  0  0
 25 26  1  0  0  0  0
 25 24  1  0  0  0  0
 26 24  1  0  0  0  0
 27 30  1  0  0  0  0
 28 27  2  0  0  0  0
 29 30  2  0  0  0  0
M  END
>  <MODEL>
1

>  <REMARK>
 VINA RESULT:      -7.8      0.000      0.000
  Name = 
  5 active torsions:
  status: ('A' for Active; 'I' for Inactive)
    1  A    between atoms: C_2  and  C_14
    2  A    between atoms: C_2  and  C_22
    3  A    between atoms: C_7  and  C_26
    4  A    between atoms: C_7  and  C_30
    5  A    between atoms: C_14  and  C_20
                            x       y       z     vdW  Elec       q    Type
                         _______ _______ _______ _____ _____    ______ ____

>  <TORSDO>
F 5

$$$$
=
 OpenBabel11052412343D

 30 34  0  0  1  0  0  0  0  0999 V2000
  188.2210  178.5140  141.0880 C   0  0  1  0  0  3  0  0  0  0  0  0
  190.7930  176.6950  140.7400 C   0  0  0  0  0  2  0  0  0  0  0  0
  188.2470  178.4760  139.7450 C   0  0  2  0  0  3  0  0  0  0  0  0
  186.9030  178.4230  141.8350 C   0  0  0  0  0  2  0  0  0  0  0  0
  184.5160  178.0760  138.9680 C   0  0  0  0  0  2  0  0  0  0  0  0
  185.8410  178.3490  139.5660 C   0  0  0  0  0  0  0  0  0  0  0  0
  184.3930  178.5810  141.3890 C   0  0  0  0  0  2  0  0  0  0  0  0
  189.3090  177.1080  137.2560 O   0  0  0  0  0  0  0  0  0  0  0  0
  190.1900  176.2250  139.4100 C   0  0  2  0  0  3  0  0  0  0  0  0
  185.7680  178.6570  140.9420 N   0  0  0  0  0  0  0  0  0  0  0  0
  187.0240  178.2230  138.9600 C   0  0  0  0  0  0  0  0  0  0  0  0
  188.1340  176.5840  137.5910 O   0  0  0  0  0  0  0  0  0  0  0  0
  182.6700  179.4970  139.8390 C   0  0  0  0  0  1  0  0  0  0  0  0
  189.7930  176.8540  141.7170 O   0  0  0  0  0  0  0  0  0  0  0  0
  183.5500  178.3000  140.1350 C   0  0  1  0  0  3  0  0  0  0  0  0
  189.5210  178.2320  141.8020 C   0  0  2  0  0  3  0  0  0  0  0  0
  189.4740  178.5470  139.0880 O   0  0  0  0  0  0  0  0  0  0  0  0
  191.0280  175.2710  138.8340 O   0  0  0  0  0  1  0  0  0  0  0  0
  190.0240  177.4100  138.4400 C   0  0  2  0  0  3  0  0  0  0  0  0
  187.1500  177.6100  137.5950 C   0  0  2  0  0  3  0  0  0  0  0  0
  189.5140  178.6950  143.2600 C   0  0  2  0  0  3  0  0  0  0  0  0
  190.7350  179.3000  143.5710 O   0  0  0  0  0  1  0  0  0  0  0  0
  189.2880  177.5110  144.1870 C   0  0  0  0  0  2  0  0  0  0  0  0
  189.3300  177.9600  145.6350 C   0  0  0  0  0  3  0  0  0  0  0  0
  189.7310  176.7860  146.5040 C   0  0  0  0  0  2  0  0  0  0  0  0
  188.2780  177.2030  146.4200 C   0  0  0  0  0  2  0  0  0  0  0  0
  187.2520  178.6080  136.4730 C   0  0  0  0  0  0  0  0  0  0  0  0
  187.6260  179.7920  136.7030 O   0  0  0  0  0  0  0  0  0  0  0  0
  185.9670  177.3040  134.8560 C   0  0  0  0  0  2  0  0  0  0  0  0
  186.9370  178.1730  135.1100 C   0  0  0  0  0  3  0  0  0  0  0  0
  1 16  1  0  0  0  0
  1  4  1  1  0  0  0
  2 14  1  0  0  0  0
  3 11  1  1  0  0  0
  3  1  1  0  0  0  0
  5  6  1  0  0  0  0
  5 15  1  0  0  0  0
  6 10  1  0  0  0  0
  8 12  1  0  0  0  0
  9 18  1  6  0  0  0
  9  2  1  0  0  0  0
 10  7  1  0  0  0  0
 10  4  1  0  0  0  0
 11  6  2  0  0  0  0
 12 20  1  0  0  0  0
 14 16  1  0  0  0  0
 15 13  1  6  0  0  0
 15  7  1  0  0  0  0
 16 21  1  1  0  0  0
 17  3  1  0  0  0  0
 19  8  1  6  0  0  0
 19 17  1  0  0  0  0
 19  9  1  0  0  0  0
 20 27  1  6  0  0  0
 20 11  1  0  0  0  0
 21 22  1  1  0  0  0
 21 23  1  0  0  0  0
 23 24  1  0  0  0  0
 24 26  1  0  0  0  0
 24 25  1  0  0  0  0
 26 25  1  0  0  0  0
 27 28  2  0  0  0  0
 29 30  2  0  0  0  0
 30 27  1  0  0  0  0
M  END
>  <MODEL>
2

>  <REMARK>
 VINA RESULT:      -7.1      2.779      6.541
  Name = 
  5 active torsions:
  status: ('A' for Active; 'I' for Inactive)
    1  A    between atoms: C_2  and  C_14
    2  A    between atoms: C_2  and  C_22
    3  A    between atoms: C_7  and  C_26
    4  A    between atoms: C_7  and  C_30
    5  A    between atoms: C_14  and  C_20
                            x       y       z     vdW  Elec       q    Type
                         _______ _______ _______ _____ _____    ______ ____

>  <TORSDO>
F 5

$$$$
=
 OpenBabel11052412343D

 30 34  0  0  1  0  0  0  0  0999 V2000
  185.6810  178.6130  140.8590 C   0  0  1  0  0  3  0  0  0  0  0  0
  188.0140  177.6630  142.7820 C   0  0  0  0  0  2  0  0  0  0  0  0
  186.6750  178.5870  139.9550 C   0  0  2  0  0  3  0  0  0  0  0  0
  184.2930  178.1250  140.4910 C   0  0  0  0  0  2  0  0  0  0  0  0
  184.8580  177.0710  136.9400 C   0  0  0  0  0  2  0  0  0  0  0  0
  185.2440  177.7340  138.2050 C   0  0  0  0  0  0  0  0  0  0  0  0
  182.9240  177.5120  138.4230 C   0  0  0  0  0  2  0  0  0  0  0  0
  189.4600  177.6100  139.2580 O   0  0  0  0  0  0  0  0  0  0  0  0
  188.6760  177.0340  141.5490 C   0  0  2  0  0  3  0  0  0  0  0  0
  184.1380  178.0030  139.0410 N   0  0  0  0  0  0  0  0  0  0  0  0
  186.4880  177.9750  138.6260 C   0  0  0  0  0  0  0  0  0  0  0  0
  188.5540  176.7530  138.7980 O   0  0  0  0  0  0  0  0  0  0  0  0
  182.7110  177.8630  135.9650 C   0  0  0  0  0  1  0  0  0  0  0  0
  186.6170  177.5090  142.7370 O   0  0  0  0  0  0  0  0  0  0  0  0
  183.3320  176.9900  137.0360 C   0  0  1  0  0  3  0  0  0  0  0  0
  186.0840  178.7400  142.3090 C   0  0  2  0  0  3  0  0  0  0  0  0
  187.9430  179.0290  140.3270 O   0  0  0  0  0  0  0  0  0  0  0  0
  189.8450  176.3810  141.9340 O   0  0  0  0  0  1  0  0  0  0  0  0
  189.0140  178.1140  140.5040 C   0  0  2  0  0  3  0  0  0  0  0  0
  187.6850  177.4310  137.9000 C   0  0  2  0  0  3  0  0  0  0  0  0
  184.9300  179.1760  143.2120 C   0  0  2  0  0  3  0  0  0  0  0  0
  185.1170  180.5030  143.6120 O   0  0  0  0  0  1  0  0  0  0  0  0
  184.8600  178.2860  144.4440 C   0  0  0  0  0  2  0  0  0  0  0  0
  185.4570  178.9970  145.6430 C   0  0  0  0  0  3  0  0  0  0  0  0
  186.4550  178.0770  146.3160 C   0  0  0  0  0  2  0  0  0  0  0  0
  185.0710  178.2530  146.9040 C   0  0  0  0  0  2  0  0  0  0  0  0
  188.3490  178.4140  136.9750 C   0  0  0  0  0  0  0  0  0  0  0  0
  188.3050  179.6520  137.2190 O   0  0  0  0  0  0  0  0  0  0  0  0
  188.7920  176.7270  135.2640 C   0  0  0  0  0  2  0  0  0  0  0  0
  189.0710  177.9070  135.8050 C   0  0  0  0  0  3  0  0  0  0  0  0
  1  4  1  1  0  0  0
  1 16  1  0  0  0  0
  3 11  1  1  0  0  0
  3 17  1  0  0  0  0
  3  1  1  0  0  0  0
  5 15  1  0  0  0  0
  5  6  1  0  0  0  0
  6 11  2  0  0  0  0
  6 10  1  0  0  0  0
  7 10  1  0  0  0  0
  9 18  1  1  0  0  0
  9  2  1  0  0  0  0
 10  4  1  0  0  0  0
 12  8  1  0  0  0  0
 14  2  1  0  0  0  0
 15 13  1  6  0  0  0
 15  7  1  0  0  0  0
 16 14  1  0  0  0  0
 16 21  1  1  0  0  0
 17 19  1  0  0  0  0
 19  8  1  6  0  0  0
 19  9  1  0  0  0  0
 20 27  1  1  0  0  0
 20 11  1  0  0  0  0
 20 12  1  0  0  0  0
 21 22  1  1  0  0  0
 21 23  1  0  0  0  0
 23 24  1  0  0  0  0
 24 25  1  0  0  0  0
 24 26  1  0  0  0  0
 25 26  1  0  0  0  0
 27 28  2  0  0  0  0
 29 30  2  0  0  0  0
 30 27  1  0  0  0  0
M  END
>  <MODEL>
3

>  <REMARK>
 VINA RESULT:      -6.9      2.310      7.272
  Name = 
  5 active torsions:
  status: ('A' for Active; 'I' for Inactive)
    1  A    between atoms: C_2  and  C_14
    2  A    between atoms: C_2  and  C_22
    3  A    between atoms: C_7  and  C_26
    4  A    between atoms: C_7  and  C_30
    5  A    between atoms: C_14  and  C_20
                            x       y       z     vdW  Elec       q    Type
                         _______ _______ _______ _____ _____    ______ ____

>  <TORSDO>
F 5

$$$$
=
 OpenBabel11052412343D

 30 34  0  0  1  0  0  0  0  0999 V2000
  187.9090  178.1950  140.5480 C   0  0  1  0  0  3  0  0  0  0  0  0
  188.6490  176.5310  137.9540 C   0  0  0  0  0  2  0  0  0  0  0  0
  186.8460  178.5280  139.7970 C   0  0  2  0  0  3  0  0  0  0  0  0
  187.7460  177.9070  142.0290 C   0  0  0  0  0  2  0  0  0  0  0  0
  184.0490  178.3740  142.4130 C   0  0  0  0  0  2  0  0  0  0  0  0
  185.3290  178.4660  141.6770 C   0  0  0  0  0  0  0  0  0  0  0  0
  186.0250  178.1920  143.8940 C   0  0  0  0  0  2  0  0  0  0  0  0
  185.1400  177.8960  137.3710 O   0  0  0  0  0  0  0  0  0  0  0  0
  187.1440  176.4480  137.6660 C   0  0  2  0  0  3  0  0  0  0  0  0
  186.4550  178.3830  142.5250 N   0  0  0  0  0  0  0  0  0  0  0  0
  185.4780  178.5070  140.3510 C   0  0  0  0  0  0  0  0  0  0  0  0
  184.6300  177.3040  138.4470 O   0  0  0  0  0  0  0  0  0  0  0  0
  184.0400  179.5080  144.6270 C   0  0  0  0  0  1  0  0  0  0  0  0
  188.9050  176.4180  139.3330 O   0  0  0  0  0  0  0  0  0  0  0  0
  184.4900  178.2720  143.8750 C   0  0  1  0  0  3  0  0  0  0  0  0
  189.1400  177.7210  139.8110 C   0  0  2  0  0  3  0  0  0  0  0  0
  187.0250  178.7720  138.4370 O   0  0  0  0  0  0  0  0  0  0  0  0
  186.9340  175.6860  136.5180 O   0  0  0  0  0  1  0  0  0  0  0  0
  186.5520  177.8560  137.4610 C   0  0  2  0  0  3  0  0  0  0  0  0
  184.3200  178.2940  139.4190 C   0  0  2  0  0  3  0  0  0  0  0  0
  190.4030  177.7640  140.6720 C   0  0  2  0  0  3  0  0  0  0  0  0
  191.5320  177.6060  139.8630 O   0  0  0  0  0  1  0  0  0  0  0  0
  190.3700  176.6540  141.7110 C   0  0  0  0  0  2  0  0  0  0  0  0
  191.2930  176.9870  142.8670 C   0  0  0  0  0  3  0  0  0  0  0  0
  191.5190  175.7380  143.6940 C   0  0  0  0  0  2  0  0  0  0  0  0
  190.5460  176.7950  144.1710 C   0  0  0  0  0  2  0  0  0  0  0  0
  183.7140  179.5620  138.8820 C   0  0  0  0  0  0  0  0  0  0  0  0
  184.3800  180.6340  138.8710 O   0  0  0  0  0  0  0  0  0  0  0  0
  181.3900  178.8110  138.9220 C   0  0  0  0  0  2  0  0  0  0  0  0
  182.3510  179.5220  138.3450 C   0  0  0  0  0  3  0  0  0  0  0  0
  1  4  1  1  0  0  0
  2 14  1  0  0  0  0
  3 17  1  6  0  0  0
  3 11  1  0  0  0  0
  3  1  1  0  0  0  0
  4 10  1  0  0  0  0
  5 15  1  0  0  0  0
  6  5  1  0  0  0  0
  6 10  1  0  0  0  0
  8 12  1  0  0  0  0
  9 18  1  6  0  0  0
  9  2  1  0  0  0  0
 10  7  1  0  0  0  0
 11  6  2  0  0  0  0
 12 20  1  0  0  0  0
 14 16  1  0  0  0  0
 15  7  1  0  0  0  0
 15 13  1  1  0  0  0
 16  1  1  0  0  0  0
 16 21  1  1  0  0  0
 19  8  1  1  0  0  0
 19  9  1  0  0  0  0
 19 17  1  0  0  0  0
 20 27  1  6  0  0  0
 20 11  1  0  0  0  0
 21 22  1  6  0  0  0
 21 23  1  0  0  0  0
 23 24  1  0  0  0  0
 24 25  1  0  0  0  0
 24 26  1  0  0  0  0
 25 26  1  0  0  0  0
 28 27  2  0  0  0  0
 30 27  1  0  0  0  0
 30 29  2  0  0  0  0
M  END
>  <MODEL>
4

>  <REMARK>
 VINA RESULT:      -6.8      1.963      4.092
  Name = 
  5 active torsions:
  status: ('A' for Active; 'I' for Inactive)
    1  A    between atoms: C_2  and  C_14
    2  A    between atoms: C_2  and  C_22
    3  A    between atoms: C_7  and  C_26
    4  A    between atoms: C_7  and  C_30
    5  A    between atoms: C_14  and  C_20
                            x       y       z     vdW  Elec       q    Type
                         _______ _______ _______ _____ _____    ______ ____

>  <TORSDO>
F 5

$$$$
=
 OpenBabel11052412343D

 30 34  0  0  1  0  0  0  0  0999 V2000
  188.4320  177.2750  142.1660 C   0  0  1  0  0  3  0  0  0  0  0  0
  191.5580  177.6540  142.5270 C   0  0  0  0  0  2  0  0  0  0  0  0
  188.4880  177.1410  143.5020 C   0  0  2  0  0  3  0  0  0  0  0  0
  187.2990  178.0470  141.5160 C   0  0  0  0  0  2  0  0  0  0  0  0
  185.3770  179.1200  144.5470 C   0  0  0  0  0  2  0  0  0  0  0  0
  186.4170  178.3380  143.8440 C   0  0  0  0  0  0  0  0  0  0  0  0
  185.0070  179.0110  142.1010 C   0  0  0  0  0  2  0  0  0  0  0  0
  190.0890  177.5700  146.0420 O   0  0  0  0  0  0  0  0  0  0  0  0
  191.2570  178.1910  143.9330 C   0  0  2  0  0  3  0  0  0  0  0  0
  186.1950  178.2610  142.4510 N   0  0  0  0  0  0  0  0  0  0  0  0
  187.5300  177.8360  144.3830 C   0  0  0  0  0  0  0  0  0  0  0  0
  189.2880  178.6100  145.8330 O   0  0  0  0  0  0  0  0  0  0  0  0
  183.0720  178.8180  143.6590 C   0  0  0  0  0  1  0  0  0  0  0  0
  190.5880  178.0870  141.6050 O   0  0  0  0  0  0  0  0  0  0  0  0
  184.4050  179.5010  143.4270 C   0  0  1  0  0  3  0  0  0  0  0  0
  189.7080  177.0080  141.4030 C   0  0  2  0  0  3  0  0  0  0  0  0
  189.5480  176.4380  144.0700 O   0  0  0  0  0  0  0  0  0  0  0  0
  192.4470  178.5790  144.5450 O   0  0  0  0  0  1  0  0  0  0  0  0
  190.5690  177.1120  144.7910 C   0  0  2  0  0  3  0  0  0  0  0  0
  187.9400  178.1600  145.7910 C   0  0  2  0  0  3  0  0  0  0  0  0
  189.4710  176.7720  139.9100 C   0  0  2  0  0  3  0  0  0  0  0  0
  190.4120  175.8630  139.4190 O   0  0  0  0  0  1  0  0  0  0  0  0
  189.5900  178.0810  139.1450 C   0  0  0  0  0  2  0  0  0  0  0  0
  188.5760  178.1280  138.0190 C   0  0  0  0  0  3  0  0  0  0  0  0
  189.2700  177.7950  136.7150 C   0  0  0  0  0  2  0  0  0  0  0  0
  188.9530  179.2350  137.0560 C   0  0  0  0  0  2  0  0  0  0  0  0
  187.5790  177.1040  146.8010 C   0  0  0  0  0  0  0  0  0  0  0  0
  186.7400  176.2050  146.5150 O   0  0  0  0  0  0  0  0  0  0  0  0
  188.1820  178.1800  148.9100 C   0  0  0  0  0  2  0  0  0  0  0  0
  188.2390  177.1230  148.1100 C   0  0  0  0  0  3  0  0  0  0  0  0
  1  4  1  1  0  0  0
  1  3  1  0  0  0  0
  2  9  1  0  0  0  0
  3 17  1  1  0  0  0
  3 11  1  0  0  0  0
  4 10  1  0  0  0  0
  6 11  2  0  0  0  0
  6  5  1  0  0  0  0
  7 10  1  0  0  0  0
  7 15  1  0  0  0  0
  9 18  1  1  0  0  0
  9 19  1  0  0  0  0
 10  6  1  0  0  0  0
 11 20  1  0  0  0  0
 12  8  1  0  0  0  0
 14  2  1  0  0  0  0
 15 13  1  1  0  0  0
 15  5  1  0  0  0  0
 16 21  1  6  0  0  0
 16 14  1  0  0  0  0
 16  1  1  0  0  0  0
 19 17  1  6  0  0  0
 19  8  1  0  0  0  0
 20 12  1  0  0  0  0
 20 27  1  1  0  0  0
 21 22  1  6  0  0  0
 23 21  1  0  0  0  0
 24 23  1  0  0  0  0
 25 26  1  0  0  0  0
 25 24  1  0  0  0  0
 26 24  1  0  0  0  0
 27 30  1  0  0  0  0
 28 27  2  0  0  0  0
 30 29  2  0  0  0  0
M  END
>  <MODEL>
5

>  <REMARK>
 VINA RESULT:      -6.8      3.177      5.424
  Name = 
  5 active torsions:
  status: ('A' for Active; 'I' for Inactive)
    1  A    between atoms: C_2  and  C_14
    2  A    between atoms: C_2  and  C_22
    3  A    between atoms: C_7  and  C_26
    4  A    between atoms: C_7  and  C_30
    5  A    between atoms: C_14  and  C_20
                            x       y       z     vdW  Elec       q    Type
                         _______ _______ _______ _____ _____    ______ ____

>  <TORSDO>
F 5

$$$$
=
 OpenBabel11052412343D

 30 34  0  0  1  0  0  0  0  0999 V2000
  186.3060  177.6410  143.3070 C   0  0  1  0  0  3  0  0  0  0  0  0
  186.8500  178.6440  140.3500 C   0  0  0  0  0  2  0  0  0  0  0  0
  187.5770  177.2190  143.1930 C   0  0  2  0  0  3  0  0  0  0  0  0
  185.8130  178.2560  144.6030 C   0  0  0  0  0  2  0  0  0  0  0  0
  188.9420  178.1210  146.6580 C   0  0  0  0  0  2  0  0  0  0  0  0
  188.1140  177.7880  145.4790 C   0  0  0  0  0  0  0  0  0  0  0  0
  186.5250  178.4970  147.0440 C   0  0  0  0  0  2  0  0  0  0  0  0
  190.1990  177.4100  141.6830 O   0  0  0  0  0  0  0  0  0  0  0  0
  188.3310  178.7570  140.7390 C   0  0  2  0  0  3  0  0  0  0  0  0
  186.7340  177.9840  145.7070 N   0  0  0  0  0  0  0  0  0  0  0  0
  188.5610  177.4480  144.2680 C   0  0  0  0  0  0  0  0  0  0  0  0
  190.2080  178.2550  142.7100 O   0  0  0  0  0  0  0  0  0  0  0  0
  187.9310  177.5030  148.8460 C   0  0  0  0  0  1  0  0  0  0  0  0
  186.0190  179.0400  141.4140 O   0  0  0  0  0  0  0  0  0  0  0  0
  187.9070  178.5120  147.7160 C   0  0  1  0  0  3  0  0  0  0  0  0
  185.5450  177.8620  142.0210 C   0  0  2  0  0  3  0  0  0  0  0  0
  188.0040  176.6710  141.9850 O   0  0  0  0  0  0  0  0  0  0  0  0
  189.0550  179.2600  139.6600 O   0  0  0  0  0  1  0  0  0  0  0  0
  188.8940  177.3790  141.1350 C   0  0  2  0  0  3  0  0  0  0  0  0
  190.0190  177.5240  143.9150 C   0  0  2  0  0  3  0  0  0  0  0  0
  184.0320  177.9290  142.2280 C   0  0  2  0  0  3  0  0  0  0  0  0
  183.3760  177.5020  141.0700 O   0  0  0  0  0  1  0  0  0  0  0  0
  183.6070  179.3540  142.5500 C   0  0  0  0  0  2  0  0  0  0  0  0
  182.6870  179.3700  143.7550 C   0  0  0  0  0  3  0  0  0  0  0  0
  181.6410  178.2870  143.5940 C   0  0  0  0  0  2  0  0  0  0  0  0
  181.2860  179.7300  143.3060 C   0  0  0  0  0  2  0  0  0  0  0  0
  190.7470  176.2100  143.9970 C   0  0  0  0  0  0  0  0  0  0  0  0
  190.4250  175.2520  143.2400 O   0  0  0  0  0  0  0  0  0  0  0  0
  191.6810  176.2380  146.2540 C   0  0  0  0  0  2  0  0  0  0  0  0
  191.8530  176.0730  144.9480 C   0  0  0  0  0  3  0  0  0  0  0  0
  1  4  1  6  0  0  0
  2  9  1  0  0  0  0
  2 14  1  0  0  0  0
  3 17  1  6  0  0  0
  3  1  1  0  0  0  0
  3 11  1  0  0  0  0
  4 10  1  0  0  0  0
  5 15  1  0  0  0  0
  6 10  1  0  0  0  0
  6  5  1  0  0  0  0
  7 15  1  0  0  0  0
  8 12  1  0  0  0  0
  9 18  1  6  0  0  0
  9 19  1  0  0  0  0
 10  7  1  0  0  0  0
 11  6  2  0  0  0  0
 12 20  1  0  0  0  0
 14 16  1  0  0  0  0
 15 13  1  1  0  0  0
 16 21  1  1  0  0  0
 16  1  1  0  0  0  0
 19  8  1  1  0  0  0
 19 17  1  0  0  0  0
 20 27  1  6  0  0  0
 20 11  1  0  0  0  0
 21 22  1  6  0  0  0
 21 23  1  0  0  0  0
 23 24  1  0  0  0  0
 25 24  1  0  0  0  0
 26 25  1  0  0  0  0
 26 24  1  0  0  0  0
 27 30  1  0  0  0  0
 28 27  2  0  0  0  0
 30 29  2  0  0  0  0
M  END
>  <MODEL>
6

>  <REMARK>
 VINA RESULT:      -6.5      2.557      6.354
  Name = 
  5 active torsions:
  status: ('A' for Active; 'I' for Inactive)
    1  A    between atoms: C_2  and  C_14
    2  A    between atoms: C_2  and  C_22
    3  A    between atoms: C_7  and  C_26
    4  A    between atoms: C_7  and  C_30
    5  A    between atoms: C_14  and  C_20
                            x       y       z     vdW  Elec       q    Type
                         _______ _______ _______ _____ _____    ______ ____

>  <TORSDO>
F 5

$$$$
=
 OpenBabel11052412343D

 30 34  0  0  1  0  0  0  0  0999 V2000
  191.5660  176.6740  137.8160 C   0  0  1  0  0  3  0  0  0  0  0  0
  191.1470  174.7230  135.3530 C   0  0  0  0  0  2  0  0  0  0  0  0
  190.2990  177.0100  137.5190 C   0  0  2  0  0  3  0  0  0  0  0  0
  192.0090  176.5410  139.2610 C   0  0  0  0  0  2  0  0  0  0  0  0
  188.7980  177.3050  141.0320 C   0  0  0  0  0  2  0  0  0  0  0  0
  189.6720  177.2360  139.8410 C   0  0  0  0  0  0  0  0  0  0  0  0
  191.1980  177.1250  141.6120 C   0  0  0  0  0  2  0  0  0  0  0  0
  187.7410  176.2730  136.0670 O   0  0  0  0  0  0  0  0  0  0  0  0
  189.6530  174.7210  135.7020 C   0  0  2  0  0  3  0  0  0  0  0  0
  191.0420  177.1530  140.1730 N   0  0  0  0  0  0  0  0  0  0  0  0
  189.2730  177.1390  138.5710 C   0  0  0  0  0  0  0  0  0  0  0  0
  187.6940  175.8250  137.3170 O   0  0  0  0  0  0  0  0  0  0  0  0
  189.7160  178.6430  142.9180 C   0  0  0  0  0  1  0  0  0  0  0  0
  191.9360  174.7240  136.5180 O   0  0  0  0  0  0  0  0  0  0  0  0
  189.7900  177.3120  142.1980 C   0  0  1  0  0  3  0  0  0  0  0  0
  192.3790  176.0460  136.7090 C   0  0  2  0  0  3  0  0  0  0  0  0
  189.9190  177.1110  136.1820 O   0  0  0  0  0  0  0  0  0  0  0  0
  188.9750  173.8710  134.8310 O   0  0  0  0  0  1  0  0  0  0  0  0
  189.0670  176.1420  135.5890 C   0  0  2  0  0  3  0  0  0  0  0  0
  187.8310  176.9220  138.2110 C   0  0  2  0  0  3  0  0  0  0  0  0
  193.8840  176.0800  136.9820 C   0  0  2  0  0  3  0  0  0  0  0  0
  194.5270  176.8330  135.9950 O   0  0  0  0  0  1  0  0  0  0  0  0
  194.4500  174.6690  136.9860 C   0  0  0  0  0  2  0  0  0  0  0  0
  194.9770  174.3160  138.3640 C   0  0  0  0  0  3  0  0  0  0  0  0
  196.4280  173.9000  138.2470 C   0  0  0  0  0  2  0  0  0  0  0  0
  195.3490  172.8480  138.3930 C   0  0  0  0  0  2  0  0  0  0  0  0
  187.0940  178.1740  137.8170 C   0  0  0  0  0  0  0  0  0  0  0  0
  187.7170  179.1540  137.3240 O   0  0  0  0  0  0  0  0  0  0  0  0
  185.0800  178.5640  139.1440 C   0  0  0  0  0  2  0  0  0  0  0  0
  185.6400  178.2210  137.9900 C   0  0  0  0  0  3  0  0  0  0  0  0
  1  4  1  1  0  0  0
  2  9  1  0  0  0  0
  2 14  1  0  0  0  0
  3 17  1  6  0  0  0
  3  1  1  0  0  0  0
  3 11  1  0  0  0  0
  4 10  1  0  0  0  0
  5 15  1  0  0  0  0
  6 10  1  0  0  0  0
  6  5  1  0  0  0  0
  7 15  1  0  0  0  0
  8 12  1  0  0  0  0
  9 18  1  6  0  0  0
 10  7  1  0  0  0  0
 11  6  2  0  0  0  0
 12 20  1  0  0  0  0
 14 16  1  0  0  0  0
 15 13  1  6  0  0  0
 16 21  1  1  0  0  0
 16  1  1  0  0  0  0
 19  9  1  0  0  0  0
 19  8  1  1  0  0  0
 19 17  1  0  0  0  0
 20 27  1  6  0  0  0
 20 11  1  0  0  0  0
 21 22  1  6  0  0  0
 21 23  1  0  0  0  0
 23 24  1  0  0  0  0
 24 26  1  0  0  0  0
 25 24  1  0  0  0  0
 25 26  1  0  0  0  0
 27 30  1  0  0  0  0
 28 27  2  0  0  0  0
 30 29  2  0  0  0  0
M  END
>  <MODEL>
7

>  <REMARK>
 VINA RESULT:      -6.2      3.363      5.669
  Name = 
  5 active torsions:
  status: ('A' for Active; 'I' for Inactive)
    1  A    between atoms: C_2  and  C_14
    2  A    between atoms: C_2  and  C_22
    3  A    between atoms: C_7  and  C_26
    4  A    between atoms: C_7  and  C_30
    5  A    between atoms: C_14  and  C_20
                            x       y       z     vdW  Elec       q    Type
                         _______ _______ _______ _____ _____    ______ ____

>  <TORSDO>
F 5

$$$$
=
 OpenBabel11052412343D

 30 34  0  0  1  0  0  0  0  0999 V2000
  189.1440  177.1240  140.7190 C   0  0  1  0  0  3  0  0  0  0  0  0
  192.0170  177.5380  141.9940 C   0  0  0  0  0  2  0  0  0  0  0  0
  188.7910  177.0510  142.0130 C   0  0  2  0  0  3  0  0  0  0  0  0
  188.2680  177.8590  139.7220 C   0  0  0  0  0  2  0  0  0  0  0  0
  185.5250  179.0540  141.9760 C   0  0  0  0  0  2  0  0  0  0  0  0
  186.7230  178.2480  141.6570 C   0  0  0  0  0  0  0  0  0  0  0  0
  185.9140  178.8330  139.5410 C   0  0  0  0  0  2  0  0  0  0  0  0
  189.5500  177.6030  144.8970 O   0  0  0  0  0  0  0  0  0  0  0  0
  191.3070  178.1370  143.2160 C   0  0  2  0  0  3  0  0  0  0  0  0
  186.9330  178.1070  140.2680 N   0  0  0  0  0  0  0  0  0  0  0  0
  187.6160  177.7780  142.5310 C   0  0  0  0  0  0  0  0  0  0  0  0
  188.8580  178.6280  144.4090 O   0  0  0  0  0  0  0  0  0  0  0  0
  183.5960  178.6970  140.4460 C   0  0  0  0  0  1  0  0  0  0  0  0
  191.3750  177.9230  140.8020 O   0  0  0  0  0  0  0  0  0  0  0  0
  184.9410  179.3780  140.5990 C   0  0  1  0  0  3  0  0  0  0  0  0
  190.5890  176.8300  140.3910 C   0  0  2  0  0  3  0  0  0  0  0  0
  189.6240  176.3810  142.9080 O   0  0  0  0  0  0  0  0  0  0  0  0
  192.2590  178.5600  144.1420 O   0  0  0  0  0  1  0  0  0  0  0  0
  190.3840  177.0930  143.8730 C   0  0  2  0  0  3  0  0  0  0  0  0
  187.5830  178.1670  143.9810 C   0  0  2  0  0  3  0  0  0  0  0  0
  190.8140  176.5270  138.9090 C   0  0  2  0  0  3  0  0  0  0  0  0
  190.3240  175.2530  138.6070 O   0  0  0  0  0  1  0  0  0  0  0  0
  192.2980  176.5850  138.5790 C   0  0  0  0  0  2  0  0  0  0  0  0
  192.6620  175.4940  137.5900 C   0  0  0  0  0  3  0  0  0  0  0  0
  194.0750  175.0270  137.8690 C   0  0  0  0  0  2  0  0  0  0  0  0
  193.8040  175.9740  136.7190 C   0  0  0  0  0  2  0  0  0  0  0  0
  186.9240  177.1560  144.8800 C   0  0  0  0  0  0  0  0  0  0  0  0
  186.8060  175.9550  144.5120 O   0  0  0  0  0  0  0  0  0  0  0  0
  185.6010  178.5940  146.3460 C   0  0  0  0  0  2  0  0  0  0  0  0
  186.4510  177.5860  146.1990 C   0  0  0  0  0  3  0  0  0  0  0  0
  1  4  1  1  0  0  0
  1  3  1  0  0  0  0
  2  9  1  0  0  0  0
  3 11  1  1  0  0  0
  3 17  1  0  0  0  0
  4 10  1  0  0  0  0
  6  5  1  0  0  0  0
  6 11  2  0  0  0  0
  7 10  1  0  0  0  0
  7 15  1  0  0  0  0
  9 19  1  0  0  0  0
  9 18  1  1  0  0  0
 10  6  1  0  0  0  0
 11 20  1  0  0  0  0
 12  8  1  0  0  0  0
 14  2  1  0  0  0  0
 15 13  1  1  0  0  0
 15  5  1  0  0  0  0
 16 21  1  6  0  0  0
 16  1  1  0  0  0  0
 16 14  1  0  0  0  0
 19 17  1  6  0  0  0
 19  8  1  0  0  0  0
 20 12  1  0  0  0  0
 20 27  1  1  0  0  0
 21 22  1  1  0  0  0
 23 21  1  0  0  0  0
 24 25  1  0  0  0  0
 24 23  1  0  0  0  0
 26 24  1  0  0  0  0
 26 25  1  0  0  0  0
 27 30  1  0  0  0  0
 28 27  2  0  0  0  0
 30 29  2  0  0  0  0
M  END
>  <MODEL>
8

>  <REMARK>
 VINA RESULT:      -6.2      3.020      5.065
  Name = 
  5 active torsions:
  status: ('A' for Active; 'I' for Inactive)
    1  A    between atoms: C_2  and  C_14
    2  A    between atoms: C_2  and  C_22
    3  A    between atoms: C_7  and  C_26
    4  A    between atoms: C_7  and  C_30
    5  A    between atoms: C_14  and  C_20
                            x       y       z     vdW  Elec       q    Type
                         _______ _______ _______ _____ _____    ______ ____

>  <TORSDO>
F 5

$$$$
=
 OpenBabel11052412343D

 30 34  0  0  1  0  0  0  0  0999 V2000
  186.5660  178.3420  142.7280 C   0  0  1  0  0  3  0  0  0  0  0  0
  188.8820  176.5620  143.9580 C   0  0  0  0  0  2  0  0  0  0  0  0
  187.4290  178.4160  141.7010 C   0  0  2  0  0  3  0  0  0  0  0  0
  185.0780  178.1880  142.4740 C   0  0  0  0  0  2  0  0  0  0  0  0
  185.0340  178.0760  138.7300 C   0  0  0  0  0  2  0  0  0  0  0  0
  185.6760  178.3010  140.0430 C   0  0  0  0  0  0  0  0  0  0  0  0
  183.3960  178.3780  140.5610 C   0  0  0  0  0  2  0  0  0  0  0  0
  189.8870  177.2610  140.3500 O   0  0  0  0  0  0  0  0  0  0  0  0
  189.2710  176.2030  142.5180 C   0  0  2  0  0  3  0  0  0  0  0  0
  184.7410  178.4930  141.0830 N   0  0  0  0  0  0  0  0  0  0  0  0
  186.9820  178.2270  140.3080 C   0  0  0  0  0  0  0  0  0  0  0  0
  188.7900  176.7090  139.8390 O   0  0  0  0  0  0  0  0  0  0  0  0
  182.9760  179.4180  138.3360 C   0  0  0  0  0  1  0  0  0  0  0  0
  187.4840  176.6380  144.0980 O   0  0  0  0  0  0  0  0  0  0  0  0
  183.5400  178.2020  139.0420 C   0  0  1  0  0  3  0  0  0  0  0  0
  187.1460  178.0040  144.0810 C   0  0  2  0  0  3  0  0  0  0  0  0
  188.7910  178.5430  141.9670 O   0  0  0  0  0  0  0  0  0  0  0  0
  190.3340  175.3010  142.5370 O   0  0  0  0  0  1  0  0  0  0  0  0
  189.6860  177.4640  141.7370 C   0  0  2  0  0  3  0  0  0  0  0  0
  187.9680  177.7300  139.2890 C   0  0  2  0  0  3  0  0  0  0  0  0
  186.2030  178.3440  145.2360 C   0  0  2  0  0  3  0  0  0  0  0  0
  185.3800  179.4150  144.8760 O   0  0  0  0  0  1  0  0  0  0  0  0
  187.0020  178.7180  146.4750 C   0  0  0  0  0  2  0  0  0  0  0  0
  187.4560  177.4690  147.2060 C   0  0  0  0  0  3  0  0  0  0  0  0
  187.9470  177.8560  148.5860 C   0  0  0  0  0  2  0  0  0  0  0  0
  188.9420  177.5680  147.4820 C   0  0  0  0  0  2  0  0  0  0  0  0
  188.6960  178.8180  138.5470 C   0  0  0  0  0  0  0  0  0  0  0  0
  189.1610  179.8140  139.1670 O   0  0  0  0  0  0  0  0  0  0  0  0
  187.8600  178.4570  136.2800 C   0  0  0  0  0  2  0  0  0  0  0  0
  188.8790  178.6850  137.0990 C   0  0  0  0  0  3  0  0  0  0  0  0
  1  4  1  6  0  0  0
  1 16  1  0  0  0  0
  2 14  1  0  0  0  0
  3 11  1  1  0  0  0
  3 17  1  0  0  0  0
  3  1  1  0  0  0  0
  5 15  1  0  0  0  0
  5  6  1  0  0  0  0
  6 11  2  0  0  0  0
  6 10  1  0  0  0  0
  7 10  1  0  0  0  0
  9 18  1  1  0  0  0
  9  2  1  0  0  0  0
 10  4  1  0  0  0  0
 12  8  1  0  0  0  0
 15 13  1  6  0  0  0
 15  7  1  0  0  0  0
 16 14  1  0  0  0  0
 16 21  1  1  0  0  0
 19  8  1  6  0  0  0
 19 17  1  0  0  0  0
 19  9  1  0  0  0  0
 20 27  1  1  0  0  0
 20 12  1  0  0  0  0
 20 11  1  0  0  0  0
 21 22  1  6  0  0  0
 21 23  1  0  0  0  0
 23 24  1  0  0  0  0
 24 26  1  0  0  0  0
 24 25  1  0  0  0  0
 26 25  1  0  0  0  0
 27 28  2  0  0  0  0
 29 30  2  0  0  0  0
 30 27  1  0  0  0  0
M  END
>  <MODEL>
9

>  <REMARK>
 VINA RESULT:      -6.1      2.461      7.084
  Name = 
  5 active torsions:
  status: ('A' for Active; 'I' for Inactive)
    1  A    between atoms: C_2  and  C_14
    2  A    between atoms: C_2  and  C_22
    3  A    between atoms: C_7  and  C_26
    4  A    between atoms: C_7  and  C_30
    5  A    between atoms: C_14  and  C_20
                            x       y       z     vdW  Elec       q    Type
                         _______ _______ _______ _____ _____    ______ ____

>  <TORSDO>
F 5

$$$$
