=
 OpenBabel11052415213D

 37 42  0  0  1  0  0  0  0  0999 V2000
  182.5640  177.0650  138.7930 C   0  0  1  0  0  0  0  0  0  0  0  0
  181.5800  175.1500  137.1280 C   0  0  1  0  0  0  0  0  0  0  0  0
  184.9700  175.5690  135.7990 C   0  0  2  0  0  3  0  0  0  0  0  0
  181.3440  178.0280  139.0070 C   0  0  2  0  0  0  0  0  0  0  0  0
  183.4430  173.2940  136.8900 C   0  0  0  0  0  2  0  0  0  0  0  0
  185.2130  176.9450  136.4160 C   0  0  2  0  0  3  0  0  0  0  0  0
  181.8620  179.3880  139.4360 C   0  0  0  0  0  0  0  0  0  0  0  0
  179.9250  177.0540  137.1030 C   0  0  0  0  0  2  0  0  0  0  0  0
  183.5320  175.3290  135.3250 C   0  0  0  0  0  2  0  0  0  0  0  0
  186.7250  177.2520  136.3610 C   0  0  2  0  0  3  0  0  0  0  0  0
  185.3230  172.6920  138.2040 O   0  0  0  0  0  1  0  0  0  0  0  0
  180.5030  177.5160  140.0020 O   0  0  0  0  0  1  0  0  0  0  0  0
  182.1470  175.6070  138.5050 C   0  0  0  0  0  2  0  0  0  0  0  0
  186.9360  174.8820  137.2780 C   0  0  0  0  0  2  0  0  0  0  0  0
  180.5180  178.2920  137.7400 C   0  0  0  0  0  2  0  0  0  0  0  0
  184.7050  173.7790  137.5830 C   0  0  1  0  0  3  0  0  0  0  0  0
  181.0140  176.3310  136.3350 C   0  0  0  0  0  2  0  0  0  0  0  0
  183.2520  179.8220  139.0600 C   0  0  0  0  0  2  0  0  0  0  0  0
  184.7560  176.9780  137.7420 O   0  0  0  0  0  0  0  0  0  0  0  0
  185.6530  174.4130  136.5660 C   0  0  1  0  0  3  0  0  0  0  0  0
  183.5170  177.6280  137.7100 C   0  0  2  0  0  3  0  0  0  0  0  0
  182.6730  174.4570  136.2560 C   0  0  2  0  0  3  0  0  0  0  0  0
  183.6940  179.1660  137.7490 C   0  0  0  0  0  2  0  0  0  0  0  0
  181.1540  180.1450  140.0820 O   0  0  0  0  0  0  0  0  0  0  0  0
  183.3340  176.9560  140.1160 C   0  0  0  0  0  1  0  0  0  0  0  0
  187.6360  176.0180  136.5300 C   0  0  0  0  0  2  0  0  0  0  0  0
  186.8930  179.5780  136.8960 O   0  0  0  0  0  0  0  0  0  0  0  0
  187.1220  178.3910  137.2590 C   0  0  0  0  0  0  0  0  0  0  0  0
  189.2120  177.8380  138.5200 C   0  0  0  0  0  3  0  0  0  0  0  0
  187.8410  178.1360  138.5230 C   0  0  0  0  0  0  0  0  0  0  0  0
  187.1600  178.2090  139.7470 C   0  0  0  0  0  3  0  0  0  0  0  0
  186.9780  178.0780  142.4690 Cl  0  0  0  0  0  0  0  0  0  0  0  0
  189.2030  177.6860  140.9350 C   0  0  0  0  0  3  0  0  0  0  0  0
  187.8390  177.9840  140.9490 C   0  0  0  0  0  0  0  0  0  0  0  0
  189.8910  177.6130  139.7200 C   0  0  0  0  0  3  0  0  0  0  0  0
  180.2200  174.0020  138.6570 C   0  0  0  0  0  1  0  0  0  0  0  0
  180.4820  174.2580  137.2980 O   0  0  0  0  0  0  0  0  0  0  0  0
  1  4  1  0  0  0  0
  1 25  1  1  0  0  0
  2 37  1  1  0  0  0
  2 13  1  0  0  0  0
  3  9  1  1  0  0  0
  3  6  1  0  0  0  0
  3 20  1  0  0  0  0
  4  7  1  0  0  0  0
  4 12  1  1  0  0  0
  5 16  1  0  0  0  0
  6 19  1  1  0  0  0
  7 24  2  0  0  0  0
  8 15  1  0  0  0  0
 10  6  1  0  0  0  0
 10 26  1  0  0  0  0
 10 28  1  1  0  0  0
 13  1  1  0  0  0  0
 15  4  1  0  0  0  0
 16 11  1  6  0  0  0
 17  8  1  0  0  0  0
 17  2  1  0  0  0  0
 18  7  1  0  0  0  0
 20 14  1  1  0  0  0
 20 16  1  0  0  0  0
 21 19  1  0  0  0  0
 21 23  1  1  0  0  0
 21  1  1  0  0  0  0
 22  9  1  1  0  0  0
 22  5  1  0  0  0  0
 22  2  1  0  0  0  0
 23 18  1  0  0  0  0
 26 14  1  0  0  0  0
 27 28  2  0  0  0  0
 28 30  1  0  0  0  0
 29 30  2  0  0  0  0
 29 35  1  0  0  0  0
 30 31  1  0  0  0  0
 31 34  2  0  0  0  0
 33 34  1  0  0  0  0
 34 32  1  0  0  0  0
 35 33  2  0  0  0  0
 37 36  1  0  0  0  0
M  END
>  <MODEL>
1

>  <REMARK>
 VINA RESULT:      -6.3      0.000      0.000
  Name = 
  3 active torsions:
  status: ('A' for Active; 'I' for Inactive)
    1  A    between atoms: C_3  and  O_32
    2  A    between atoms: C_6  and  C_31
    3  A    between atoms: C_14  and  C_31
                            x       y       z     vdW  Elec       q    Type
                         _______ _______ _______ _____ _____    ______ ____

>  <TORSDO>
F 3

$$$$
=
 OpenBabel11052415213D

 37 42  0  0  1  0  0  0  0  0999 V2000
  186.6750  177.3450  137.0090 C   0  0  1  0  0  0  0  0  0  0  0  0
  185.2010  175.3350  135.9160 C   0  0  1  0  0  0  0  0  0  0  0  0
  183.0610  176.3370  138.7170 C   0  0  2  0  0  3  0  0  0  0  0  0
  188.1510  176.8270  136.8890 C   0  0  2  0  0  0  0  0  0  0  0  0
  182.7020  176.1790  135.7950 C   0  0  0  0  0  2  0  0  0  0  0  0
  184.1600  177.0410  139.5120 C   0  0  2  0  0  3  0  0  0  0  0  0
  189.0080  177.5440  137.9130 C   0  0  0  0  0  0  0  0  0  0  0  0
  187.5140  174.4090  136.3080 C   0  0  0  0  0  2  0  0  0  0  0  0
  183.5220  175.0830  137.9670 C   0  0  0  0  0  2  0  0  0  0  0  0
  183.5000  177.9210  140.5940 C   0  0  2  0  0  3  0  0  0  0  0  0
  181.7040  178.3310  135.8240 O   0  0  0  0  0  1  0  0  0  0  0  0
  188.6430  177.0890  135.6040 O   0  0  0  0  0  1  0  0  0  0  0  0
  185.7430  176.7950  135.9080 C   0  0  0  0  0  2  0  0  0  0  0  0
  182.0160  178.6680  138.6600 C   0  0  0  0  0  2  0  0  0  0  0  0
  188.3220  175.3310  137.1950 C   0  0  0  0  0  2  0  0  0  0  0  0
  182.6040  177.5150  136.5120 C   0  0  1  0  0  3  0  0  0  0  0  0
  186.0730  174.4190  136.7780 C   0  0  0  0  0  2  0  0  0  0  0  0
  188.3860  178.1030  139.1640 C   0  0  0  0  0  2  0  0  0  0  0  0
  184.9570  177.8240  138.6640 O   0  0  0  0  0  0  0  0  0  0  0  0
  182.1300  177.3050  137.9500 C   0  0  1  0  0  3  0  0  0  0  0  0
  186.1210  177.0820  138.4320 C   0  0  2  0  0  3  0  0  0  0  0  0
  183.7390  175.2650  136.4560 C   0  0  2  0  0  3  0  0  0  0  0  0
  187.1510  177.2940  139.5690 C   0  0  0  0  0  2  0  0  0  0  0  0
  190.2100  177.6690  137.7370 O   0  0  0  0  0  0  0  0  0  0  0  0
  186.6700  178.8580  136.7520 C   0  0  0  0  0  1  0  0  0  0  0  0
  182.1520  178.5470  140.1790 C   0  0  0  0  0  2  0  0  0  0  0  0
  184.9290  179.8350  140.4460 O   0  0  0  0  0  0  0  0  0  0  0  0
  184.4480  178.9300  141.1830 C   0  0  0  0  0  0  0  0  0  0  0  0
  184.0920  179.3810  143.6180 C   0  0  0  0  0  3  0  0  0  0  0  0
  184.8740  178.8290  142.5920 C   0  0  0  0  0  0  0  0  0  0  0  0
  186.0620  178.1610  142.9230 C   0  0  0  0  0  3  0  0  0  0  0  0
  187.9470  177.2110  144.6560 Cl  0  0  0  0  0  0  0  0  0  0  0  0
  185.6790  178.6020  145.2720 C   0  0  0  0  0  3  0  0  0  0  0  0
  186.4630  178.0490  144.2580 C   0  0  0  0  0  0  0  0  0  0  0  0
  184.4930  179.2690  144.9520 C   0  0  0  0  0  3  0  0  0  0  0  0
  184.7580  173.4480  134.5940 C   0  0  0  0  0  1  0  0  0  0  0  0
  185.2460  174.7670  134.6090 O   0  0  0  0  0  0  0  0  0  0  0  0
  1 25  1  6  0  0  0
  1 21  1  0  0  0  0
  2 37  1  6  0  0  0
  2 22  1  0  0  0  0
  2 17  1  0  0  0  0
  3  9  1  6  0  0  0
  3  6  1  0  0  0  0
  4 12  1  6  0  0  0
  4  1  1  0  0  0  0
  4 15  1  0  0  0  0
  4  7  1  0  0  0  0
  5 16  1  0  0  0  0
  6 19  1  6  0  0  0
  6 10  1  0  0  0  0
  7 18  1  0  0  0  0
  8 17  1  0  0  0  0
  8 15  1  0  0  0  0
 10 28  1  6  0  0  0
 13  2  1  0  0  0  0
 13  1  1  0  0  0  0
 14 26  1  0  0  0  0
 16 11  1  6  0  0  0
 16 20  1  0  0  0  0
 18 23  1  0  0  0  0
 20 14  1  1  0  0  0
 20  3  1  0  0  0  0
 21 19  1  0  0  0  0
 21 23  1  1  0  0  0
 22  5  1  1  0  0  0
 22  9  1  0  0  0  0
 24  7  2  0  0  0  0
 26 10  1  0  0  0  0
 27 28  2  0  0  0  0
 28 30  1  0  0  0  0
 29 35  1  0  0  0  0
 30 31  1  0  0  0  0
 30 29  2  0  0  0  0
 31 34  2  0  0  0  0
 34 32  1  0  0  0  0
 34 33  1  0  0  0  0
 35 33  2  0  0  0  0
 36 37  1  0  0  0  0
M  END
>  <MODEL>
2

>  <REMARK>
 VINA RESULT:      -6.0      2.437      5.589
  Name = 
  3 active torsions:
  status: ('A' for Active; 'I' for Inactive)
    1  A    between atoms: C_3  and  O_32
    2  A    between atoms: C_6  and  C_31
    3  A    between atoms: C_14  and  C_31
                            x       y       z     vdW  Elec       q    Type
                         _______ _______ _______ _____ _____    ______ ____

>  <TORSDO>
F 3

$$$$
=
 OpenBabel11052415213D

 37 42  0  0  1  0  0  0  0  0999 V2000
  186.4640  176.0480  135.9320 C   0  0  1  0  0  0  0  0  0  0  0  0
  186.0020  173.3790  135.6650 C   0  0  1  0  0  0  0  0  0  0  0  0
  183.3210  174.3330  137.9740 C   0  0  2  0  0  3  0  0  0  0  0  0
  188.0290  176.1480  135.9690 C   0  0  2  0  0  0  0  0  0  0  0  0
  183.4030  173.0700  135.3110 C   0  0  0  0  0  2  0  0  0  0  0  0
  183.9680  175.6360  138.4390 C   0  0  2  0  0  3  0  0  0  0  0  0
  188.4220  177.4460  136.6480 C   0  0  0  0  0  0  0  0  0  0  0  0
  188.4280  173.6350  136.3060 C   0  0  0  0  0  2  0  0  0  0  0  0
  184.3080  173.1900  137.7110 C   0  0  0  0  0  2  0  0  0  0  0  0
  182.8990  176.4930  139.1500 C   0  0  2  0  0  3  0  0  0  0  0  0
  181.6710  174.5230  134.5940 O   0  0  0  0  0  1  0  0  0  0  0  0
  188.5370  176.1340  134.6640 O   0  0  0  0  0  1  0  0  0  0  0  0
  185.9480  174.8380  135.1230 C   0  0  0  0  0  2  0  0  0  0  0  0
  181.4880  175.8910  137.1140 C   0  0  0  0  0  2  0  0  0  0  0  0
  188.7140  175.0420  136.7850 C   0  0  0  0  0  2  0  0  0  0  0  0
  182.7220  174.4150  135.5060 C   0  0  1  0  0  3  0  0  0  0  0  0
  187.0440  173.2310  136.7760 C   0  0  0  0  0  2  0  0  0  0  0  0
  187.4890  178.0980  137.6320 C   0  0  0  0  0  2  0  0  0  0  0  0
  184.5060  176.3340  137.3470 O   0  0  0  0  0  0  0  0  0  0  0  0
  182.1930  174.5320  136.9350 C   0  0  1  0  0  3  0  0  0  0  0  0
  185.8830  176.0840  137.3680 C   0  0  2  0  0  3  0  0  0  0  0  0
  184.6200  172.9230  136.2290 C   0  0  2  0  0  3  0  0  0  0  0  0
  186.6120  177.0550  138.3280 C   0  0  0  0  0  2  0  0  0  0  0  0
  189.4990  177.9690  136.4100 O   0  0  0  0  0  0  0  0  0  0  0  0
  185.9190  177.2510  135.1510 C   0  0  0  0  0  1  0  0  0  0  0  0
  181.4760  176.3530  138.5720 C   0  0  0  0  0  2  0  0  0  0  0  0
  183.2140  178.7220  138.3410 O   0  0  0  0  0  0  0  0  0  0  0  0
  183.3170  177.9280  139.3160 C   0  0  0  0  0  0  0  0  0  0  0  0
  185.2160  178.9130  140.6140 C   0  0  0  0  0  3  0  0  0  0  0  0
  183.9120  178.3960  140.5830 C   0  0  0  0  0  0  0  0  0  0  0  0
  183.1680  178.3460  141.7720 C   0  0  0  0  0  3  0  0  0  0  0  0
  182.7830  178.7360  144.4470 Cl  0  0  0  0  0  0  0  0  0  0  0  0
  185.0210  179.3140  142.9930 C   0  0  0  0  0  3  0  0  0  0  0  0
  183.7220  178.8030  142.9720 C   0  0  0  0  0  0  0  0  0  0  0  0
  185.7690  179.3690  141.8140 C   0  0  0  0  0  3  0  0  0  0  0  0
  186.3190  171.1320  135.0670 C   0  0  0  0  0  1  0  0  0  0  0  0
  186.4140  172.4710  134.6470 O   0  0  0  0  0  0  0  0  0  0  0  0
  1 25  1  6  0  0  0
  1  4  1  0  0  0  0
  1 21  1  0  0  0  0
  2 37  1  6  0  0  0
  2 22  1  0  0  0  0
  2 17  1  0  0  0  0
  3  9  1  6  0  0  0
  3  6  1  0  0  0  0
  4 12  1  6  0  0  0
  4  7  1  0  0  0  0
  4 15  1  0  0  0  0
  5 16  1  0  0  0  0
  6 19  1  6  0  0  0
  6 10  1  0  0  0  0
  7 18  1  0  0  0  0
  8 17  1  0  0  0  0
  8 15  1  0  0  0  0
 10 28  1  6  0  0  0
 13  2  1  0  0  0  0
 13  1  1  0  0  0  0
 14 26  1  0  0  0  0
 16 11  1  6  0  0  0
 16 20  1  0  0  0  0
 18 23  1  0  0  0  0
 19 21  1  0  0  0  0
 20 14  1  6  0  0  0
 20  3  1  0  0  0  0
 21 23  1  1  0  0  0
 22  5  1  6  0  0  0
 22  9  1  0  0  0  0
 24  7  2  0  0  0  0
 26 10  1  0  0  0  0
 27 28  2  0  0  0  0
 28 30  1  0  0  0  0
 29 35  1  0  0  0  0
 30 29  2  0  0  0  0
 30 31  1  0  0  0  0
 31 34  2  0  0  0  0
 34 33  1  0  0  0  0
 34 32  1  0  0  0  0
 35 33  2  0  0  0  0
 37 36  1  0  0  0  0
M  END
>  <MODEL>
3

>  <REMARK>
 VINA RESULT:      -6.0      2.207      5.530
  Name = 
  3 active torsions:
  status: ('A' for Active; 'I' for Inactive)
    1  A    between atoms: C_3  and  O_32
    2  A    between atoms: C_6  and  C_31
    3  A    between atoms: C_14  and  C_31
                            x       y       z     vdW  Elec       q    Type
                         _______ _______ _______ _____ _____    ______ ____

>  <TORSDO>
F 3

$$$$
=
 OpenBabel11052415213D

 37 42  0  0  1  0  0  0  0  0999 V2000
  182.7920  177.6310  138.8530 C   0  0  1  0  0  0  0  0  0  0  0  0
  180.7140  178.1390  137.1710 C   0  0  1  0  0  0  0  0  0  0  0  0
  182.8460  176.0470  135.0480 C   0  0  2  0  0  3  0  0  0  0  0  0
  182.9950  178.9900  139.6080 C   0  0  2  0  0  0  0  0  0  0  0  0
  180.0690  175.8520  136.0180 C   0  0  0  0  0  2  0  0  0  0  0  0
  184.1290  176.2650  135.8480 C   0  0  2  0  0  3  0  0  0  0  0  0
  184.4100  179.0440  140.1510 C   0  0  0  0  0  0  0  0  0  0  0  0
  181.5160  180.3710  138.0290 C   0  0  0  0  0  2  0  0  0  0  0  0
  181.9310  177.2740  134.9660 C   0  0  0  0  0  2  0  0  0  0  0  0
  185.1610  175.1970  135.4290 C   0  0  2  0  0  3  0  0  0  0  0  0
  180.4480  173.5790  136.5790 O   0  0  0  0  0  1  0  0  0  0  0  0
  182.0860  179.0850  140.6700 O   0  0  0  0  0  1  0  0  0  0  0  0
  181.3370  177.3990  138.3920 C   0  0  0  0  0  2  0  0  0  0  0  0
  183.1890  173.6060  135.7190 C   0  0  0  0  0  2  0  0  0  0  0  0
  182.8560  180.2340  138.7180 C   0  0  0  0  0  2  0  0  0  0  0  0
  181.0970  174.8030  136.4080 C   0  0  1  0  0  3  0  0  0  0  0  0
  181.4770  179.4250  136.8460 C   0  0  0  0  0  2  0  0  0  0  0  0
  185.5040  178.2480  139.4940 C   0  0  0  0  0  2  0  0  0  0  0  0
  183.8710  176.1800  137.2250 O   0  0  0  0  0  0  0  0  0  0  0  0
  182.1640  174.6860  135.3210 C   0  0  1  0  0  3  0  0  0  0  0  0
  183.8050  177.5000  137.6880 C   0  0  2  0  0  3  0  0  0  0  0  0
  180.7060  177.2400  135.8960 C   0  0  2  0  0  3  0  0  0  0  0  0
  185.2170  178.0500  138.0030 C   0  0  0  0  0  2  0  0  0  0  0  0
  184.6770  179.7390  141.1190 O   0  0  0  0  0  0  0  0  0  0  0  0
  183.0330  176.4850  139.8450 C   0  0  0  0  0  1  0  0  0  0  0  0
  184.5530  173.8260  135.0620 C   0  0  0  0  0  2  0  0  0  0  0  0
  186.3220  174.1310  137.2290 O   0  0  0  0  0  0  0  0  0  0  0  0
  186.3060  175.0800  136.3970 C   0  0  0  0  0  0  0  0  0  0  0  0
  187.6280  176.9030  135.3060 C   0  0  0  0  0  3  0  0  0  0  0  0
  187.3710  176.1010  136.4290 C   0  0  0  0  0  0  0  0  0  0  0  0
  188.1280  176.2940  137.5940 C   0  0  0  0  0  3  0  0  0  0  0  0
  190.0630  177.5020  139.0950 Cl  0  0  0  0  0  0  0  0  0  0  0  0
  189.3780  178.0620  136.5110 C   0  0  0  0  0  3  0  0  0  0  0  0
  189.1280  177.2710  137.6340 C   0  0  0  0  0  0  0  0  0  0  0  0
  188.6280  177.8780  135.3460 C   0  0  0  0  0  3  0  0  0  0  0  0
  178.9330  178.0780  138.6980 C   0  0  0  0  0  1  0  0  0  0  0  0
  179.3820  178.5600  137.4550 O   0  0  0  0  0  0  0  0  0  0  0  0
  1  4  1  0  0  0  0
  1 25  1  1  0  0  0
  2 37  1  1  0  0  0
  2 13  1  0  0  0  0
  3  9  1  1  0  0  0
  3 20  1  0  0  0  0
  3  6  1  0  0  0  0
  4  7  1  0  0  0  0
  4 12  1  1  0  0  0
  5 16  1  0  0  0  0
  6 19  1  1  0  0  0
  7 24  2  0  0  0  0
  8 15  1  0  0  0  0
 10  6  1  0  0  0  0
 10 28  1  1  0  0  0
 13  1  1  0  0  0  0
 15  4  1  0  0  0  0
 16 11  1  6  0  0  0
 17  2  1  0  0  0  0
 17  8  1  0  0  0  0
 18  7  1  0  0  0  0
 19 21  1  0  0  0  0
 20 14  1  1  0  0  0
 20 16  1  0  0  0  0
 21 23  1  1  0  0  0
 21  1  1  0  0  0  0
 22  9  1  1  0  0  0
 22  5  1  0  0  0  0
 22  2  1  0  0  0  0
 23 18  1  0  0  0  0
 26 10  1  0  0  0  0
 26 14  1  0  0  0  0
 28 30  1  0  0  0  0
 28 27  2  0  0  0  0
 29 35  2  0  0  0  0
 29 30  1  0  0  0  0
 30 31  2  0  0  0  0
 31 34  1  0  0  0  0
 33 34  2  0  0  0  0
 34 32  1  0  0  0  0
 35 33  1  0  0  0  0
 37 36  1  0  0  0  0
M  END
>  <MODEL>
4

>  <REMARK>
 VINA RESULT:      -5.8      1.857      3.378
  Name = 
  3 active torsions:
  status: ('A' for Active; 'I' for Inactive)
    1  A    between atoms: C_3  and  O_32
    2  A    between atoms: C_6  and  C_31
    3  A    between atoms: C_14  and  C_31
                            x       y       z     vdW  Elec       q    Type
                         _______ _______ _______ _____ _____    ______ ____

>  <TORSDO>
F 3

$$$$
=
 OpenBabel11052415213D

 37 42  0  0  1  0  0  0  0  0999 V2000
  182.6020  177.1130  138.2380 C   0  0  1  0  0  0  0  0  0  0  0  0
  182.2210  176.5120  135.6100 C   0  0  1  0  0  0  0  0  0  0  0  0
  185.8710  176.8170  135.7450 C   0  0  2  0  0  3  0  0  0  0  0  0
  181.4090  178.0760  138.5710 C   0  0  2  0  0  0  0  0  0  0  0  0
  184.0030  174.6720  134.9670 C   0  0  0  0  0  2  0  0  0  0  0  0
  185.9150  177.6290  137.0380 C   0  0  2  0  0  3  0  0  0  0  0  0
  181.7750  178.9100  139.7840 C   0  0  0  0  0  0  0  0  0  0  0  0
  180.7290  178.4780  136.1290 C   0  0  0  0  0  2  0  0  0  0  0  0
  184.6870  177.1430  134.8280 C   0  0  0  0  0  2  0  0  0  0  0  0
  187.3560  177.6020  137.5900 C   0  0  2  0  0  3  0  0  0  0  0  0
  185.2830  173.1290  136.2340 O   0  0  0  0  0  1  0  0  0  0  0  0
  180.2580  177.3290  138.8510 O   0  0  0  0  0  1  0  0  0  0  0  0
  182.2780  176.1060  137.1130 C   0  0  0  0  0  2  0  0  0  0  0  0
  187.1720  175.1030  137.1220 C   0  0  0  0  0  2  0  0  0  0  0  0
  181.0890  179.0920  137.4640 C   0  0  0  0  0  2  0  0  0  0  0  0
  184.9510  174.4810  136.1400 C   0  0  1  0  0  3  0  0  0  0  0  0
  182.0000  178.0180  135.4450 C   0  0  0  0  0  2  0  0  0  0  0  0
  183.2190  179.1740  140.1130 C   0  0  0  0  0  2  0  0  0  0  0  0
  185.0210  177.1000  137.9810 O   0  0  0  0  0  0  0  0  0  0  0  0
  186.2120  175.3200  135.9370 C   0  0  1  0  0  3  0  0  0  0  0  0
  183.8890  177.9240  137.9460 C   0  0  2  0  0  3  0  0  0  0  0  0
  183.5340  176.1270  134.8600 C   0  0  2  0  0  3  0  0  0  0  0  0
  184.0790  179.1690  138.8460 C   0  0  0  0  0  2  0  0  0  0  0  0
  180.9040  179.3800  140.4990 O   0  0  0  0  0  0  0  0  0  0  0  0
  182.8530  176.2130  139.4540 C   0  0  0  0  0  1  0  0  0  0  0  0
  188.1180  176.2860  137.3300 C   0  0  0  0  0  2  0  0  0  0  0  0
  186.5330  178.7820  139.5020 O   0  0  0  0  0  0  0  0  0  0  0  0
  187.4390  178.0440  139.0250 C   0  0  0  0  0  0  0  0  0  0  0  0
  189.9020  177.7100  139.3210 C   0  0  0  0  0  3  0  0  0  0  0  0
  188.6040  177.6830  139.8560 C   0  0  0  0  0  0  0  0  0  0  0  0
  188.4270  177.3260  141.2010 C   0  0  0  0  0  3  0  0  0  0  0  0
  189.2940  176.5550  143.6730 Cl  0  0  0  0  0  0  0  0  0  0  0  0
  190.8160  177.0260  141.4560 C   0  0  0  0  0  3  0  0  0  0  0  0
  189.5290  176.9980  141.9970 C   0  0  0  0  0  0  0  0  0  0  0  0
  191.0030  177.3820  140.1170 C   0  0  0  0  0  3  0  0  0  0  0  0
  180.4710  174.9590  135.7830 C   0  0  0  0  0  1  0  0  0  0  0  0
  181.1120  175.9010  134.9580 O   0  0  0  0  0  0  0  0  0  0  0  0
  1  4  1  0  0  0  0
  1 25  1  1  0  0  0
  2 37  1  6  0  0  0
  2 13  1  0  0  0  0
  3  9  1  1  0  0  0
  3 20  1  0  0  0  0
  3  6  1  0  0  0  0
  4 12  1  1  0  0  0
  4  7  1  0  0  0  0
  5 16  1  0  0  0  0
  6 10  1  0  0  0  0
  6 19  1  1  0  0  0
  7 18  1  0  0  0  0
  7 24  2  0  0  0  0
  8 15  1  0  0  0  0
 10 28  1  1  0  0  0
 13  1  1  0  0  0  0
 14 26  1  0  0  0  0
 15  4  1  0  0  0  0
 16 11  1  6  0  0  0
 17  2  1  0  0  0  0
 17  8  1  0  0  0  0
 20 16  1  0  0  0  0
 20 14  1  1  0  0  0
 21 19  1  0  0  0  0
 21  1  1  0  0  0  0
 21 23  1  1  0  0  0
 22  9  1  1  0  0  0
 22  5  1  0  0  0  0
 22  2  1  0  0  0  0
 23 18  1  0  0  0  0
 26 10  1  0  0  0  0
 28 27  2  0  0  0  0
 28 30  1  0  0  0  0
 29 30  2  0  0  0  0
 29 35  1  0  0  0  0
 30 31  1  0  0  0  0
 31 34  2  0  0  0  0
 33 34  1  0  0  0  0
 34 32  1  0  0  0  0
 35 33  2  0  0  0  0
 37 36  1  0  0  0  0
M  END
>  <MODEL>
5

>  <REMARK>
 VINA RESULT:      -5.7      1.441      1.730
  Name = 
  3 active torsions:
  status: ('A' for Active; 'I' for Inactive)
    1  A    between atoms: C_3  and  O_32
    2  A    between atoms: C_6  and  C_31
    3  A    between atoms: C_14  and  C_31
                            x       y       z     vdW  Elec       q    Type
                         _______ _______ _______ _____ _____    ______ ____

>  <TORSDO>
F 3

$$$$
=
 OpenBabel11052415213D

 37 42  0  0  1  0  0  0  0  0999 V2000
  183.3430  175.9440  136.5220 C   0  0  1  0  0  0  0  0  0  0  0  0
  181.0920  174.5040  137.0410 C   0  0  1  0  0  0  0  0  0  0  0  0
  181.1450  176.7900  139.9050 C   0  0  2  0  0  3  0  0  0  0  0  0
  184.3410  174.8740  135.9560 C   0  0  2  0  0  0  0  0  0  0  0  0
  179.2150  176.2220  137.7480 C   0  0  0  0  0  2  0  0  0  0  0  0
  182.6260  177.1450  139.7980 C   0  0  2  0  0  3  0  0  0  0  0  0
  185.7590  175.3810  136.1380 C   0  0  0  0  0  0  0  0  0  0  0  0
  182.9490  172.8380  136.6680 C   0  0  0  0  0  2  0  0  0  0  0  0
  180.8110  175.3360  139.5550 C   0  0  0  0  0  2  0  0  0  0  0  0
  182.8960  178.4060  140.6450 C   0  0  2  0  0  3  0  0  0  0  0  0
  178.9310  178.5530  137.4190 O   0  0  0  0  0  1  0  0  0  0  0  0
  184.0930  174.6660  134.5940 O   0  0  0  0  0  1  0  0  0  0  0  0
  181.8620  175.6020  136.2490 C   0  0  0  0  0  2  0  0  0  0  0  0
  180.8160  179.2850  139.4600 C   0  0  0  0  0  2  0  0  0  0  0  0
  184.2990  173.5220  136.6840 C   0  0  0  0  0  2  0  0  0  0  0  0
  179.8410  177.6000  137.8790 C   0  0  1  0  0  3  0  0  0  0  0  0
  182.0520  173.5050  137.6920 C   0  0  0  0  0  2  0  0  0  0  0  0
  186.0760  176.3700  137.2260 C   0  0  0  0  0  2  0  0  0  0  0  0
  182.9830  177.3710  138.4590 O   0  0  0  0  0  0  0  0  0  0  0  0
  180.2000  177.8770  139.3390 C   0  0  1  0  0  3  0  0  0  0  0  0
  183.6180  176.2010  138.0250 C   0  0  2  0  0  3  0  0  0  0  0  0
  180.1980  175.1210  138.1610 C   0  0  2  0  0  3  0  0  0  0  0  0
  185.1180  176.2070  138.4090 C   0  0  0  0  0  2  0  0  0  0  0  0
  186.6560  174.9870  135.4100 O   0  0  0  0  0  0  0  0  0  0  0  0
  183.5490  177.2550  135.7530 C   0  0  0  0  0  1  0  0  0  0  0  0
  181.7300  179.4170  140.6790 C   0  0  0  0  0  2  0  0  0  0  0  0
  184.2840  179.8810  139.3720 O   0  0  0  0  0  0  0  0  0  0  0  0
  184.2140  179.0550  140.3240 C   0  0  0  0  0  0  0  0  0  0  0  0
  186.6900  178.7130  140.4350 C   0  0  0  0  0  3  0  0  0  0  0  0
  185.4360  178.6810  141.0630 C   0  0  0  0  0  0  0  0  0  0  0  0
  185.3570  178.3070  142.4130 C   0  0  0  0  0  3  0  0  0  0  0  0
  186.4000  177.5030  144.8050 Cl  0  0  0  0  0  0  0  0  0  0  0  0
  187.7570  177.9990  142.4880 C   0  0  0  0  0  3  0  0  0  0  0  0
  186.5130  177.9670  143.1220 C   0  0  0  0  0  0  0  0  0  0  0  0
  187.8460  178.3720  141.1430 C   0  0  0  0  0  3  0  0  0  0  0  0
  179.4850  172.8010  136.8780 C   0  0  0  0  0  1  0  0  0  0  0  0
  180.2790  173.7220  136.1700 O   0  0  0  0  0  0  0  0  0  0  0  0
  1 25  1  6  0  0  0
  1 21  1  0  0  0  0
  2 37  1  6  0  0  0
  2 17  1  0  0  0  0
  2 22  1  0  0  0  0
  3  9  1  6  0  0  0
  4 12  1  6  0  0  0
  4  7  1  0  0  0  0
  4  1  1  0  0  0  0
  4 15  1  0  0  0  0
  5 16  1  0  0  0  0
  6 19  1  6  0  0  0
  6  3  1  0  0  0  0
  6 10  1  0  0  0  0
  7 18  1  0  0  0  0
  8 15  1  0  0  0  0
  8 17  1  0  0  0  0
 10 28  1  6  0  0  0
 10 26  1  0  0  0  0
 13  1  1  0  0  0  0
 13  2  1  0  0  0  0
 14 26  1  0  0  0  0
 16 11  1  1  0  0  0
 16 20  1  0  0  0  0
 18 23  1  0  0  0  0
 20 14  1  6  0  0  0
 20  3  1  0  0  0  0
 21 23  1  6  0  0  0
 21 19  1  0  0  0  0
 22  5  1  6  0  0  0
 22  9  1  0  0  0  0
 24  7  2  0  0  0  0
 27 28  2  0  0  0  0
 28 30  1  0  0  0  0
 29 30  2  0  0  0  0
 29 35  1  0  0  0  0
 30 31  1  0  0  0  0
 31 34  2  0  0  0  0
 33 34  1  0  0  0  0
 34 32  1  0  0  0  0
 35 33  2  0  0  0  0
 37 36  1  0  0  0  0
M  END
>  <MODEL>
6

>  <REMARK>
 VINA RESULT:      -5.7      1.874      4.879
  Name = 
  3 active torsions:
  status: ('A' for Active; 'I' for Inactive)
    1  A    between atoms: C_3  and  O_32
    2  A    between atoms: C_6  and  C_31
    3  A    between atoms: C_14  and  C_31
                            x       y       z     vdW  Elec       q    Type
                         _______ _______ _______ _____ _____    ______ ____

>  <TORSDO>
F 3

$$$$
=
 OpenBabel11052415213D

 37 42  0  0  1  0  0  0  0  0999 V2000
  183.9210  176.3180  136.2230 C   0  0  1  0  0  0  0  0  0  0  0  0
  183.1770  173.7390  135.7680 C   0  0  1  0  0  0  0  0  0  0  0  0
  180.7410  174.7390  138.3170 C   0  0  2  0  0  3  0  0  0  0  0  0
  185.4880  176.2640  136.1660 C   0  0  2  0  0  0  0  0  0  0  0  0
  180.5450  173.7150  135.5590 C   0  0  0  0  0  2  0  0  0  0  0  0
  181.5420  175.9280  138.8440 C   0  0  2  0  0  3  0  0  0  0  0  0
  186.0480  177.4520  136.9220 C   0  0  0  0  0  0  0  0  0  0  0  0
  185.6490  173.7040  136.2680 C   0  0  0  0  0  2  0  0  0  0  0  0
  181.5910  173.5350  137.8970 C   0  0  0  0  0  2  0  0  0  0  0  0
  180.6080  176.8170  139.6920 C   0  0  2  0  0  3  0  0  0  0  0  0
  178.9310  175.3850  135.0780 O   0  0  0  0  0  1  0  0  0  0  0  0
  185.9170  176.3160  134.8340 O   0  0  0  0  0  1  0  0  0  0  0  0
  183.2400  175.2390  135.3520 C   0  0  0  0  0  2  0  0  0  0  0  0
  179.0300  176.5360  137.7090 C   0  0  0  0  0  2  0  0  0  0  0  0
  186.1020  175.0290  136.8410 C   0  0  0  0  0  2  0  0  0  0  0  0
  180.0150  175.0960  135.9080 C   0  0  1  0  0  3  0  0  0  0  0  0
  184.2600  173.3950  136.7920 C   0  0  0  0  0  2  0  0  0  0  0  0
  185.2430  178.1020  138.0150 C   0  0  0  0  0  2  0  0  0  0  0  0
  182.0860  176.6650  137.7810 O   0  0  0  0  0  0  0  0  0  0  0  0
  179.5820  175.1370  137.3730 C   0  0  1  0  0  3  0  0  0  0  0  0
  183.4290  176.2820  137.6910 C   0  0  2  0  0  3  0  0  0  0  0  0
  181.7910  173.3700  136.3810 C   0  0  2  0  0  3  0  0  0  0  0  0
  184.3060  177.0900  138.6790 C   0  0  0  0  0  2  0  0  0  0  0  0
  187.1570  177.8880  136.6580 O   0  0  0  0  0  0  0  0  0  0  0  0
  183.4570  177.6320  135.5810 C   0  0  0  0  0  1  0  0  0  0  0  0
  179.1470  176.8670  139.1980 C   0  0  0  0  0  2  0  0  0  0  0  0
  181.0870  179.0730  139.0550 O   0  0  0  0  0  0  0  0  0  0  0  0
  181.1780  178.1850  139.9480 C   0  0  0  0  0  0  0  0  0  0  0  0
  181.2140  178.9300  142.3370 C   0  0  0  0  0  3  0  0  0  0  0  0
  181.9020  178.4760  141.2010 C   0  0  0  0  0  0  0  0  0  0  0  0
  183.2890  178.2820  141.2740 C   0  0  0  0  0  3  0  0  0  0  0  0
  185.7090  178.2940  142.5400 Cl  0  0  0  0  0  0  0  0  0  0  0  0
  183.2860  178.9950  143.5870 C   0  0  0  0  0  3  0  0  0  0  0  0
  183.9780  178.5410  142.4630 C   0  0  0  0  0  0  0  0  0  0  0  0
  181.9030  179.1900  143.5240 C   0  0  0  0  0  3  0  0  0  0  0  0
  183.2300  171.5340  134.9680 C   0  0  0  0  0  1  0  0  0  0  0  0
  183.4370  172.8900  134.6530 O   0  0  0  0  0  0  0  0  0  0  0  0
  1 25  1  6  0  0  0
  1 21  1  0  0  0  0
  2 37  1  6  0  0  0
  2 22  1  0  0  0  0
  2 17  1  0  0  0  0
  3  9  1  6  0  0  0
  3  6  1  0  0  0  0
  4 12  1  6  0  0  0
  4  1  1  0  0  0  0
  4 15  1  0  0  0  0
  4  7  1  0  0  0  0
  5 16  1  0  0  0  0
  6 19  1  6  0  0  0
  6 10  1  0  0  0  0
  7 18  1  0  0  0  0
  8 17  1  0  0  0  0
  8 15  1  0  0  0  0
 10 28  1  6  0  0  0
 13  2  1  0  0  0  0
 13  1  1  0  0  0  0
 14 26  1  0  0  0  0
 16 11  1  6  0  0  0
 16 20  1  0  0  0  0
 18 23  1  0  0  0  0
 20 14  1  1  0  0  0
 20  3  1  0  0  0  0
 21 19  1  0  0  0  0
 21 23  1  1  0  0  0
 22  5  1  6  0  0  0
 22  9  1  0  0  0  0
 24  7  2  0  0  0  0
 26 10  1  0  0  0  0
 27 28  2  0  0  0  0
 28 30  1  0  0  0  0
 29 35  1  0  0  0  0
 30 31  1  0  0  0  0
 30 29  2  0  0  0  0
 31 34  2  0  0  0  0
 34 32  1  0  0  0  0
 34 33  1  0  0  0  0
 35 33  2  0  0  0  0
 37 36  1  0  0  0  0
M  END
>  <MODEL>
7

>  <REMARK>
 VINA RESULT:      -5.4      2.188      5.555
  Name = 
  3 active torsions:
  status: ('A' for Active; 'I' for Inactive)
    1  A    between atoms: C_3  and  O_32
    2  A    between atoms: C_6  and  C_31
    3  A    between atoms: C_14  and  C_31
                            x       y       z     vdW  Elec       q    Type
                         _______ _______ _______ _____ _____    ______ ____

>  <TORSDO>
F 3

$$$$
=
 OpenBabel11052415213D

 37 42  0  0  1  0  0  0  0  0999 V2000
  183.7690  178.5270  138.6910 C   0  0  1  0  0  0  0  0  0  0  0  0
  181.6960  176.9670  137.8680 C   0  0  1  0  0  0  0  0  0  0  0  0
  180.8000  177.5410  141.3750 C   0  0  2  0  0  3  0  0  0  0  0  0
  185.0110  177.9010  137.9670 C   0  0  2  0  0  0  0  0  0  0  0  0
  179.4800  178.0670  138.7910 C   0  0  0  0  0  2  0  0  0  0  0  0
  182.2020  177.9370  141.8340 C   0  0  2  0  0  3  0  0  0  0  0  0
  186.2670  178.2850  138.7250 C   0  0  0  0  0  0  0  0  0  0  0  0
  183.8150  175.7480  137.2460 C   0  0  0  0  0  2  0  0  0  0  0  0
  180.7670  176.4410  140.3070 C   0  0  0  0  0  2  0  0  0  0  0  0
  182.0950  178.6200  143.2140 C   0  0  2  0  0  3  0  0  0  0  0  0
  178.9320  180.2490  139.5410 O   0  0  0  0  0  1  0  0  0  0  0  0
  185.0930  178.3880  136.6560 O   0  0  0  0  0  1  0  0  0  0  0  0
  182.4470  178.3310  137.9180 C   0  0  0  0  0  2  0  0  0  0  0  0
  180.2100  179.9200  142.0930 C   0  0  0  0  0  2  0  0  0  0  0  0
  185.0150  176.3660  137.9310 C   0  0  0  0  0  2  0  0  0  0  0  0
  179.8540  179.2150  139.7130 C   0  0  1  0  0  3  0  0  0  0  0  0
  182.6320  175.8000  138.1920 C   0  0  0  0  0  2  0  0  0  0  0  0
  186.1960  178.6140  140.1910 C   0  0  0  0  0  2  0  0  0  0  0  0
  182.7980  178.8020  140.9050 O   0  0  0  0  0  0  0  0  0  0  0  0
  179.8490  178.7430  141.1670 C   0  0  1  0  0  3  0  0  0  0  0  0
  183.6770  178.0150  140.1500 C   0  0  2  0  0  3  0  0  0  0  0  0
  180.5030  176.9290  138.8720 C   0  0  2  0  0  3  0  0  0  0  0  0
  185.0420  177.8660  140.8640 C   0  0  0  0  0  2  0  0  0  0  0  0
  187.3470  178.3230  138.1570 O   0  0  0  0  0  0  0  0  0  0  0  0
  183.9390  180.0520  138.7150 C   0  0  0  0  0  1  0  0  0  0  0  0
  180.8140  179.4550  143.4190 C   0  0  0  0  0  2  0  0  0  0  0  0
  183.5530  180.5130  143.0910 O   0  0  0  0  0  0  0  0  0  0  0  0
  183.3410  179.3730  143.5900 C   0  0  0  0  0  0  0  0  0  0  0  0
  184.1880  178.7880  145.8700 C   0  0  0  0  0  3  0  0  0  0  0  0
  184.3510  178.7620  144.4770 C   0  0  0  0  0  0  0  0  0  0  0  0
  185.4790  178.1310  143.9310 C   0  0  0  0  0  3  0  0  0  0  0  0
  187.8320  176.7530  144.0730 Cl  0  0  0  0  0  0  0  0  0  0  0  0
  186.2610  177.5690  146.1520 C   0  0  0  0  0  3  0  0  0  0  0  0
  186.4300  177.5380  144.7670 C   0  0  0  0  0  0  0  0  0  0  0  0
  185.1400  178.1950  146.7050 C   0  0  0  0  0  3  0  0  0  0  0  0
  181.3560  177.8110  135.7050 C   0  0  0  0  0  1  0  0  0  0  0  0
  181.2120  176.6990  136.5550 O   0  0  0  0  0  0  0  0  0  0  0  0
  1 25  1  1  0  0  0
  1 21  1  0  0  0  0
  2 37  1  6  0  0  0
  2 13  1  0  0  0  0
  2 17  1  0  0  0  0
  2 22  1  0  0  0  0
  3  9  1  6  0  0  0
  3  6  1  0  0  0  0
  4 12  1  6  0  0  0
  4  1  1  0  0  0  0
  4  7  1  0  0  0  0
  5 16  1  0  0  0  0
  6 19  1  6  0  0  0
  6 10  1  0  0  0  0
  7 18  1  0  0  0  0
  8 15  1  0  0  0  0
  8 17  1  0  0  0  0
 10 26  1  0  0  0  0
 10 28  1  6  0  0  0
 13  1  1  0  0  0  0
 14 26  1  0  0  0  0
 15  4  1  0  0  0  0
 16 11  1  1  0  0  0
 16 20  1  0  0  0  0
 18 23  1  0  0  0  0
 20  3  1  0  0  0  0
 20 14  1  1  0  0  0
 21 23  1  1  0  0  0
 21 19  1  0  0  0  0
 22  5  1  1  0  0  0
 22  9  1  0  0  0  0
 24  7  2  0  0  0  0
 27 28  2  0  0  0  0
 28 30  1  0  0  0  0
 29 35  1  0  0  0  0
 30 29  2  0  0  0  0
 31 30  1  0  0  0  0
 31 34  2  0  0  0  0
 32 34  1  0  0  0  0
 33 35  2  0  0  0  0
 34 33  1  0  0  0  0
 36 37  1  0  0  0  0
M  END
>  <MODEL>
8

>  <REMARK>
 VINA RESULT:      -5.2      2.950      6.013
  Name = 
  3 active torsions:
  status: ('A' for Active; 'I' for Inactive)
    1  A    between atoms: C_3  and  O_32
    2  A    between atoms: C_6  and  C_31
    3  A    between atoms: C_14  and  C_31
                            x       y       z     vdW  Elec       q    Type
                         _______ _______ _______ _____ _____    ______ ____

>  <TORSDO>
F 3

$$$$
=
 OpenBabel11052415213D

 37 42  0  0  1  0  0  0  0  0999 V2000
  185.7590  176.1240  136.2480 C   0  0  1  0  0  0  0  0  0  0  0  0
  183.7550  174.3580  135.7220 C   0  0  1  0  0  0  0  0  0  0  0  0
  182.1620  176.5090  138.2250 C   0  0  2  0  0  3  0  0  0  0  0  0
  187.0490  175.2320  136.2320 C   0  0  2  0  0  0  0  0  0  0  0  0
  181.5350  175.7600  135.4420 C   0  0  0  0  0  2  0  0  0  0  0  0
  183.4600  177.0760  138.7970 C   0  0  2  0  0  3  0  0  0  0  0  0
  188.1360  175.9280  137.0270 C   0  0  0  0  0  0  0  0  0  0  0  0
  185.7990  172.9910  136.2870 C   0  0  0  0  0  2  0  0  0  0  0  0
  182.2410  175.0380  137.8040 C   0  0  0  0  0  2  0  0  0  0  0  0
  183.1260  178.3260  139.6370 C   0  0  2  0  0  3  0  0  0  0  0  0
  181.0960  178.0390  134.9520 O   0  0  0  0  0  1  0  0  0  0  0  0
  187.4820  175.0470  134.9130 O   0  0  0  0  0  1  0  0  0  0  0  0
  184.6330  175.5870  135.3380 C   0  0  0  0  0  2  0  0  0  0  0  0
  181.7130  178.9470  137.6070 C   0  0  0  0  0  2  0  0  0  0  0  0
  186.8760  173.8600  136.8990 C   0  0  0  0  0  2  0  0  0  0  0  0
  181.8240  177.2070  135.8050 C   0  0  1  0  0  3  0  0  0  0  0  0
  184.4470  173.4800  136.7680 C   0  0  0  0  0  2  0  0  0  0  0  0
  187.7750  176.9070  138.1100 C   0  0  0  0  0  2  0  0  0  0  0  0
  184.3510  177.4050  137.7630 O   0  0  0  0  0  0  0  0  0  0  0  0
  181.4340  177.4720  137.2580 C   0  0  1  0  0  3  0  0  0  0  0  0
  185.2770  176.3570  137.7010 C   0  0  2  0  0  3  0  0  0  0  0  0
  182.3700  174.7950  136.2900 C   0  0  2  0  0  3  0  0  0  0  0  0
  186.4170  176.5610  138.7280 C   0  0  0  0  0  2  0  0  0  0  0  0
  189.3140  175.6960  136.8010 O   0  0  0  0  0  0  0  0  0  0  0  0
  186.1000  177.4820  135.6200 C   0  0  0  0  0  1  0  0  0  0  0  0
  181.9410  179.1590  139.1040 C   0  0  0  0  0  2  0  0  0  0  0  0
  184.6360  180.1210  139.1620 O   0  0  0  0  0  0  0  0  0  0  0  0
  184.3360  179.1690  139.9350 C   0  0  0  0  0  0  0  0  0  0  0  0
  186.5890  178.6540  140.8930 C   0  0  0  0  0  3  0  0  0  0  0  0
  185.2110  178.8490  141.0790 C   0  0  0  0  0  0  0  0  0  0  0  0
  184.6760  178.7550  142.3720 C   0  0  0  0  0  3  0  0  0  0  0  0
  184.8230  178.3540  145.0690 Cl  0  0  0  0  0  0  0  0  0  0  0  0
  186.8730  178.2730  143.2670 C   0  0  0  0  0  3  0  0  0  0  0  0
  185.5040  178.4680  143.4610 C   0  0  0  0  0  0  0  0  0  0  0  0
  187.4160  178.3660  141.9820 C   0  0  0  0  0  3  0  0  0  0  0  0
  182.4460  172.6550  134.7770 C   0  0  0  0  0  1  0  0  0  0  0  0
  183.5520  173.5050  134.5980 O   0  0  0  0  0  0  0  0  0  0  0  0
  1 25  1  6  0  0  0
  1 21  1  0  0  0  0
  2 37  1  6  0  0  0
  2 22  1  0  0  0  0
  2 17  1  0  0  0  0
  3  9  1  6  0  0  0
  3  6  1  0  0  0  0
  4 12  1  6  0  0  0
  4  1  1  0  0  0  0
  4 15  1  0  0  0  0
  4  7  1  0  0  0  0
  5 16  1  0  0  0  0
  6 19  1  6  0  0  0
  6 10  1  0  0  0  0
  7 18  1  0  0  0  0
  8 17  1  0  0  0  0
  8 15  1  0  0  0  0
 10 28  1  6  0  0  0
 13  2  1  0  0  0  0
 13  1  1  0  0  0  0
 14 26  1  0  0  0  0
 16 11  1  6  0  0  0
 16 20  1  0  0  0  0
 18 23  1  0  0  0  0
 20 14  1  1  0  0  0
 20  3  1  0  0  0  0
 21 19  1  0  0  0  0
 21 23  1  1  0  0  0
 22  5  1  6  0  0  0
 22  9  1  0  0  0  0
 24  7  2  0  0  0  0
 26 10  1  0  0  0  0
 27 28  2  0  0  0  0
 28 30  1  0  0  0  0
 29 30  2  0  0  0  0
 29 35  1  0  0  0  0
 30 31  1  0  0  0  0
 31 34  2  0  0  0  0
 33 34  1  0  0  0  0
 34 32  1  0  0  0  0
 35 33  2  0  0  0  0
 37 36  1  0  0  0  0
M  END
>  <MODEL>
9

>  <REMARK>
 VINA RESULT:      -5.0      2.168      5.083
  Name = 
  3 active torsions:
  status: ('A' for Active; 'I' for Inactive)
    1  A    between atoms: C_3  and  O_32
    2  A    between atoms: C_6  and  C_31
    3  A    between atoms: C_14  and  C_31
                            x       y       z     vdW  Elec       q    Type
                         _______ _______ _______ _____ _____    ______ ____

>  <TORSDO>
F 3

$$$$
