=
 OpenBabel11052416523D

 32 37  0  0  1  0  0  0  0  0999 V2000
  187.9440  177.6010  143.6760 C   0  0  1  0  0  3  0  0  0  0  0  0
  190.7310  177.3400  139.3160 C   0  0  1  0  0  3  0  0  0  0  0  0
  187.0710  178.0660  135.9950 C   0  0  0  0  0  2  0  0  0  0  0  0
  188.0400  177.4300  135.0110 C   0  0  0  0  0  2  0  0  0  0  0  0
  192.8650  176.6660  138.1480 C   0  0  0  0  0  0  0  0  0  0  0  0
  193.5020  176.0970  137.0470 C   0  0  0  0  0  0  0  0  0  0  0  0
  189.7720  176.9240  141.5830 C   0  0  1  0  0  3  0  0  0  0  0  0
  188.7430  178.6390  140.0380 C   0  0  0  0  0  2  0  0  0  0  0  0
  193.7930  175.0910  134.9980 C   0  0  1  0  0  3  0  0  0  0  0  0
  187.8260  178.3560  142.3440 C   0  0  0  0  0  2  0  0  0  0  0  0
  187.7860  178.3820  137.2710 C   0  0  0  0  0  3  0  0  0  0  0  0
  189.4540  177.9670  138.9550 N   0  0  0  0  0  0  0  0  0  0  0  0
  188.7570  177.5940  137.7530 C   0  0  0  0  0  0  0  0  0  0  0  0
  190.7330  176.2920  136.9940 C   0  0  0  0  0  0  0  0  0  0  0  0
  195.1250  175.2940  135.6100 N   0  0  0  0  0  0  0  0  0  0  0  0
  188.2380  176.1070  143.4760 C   0  0  0  0  0  2  0  0  0  0  0  0
  188.4730  177.6350  141.1560 C   0  0  2  0  0  3  0  0  0  0  0  0
  194.8820  175.9070  136.8570 N   0  0  0  0  0  0  0  0  0  0  0  0
  189.5120  175.8580  142.6540 C   0  0  0  0  0  2  0  0  0  0  0  0
  188.5710  176.1390  135.6220 C   0  0  0  0  0  2  0  0  0  0  0  0
  189.2260  176.3620  137.0020 C   0  0  2  0  0  3  0  0  0  0  0  0
  191.4280  175.7060  135.9130 C   0  0  0  0  0  3  0  0  0  0  0  0
  190.4850  176.2840  140.3910 C   0  0  0  0  0  2  0  0  0  0  0  0
  193.6060  177.1220  139.2340 O   0  0  0  0  0  1  0  0  0  0  0  0
  193.5620  173.6700  134.8010 N   0  0  0  0  0  1  0  0  0  0  0  0
  191.4570  176.7610  138.1270 C   0  0  0  0  0  0  0  0  0  0  0  0
  192.8180  175.6310  135.9810 C   0  0  0  0  0  0  0  0  0  0  0  0
  188.9940  178.2630  144.5560 C   0  0  0  0  0  2  0  0  0  0  0  0
  190.1960  177.0450  146.4150 C   0  0  0  0  0  0  0  0  0  0  0  0
  189.0160  177.6350  145.8680 N   0  0  0  0  0  2  0  0  0  0  0  0
  190.1570  176.5270  147.5610 O   0  0  0  0  0  0  0  0  0  0  0  0
  191.4780  177.0290  145.6520 C   0  0  0  0  0  1  0  0  0  0  0  0
  1 28  1  1  0  0  0
  2 23  1  1  0  0  0
  3 11  1  0  0  0  0
  4 20  1  0  0  0  0
  4  3  1  0  0  0  0
  5 24  1  0  0  0  0
  6  5  2  0  0  0  0
  7 23  1  6  0  0  0
  7 19  1  0  0  0  0
  9 25  1  1  0  0  0
  9 15  1  0  0  0  0
  9 27  1  0  0  0  0
 10  1  1  0  0  0  0
 11 13  2  0  0  0  0
 12  2  1  0  0  0  0
 12  8  1  0  0  0  0
 13 12  1  0  0  0  0
 14 21  1  0  0  0  0
 14 26  2  0  0  0  0
 15 18  2  0  0  0  0
 16  1  1  0  0  0  0
 17  8  1  6  0  0  0
 17  7  1  0  0  0  0
 17 10  1  0  0  0  0
 18  6  1  0  0  0  0
 19 16  1  0  0  0  0
 21 20  1  6  0  0  0
 21 13  1  0  0  0  0
 22 27  2  0  0  0  0
 22 14  1  0  0  0  0
 26  5  1  0  0  0  0
 26  2  1  0  0  0  0
 27  6  1  0  0  0  0
 28 30  1  0  0  0  0
 29 31  2  0  0  0  0
 30 29  1  0  0  0  0
 32 29  1  0  0  0  0
M  END
>  <MODEL>
1

>  <REMARK>
 VINA RESULT:      -8.8      0.000      0.000
  Name = 
  2 active torsions:
  status: ('A' for Active; 'I' for Inactive)
    1  A    between atoms: C_2  and  C_24
    2  A    between atoms: N_10  and  C_24
                            x       y       z     vdW  Elec       q    Type
                         _______ _______ _______ _____ _____    ______ ____

>  <TORSDO>
F 2

$$$$
=
 OpenBabel11052416523D

 32 37  0  0  1  0  0  0  0  0999 V2000
  193.4360  174.5800  136.8920 C   0  0  1  0  0  3  0  0  0  0  0  0
  189.8250  177.4830  139.2090 C   0  0  1  0  0  3  0  0  0  0  0  0
  191.7100  177.5460  143.8350 C   0  0  0  0  0  2  0  0  0  0  0  0
  190.2960  177.9240  144.2460 C   0  0  0  0  0  2  0  0  0  0  0  0
  187.5060  178.4820  139.1850 C   0  0  0  0  0  0  0  0  0  0  0  0
  186.3270  178.7940  139.8580 C   0  0  0  0  0  0  0  0  0  0  0  0
  191.0140  175.7900  137.8130 C   0  0  1  0  0  3  0  0  0  0  0  0
  192.2790  177.2180  139.4700 C   0  0  0  0  0  2  0  0  0  0  0  0
  184.7930  178.9700  141.5640 C   0  0  1  0  0  3  0  0  0  0  0  0
  193.5340  175.6320  138.0060 C   0  0  0  0  0  2  0  0  0  0  0  0
  191.8420  177.6400  142.3470 C   0  0  0  0  0  3  0  0  0  0  0  0
  190.9890  177.4790  140.1030 N   0  0  0  0  0  0  0  0  0  0  0  0
  190.8340  177.3210  141.5240 C   0  0  0  0  0  0  0  0  0  0  0  0
  188.3730  177.5930  141.3000 C   0  0  0  0  0  0  0  0  0  0  0  0
  184.1950  179.5450  140.3380 N   0  0  0  0  0  0  0  0  0  0  0  0
  192.2290  173.6490  137.0730 C   0  0  0  0  0  2  0  0  0  0  0  0
  192.2240  175.8640  138.7650 C   0  0  2  0  0  3  0  0  0  0  0  0
  185.1750  179.4050  139.3340 N   0  0  0  0  0  0  0  0  0  0  0  0
  190.8970  174.4130  137.1480 C   0  0  0  0  0  2  0  0  0  0  0  0
  189.3260  176.9470  143.5930 C   0  0  0  0  0  2  0  0  0  0  0  0
  189.4780  176.8980  142.0570 C   0  0  2  0  0  3  0  0  0  0  0  0
  187.1500  177.9120  141.9280 C   0  0  0  0  0  3  0  0  0  0  0  0
  189.7060  176.1200  138.5330 C   0  0  0  0  0  2  0  0  0  0  0  0
  187.6430  178.7720  137.8310 O   0  0  0  0  0  1  0  0  0  0  0  0
  184.0000  177.8350  142.0040 N   0  0  0  0  0  1  0  0  0  0  0  0
  188.5470  177.8660  139.9130 C   0  0  0  0  0  0  0  0  0  0  0  0
  186.1510  178.5160  141.1680 C   0  0  0  0  0  0  0  0  0  0  0  0
  193.4140  175.2630  135.5330 C   0  0  0  0  0  2  0  0  0  0  0  0
  195.1970  177.0250  135.2140 C   0  0  0  0  0  0  0  0  0  0  0  0
  193.8960  176.6310  135.6520 N   0  0  0  0  0  2  0  0  0  0  0  0
  195.5540  178.2260  135.3320 O   0  0  0  0  0  0  0  0  0  0  0  0
  196.1450  176.0390  134.6190 C   0  0  0  0  0  1  0  0  0  0  0  0
  1 28  1  6  0  0  0
  1 16  1  0  0  0  0
  1 10  1  0  0  0  0
  2 23  1  1  0  0  0
  2 26  1  0  0  0  0
  2 12  1  0  0  0  0
  3  4  1  0  0  0  0
  5  6  2  0  0  0  0
  5 26  1  0  0  0  0
  6 27  1  0  0  0  0
  7 19  1  1  0  0  0
  7 23  1  0  0  0  0
  7 17  1  0  0  0  0
  8 12  1  0  0  0  0
  9 25  1  6  0  0  0
 11  3  1  0  0  0  0
 12 13  1  0  0  0  0
 13 21  1  0  0  0  0
 13 11  2  0  0  0  0
 14 22  1  0  0  0  0
 14 21  1  0  0  0  0
 15  9  1  0  0  0  0
 16 19  1  0  0  0  0
 17 10  1  6  0  0  0
 17  8  1  0  0  0  0
 18  6  1  0  0  0  0
 18 15  2  0  0  0  0
 20  4  1  0  0  0  0
 21 20  1  1  0  0  0
 24  5  1  0  0  0  0
 26 14  2  0  0  0  0
 27  9  1  0  0  0  0
 27 22  2  0  0  0  0
 28 30  1  0  0  0  0
 29 31  2  0  0  0  0
 29 30  1  0  0  0  0
 32 29  1  0  0  0  0
M  END
>  <MODEL>
2

>  <REMARK>
 VINA RESULT:      -8.3      2.858      8.360
  Name = 
  2 active torsions:
  status: ('A' for Active; 'I' for Inactive)
    1  A    between atoms: C_2  and  C_24
    2  A    between atoms: N_10  and  C_24
                            x       y       z     vdW  Elec       q    Type
                         _______ _______ _______ _____ _____    ______ ____

>  <TORSDO>
F 2

$$$$
=
 OpenBabel11052416523D

 32 37  0  0  1  0  0  0  0  0999 V2000
  182.4420  178.4840  138.7770 C   0  0  1  0  0  3  0  0  0  0  0  0
  185.7350  178.7850  142.7650 C   0  0  1  0  0  3  0  0  0  0  0  0
  189.9490  177.5040  140.4080 C   0  0  0  0  0  2  0  0  0  0  0  0
  190.4590  177.1880  141.8050 C   0  0  0  0  0  2  0  0  0  0  0  0
  186.1110  178.8830  145.2590 C   0  0  0  0  0  0  0  0  0  0  0  0
  186.8320  178.4780  146.3810 C   0  0  0  0  0  0  0  0  0  0  0  0
  183.7570  178.3290  141.3110 C   0  0  1  0  0  3  0  0  0  0  0  0
  185.8970  179.2510  140.3320 C   0  0  0  0  0  2  0  0  0  0  0  0
  188.4130  177.4080  147.6650 C   0  0  1  0  0  3  0  0  0  0  0  0
  183.9070  178.9370  138.8570 C   0  0  0  0  0  2  0  0  0  0  0  0
  188.6570  178.2530  140.5020 C   0  0  0  0  0  3  0  0  0  0  0  0
  186.5570  178.7840  141.5480 N   0  0  0  0  0  0  0  0  0  0  0  0
  187.7600  178.0010  141.4650 C   0  0  0  0  0  0  0  0  0  0  0  0
  187.6340  177.5230  143.9010 C   0  0  0  0  0  0  0  0  0  0  0  0
  187.5560  178.2160  148.5600 N   0  0  0  0  0  0  0  0  0  0  0  0
  182.1730  177.2260  139.6150 C   0  0  0  0  0  2  0  0  0  0  0  0
  184.6670  178.3860  140.0680 C   0  0  2  0  0  3  0  0  0  0  0  0
  186.6100  178.8400  147.7210 N   0  0  0  0  0  0  0  0  0  0  0  0
  182.5530  177.4060  141.0930 C   0  0  0  0  0  2  0  0  0  0  0  0
  189.4250  176.3200  142.5120 C   0  0  0  0  0  2  0  0  0  0  0  0
  188.0270  176.9760  142.5510 C   0  0  2  0  0  3  0  0  0  0  0  0
  188.3170  177.1280  145.0720 C   0  0  0  0  0  3  0  0  0  0  0  0
  184.5260  177.8780  142.5540 C   0  0  0  0  0  2  0  0  0  0  0  0
  185.0260  179.7440  145.3910 O   0  0  0  0  0  1  0  0  0  0  0  0
  188.2940  176.0030  148.0160 N   0  0  0  0  0  1  0  0  0  0  0  0
  186.5130  178.3950  143.9970 C   0  0  0  0  0  0  0  0  0  0  0  0
  187.8820  177.6340  146.2950 C   0  0  0  0  0  0  0  0  0  0  0  0
  181.5230  179.6280  139.1780 C   0  0  0  0  0  2  0  0  0  0  0  0
  180.9370  181.9350  138.3280 C   0  0  0  0  0  0  0  0  0  0  0  0
  181.8130  180.8080  138.3770 N   0  0  0  0  0  2  0  0  0  0  0  0
  181.2470  182.9320  137.6260 O   0  0  0  0  0  0  0  0  0  0  0  0
  179.6560  181.9520  139.0930 C   0  0  0  0  0  1  0  0  0  0  0  0
  1 10  1  0  0  0  0
  1 28  1  1  0  0  0
  1 16  1  0  0  0  0
  2 23  1  6  0  0  0
  2 26  1  0  0  0  0
  3 11  1  0  0  0  0
  3  4  1  0  0  0  0
  4 20  1  0  0  0  0
  5 24  1  0  0  0  0
  5  6  1  0  0  0  0
  6 18  1  0  0  0  0
  7 19  1  6  0  0  0
  7 23  1  0  0  0  0
  8 12  1  0  0  0  0
  9 25  1  1  0  0  0
  9 15  1  0  0  0  0
 11 13  2  0  0  0  0
 12  2  1  0  0  0  0
 13 12  1  0  0  0  0
 13 21  1  0  0  0  0
 14 26  1  0  0  0  0
 14 22  2  0  0  0  0
 16 19  1  0  0  0  0
 17 10  1  6  0  0  0
 17  8  1  0  0  0  0
 17  7  1  0  0  0  0
 18 15  2  0  0  0  0
 21 20  1  1  0  0  0
 21 14  1  0  0  0  0
 22 27  1  0  0  0  0
 26  5  2  0  0  0  0
 27  6  2  0  0  0  0
 27  9  1  0  0  0  0
 29 30  1  0  0  0  0
 29 32  1  0  0  0  0
 30 28  1  0  0  0  0
 31 29  2  0  0  0  0
M  END
>  <MODEL>
3

>  <REMARK>
 VINA RESULT:      -7.9      5.088      9.489
  Name = 
  2 active torsions:
  status: ('A' for Active; 'I' for Inactive)
    1  A    between atoms: C_2  and  C_24
    2  A    between atoms: N_10  and  C_24
                            x       y       z     vdW  Elec       q    Type
                         _______ _______ _______ _____ _____    ______ ____

>  <TORSDO>
F 2

$$$$
=
 OpenBabel11052416523D

 32 37  0  0  1  0  0  0  0  0999 V2000
  183.0170  178.4740  138.7050 C   0  0  1  0  0  3  0  0  0  0  0  0
  186.1520  178.6470  142.8260 C   0  0  1  0  0  3  0  0  0  0  0  0
  190.4240  177.2790  140.6250 C   0  0  0  0  0  2  0  0  0  0  0  0
  190.8680  176.9360  142.0380 C   0  0  0  0  0  2  0  0  0  0  0  0
  186.4300  178.7090  145.3340 C   0  0  0  0  0  0  0  0  0  0  0  0
  187.0930  178.2740  146.4790 C   0  0  0  0  0  0  0  0  0  0  0  0
  184.2240  178.2580  141.2880 C   0  0  1  0  0  3  0  0  0  0  0  0
  186.4250  179.1340  140.4070 C   0  0  0  0  0  2  0  0  0  0  0  0
  188.5930  177.1480  147.8130 C   0  0  1  0  0  3  0  0  0  0  0  0
  184.4890  178.8880  138.8490 C   0  0  0  0  0  2  0  0  0  0  0  0
  189.1490  178.0610  140.6760 C   0  0  0  0  0  3  0  0  0  0  0  0
  187.0220  178.6370  141.6430 N   0  0  0  0  0  0  0  0  0  0  0  0
  188.2070  177.8230  141.5990 C   0  0  0  0  0  0  0  0  0  0  0  0
  187.9710  177.3230  144.0230 C   0  0  0  0  0  0  0  0  0  0  0  0
  187.7210  177.9700  148.6830 N   0  0  0  0  0  0  0  0  0  0  0  0
  182.6810  177.2160  139.5170 C   0  0  0  0  0  2  0  0  0  0  0  0
  185.1840  178.3040  140.0830 C   0  0  2  0  0  3  0  0  0  0  0  0
  186.8270  178.6280  147.8130 N   0  0  0  0  0  0  0  0  0  0  0  0
  183.0050  177.3700  141.0110 C   0  0  0  0  0  2  0  0  0  0  0  0
  189.7840  176.0880  142.6930 C   0  0  0  0  0  2  0  0  0  0  0  0
  188.4040  176.7800  142.6830 C   0  0  2  0  0  3  0  0  0  0  0  0
  188.5950  176.8990  145.2150 C   0  0  0  0  0  3  0  0  0  0  0  0
  184.9300  177.7740  142.5560 C   0  0  0  0  0  2  0  0  0  0  0  0
  185.3630  179.5970  145.4320 O   0  0  0  0  0  1  0  0  0  0  0  0
  188.4240  175.7440  148.1430 N   0  0  0  0  0  1  0  0  0  0  0  0
  186.8690  178.2240  144.0830 C   0  0  0  0  0  0  0  0  0  0  0  0
  188.1240  177.4030  146.4260 C   0  0  0  0  0  0  0  0  0  0  0  0
  182.1120  179.6380  139.0820 C   0  0  0  0  0  2  0  0  0  0  0  0
  180.1120  179.2480  140.5770 C   0  0  0  0  0  0  0  0  0  0  0  0
  180.7540  179.1660  139.3030 N   0  0  0  0  0  2  0  0  0  0  0  0
  178.9320  178.8330  140.7040 O   0  0  0  0  0  0  0  0  0  0  0  0
  180.8180  179.8140  141.7630 C   0  0  0  0  0  1  0  0  0  0  0  0
  1 10  1  0  0  0  0
  1 28  1  1  0  0  0
  1 16  1  0  0  0  0
  2 23  1  6  0  0  0
  2 26  1  0  0  0  0
  3 11  1  0  0  0  0
  3  4  1  0  0  0  0
  4 20  1  0  0  0  0
  5 24  1  0  0  0  0
  5  6  1  0  0  0  0
  6 18  1  0  0  0  0
  7 19  1  6  0  0  0
  7 23  1  0  0  0  0
  8 12  1  0  0  0  0
  9 25  1  1  0  0  0
  9 15  1  0  0  0  0
 11 13  2  0  0  0  0
 12  2  1  0  0  0  0
 13 12  1  0  0  0  0
 13 21  1  0  0  0  0
 14 26  1  0  0  0  0
 14 22  2  0  0  0  0
 16 19  1  0  0  0  0
 17 10  1  6  0  0  0
 17  8  1  0  0  0  0
 17  7  1  0  0  0  0
 18 15  2  0  0  0  0
 21 20  1  1  0  0  0
 21 14  1  0  0  0  0
 22 27  1  0  0  0  0
 26  5  2  0  0  0  0
 27  6  2  0  0  0  0
 27  9  1  0  0  0  0
 28 30  1  0  0  0  0
 29 31  2  0  0  0  0
 29 32  1  0  0  0  0
 30 29  1  0  0  0  0
M  END
>  <MODEL>
4

>  <REMARK>
 VINA RESULT:      -7.3      4.959      9.150
  Name = 
  2 active torsions:
  status: ('A' for Active; 'I' for Inactive)
    1  A    between atoms: C_2  and  C_24
    2  A    between atoms: N_10  and  C_24
                            x       y       z     vdW  Elec       q    Type
                         _______ _______ _______ _____ _____    ______ ____

>  <TORSDO>
F 2

$$$$
=
 OpenBabel11052416523D

 32 37  0  0  1  0  0  0  0  0999 V2000
  182.5290  177.6740  137.8160 C   0  0  1  0  0  3  0  0  0  0  0  0
  185.2970  178.7080  142.0710 C   0  0  1  0  0  3  0  0  0  0  0  0
  189.8680  177.7730  140.2860 C   0  0  0  0  0  2  0  0  0  0  0  0
  190.2510  177.6390  141.7510 C   0  0  0  0  0  2  0  0  0  0  0  0
  185.3770  179.0560  144.5700 C   0  0  0  0  0  0  0  0  0  0  0  0
  186.0090  178.8360  145.7920 C   0  0  0  0  0  0  0  0  0  0  0  0
  183.5610  177.8910  140.4740 C   0  0  1  0  0  3  0  0  0  0  0  0
  185.6760  178.9900  139.6340 C   0  0  0  0  0  2  0  0  0  0  0  0
  187.5490  178.0800  147.3260 C   0  0  1  0  0  3  0  0  0  0  0  0
  183.9140  178.3110  138.0010 C   0  0  0  0  0  2  0  0  0  0  0  0
  188.4960  178.3610  140.1770 C   0  0  0  0  0  3  0  0  0  0  0  0
  186.2440  178.7100  140.9490 N   0  0  0  0  0  0  0  0  0  0  0  0
  187.5310  178.0790  141.0640 C   0  0  0  0  0  0  0  0  0  0  0  0
  187.1900  177.7890  143.5080 C   0  0  0  0  0  0  0  0  0  0  0  0
  186.5090  178.8450  148.0490 N   0  0  0  0  0  0  0  0  0  0  0  0
  182.3140  176.4650  138.7370 C   0  0  0  0  0  2  0  0  0  0  0  0
  184.5920  177.9590  139.3290 C   0  0  2  0  0  3  0  0  0  0  0  0
  185.5980  179.2760  147.0620 N   0  0  0  0  0  0  0  0  0  0  0  0
  182.5020  176.8110  140.2230 C   0  0  0  0  0  2  0  0  0  0  0  0
  189.2510  176.7100  142.4280 C   0  0  0  0  0  2  0  0  0  0  0  0
  187.7920  177.1870  142.2630 C   0  0  2  0  0  3  0  0  0  0  0  0
  187.7770  177.5800  144.7750 C   0  0  0  0  0  3  0  0  0  0  0  0
  184.2320  177.6430  141.8250 C   0  0  0  0  0  2  0  0  0  0  0  0
  184.1920  179.7820  144.5090 O   0  0  0  0  0  1  0  0  0  0  0  0
  187.5540  176.7050  147.7940 N   0  0  0  0  0  1  0  0  0  0  0  0
  185.9710  178.5200  143.4070 C   0  0  0  0  0  0  0  0  0  0  0  0
  187.1520  178.1250  145.8940 C   0  0  0  0  0  0  0  0  0  0  0  0
  181.4450  178.7230  138.0110 C   0  0  0  0  0  2  0  0  0  0  0  0
  180.0020  178.5620  135.9430 C   0  0  0  0  0  0  0  0  0  0  0  0
  180.2250  178.3160  137.3320 N   0  0  0  0  0  2  0  0  0  0  0  0
  178.9310  178.1750  135.4080 O   0  0  0  0  0  0  0  0  0  0  0  0
  181.0170  179.2720  135.1110 C   0  0  0  0  0  1  0  0  0  0  0  0
  1 10  1  0  0  0  0
  1 28  1  1  0  0  0
  1 16  1  0  0  0  0
  2 23  1  6  0  0  0
  2 26  1  0  0  0  0
  3  4  1  0  0  0  0
  4 20  1  0  0  0  0
  5  6  1  0  0  0  0
  6 27  2  0  0  0  0
  6 18  1  0  0  0  0
  7 19  1  6  0  0  0
  7 23  1  0  0  0  0
  8 12  1  0  0  0  0
  9 25  1  1  0  0  0
  9 15  1  0  0  0  0
 11  3  1  0  0  0  0
 11 13  2  0  0  0  0
 12 13  1  0  0  0  0
 12  2  1  0  0  0  0
 13 21  1  0  0  0  0
 14 22  2  0  0  0  0
 16 19  1  0  0  0  0
 17 10  1  6  0  0  0
 17  8  1  0  0  0  0
 17  7  1  0  0  0  0
 18 15  2  0  0  0  0
 21 20  1  1  0  0  0
 21 14  1  0  0  0  0
 22 27  1  0  0  0  0
 24  5  1  0  0  0  0
 26 14  1  0  0  0  0
 26  5  2  0  0  0  0
 27  9  1  0  0  0  0
 29 30  1  0  0  0  0
 30 28  1  0  0  0  0
 31 29  2  0  0  0  0
 32 29  1  0  0  0  0
M  END
>  <MODEL>
5

>  <REMARK>
 VINA RESULT:      -7.2      5.122      9.836
  Name = 
  2 active torsions:
  status: ('A' for Active; 'I' for Inactive)
    1  A    between atoms: C_2  and  C_24
    2  A    between atoms: N_10  and  C_24
                            x       y       z     vdW  Elec       q    Type
                         _______ _______ _______ _____ _____    ______ ____

>  <TORSDO>
F 2

$$$$
=
 OpenBabel11052416523D

 32 37  0  0  1  0  0  0  0  0999 V2000
  186.7300  178.1530  147.2940 C   0  0  1  0  0  3  0  0  0  0  0  0
  185.4840  178.8200  142.3100 C   0  0  1  0  0  3  0  0  0  0  0  0
  180.5550  179.4620  142.8070 C   0  0  0  0  0  2  0  0  0  0  0  0
  180.5080  179.0910  141.3340 C   0  0  0  0  0  2  0  0  0  0  0  0
  186.1050  178.5920  139.8730 C   0  0  0  0  0  0  0  0  0  0  0  0
  185.7450  178.2580  138.5700 C   0  0  0  0  0  0  0  0  0  0  0  0
  186.4700  177.9970  144.4500 C   0  0  1  0  0  3  0  0  0  0  0  0
  184.6400  179.7400  144.4550 C   0  0  0  0  0  2  0  0  0  0  0  0
  184.4590  177.5660  136.7910 C   0  0  1  0  0  3  0  0  0  0  0  0
  185.6820  179.0470  146.6160 C   0  0  0  0  0  2  0  0  0  0  0  0
  181.9730  179.7070  143.2180 C   0  0  0  0  0  3  0  0  0  0  0  0
  184.3430  179.3110  143.0920 N   0  0  0  0  0  0  0  0  0  0  0  0
  182.9920  179.0030  142.7070 C   0  0  0  0  0  0  0  0  0  0  0  0
  183.8010  178.0840  140.5440 C   0  0  0  0  0  0  0  0  0  0  0  0
  185.8200  177.8680  136.2920 N   0  0  0  0  0  0  0  0  0  0  0  0
  186.7890  176.7490  146.6740 C   0  0  0  0  0  2  0  0  0  0  0  0
  185.2650  178.5750  145.2190 C   0  0  2  0  0  3  0  0  0  0  0  0
  186.5570  178.2800  137.4220 N   0  0  0  0  0  0  0  0  0  0  0  0
  187.0690  176.7790  145.1640 C   0  0  0  0  0  2  0  0  0  0  0  0
  181.3180  177.8170  141.1300 C   0  0  0  0  0  2  0  0  0  0  0  0
  182.7710  177.9490  141.6370 C   0  0  2  0  0  3  0  0  0  0  0  0
  183.4960  177.7380  139.2100 C   0  0  0  0  0  3  0  0  0  0  0  0
  186.0960  177.6140  143.0170 C   0  0  0  0  0  2  0  0  0  0  0  0
  187.4020  179.0030  140.1640 O   0  0  0  0  0  1  0  0  0  0  0  0
  184.1580  176.1640  136.5610 N   0  0  0  0  0  1  0  0  0  0  0  0
  185.1210  178.4990  140.8810 C   0  0  0  0  0  0  0  0  0  0  0  0
  184.5010  177.8420  138.2510 C   0  0  0  0  0  0  0  0  0  0  0  0
  188.0910  178.8330  147.2620 C   0  0  0  0  0  2  0  0  0  0  0  0
  190.1800  177.4180  147.1320 C   0  0  0  0  0  0  0  0  0  0  0  0
  189.0940  177.9760  147.8730 N   0  0  0  0  0  2  0  0  0  0  0  0
  191.0240  176.6930  147.7190 O   0  0  0  0  0  0  0  0  0  0  0  0
  190.3330  177.6780  145.6710 C   0  0  0  0  0  1  0  0  0  0  0  0
  1 28  1  6  0  0  0
  2 23  1  1  0  0  0
  2 12  1  0  0  0  0
  3 11  1  0  0  0  0
  4  3  1  0  0  0  0
  5 24  1  0  0  0  0
  5 26  1  0  0  0  0
  6  5  2  0  0  0  0
  7 23  1  6  0  0  0
  7 19  1  0  0  0  0
  7 17  1  0  0  0  0
  9 25  1  1  0  0  0
  9 27  1  0  0  0  0
 10  1  1  0  0  0  0
 12  8  1  0  0  0  0
 13 12  1  0  0  0  0
 13 11  2  0  0  0  0
 14 26  2  0  0  0  0
 14 21  1  0  0  0  0
 15  9  1  0  0  0  0
 15 18  2  0  0  0  0
 16  1  1  0  0  0  0
 17  8  1  6  0  0  0
 17 10  1  0  0  0  0
 18  6  1  0  0  0  0
 19 16  1  0  0  0  0
 20  4  1  0  0  0  0
 21 20  1  6  0  0  0
 21 13  1  0  0  0  0
 22 14  1  0  0  0  0
 26  2  1  0  0  0  0
 27  6  1  0  0  0  0
 27 22  2  0  0  0  0
 28 30  1  0  0  0  0
 29 31  2  0  0  0  0
 29 30  1  0  0  0  0
 32 29  1  0  0  0  0
M  END
>  <MODEL>
6

>  <REMARK>
 VINA RESULT:      -7.1      5.207      6.952
  Name = 
  2 active torsions:
  status: ('A' for Active; 'I' for Inactive)
    1  A    between atoms: C_2  and  C_24
    2  A    between atoms: N_10  and  C_24
                            x       y       z     vdW  Elec       q    Type
                         _______ _______ _______ _____ _____    ______ ____

>  <TORSDO>
F 2

$$$$
=
 OpenBabel11052416523D

 32 37  0  0  1  0  0  0  0  0999 V2000
  186.4820  177.8190  145.6820 C   0  0  1  0  0  3  0  0  0  0  0  0
  186.8420  178.6050  140.5740 C   0  0  1  0  0  3  0  0  0  0  0  0
  181.9820  179.0170  139.4940 C   0  0  0  0  0  2  0  0  0  0  0  0
  182.4230  178.6960  138.0750 C   0  0  0  0  0  2  0  0  0  0  0  0
  188.2120  178.4890  138.4570 C   0  0  0  0  0  0  0  0  0  0  0  0
  188.3000  178.1850  137.1000 C   0  0  0  0  0  0  0  0  0  0  0  0
  187.1420  177.7510  142.9010 C   0  0  1  0  0  3  0  0  0  0  0  0
  185.3170  179.4120  142.3580 C   0  0  0  0  0  2  0  0  0  0  0  0
  187.6800  177.5010  134.9920 C   0  0  1  0  0  3  0  0  0  0  0  0
  185.6570  178.6900  144.7240 C   0  0  0  0  0  2  0  0  0  0  0  0
  183.1830  179.3080  140.3390 C   0  0  0  0  0  3  0  0  0  0  0  0
  185.4880  179.0190  140.9630 N   0  0  0  0  0  0  0  0  0  0  0  0
  184.3460  178.6660  140.1630 C   0  0  0  0  0  0  0  0  0  0  0  0
  185.8440  177.8590  138.3520 C   0  0  0  0  0  0  0  0  0  0  0  0
  189.1110  177.8780  134.9570 N   0  0  0  0  0  0  0  0  0  0  0  0
  186.8060  176.4420  145.0860 C   0  0  0  0  0  2  0  0  0  0  0  0
  185.7280  178.2490  143.2590 C   0  0  2  0  0  3  0  0  0  0  0  0
  189.4310  178.2820  136.2700 N   0  0  0  0  0  0  0  0  0  0  0  0
  187.5480  176.5360  143.7440 C   0  0  0  0  0  2  0  0  0  0  0  0
  183.3200  177.4650  138.1140 C   0  0  0  0  0  2  0  0  0  0  0  0
  184.5290  177.6420  139.0590 C   0  0  2  0  0  3  0  0  0  0  0  0
  185.9940  177.5460  136.9840 C   0  0  0  0  0  3  0  0  0  0  0  0
  187.2600  177.4030  141.4160 C   0  0  0  0  0  2  0  0  0  0  0  0
  189.3280  178.9450  139.1520 O   0  0  0  0  0  1  0  0  0  0  0  0
  187.5400  176.0960  134.6510 N   0  0  0  0  0  1  0  0  0  0  0  0
  186.9660  178.3190  139.0980 C   0  0  0  0  0  0  0  0  0  0  0  0
  187.2440  177.7280  136.3950 C   0  0  0  0  0  0  0  0  0  0  0  0
  187.7460  178.5580  146.0970 C   0  0  0  0  0  2  0  0  0  0  0  0
  189.9060  177.3360  146.5730 C   0  0  0  0  0  0  0  0  0  0  0  0
  188.5740  177.7040  146.9340 N   0  0  0  0  0  2  0  0  0  0  0  0
  190.5790  176.6040  147.3430 O   0  0  0  0  0  0  0  0  0  0  0  0
  190.5170  177.8040  145.2950 C   0  0  0  0  0  1  0  0  0  0  0  0
  1 28  1  6  0  0  0
  2 12  1  0  0  0  0
  2 23  1  1  0  0  0
  3 11  1  0  0  0  0
  4 20  1  0  0  0  0
  4  3  1  0  0  0  0
  5 26  1  0  0  0  0
  5 24  1  0  0  0  0
  6  5  2  0  0  0  0
  7 23  1  6  0  0  0
  7 17  1  0  0  0  0
  7 19  1  0  0  0  0
  9 25  1  1  0  0  0
  9 27  1  0  0  0  0
 10  1  1  0  0  0  0
 12  8  1  0  0  0  0
 13 11  2  0  0  0  0
 13 12  1  0  0  0  0
 14 21  1  0  0  0  0
 14 26  2  0  0  0  0
 15  9  1  0  0  0  0
 15 18  2  0  0  0  0
 16  1  1  0  0  0  0
 17  8  1  6  0  0  0
 17 10  1  0  0  0  0
 18  6  1  0  0  0  0
 19 16  1  0  0  0  0
 21 20  1  6  0  0  0
 21 13  1  0  0  0  0
 22 14  1  0  0  0  0
 26  2  1  0  0  0  0
 27 22  2  0  0  0  0
 27  6  1  0  0  0  0
 28 30  1  0  0  0  0
 29 30  1  0  0  0  0
 29 31  2  0  0  0  0
 32 29  1  0  0  0  0
M  END
>  <MODEL>
7

>  <REMARK>
 VINA RESULT:      -6.7      3.387      4.652
  Name = 
  2 active torsions:
  status: ('A' for Active; 'I' for Inactive)
    1  A    between atoms: C_2  and  C_24
    2  A    between atoms: N_10  and  C_24
                            x       y       z     vdW  Elec       q    Type
                         _______ _______ _______ _____ _____    ______ ____

>  <TORSDO>
F 2

$$$$
=
 OpenBabel11052416523D

 32 37  0  0  1  0  0  0  0  0999 V2000
  189.2410  176.6740  136.4440 C   0  0  1  0  0  3  0  0  0  0  0  0
  184.5540  177.2670  138.5690 C   0  0  1  0  0  3  0  0  0  0  0  0
  181.7390  176.1590  134.5940 C   0  0  0  0  0  2  0  0  0  0  0  0
  180.6480  176.9040  135.3450 C   0  0  0  0  0  2  0  0  0  0  0  0
  183.1240  178.1800  140.4390 C   0  0  0  0  0  0  0  0  0  0  0  0
  181.9600  178.8220  140.8550 C   0  0  0  0  0  0  0  0  0  0  0  0
  186.9370  177.5620  137.8870 C   0  0  1  0  0  3  0  0  0  0  0  0
  185.5090  175.7520  136.8510 C   0  0  0  0  0  2  0  0  0  0  0  0
  179.9120  179.8660  140.7540 C   0  0  1  0  0  3  0  0  0  0  0  0
  187.9220  175.9190  136.2300 C   0  0  0  0  0  2  0  0  0  0  0  0
  182.9010  175.9170  135.5060 C   0  0  0  0  0  3  0  0  0  0  0  0
  184.3540  176.5050  137.3310 N   0  0  0  0  0  0  0  0  0  0  0  0
  183.2650  176.8050  136.4420 C   0  0  0  0  0  0  0  0  0  0  0  0
  182.2740  178.3230  138.1430 C   0  0  0  0  0  0  0  0  0  0  0  0
  180.3350  179.8080  142.1710 N   0  0  0  0  0  0  0  0  0  0  0  0
  189.0350  178.1920  136.5430 C   0  0  0  0  0  2  0  0  0  0  0  0
  186.6740  176.7140  136.6260 C   0  0  2  0  0  3  0  0  0  0  0  0
  181.5910  179.1650  142.1670 N   0  0  0  0  0  0  0  0  0  0  0  0
  188.0560  178.5860  137.6600 C   0  0  0  0  0  2  0  0  0  0  0  0
  181.2080  178.2430  135.8100 C   0  0  0  0  0  2  0  0  0  0  0  0
  182.4830  178.0860  136.6670 C   0  0  2  0  0  3  0  0  0  0  0  0
  181.1230  178.9880  138.6160 C   0  0  0  0  0  3  0  0  0  0  0  0
  185.6740  178.2830  138.3580 C   0  0  0  0  0  2  0  0  0  0  0  0
  184.0920  177.8030  141.3650 O   0  0  0  0  0  1  0  0  0  0  0  0
  179.7770  181.2530  140.3450 N   0  0  0  0  0  1  0  0  0  0  0  0
  183.2910  177.9290  139.0600 C   0  0  0  0  0  0  0  0  0  0  0  0
  181.0050  179.2150  139.9860 C   0  0  0  0  0  0  0  0  0  0  0  0
  189.9590  176.1280  137.6690 C   0  0  0  0  0  2  0  0  0  0  0  0
  192.4820  176.1110  137.8060 C   0  0  0  0  0  0  0  0  0  0  0  0
  191.2340  176.8050  137.8460 N   0  0  0  0  0  2  0  0  0  0  0  0
  193.5540  176.7530  137.9550 O   0  0  0  0  0  0  0  0  0  0  0  0
  192.5400  174.6360  137.5930 C   0  0  0  0  0  1  0  0  0  0  0  0
  1 16  1  0  0  0  0
  1 28  1  1  0  0  0
  2 23  1  6  0  0  0
  2 26  1  0  0  0  0
  3  4  1  0  0  0  0
  3 11  1  0  0  0  0
  4 20  1  0  0  0  0
  5  6  1  0  0  0  0
  5 24  1  0  0  0  0
  6 18  1  0  0  0  0
  7 19  1  6  0  0  0
  7 23  1  0  0  0  0
  8 12  1  0  0  0  0
  9 25  1  6  0  0  0
  9 15  1  0  0  0  0
 10  1  1  0  0  0  0
 11 13  2  0  0  0  0
 12  2  1  0  0  0  0
 13 21  1  0  0  0  0
 13 12  1  0  0  0  0
 14 22  2  0  0  0  0
 14 26  1  0  0  0  0
 16 19  1  0  0  0  0
 17 10  1  1  0  0  0
 17  8  1  0  0  0  0
 17  7  1  0  0  0  0
 18 15  2  0  0  0  0
 21 20  1  6  0  0  0
 21 14  1  0  0  0  0
 22 27  1  0  0  0  0
 26  5  2  0  0  0  0
 27  9  1  0  0  0  0
 27  6  2  0  0  0  0
 28 30  1  0  0  0  0
 29 30  1  0  0  0  0
 29 31  2  0  0  0  0
 32 29  1  0  0  0  0
M  END
>  <MODEL>
8

>  <REMARK>
 VINA RESULT:      -5.9      5.230      9.386
  Name = 
  2 active torsions:
  status: ('A' for Active; 'I' for Inactive)
    1  A    between atoms: C_2  and  C_24
    2  A    between atoms: N_10  and  C_24
                            x       y       z     vdW  Elec       q    Type
                         _______ _______ _______ _____ _____    ______ ____

>  <TORSDO>
F 2

$$$$
=
 OpenBabel11052416523D

 32 37  0  0  1  0  0  0  0  0999 V2000
  191.9970  177.0700  145.1540 C   0  0  1  0  0  3  0  0  0  0  0  0
  187.8870  177.3500  142.0120 C   0  0  1  0  0  3  0  0  0  0  0  0
  190.1930  176.6720  137.6330 C   0  0  0  0  0  2  0  0  0  0  0  0
  188.9440  177.3100  137.0460 C   0  0  0  0  0  2  0  0  0  0  0  0
  185.4800  178.0210  141.6500 C   0  0  0  0  0  0  0  0  0  0  0  0
  184.5040  178.5950  140.8390 C   0  0  0  0  0  0  0  0  0  0  0  0
  189.5620  177.7540  143.8190 C   0  0  1  0  0  3  0  0  0  0  0  0
  190.0050  176.0560  141.9990 C   0  0  0  0  0  2  0  0  0  0  0  0
  183.5270  179.6160  139.0230 C   0  0  1  0  0  3  0  0  0  0  0  0
  191.6540  176.3270  143.8550 C   0  0  0  0  0  2  0  0  0  0  0  0
  189.9580  176.3420  139.0740 C   0  0  0  0  0  3  0  0  0  0  0  0
  188.9650  176.7330  141.2300 N   0  0  0  0  0  0  0  0  0  0  0  0
  189.2080  177.1200  139.8660 C   0  0  0  0  0  0  0  0  0  0  0  0
  187.0880  178.4170  139.8410 C   0  0  0  0  0  0  0  0  0  0  0  0
  182.4850  179.4000  140.0510 N   0  0  0  0  0  0  0  0  0  0  0  0
  191.6490  178.5630  145.0810 C   0  0  0  0  0  2  0  0  0  0  0  0
  190.6390  177.0540  142.9670 C   0  0  2  0  0  3  0  0  0  0  0  0
  183.1420  178.7790  141.1340 N   0  0  0  0  0  0  0  0  0  0  0  0
  190.1700  178.8120  144.7470 C   0  0  0  0  0  2  0  0  0  0  0  0
  188.6510  178.5930  137.8130 C   0  0  0  0  0  2  0  0  0  0  0  0
  188.5070  178.3550  139.3330 C   0  0  2  0  0  3  0  0  0  0  0  0
  186.0640  179.0070  139.0680 C   0  0  0  0  0  3  0  0  0  0  0  0
  188.4830  178.3990  142.9480 C   0  0  0  0  0  2  0  0  0  0  0  0
  185.1570  177.5520  142.9190 O   0  0  0  0  0  1  0  0  0  0  0  0
  183.6730  181.0390  138.7720 N   0  0  0  0  0  1  0  0  0  0  0  0
  186.7970  177.9340  141.1480 C   0  0  0  0  0  0  0  0  0  0  0  0
  184.7810  179.0730  139.6070 C   0  0  0  0  0  0  0  0  0  0  0  0
  191.3130  176.3950  146.3330 C   0  0  0  0  0  2  0  0  0  0  0  0
  189.7600  177.5800  147.9370 C   0  0  0  0  0  0  0  0  0  0  0  0
  191.0610  177.3650  147.3880 N   0  0  0  0  0  2  0  0  0  0  0  0
  189.6060  178.4240  148.8560 O   0  0  0  0  0  0  0  0  0  0  0  0
  188.5760  176.8230  147.4370 C   0  0  0  0  0  1  0  0  0  0  0  0
  1 28  1  1  0  0  0
  2 23  1  6  0  0  0
  3 11  1  0  0  0  0
  4  3  1  0  0  0  0
  4 20  1  0  0  0  0
  5 24  1  0  0  0  0
  6 18  1  0  0  0  0
  6  5  2  0  0  0  0
  7 23  1  6  0  0  0
  7 19  1  0  0  0  0
  9 25  1  1  0  0  0
  9 27  1  0  0  0  0
  9 15  1  0  0  0  0
 10  1  1  0  0  0  0
 11 13  2  0  0  0  0
 12  8  1  0  0  0  0
 12  2  1  0  0  0  0
 13 12  1  0  0  0  0
 14 26  2  0  0  0  0
 15 18  2  0  0  0  0
 16  1  1  0  0  0  0
 17  8  1  6  0  0  0
 17  7  1  0  0  0  0
 17 10  1  0  0  0  0
 19 16  1  0  0  0  0
 21 20  1  6  0  0  0
 21 14  1  0  0  0  0
 21 13  1  0  0  0  0
 22 27  2  0  0  0  0
 22 14  1  0  0  0  0
 26  5  1  0  0  0  0
 26  2  1  0  0  0  0
 27  6  1  0  0  0  0
 28 30  1  0  0  0  0
 29 31  2  0  0  0  0
 30 29  1  0  0  0  0
 32 29  1  0  0  0  0
M  END
>  <MODEL>
9

>  <REMARK>
 VINA RESULT:      -5.9      3.516      6.510
  Name = 
  2 active torsions:
  status: ('A' for Active; 'I' for Inactive)
    1  A    between atoms: C_2  and  C_24
    2  A    between atoms: N_10  and  C_24
                            x       y       z     vdW  Elec       q    Type
                         _______ _______ _______ _____ _____    ______ ____

>  <TORSDO>
F 2

$$$$
