=
 OpenBabel11052412233D

 30 32  0  0  1  0  0  0  0  0999 V2000
  182.1830  178.0010  139.8010 C   0  0  1  0  0  3  0  0  0  0  0  0
  181.4840  178.1820  137.3100 C   0  0  2  0  0  3  0  0  0  0  0  0
  181.7790  176.6580  140.0080 O   0  0  0  0  0  0  0  0  0  0  0  0
  181.4990  174.3670  136.3410 C   0  0  0  0  0  2  0  0  0  0  0  0
  183.4040  175.2810  135.6530 C   0  0  0  0  0  2  0  0  0  0  0  0
  180.8690  175.6410  136.9450 C   0  0  2  0  0  3  0  0  0  0  0  0
  179.6470  176.3900  138.9030 C   0  0  0  0  0  2  0  0  0  0  0  0
  180.3870  176.6000  140.2190 C   0  0  0  0  0  2  0  0  0  0  0  0
  181.9860  176.7260  137.1500 C   0  0  1  0  0  3  0  0  0  0  0  0
  182.2420  174.6540  135.1900 O   0  0  0  0  0  0  0  0  0  0  0  0
  180.1990  175.2430  138.2000 N   0  0  0  0  0  0  0  0  0  0  0  0
  179.0440  174.4250  137.8570 C   0  0  0  0  0  1  0  0  0  0  0  0
  181.4010  178.7890  138.7250 C   0  0  2  0  0  3  0  0  0  0  0  0
  182.6510  177.4110  134.9140 O   0  0  0  0  0  1  0  0  0  0  0  0
  183.0690  176.7100  136.0490 C   0  0  2  0  0  3  0  0  0  0  0  0
  181.4390  178.6270  142.2090 C   0  0  1  0  0  3  0  0  0  0  0  0
  181.9560  179.1140  143.5350 C   0  0  0  0  0  3  0  0  0  0  0  0
  179.9520  179.5230  141.8100 Cl  0  0  0  0  0  0  0  0  0  0  0  0
  183.8660  178.3480  141.5850 C   0  0  0  0  0  3  0  0  0  0  0  0
  185.5950  178.1530  143.2990 C   0  0  0  0  0  1  0  0  0  0  0  0
  182.5040  178.7660  141.0980 C   0  0  1  0  0  3  0  0  0  0  0  0
  183.2510  179.0210  143.8460 C   0  0  0  0  0  3  0  0  0  0  0  0
  184.2190  178.5080  142.8630 C   0  0  0  0  0  0  0  0  0  0  0  0
  181.1640  180.1900  135.3060 O   0  0  0  0  0  0  0  0  0  0  0  0
  180.1660  179.4740  135.5810 C   0  0  0  0  0  0  0  0  0  0  0  0
  178.9310  179.6990  134.9110 N   0  0  0  0  0  1  0  0  0  0  0  0
  180.2630  178.4320  136.5510 N   0  0  0  0  0  2  0  0  0  0  0  0
  181.8630  180.1090  138.6710 O   0  0  0  0  0  0  0  0  0  0  0  0
  180.9110  182.4550  137.9580 S   0  0  0  0  0  1  0  0  0  0  0  0
  180.7350  180.9040  138.8790 C   0  0  0  0  0  2  0  0  0  0  0  0
  1  3  1  1  0  0  0
  1 21  1  0  0  0  0
  2 27  1  1  0  0  0
  2 13  1  0  0  0  0
  3  8  1  0  0  0  0
  5 15  1  0  0  0  0
  6  4  1  1  0  0  0
  6  9  1  0  0  0  0
  6 11  1  0  0  0  0
  7  8  1  0  0  0  0
  9  2  1  0  0  0  0
 10  5  1  0  0  0  0
 10  4  1  0  0  0  0
 11  7  1  0  0  0  0
 12 11  1  0  0  0  0
 13  1  1  0  0  0  0
 14 15  1  0  0  0  0
 15  9  1  0  0  0  0
 16 17  1  0  0  0  0
 17 22  2  0  0  0  0
 18 16  1  0  0  0  0
 19 23  2  0  0  0  0
 21 19  1  0  0  0  0
 21 16  1  0  0  0  0
 23 20  1  0  0  0  0
 23 22  1  0  0  0  0
 24 25  2  0  0  0  0
 25 27  1  0  0  0  0
 26 25  1  0  0  0  0
 28 13  1  0  0  0  0
 28 30  1  0  0  0  0
 29 30  1  0  0  0  0
M  END
>  <MODEL>
1

>  <REMARK>
 VINA RESULT:      -5.1      0.000      0.000
  Name = 
  4 active torsions:
  status: ('A' for Active; 'I' for Inactive)
    1  A    between atoms: C_1  and  C_22
    2  A    between atoms: C_4  and  N_25
    3  A    between atoms: O_10  and  C_23
    4  A    between atoms: O_10  and  C_26
                            x       y       z     vdW  Elec       q    Type
                         _______ _______ _______ _____ _____    ______ ____

>  <TORSDO>
F 4

$$$$
=
 OpenBabel11052412233D

 30 32  0  0  1  0  0  0  0  0999 V2000
  183.6880  177.8530  137.8380 C   0  0  1  0  0  3  0  0  0  0  0  0
  181.6360  178.7170  139.1680 C   0  0  2  0  0  3  0  0  0  0  0  0
  183.0870  177.8520  136.5540 O   0  0  0  0  0  0  0  0  0  0  0  0
  179.6630  180.4920  136.2610 C   0  0  0  0  0  2  0  0  0  0  0  0
  180.7850  182.0340  137.4020 C   0  0  0  0  0  2  0  0  0  0  0  0
  180.0950  179.2670  137.0970 C   0  0  2  0  0  3  0  0  0  0  0  0
  180.8510  176.9770  136.8270 C   0  0  0  0  0  2  0  0  0  0  0  0
  182.2880  176.7020  136.3950 C   0  0  0  0  0  2  0  0  0  0  0  0
  181.3500  179.6450  137.9620 C   0  0  1  0  0  3  0  0  0  0  0  0
  179.4900  181.6270  137.0610 O   0  0  0  0  0  0  0  0  0  0  0  0
  180.3470  178.1600  136.1500 N   0  0  0  0  0  0  0  0  0  0  0  0
  179.0690  177.7490  135.5840 C   0  0  0  0  0  1  0  0  0  0  0  0
  182.7340  177.6420  139.0360 C   0  0  2  0  0  3  0  0  0  0  0  0
  180.5450  181.2270  139.6240 O   0  0  0  0  0  1  0  0  0  0  0  0
  181.3290  181.1020  138.4730 C   0  0  2  0  0  3  0  0  0  0  0  0
  185.0750  175.7920  137.0830 C   0  0  1  0  0  3  0  0  0  0  0  0
  186.4830  175.2870  136.9220 C   0  0  0  0  0  3  0  0  0  0  0  0
  184.0900  174.5120  137.8340 Cl  0  0  0  0  0  0  0  0  0  0  0  0
  186.1350  178.0410  137.4990 C   0  0  0  0  0  3  0  0  0  0  0  0
  188.4030  178.5270  136.7380 C   0  0  0  0  0  1  0  0  0  0  0  0
  185.0300  177.1010  137.9020 C   0  0  1  0  0  3  0  0  0  0  0  0
  187.5160  176.1310  136.8760 C   0  0  0  0  0  3  0  0  0  0  0  0
  187.3070  177.5770  137.0590 C   0  0  0  0  0  0  0  0  0  0  0  0
  180.8940  178.8420  141.9230 O   0  0  0  0  0  0  0  0  0  0  0  0
  180.1200  178.2370  141.1350 C   0  0  0  0  0  0  0  0  0  0  0  0
  178.9350  177.6310  141.6380 N   0  0  0  0  0  1  0  0  0  0  0  0
  180.4140  178.1620  139.7400 N   0  0  0  0  0  2  0  0  0  0  0  0
  183.4660  177.6050  140.2280 O   0  0  0  0  0  0  0  0  0  0  0  0
  185.4630  178.9110  141.3340 S   0  0  0  0  0  1  0  0  0  0  0  0
  183.8830  178.9190  140.4470 C   0  0  0  0  0  2  0  0  0  0  0  0
  1  3  1  6  0  0  0
  1 21  1  0  0  0  0
  1 13  1  0  0  0  0
  2 27  1  6  0  0  0
  4 10  1  0  0  0  0
  5 15  1  0  0  0  0
  6  4  1  6  0  0  0
  6  9  1  0  0  0  0
  8  3  1  0  0  0  0
  8  7  1  0  0  0  0
  9 15  1  0  0  0  0
  9  2  1  0  0  0  0
 10  5  1  0  0  0  0
 11  7  1  0  0  0  0
 11  6  1  0  0  0  0
 12 11  1  0  0  0  0
 13  2  1  0  0  0  0
 13 28  1  0  0  0  0
 15 14  1  0  0  0  0
 16 18  1  0  0  0  0
 16 21  1  0  0  0  0
 17 16  1  0  0  0  0
 19 21  1  0  0  0  0
 20 23  1  0  0  0  0
 22 17  2  0  0  0  0
 22 23  1  0  0  0  0
 23 19  2  0  0  0  0
 25 26  1  0  0  0  0
 25 24  2  0  0  0  0
 27 25  1  0  0  0  0
 28 30  1  0  0  0  0
 30 29  1  0  0  0  0
M  END
>  <MODEL>
2

>  <REMARK>
 VINA RESULT:      -4.9      3.133      5.587
  Name = 
  4 active torsions:
  status: ('A' for Active; 'I' for Inactive)
    1  A    between atoms: C_1  and  C_22
    2  A    between atoms: C_4  and  N_25
    3  A    between atoms: O_10  and  C_23
    4  A    between atoms: O_10  and  C_26
                            x       y       z     vdW  Elec       q    Type
                         _______ _______ _______ _____ _____    ______ ____

>  <TORSDO>
F 4

$$$$
=
 OpenBabel11052412233D

 30 32  0  0  1  0  0  0  0  0999 V2000
  189.4840  176.8060  139.8570 C   0  0  1  0  0  3  0  0  0  0  0  0
  190.8750  175.8170  137.9030 C   0  0  2  0  0  3  0  0  0  0  0  0
  188.3470  177.1840  139.0990 O   0  0  0  0  0  0  0  0  0  0  0  0
  187.9750  175.0130  135.3680 C   0  0  0  0  0  2  0  0  0  0  0  0
  188.5280  173.1400  136.4300 C   0  0  0  0  0  2  0  0  0  0  0  0
  188.9980  175.9440  136.0520 C   0  0  2  0  0  3  0  0  0  0  0  0
  189.1650  178.1540  137.0430 C   0  0  0  0  0  2  0  0  0  0  0  0
  188.5920  178.4010  138.4340 C   0  0  0  0  0  2  0  0  0  0  0  0
  189.5440  175.2520  137.3520 C   0  0  1  0  0  3  0  0  0  0  0  0
  188.4990  173.7310  135.1620 O   0  0  0  0  0  0  0  0  0  0  0  0
  188.3140  177.2280  136.3130 N   0  0  0  0  0  0  0  0  0  0  0  0
  188.0670  177.8780  135.0330 C   0  0  0  0  0  1  0  0  0  0  0  0
  190.8320  176.7910  139.0990 C   0  0  2  0  0  3  0  0  0  0  0  0
  190.8880  173.3790  136.5800 O   0  0  0  0  0  1  0  0  0  0  0  0
  189.6920  173.7210  137.2180 C   0  0  2  0  0  3  0  0  0  0  0  0
  188.1480  177.4140  141.9990 C   0  0  1  0  0  3  0  0  0  0  0  0
  188.3020  177.6920  143.4700 C   0  0  0  0  0  3  0  0  0  0  0  0
  187.0490  178.6280  141.2990 Cl  0  0  0  0  0  0  0  0  0  0  0  0
  190.5550  176.6710  142.0860 C   0  0  0  0  0  3  0  0  0  0  0  0
  191.5950  176.0030  144.1920 C   0  0  0  0  0  1  0  0  0  0  0  0
  189.5140  177.3980  141.2780 C   0  0  1  0  0  3  0  0  0  0  0  0
  189.3950  177.3070  144.1320 C   0  0  0  0  0  3  0  0  0  0  0  0
  190.5130  176.6680  143.4200 C   0  0  0  0  0  0  0  0  0  0  0  0
  193.5440  174.9340  137.4040 O   0  0  0  0  0  0  0  0  0  0  0  0
  193.0820  175.8460  136.6690 C   0  0  0  0  0  0  0  0  0  0  0  0
  193.8970  176.4090  135.6480 N   0  0  0  0  0  1  0  0  0  0  0  0
  191.7460  176.3150  136.8440 N   0  0  0  0  0  2  0  0  0  0  0  0
  191.8690  176.4620  139.9790 O   0  0  0  0  0  0  0  0  0  0  0  0
  194.4600  176.8460  140.2190 S   0  0  0  0  0  1  0  0  0  0  0  0
  192.8070  177.4870  139.8440 C   0  0  0  0  0  2  0  0  0  0  0  0
  1  3  1  6  0  0  0
  1 21  1  0  0  0  0
  2 27  1  6  0  0  0
  2 13  1  0  0  0  0
  5 15  1  0  0  0  0
  6  4  1  1  0  0  0
  6 11  1  0  0  0  0
  6  9  1  0  0  0  0
  7  8  1  0  0  0  0
  8  3  1  0  0  0  0
  9  2  1  0  0  0  0
 10  4  1  0  0  0  0
 10  5  1  0  0  0  0
 11  7  1  0  0  0  0
 12 11  1  0  0  0  0
 13  1  1  0  0  0  0
 13 28  1  0  0  0  0
 14 15  1  0  0  0  0
 15  9  1  0  0  0  0
 16 17  1  0  0  0  0
 17 22  2  0  0  0  0
 18 16  1  0  0  0  0
 19 23  2  0  0  0  0
 21 16  1  0  0  0  0
 21 19  1  0  0  0  0
 23 22  1  0  0  0  0
 23 20  1  0  0  0  0
 25 27  1  0  0  0  0
 25 24  2  0  0  0  0
 26 25  1  0  0  0  0
 30 28  1  0  0  0  0
 30 29  1  0  0  0  0
M  END
>  <MODEL>
3

>  <REMARK>
 VINA RESULT:      -4.7      7.690      9.328
  Name = 
  4 active torsions:
  status: ('A' for Active; 'I' for Inactive)
    1  A    between atoms: C_1  and  C_22
    2  A    between atoms: C_4  and  N_25
    3  A    between atoms: O_10  and  C_23
    4  A    between atoms: O_10  and  C_26
                            x       y       z     vdW  Elec       q    Type
                         _______ _______ _______ _____ _____    ______ ____

>  <TORSDO>
F 4

$$$$
=
 OpenBabel11052412233D

 30 32  0  0  1  0  0  0  0  0999 V2000
  183.0970  178.7160  138.0400 C   0  0  1  0  0  3  0  0  0  0  0  0
  184.4020  176.6360  137.2060 C   0  0  2  0  0  3  0  0  0  0  0  0
  184.2160  179.4820  138.4520 O   0  0  0  0  0  0  0  0  0  0  0  0
  187.9130  178.2840  136.5360 C   0  0  0  0  0  2  0  0  0  0  0  0
  186.8280  178.1150  134.6030 C   0  0  0  0  0  2  0  0  0  0  0  0
  186.8300  177.6460  137.4330 C   0  0  2  0  0  3  0  0  0  0  0  0
  185.7280  177.9660  139.5720 C   0  0  0  0  0  2  0  0  0  0  0  0
  184.6610  179.0450  139.7160 C   0  0  0  0  0  2  0  0  0  0  0  0
  185.4620  177.6240  136.6610 C   0  0  1  0  0  3  0  0  0  0  0  0
  187.9700  177.6700  135.2790 O   0  0  0  0  0  0  0  0  0  0  0  0
  186.7850  178.4280  138.6860 N   0  0  0  0  0  0  0  0  0  0  0  0
  188.0190  178.1810  139.4190 C   0  0  0  0  0  1  0  0  0  0  0  0
  183.2650  177.1800  138.0950 C   0  0  2  0  0  3  0  0  0  0  0  0
  185.7520  176.0120  134.8640 O   0  0  0  0  0  1  0  0  0  0  0  0
  185.6150  177.3750  135.1450 C   0  0  2  0  0  3  0  0  0  0  0  0
  181.5930  179.3160  140.0700 C   0  0  1  0  0  3  0  0  0  0  0  0
  180.4100  180.1500  140.4820 C   0  0  0  0  0  3  0  0  0  0  0  0
  181.4150  177.6870  140.7680 Cl  0  0  0  0  0  0  0  0  0  0  0  0
  181.5130  180.6170  137.9120 C   0  0  0  0  0  3  0  0  0  0  0  0
  180.4040  182.7890  137.7880 C   0  0  0  0  0  1  0  0  0  0  0  0
  181.7460  179.2650  138.5340 C   0  0  1  0  0  3  0  0  0  0  0  0
  180.0090  181.1870  139.7440 C   0  0  0  0  0  3  0  0  0  0  0  0
  180.6690  181.4920  138.4630 C   0  0  0  0  0  0  0  0  0  0  0  0
  183.7530  173.9460  136.5030 O   0  0  0  0  0  0  0  0  0  0  0  0
  184.6120  174.1240  137.4060 C   0  0  0  0  0  0  0  0  0  0  0  0
  185.2040  173.0000  138.0470 N   0  0  0  0  0  1  0  0  0  0  0  0
  185.0060  175.4410  137.7870 N   0  0  0  0  0  2  0  0  0  0  0  0
  182.0700  176.5550  137.7220 O   0  0  0  0  0  0  0  0  0  0  0  0
  180.6330  175.7280  135.6810 S   0  0  0  0  0  1  0  0  0  0  0  0
  181.9500  176.7780  136.3490 C   0  0  0  0  0  2  0  0  0  0  0  0
  1 13  1  0  0  0  0
  1  3  1  1  0  0  0
  1 21  1  0  0  0  0
  2 27  1  1  0  0  0
  2 13  1  0  0  0  0
  3  8  1  0  0  0  0
  5 15  1  0  0  0  0
  5 10  1  0  0  0  0
  6  4  1  6  0  0  0
  6 11  1  0  0  0  0
  7  8  1  0  0  0  0
  9  2  1  0  0  0  0
  9  6  1  0  0  0  0
 10  4  1  0  0  0  0
 11 12  1  0  0  0  0
 11  7  1  0  0  0  0
 14 15  1  0  0  0  0
 15  9  1  0  0  0  0
 16 17  1  0  0  0  0
 16 18  1  0  0  0  0
 19 23  2  0  0  0  0
 19 21  1  0  0  0  0
 20 23  1  0  0  0  0
 21 16  1  0  0  0  0
 22 17  2  0  0  0  0
 23 22  1  0  0  0  0
 24 25  2  0  0  0  0
 25 27  1  0  0  0  0
 25 26  1  0  0  0  0
 28 13  1  0  0  0  0
 29 30  1  0  0  0  0
 30 28  1  0  0  0  0
M  END
>  <MODEL>
4

>  <REMARK>
 VINA RESULT:      -4.6      3.434      5.679
  Name = 
  4 active torsions:
  status: ('A' for Active; 'I' for Inactive)
    1  A    between atoms: C_1  and  C_22
    2  A    between atoms: C_4  and  N_25
    3  A    between atoms: O_10  and  C_23
    4  A    between atoms: O_10  and  C_26
                            x       y       z     vdW  Elec       q    Type
                         _______ _______ _______ _____ _____    ______ ____

>  <TORSDO>
F 4

$$$$
=
 OpenBabel11052412233D

 30 32  0  0  1  0  0  0  0  0999 V2000
  184.0090  178.2460  142.2680 C   0  0  1  0  0  3  0  0  0  0  0  0
  182.6160  178.6030  140.1090 C   0  0  2  0  0  3  0  0  0  0  0  0
  182.9260  177.9840  143.1440 O   0  0  0  0  0  0  0  0  0  0  0  0
  179.3510  176.6390  141.0970 C   0  0  0  0  0  2  0  0  0  0  0  0
  180.6080  175.3270  139.8160 C   0  0  0  0  0  2  0  0  0  0  0  0
  180.2760  177.8750  141.0910 C   0  0  2  0  0  3  0  0  0  0  0  0
  181.1790  179.5590  142.5880 C   0  0  0  0  0  2  0  0  0  0  0  0
  182.3170  179.1940  143.5350 C   0  0  0  0  0  2  0  0  0  0  0  0
  181.7090  177.4510  140.6050 C   0  0  1  0  0  3  0  0  0  0  0  0
  179.3680  175.9750  139.8650 O   0  0  0  0  0  0  0  0  0  0  0  0
  180.2630  178.4370  142.4580 N   0  0  0  0  0  0  0  0  0  0  0  0
  178.9430  179.0030  142.7010 C   0  0  0  0  0  1  0  0  0  0  0  0
  183.7000  179.1560  141.0570 C   0  0  2  0  0  3  0  0  0  0  0  0
  181.4620  176.8970  138.2500 O   0  0  0  0  0  1  0  0  0  0  0  0
  181.6900  176.3540  139.5180 C   0  0  2  0  0  3  0  0  0  0  0  0
  185.4030  178.0050  144.4460 C   0  0  1  0  0  3  0  0  0  0  0  0
  186.8120  177.9930  144.9730 C   0  0  0  0  0  3  0  0  0  0  0  0
  184.3970  179.0030  145.5250 Cl  0  0  0  0  0  0  0  0  0  0  0  0
  186.4630  177.9280  142.1600 C   0  0  0  0  0  3  0  0  0  0  0  0
  188.7500  177.1270  141.8560 C   0  0  0  0  0  1  0  0  0  0  0  0
  185.3460  178.5070  142.9860 C   0  0  1  0  0  3  0  0  0  0  0  0
  187.8490  177.7810  144.1600 C   0  0  0  0  0  3  0  0  0  0  0  0
  187.6420  177.6290  142.7100 C   0  0  0  0  0  0  0  0  0  0  0  0
  182.5910  179.2170  137.3210 O   0  0  0  0  0  0  0  0  0  0  0  0
  181.9100  179.9470  138.0870 C   0  0  0  0  0  0  0  0  0  0  0  0
  181.1810  181.0450  137.5500 N   0  0  0  0  0  1  0  0  0  0  0  0
  181.8530  179.6800  139.4880 N   0  0  0  0  0  2  0  0  0  0  0  0
  184.8670  179.3770  140.3170 O   0  0  0  0  0  0  0  0  0  0  0  0
  186.5190  178.2550  138.6060 S   0  0  0  0  0  1  0  0  0  0  0  0
  184.8570  178.4090  139.3120 C   0  0  0  0  0  2  0  0  0  0  0  0
  1 21  1  0  0  0  0
  1  3  1  1  0  0  0
  2 27  1  1  0  0  0
  2  9  1  0  0  0  0
  2 13  1  0  0  0  0
  3  8  1  0  0  0  0
  5 10  1  0  0  0  0
  6  4  1  1  0  0  0
  6 11  1  0  0  0  0
  7  8  1  0  0  0  0
  9  6  1  0  0  0  0
 10  4  1  0  0  0  0
 11  7  1  0  0  0  0
 11 12  1  0  0  0  0
 13  1  1  0  0  0  0
 14 15  1  0  0  0  0
 15  5  1  0  0  0  0
 15  9  1  0  0  0  0
 16 17  1  0  0  0  0
 16 18  1  0  0  0  0
 19 23  2  0  0  0  0
 19 21  1  0  0  0  0
 20 23  1  0  0  0  0
 21 16  1  0  0  0  0
 22 17  2  0  0  0  0
 23 22  1  0  0  0  0
 24 25  2  0  0  0  0
 25 27  1  0  0  0  0
 26 25  1  0  0  0  0
 28 13  1  0  0  0  0
 29 30  1  0  0  0  0
 30 28  1  0  0  0  0
M  END
>  <MODEL>
5

>  <REMARK>
 VINA RESULT:      -4.6      2.962      4.441
  Name = 
  4 active torsions:
  status: ('A' for Active; 'I' for Inactive)
    1  A    between atoms: C_1  and  C_22
    2  A    between atoms: C_4  and  N_25
    3  A    between atoms: O_10  and  C_23
    4  A    between atoms: O_10  and  C_26
                            x       y       z     vdW  Elec       q    Type
                         _______ _______ _______ _____ _____    ______ ____

>  <TORSDO>
F 4

$$$$
=
 OpenBabel11052412233D

 30 32  0  0  1  0  0  0  0  0999 V2000
  181.7530  176.4980  137.7450 C   0  0  1  0  0  3  0  0  0  0  0  0
  182.7550  178.4390  139.1420 C   0  0  2  0  0  3  0  0  0  0  0  0
  180.4080  176.6430  138.1670 O   0  0  0  0  0  0  0  0  0  0  0  0
  179.5100  180.5950  139.7020 C   0  0  0  0  0  2  0  0  0  0  0  0
  180.6710  181.4820  138.0270 C   0  0  0  0  0  2  0  0  0  0  0  0
  180.4750  179.4340  140.0250 C   0  0  2  0  0  3  0  0  0  0  0  0
  180.4620  177.0630  140.5460 C   0  0  0  0  0  2  0  0  0  0  0  0
  180.2310  176.0480  139.4320 C   0  0  0  0  0  2  0  0  0  0  0  0
  181.4620  179.2270  138.8210 C   0  0  1  0  0  3  0  0  0  0  0  0
  180.2010  181.7500  139.3180 O   0  0  0  0  0  0  0  0  0  0  0  0
  179.6470  178.2450  140.3160 N   0  0  0  0  0  0  0  0  0  0  0  0
  178.9560  178.4730  141.5790 C   0  0  0  0  0  1  0  0  0  0  0  0
  182.8360  176.9490  138.7520 C   0  0  2  0  0  3  0  0  0  0  0  0
  182.8970  181.1900  138.8070 O   0  0  0  0  0  1  0  0  0  0  0  0
  181.8640  180.5440  138.1210 C   0  0  2  0  0  3  0  0  0  0  0  0
  182.2980  175.3490  135.4810 C   0  0  1  0  0  3  0  0  0  0  0  0
  182.8800  174.0980  134.8790 C   0  0  0  0  0  3  0  0  0  0  0  0
  180.8110  175.7710  134.5960 Cl  0  0  0  0  0  0  0  0  0  0  0  0
  183.1710  174.4670  137.6750 C   0  0  0  0  0  3  0  0  0  0  0  0
  184.9620  172.8100  137.7470 C   0  0  0  0  0  1  0  0  0  0  0  0
  182.0350  175.1830  136.9940 C   0  0  1  0  0  3  0  0  0  0  0  0
  183.6550  173.2840  135.6000 C   0  0  0  0  0  3  0  0  0  0  0  0
  183.8960  173.5530  137.0270 C   0  0  0  0  0  0  0  0  0  0  0  0
  185.3790  179.2690  139.9050 O   0  0  0  0  0  0  0  0  0  0  0  0
  184.5460  179.0450  140.8220 C   0  0  0  0  0  0  0  0  0  0  0  0
  184.9390  179.1900  142.1820 N   0  0  0  0  0  1  0  0  0  0  0  0
  183.2090  178.6550  140.5120 N   0  0  0  0  0  2  0  0  0  0  0  0
  184.1080  176.6930  138.2310 O   0  0  0  0  0  0  0  0  0  0  0  0
  185.6180  177.1630  136.1300 S   0  0  0  0  0  1  0  0  0  0  0  0
  184.3300  177.6970  137.2880 C   0  0  0  0  0  2  0  0  0  0  0  0
  1  3  1  1  0  0  0
  1 13  1  0  0  0  0
  2 27  1  1  0  0  0
  3  8  1  0  0  0  0
  5 15  1  0  0  0  0
  5 10  1  0  0  0  0
  6  4  1  6  0  0  0
  6 11  1  0  0  0  0
  8  7  1  0  0  0  0
  9  2  1  0  0  0  0
  9  6  1  0  0  0  0
 10  4  1  0  0  0  0
 11  7  1  0  0  0  0
 11 12  1  0  0  0  0
 13  2  1  0  0  0  0
 15 14  1  0  0  0  0
 15  9  1  0  0  0  0
 16 21  1  0  0  0  0
 17 16  1  0  0  0  0
 17 22  2  0  0  0  0
 18 16  1  0  0  0  0
 21 19  1  0  0  0  0
 21  1  1  0  0  0  0
 22 23  1  0  0  0  0
 23 19  2  0  0  0  0
 23 20  1  0  0  0  0
 24 25  2  0  0  0  0
 25 26  1  0  0  0  0
 27 25  1  0  0  0  0
 28 13  1  0  0  0  0
 29 30  1  0  0  0  0
 30 28  1  0  0  0  0
M  END
>  <MODEL>
6

>  <REMARK>
 VINA RESULT:      -4.5      3.231      6.145
  Name = 
  4 active torsions:
  status: ('A' for Active; 'I' for Inactive)
    1  A    between atoms: C_1  and  C_22
    2  A    between atoms: C_4  and  N_25
    3  A    between atoms: O_10  and  C_23
    4  A    between atoms: O_10  and  C_26
                            x       y       z     vdW  Elec       q    Type
                         _______ _______ _______ _____ _____    ______ ____

>  <TORSDO>
F 4

$$$$
=
 OpenBabel11052412233D

 30 32  0  0  1  0  0  0  0  0999 V2000
  183.2750  178.2550  140.9660 C   0  0  1  0  0  3  0  0  0  0  0  0
  184.1810  177.2810  138.7390 C   0  0  2  0  0  3  0  0  0  0  0  0
  181.9890  178.6210  140.4960 O   0  0  0  0  0  0  0  0  0  0  0  0
  180.7770  176.4460  136.9490 C   0  0  0  0  0  2  0  0  0  0  0  0
  181.5830  174.5790  137.8480 C   0  0  0  0  0  2  0  0  0  0  0  0
  181.9230  177.3880  137.3780 C   0  0  2  0  0  3  0  0  0  0  0  0
  182.2940  179.5990  138.3070 C   0  0  0  0  0  2  0  0  0  0  0  0
  182.0590  179.8410  139.7940 C   0  0  0  0  0  2  0  0  0  0  0  0
  182.7640  176.7020  138.5130 C   0  0  1  0  0  3  0  0  0  0  0  0
  181.2520  175.1700  136.6230 O   0  0  0  0  0  0  0  0  0  0  0  0
  181.3060  178.6640  137.7940 N   0  0  0  0  0  0  0  0  0  0  0  0
  180.7600  179.3120  136.6090 C   0  0  0  0  0  1  0  0  0  0  0  0
  184.4090  178.2540  139.9140 C   0  0  2  0  0  3  0  0  0  0  0  0
  183.9100  174.8420  137.4440 O   0  0  0  0  0  1  0  0  0  0  0  0
  182.8920  175.1720  138.3450 C   0  0  2  0  0  3  0  0  0  0  0  0
  182.5310  178.6900  143.4150 C   0  0  1  0  0  3  0  0  0  0  0  0
  183.0560  178.9870  144.7940 C   0  0  0  0  0  3  0  0  0  0  0  0
  181.1390  179.7530  143.0920 Cl  0  0  0  0  0  0  0  0  0  0  0  0
  184.9380  178.2600  142.8020 C   0  0  0  0  0  3  0  0  0  0  0  0
  186.6010  177.7320  144.5100 C   0  0  0  0  0  1  0  0  0  0  0  0
  183.6310  178.8480  142.3420 C   0  0  1  0  0  3  0  0  0  0  0  0
  184.3300  178.7450  145.1120 C   0  0  0  0  0  3  0  0  0  0  0  0
  185.2730  178.2530  144.0940 C   0  0  0  0  0  0  0  0  0  0  0  0
  186.6360  176.3780  137.5940 O   0  0  0  0  0  0  0  0  0  0  0  0
  186.0230  177.3070  137.0060 C   0  0  0  0  0  0  0  0  0  0  0  0
  186.5730  177.8790  135.8250 N   0  0  0  0  0  1  0  0  0  0  0  0
  184.7760  177.7870  137.5070 N   0  0  0  0  0  2  0  0  0  0  0  0
  185.6260  177.9360  140.5260 O   0  0  0  0  0  0  0  0  0  0  0  0
  188.2250  178.2530  140.2810 S   0  0  0  0  0  1  0  0  0  0  0  0
  186.5400  178.8730  140.0410 C   0  0  0  0  0  2  0  0  0  0  0  0
  1  3  1  6  0  0  0
  1 21  1  0  0  0  0
  2 27  1  6  0  0  0
  2 13  1  0  0  0  0
  5 15  1  0  0  0  0
  6  4  1  1  0  0  0
  6 11  1  0  0  0  0
  6  9  1  0  0  0  0
  7  8  1  0  0  0  0
  8  3  1  0  0  0  0
  9  2  1  0  0  0  0
 10  4  1  0  0  0  0
 10  5  1  0  0  0  0
 11  7  1  0  0  0  0
 12 11  1  0  0  0  0
 13 28  1  0  0  0  0
 13  1  1  0  0  0  0
 14 15  1  0  0  0  0
 15  9  1  0  0  0  0
 16 17  1  0  0  0  0
 17 22  2  0  0  0  0
 18 16  1  0  0  0  0
 19 23  2  0  0  0  0
 21 19  1  0  0  0  0
 21 16  1  0  0  0  0
 23 20  1  0  0  0  0
 23 22  1  0  0  0  0
 25 27  1  0  0  0  0
 25 24  2  0  0  0  0
 26 25  1  0  0  0  0
 30 29  1  0  0  0  0
 30 28  1  0  0  0  0
M  END
>  <MODEL>
7

>  <REMARK>
 VINA RESULT:      -4.3      2.918      4.007
  Name = 
  4 active torsions:
  status: ('A' for Active; 'I' for Inactive)
    1  A    between atoms: C_1  and  C_22
    2  A    between atoms: C_4  and  N_25
    3  A    between atoms: O_10  and  C_23
    4  A    between atoms: O_10  and  C_26
                            x       y       z     vdW  Elec       q    Type
                         _______ _______ _______ _____ _____    ______ ____

>  <TORSDO>
F 4

$$$$
=
 OpenBabel11052412233D

 30 32  0  0  1  0  0  0  0  0999 V2000
  181.6860  176.5900  138.2060 C   0  0  1  0  0  3  0  0  0  0  0  0
  181.2080  179.0000  139.0350 C   0  0  2  0  0  3  0  0  0  0  0  0
  182.7880  176.3190  139.0560 O   0  0  0  0  0  0  0  0  0  0  0  0
  182.8800  178.8200  142.5930 C   0  0  0  0  0  2  0  0  0  0  0  0
  180.6880  178.5330  142.8240 C   0  0  0  0  0  2  0  0  0  0  0  0
  182.9000  179.0050  141.0600 C   0  0  2  0  0  3  0  0  0  0  0  0
  184.1490  178.3150  139.0970 C   0  0  0  0  0  2  0  0  0  0  0  0
  183.9560  176.9100  138.5360 C   0  0  0  0  0  2  0  0  0  0  0  0
  181.5450  178.4890  140.4560 C   0  0  1  0  0  3  0  0  0  0  0  0
  181.7390  179.3920  143.1670 O   0  0  0  0  0  0  0  0  0  0  0  0
  184.0840  178.2830  140.5490 N   0  0  0  0  0  0  0  0  0  0  0  0
  185.2750  178.9950  140.9910 C   0  0  0  0  0  1  0  0  0  0  0  0
  181.4650  178.0730  137.8290 C   0  0  2  0  0  3  0  0  0  0  0  0
  179.8520  180.0640  141.2090 O   0  0  0  0  0  1  0  0  0  0  0  0
  180.3250  178.7570  141.3640 C   0  0  2  0  0  3  0  0  0  0  0  0
  182.8070  175.2240  136.3030 C   0  0  1  0  0  3  0  0  0  0  0  0
  182.6330  174.0050  135.4380 C   0  0  0  0  0  3  0  0  0  0  0  0
  183.3480  176.5780  135.2790 Cl  0  0  0  0  0  0  0  0  0  0  0  0
  180.8490  174.3340  137.6170 C   0  0  0  0  0  3  0  0  0  0  0  0
  180.2310  171.9740  137.5170 C   0  0  0  0  0  1  0  0  0  0  0  0
  181.5090  175.5700  137.0660 C   0  0  1  0  0  3  0  0  0  0  0  0
  181.7920  173.0290  135.7870 C   0  0  0  0  0  3  0  0  0  0  0  0
  180.9530  173.1600  136.9900 C   0  0  0  0  0  0  0  0  0  0  0  0
  179.6610  181.2360  138.1600 O   0  0  0  0  0  0  0  0  0  0  0  0
  180.8970  181.4090  138.3280 C   0  0  0  0  0  0  0  0  0  0  0  0
  181.4730  182.6820  138.0620 N   0  0  0  0  0  1  0  0  0  0  0  0
  181.7250  180.3430  138.7920 N   0  0  0  0  0  2  0  0  0  0  0  0
  180.3890  178.1850  136.9430 O   0  0  0  0  0  0  0  0  0  0  0  0
  179.5430  179.6170  134.9060 S   0  0  0  0  0  1  0  0  0  0  0  0
  180.9000  178.8390  135.8210 C   0  0  0  0  0  2  0  0  0  0  0  0
  1  3  1  6  0  0  0
  2 27  1  6  0  0  0
  2  9  1  0  0  0  0
  4 10  1  0  0  0  0
  5 10  1  0  0  0  0
  6  4  1  1  0  0  0
  7 11  1  0  0  0  0
  8  3  1  0  0  0  0
  8  7  1  0  0  0  0
  9  6  1  0  0  0  0
  9 15  1  0  0  0  0
 11 12  1  0  0  0  0
 11  6  1  0  0  0  0
 13  1  1  0  0  0  0
 13  2  1  0  0  0  0
 14 15  1  0  0  0  0
 15  5  1  0  0  0  0
 16 21  1  0  0  0  0
 17 22  2  0  0  0  0
 17 16  1  0  0  0  0
 18 16  1  0  0  0  0
 21 19  1  0  0  0  0
 21  1  1  0  0  0  0
 22 23  1  0  0  0  0
 23 20  1  0  0  0  0
 23 19  2  0  0  0  0
 24 25  2  0  0  0  0
 25 27  1  0  0  0  0
 26 25  1  0  0  0  0
 28 13  1  0  0  0  0
 29 30  1  0  0  0  0
 30 28  1  0  0  0  0
M  END
>  <MODEL>
8

>  <REMARK>
 VINA RESULT:      -4.3      2.756      6.214
  Name = 
  4 active torsions:
  status: ('A' for Active; 'I' for Inactive)
    1  A    between atoms: C_1  and  C_22
    2  A    between atoms: C_4  and  N_25
    3  A    between atoms: O_10  and  C_23
    4  A    between atoms: O_10  and  C_26
                            x       y       z     vdW  Elec       q    Type
                         _______ _______ _______ _____ _____    ______ ____

>  <TORSDO>
F 4

$$$$
=
 OpenBabel11052412233D

 30 32  0  0  1  0  0  0  0  0999 V2000
  183.5490  178.8800  138.4600 C   0  0  1  0  0  3  0  0  0  0  0  0
  184.5840  176.7520  137.3980 C   0  0  2  0  0  3  0  0  0  0  0  0
  184.7640  179.5400  138.7700 O   0  0  0  0  0  0  0  0  0  0  0  0
  188.1170  178.1670  136.3940 C   0  0  0  0  0  2  0  0  0  0  0  0
  186.8120  178.1730  134.5940 C   0  0  0  0  0  2  0  0  0  0  0  0
  187.0940  177.5670  137.3830 C   0  0  2  0  0  3  0  0  0  0  0  0
  186.2680  177.8630  139.6460 C   0  0  0  0  0  2  0  0  0  0  0  0
  185.3120  179.0100  139.9560 C   0  0  0  0  0  2  0  0  0  0  0  0
  185.6510  177.6840  136.7740 C   0  0  1  0  0  3  0  0  0  0  0  0
  187.9840  177.6130  135.1150 O   0  0  0  0  0  0  0  0  0  0  0  0
  187.2520  178.2880  138.6640 N   0  0  0  0  0  0  0  0  0  0  0  0
  188.5370  177.9160  139.2380 C   0  0  0  0  0  1  0  0  0  0  0  0
  183.6000  177.3350  138.4330 C   0  0  2  0  0  3  0  0  0  0  0  0
  185.6090  176.1450  134.8920 O   0  0  0  0  0  1  0  0  0  0  0  0
  185.6130  177.4990  135.2420 C   0  0  2  0  0  3  0  0  0  0  0  0
  180.9860  179.2850  138.3610 C   0  0  1  0  0  3  0  0  0  0  0  0
  179.7910  179.6230  139.2110 C   0  0  0  0  0  3  0  0  0  0  0  0
  180.9210  180.2580  136.8700 Cl  0  0  0  0  0  0  0  0  0  0  0  0
  182.2150  179.0000  140.5440 C   0  0  0  0  0  3  0  0  0  0  0  0
  181.0090  178.5880  142.6270 C   0  0  0  0  0  1  0  0  0  0  0  0
  182.3090  179.5030  139.1280 C   0  0  1  0  0  3  0  0  0  0  0  0
  179.8220  179.4630  140.5360 C   0  0  0  0  0  3  0  0  0  0  0  0
  181.0560  179.0230  141.2070 C   0  0  0  0  0  0  0  0  0  0  0  0
  183.6800  174.1550  136.6300 O   0  0  0  0  0  0  0  0  0  0  0  0
  184.6310  174.2240  137.4520 C   0  0  0  0  0  0  0  0  0  0  0  0
  185.1980  173.0290  137.9750 N   0  0  0  0  0  1  0  0  0  0  0  0
  185.1530  175.4890  137.8570 N   0  0  0  0  0  2  0  0  0  0  0  0
  182.3250  176.8190  138.1750 O   0  0  0  0  0  0  0  0  0  0  0  0
  180.3140  175.7140  139.4590 S   0  0  0  0  0  1  0  0  0  0  0  0
  182.0970  175.8790  139.1810 C   0  0  0  0  0  2  0  0  0  0  0  0
  1  3  1  1  0  0  0
  1 21  1  0  0  0  0
  2 27  1  1  0  0  0
  2 13  1  0  0  0  0
  3  8  1  0  0  0  0
  5 10  1  0  0  0  0
  5 15  1  0  0  0  0
  6  4  1  6  0  0  0
  6 11  1  0  0  0  0
  7  8  1  0  0  0  0
  9  6  1  0  0  0  0
  9  2  1  0  0  0  0
 10  4  1  0  0  0  0
 11 12  1  0  0  0  0
 11  7  1  0  0  0  0
 13  1  1  0  0  0  0
 14 15  1  0  0  0  0
 15  9  1  0  0  0  0
 16 21  1  0  0  0  0
 16 17  1  0  0  0  0
 17 22  2  0  0  0  0
 18 16  1  0  0  0  0
 19 23  2  0  0  0  0
 21 19  1  0  0  0  0
 22 23  1  0  0  0  0
 23 20  1  0  0  0  0
 24 25  2  0  0  0  0
 25 27  1  0  0  0  0
 25 26  1  0  0  0  0
 28 13  1  0  0  0  0
 28 30  1  0  0  0  0
 30 29  1  0  0  0  0
M  END
>  <MODEL>
9

>  <REMARK>
 VINA RESULT:      -4.3      3.624      5.535
  Name = 
  4 active torsions:
  status: ('A' for Active; 'I' for Inactive)
    1  A    between atoms: C_1  and  C_22
    2  A    between atoms: C_4  and  N_25
    3  A    between atoms: O_10  and  C_23
    4  A    between atoms: O_10  and  C_26
                            x       y       z     vdW  Elec       q    Type
                         _______ _______ _______ _____ _____    ______ ____

>  <TORSDO>
F 4

$$$$
