=
 OpenBabel11052412403D

 25 27  0  0  1  0  0  0  0  0999 V2000
  187.5300  177.9270  146.1740 C   0  0  0  0  0  0  0  0  0  0  0  0
  188.8030  177.6080  145.6360 C   0  0  0  0  0  0  0  0  0  0  0  0
  188.4520  177.7840  148.4180 C   0  0  0  0  0  3  0  0  0  0  0  0
  189.6980  177.4510  147.8940 C   0  0  0  0  0  3  0  0  0  0  0  0
  191.2810  177.0600  145.9870 C   0  0  1  0  0  3  0  0  0  0  0  0
  191.9220  175.8810  146.7010 C   0  0  0  0  0  1  0  0  0  0  0  0
  189.0000  177.5340  144.1430 C   0  0  0  0  0  2  0  0  0  0  0  0
  187.3770  178.0150  147.5640 C   0  0  0  0  0  3  0  0  0  0  0  0
  191.3280  176.7980  144.4840 C   0  0  0  0  0  2  0  0  0  0  0  0
  190.4450  177.7920  143.7450 C   0  0  1  0  0  3  0  0  0  0  0  0
  189.8850  177.3330  146.5110 C   0  0  0  0  0  0  0  0  0  0  0  0
  186.3430  178.1680  145.3190 C   0  0  0  0  0  0  0  0  0  0  0  0
  184.0950  178.5550  143.6770 C   0  0  0  0  0  3  0  0  0  0  0  0
  185.1180  178.5890  145.8740 C   0  0  0  0  0  0  0  0  0  0  0  0
  184.0040  178.7850  145.0510 C   0  0  0  0  0  3  0  0  0  0  0  0
  185.3030  178.1290  143.1200 C   0  0  0  0  0  3  0  0  0  0  0  0
  185.0030  178.8360  147.2020 F   0  0  0  0  0  0  0  0  0  0  0  0
  186.4190  177.9340  143.9360 C   0  0  0  0  0  3  0  0  0  0  0  0
  190.5890  177.6100  142.2460 C   0  0  0  0  0  2  0  0  0  0  0  0
  189.2690  177.1640  141.6380 C   0  0  0  0  0  2  0  0  0  0  0  0
  189.3420  177.2110  140.1200 C   0  0  2  0  0  3  0  0  0  0  0  0
  190.7840  177.3370  139.6550 C   0  0  0  0  0  1  0  0  0  0  0  0
  188.5310  178.3520  139.5970 C   0  0  0  0  0  0  0  0  0  0  0  0
  187.2740  178.6000  140.1280 O   0  0  0  0  0  1  0  0  0  0  0  0
  188.9780  179.0910  138.6780 O   0  0  0  0  0  0  0  0  0  0  0  0
  1  8  1  0  0  0  0
  2  1  2  0  0  0  0
  2 11  1  0  0  0  0
  4  3  1  0  0  0  0
  5 11  1  0  0  0  0
  5  6  1  1  0  0  0
  7  2  1  0  0  0  0
  8  3  2  0  0  0  0
  9  5  1  0  0  0  0
 10 19  1  6  0  0  0
 10  7  1  0  0  0  0
 10  9  1  0  0  0  0
 11  4  2  0  0  0  0
 12 14  1  0  0  0  0
 12  1  1  0  0  0  0
 13 15  1  0  0  0  0
 14 17  1  0  0  0  0
 15 14  2  0  0  0  0
 16 13  2  0  0  0  0
 16 18  1  0  0  0  0
 18 12  2  0  0  0  0
 20 19  1  0  0  0  0
 21 22  1  1  0  0  0
 21 20  1  0  0  0  0
 23 21  1  0  0  0  0
 23 24  1  0  0  0  0
 25 23  2  0  0  0  0
M  END
>  <MODEL>
1

>  <REMARK>
 VINA RESULT:     -10.9      0.000      0.000
  Name = 
  5 active torsions:
  status: ('A' for Active; 'I' for Inactive)
    1  A    between atoms: C_1  and  C_5
    2  A    between atoms: C_2  and  C_21
    3  A    between atoms: C_6  and  C_15
    4  A    between atoms: C_6  and  C_23
    5  A    between atoms: C_15  and  C_21
                            x       y       z     vdW  Elec       q    Type
                         _______ _______ _______ _____ _____    ______ ____

>  <TORSDO>
F 5

$$$$
=
 OpenBabel11052412403D

 25 27  0  0  1  0  0  0  0  0999 V2000
  190.5970  176.8420  144.7520 C   0  0  0  0  0  0  0  0  0  0  0  0
  189.4340  177.2110  145.4740 C   0  0  0  0  0  0  0  0  0  0  0  0
  191.6770  176.2070  146.8340 C   0  0  0  0  0  3  0  0  0  0  0  0
  190.5440  176.5860  147.5470 C   0  0  0  0  0  3  0  0  0  0  0  0
  188.1840  177.4250  147.7010 C   0  0  1  0  0  3  0  0  0  0  0  0
  188.5130  178.2680  148.9210 C   0  0  0  0  0  1  0  0  0  0  0  0
  188.2200  177.7310  144.7440 C   0  0  0  0  0  2  0  0  0  0  0  0
  191.7040  176.3380  145.4480 C   0  0  0  0  0  3  0  0  0  0  0  0
  187.0950  178.1370  146.9010 C   0  0  0  0  0  2  0  0  0  0  0  0
  186.9390  177.4960  145.5300 C   0  0  1  0  0  3  0  0  0  0  0  0
  189.4260  177.1130  146.8880 C   0  0  0  0  0  0  0  0  0  0  0  0
  190.6940  176.9750  143.2780 C   0  0  0  0  0  0  0  0  0  0  0  0
  190.9440  177.2000  140.4880 C   0  0  0  0  0  3  0  0  0  0  0  0
  189.7970  176.3020  142.4250 C   0  0  0  0  0  0  0  0  0  0  0  0
  189.9230  176.4210  141.0370 C   0  0  0  0  0  3  0  0  0  0  0  0
  191.8430  177.8630  141.3260 C   0  0  0  0  0  3  0  0  0  0  0  0
  188.7860  175.5520  142.9290 F   0  0  0  0  0  0  0  0  0  0  0  0
  191.7190  177.7500  142.7120 C   0  0  0  0  0  3  0  0  0  0  0  0
  185.7760  178.1230  144.7860 C   0  0  0  0  0  2  0  0  0  0  0  0
  185.9130  177.8820  143.2910 C   0  0  0  0  0  2  0  0  0  0  0  0
  185.1690  178.9530  142.5110 C   0  0  2  0  0  3  0  0  0  0  0  0
  183.6800  178.6500  142.4660 C   0  0  0  0  0  1  0  0  0  0  0  0
  185.7140  179.0580  141.1250 C   0  0  0  0  0  0  0  0  0  0  0  0
  184.9450  179.6400  140.1270 O   0  0  0  0  0  0  0  0  0  0  0  0
  186.8670  178.6250  140.8520 O   0  0  0  0  0  1  0  0  0  0  0  0
  1  8  2  0  0  0  0
  1  2  1  0  0  0  0
  2 11  2  0  0  0  0
  3  4  2  0  0  0  0
  5  6  1  1  0  0  0
  7  2  1  0  0  0  0
  7 10  1  0  0  0  0
  8  3  1  0  0  0  0
  9  5  1  0  0  0  0
 10 19  1  6  0  0  0
 10  9  1  0  0  0  0
 11  4  1  0  0  0  0
 11  5  1  0  0  0  0
 12  1  1  0  0  0  0
 13 15  2  0  0  0  0
 13 16  1  0  0  0  0
 14 17  1  0  0  0  0
 14 12  2  0  0  0  0
 15 14  1  0  0  0  0
 16 18  2  0  0  0  0
 18 12  1  0  0  0  0
 20 19  1  0  0  0  0
 21 22  1  6  0  0  0
 21 20  1  0  0  0  0
 23 21  1  0  0  0  0
 24 23  2  0  0  0  0
 25 23  1  0  0  0  0
M  END
>  <MODEL>
2

>  <REMARK>
 VINA RESULT:     -10.9      1.823      4.855
  Name = 
  5 active torsions:
  status: ('A' for Active; 'I' for Inactive)
    1  A    between atoms: C_1  and  C_5
    2  A    between atoms: C_2  and  C_21
    3  A    between atoms: C_6  and  C_15
    4  A    between atoms: C_6  and  C_23
    5  A    between atoms: C_15  and  C_21
                            x       y       z     vdW  Elec       q    Type
                         _______ _______ _______ _____ _____    ______ ____

>  <TORSDO>
F 5

$$$$
=
 OpenBabel11052412403D

 25 27  0  0  1  0  0  0  0  0999 V2000
  190.5360  176.8520  144.8610 C   0  0  0  0  0  0  0  0  0  0  0  0
  189.3230  177.2100  145.5010 C   0  0  0  0  0  0  0  0  0  0  0  0
  191.4780  176.2260  147.0120 C   0  0  0  0  0  3  0  0  0  0  0  0
  190.2950  176.5950  147.6460 C   0  0  0  0  0  3  0  0  0  0  0  0
  187.9220  177.4120  147.6380 C   0  0  1  0  0  3  0  0  0  0  0  0
  188.1600  178.2580  148.8780 C   0  0  0  0  0  1  0  0  0  0  0  0
  188.1560  177.7180  144.6910 C   0  0  0  0  0  2  0  0  0  0  0  0
  191.5970  176.3580  145.6310 C   0  0  0  0  0  3  0  0  0  0  0  0
  186.8840  178.1140  146.7660 C   0  0  0  0  0  2  0  0  0  0  0  0
  186.8280  177.4720  145.3880 C   0  0  1  0  0  3  0  0  0  0  0  0
  189.2200  177.1120  146.9130 C   0  0  0  0  0  0  0  0  0  0  0  0
  190.7320  176.9860  143.3960 C   0  0  0  0  0  0  0  0  0  0  0  0
  191.0330  177.2520  140.6150 C   0  0  0  0  0  3  0  0  0  0  0  0
  191.5970  177.9620  142.8630 C   0  0  0  0  0  0  0  0  0  0  0  0
  191.7460  178.0870  141.4790 C   0  0  0  0  0  3  0  0  0  0  0  0
  190.1670  176.2880  141.1360 C   0  0  0  0  0  3  0  0  0  0  0  0
  192.3150  178.7760  143.6760 F   0  0  0  0  0  0  0  0  0  0  0  0
  190.0160  176.1570  142.5180 C   0  0  0  0  0  3  0  0  0  0  0  0
  185.7120  178.0880  144.5660 C   0  0  0  0  0  2  0  0  0  0  0  0
  186.0690  178.0650  143.0890 C   0  0  0  0  0  2  0  0  0  0  0  0
  185.1020  178.9300  142.2960 C   0  0  2  0  0  3  0  0  0  0  0  0
  183.7170  178.3020  142.2700 C   0  0  0  0  0  1  0  0  0  0  0  0
  185.6040  179.1260  140.9030 C   0  0  0  0  0  0  0  0  0  0  0  0
  186.8770  178.6920  140.5650 O   0  0  0  0  0  1  0  0  0  0  0  0
  184.8820  179.6820  140.0310 O   0  0  0  0  0  0  0  0  0  0  0  0
  1  2  2  0  0  0  0
  1  8  1  0  0  0  0
  2 11  1  0  0  0  0
  3  4  1  0  0  0  0
  5  6  1  1  0  0  0
  7 10  1  0  0  0  0
  7  2  1  0  0  0  0
  8  3  2  0  0  0  0
  9  5  1  0  0  0  0
 10 19  1  6  0  0  0
 10  9  1  0  0  0  0
 11  5  1  0  0  0  0
 11  4  2  0  0  0  0
 12  1  1  0  0  0  0
 13 16  2  0  0  0  0
 13 15  1  0  0  0  0
 14 12  1  0  0  0  0
 14 17  1  0  0  0  0
 15 14  2  0  0  0  0
 16 18  1  0  0  0  0
 18 12  2  0  0  0  0
 20 19  1  0  0  0  0
 21 22  1  6  0  0  0
 21 20  1  0  0  0  0
 23 21  1  0  0  0  0
 24 23  1  0  0  0  0
 25 23  2  0  0  0  0
M  END
>  <MODEL>
3

>  <REMARK>
 VINA RESULT:     -10.6      2.080      4.954
  Name = 
  5 active torsions:
  status: ('A' for Active; 'I' for Inactive)
    1  A    between atoms: C_1  and  C_5
    2  A    between atoms: C_2  and  C_21
    3  A    between atoms: C_6  and  C_15
    4  A    between atoms: C_6  and  C_23
    5  A    between atoms: C_15  and  C_21
                            x       y       z     vdW  Elec       q    Type
                         _______ _______ _______ _____ _____    ______ ____

>  <TORSDO>
F 5

$$$$
=
 OpenBabel11052412403D

 25 27  0  0  1  0  0  0  0  0999 V2000
  189.2440  177.3970  145.0490 C   0  0  0  0  0  0  0  0  0  0  0  0
  187.9420  177.8790  145.3390 C   0  0  0  0  0  0  0  0  0  0  0  0
  189.6450  177.0770  147.4250 C   0  0  0  0  0  3  0  0  0  0  0  0
  188.3750  177.5680  147.7140 C   0  0  0  0  0  3  0  0  0  0  0  0
  186.1160  178.4370  147.0480 C   0  0  1  0  0  3  0  0  0  0  0  0
  186.1230  179.4530  148.1780 C   0  0  0  0  0  1  0  0  0  0  0  0
  187.0180  178.2910  144.2200 C   0  0  0  0  0  2  0  0  0  0  0  0
  190.0760  176.9970  146.1040 C   0  0  0  0  0  3  0  0  0  0  0  0
  185.3420  179.0260  145.8720 C   0  0  0  0  0  2  0  0  0  0  0  0
  185.5550  178.1860  144.6220 C   0  0  1  0  0  3  0  0  0  0  0  0
  187.5220  177.9970  146.6880 C   0  0  0  0  0  0  0  0  0  0  0  0
  189.7680  177.3040  143.6650 C   0  0  0  0  0  0  0  0  0  0  0  0
  190.8260  177.1120  141.0690 C   0  0  0  0  0  3  0  0  0  0  0  0
  189.2290  176.3870  142.7420 C   0  0  0  0  0  0  0  0  0  0  0  0
  189.7560  176.2980  141.4500 C   0  0  0  0  0  3  0  0  0  0  0  0
  191.3720  178.0180  141.9800 C   0  0  0  0  0  3  0  0  0  0  0  0
  188.1800  175.5950  143.0770 F   0  0  0  0  0  0  0  0  0  0  0  0
  190.8470  178.1120  143.2710 C   0  0  0  0  0  3  0  0  0  0  0  0
  184.6890  178.7010  143.4880 C   0  0  0  0  0  2  0  0  0  0  0  0
  185.2160  178.2030  142.1520 C   0  0  0  0  0  2  0  0  0  0  0  0
  184.2650  178.5870  141.0310 C   0  0  2  0  0  3  0  0  0  0  0  0
  183.4310  177.3900  140.6010 C   0  0  0  0  0  1  0  0  0  0  0  0
  185.0270  179.1280  139.8660 C   0  0  0  0  0  0  0  0  0  0  0  0
  184.4980  180.1770  139.1280 O   0  0  0  0  0  0  0  0  0  0  0  0
  186.1450  178.6410  139.5470 O   0  0  0  0  0  1  0  0  0  0  0  0
  1  2  2  0  0  0  0
  1  8  1  0  0  0  0
  2 11  1  0  0  0  0
  3  4  1  0  0  0  0
  5  6  1  1  0  0  0
  7 10  1  0  0  0  0
  7  2  1  0  0  0  0
  8  3  2  0  0  0  0
  9  5  1  0  0  0  0
 10 19  1  6  0  0  0
 10  9  1  0  0  0  0
 11  5  1  0  0  0  0
 11  4  2  0  0  0  0
 12  1  1  0  0  0  0
 13 15  2  0  0  0  0
 13 16  1  0  0  0  0
 14 17  1  0  0  0  0
 14 12  2  0  0  0  0
 15 14  1  0  0  0  0
 16 18  2  0  0  0  0
 18 12  1  0  0  0  0
 20 19  1  0  0  0  0
 21 22  1  6  0  0  0
 21 20  1  0  0  0  0
 23 21  1  0  0  0  0
 24 23  2  0  0  0  0
 25 23  1  0  0  0  0
M  END
>  <MODEL>
4

>  <REMARK>
 VINA RESULT:      -9.8      1.969      4.890
  Name = 
  5 active torsions:
  status: ('A' for Active; 'I' for Inactive)
    1  A    between atoms: C_1  and  C_5
    2  A    between atoms: C_2  and  C_21
    3  A    between atoms: C_6  and  C_15
    4  A    between atoms: C_6  and  C_23
    5  A    between atoms: C_15  and  C_21
                            x       y       z     vdW  Elec       q    Type
                         _______ _______ _______ _____ _____    ______ ____

>  <TORSDO>
F 5

$$$$
=
 OpenBabel11052412403D

 25 27  0  0  1  0  0  0  0  0999 V2000
  189.4130  177.3150  144.9220 C   0  0  0  0  0  0  0  0  0  0  0  0
  188.0590  177.7070  145.0730 C   0  0  0  0  0  0  0  0  0  0  0  0
  189.5790  176.9910  147.3240 C   0  0  0  0  0  3  0  0  0  0  0  0
  188.2560  177.3940  147.4790 C   0  0  0  0  0  3  0  0  0  0  0  0
  186.0290  178.1230  146.5810 C   0  0  1  0  0  3  0  0  0  0  0  0
  185.8480  179.1220  147.7110 C   0  0  0  0  0  1  0  0  0  0  0  0
  187.2340  178.0720  143.8640 C   0  0  0  0  0  2  0  0  0  0  0  0
  190.1530  176.9560  146.0570 C   0  0  0  0  0  3  0  0  0  0  0  0
  185.3470  178.6760  145.3320 C   0  0  0  0  0  2  0  0  0  0  0  0
  185.7470  177.8680  144.1070 C   0  0  1  0  0  3  0  0  0  0  0  0
  187.4910  177.7800  146.3710 C   0  0  0  0  0  0  0  0  0  0  0  0
  190.0870  177.2740  143.6010 C   0  0  0  0  0  0  0  0  0  0  0  0
  191.3020  177.2180  141.0680 C   0  0  0  0  0  3  0  0  0  0  0  0
  191.2150  178.0750  143.3330 C   0  0  0  0  0  0  0  0  0  0  0  0
  191.8180  178.0400  142.0720 C   0  0  0  0  0  3  0  0  0  0  0  0
  190.1790  176.4270  141.3220 C   0  0  0  0  0  3  0  0  0  0  0  0
  191.7480  178.8710  144.2930 F   0  0  0  0  0  0  0  0  0  0  0  0
  189.5740  176.4570  142.5800 C   0  0  0  0  0  3  0  0  0  0  0  0
  184.9740  178.3400  142.8900 C   0  0  0  0  0  2  0  0  0  0  0  0
  185.9240  178.6240  141.7380 C   0  0  0  0  0  2  0  0  0  0  0  0
  185.1440  178.9970  140.4880 C   0  0  2  0  0  3  0  0  0  0  0  0
  183.7180  178.4750  140.5680 C   0  0  0  0  0  1  0  0  0  0  0  0
  185.8230  178.4560  139.2720 C   0  0  0  0  0  0  0  0  0  0  0  0
  187.2080  178.3940  139.2310 O   0  0  0  0  0  1  0  0  0  0  0  0
  185.1490  178.0550  138.2840 O   0  0  0  0  0  0  0  0  0  0  0  0
  1  2  2  0  0  0  0
  1  8  1  0  0  0  0
  2 11  1  0  0  0  0
  3  4  1  0  0  0  0
  5  6  1  1  0  0  0
  7 10  1  0  0  0  0
  7  2  1  0  0  0  0
  8  3  2  0  0  0  0
  9  5  1  0  0  0  0
 10 19  1  6  0  0  0
 10  9  1  0  0  0  0
 11  5  1  0  0  0  0
 11  4  2  0  0  0  0
 12  1  1  0  0  0  0
 13 16  2  0  0  0  0
 13 15  1  0  0  0  0
 14 12  1  0  0  0  0
 14 17  1  0  0  0  0
 15 14  2  0  0  0  0
 16 18  1  0  0  0  0
 18 12  2  0  0  0  0
 20 19  1  0  0  0  0
 21 22  1  1  0  0  0
 21 20  1  0  0  0  0
 23 21  1  0  0  0  0
 24 23  1  0  0  0  0
 25 23  2  0  0  0  0
M  END
>  <MODEL>
5

>  <REMARK>
 VINA RESULT:      -9.6      2.084      4.921
  Name = 
  5 active torsions:
  status: ('A' for Active; 'I' for Inactive)
    1  A    between atoms: C_1  and  C_5
    2  A    between atoms: C_2  and  C_21
    3  A    between atoms: C_6  and  C_15
    4  A    between atoms: C_6  and  C_23
    5  A    between atoms: C_15  and  C_21
                            x       y       z     vdW  Elec       q    Type
                         _______ _______ _______ _____ _____    ______ ____

>  <TORSDO>
F 5

$$$$
=
 OpenBabel11052412403D

 25 27  0  0  1  0  0  0  0  0999 V2000
  185.6890  178.5340  144.6600 C   0  0  0  0  0  0  0  0  0  0  0  0
  187.0090  178.0300  144.7780 C   0  0  0  0  0  0  0  0  0  0  0  0
  185.5890  178.8150  147.0710 C   0  0  0  0  0  3  0  0  0  0  0  0
  186.8780  178.3030  147.1930 C   0  0  0  0  0  3  0  0  0  0  0  0
  189.0240  177.4190  146.2380 C   0  0  1  0  0  3  0  0  0  0  0  0
  189.1420  176.3820  147.3430 C   0  0  0  0  0  1  0  0  0  0  0  0
  187.7820  177.6280  143.5460 C   0  0  0  0  0  2  0  0  0  0  0  0
  184.9990  178.9240  145.8160 C   0  0  0  0  0  3  0  0  0  0  0  0
  189.6380  176.8410  144.9650 C   0  0  0  0  0  2  0  0  0  0  0  0
  189.2850  177.7070  143.7660 C   0  0  1  0  0  3  0  0  0  0  0  0
  187.5910  177.8820  146.0620 C   0  0  0  0  0  0  0  0  0  0  0  0
  184.9990  178.6590  143.3530 C   0  0  0  0  0  0  0  0  0  0  0  0
  183.7320  178.8420  140.8510 C   0  0  0  0  0  3  0  0  0  0  0  0
  183.6040  178.4890  143.2460 C   0  0  0  0  0  0  0  0  0  0  0  0
  182.9790  178.5860  141.9990 C   0  0  0  0  0  3  0  0  0  0  0  0
  185.1160  179.0030  140.9470 C   0  0  0  0  0  3  0  0  0  0  0  0
  182.8440  178.2550  144.3440 F   0  0  0  0  0  0  0  0  0  0  0  0
  185.7460  178.9090  142.1900 C   0  0  0  0  0  3  0  0  0  0  0  0
  189.9970  177.2030  142.5250 C   0  0  0  0  0  2  0  0  0  0  0  0
  189.0990  177.3440  141.3060 C   0  0  0  0  0  2  0  0  0  0  0  0
  189.8950  177.1090  140.0320 C   0  0  2  0  0  3  0  0  0  0  0  0
  191.3510  177.5010  140.2280 C   0  0  0  0  0  1  0  0  0  0  0  0
  189.3020  177.8830  138.9010 C   0  0  0  0  0  0  0  0  0  0  0  0
  188.1520  178.6300  139.1090 O   0  0  0  0  0  1  0  0  0  0  0  0
  189.8360  177.8640  137.7590 O   0  0  0  0  0  0  0  0  0  0  0  0
  1  2  2  0  0  0  0
  1  8  1  0  0  0  0
  2 11  1  0  0  0  0
  3  4  1  0  0  0  0
  5  6  1  1  0  0  0
  7 10  1  0  0  0  0
  7  2  1  0  0  0  0
  8  3  2  0  0  0  0
  9  5  1  0  0  0  0
 10 19  1  6  0  0  0
 10  9  1  0  0  0  0
 11  5  1  0  0  0  0
 11  4  2  0  0  0  0
 12  1  1  0  0  0  0
 13 16  2  0  0  0  0
 13 15  1  0  0  0  0
 14 12  1  0  0  0  0
 14 17  1  0  0  0  0
 15 14  2  0  0  0  0
 16 18  1  0  0  0  0
 18 12  2  0  0  0  0
 20 19  1  0  0  0  0
 21 22  1  1  0  0  0
 21 20  1  0  0  0  0
 23 24  1  0  0  0  0
 23 21  1  0  0  0  0
 25 23  2  0  0  0  0
M  END
>  <MODEL>
6

>  <REMARK>
 VINA RESULT:      -9.6      1.422      2.285
  Name = 
  5 active torsions:
  status: ('A' for Active; 'I' for Inactive)
    1  A    between atoms: C_1  and  C_5
    2  A    between atoms: C_2  and  C_21
    3  A    between atoms: C_6  and  C_15
    4  A    between atoms: C_6  and  C_23
    5  A    between atoms: C_15  and  C_21
                            x       y       z     vdW  Elec       q    Type
                         _______ _______ _______ _____ _____    ______ ____

>  <TORSDO>
F 5

$$$$
=
 OpenBabel11052412403D

 25 27  0  0  1  0  0  0  0  0999 V2000
  187.0390  177.8440  143.2580 C   0  0  0  0  0  0  0  0  0  0  0  0
  186.9600  177.9540  144.6700 C   0  0  0  0  0  0  0  0  0  0  0  0
  184.7400  178.6110  143.0790 C   0  0  0  0  0  3  0  0  0  0  0  0
  184.6530  178.7020  144.4650 C   0  0  0  0  0  3  0  0  0  0  0  0
  185.6270  178.5570  146.7740 C   0  0  1  0  0  3  0  0  0  0  0  0
  184.3510  177.9400  147.3230 C   0  0  0  0  0  1  0  0  0  0  0  0
  188.1570  177.6230  145.5260 C   0  0  0  0  0  2  0  0  0  0  0  0
  185.9220  178.1820  142.4820 C   0  0  0  0  0  3  0  0  0  0  0  0
  186.8110  177.9960  147.5570 C   0  0  0  0  0  2  0  0  0  0  0  0
  188.1190  178.3450  146.8630 C   0  0  1  0  0  3  0  0  0  0  0  0
  185.7410  178.3530  145.2750 C   0  0  0  0  0  0  0  0  0  0  0  0
  188.2630  177.3770  142.5640 C   0  0  0  0  0  0  0  0  0  0  0  0
  190.5510  176.4280  141.2370 C   0  0  0  0  0  3  0  0  0  0  0  0
  188.7370  178.0260  141.4060 C   0  0  0  0  0  0  0  0  0  0  0  0
  189.8780  177.5520  140.7520 C   0  0  0  0  0  3  0  0  0  0  0  0
  190.0840  175.7740  142.3790 C   0  0  0  0  0  3  0  0  0  0  0  0
  188.1140  179.1280  140.9210 F   0  0  0  0  0  0  0  0  0  0  0  0
  188.9450  176.2450  143.0370 C   0  0  0  0  0  3  0  0  0  0  0  0
  189.2980  177.8960  147.7060 C   0  0  0  0  0  2  0  0  0  0  0  0
  189.9620  176.6800  147.0800 C   0  0  0  0  0  2  0  0  0  0  0  0
  191.4240  176.9700  146.7830 C   0  0  2  0  0  3  0  0  0  0  0  0
  191.6220  177.2750  145.3060 C   0  0  0  0  0  1  0  0  0  0  0  0
  192.2760  175.8120  147.1870 C   0  0  0  0  0  0  0  0  0  0  0  0
  192.5290  174.7960  146.2770 O   0  0  0  0  0  0  0  0  0  0  0  0
  192.7670  175.7480  148.3470 O   0  0  0  0  0  1  0  0  0  0  0  0
  1  2  1  0  0  0  0
  2 11  2  0  0  0  0
  2  7  1  0  0  0  0
  3  4  2  0  0  0  0
  4 11  1  0  0  0  0
  5  6  1  1  0  0  0
  5  9  1  0  0  0  0
  7 10  1  0  0  0  0
  8  3  1  0  0  0  0
  8  1  2  0  0  0  0
 10  9  1  0  0  0  0
 10 19  1  1  0  0  0
 11  5  1  0  0  0  0
 12 18  1  0  0  0  0
 12  1  1  0  0  0  0
 13 16  1  0  0  0  0
 14 12  2  0  0  0  0
 15 13  2  0  0  0  0
 15 14  1  0  0  0  0
 16 18  2  0  0  0  0
 17 14  1  0  0  0  0
 20 19  1  0  0  0  0
 21 22  1  6  0  0  0
 21 20  1  0  0  0  0
 21 23  1  0  0  0  0
 23 25  1  0  0  0  0
 24 23  2  0  0  0  0
M  END
>  <MODEL>
7

>  <REMARK>
 VINA RESULT:      -9.6      3.225      6.162
  Name = 
  5 active torsions:
  status: ('A' for Active; 'I' for Inactive)
    1  A    between atoms: C_1  and  C_5
    2  A    between atoms: C_2  and  C_21
    3  A    between atoms: C_6  and  C_15
    4  A    between atoms: C_6  and  C_23
    5  A    between atoms: C_15  and  C_21
                            x       y       z     vdW  Elec       q    Type
                         _______ _______ _______ _____ _____    ______ ____

>  <TORSDO>
F 5

$$$$
=
 OpenBabel11052412403D

 25 27  0  0  1  0  0  0  0  0999 V2000
  187.9140  177.7580  144.7020 C   0  0  0  0  0  0  0  0  0  0  0  0
  186.8120  178.1530  143.9020 C   0  0  0  0  0  0  0  0  0  0  0  0
  186.4470  177.6070  146.6340 C   0  0  0  0  0  3  0  0  0  0  0  0
  185.3670  178.0140  145.8560 C   0  0  0  0  0  3  0  0  0  0  0  0
  184.3110  178.6650  143.6740 C   0  0  1  0  0  3  0  0  0  0  0  0
  183.4760  179.7410  144.3460 C   0  0  0  0  0  1  0  0  0  0  0  0
  187.0010  178.4270  142.4310 C   0  0  0  0  0  2  0  0  0  0  0  0
  187.7100  177.4850  146.0620 C   0  0  0  0  0  3  0  0  0  0  0  0
  184.6420  179.1240  142.2560 C   0  0  0  0  0  2  0  0  0  0  0  0
  185.7130  178.2320  141.6460 C   0  0  1  0  0  3  0  0  0  0  0  0
  185.5350  178.3150  144.4980 C   0  0  0  0  0  0  0  0  0  0  0  0
  189.2870  177.6270  144.1560 C   0  0  0  0  0  0  0  0  0  0  0  0
  191.9140  177.3810  143.1890 C   0  0  0  0  0  3  0  0  0  0  0  0
  189.6680  176.4960  143.4070 C   0  0  0  0  0  0  0  0  0  0  0  0
  190.9750  176.3810  142.9240 C   0  0  0  0  0  3  0  0  0  0  0  0
  191.5460  178.5020  143.9380 C   0  0  0  0  0  3  0  0  0  0  0  0
  188.7750  175.5160  143.1210 F   0  0  0  0  0  0  0  0  0  0  0  0
  190.2420  178.6220  144.4200 C   0  0  0  0  0  3  0  0  0  0  0  0
  185.9500  178.6120  140.1970 C   0  0  0  0  0  2  0  0  0  0  0  0
  187.3040  178.1010  139.7310 C   0  0  0  0  0  2  0  0  0  0  0  0
  187.4190  178.2060  138.2190 C   0  0  2  0  0  3  0  0  0  0  0  0
  187.0730  176.8810  137.5600 C   0  0  0  0  0  1  0  0  0  0  0  0
  188.7990  178.6280  137.8320 C   0  0  0  0  0  0  0  0  0  0  0  0
  189.8080  177.6790  137.7480 O   0  0  0  0  0  1  0  0  0  0  0  0
  189.0550  179.8360  137.5800 O   0  0  0  0  0  0  0  0  0  0  0  0
  1  8  1  0  0  0  0
  2 11  1  0  0  0  0
  2  1  2  0  0  0  0
  4  3  1  0  0  0  0
  5  6  1  1  0  0  0
  5 11  1  0  0  0  0
  7  2  1  0  0  0  0
  8  3  2  0  0  0  0
  9  5  1  0  0  0  0
 10 19  1  6  0  0  0
 10  9  1  0  0  0  0
 10  7  1  0  0  0  0
 11  4  2  0  0  0  0
 12 18  1  0  0  0  0
 12  1  1  0  0  0  0
 13 16  1  0  0  0  0
 14 12  2  0  0  0  0
 15 13  2  0  0  0  0
 15 14  1  0  0  0  0
 16 18  2  0  0  0  0
 17 14  1  0  0  0  0
 20 19  1  0  0  0  0
 21 22  1  6  0  0  0
 21 20  1  0  0  0  0
 23 21  1  0  0  0  0
 24 23  1  0  0  0  0
 25 23  2  0  0  0  0
M  END
>  <MODEL>
8

>  <REMARK>
 VINA RESULT:      -9.6      2.260      5.078
  Name = 
  5 active torsions:
  status: ('A' for Active; 'I' for Inactive)
    1  A    between atoms: C_1  and  C_5
    2  A    between atoms: C_2  and  C_21
    3  A    between atoms: C_6  and  C_15
    4  A    between atoms: C_6  and  C_23
    5  A    between atoms: C_15  and  C_21
                            x       y       z     vdW  Elec       q    Type
                         _______ _______ _______ _____ _____    ______ ____

>  <TORSDO>
F 5

$$$$
=
 OpenBabel11052412403D

 25 27  0  0  1  0  0  0  0  0999 V2000
  187.4370  177.8660  145.3570 C   0  0  0  0  0  0  0  0  0  0  0  0
  188.4630  177.5700  144.4240 C   0  0  0  0  0  0  0  0  0  0  0  0
  188.9860  177.4400  147.1810 C   0  0  0  0  0  3  0  0  0  0  0  0
  189.9890  177.1300  146.2680 C   0  0  0  0  0  3  0  0  0  0  0  0
  190.8900  176.9070  143.9360 C   0  0  1  0  0  3  0  0  0  0  0  0
  191.6390  175.6360  144.2970 C   0  0  0  0  0  1  0  0  0  0  0  0
  188.1910  177.6600  142.9430 C   0  0  0  0  0  2  0  0  0  0  0  0
  187.7200  177.8010  146.7290 C   0  0  0  0  0  3  0  0  0  0  0  0
  190.4600  176.8170  142.4740 C   0  0  0  0  0  2  0  0  0  0  0  0
  189.4610  177.9150  142.1460 C   0  0  1  0  0  3  0  0  0  0  0  0
  189.7390  177.1640  144.8900 C   0  0  0  0  0  0  0  0  0  0  0  0
  186.0640  178.2400  144.9390 C   0  0  0  0  0  0  0  0  0  0  0  0
  183.4550  178.8820  144.1180 C   0  0  0  0  0  3  0  0  0  0  0  0
  185.0960  178.6340  145.8840 C   0  0  0  0  0  0  0  0  0  0  0  0
  183.8000  178.9570  145.4700 C   0  0  0  0  0  3  0  0  0  0  0  0
  184.4060  178.4840  143.1760 C   0  0  0  0  0  3  0  0  0  0  0  0
  185.4070  178.7310  147.2010 F   0  0  0  0  0  0  0  0  0  0  0  0
  185.7020  178.1630  143.5850 C   0  0  0  0  0  3  0  0  0  0  0  0
  189.1310  177.9010  140.6650 C   0  0  0  0  0  2  0  0  0  0  0  0
  189.8490  176.7530  139.9740 C   0  0  0  0  0  2  0  0  0  0  0  0
  190.6360  177.2640  138.7780 C   0  0  2  0  0  3  0  0  0  0  0  0
  189.6980  177.6910  137.6600 C   0  0  0  0  0  1  0  0  0  0  0  0
  191.5750  176.2120  138.2870 C   0  0  0  0  0  0  0  0  0  0  0  0
  191.2000  174.8770  138.3440 O   0  0  0  0  0  1  0  0  0  0  0  0
  192.7050  176.5240  137.8220 O   0  0  0  0  0  0  0  0  0  0  0  0
  1  8  1  0  0  0  0
  2 11  1  0  0  0  0
  2  1  2  0  0  0  0
  4  3  1  0  0  0  0
  5  6  1  1  0  0  0
  5 11  1  0  0  0  0
  7  2  1  0  0  0  0
  8  3  2  0  0  0  0
  9  5  1  0  0  0  0
 10 19  1  6  0  0  0
 10  9  1  0  0  0  0
 10  7  1  0  0  0  0
 11  4  2  0  0  0  0
 12  1  1  0  0  0  0
 12 14  1  0  0  0  0
 13 15  1  0  0  0  0
 14 17  1  0  0  0  0
 15 14  2  0  0  0  0
 16 18  1  0  0  0  0
 16 13  2  0  0  0  0
 18 12  2  0  0  0  0
 20 19  1  0  0  0  0
 21 22  1  6  0  0  0
 21 20  1  0  0  0  0
 23 24  1  0  0  0  0
 23 21  1  0  0  0  0
 25 23  2  0  0  0  0
M  END
>  <MODEL>
9

>  <REMARK>
 VINA RESULT:      -9.5      1.735      2.193
  Name = 
  5 active torsions:
  status: ('A' for Active; 'I' for Inactive)
    1  A    between atoms: C_1  and  C_5
    2  A    between atoms: C_2  and  C_21
    3  A    between atoms: C_6  and  C_15
    4  A    between atoms: C_6  and  C_23
    5  A    between atoms: C_15  and  C_21
                            x       y       z     vdW  Elec       q    Type
                         _______ _______ _______ _____ _____    ______ ____

>  <TORSDO>
F 5

$$$$
