=
 OpenBabel11052413173D

 31 34  0  0  1  0  0  0  0  0999 V2000
  187.8380  177.2720  144.5450 C   0  0  2  0  0  3  0  0  0  0  0  0
  188.5670  177.0940  145.8900 C   0  0  2  0  0  3  0  0  0  0  0  0
  189.4510  178.1810  147.9410 C   0  0  0  0  0  2  0  0  0  0  0  0
  188.7860  178.4350  146.5970 C   0  0  0  0  0  2  0  0  0  0  0  0
  190.5190  176.6060  144.2890 C   0  0  0  0  0  2  0  0  0  0  0  0
  190.7330  177.4220  147.7670 C   0  0  0  0  0  3  0  0  0  0  0  0
  188.6100  178.0720  143.5700 N   0  0  1  0  0  0  0  0  0  0  0  0
  192.1530  175.8320  146.7200 N   0  0  0  0  0  1  0  0  0  0  0  0
  190.0790  177.9580  143.7180 C   0  0  0  0  0  2  0  0  0  0  0  0
  189.9050  176.3480  145.6710 C   0  0  1  0  0  3  0  0  0  0  0  0
  190.9260  176.5540  146.7690 C   0  0  0  0  0  0  0  0  0  0  0  0
  184.3380  178.4990  143.7440 C   0  0  0  0  0  0  0  0  0  0  0  0
  186.4420  177.8000  144.7260 C   0  0  0  0  0  0  0  0  0  0  0  0
  183.8240  178.7590  145.0190 C   0  0  0  0  0  3  0  0  0  0  0  0
  183.5670  178.7080  142.6490 F   0  0  0  0  0  0  0  0  0  0  0  0
  185.6420  178.0190  143.5990 C   0  0  0  0  0  3  0  0  0  0  0  0
  185.9220  178.0580  146.0050 C   0  0  0  0  0  3  0  0  0  0  0  0
  184.6160  178.5370  146.1500 C   0  0  0  0  0  3  0  0  0  0  0  0
  189.2140  178.5880  140.2220 C   0  0  2  0  0  3  0  0  0  0  0  0
  189.3270  177.0770  140.2750 C   0  0  2  0  0  3  0  0  0  0  0  0
  188.1740  177.7240  142.2090 C   0  0  1  0  0  3  0  0  0  0  0  0
  188.2240  178.9370  141.3020 C   0  0  0  0  0  2  0  0  0  0  0  0
  188.9830  176.6520  141.6240 N   0  0  0  0  0  2  0  0  0  0  0  0
  191.7560  177.5190  140.6440 C   0  0  0  0  0  1  0  0  0  0  0  0
  190.7420  176.6290  139.9510 C   0  0  0  0  0  2  0  0  0  0  0  0
  188.7220  178.9940  138.9780 O   0  0  0  0  0  0  0  0  0  0  0  0
  187.4430  177.8980  138.6270 S   0  0  0  0  0  0  0  0  0  0  0  0
  187.7710  177.9590  136.8310 C   0  0  0  0  0  2  0  0  0  0  0  0
  188.4670  176.7020  136.3150 C   0  0  0  0  0  3  0  0  0  0  0  0
  189.9790  176.8500  136.3320 C   0  0  0  0  0  1  0  0  0  0  0  0
  188.0400  175.4710  137.0950 C   0  0  0  0  0  1  0  0  0  0  0  0
  1 13  1  1  0  0  0
  1  2  1  0  0  0  0
  2  4  1  6  0  0  0
  4  3  1  0  0  0  0
  6  3  1  0  0  0  0
  7  9  1  6  0  0  0
  7  1  1  0  0  0  0
  8 11  1  0  0  0  0
  9  5  1  0  0  0  0
 10  5  1  6  0  0  0
 10  2  1  0  0  0  0
 10 11  1  0  0  0  0
 11  6  2  0  0  0  0
 12 14  1  0  0  0  0
 13 17  2  0  0  0  0
 14 18  2  0  0  0  0
 15 12  1  0  0  0  0
 16 12  2  0  0  0  0
 16 13  1  0  0  0  0
 17 18  1  0  0  0  0
 19 26  1  6  0  0  0
 19 20  1  0  0  0  0
 19 22  1  0  0  0  0
 20 25  1  1  0  0  0
 20 23  1  0  0  0  0
 21 22  1  6  0  0  0
 21  7  1  0  0  0  0
 23 21  1  0  0  0  0
 25 24  1  0  0  0  0
 27 26  1  0  0  0  0
 28 27  1  0  0  0  0
 29 30  1  0  0  0  0
 29 28  1  0  0  0  0
 29 31  1  0  0  0  0
M  END
>  <MODEL>
1

>  <REMARK>
 VINA RESULT:      -8.4      0.000      0.000
  Name = 
  7 active torsions:
  status: ('A' for Active; 'I' for Inactive)
    1  A    between atoms: C_1  and  C_24
    2  A    between atoms: C_4  and  C_12
    3  A    between atoms: O_6  and  C_7
    4  A    between atoms: O_6  and  S_19
    5  A    between atoms: C_9  and  C_22
    6  A    between atoms: C_15  and  N_21
    7  A    between atoms: S_19  and  C_24
                            x       y       z     vdW  Elec       q    Type
                         _______ _______ _______ _____ _____    ______ ____

>  <TORSDO>
F 7

$$$$
=
 OpenBabel11052413173D

 31 34  0  0  1  0  0  0  0  0999 V2000
  187.8480  177.2430  144.5410 C   0  0  2  0  0  3  0  0  0  0  0  0
  188.4770  177.1620  145.9440 C   0  0  2  0  0  3  0  0  0  0  0  0
  189.2100  178.3910  147.9750 C   0  0  0  0  0  2  0  0  0  0  0  0
  188.6440  178.5490  146.5720 C   0  0  0  0  0  2  0  0  0  0  0  0
  190.5400  176.5750  144.5260 C   0  0  0  0  0  2  0  0  0  0  0  0
  190.5020  177.6280  147.9470 C   0  0  0  0  0  3  0  0  0  0  0  0
  188.6890  177.9790  143.5720 N   0  0  1  0  0  0  0  0  0  0  0  0
  191.9930  175.9770  147.1170 N   0  0  0  0  0  1  0  0  0  0  0  0
  190.1430  177.8830  143.8340 C   0  0  0  0  0  2  0  0  0  0  0  0
  189.8280  176.4090  145.8750 C   0  0  1  0  0  3  0  0  0  0  0  0
  190.7670  176.6940  147.0270 C   0  0  0  0  0  0  0  0  0  0  0  0
  184.4020  178.3600  143.4110 C   0  0  0  0  0  0  0  0  0  0  0  0
  186.4420  177.7750  144.5840 C   0  0  0  0  0  0  0  0  0  0  0  0
  183.8100  178.7390  144.6210 C   0  0  0  0  0  3  0  0  0  0  0  0
  183.7000  178.4570  142.2560 F   0  0  0  0  0  0  0  0  0  0  0  0
  185.7140  177.8790  143.3940 C   0  0  0  0  0  3  0  0  0  0  0  0
  185.8430  178.1520  145.7980 C   0  0  0  0  0  3  0  0  0  0  0  0
  184.5300  178.6330  145.8150 C   0  0  0  0  0  3  0  0  0  0  0  0
  189.1220  178.6530  140.2260 C   0  0  2  0  0  3  0  0  0  0  0  0
  189.6260  177.2240  140.2680 C   0  0  2  0  0  3  0  0  0  0  0  0
  188.3530  177.5360  142.2100 C   0  0  1  0  0  3  0  0  0  0  0  0
  188.0800  178.7250  141.3110 C   0  0  0  0  0  2  0  0  0  0  0  0
  189.4120  176.7160  141.6160 N   0  0  0  0  0  2  0  0  0  0  0  0
  191.3370  176.4050  138.6450 C   0  0  0  0  0  1  0  0  0  0  0  0
  191.1080  177.1640  139.9380 C   0  0  0  0  0  2  0  0  0  0  0  0
  188.5350  178.9230  138.9860 O   0  0  0  0  0  0  0  0  0  0  0  0
  187.7910  177.4450  138.5150 S   0  0  0  0  0  0  0  0  0  0  0  0
  186.3950  178.3050  137.7110 C   0  0  0  0  0  2  0  0  0  0  0  0
  185.0570  178.0170  138.3880 C   0  0  0  0  0  3  0  0  0  0  0  0
  184.5490  179.2220  139.1620 C   0  0  0  0  0  1  0  0  0  0  0  0
  184.0170  177.5480  137.3850 C   0  0  0  0  0  1  0  0  0  0  0  0
  1 13  1  1  0  0  0
  1  2  1  0  0  0  0
  2  4  1  6  0  0  0
  4  3  1  0  0  0  0
  6  3  1  0  0  0  0
  7  9  1  1  0  0  0
  7  1  1  0  0  0  0
  9  5  1  0  0  0  0
 10  5  1  6  0  0  0
 10  2  1  0  0  0  0
 10 11  1  0  0  0  0
 11  8  1  0  0  0  0
 11  6  2  0  0  0  0
 12 14  1  0  0  0  0
 13 17  2  0  0  0  0
 14 18  2  0  0  0  0
 15 12  1  0  0  0  0
 16 12  2  0  0  0  0
 16 13  1  0  0  0  0
 17 18  1  0  0  0  0
 19 26  1  6  0  0  0
 19 20  1  0  0  0  0
 19 22  1  0  0  0  0
 20 25  1  1  0  0  0
 20 23  1  0  0  0  0
 21 22  1  6  0  0  0
 21  7  1  0  0  0  0
 23 21  1  0  0  0  0
 24 25  1  0  0  0  0
 27 26  1  0  0  0  0
 28 29  1  0  0  0  0
 28 27  1  0  0  0  0
 29 30  1  0  0  0  0
 31 29  1  0  0  0  0
M  END
>  <MODEL>
2

>  <REMARK>
 VINA RESULT:      -8.4      1.263      1.726
  Name = 
  7 active torsions:
  status: ('A' for Active; 'I' for Inactive)
    1  A    between atoms: C_1  and  C_24
    2  A    between atoms: C_4  and  C_12
    3  A    between atoms: O_6  and  C_7
    4  A    between atoms: O_6  and  S_19
    5  A    between atoms: C_9  and  C_22
    6  A    between atoms: C_15  and  N_21
    7  A    between atoms: S_19  and  C_24
                            x       y       z     vdW  Elec       q    Type
                         _______ _______ _______ _____ _____    ______ ____

>  <TORSDO>
F 7

$$$$
=
 OpenBabel11052413173D

 31 34  0  0  1  0  0  0  0  0999 V2000
  188.9750  178.0320  140.3850 C   0  0  2  0  0  3  0  0  0  0  0  0
  190.0420  177.6560  139.3400 C   0  0  2  0  0  3  0  0  0  0  0  0
  190.8180  176.0030  137.6560 C   0  0  0  0  0  2  0  0  0  0  0  0
  189.7670  176.2830  138.7190 C   0  0  0  0  0  2  0  0  0  0  0  0
  191.4440  177.3970  141.4800 C   0  0  0  0  0  2  0  0  0  0  0  0
  192.2000  176.0920  138.2340 C   0  0  0  0  0  3  0  0  0  0  0  0
  188.9490  177.1110  141.5420 N   0  0  1  0  0  0  0  0  0  0  0  0
  193.8550  176.9650  139.6970 N   0  0  0  0  0  1  0  0  0  0  0  0
  190.2600  176.5040  141.8650 C   0  0  0  0  0  2  0  0  0  0  0  0
  191.4510  177.7130  139.9790 C   0  0  1  0  0  3  0  0  0  0  0  0
  192.5030  176.9010  139.2550 C   0  0  0  0  0  0  0  0  0  0  0  0
  185.2800  178.8080  140.0080 C   0  0  0  0  0  0  0  0  0  0  0  0
  187.6140  178.1980  139.7680 C   0  0  0  0  0  0  0  0  0  0  0  0
  185.0670  178.5440  138.6510 C   0  0  0  0  0  3  0  0  0  0  0  0
  184.2540  179.2350  140.7830 F   0  0  0  0  0  0  0  0  0  0  0  0
  186.5510  178.6360  140.5640 C   0  0  0  0  0  3  0  0  0  0  0  0
  187.3980  177.9380  138.4040 C   0  0  0  0  0  3  0  0  0  0  0  0
  186.1260  178.1110  137.8480 C   0  0  0  0  0  3  0  0  0  0  0  0
  187.7980  176.7140  144.7610 C   0  0  2  0  0  3  0  0  0  0  0  0
  188.8590  177.7720  144.9950 C   0  0  2  0  0  3  0  0  0  0  0  0
  188.3770  177.8120  142.7020 C   0  0  1  0  0  3  0  0  0  0  0  0
  187.3030  176.9700  143.3610 C   0  0  0  0  0  2  0  0  0  0  0  0
  189.3930  178.1610  143.6970 N   0  0  0  0  0  2  0  0  0  0  0  0
  191.3270  177.4510  145.1930 C   0  0  0  0  0  1  0  0  0  0  0  0
  189.9830  177.2280  145.8600 C   0  0  0  0  0  2  0  0  0  0  0  0
  186.7490  176.8700  145.6710 O   0  0  0  0  0  0  0  0  0  0  0  0
  186.6150  178.5690  145.9090 S   0  0  0  0  0  0  0  0  0  0  0  0
  184.7910  178.5190  145.8460 C   0  0  0  0  0  2  0  0  0  0  0  0
  184.2440  178.6970  144.4310 C   0  0  0  0  0  3  0  0  0  0  0  0
  182.7320  178.8470  144.4280 C   0  0  0  0  0  1  0  0  0  0  0  0
  184.9000  179.8700  143.7260 C   0  0  0  0  0  1  0  0  0  0  0  0
  1 13  1  6  0  0  0
  1  7  1  0  0  0  0
  2  4  1  1  0  0  0
  2 10  1  0  0  0  0
  2  1  1  0  0  0  0
  3  6  1  0  0  0  0
  3  4  1  0  0  0  0
  5  9  1  0  0  0  0
  6 11  2  0  0  0  0
  7  9  1  1  0  0  0
  7 21  1  0  0  0  0
 10  5  1  1  0  0  0
 11  8  1  0  0  0  0
 11 10  1  0  0  0  0
 12 16  1  0  0  0  0
 12 15  1  0  0  0  0
 13 16  2  0  0  0  0
 14 12  2  0  0  0  0
 17 13  1  0  0  0  0
 18 17  2  0  0  0  0
 18 14  1  0  0  0  0
 19 20  1  0  0  0  0
 19 26  1  1  0  0  0
 20 25  1  1  0  0  0
 21 22  1  1  0  0  0
 21 23  1  0  0  0  0
 22 19  1  0  0  0  0
 23 20  1  0  0  0  0
 24 25  1  0  0  0  0
 26 27  1  0  0  0  0
 28 27  1  0  0  0  0
 29 28  1  0  0  0  0
 30 29  1  0  0  0  0
 31 29  1  0  0  0  0
M  END
>  <MODEL>
3

>  <REMARK>
 VINA RESULT:      -8.0      2.581      6.576
  Name = 
  7 active torsions:
  status: ('A' for Active; 'I' for Inactive)
    1  A    between atoms: C_1  and  C_24
    2  A    between atoms: C_4  and  C_12
    3  A    between atoms: O_6  and  C_7
    4  A    between atoms: O_6  and  S_19
    5  A    between atoms: C_9  and  C_22
    6  A    between atoms: C_15  and  N_21
    7  A    between atoms: S_19  and  C_24
                            x       y       z     vdW  Elec       q    Type
                         _______ _______ _______ _____ _____    ______ ____

>  <TORSDO>
F 7

$$$$
=
 OpenBabel11052413173D

 31 34  0  0  1  0  0  0  0  0999 V2000
  189.9540  176.5930  139.0460 C   0  0  2  0  0  3  0  0  0  0  0  0
  188.9600  176.9670  137.9310 C   0  0  2  0  0  3  0  0  0  0  0  0
  188.5270  178.3200  135.8930 C   0  0  0  0  0  2  0  0  0  0  0  0
  189.5300  178.0440  137.0020 C   0  0  0  0  0  2  0  0  0  0  0  0
  187.7730  178.0600  139.9330 C   0  0  0  0  0  2  0  0  0  0  0  0
  187.1960  178.7150  136.4620 C   0  0  0  0  0  3  0  0  0  0  0  0
  190.2620  177.7220  139.9500 N   0  0  1  0  0  0  0  0  0  0  0  0
  185.4540  178.6490  138.0740 N   0  0  0  0  0  1  0  0  0  0  0  0
  189.1570  178.6950  140.1050 C   0  0  0  0  0  2  0  0  0  0  0  0
  187.6140  177.4140  138.5500 C   0  0  1  0  0  3  0  0  0  0  0  0
  186.7570  178.2690  137.6430 C   0  0  0  0  0  0  0  0  0  0  0  0
  192.2430  174.1410  137.2730 C   0  0  0  0  0  0  0  0  0  0  0  0
  191.2000  175.9540  138.5000 C   0  0  0  0  0  0  0  0  0  0  0  0
  193.4950  174.7400  137.4430 C   0  0  0  0  0  3  0  0  0  0  0  0
  192.1390  172.9720  136.5940 F   0  0  0  0  0  0  0  0  0  0  0  0
  191.0990  174.7470  137.7990 C   0  0  0  0  0  3  0  0  0  0  0  0
  192.4590  176.5560  138.6650 C   0  0  0  0  0  3  0  0  0  0  0  0
  193.6040  175.9480  138.1380 C   0  0  0  0  0  3  0  0  0  0  0  0
  189.8110  177.9320  143.3550 C   0  0  2  0  0  3  0  0  0  0  0  0
  189.5530  176.4520  143.1510 C   0  0  2  0  0  3  0  0  0  0  0  0
  190.7040  177.1930  141.2490 C   0  0  1  0  0  3  0  0  0  0  0  0
  190.7960  178.3030  142.2770 C   0  0  0  0  0  2  0  0  0  0  0  0
  189.8140  176.1430  141.7520 N   0  0  0  0  0  2  0  0  0  0  0  0
  187.2450  177.3480  143.4680 C   0  0  0  0  0  1  0  0  0  0  0  0
  188.1120  176.1040  143.4830 C   0  0  0  0  0  2  0  0  0  0  0  0
  190.3760  178.1580  144.6130 O   0  0  0  0  0  0  0  0  0  0  0  0
  191.2520  176.7200  144.9700 S   0  0  0  0  0  0  0  0  0  0  0  0
  190.8260  176.8000  146.7440 C   0  0  0  0  0  2  0  0  0  0  0  0
  189.5550  177.6040  147.0100 C   0  0  0  0  0  3  0  0  0  0  0  0
  188.3210  176.7170  147.0200 C   0  0  0  0  0  1  0  0  0  0  0  0
  189.6580  178.3930  148.3020 C   0  0  0  0  0  1  0  0  0  0  0  0
  1 13  1  6  0  0  0
  1  7  1  0  0  0  0
  2  4  1  1  0  0  0
  2 10  1  0  0  0  0
  2  1  1  0  0  0  0
  3  6  1  0  0  0  0
  3  4  1  0  0  0  0
  5  9  1  0  0  0  0
  6 11  2  0  0  0  0
  7  9  1  1  0  0  0
  7 21  1  0  0  0  0
 10  5  1  1  0  0  0
 11  8  1  0  0  0  0
 11 10  1  0  0  0  0
 12 14  2  0  0  0  0
 12 16  1  0  0  0  0
 13 17  1  0  0  0  0
 14 18  1  0  0  0  0
 15 12  1  0  0  0  0
 16 13  2  0  0  0  0
 18 17  2  0  0  0  0
 19 26  1  1  0  0  0
 20 19  1  0  0  0  0
 20 25  1  6  0  0  0
 21 23  1  0  0  0  0
 21 22  1  1  0  0  0
 22 19  1  0  0  0  0
 23 20  1  0  0  0  0
 24 25  1  0  0  0  0
 26 27  1  0  0  0  0
 27 28  1  0  0  0  0
 28 29  1  0  0  0  0
 29 30  1  0  0  0  0
 29 31  1  0  0  0  0
M  END
>  <MODEL>
4

>  <REMARK>
 VINA RESULT:      -7.7      3.409      8.621
  Name = 
  7 active torsions:
  status: ('A' for Active; 'I' for Inactive)
    1  A    between atoms: C_1  and  C_24
    2  A    between atoms: C_4  and  C_12
    3  A    between atoms: O_6  and  C_7
    4  A    between atoms: O_6  and  S_19
    5  A    between atoms: C_9  and  C_22
    6  A    between atoms: C_15  and  N_21
    7  A    between atoms: S_19  and  C_24
                            x       y       z     vdW  Elec       q    Type
                         _______ _______ _______ _____ _____    ______ ____

>  <TORSDO>
F 7

$$$$
=
 OpenBabel11052413173D

 31 34  0  0  1  0  0  0  0  0999 V2000
  188.2720  177.1200  142.4910 C   0  0  2  0  0  3  0  0  0  0  0  0
  188.9930  176.8390  143.8220 C   0  0  2  0  0  3  0  0  0  0  0  0
  190.0750  177.7860  145.8470 C   0  0  0  0  0  2  0  0  0  0  0  0
  189.4280  178.1330  144.5150 C   0  0  0  0  0  2  0  0  0  0  0  0
  190.8130  176.0520  142.1860 C   0  0  0  0  0  2  0  0  0  0  0  0
  191.2230  176.8390  145.6530 C   0  0  0  0  0  3  0  0  0  0  0  0
  189.1350  177.7890  141.4950 N   0  0  1  0  0  0  0  0  0  0  0  0
  192.3610  175.0480  144.5890 N   0  0  0  0  0  1  0  0  0  0  0  0
  190.5720  177.4530  141.6140 C   0  0  0  0  0  2  0  0  0  0  0  0
  190.1970  175.8960  143.5820 C   0  0  1  0  0  3  0  0  0  0  0  0
  191.2600  175.9480  144.6570 C   0  0  0  0  0  0  0  0  0  0  0  0
  185.1110  178.4230  144.1380 C   0  0  0  0  0  0  0  0  0  0  0  0
  186.9760  177.8550  142.6960 C   0  0  0  0  0  0  0  0  0  0  0  0
  184.5700  179.2270  143.1300 C   0  0  0  0  0  3  0  0  0  0  0  0
  184.4720  178.3100  145.3290 F   0  0  0  0  0  0  0  0  0  0  0  0
  186.3110  177.7400  143.9220 C   0  0  0  0  0  3  0  0  0  0  0  0
  186.4320  178.6670  141.6870 C   0  0  0  0  0  3  0  0  0  0  0  0
  185.2310  179.3500  141.9040 C   0  0  0  0  0  3  0  0  0  0  0  0
  189.8440  177.9950  138.1340 C   0  0  2  0  0  3  0  0  0  0  0  0
  189.5710  176.5080  138.2490 C   0  0  2  0  0  3  0  0  0  0  0  0
  188.6230  177.5060  140.1460 C   0  0  1  0  0  3  0  0  0  0  0  0
  188.9770  178.6280  139.1910 C   0  0  0  0  0  2  0  0  0  0  0  0
  189.1330  176.2410  139.6120 N   0  0  0  0  0  2  0  0  0  0  0  0
  192.0670  176.5110  138.2890 C   0  0  0  0  0  1  0  0  0  0  0  0
  190.8270  175.7050  137.9570 C   0  0  0  0  0  2  0  0  0  0  0  0
  189.4680  178.4610  136.8710 O   0  0  0  0  0  0  0  0  0  0  0  0
  188.5460  177.1820  136.1820 S   0  0  0  0  0  0  0  0  0  0  0  0
  187.0290  178.1980  136.1160 C   0  0  0  0  0  2  0  0  0  0  0  0
  185.8390  177.5260  136.7970 C   0  0  0  0  0  3  0  0  0  0  0  0
  186.0770  176.0400  137.0050 C   0  0  0  0  0  1  0  0  0  0  0  0
  185.4970  178.2020  138.1120 C   0  0  0  0  0  1  0  0  0  0  0  0
  1 13  1  1  0  0  0
  1  2  1  0  0  0  0
  2  4  1  6  0  0  0
  4  3  1  0  0  0  0
  6  3  1  0  0  0  0
  7  9  1  6  0  0  0
  7  1  1  0  0  0  0
  8 11  1  0  0  0  0
  9  5  1  0  0  0  0
 10  5  1  6  0  0  0
 10  2  1  0  0  0  0
 10 11  1  0  0  0  0
 11  6  2  0  0  0  0
 12 15  1  0  0  0  0
 13 16  2  0  0  0  0
 14 12  2  0  0  0  0
 16 12  1  0  0  0  0
 17 18  2  0  0  0  0
 17 13  1  0  0  0  0
 18 14  1  0  0  0  0
 19 26  1  6  0  0  0
 19 20  1  0  0  0  0
 19 22  1  0  0  0  0
 20 25  1  1  0  0  0
 20 23  1  0  0  0  0
 21 22  1  6  0  0  0
 21  7  1  0  0  0  0
 23 21  1  0  0  0  0
 25 24  1  0  0  0  0
 27 26  1  0  0  0  0
 28 27  1  0  0  0  0
 28 29  1  0  0  0  0
 29 30  1  0  0  0  0
 29 31  1  0  0  0  0
M  END
>  <MODEL>
5

>  <REMARK>
 VINA RESULT:      -7.6      1.763      2.526
  Name = 
  7 active torsions:
  status: ('A' for Active; 'I' for Inactive)
    1  A    between atoms: C_1  and  C_24
    2  A    between atoms: C_4  and  C_12
    3  A    between atoms: O_6  and  C_7
    4  A    between atoms: O_6  and  S_19
    5  A    between atoms: C_9  and  C_22
    6  A    between atoms: C_15  and  N_21
    7  A    between atoms: S_19  and  C_24
                            x       y       z     vdW  Elec       q    Type
                         _______ _______ _______ _____ _____    ______ ____

>  <TORSDO>
F 7

$$$$
=
 OpenBabel11052413173D

 31 34  0  0  1  0  0  0  0  0999 V2000
  185.1740  179.0320  141.3220 C   0  0  2  0  0  3  0  0  0  0  0  0
  183.7140  178.9840  140.8380 C   0  0  2  0  0  3  0  0  0  0  0  0
  181.6400  177.6380  140.5960 C   0  0  0  0  0  2  0  0  0  0  0  0
  183.0950  177.5970  141.0360 C   0  0  0  0  0  2  0  0  0  0  0  0
  184.9060  179.1070  138.5630 C   0  0  0  0  0  2  0  0  0  0  0  0
  181.5240  178.1060  139.1750 C   0  0  0  0  0  3  0  0  0  0  0  0
  186.0660  178.1280  140.5640 N   0  0  1  0  0  0  0  0  0  0  0  0
  182.1720  179.3940  137.2880 N   0  0  0  0  0  1  0  0  0  0  0  0
  185.6570  177.9110  139.1570 C   0  0  0  0  0  2  0  0  0  0  0  0
  183.6330  179.4290  139.3580 C   0  0  1  0  0  3  0  0  0  0  0  0
  182.3970  178.9560  138.6240 C   0  0  0  0  0  0  0  0  0  0  0  0
  186.2600  177.6040  144.6660 C   0  0  0  0  0  0  0  0  0  0  0  0
  185.2830  178.8140  142.8070 C   0  0  0  0  0  0  0  0  0  0  0  0
  185.5340  178.3910  145.5660 C   0  0  0  0  0  3  0  0  0  0  0  0
  187.0890  176.6370  145.1300 F   0  0  0  0  0  0  0  0  0  0  0  0
  186.1350  177.8160  143.2910 C   0  0  0  0  0  3  0  0  0  0  0  0
  184.5590  179.6060  143.7130 C   0  0  0  0  0  3  0  0  0  0  0  0
  184.6840  179.3930  145.0900 C   0  0  0  0  0  3  0  0  0  0  0  0
  189.3810  177.2090  140.4720 C   0  0  2  0  0  3  0  0  0  0  0  0
  189.3710  178.2530  139.3730 C   0  0  2  0  0  3  0  0  0  0  0  0
  187.4470  178.6250  140.6560 C   0  0  1  0  0  3  0  0  0  0  0  0
  188.3140  177.6580  141.4370 C   0  0  0  0  0  2  0  0  0  0  0  0
  188.0440  178.8510  139.3380 N   0  0  0  0  0  2  0  0  0  0  0  0
  189.0470  178.4260  136.9030 C   0  0  0  0  0  1  0  0  0  0  0  0
  189.6740  177.6200  138.0250 C   0  0  0  0  0  2  0  0  0  0  0  0
  190.6230  177.1900  141.1130 O   0  0  0  0  0  0  0  0  0  0  0  0
  190.3410  176.3780  142.6040 S   0  0  0  0  0  0  0  0  0  0  0  0
  191.6800  177.2860  143.4490 C   0  0  0  0  0  2  0  0  0  0  0  0
  191.2730  177.7830  144.8350 C   0  0  0  0  0  3  0  0  0  0  0  0
  189.8280  178.2530  144.8600 C   0  0  0  0  0  1  0  0  0  0  0  0
  191.5100  176.7240  145.8960 C   0  0  0  0  0  1  0  0  0  0  0  0
  1 13  1  1  0  0  0
  2  4  1  6  0  0  0
  2  1  1  0  0  0  0
  3  4  1  0  0  0  0
  5  9  1  0  0  0  0
  6  3  1  0  0  0  0
  7  9  1  6  0  0  0
  7 21  1  0  0  0  0
  7  1  1  0  0  0  0
  8 11  1  0  0  0  0
 10  5  1  6  0  0  0
 10  2  1  0  0  0  0
 11  6  2  0  0  0  0
 11 10  1  0  0  0  0
 12 15  1  0  0  0  0
 12 14  1  0  0  0  0
 13 16  1  0  0  0  0
 13 17  2  0  0  0  0
 16 12  2  0  0  0  0
 17 18  1  0  0  0  0
 18 14  2  0  0  0  0
 19 26  1  1  0  0  0
 19 22  1  0  0  0  0
 20 25  1  6  0  0  0
 20 19  1  0  0  0  0
 21 22  1  6  0  0  0
 23 20  1  0  0  0  0
 23 21  1  0  0  0  0
 24 25  1  0  0  0  0
 26 27  1  0  0  0  0
 27 28  1  0  0  0  0
 28 29  1  0  0  0  0
 29 30  1  0  0  0  0
 29 31  1  0  0  0  0
M  END
>  <MODEL>
6

>  <REMARK>
 VINA RESULT:      -7.6      3.221      6.758
  Name = 
  7 active torsions:
  status: ('A' for Active; 'I' for Inactive)
    1  A    between atoms: C_1  and  C_24
    2  A    between atoms: C_4  and  C_12
    3  A    between atoms: O_6  and  C_7
    4  A    between atoms: O_6  and  S_19
    5  A    between atoms: C_9  and  C_22
    6  A    between atoms: C_15  and  N_21
    7  A    between atoms: S_19  and  C_24
                            x       y       z     vdW  Elec       q    Type
                         _______ _______ _______ _____ _____    ______ ____

>  <TORSDO>
F 7

$$$$
=
 OpenBabel11052413173D

 31 34  0  0  1  0  0  0  0  0999 V2000
  189.0130  177.9990  140.3220 C   0  0  2  0  0  3  0  0  0  0  0  0
  189.9910  177.6120  139.1980 C   0  0  2  0  0  3  0  0  0  0  0  0
  190.6020  175.9650  137.4420 C   0  0  0  0  0  2  0  0  0  0  0  0
  189.6380  176.2550  138.5820 C   0  0  0  0  0  2  0  0  0  0  0  0
  191.5370  177.2890  141.2280 C   0  0  0  0  0  2  0  0  0  0  0  0
  192.0240  176.0110  137.9200 C   0  0  0  0  0  3  0  0  0  0  0  0
  189.0460  177.0640  141.4670 N   0  0  1  0  0  0  0  0  0  0  0  0
  193.8010  176.8230  139.2690 N   0  0  0  0  0  1  0  0  0  0  0  0
  190.3620  176.4200  141.6860 C   0  0  0  0  0  2  0  0  0  0  0  0
  191.4430  177.6260  139.7330 C   0  0  1  0  0  3  0  0  0  0  0  0
  192.4200  176.7980  138.9260 C   0  0  0  0  0  0  0  0  0  0  0  0
  186.0490  178.1450  137.9570 C   0  0  0  0  0  0  0  0  0  0  0  0
  187.6160  178.2080  139.8070 C   0  0  0  0  0  0  0  0  0  0  0  0
  185.0200  178.5600  138.8090 C   0  0  0  0  0  3  0  0  0  0  0  0
  185.7890  177.9100  136.6480 F   0  0  0  0  0  0  0  0  0  0  0  0
  187.3430  177.9680  138.4560 C   0  0  0  0  0  3  0  0  0  0  0  0
  186.5790  178.6200  140.6610 C   0  0  0  0  0  3  0  0  0  0  0  0
  185.2850  178.7960  140.1610 C   0  0  0  0  0  3  0  0  0  0  0  0
  188.7000  176.8210  144.8820 C   0  0  2  0  0  3  0  0  0  0  0  0
  189.5130  178.0980  144.7950 C   0  0  2  0  0  3  0  0  0  0  0  0
  188.5770  177.7620  142.6730 C   0  0  1  0  0  3  0  0  0  0  0  0
  187.8840  176.7980  143.6160 C   0  0  0  0  0  2  0  0  0  0  0  0
  189.6670  178.4320  143.3860 N   0  0  0  0  0  2  0  0  0  0  0  0
  191.3690  176.4840  145.2270 C   0  0  0  0  0  1  0  0  0  0  0  0
  190.8850  177.9080  145.4210 C   0  0  0  0  0  2  0  0  0  0  0  0
  187.8520  176.8600  145.9920 O   0  0  0  0  0  0  0  0  0  0  0  0
  187.3130  178.4920  146.0820 S   0  0  0  0  0  0  0  0  0  0  0  0
  185.5650  178.0160  145.8520 C   0  0  0  0  0  2  0  0  0  0  0  0
  184.7340  179.1190  145.2000 C   0  0  0  0  0  3  0  0  0  0  0  0
  185.2440  179.4600  143.8100 C   0  0  0  0  0  1  0  0  0  0  0  0
  183.2620  178.7530  145.1560 C   0  0  0  0  0  1  0  0  0  0  0  0
  1 13  1  6  0  0  0
  1  7  1  0  0  0  0
  2  4  1  1  0  0  0
  2 10  1  0  0  0  0
  2  1  1  0  0  0  0
  3  6  1  0  0  0  0
  3  4  1  0  0  0  0
  5  9  1  0  0  0  0
  6 11  2  0  0  0  0
  7  9  1  1  0  0  0
  7 21  1  0  0  0  0
 10  5  1  1  0  0  0
 11  8  1  0  0  0  0
 11 10  1  0  0  0  0
 12 16  2  0  0  0  0
 12 14  1  0  0  0  0
 13 17  2  0  0  0  0
 14 18  2  0  0  0  0
 15 12  1  0  0  0  0
 16 13  1  0  0  0  0
 18 17  1  0  0  0  0
 19 26  1  1  0  0  0
 20 19  1  0  0  0  0
 20 25  1  6  0  0  0
 21 23  1  0  0  0  0
 21 22  1  1  0  0  0
 22 19  1  0  0  0  0
 23 20  1  0  0  0  0
 24 25  1  0  0  0  0
 26 27  1  0  0  0  0
 28 27  1  0  0  0  0
 29 28  1  0  0  0  0
 30 29  1  0  0  0  0
 31 29  1  0  0  0  0
M  END
>  <MODEL>
7

>  <REMARK>
 VINA RESULT:      -7.4      2.850      6.659
  Name = 
  7 active torsions:
  status: ('A' for Active; 'I' for Inactive)
    1  A    between atoms: C_1  and  C_24
    2  A    between atoms: C_4  and  C_12
    3  A    between atoms: O_6  and  C_7
    4  A    between atoms: O_6  and  S_19
    5  A    between atoms: C_9  and  C_22
    6  A    between atoms: C_15  and  N_21
    7  A    between atoms: S_19  and  C_24
                            x       y       z     vdW  Elec       q    Type
                         _______ _______ _______ _____ _____    ______ ____

>  <TORSDO>
F 7

$$$$
=
 OpenBabel11052413173D

 31 34  0  0  1  0  0  0  0  0999 V2000
  186.2300  177.6120  143.8930 C   0  0  2  0  0  3  0  0  0  0  0  0
  186.2240  177.7730  145.4240 C   0  0  2  0  0  3  0  0  0  0  0  0
  186.0540  179.3250  147.3560 C   0  0  0  0  0  2  0  0  0  0  0  0
  186.1170  179.2440  145.8390 C   0  0  0  0  0  2  0  0  0  0  0  0
  188.6880  177.1230  145.0830 C   0  0  0  0  0  2  0  0  0  0  0  0
  187.2410  178.6510  147.9780 C   0  0  0  0  0  3  0  0  0  0  0  0
  187.3960  178.2530  143.2480 N   0  0  1  0  0  0  0  0  0  0  0  0
  188.9410  176.9970  148.0990 N   0  0  0  0  0  1  0  0  0  0  0  0
  188.6130  178.2890  144.0920 C   0  0  0  0  0  2  0  0  0  0  0  0
  187.4820  177.1070  146.0310 C   0  0  1  0  0  3  0  0  0  0  0  0
  187.8620  177.6140  147.4050 C   0  0  0  0  0  0  0  0  0  0  0  0
  182.6230  178.7400  143.5490 C   0  0  0  0  0  0  0  0  0  0  0  0
  184.9320  178.0530  143.2740 C   0  0  0  0  0  0  0  0  0  0  0  0
  182.5010  178.8990  142.1650 C   0  0  0  0  0  3  0  0  0  0  0  0
  181.5650  178.9990  144.3550 F   0  0  0  0  0  0  0  0  0  0  0  0
  183.8360  178.3190  144.1020 C   0  0  0  0  0  3  0  0  0  0  0  0
  184.8080  178.2180  141.8850 C   0  0  0  0  0  3  0  0  0  0  0  0
  183.5940  178.6400  141.3320 C   0  0  0  0  0  3  0  0  0  0  0  0
  189.1400  178.4890  140.2910 C   0  0  2  0  0  3  0  0  0  0  0  0
  189.6110  177.1260  140.7610 C   0  0  2  0  0  3  0  0  0  0  0  0
  187.6520  177.5990  141.9560 C   0  0  1  0  0  3  0  0  0  0  0  0
  187.7450  178.6250  140.8440 C   0  0  0  0  0  2  0  0  0  0  0  0
  188.8770  176.7950  141.9740 N   0  0  0  0  0  2  0  0  0  0  0  0
  191.3580  176.7520  142.5050 C   0  0  0  0  0  1  0  0  0  0  0  0
  191.1000  177.1450  141.0630 C   0  0  0  0  0  2  0  0  0  0  0  0
  189.1030  178.5350  138.8950 O   0  0  0  0  0  0  0  0  0  0  0  0
  188.2340  177.1250  138.4270 S   0  0  0  0  0  0  0  0  0  0  0  0
  187.3490  178.0080  137.0960 C   0  0  0  0  0  2  0  0  0  0  0  0
  185.9510  177.4480  136.8450 C   0  0  0  0  0  3  0  0  0  0  0  0
  185.9800  175.9450  136.6220 C   0  0  0  0  0  1  0  0  0  0  0  0
  185.0000  177.8030  137.9740 C   0  0  0  0  0  1  0  0  0  0  0  0
  1 13  1  6  0  0  0
  1  2  1  0  0  0  0
  2  4  1  6  0  0  0
  2 10  1  0  0  0  0
  3  6  1  0  0  0  0
  4  3  1  0  0  0  0
  7  1  1  0  0  0  0
  7  9  1  1  0  0  0
  9  5  1  0  0  0  0
 10  5  1  6  0  0  0
 10 11  1  0  0  0  0
 11  6  2  0  0  0  0
 11  8  1  0  0  0  0
 12 16  1  0  0  0  0
 12 15  1  0  0  0  0
 13 16  2  0  0  0  0
 14 12  2  0  0  0  0
 17 13  1  0  0  0  0
 18 17  2  0  0  0  0
 18 14  1  0  0  0  0
 19 26  1  6  0  0  0
 19 20  1  0  0  0  0
 19 22  1  0  0  0  0
 20 25  1  1  0  0  0
 20 23  1  0  0  0  0
 21 22  1  6  0  0  0
 21 23  1  0  0  0  0
 21  7  1  0  0  0  0
 25 24  1  0  0  0  0
 27 26  1  0  0  0  0
 28 27  1  0  0  0  0
 29 28  1  0  0  0  0
 29 31  1  0  0  0  0
 30 29  1  0  0  0  0
M  END
>  <MODEL>
8

>  <REMARK>
 VINA RESULT:      -7.3      1.644      2.559
  Name = 
  7 active torsions:
  status: ('A' for Active; 'I' for Inactive)
    1  A    between atoms: C_1  and  C_24
    2  A    between atoms: C_4  and  C_12
    3  A    between atoms: O_6  and  C_7
    4  A    between atoms: O_6  and  S_19
    5  A    between atoms: C_9  and  C_22
    6  A    between atoms: C_15  and  N_21
    7  A    between atoms: S_19  and  C_24
                            x       y       z     vdW  Elec       q    Type
                         _______ _______ _______ _____ _____    ______ ____

>  <TORSDO>
F 7

$$$$
=
 OpenBabel11052413173D

 31 34  0  0  1  0  0  0  0  0999 V2000
  190.4720  177.0110  137.4390 C   0  0  2  0  0  3  0  0  0  0  0  0
  191.2000  176.2510  136.3150 C   0  0  2  0  0  3  0  0  0  0  0  0
  191.4060  174.1420  135.0190 C   0  0  0  0  0  2  0  0  0  0  0  0
  190.6920  174.8120  136.1830 C   0  0  0  0  0  2  0  0  0  0  0  0
  193.1020  176.3660  138.0420 C   0  0  0  0  0  2  0  0  0  0  0  0
  192.8950  174.1980  135.2020 C   0  0  0  0  0  3  0  0  0  0  0  0
  190.7000  176.4240  138.7770 N   0  0  1  0  0  0  0  0  0  0  0  0
  194.9250  175.1950  135.9240 N   0  0  0  0  0  1  0  0  0  0  0  0
  192.0130  175.7560  138.9310 C   0  0  0  0  0  2  0  0  0  0  0  0
  192.7280  176.2890  136.5560 C   0  0  1  0  0  3  0  0  0  0  0  0
  193.5030  175.1940  135.8550 C   0  0  0  0  0  0  0  0  0  0  0  0
  186.7730  176.2500  137.0710 C   0  0  0  0  0  0  0  0  0  0  0  0
  189.0080  177.1870  137.1450 C   0  0  0  0  0  0  0  0  0  0  0  0
  186.2680  177.4780  136.6300 C   0  0  0  0  0  3  0  0  0  0  0  0
  185.9350  175.2010  137.2530 F   0  0  0  0  0  0  0  0  0  0  0  0
  188.1390  176.1060  137.3280 C   0  0  0  0  0  3  0  0  0  0  0  0
  188.4970  178.4200  136.7060 C   0  0  0  0  0  3  0  0  0  0  0  0
  187.1300  178.5640  136.4490 C   0  0  0  0  0  3  0  0  0  0  0  0
  189.4460  177.0440  141.9210 C   0  0  2  0  0  3  0  0  0  0  0  0
  190.8710  177.5260  142.1120 C   0  0  2  0  0  3  0  0  0  0  0  0
  190.4970  177.4610  139.7990 C   0  0  1  0  0  3  0  0  0  0  0  0
  189.1460  177.3000  140.4670 C   0  0  0  0  0  2  0  0  0  0  0  0
  191.5450  177.4450  140.8230 N   0  0  0  0  0  2  0  0  0  0  0  0
  191.4750  177.2330  144.5160 C   0  0  0  0  0  1  0  0  0  0  0  0
  191.6050  176.6570  143.1190 C   0  0  0  0  0  2  0  0  0  0  0  0
  188.5730  177.7840  142.7230 O   0  0  0  0  0  0  0  0  0  0  0  0
  187.7180  176.6120  143.6480 S   0  0  0  0  0  0  0  0  0  0  0  0
  186.7290  177.8850  144.5050 C   0  0  0  0  0  2  0  0  0  0  0  0
  186.6180  177.6330  146.0070 C   0  0  0  0  0  3  0  0  0  0  0  0
  187.9750  177.6910  146.6880 C   0  0  0  0  0  1  0  0  0  0  0  0
  185.6480  178.6010  146.6620 C   0  0  0  0  0  1  0  0  0  0  0  0
  1 13  1  6  0  0  0
  1  7  1  0  0  0  0
  2  4  1  1  0  0  0
  2 10  1  0  0  0  0
  2  1  1  0  0  0  0
  3  6  1  0  0  0  0
  3  4  1  0  0  0  0
  5  9  1  0  0  0  0
  6 11  2  0  0  0  0
  7  9  1  6  0  0  0
  7 21  1  0  0  0  0
 10  5  1  1  0  0  0
 11  8  1  0  0  0  0
 11 10  1  0  0  0  0
 12 15  1  0  0  0  0
 12 16  1  0  0  0  0
 13 16  2  0  0  0  0
 14 12  2  0  0  0  0
 17 13  1  0  0  0  0
 18 14  1  0  0  0  0
 18 17  2  0  0  0  0
 19 20  1  0  0  0  0
 19 26  1  1  0  0  0
 20 25  1  1  0  0  0
 21 22  1  1  0  0  0
 21 23  1  0  0  0  0
 22 19  1  0  0  0  0
 23 20  1  0  0  0  0
 25 24  1  0  0  0  0
 26 27  1  0  0  0  0
 27 28  1  0  0  0  0
 28 29  1  0  0  0  0
 29 31  1  0  0  0  0
 29 30  1  0  0  0  0
M  END
>  <MODEL>
9

>  <REMARK>
 VINA RESULT:      -7.3      2.957      8.153
  Name = 
  7 active torsions:
  status: ('A' for Active; 'I' for Inactive)
    1  A    between atoms: C_1  and  C_24
    2  A    between atoms: C_4  and  C_12
    3  A    between atoms: O_6  and  C_7
    4  A    between atoms: O_6  and  S_19
    5  A    between atoms: C_9  and  C_22
    6  A    between atoms: C_15  and  N_21
    7  A    between atoms: S_19  and  C_24
                            x       y       z     vdW  Elec       q    Type
                         _______ _______ _______ _____ _____    ______ ____

>  <TORSDO>
F 7

$$$$
