=
 OpenBabel11052415563D

 34 39  0  0  1  0  0  0  0  0999 V2000
  188.7710  177.5590  144.6750 C   0  0  2  0  0  3  0  0  0  0  0  0
  191.2380  177.3180  141.9400 C   0  0  0  0  0  3  0  0  0  0  0  0
  191.6610  177.8520  144.2360 C   0  0  0  0  0  2  0  0  0  0  0  0
  189.6760  176.8320  147.0310 C   0  0  0  0  0  0  0  0  0  0  0  0
  190.9190  176.6890  147.5350 N   0  0  0  0  0  0  0  0  0  0  0  0
  188.5030  176.3720  147.6920 N   0  0  0  0  0  1  0  0  0  0  0  0
  191.0850  177.4230  145.4990 N   0  0  0  0  0  0  0  0  0  0  0  0
  189.7760  177.3080  145.7370 C   0  0  0  0  0  0  0  0  0  0  0  0
  191.7600  177.0680  146.5800 N   0  0  0  0  0  0  0  0  0  0  0  0
  190.6150  177.0130  140.6470 C   0  0  0  0  0  3  0  0  0  0  0  0
  189.3610  177.1940  140.2290 C   0  0  0  0  0  0  0  0  0  0  0  0
  188.2970  177.8200  141.0320 C   0  0  0  0  0  3  0  0  0  0  0  0
  190.6840  177.6050  143.1150 C   0  0  2  0  0  3  0  0  0  0  0  0
  188.2300  178.0100  142.3460 C   0  0  0  0  0  3  0  0  0  0  0  0
  189.2130  177.6710  143.3930 C   0  0  0  0  0  0  0  0  0  0  0  0
  189.0430  176.8220  138.8780 N   0  0  0  0  0  0  0  0  0  0  0  0
  189.8770  175.9880  138.1650 O   0  0  0  0  0  0  0  0  0  0  0  0
  188.0000  177.2400  138.3340 O   0  0  0  0  0  0  0  0  0  0  0  0
  186.9000  178.7480  145.6750 N   0  0  0  0  0  0  0  0  0  0  0  0
  187.3360  177.7430  144.9890 C   0  0  0  0  0  3  0  0  0  0  0  0
  185.4790  178.9060  145.9570 C   0  0  0  0  0  2  0  0  0  0  0  0
  184.3160  178.8430  142.2780 C   0  0  0  0  0  2  0  0  0  0  0  0
  183.1330  178.8460  145.0270 C   0  0  0  0  0  2  0  0  0  0  0  0
  180.6020  178.6260  141.5470 C   0  0  0  0  0  0  0  0  0  0  0  0
  181.9870  178.7410  141.3860 C   0  0  0  0  0  3  0  0  0  0  0  0
  182.8290  178.8020  142.5000 C   0  0  0  0  0  0  0  0  0  0  0  0
  180.8910  178.6350  143.9550 C   0  0  0  0  0  3  0  0  0  0  0  0
  182.2780  178.7240  143.7990 C   0  0  0  0  0  0  0  0  0  0  0  0
  180.0570  178.5860  142.8360 C   0  0  0  0  0  3  0  0  0  0  0  0
  184.6120  178.5810  144.7400 C   0  0  1  0  0  3  0  0  0  0  0  0
  185.0660  179.3500  143.5040 C   0  0  0  0  0  2  0  0  0  0  0  0
  179.7070  178.6060  140.3480 C   0  0  2  0  0  3  0  0  0  0  0  0
  180.2990  179.3410  139.3010 O   0  0  0  0  0  0  0  0  0  0  0  0
  179.2600  179.9760  140.0010 C   0  0  0  0  0  2  0  0  0  0  0  0
  1 20  1  1  0  0  0
  1  8  1  0  0  0  0
  3  7  1  0  0  0  0
  4  5  1  0  0  0  0
  4  6  1  0  0  0  0
  7  8  1  0  0  0  0
  7  9  1  0  0  0  0
  8  4  2  0  0  0  0
  9  5  2  0  0  0  0
 10  2  2  0  0  0  0
 11 10  1  0  0  0  0
 11 12  2  0  0  0  0
 12 14  1  0  0  0  0
 13  2  1  1  0  0  0
 13 15  1  0  0  0  0
 13  3  1  0  0  0  0
 14 15  2  0  0  0  0
 15  1  1  0  0  0  0
 16 11  1  0  0  0  0
 17 16  2  0  0  0  0
 18 16  2  0  0  0  0
 19 21  1  0  0  0  0
 20 19  2  0  0  0  0
 22 26  1  0  0  0  0
 22 31  1  0  0  0  0
 24 29  1  0  0  0  0
 25 24  2  0  0  0  0
 25 26  1  0  0  0  0
 26 28  2  0  0  0  0
 28 27  1  0  0  0  0
 28 23  1  0  0  0  0
 29 27  2  0  0  0  0
 30 23  1  0  0  0  0
 30 21  1  1  0  0  0
 31 30  1  0  0  0  0
 32 24  1  1  0  0  0
 33 34  1  0  0  0  0
 33 32  1  0  0  0  0
 34 32  1  0  0  0  0
M  END
>  <MODEL>
1

>  <REMARK>
 VINA RESULT:     -10.3      0.000      0.000
  Name = 
  5 active torsions:
  status: ('A' for Active; 'I' for Inactive)
    1  A    between atoms: C_1  and  C_9
    2  A    between atoms: N_3  and  C_25
    3  A    between atoms: C_7  and  C_11
    4  A    between atoms: N_8  and  C_18
    5  A    between atoms: C_18  and  C_30
                            x       y       z     vdW  Elec       q    Type
                         _______ _______ _______ _____ _____    ______ ____

>  <TORSDO>
F 5

$$$$
=
 OpenBabel11052415563D

 34 39  0  0  1  0  0  0  0  0999 V2000
  183.0800  178.6820  141.6280 C   0  0  2  0  0  3  0  0  0  0  0  0
  184.1350  177.5360  138.2820 C   0  0  0  0  0  3  0  0  0  0  0  0
  182.0580  177.0840  139.3850 C   0  0  0  0  0  2  0  0  0  0  0  0
  180.5060  179.1400  141.8660 C   0  0  0  0  0  0  0  0  0  0  0  0
  179.4320  178.7550  141.1450 N   0  0  0  0  0  0  0  0  0  0  0  0
  180.4540  180.1360  142.8810 N   0  0  0  0  0  1  0  0  0  0  0  0
  181.2000  177.8410  140.2820 N   0  0  0  0  0  0  0  0  0  0  0  0
  181.6350  178.5520  141.3260 C   0  0  0  0  0  0  0  0  0  0  0  0
  179.8870  177.9530  140.1900 N   0  0  0  0  0  0  0  0  0  0  0  0
  185.4950  177.9670  137.9430 C   0  0  0  0  0  3  0  0  0  0  0  0
  186.5070  178.3300  138.7330 C   0  0  0  0  0  0  0  0  0  0  0  0
  186.4580  178.3260  140.2050 C   0  0  0  0  0  3  0  0  0  0  0  0
  183.4590  177.6380  139.4230 C   0  0  2  0  0  3  0  0  0  0  0  0
  185.4060  178.3090  141.0170 C   0  0  0  0  0  3  0  0  0  0  0  0
  183.9680  178.2660  140.6850 C   0  0  0  0  0  0  0  0  0  0  0  0
  187.7540  178.6790  138.1090 N   0  0  0  0  0  0  0  0  0  0  0  0
  188.8360  179.0610  138.8710 O   0  0  0  0  0  0  0  0  0  0  0  0
  187.8770  178.6310  136.8680 O   0  0  0  0  0  0  0  0  0  0  0  0
  183.5470  178.4720  144.0060 N   0  0  0  0  0  0  0  0  0  0  0  0
  183.5610  179.1920  142.9330 C   0  0  0  0  0  3  0  0  0  0  0  0
  184.0380  179.0000  145.2720 C   0  0  0  0  0  2  0  0  0  0  0  0
  187.5870  177.6480  144.5870 C   0  0  0  0  0  2  0  0  0  0  0  0
  185.9300  178.5930  146.8920 C   0  0  0  0  0  2  0  0  0  0  0  0
  190.0270  177.3900  147.4770 C   0  0  0  0  0  0  0  0  0  0  0  0
  189.4550  177.2950  146.2030 C   0  0  0  0  0  3  0  0  0  0  0  0
  188.1320  177.6900  145.9870 C   0  0  0  0  0  0  0  0  0  0  0  0
  187.9400  178.2800  148.3360 C   0  0  0  0  0  3  0  0  0  0  0  0
  187.3730  178.2120  147.0590 C   0  0  0  0  0  0  0  0  0  0  0  0
  189.2590  177.8720  148.5450 C   0  0  0  0  0  3  0  0  0  0  0  0
  185.5470  178.8100  145.4270 C   0  0  1  0  0  3  0  0  0  0  0  0
  186.0630  177.6650  144.5620 C   0  0  0  0  0  2  0  0  0  0  0  0
  191.4290  176.9220  147.7070 C   0  0  2  0  0  3  0  0  0  0  0  0
  192.0350  176.6160  146.4720 O   0  0  0  0  0  0  0  0  0  0  0  0
  191.6020  175.5250  147.2420 C   0  0  0  0  0  2  0  0  0  0  0  0
  1 20  1  1  0  0  0
  3 13  1  0  0  0  0
  3  7  1  0  0  0  0
  4  6  1  0  0  0  0
  5  4  1  0  0  0  0
  7  8  1  0  0  0  0
  8  1  1  0  0  0  0
  8  4  2  0  0  0  0
  9  7  1  0  0  0  0
  9  5  2  0  0  0  0
 10  2  2  0  0  0  0
 10 11  1  0  0  0  0
 11 12  2  0  0  0  0
 12 14  1  0  0  0  0
 13  2  1  6  0  0  0
 13 15  1  0  0  0  0
 15 14  2  0  0  0  0
 15  1  1  0  0  0  0
 16 11  1  0  0  0  0
 16 17  2  0  0  0  0
 18 16  2  0  0  0  0
 19 21  1  0  0  0  0
 20 19  2  0  0  0  0
 22 26  1  0  0  0  0
 23 28  1  0  0  0  0
 24 29  1  0  0  0  0
 25 24  2  0  0  0  0
 26 25  1  0  0  0  0
 26 28  2  0  0  0  0
 27 29  2  0  0  0  0
 28 27  1  0  0  0  0
 30 21  1  1  0  0  0
 30 23  1  0  0  0  0
 31 22  1  0  0  0  0
 31 30  1  0  0  0  0
 32 24  1  6  0  0  0
 33 34  1  0  0  0  0
 33 32  1  0  0  0  0
 34 32  1  0  0  0  0
M  END
>  <MODEL>
2

>  <REMARK>
 VINA RESULT:     -10.1      3.723      8.323
  Name = 
  5 active torsions:
  status: ('A' for Active; 'I' for Inactive)
    1  A    between atoms: C_1  and  C_9
    2  A    between atoms: N_3  and  C_25
    3  A    between atoms: C_7  and  C_11
    4  A    between atoms: N_8  and  C_18
    5  A    between atoms: C_18  and  C_30
                            x       y       z     vdW  Elec       q    Type
                         _______ _______ _______ _____ _____    ______ ____

>  <TORSDO>
F 5

$$$$
=
 OpenBabel11052415563D

 34 39  0  0  1  0  0  0  0  0999 V2000
  188.3920  177.3300  145.1950 C   0  0  2  0  0  3  0  0  0  0  0  0
  184.9390  178.6340  145.1930 C   0  0  0  0  0  3  0  0  0  0  0  0
  186.1710  177.7840  147.0630 C   0  0  0  0  0  2  0  0  0  0  0  0
  189.7310  177.7830  147.4080 C   0  0  0  0  0  0  0  0  0  0  0  0
  189.3530  178.1030  148.6630 N   0  0  0  0  0  0  0  0  0  0  0  0
  191.0800  177.8330  146.9580 N   0  0  0  0  0  1  0  0  0  0  0  0
  187.5690  177.8260  147.4600 N   0  0  0  0  0  0  0  0  0  0  0  0
  188.5980  177.5950  146.6390 C   0  0  0  0  0  0  0  0  0  0  0  0
  188.0250  178.1120  148.6670 N   0  0  0  0  0  0  0  0  0  0  0  0
  184.4880  179.0300  143.8550 C   0  0  0  0  0  3  0  0  0  0  0  0
  184.9240  178.6540  142.6510 C   0  0  0  0  0  0  0  0  0  0  0  0
  185.9910  177.6640  142.4230 C   0  0  0  0  0  3  0  0  0  0  0  0
  186.0500  178.0130  145.5780 C   0  0  2  0  0  3  0  0  0  0  0  0
  186.9240  177.2180  143.2580 C   0  0  0  0  0  3  0  0  0  0  0  0
  187.1580  177.5650  144.6730 C   0  0  0  0  0  0  0  0  0  0  0  0
  184.2600  179.1940  141.4970 N   0  0  0  0  0  0  0  0  0  0  0  0
  184.9860  179.6760  140.4310 O   0  0  0  0  0  0  0  0  0  0  0  0
  183.0130  179.2240  141.4400 O   0  0  0  0  0  0  0  0  0  0  0  0
  190.2030  177.5120  143.5820 N   0  0  0  0  0  0  0  0  0  0  0  0
  189.4680  176.7720  144.3450 C   0  0  0  0  0  3  0  0  0  0  0  0
  191.2620  176.9320  142.7650 C   0  0  0  0  0  2  0  0  0  0  0  0
  191.5530  176.8270  138.9190 C   0  0  0  0  0  2  0  0  0  0  0  0
  189.5390  177.5260  141.0180 C   0  0  0  0  0  2  0  0  0  0  0  0
  188.5180  177.7360  136.8370 C   0  0  0  0  0  0  0  0  0  0  0  0
  189.8190  177.3800  137.2120 C   0  0  0  0  0  3  0  0  0  0  0  0
  190.1700  177.2930  138.5620 C   0  0  0  0  0  0  0  0  0  0  0  0
  187.9060  177.9270  139.1760 C   0  0  0  0  0  3  0  0  0  0  0  0
  189.1970  177.5460  139.5560 C   0  0  0  0  0  0  0  0  0  0  0  0
  187.5680  178.0220  137.8240 C   0  0  0  0  0  3  0  0  0  0  0  0
  190.8360  176.7670  141.3060 C   0  0  1  0  0  3  0  0  0  0  0  0
  191.9380  177.2020  140.3450 C   0  0  0  0  0  2  0  0  0  0  0  0
  188.1660  177.8690  135.3890 C   0  0  2  0  0  3  0  0  0  0  0  0
  186.7680  177.7850  135.2310 O   0  0  0  0  0  0  0  0  0  0  0  0
  187.5060  176.6390  134.8910 C   0  0  0  0  0  2  0  0  0  0  0  0
  1 20  1  1  0  0  0
  1  8  1  0  0  0  0
  3  7  1  0  0  0  0
  4  5  1  0  0  0  0
  5  9  2  0  0  0  0
  6  4  1  0  0  0  0
  7  9  1  0  0  0  0
  8  4  2  0  0  0  0
  8  7  1  0  0  0  0
 10  2  2  0  0  0  0
 11 10  1  0  0  0  0
 12 11  2  0  0  0  0
 12 14  1  0  0  0  0
 13  2  1  1  0  0  0
 13  3  1  0  0  0  0
 14 15  2  0  0  0  0
 15  1  1  0  0  0  0
 15 13  1  0  0  0  0
 16 11  1  0  0  0  0
 17 16  2  0  0  0  0
 18 16  2  0  0  0  0
 19 20  2  0  0  0  0
 21 19  1  0  0  0  0
 22 31  1  0  0  0  0
 23 30  1  0  0  0  0
 24 25  2  0  0  0  0
 24 29  1  0  0  0  0
 25 26  1  0  0  0  0
 26 22  1  0  0  0  0
 26 28  2  0  0  0  0
 27 28  1  0  0  0  0
 28 23  1  0  0  0  0
 29 27  2  0  0  0  0
 30 21  1  1  0  0  0
 31 30  1  0  0  0  0
 32 24  1  1  0  0  0
 33 32  1  0  0  0  0
 34 33  1  0  0  0  0
 34 32  1  0  0  0  0
M  END
>  <MODEL>
3

>  <REMARK>
 VINA RESULT:      -9.6      2.715      6.462
  Name = 
  5 active torsions:
  status: ('A' for Active; 'I' for Inactive)
    1  A    between atoms: C_1  and  C_9
    2  A    between atoms: N_3  and  C_25
    3  A    between atoms: C_7  and  C_11
    4  A    between atoms: N_8  and  C_18
    5  A    between atoms: C_18  and  C_30
                            x       y       z     vdW  Elec       q    Type
                         _______ _______ _______ _____ _____    ______ ____

>  <TORSDO>
F 5

$$$$
=
 OpenBabel11052415563D

 34 39  0  0  1  0  0  0  0  0999 V2000
  184.5320  178.4540  140.6370 C   0  0  2  0  0  3  0  0  0  0  0  0
  182.5060  176.7160  138.0870 C   0  0  0  0  0  3  0  0  0  0  0  0
  184.4740  178.0330  137.7300 C   0  0  0  0  0  2  0  0  0  0  0  0
  187.0990  178.5730  140.0990 C   0  0  0  0  0  0  0  0  0  0  0  0
  187.8080  178.4240  138.9610 N   0  0  0  0  0  0  0  0  0  0  0  0
  187.6910  178.6280  141.3920 N   0  0  0  0  0  1  0  0  0  0  0  0
  185.7000  178.2490  138.4810 N   0  0  0  0  0  0  0  0  0  0  0  0
  185.7540  178.4710  139.7980 C   0  0  0  0  0  0  0  0  0  0  0  0
  186.9260  178.2380  137.9870 N   0  0  0  0  0  0  0  0  0  0  0  0
  181.3380  176.0390  138.6620 C   0  0  0  0  0  2  0  0  0  0  0  0
  180.6920  176.2580  139.8090 C   0  0  0  0  0  0  0  0  0  0  0  0
  181.0270  177.3290  140.7640 C   0  0  0  0  0  3  0  0  0  0  0  0
  183.3870  177.5380  138.6500 C   0  0  0  0  0  0  0  0  0  0  0  0
  182.1480  178.0330  140.8860 C   0  0  0  0  0  3  0  0  0  0  0  0
  183.3860  177.9690  140.0860 C   0  0  0  0  0  0  0  0  0  0  0  0
  179.5440  175.4430  140.0990 N   0  0  0  0  0  0  0  0  0  0  0  0
  178.9520  175.4830  141.3420 O   0  0  0  0  0  0  0  0  0  0  0  0
  179.0610  174.6950  139.2240 O   0  0  0  0  0  0  0  0  0  0  0  0
  184.3440  178.2510  143.0530 N   0  0  0  0  0  0  0  0  0  0  0  0
  184.5250  178.9980  142.0140 C   0  0  0  0  0  3  0  0  0  0  0  0
  184.3540  178.8160  144.3960 C   0  0  0  0  0  2  0  0  0  0  0  0
  186.6430  178.2890  147.4590 C   0  0  0  0  0  2  0  0  0  0  0  0
  186.7730  178.0980  144.4760 C   0  0  0  0  0  2  0  0  0  0  0  0
  190.1870  177.0670  146.8950 C   0  0  0  0  0  0  0  0  0  0  0  0
  189.0210  177.5380  147.5110 C   0  0  0  0  0  3  0  0  0  0  0  0
  187.8980  177.8670  146.7480 C   0  0  0  0  0  0  0  0  0  0  0  0
  189.1070  177.2550  144.7310 C   0  0  0  0  0  3  0  0  0  0  0  0
  187.9320  177.7010  145.3450 C   0  0  0  0  0  0  0  0  0  0  0  0
  190.2280  176.9390  145.5010 C   0  0  0  0  0  3  0  0  0  0  0  0
  185.4660  178.2210  145.2620 C   0  0  1  0  0  3  0  0  0  0  0  0
  185.6810  179.0300  146.5370 C   0  0  0  0  0  2  0  0  0  0  0  0
  191.3980  176.7600  147.7170 C   0  0  2  0  0  3  0  0  0  0  0  0
  192.4300  176.2840  146.8830 O   0  0  0  0  0  0  0  0  0  0  0  0
  191.7400  175.3200  147.6380 C   0  0  0  0  0  2  0  0  0  0  0  0
  1 20  1  6  0  0  0
  2 13  2  0  0  0  0
  2 10  1  0  0  0  0
  3  7  1  0  0  0  0
  3 13  1  0  0  0  0
  4  6  1  0  0  0  0
  5  4  1  0  0  0  0
  7  8  1  0  0  0  0
  8  4  2  0  0  0  0
  8  1  1  0  0  0  0
  9  7  1  0  0  0  0
  9  5  2  0  0  0  0
 10 11  1  0  0  0  0
 11 16  1  0  0  0  0
 11 12  2  0  0  0  0
 12 14  1  0  0  0  0
 13 15  1  0  0  0  0
 15  1  1  0  0  0  0
 15 14  2  0  0  0  0
 16 17  2  0  0  0  0
 18 16  2  0  0  0  0
 19 21  1  0  0  0  0
 20 19  2  0  0  0  0
 23 30  1  0  0  0  0
 23 28  1  0  0  0  0
 24 25  1  0  0  0  0
 26 22  1  0  0  0  0
 26 25  2  0  0  0  0
 27 28  2  0  0  0  0
 27 29  1  0  0  0  0
 28 26  1  0  0  0  0
 29 24  2  0  0  0  0
 30 21  1  6  0  0  0
 30 31  1  0  0  0  0
 31 22  1  0  0  0  0
 32 24  1  6  0  0  0
 33 34  1  0  0  0  0
 33 32  1  0  0  0  0
 34 32  1  0  0  0  0
M  END
>  <MODEL>
4

>  <REMARK>
 VINA RESULT:      -9.6      3.770      8.644
  Name = 
  5 active torsions:
  status: ('A' for Active; 'I' for Inactive)
    1  A    between atoms: C_1  and  C_9
    2  A    between atoms: N_3  and  C_25
    3  A    between atoms: C_7  and  C_11
    4  A    between atoms: N_8  and  C_18
    5  A    between atoms: C_18  and  C_30
                            x       y       z     vdW  Elec       q    Type
                         _______ _______ _______ _____ _____    ______ ____

>  <TORSDO>
F 5

$$$$
=
 OpenBabel11052415563D

 34 39  0  0  1  0  0  0  0  0999 V2000
  184.5170  178.7730  141.6830 C   0  0  2  0  0  3  0  0  0  0  0  0
  186.0320  177.8270  144.9130 C   0  0  0  0  0  3  0  0  0  0  0  0
  183.9430  178.9450  144.5590 C   0  0  0  0  0  2  0  0  0  0  0  0
  181.8920  178.6900  141.6400 C   0  0  0  0  0  0  0  0  0  0  0  0
  180.9560  178.6870  142.6110 N   0  0  0  0  0  0  0  0  0  0  0  0
  181.6070  178.4180  140.2730 N   0  0  0  0  0  1  0  0  0  0  0  0
  182.9080  178.8610  143.5430 N   0  0  0  0  0  0  0  0  0  0  0  0
  183.1380  178.8110  142.2270 C   0  0  0  0  0  0  0  0  0  0  0  0
  181.6060  178.8030  143.7630 N   0  0  0  0  0  0  0  0  0  0  0  0
  187.3450  177.1930  144.7540 C   0  0  0  0  0  2  0  0  0  0  0  0
  188.2170  177.2560  143.7460 C   0  0  0  0  0  0  0  0  0  0  0  0
  188.0310  178.0690  142.5320 C   0  0  0  0  0  3  0  0  0  0  0  0
  185.2440  178.4110  144.0150 C   0  0  0  0  0  0  0  0  0  0  0  0
  186.9190  178.5970  142.0300 C   0  0  0  0  0  3  0  0  0  0  0  0
  185.5390  178.5460  142.5510 C   0  0  0  0  0  0  0  0  0  0  0  0
  189.4570  176.5420  143.8850 N   0  0  0  0  0  0  0  0  0  0  0  0
  189.8600  175.6440  142.9220 O   0  0  0  0  0  0  0  0  0  0  0  0
  190.1910  176.7340  144.8770 O   0  0  0  0  0  0  0  0  0  0  0  0
  184.9590  178.0760  139.3950 N   0  0  0  0  0  0  0  0  0  0  0  0
  184.7970  179.0300  140.2520 C   0  0  0  0  0  3  0  0  0  0  0  0
  185.2230  178.3640  137.9910 C   0  0  0  0  0  2  0  0  0  0  0  0
  187.9680  176.2610  136.2780 C   0  0  0  0  0  2  0  0  0  0  0  0
  187.5800  177.8870  138.7590 C   0  0  0  0  0  2  0  0  0  0  0  0
  191.3810  176.0420  137.9140 C   0  0  0  0  0  0  0  0  0  0  0  0
  190.3070  175.8410  137.0400 C   0  0  0  0  0  3  0  0  0  0  0  0
  189.0680  176.4390  137.2870 C   0  0  0  0  0  0  0  0  0  0  0  0
  189.9740  177.4490  139.3020 C   0  0  0  0  0  3  0  0  0  0  0  0
  188.9060  177.2720  138.4170 C   0  0  0  0  0  0  0  0  0  0  0  0
  191.2060  176.8380  139.0530 C   0  0  0  0  0  3  0  0  0  0  0  0
  186.6230  177.9180  137.5660 C   0  0  1  0  0  3  0  0  0  0  0  0
  186.5940  176.5650  136.8650 C   0  0  0  0  0  2  0  0  0  0  0  0
  192.6890  175.3610  137.6640 C   0  0  2  0  0  3  0  0  0  0  0  0
  193.7340  176.1150  138.2350 O   0  0  0  0  0  0  0  0  0  0  0  0
  193.5800  176.2150  136.8430 C   0  0  0  0  0  2  0  0  0  0  0  0
  1 20  1  1  0  0  0
  1  8  1  0  0  0  0
  1 15  1  0  0  0  0
  4  8  2  0  0  0  0
  4  5  1  0  0  0  0
  5  9  2  0  0  0  0
  6  4  1  0  0  0  0
  7  9  1  0  0  0  0
  7  3  1  0  0  0  0
  8  7  1  0  0  0  0
 10  2  1  0  0  0  0
 11 16  1  0  0  0  0
 11 10  1  0  0  0  0
 12 11  2  0  0  0  0
 13  3  1  0  0  0  0
 13  2  2  0  0  0  0
 14 12  1  0  0  0  0
 14 15  2  0  0  0  0
 15 13  1  0  0  0  0
 16 18  2  0  0  0  0
 17 16  2  0  0  0  0
 19 20  2  0  0  0  0
 21 19  1  0  0  0  0
 22 31  1  0  0  0  0
 22 26  1  0  0  0  0
 24 29  1  0  0  0  0
 25 26  1  0  0  0  0
 25 24  2  0  0  0  0
 26 28  2  0  0  0  0
 28 23  1  0  0  0  0
 28 27  1  0  0  0  0
 29 27  2  0  0  0  0
 30 21  1  1  0  0  0
 30 23  1  0  0  0  0
 31 30  1  0  0  0  0
 32 24  1  1  0  0  0
 32 33  1  0  0  0  0
 34 32  1  0  0  0  0
 34 33  1  0  0  0  0
M  END
>  <MODEL>
5

>  <REMARK>
 VINA RESULT:      -9.3      3.564      8.548
  Name = 
  5 active torsions:
  status: ('A' for Active; 'I' for Inactive)
    1  A    between atoms: C_1  and  C_9
    2  A    between atoms: N_3  and  C_25
    3  A    between atoms: C_7  and  C_11
    4  A    between atoms: N_8  and  C_18
    5  A    between atoms: C_18  and  C_30
                            x       y       z     vdW  Elec       q    Type
                         _______ _______ _______ _____ _____    ______ ____

>  <TORSDO>
F 5

$$$$
=
 OpenBabel11052415563D

 34 39  0  0  1  0  0  0  0  0999 V2000
  187.3740  178.3410  144.5550 C   0  0  2  0  0  3  0  0  0  0  0  0
  189.0180  177.1120  147.6220 C   0  0  0  0  0  3  0  0  0  0  0  0
  187.0520  178.4710  147.4720 C   0  0  0  0  0  2  0  0  0  0  0  0
  184.7620  178.5570  144.7250 C   0  0  0  0  0  0  0  0  0  0  0  0
  183.9110  178.6240  145.7700 N   0  0  0  0  0  0  0  0  0  0  0  0
  184.3400  178.3700  143.3790 N   0  0  0  0  0  1  0  0  0  0  0  0
  185.9370  178.5420  146.5420 N   0  0  0  0  0  0  0  0  0  0  0  0
  186.0560  178.5150  145.2110 C   0  0  0  0  0  0  0  0  0  0  0  0
  184.6580  178.6240  146.8670 N   0  0  0  0  0  0  0  0  0  0  0  0
  190.2320  176.3400  147.3380 C   0  0  0  0  0  2  0  0  0  0  0  0
  191.0240  176.3410  146.2640 C   0  0  0  0  0  0  0  0  0  0  0  0
  190.8380  177.2140  145.0920 C   0  0  0  0  0  3  0  0  0  0  0  0
  188.2350  177.8140  146.8080 C   0  0  0  0  0  0  0  0  0  0  0  0
  189.7590  177.8820  144.6980 C   0  0  0  0  0  3  0  0  0  0  0  0
  188.4280  177.9680  145.3290 C   0  0  0  0  0  0  0  0  0  0  0  0
  192.1800  175.4870  146.2810 N   0  0  0  0  0  0  0  0  0  0  0  0
  193.0080  175.4480  147.3810 O   0  0  0  0  0  0  0  0  0  0  0  0
  192.4440  174.7590  145.3010 O   0  0  0  0  0  0  0  0  0  0  0  0
  187.6670  177.6760  142.2340 N   0  0  0  0  0  0  0  0  0  0  0  0
  187.5680  178.6180  143.1130 C   0  0  0  0  0  3  0  0  0  0  0  0
  187.8470  177.9820  140.8210 C   0  0  0  0  0  2  0  0  0  0  0  0
  191.5340  176.9920  140.2580 C   0  0  0  0  0  2  0  0  0  0  0  0
  188.9950  177.2440  138.6970 C   0  0  0  0  0  2  0  0  0  0  0  0
  192.6050  175.8420  136.8080 C   0  0  0  0  0  0  0  0  0  0  0  0
  192.6340  176.2250  138.1540 C   0  0  0  0  0  3  0  0  0  0  0  0
  191.4730  176.6710  138.7910 C   0  0  0  0  0  0  0  0  0  0  0  0
  190.2360  176.3570  136.7240 C   0  0  0  0  0  3  0  0  0  0  0  0
  190.2550  176.7150  138.0760 C   0  0  0  0  0  0  0  0  0  0  0  0
  191.4040  175.9220  136.0930 C   0  0  0  0  0  3  0  0  0  0  0  0
  189.0560  177.2590  140.2250 C   0  0  1  0  0  3  0  0  0  0  0  0
  190.3690  177.8680  140.7050 C   0  0  0  0  0  2  0  0  0  0  0  0
  193.8630  175.4080  136.1240 C   0  0  2  0  0  3  0  0  0  0  0  0
  194.9780  175.9580  136.7890 O   0  0  0  0  0  0  0  0  0  0  0  0
  194.6000  176.5760  135.5850 C   0  0  0  0  0  2  0  0  0  0  0  0
  1 20  1  1  0  0  0
  1  8  1  0  0  0  0
  1 15  1  0  0  0  0
  4  8  2  0  0  0  0
  4  5  1  0  0  0  0
  5  9  2  0  0  0  0
  6  4  1  0  0  0  0
  7  9  1  0  0  0  0
  7  3  1  0  0  0  0
  8  7  1  0  0  0  0
 10  2  1  0  0  0  0
 11 16  1  0  0  0  0
 11 10  1  0  0  0  0
 12 11  2  0  0  0  0
 13  3  1  0  0  0  0
 13  2  2  0  0  0  0
 14 12  1  0  0  0  0
 14 15  2  0  0  0  0
 15 13  1  0  0  0  0
 16 17  2  0  0  0  0
 18 16  2  0  0  0  0
 19 20  2  0  0  0  0
 21 19  1  0  0  0  0
 22 31  1  0  0  0  0
 23 30  1  0  0  0  0
 24 25  1  0  0  0  0
 25 26  2  0  0  0  0
 26 22  1  0  0  0  0
 27 28  2  0  0  0  0
 28 23  1  0  0  0  0
 28 26  1  0  0  0  0
 29 27  1  0  0  0  0
 29 24  2  0  0  0  0
 30 31  1  0  0  0  0
 30 21  1  1  0  0  0
 32 33  1  0  0  0  0
 32 24  1  1  0  0  0
 34 32  1  0  0  0  0
 34 33  1  0  0  0  0
M  END
>  <MODEL>
6

>  <REMARK>
 VINA RESULT:      -9.2      4.048      8.564
  Name = 
  5 active torsions:
  status: ('A' for Active; 'I' for Inactive)
    1  A    between atoms: C_1  and  C_9
    2  A    between atoms: N_3  and  C_25
    3  A    between atoms: C_7  and  C_11
    4  A    between atoms: N_8  and  C_18
    5  A    between atoms: C_18  and  C_30
                            x       y       z     vdW  Elec       q    Type
                         _______ _______ _______ _____ _____    ______ ____

>  <TORSDO>
F 5

$$$$
=
 OpenBabel11052415563D

 34 39  0  0  1  0  0  0  0  0999 V2000
  188.8520  177.1260  144.6050 C   0  0  2  0  0  3  0  0  0  0  0  0
  185.5970  178.2210  145.9580 C   0  0  0  0  0  3  0  0  0  0  0  0
  187.3860  177.1660  147.1500 C   0  0  0  0  0  2  0  0  0  0  0  0
  190.8550  177.3090  146.2930 C   0  0  0  0  0  0  0  0  0  0  0  0
  190.9190  177.4130  147.6370 N   0  0  0  0  0  0  0  0  0  0  0  0
  191.9750  177.5020  145.4360 N   0  0  0  0  0  1  0  0  0  0  0  0
  188.8350  177.2230  147.0630 N   0  0  0  0  0  0  0  0  0  0  0  0
  189.5300  177.1780  145.9230 C   0  0  0  0  0  0  0  0  0  0  0  0
  189.6700  177.3470  148.0810 N   0  0  0  0  0  0  0  0  0  0  0  0
  184.7230  178.7910  144.9270 C   0  0  0  0  0  3  0  0  0  0  0  0
  184.7300  178.6280  143.6030 C   0  0  0  0  0  0  0  0  0  0  0  0
  185.6590  177.7450  142.8770 C   0  0  0  0  0  3  0  0  0  0  0  0
  186.7740  177.6110  145.8470 C   0  0  2  0  0  3  0  0  0  0  0  0
  186.8190  177.2300  143.2710 C   0  0  0  0  0  3  0  0  0  0  0  0
  187.5140  177.3690  144.5660 C   0  0  0  0  0  0  0  0  0  0  0  0
  183.7160  179.3000  142.8370 N   0  0  0  0  0  0  0  0  0  0  0  0
  183.7420  179.2710  141.4610 O   0  0  0  0  0  0  0  0  0  0  0  0
  182.7910  179.9120  143.4110 O   0  0  0  0  0  0  0  0  0  0  0  0
  190.1750  177.6450  142.6310 N   0  0  0  0  0  0  0  0  0  0  0  0
  189.5810  176.7650  143.3680 C   0  0  0  0  0  3  0  0  0  0  0  0
  190.8930  177.2550  141.4250 C   0  0  0  0  0  2  0  0  0  0  0  0
  189.7460  175.9620  137.9750 C   0  0  0  0  0  2  0  0  0  0  0  0
  188.8280  177.8540  140.1030 C   0  0  0  0  0  2  0  0  0  0  0  0
  186.4380  177.1810  136.5810 C   0  0  0  0  0  0  0  0  0  0  0  0
  187.6760  176.5410  136.7070 C   0  0  0  0  0  3  0  0  0  0  0  0
  188.4630  176.7340  137.8460 C   0  0  0  0  0  0  0  0  0  0  0  0
  186.7680  178.2240  138.7460 C   0  0  0  0  0  3  0  0  0  0  0  0
  187.9940  177.5660  138.8880 C   0  0  0  0  0  0  0  0  0  0  0  0
  185.9940  178.0330  137.5990 C   0  0  0  0  0  3  0  0  0  0  0  0
  189.9440  176.8280  140.3040 C   0  0  1  0  0  3  0  0  0  0  0  0
  190.6910  176.5830  138.9970 C   0  0  0  0  0  2  0  0  0  0  0  0
  185.6240  177.0010  135.3380 C   0  0  2  0  0  3  0  0  0  0  0  0
  184.2640  177.2350  135.6240 O   0  0  0  0  0  0  0  0  0  0  0  0
  184.6550  175.8920  135.4970 C   0  0  0  0  0  2  0  0  0  0  0  0
  1 20  1  1  0  0  0
  1  8  1  0  0  0  0
  4  5  1  0  0  0  0
  5  9  2  0  0  0  0
  6  4  1  0  0  0  0
  7  3  1  0  0  0  0
  7  9  1  0  0  0  0
  8  4  2  0  0  0  0
  8  7  1  0  0  0  0
 10  2  2  0  0  0  0
 11 10  1  0  0  0  0
 12 14  1  0  0  0  0
 12 11  2  0  0  0  0
 13  2  1  1  0  0  0
 13  3  1  0  0  0  0
 14 15  2  0  0  0  0
 15  1  1  0  0  0  0
 15 13  1  0  0  0  0
 16 18  2  0  0  0  0
 16 11  1  0  0  0  0
 17 16  2  0  0  0  0
 19 20  2  0  0  0  0
 21 19  1  0  0  0  0
 22 31  1  0  0  0  0
 23 30  1  0  0  0  0
 24 25  2  0  0  0  0
 24 29  1  0  0  0  0
 25 26  1  0  0  0  0
 26 22  1  0  0  0  0
 26 28  2  0  0  0  0
 27 28  1  0  0  0  0
 28 23  1  0  0  0  0
 29 27  2  0  0  0  0
 30 21  1  1  0  0  0
 31 30  1  0  0  0  0
 32 34  1  0  0  0  0
 32 33  1  0  0  0  0
 32 24  1  1  0  0  0
 34 33  1  0  0  0  0
M  END
>  <MODEL>
7

>  <REMARK>
 VINA RESULT:      -9.1      2.920      6.047
  Name = 
  5 active torsions:
  status: ('A' for Active; 'I' for Inactive)
    1  A    between atoms: C_1  and  C_9
    2  A    between atoms: N_3  and  C_25
    3  A    between atoms: C_7  and  C_11
    4  A    between atoms: N_8  and  C_18
    5  A    between atoms: C_18  and  C_30
                            x       y       z     vdW  Elec       q    Type
                         _______ _______ _______ _____ _____    ______ ____

>  <TORSDO>
F 5

$$$$
=
 OpenBabel11052415563D

 34 39  0  0  1  0  0  0  0  0999 V2000
  186.1950  177.8820  138.1770 C   0  0  2  0  0  3  0  0  0  0  0  0
  182.6680  177.9800  139.2620 C   0  0  0  0  0  3  0  0  0  0  0  0
  183.4950  177.8290  137.0190 C   0  0  0  0  0  2  0  0  0  0  0  0
  186.6380  176.4380  136.0290 C   0  0  0  0  0  0  0  0  0  0  0  0
  185.8350  175.9800  135.0460 N   0  0  0  0  0  0  0  0  0  0  0  0
  187.9830  176.0100  136.2070 N   0  0  0  0  0  1  0  0  0  0  0  0
  184.6410  177.1810  136.4030 N   0  0  0  0  0  0  0  0  0  0  0  0
  185.8840  177.2130  136.8910 C   0  0  0  0  0  0  0  0  0  0  0  0
  184.6220  176.4590  135.2960 N   0  0  0  0  0  0  0  0  0  0  0  0
  182.5310  178.1210  140.7160 C   0  0  0  0  0  2  0  0  0  0  0  0
  183.3880  178.5960  141.6210 C   0  0  0  0  0  0  0  0  0  0  0  0
  184.7160  179.1480  141.3030 C   0  0  0  0  0  3  0  0  0  0  0  0
  183.7500  178.0350  138.4910 C   0  0  0  0  0  0  0  0  0  0  0  0
  185.4540  179.0000  140.2080 C   0  0  0  0  0  3  0  0  0  0  0  0
  185.1540  178.2530  138.9700 C   0  0  0  0  0  0  0  0  0  0  0  0
  182.9610  178.6400  142.9930 N   0  0  0  0  0  0  0  0  0  0  0  0
  183.8820  178.6120  144.0160 O   0  0  0  0  0  0  0  0  0  0  0  0
  181.7470  178.7160  143.2750 O   0  0  0  0  0  0  0  0  0  0  0  0
  188.2700  177.4380  139.3660 N   0  0  0  0  0  0  0  0  0  0  0  0
  187.5860  178.1980  138.5750 C   0  0  0  0  0  3  0  0  0  0  0  0
  189.6410  177.7710  139.7290 C   0  0  0  0  0  2  0  0  0  0  0  0
  191.2300  177.2690  143.2100 C   0  0  0  0  0  2  0  0  0  0  0  0
  188.5190  177.5760  141.9820 C   0  0  0  0  0  2  0  0  0  0  0  0
  188.9660  177.1820  146.2500 C   0  0  0  0  0  0  0  0  0  0  0  0
  190.0980  177.1210  145.4290 C   0  0  0  0  0  3  0  0  0  0  0  0
  189.9790  177.2580  144.0430 C   0  0  0  0  0  0  0  0  0  0  0  0
  187.5760  177.5160  144.2900 C   0  0  0  0  0  3  0  0  0  0  0  0
  188.7070  177.4830  143.4690 C   0  0  0  0  0  0  0  0  0  0  0  0
  187.7040  177.3670  145.6730 C   0  0  0  0  0  3  0  0  0  0  0  0
  189.8240  177.8790  141.2440 C   0  0  1  0  0  3  0  0  0  0  0  0
  190.9460  176.9750  141.7410 C   0  0  0  0  0  2  0  0  0  0  0  0
  189.1000  176.9880  147.7270 C   0  0  2  0  0  3  0  0  0  0  0  0
  187.9340  177.4450  148.3730 O   0  0  0  0  0  0  0  0  0  0  0  0
  189.0550  178.2890  148.4360 C   0  0  0  0  0  2  0  0  0  0  0  0
  1 20  1  6  0  0  0
  1 15  1  0  0  0  0
  2 10  1  0  0  0  0
  3 13  1  0  0  0  0
  4  6  1  0  0  0  0
  4  8  2  0  0  0  0
  5  9  2  0  0  0  0
  5  4  1  0  0  0  0
  7  8  1  0  0  0  0
  7  3  1  0  0  0  0
  8  1  1  0  0  0  0
  9  7  1  0  0  0  0
 10 11  1  0  0  0  0
 11 16  1  0  0  0  0
 12 11  2  0  0  0  0
 13 15  1  0  0  0  0
 13  2  2  0  0  0  0
 14 12  1  0  0  0  0
 15 14  2  0  0  0  0
 16 18  2  0  0  0  0
 16 17  2  0  0  0  0
 19 21  1  0  0  0  0
 20 19  2  0  0  0  0
 22 26  1  0  0  0  0
 23 28  1  0  0  0  0
 25 24  2  0  0  0  0
 26 25  1  0  0  0  0
 27 29  2  0  0  0  0
 28 26  2  0  0  0  0
 28 27  1  0  0  0  0
 29 24  1  0  0  0  0
 30 21  1  6  0  0  0
 30 31  1  0  0  0  0
 30 23  1  0  0  0  0
 31 22  1  0  0  0  0
 32 24  1  6  0  0  0
 32 33  1  0  0  0  0
 32 34  1  0  0  0  0
 33 34  1  0  0  0  0
M  END
>  <MODEL>
8

>  <REMARK>
 VINA RESULT:      -9.1      3.894      8.908
  Name = 
  5 active torsions:
  status: ('A' for Active; 'I' for Inactive)
    1  A    between atoms: C_1  and  C_9
    2  A    between atoms: N_3  and  C_25
    3  A    between atoms: C_7  and  C_11
    4  A    between atoms: N_8  and  C_18
    5  A    between atoms: C_18  and  C_30
                            x       y       z     vdW  Elec       q    Type
                         _______ _______ _______ _____ _____    ______ ____

>  <TORSDO>
F 5

$$$$
=
 OpenBabel11052415563D

 34 39  0  0  1  0  0  0  0  0999 V2000
  185.5070  178.0460  138.0790 C   0  0  2  0  0  3  0  0  0  0  0  0
  184.7280  175.7530  135.2940 C   0  0  0  0  0  3  0  0  0  0  0  0
  186.6430  177.1740  135.5130 C   0  0  0  0  0  2  0  0  0  0  0  0
  188.0690  178.3170  138.5880 C   0  0  0  0  0  0  0  0  0  0  0  0
  189.1820  178.0600  137.8700 N   0  0  0  0  0  0  0  0  0  0  0  0
  188.0850  178.6280  139.9760 N   0  0  0  0  0  1  0  0  0  0  0  0
  187.4530  177.6170  136.6360 N   0  0  0  0  0  0  0  0  0  0  0  0
  186.9640  178.0460  137.8030 C   0  0  0  0  0  0  0  0  0  0  0  0
  188.7740  177.6440  136.6770 N   0  0  0  0  0  0  0  0  0  0  0  0
  183.4430  175.0680  135.4720 C   0  0  0  0  0  3  0  0  0  0  0  0
  182.3820  175.4020  136.2100 C   0  0  0  0  0  0  0  0  0  0  0  0
  182.2780  176.6340  137.0100 C   0  0  0  0  0  3  0  0  0  0  0  0
  185.2870  176.7300  136.0010 C   0  0  2  0  0  3  0  0  0  0  0  0
  183.2370  177.4500  137.4370 C   0  0  0  0  0  3  0  0  0  0  0  0
  184.6950  177.3770  137.2170 C   0  0  0  0  0  0  0  0  0  0  0  0
  181.2340  174.5390  136.1640 N   0  0  0  0  0  0  0  0  0  0  0  0
  179.9970  174.9970  136.5600 O   0  0  0  0  0  0  0  0  0  0  0  0
  181.3400  173.3640  135.7550 O   0  0  0  0  0  0  0  0  0  0  0  0
  184.6730  178.2350  140.3560 N   0  0  0  0  0  0  0  0  0  0  0  0
  184.9310  178.7940  139.2190 C   0  0  0  0  0  3  0  0  0  0  0  0
  184.1150  179.0030  141.4620 C   0  0  0  0  0  2  0  0  0  0  0  0
  184.4830  178.7520  145.2950 C   0  0  0  0  0  2  0  0  0  0  0  0
  186.0980  178.2460  142.8280 C   0  0  0  0  0  2  0  0  0  0  0  0
  187.7220  177.4020  146.7300 C   0  0  0  0  0  0  0  0  0  0  0  0
  186.4430  177.9600  146.6210 C   0  0  0  0  0  3  0  0  0  0  0  0
  185.8900  178.2310  145.3660 C   0  0  0  0  0  0  0  0  0  0  0  0
  187.9090  177.3850  144.3120 C   0  0  0  0  0  3  0  0  0  0  0  0
  186.6210  177.9180  144.1970 C   0  0  0  0  0  0  0  0  0  0  0  0
  188.4570  177.1280  145.5700 C   0  0  0  0  0  3  0  0  0  0  0  0
  184.5870  178.4790  142.8190 C   0  0  1  0  0  3  0  0  0  0  0  0
  184.1800  179.4120  143.9550 C   0  0  0  0  0  2  0  0  0  0  0  0
  188.3200  177.1570  148.0790 C   0  0  2  0  0  3  0  0  0  0  0  0
  187.9280  178.1810  148.9650 O   0  0  0  0  0  0  0  0  0  0  0  0
  189.2350  178.2600  148.4580 C   0  0  0  0  0  2  0  0  0  0  0  0
  1 20  1  6  0  0  0
  2 10  2  0  0  0  0
  3 13  1  0  0  0  0
  3  7  1  0  0  0  0
  4  6  1  0  0  0  0
  5  4  1  0  0  0  0
  7  9  1  0  0  0  0
  7  8  1  0  0  0  0
  8  1  1  0  0  0  0
  8  4  2  0  0  0  0
  9  5  2  0  0  0  0
 10 11  1  0  0  0  0
 11 12  2  0  0  0  0
 12 14  1  0  0  0  0
 13  2  1  1  0  0  0
 13 15  1  0  0  0  0
 15 14  2  0  0  0  0
 15  1  1  0  0  0  0
 16 11  1  0  0  0  0
 16 17  2  0  0  0  0
 18 16  2  0  0  0  0
 19 21  1  0  0  0  0
 20 19  2  0  0  0  0
 22 26  1  0  0  0  0
 23 28  1  0  0  0  0
 25 24  1  0  0  0  0
 26 25  2  0  0  0  0
 27 29  1  0  0  0  0
 28 27  2  0  0  0  0
 28 26  1  0  0  0  0
 29 24  2  0  0  0  0
 30 21  1  6  0  0  0
 30 23  1  0  0  0  0
 30 31  1  0  0  0  0
 31 22  1  0  0  0  0
 32 24  1  6  0  0  0
 32 34  1  0  0  0  0
 32 33  1  0  0  0  0
 34 33  1  0  0  0  0
M  END
>  <MODEL>
9

>  <REMARK>
 VINA RESULT:      -9.0      4.335      8.171
  Name = 
  5 active torsions:
  status: ('A' for Active; 'I' for Inactive)
    1  A    between atoms: C_1  and  C_9
    2  A    between atoms: N_3  and  C_25
    3  A    between atoms: C_7  and  C_11
    4  A    between atoms: N_8  and  C_18
    5  A    between atoms: C_18  and  C_30
                            x       y       z     vdW  Elec       q    Type
                         _______ _______ _______ _____ _____    ______ ____

>  <TORSDO>
F 5

$$$$
