=
 OpenBabel11052412493D

 25 27  0  0  1  0  0  0  0  0999 V2000
  190.9880  176.4440  145.4060 N   0  0  0  0  0  0  0  0  0  0  0  0
  189.8380  177.0650  145.7030 C   0  0  0  0  0  0  0  0  0  0  0  0
  191.6320  176.3410  146.5940 C   0  0  0  0  0  3  0  0  0  0  0  0
  186.5160  178.1570  144.7040 C   0  0  0  0  0  0  0  0  0  0  0  0
  190.9270  176.8920  147.6200 N   0  0  0  0  0  0  0  0  0  0  0  0
  188.6180  177.9410  147.6620 C   0  0  0  0  0  0  0  0  0  0  0  0
  188.5940  178.2510  149.1170 C   0  0  0  0  0  1  0  0  0  0  0  0
  185.4840  178.4250  143.9500 C   0  0  0  0  0  3  0  0  0  0  0  0
  188.7170  177.2860  144.8470 N   0  0  0  0  0  2  0  0  0  0  0  0
  191.4210  175.8900  144.1530 C   0  0  0  0  0  0  0  0  0  0  0  0
  192.1350  174.8500  144.1580 O   0  0  0  0  0  0  0  0  0  0  0  0
  187.5450  178.2060  146.8970 C   0  0  0  0  0  3  0  0  0  0  0  0
  187.5540  177.8880  145.4410 C   0  0  0  0  0  0  0  0  0  0  0  0
  189.8020  177.3380  147.0310 C   0  0  0  0  0  0  0  0  0  0  0  0
  191.0770  176.5200  142.8610 C   0  0  0  0  0  0  0  0  0  0  0  0
  190.4350  177.6490  140.4120 N   0  0  0  0  0  0  0  0  0  0  0  0
  189.8480  176.2420  142.2510 C   0  0  0  0  0  3  0  0  0  0  0  0
  189.5410  176.8230  141.0190 C   0  0  0  0  0  3  0  0  0  0  0  0
  191.6410  177.9250  140.9760 C   0  0  0  0  0  3  0  0  0  0  0  0
  191.9850  177.3630  142.2060 C   0  0  0  0  0  3  0  0  0  0  0  0
  185.4120  177.9240  142.5440 C   0  0  2  0  0  3  0  0  0  0  0  0
  186.4630  178.5920  141.6710 C   0  0  0  0  0  1  0  0  0  0  0  0
  184.0480  178.1500  141.9800 C   0  0  0  0  0  0  0  0  0  0  0  0
  183.0850  178.7850  142.7500 O   0  0  0  0  0  1  0  0  0  0  0  0
  183.7650  177.7720  140.8110 O   0  0  0  0  0  0  0  0  0  0  0  0
  1  2  1  0  0  0  0
  1  3  1  0  0  0  0
  2 14  2  0  0  0  0
  3  5  2  0  0  0  0
  4 13  2  0  0  0  0
  6  7  1  0  0  0  0
  8  4  2  0  0  0  0
  9 13  1  0  0  0  0
  9  2  1  0  0  0  0
 10 11  2  0  0  0  0
 10  1  1  0  0  0  0
 12  6  2  0  0  0  0
 13 12  1  0  0  0  0
 14  5  1  0  0  0  0
 14  6  1  0  0  0  0
 15 10  1  0  0  0  0
 16 19  2  0  0  0  0
 16 18  1  0  0  0  0
 17 15  1  0  0  0  0
 18 17  2  0  0  0  0
 19 20  1  0  0  0  0
 20 15  2  0  0  0  0
 21 22  1  6  0  0  0
 21  8  1  0  0  0  0
 23 21  1  0  0  0  0
 23 24  1  0  0  0  0
 25 23  2  0  0  0  0
M  END
>  <MODEL>
1

>  <REMARK>
 VINA RESULT:      -8.7      0.000      0.000
  Name = 
  3 active torsions:
  status: ('A' for Active; 'I' for Inactive)
    1  A    between atoms: C_2  and  C_21
    2  A    between atoms: C_5  and  C_18
    3  A    between atoms: C_15  and  C_21
                            x       y       z     vdW  Elec       q    Type
                         _______ _______ _______ _____ _____    ______ ____

>  <TORSDO>
F 3

$$$$
=
 OpenBabel11052412493D

 25 27  0  0  1  0  0  0  0  0999 V2000
  187.5380  177.7420  145.6950 N   0  0  0  0  0  0  0  0  0  0  0  0
  186.9070  178.1190  144.5750 C   0  0  0  0  0  0  0  0  0  0  0  0
  186.6220  177.9270  146.6770 C   0  0  0  0  0  3  0  0  0  0  0  0
  186.8090  178.3100  140.9440 C   0  0  0  0  0  0  0  0  0  0  0  0
  185.4440  178.4210  146.2060 N   0  0  0  0  0  0  0  0  0  0  0  0
  184.6920  178.9220  143.8360 C   0  0  0  0  0  0  0  0  0  0  0  0
  183.3220  179.3860  144.1830 C   0  0  0  0  0  1  0  0  0  0  0  0
  187.1950  178.2490  139.6990 C   0  0  0  0  0  3  0  0  0  0  0  0
  187.3580  177.9800  143.2280 N   0  0  0  0  0  2  0  0  0  0  0  0
  188.8420  177.1580  145.8480 C   0  0  0  0  0  0  0  0  0  0  0  0
  189.0300  176.3120  146.7650 O   0  0  0  0  0  0  0  0  0  0  0  0
  185.0760  178.8470  142.5490 C   0  0  0  0  0  3  0  0  0  0  0  0
  186.4410  178.3700  142.1910 C   0  0  0  0  0  0  0  0  0  0  0  0
  185.6510  178.5310  144.8810 C   0  0  0  0  0  0  0  0  0  0  0  0
  189.9740  177.5380  144.9770 C   0  0  0  0  0  0  0  0  0  0  0  0
  192.0590  178.2790  143.3080 N   0  0  0  0  0  0  0  0  0  0  0  0
  190.3620  178.8790  144.8790 C   0  0  0  0  0  3  0  0  0  0  0  0
  191.4180  179.2330  144.0360 C   0  0  0  0  0  3  0  0  0  0  0  0
  191.6940  176.9710  143.3750 C   0  0  0  0  0  3  0  0  0  0  0  0
  190.6430  176.5790  144.2060 C   0  0  0  0  0  3  0  0  0  0  0  0
  188.4810  177.5840  139.3270 C   0  0  2  0  0  3  0  0  0  0  0  0
  189.4320  177.5300  140.5120 C   0  0  0  0  0  1  0  0  0  0  0  0
  189.1210  178.2920  138.1790 C   0  0  0  0  0  0  0  0  0  0  0  0
  189.9990  177.6040  137.3540 O   0  0  0  0  0  0  0  0  0  0  0  0
  188.8700  179.5060  137.9520 O   0  0  0  0  0  1  0  0  0  0  0  0
  1 10  1  0  0  0  0
  1  3  1  0  0  0  0
  2 14  2  0  0  0  0
  2  1  1  0  0  0  0
  4 13  2  0  0  0  0
  5  3  2  0  0  0  0
  6  7  1  0  0  0  0
  6 14  1  0  0  0  0
  8  4  2  0  0  0  0
  9  2  1  0  0  0  0
 10 11  2  0  0  0  0
 12  6  2  0  0  0  0
 13 12  1  0  0  0  0
 13  9  1  0  0  0  0
 14  5  1  0  0  0  0
 15 10  1  0  0  0  0
 16 19  2  0  0  0  0
 16 18  1  0  0  0  0
 17 15  1  0  0  0  0
 18 17  2  0  0  0  0
 19 20  1  0  0  0  0
 20 15  2  0  0  0  0
 21  8  1  0  0  0  0
 21 22  1  1  0  0  0
 23 21  1  0  0  0  0
 24 23  2  0  0  0  0
 25 23  1  0  0  0  0
M  END
>  <MODEL>
2

>  <REMARK>
 VINA RESULT:      -8.5      2.798      4.701
  Name = 
  3 active torsions:
  status: ('A' for Active; 'I' for Inactive)
    1  A    between atoms: C_2  and  C_21
    2  A    between atoms: C_5  and  C_18
    3  A    between atoms: C_15  and  C_21
                            x       y       z     vdW  Elec       q    Type
                         _______ _______ _______ _____ _____    ______ ____

>  <TORSDO>
F 3

$$$$
=
 OpenBabel11052412493D

 25 27  0  0  1  0  0  0  0  0999 V2000
  189.8340  176.7450  144.4800 N   0  0  0  0  0  0  0  0  0  0  0  0
  188.7700  177.3060  145.0720 C   0  0  0  0  0  0  0  0  0  0  0  0
  190.7090  176.5300  145.4940 C   0  0  0  0  0  3  0  0  0  0  0  0
  185.3150  178.4260  144.8960 C   0  0  0  0  0  0  0  0  0  0  0  0
  190.2290  176.9530  146.6960 N   0  0  0  0  0  0  0  0  0  0  0  0
  187.9790  177.9420  147.3220 C   0  0  0  0  0  0  0  0  0  0  0  0
  188.2550  178.0940  148.7760 C   0  0  0  0  0  1  0  0  0  0  0  0
  184.1500  178.7510  144.4030 C   0  0  0  0  0  3  0  0  0  0  0  0
  187.4980  177.5930  144.4920 N   0  0  0  0  0  2  0  0  0  0  0  0
  190.0010  176.3380  143.1130 C   0  0  0  0  0  0  0  0  0  0  0  0
  190.7000  175.3190  142.8590 O   0  0  0  0  0  0  0  0  0  0  0  0
  186.7720  178.2640  146.8250 C   0  0  0  0  0  3  0  0  0  0  0  0
  186.4820  178.1030  145.3730 C   0  0  0  0  0  0  0  0  0  0  0  0
  189.0080  177.4360  146.4010 C   0  0  0  0  0  0  0  0  0  0  0  0
  189.3990  177.0950  141.9950 C   0  0  0  0  0  0  0  0  0  0  0  0
  188.3260  178.5310  139.8810 N   0  0  0  0  0  0  0  0  0  0  0  0
  189.5910  176.6670  140.6760 C   0  0  0  0  0  3  0  0  0  0  0  0
  189.0390  177.4020  139.6240 C   0  0  0  0  0  3  0  0  0  0  0  0
  188.1360  178.9760  141.1520 C   0  0  0  0  0  3  0  0  0  0  0  0
  188.6730  178.2700  142.2290 C   0  0  0  0  0  3  0  0  0  0  0  0
  183.7910  178.4010  142.9950 C   0  0  2  0  0  3  0  0  0  0  0  0
  184.7510  179.0490  142.0090 C   0  0  0  0  0  1  0  0  0  0  0  0
  182.3870  178.8120  142.6980 C   0  0  0  0  0  0  0  0  0  0  0  0
  181.9660  178.9130  141.3790 O   0  0  0  0  0  0  0  0  0  0  0  0
  181.5800  179.0660  143.6330 O   0  0  0  0  0  1  0  0  0  0  0  0
  1  2  1  0  0  0  0
  1  3  1  0  0  0  0
  2 14  2  0  0  0  0
  3  5  2  0  0  0  0
  4 13  2  0  0  0  0
  6  7  1  0  0  0  0
  8  4  2  0  0  0  0
  9  2  1  0  0  0  0
  9 13  1  0  0  0  0
 10  1  1  0  0  0  0
 11 10  2  0  0  0  0
 12  6  2  0  0  0  0
 13 12  1  0  0  0  0
 14  5  1  0  0  0  0
 14  6  1  0  0  0  0
 15 20  1  0  0  0  0
 15 10  1  0  0  0  0
 16 19  1  0  0  0  0
 17 15  2  0  0  0  0
 18 16  2  0  0  0  0
 18 17  1  0  0  0  0
 19 20  2  0  0  0  0
 21 22  1  6  0  0  0
 21  8  1  0  0  0  0
 23 21  1  0  0  0  0
 23 25  1  0  0  0  0
 24 23  2  0  0  0  0
M  END
>  <MODEL>
3

>  <REMARK>
 VINA RESULT:      -8.4      1.466      1.908
  Name = 
  3 active torsions:
  status: ('A' for Active; 'I' for Inactive)
    1  A    between atoms: C_2  and  C_21
    2  A    between atoms: C_5  and  C_18
    3  A    between atoms: C_15  and  C_21
                            x       y       z     vdW  Elec       q    Type
                         _______ _______ _______ _____ _____    ______ ____

>  <TORSDO>
F 3

$$$$
=
 OpenBabel11052412493D

 25 27  0  0  1  0  0  0  0  0999 V2000
  187.3040  178.1940  146.8490 N   0  0  0  0  0  0  0  0  0  0  0  0
  188.2800  177.7710  146.0320 C   0  0  0  0  0  0  0  0  0  0  0  0
  187.7500  177.8890  148.0930 C   0  0  0  0  0  3  0  0  0  0  0  0
  189.7480  177.6400  142.7080 C   0  0  0  0  0  0  0  0  0  0  0  0
  188.9650  177.2760  148.0760 N   0  0  0  0  0  0  0  0  0  0  0  0
  190.5200  176.7410  146.1450 C   0  0  0  0  0  0  0  0  0  0  0  0
  191.6000  176.1200  146.9590 C   0  0  0  0  0  1  0  0  0  0  0  0
  189.8800  177.7680  141.4160 C   0  0  0  0  0  3  0  0  0  0  0  0
  188.3970  177.9850  144.6270 N   0  0  0  0  0  2  0  0  0  0  0  0
  186.1040  178.9170  146.5290 C   0  0  0  0  0  0  0  0  0  0  0  0
  185.6600  179.7600  147.3550 O   0  0  0  0  0  0  0  0  0  0  0  0
  190.6710  176.8830  144.8160 C   0  0  0  0  0  3  0  0  0  0  0  0
  189.6010  177.5150  143.9950 C   0  0  0  0  0  0  0  0  0  0  0  0
  189.2750  177.2160  146.7680 C   0  0  0  0  0  0  0  0  0  0  0  0
  185.3640  178.6820  145.2720 C   0  0  0  0  0  0  0  0  0  0  0  0
  183.9400  178.2020  142.9430 N   0  0  0  0  0  0  0  0  0  0  0  0
  184.0440  179.1290  145.1420 C   0  0  0  0  0  3  0  0  0  0  0  0
  183.3440  178.8810  143.9590 C   0  0  0  0  0  3  0  0  0  0  0  0
  185.2160  177.7450  143.0480 C   0  0  0  0  0  3  0  0  0  0  0  0
  185.9480  177.9720  144.2140 C   0  0  0  0  0  3  0  0  0  0  0  0
  188.9060  178.5800  140.6240 C   0  0  2  0  0  3  0  0  0  0  0  0
  187.4730  178.2190  140.9830 C   0  0  0  0  0  1  0  0  0  0  0  0
  189.1380  178.3900  139.1610 C   0  0  0  0  0  0  0  0  0  0  0  0
  189.5330  177.1470  138.6860 O   0  0  0  0  0  1  0  0  0  0  0  0
  188.9760  179.3450  138.3540 O   0  0  0  0  0  0  0  0  0  0  0  0
  1  3  1  0  0  0  0
  2 14  2  0  0  0  0
  2  1  1  0  0  0  0
  4 13  2  0  0  0  0
  5  3  2  0  0  0  0
  6 14  1  0  0  0  0
  6  7  1  0  0  0  0
  8  4  2  0  0  0  0
  9  2  1  0  0  0  0
 10  1  1  0  0  0  0
 10 11  2  0  0  0  0
 12  6  2  0  0  0  0
 13  9  1  0  0  0  0
 13 12  1  0  0  0  0
 14  5  1  0  0  0  0
 15 10  1  0  0  0  0
 16 19  2  0  0  0  0
 16 18  1  0  0  0  0
 17 15  1  0  0  0  0
 18 17  2  0  0  0  0
 19 20  1  0  0  0  0
 20 15  2  0  0  0  0
 21 22  1  6  0  0  0
 21  8  1  0  0  0  0
 23 21  1  0  0  0  0
 24 23  1  0  0  0  0
 25 23  2  0  0  0  0
M  END
>  <MODEL>
4

>  <REMARK>
 VINA RESULT:      -8.0      2.670      5.228
  Name = 
  3 active torsions:
  status: ('A' for Active; 'I' for Inactive)
    1  A    between atoms: C_2  and  C_21
    2  A    between atoms: C_5  and  C_18
    3  A    between atoms: C_15  and  C_21
                            x       y       z     vdW  Elec       q    Type
                         _______ _______ _______ _____ _____    ______ ____

>  <TORSDO>
F 3

$$$$
=
 OpenBabel11052412493D

 25 27  0  0  1  0  0  0  0  0999 V2000
  190.2210  176.9120  141.0160 N   0  0  0  0  0  0  0  0  0  0  0  0
  189.2910  177.3190  141.8910 C   0  0  0  0  0  0  0  0  0  0  0  0
  191.3230  176.6910  141.7730 C   0  0  0  0  0  3  0  0  0  0  0  0
  185.8240  178.1280  142.6320 C   0  0  0  0  0  0  0  0  0  0  0  0
  191.1140  176.9600  143.0910 N   0  0  0  0  0  0  0  0  0  0  0  0
  189.0140  177.6800  144.3180 C   0  0  0  0  0  0  0  0  0  0  0  0
  189.6150  177.7280  145.6770 C   0  0  0  0  0  1  0  0  0  0  0  0
  184.5560  178.3860  142.4560 C   0  0  0  0  0  3  0  0  0  0  0  0
  187.9010  177.5370  141.6520 N   0  0  0  0  0  2  0  0  0  0  0  0
  190.0870  176.6440  139.6110 C   0  0  0  0  0  0  0  0  0  0  0  0
  190.7730  175.7190  139.0960 O   0  0  0  0  0  0  0  0  0  0  0  0
  187.7040  177.9320  144.1480 C   0  0  0  0  0  3  0  0  0  0  0  0
  187.0900  177.8730  142.7920 C   0  0  0  0  0  0  0  0  0  0  0  0
  189.8280  177.3530  143.1370 C   0  0  0  0  0  0  0  0  0  0  0  0
  189.1860  177.4370  138.7470 C   0  0  0  0  0  0  0  0  0  0  0  0
  187.5100  178.8870  137.0830 N   0  0  0  0  0  0  0  0  0  0  0  0
  187.9760  176.8900  138.3080 C   0  0  0  0  0  3  0  0  0  0  0  0
  187.1420  177.6380  137.4730 C   0  0  0  0  0  3  0  0  0  0  0  0
  188.6880  179.4370  137.4840 C   0  0  0  0  0  3  0  0  0  0  0  0
  189.5480  178.7200  138.3180 C   0  0  0  0  0  3  0  0  0  0  0  0
  183.8990  178.1300  141.1390 C   0  0  2  0  0  3  0  0  0  0  0  0
  184.6490  178.8190  140.0100 C   0  0  0  0  0  1  0  0  0  0  0  0
  182.4770  178.5840  141.1690 C   0  0  0  0  0  0  0  0  0  0  0  0
  181.9010  178.9520  142.3770 O   0  0  0  0  0  1  0  0  0  0  0  0
  181.7960  178.6380  140.1100 O   0  0  0  0  0  0  0  0  0  0  0  0
  1  3  1  0  0  0  0
  1  2  1  0  0  0  0
  2 14  2  0  0  0  0
  3  5  2  0  0  0  0
  4 13  2  0  0  0  0
  5 14  1  0  0  0  0
  6  7  1  0  0  0  0
  8  4  2  0  0  0  0
  9  2  1  0  0  0  0
  9 13  1  0  0  0  0
 10  1  1  0  0  0  0
 11 10  2  0  0  0  0
 12  6  2  0  0  0  0
 13 12  1  0  0  0  0
 14  6  1  0  0  0  0
 15 10  1  0  0  0  0
 16 18  2  0  0  0  0
 16 19  1  0  0  0  0
 17 15  2  0  0  0  0
 18 17  1  0  0  0  0
 19 20  2  0  0  0  0
 20 15  1  0  0  0  0
 21 22  1  6  0  0  0
 21 23  1  0  0  0  0
 21  8  1  0  0  0  0
 23 24  1  0  0  0  0
 25 23  2  0  0  0  0
M  END
>  <MODEL>
5

>  <REMARK>
 VINA RESULT:      -7.8      2.525      3.747
  Name = 
  3 active torsions:
  status: ('A' for Active; 'I' for Inactive)
    1  A    between atoms: C_2  and  C_21
    2  A    between atoms: C_5  and  C_18
    3  A    between atoms: C_15  and  C_21
                            x       y       z     vdW  Elec       q    Type
                         _______ _______ _______ _____ _____    ______ ____

>  <TORSDO>
F 3

$$$$
=
 OpenBabel11052412493D

 25 27  0  0  1  0  0  0  0  0999 V2000
  186.3070  178.5010  141.0170 N   0  0  0  0  0  0  0  0  0  0  0  0
  185.7570  178.4780  142.2390 C   0  0  0  0  0  0  0  0  0  0  0  0
  185.2660  178.7480  140.1840 C   0  0  0  0  0  3  0  0  0  0  0  0
  186.1530  178.4100  145.8540 C   0  0  0  0  0  0  0  0  0  0  0  0
  184.0830  178.8640  140.8470 N   0  0  0  0  0  0  0  0  0  0  0  0
  183.5670  178.8070  143.3290 C   0  0  0  0  0  0  0  0  0  0  0  0
  182.1010  179.0260  143.2070 C   0  0  0  0  0  1  0  0  0  0  0  0
  186.7140  178.3040  147.0280 C   0  0  0  0  0  3  0  0  0  0  0  0
  186.4270  178.4120  143.4980 N   0  0  0  0  0  2  0  0  0  0  0  0
  187.6920  178.4110  140.6440 C   0  0  0  0  0  0  0  0  0  0  0  0
  188.0980  179.0580  139.6410 O   0  0  0  0  0  0  0  0  0  0  0  0
  184.1380  178.7150  144.5430 C   0  0  0  0  0  3  0  0  0  0  0  0
  185.6070  178.5090  144.6760 C   0  0  0  0  0  0  0  0  0  0  0  0
  184.4220  178.6910  142.1380 C   0  0  0  0  0  0  0  0  0  0  0  0
  188.6460  177.5620  141.3880 C   0  0  0  0  0  0  0  0  0  0  0  0
  190.4420  175.9360  142.7330 N   0  0  0  0  0  0  0  0  0  0  0  0
  190.0030  177.5700  141.0470 C   0  0  0  0  0  3  0  0  0  0  0  0
  190.8950  176.7470  141.7400 C   0  0  0  0  0  3  0  0  0  0  0  0
  189.1260  175.8980  143.0750 C   0  0  0  0  0  3  0  0  0  0  0  0
  188.2060  176.7060  142.4060 C   0  0  0  0  0  3  0  0  0  0  0  0
  188.2020  178.3020  147.1680 C   0  0  2  0  0  3  0  0  0  0  0  0
  188.8350  177.2530  146.2680 C   0  0  0  0  0  1  0  0  0  0  0  0
  188.5900  178.0680  148.5910 C   0  0  0  0  0  0  0  0  0  0  0  0
  187.6550  177.5620  149.4820 O   0  0  0  0  0  1  0  0  0  0  0  0
  189.7590  178.3230  148.9890 O   0  0  0  0  0  0  0  0  0  0  0  0
  1  2  1  0  0  0  0
  2  9  1  0  0  0  0
  3  5  2  0  0  0  0
  3  1  1  0  0  0  0
  4  8  2  0  0  0  0
  5 14  1  0  0  0  0
  6 12  2  0  0  0  0
  7  6  1  0  0  0  0
  8 21  1  0  0  0  0
  9 13  1  0  0  0  0
 10  1  1  0  0  0  0
 10 15  1  0  0  0  0
 11 10  2  0  0  0  0
 12 13  1  0  0  0  0
 13  4  2  0  0  0  0
 14  2  2  0  0  0  0
 14  6  1  0  0  0  0
 15 20  1  0  0  0  0
 16 19  1  0  0  0  0
 17 15  2  0  0  0  0
 17 18  1  0  0  0  0
 18 16  2  0  0  0  0
 20 19  2  0  0  0  0
 21 22  1  6  0  0  0
 21 23  1  0  0  0  0
 23 25  2  0  0  0  0
 23 24  1  0  0  0  0
M  END
>  <MODEL>
6

>  <REMARK>
 VINA RESULT:      -7.7      2.991      6.044
  Name = 
  3 active torsions:
  status: ('A' for Active; 'I' for Inactive)
    1  A    between atoms: C_2  and  C_21
    2  A    between atoms: C_5  and  C_18
    3  A    between atoms: C_15  and  C_21
                            x       y       z     vdW  Elec       q    Type
                         _______ _______ _______ _____ _____    ______ ____

>  <TORSDO>
F 3

$$$$
=
 OpenBabel11052412493D

 25 27  0  0  1  0  0  0  0  0999 V2000
  189.0440  177.0500  144.0810 N   0  0  0  0  0  0  0  0  0  0  0  0
  187.8160  177.5780  144.1810 C   0  0  0  0  0  0  0  0  0  0  0  0
  189.5080  177.0320  145.3540 C   0  0  0  0  0  3  0  0  0  0  0  0
  184.6050  178.3570  142.6620 C   0  0  0  0  0  0  0  0  0  0  0  0
  188.6150  177.5450  146.2440 N   0  0  0  0  0  0  0  0  0  0  0  0
  186.2490  178.3940  145.9050 C   0  0  0  0  0  0  0  0  0  0  0  0
  185.9820  178.7360  147.3280 C   0  0  0  0  0  1  0  0  0  0  0  0
  183.6800  178.5170  141.7550 C   0  0  0  0  0  3  0  0  0  0  0  0
  186.8230  177.6810  143.1620 N   0  0  0  0  0  2  0  0  0  0  0  0
  189.7050  176.5050  142.9270 C   0  0  0  0  0  0  0  0  0  0  0  0
  190.4910  175.5300  143.0760 O   0  0  0  0  0  0  0  0  0  0  0  0
  185.2850  178.5480  144.9800 C   0  0  0  0  0  3  0  0  0  0  0  0
  185.5390  178.1960  143.5550 C   0  0  0  0  0  0  0  0  0  0  0  0
  187.5590  177.8790  145.4780 C   0  0  0  0  0  0  0  0  0  0  0  0
  189.5090  177.0710  141.5760 C   0  0  0  0  0  0  0  0  0  0  0  0
  189.1910  178.1650  139.0490 N   0  0  0  0  0  0  0  0  0  0  0  0
  190.3790  176.7230  140.5370 C   0  0  0  0  0  3  0  0  0  0  0  0
  190.2010  177.2810  139.2690 C   0  0  0  0  0  3  0  0  0  0  0  0
  188.3400  178.5320  140.0440 C   0  0  0  0  0  3  0  0  0  0  0  0
  188.4860  177.9960  141.3240 C   0  0  0  0  0  3  0  0  0  0  0  0
  183.8610  177.9780  140.3730 C   0  0  2  0  0  3  0  0  0  0  0  0
  184.1020  179.1000  139.3750 C   0  0  0  0  0  1  0  0  0  0  0  0
  182.6730  177.1700  139.9690 C   0  0  0  0  0  0  0  0  0  0  0  0
  182.8570  175.9190  139.3970 O   0  0  0  0  0  0  0  0  0  0  0  0
  181.5050  177.6110  140.1450 O   0  0  0  0  0  1  0  0  0  0  0  0
  1  2  1  0  0  0  0
  1  3  1  0  0  0  0
  2 14  2  0  0  0  0
  3  5  2  0  0  0  0
  4 13  2  0  0  0  0
  6  7  1  0  0  0  0
  8  4  2  0  0  0  0
  9 13  1  0  0  0  0
  9  2  1  0  0  0  0
 10 11  2  0  0  0  0
 10  1  1  0  0  0  0
 12  6  2  0  0  0  0
 13 12  1  0  0  0  0
 14  6  1  0  0  0  0
 14  5  1  0  0  0  0
 15 10  1  0  0  0  0
 16 18  2  0  0  0  0
 16 19  1  0  0  0  0
 17 15  2  0  0  0  0
 18 17  1  0  0  0  0
 19 20  2  0  0  0  0
 20 15  1  0  0  0  0
 21 22  1  6  0  0  0
 21  8  1  0  0  0  0
 23 25  1  0  0  0  0
 23 21  1  0  0  0  0
 24 23  2  0  0  0  0
M  END
>  <MODEL>
7

>  <REMARK>
 VINA RESULT:      -7.7      1.904      2.778
  Name = 
  3 active torsions:
  status: ('A' for Active; 'I' for Inactive)
    1  A    between atoms: C_2  and  C_21
    2  A    between atoms: C_5  and  C_18
    3  A    between atoms: C_15  and  C_21
                            x       y       z     vdW  Elec       q    Type
                         _______ _______ _______ _____ _____    ______ ____

>  <TORSDO>
F 3

$$$$
=
 OpenBabel11052412493D

 25 27  0  0  1  0  0  0  0  0999 V2000
  185.4040  178.6930  144.6080 N   0  0  0  0  0  0  0  0  0  0  0  0
  186.6000  178.1140  144.4290 C   0  0  0  0  0  0  0  0  0  0  0  0
  185.2140  178.6680  145.9500 C   0  0  0  0  0  3  0  0  0  0  0  0
  189.3860  177.2840  142.2450 C   0  0  0  0  0  0  0  0  0  0  0  0
  186.2460  178.0770  146.6120 N   0  0  0  0  0  0  0  0  0  0  0  0
  188.4470  177.1530  145.7550 C   0  0  0  0  0  0  0  0  0  0  0  0
  188.9850  176.7330  147.0760 C   0  0  0  0  0  1  0  0  0  0  0  0
  190.0950  177.1320  141.1590 C   0  0  0  0  0  3  0  0  0  0  0  0
  187.3550  178.0210  143.2220 N   0  0  0  0  0  2  0  0  0  0  0  0
  184.5470  179.3190  143.6390 C   0  0  0  0  0  0  0  0  0  0  0  0
  183.8570  180.3160  143.9870 O   0  0  0  0  0  0  0  0  0  0  0  0
  189.1910  177.0070  144.6440 C   0  0  0  0  0  3  0  0  0  0  0  0
  188.6660  177.4380  143.3180 C   0  0  0  0  0  0  0  0  0  0  0  0
  187.1040  177.7390  145.6320 C   0  0  0  0  0  0  0  0  0  0  0  0
  184.4320  178.8120  142.2560 C   0  0  0  0  0  0  0  0  0  0  0  0
  184.1940  177.9130  139.6450 N   0  0  0  0  0  0  0  0  0  0  0  0
  185.2540  179.3310  141.2490 C   0  0  0  0  0  3  0  0  0  0  0  0
  185.1220  178.8630  139.9390 C   0  0  0  0  0  3  0  0  0  0  0  0
  183.3740  177.4020  140.6010 C   0  0  0  0  0  3  0  0  0  0  0  0
  183.4750  177.8450  141.9210 C   0  0  0  0  0  3  0  0  0  0  0  0
  189.6590  177.7450  139.8680 C   0  0  2  0  0  3  0  0  0  0  0  0
  188.1420  177.7980  139.7720 C   0  0  0  0  0  1  0  0  0  0  0  0
  190.2250  176.9850  138.7140 C   0  0  0  0  0  0  0  0  0  0  0  0
  190.7830  175.7330  138.9260 O   0  0  0  0  0  1  0  0  0  0  0  0
  190.1990  177.4690  137.5500 O   0  0  0  0  0  0  0  0  0  0  0  0
  1  3  1  0  0  0  0
  2  1  1  0  0  0  0
  2 14  2  0  0  0  0
  3  5  2  0  0  0  0
  4 13  2  0  0  0  0
  6  7  1  0  0  0  0
  8  4  2  0  0  0  0
  9 13  1  0  0  0  0
  9  2  1  0  0  0  0
 10 11  2  0  0  0  0
 10  1  1  0  0  0  0
 12  6  2  0  0  0  0
 13 12  1  0  0  0  0
 14  6  1  0  0  0  0
 14  5  1  0  0  0  0
 15 10  1  0  0  0  0
 16 18  2  0  0  0  0
 16 19  1  0  0  0  0
 17 15  2  0  0  0  0
 18 17  1  0  0  0  0
 19 20  2  0  0  0  0
 20 15  1  0  0  0  0
 21 22  1  6  0  0  0
 21  8  1  0  0  0  0
 23 24  1  0  0  0  0
 23 21  1  0  0  0  0
 25 23  2  0  0  0  0
M  END
>  <MODEL>
8

>  <REMARK>
 VINA RESULT:      -7.6      2.778      5.901
  Name = 
  3 active torsions:
  status: ('A' for Active; 'I' for Inactive)
    1  A    between atoms: C_2  and  C_21
    2  A    between atoms: C_5  and  C_18
    3  A    between atoms: C_15  and  C_21
                            x       y       z     vdW  Elec       q    Type
                         _______ _______ _______ _____ _____    ______ ____

>  <TORSDO>
F 3

$$$$
=
 OpenBabel11052412493D

 25 27  0  0  1  0  0  0  0  0999 V2000
  182.6590  178.6860  142.0550 N   0  0  0  0  0  0  0  0  0  0  0  0
  183.9010  178.5050  142.5260 C   0  0  0  0  0  0  0  0  0  0  0  0
  181.9030  178.8840  143.1640 C   0  0  0  0  0  3  0  0  0  0  0  0
  187.4710  178.1910  141.9120 C   0  0  0  0  0  0  0  0  0  0  0  0
  182.6320  178.8180  144.3110 N   0  0  0  0  0  0  0  0  0  0  0  0
  185.1240  178.5060  144.6700 C   0  0  0  0  0  0  0  0  0  0  0  0
  185.0950  178.5750  146.1560 C   0  0  0  0  0  1  0  0  0  0  0  0
  188.6020  178.0540  141.2750 C   0  0  0  0  0  3  0  0  0  0  0  0
  185.1140  178.4120  141.7800 N   0  0  0  0  0  2  0  0  0  0  0  0
  182.2100  178.7770  140.6930 C   0  0  0  0  0  0  0  0  0  0  0  0
  181.2470  179.5420  140.4160 O   0  0  0  0  0  0  0  0  0  0  0  0
  186.2950  178.3800  144.0220 C   0  0  0  0  0  3  0  0  0  0  0  0
  186.3350  178.3240  142.5340 C   0  0  0  0  0  0  0  0  0  0  0  0
  183.8850  178.5800  143.8810 C   0  0  0  0  0  0  0  0  0  0  0  0
  182.8290  177.9790  139.6140 C   0  0  0  0  0  0  0  0  0  0  0  0
  183.9490  176.5050  137.5510 N   0  0  0  0  0  0  0  0  0  0  0  0
  183.5160  178.6190  138.5760 C   0  0  0  0  0  3  0  0  0  0  0  0
  184.0780  177.8590  137.5470 C   0  0  0  0  0  3  0  0  0  0  0  0
  183.2740  175.8590  138.5390 C   0  0  0  0  0  3  0  0  0  0  0  0
  182.6990  176.5840  139.5840 C   0  0  0  0  0  3  0  0  0  0  0  0
  188.6670  178.2020  139.7890 C   0  0  2  0  0  3  0  0  0  0  0  0
  187.3260  177.8790  139.1480 C   0  0  0  0  0  1  0  0  0  0  0  0
  189.7360  177.3260  139.2240 C   0  0  0  0  0  0  0  0  0  0  0  0
  190.3190  176.3540  140.0250 O   0  0  0  0  0  1  0  0  0  0  0  0
  190.1130  177.4600  138.0290 O   0  0  0  0  0  0  0  0  0  0  0  0
  1  2  1  0  0  0  0
  1  3  1  0  0  0  0
  2 14  2  0  0  0  0
  3  5  2  0  0  0  0
  4 13  2  0  0  0  0
  6  7  1  0  0  0  0
  8  4  2  0  0  0  0
  9  2  1  0  0  0  0
  9 13  1  0  0  0  0
 10  1  1  0  0  0  0
 11 10  2  0  0  0  0
 12  6  2  0  0  0  0
 13 12  1  0  0  0  0
 14  5  1  0  0  0  0
 14  6  1  0  0  0  0
 15 10  1  0  0  0  0
 16 19  1  0  0  0  0
 17 15  2  0  0  0  0
 18 16  2  0  0  0  0
 18 17  1  0  0  0  0
 19 20  2  0  0  0  0
 20 15  1  0  0  0  0
 21 22  1  6  0  0  0
 21  8  1  0  0  0  0
 23 21  1  0  0  0  0
 23 24  1  0  0  0  0
 25 23  2  0  0  0  0
M  END
>  <MODEL>
9

>  <REMARK>
 VINA RESULT:      -7.6      4.034      7.311
  Name = 
  3 active torsions:
  status: ('A' for Active; 'I' for Inactive)
    1  A    between atoms: C_2  and  C_21
    2  A    between atoms: C_5  and  C_18
    3  A    between atoms: C_15  and  C_21
                            x       y       z     vdW  Elec       q    Type
                         _______ _______ _______ _____ _____    ______ ____

>  <TORSDO>
F 3

$$$$
