=
 OpenBabel11052413083D

 31 36  0  0  1  0  0  0  0  0999 V2000
  190.1450  177.0230  145.8970 C   0  0  0  0  0  0  0  0  0  0  0  0
  187.4230  177.6750  143.3130 C   0  0  2  0  0  3  0  0  0  0  0  0
  188.7780  177.5400  143.9600 C   0  0  0  0  0  0  0  0  0  0  0  0
  191.2990  177.1440  145.1180 C   0  0  0  0  0  3  0  0  0  0  0  0
  188.7220  178.2180  141.2010 C   0  0  0  0  0  0  0  0  0  0  0  0
  190.2550  176.6890  147.3410 C   0  0  0  0  0  1  0  0  0  0  0  0
  189.8550  177.9560  141.7790 N   0  0  0  0  0  0  0  0  0  0  0  0
  187.5010  178.1920  141.9460 N   0  0  0  0  0  2  0  0  0  0  0  0
  188.8880  177.2100  145.3180 C   0  0  0  0  0  3  0  0  0  0  0  0
  189.9420  177.6410  143.1740 C   0  0  0  0  0  0  0  0  0  0  0  0
  191.1970  177.4490  143.7590 C   0  0  0  0  0  3  0  0  0  0  0  0
  186.4050  178.4570  144.1540 C   0  0  2  0  0  3  0  0  0  0  0  0
  185.4330  178.2270  146.4000 C   0  0  0  0  0  3  0  0  0  0  0  0
  186.4410  177.9820  145.5740 C   0  0  0  0  0  3  0  0  0  0  0  0
  184.2620  178.8320  145.9410 O   0  0  0  0  0  0  0  0  0  0  0  0
  183.8230  178.7590  144.5810 C   0  0  2  0  0  3  0  0  0  0  0  0
  184.9700  178.5890  143.5820 C   0  0  1  0  0  0  0  0  0  0  0  0
  184.3480  179.9540  143.8040 C   0  0  0  0  0  2  0  0  0  0  0  0
  184.3960  178.9940  140.8870 S   0  0  0  0  0  1  0  0  0  0  0  0
  184.5260  177.8650  142.3110 C   0  0  0  0  0  2  0  0  0  0  0  0
  188.6950  178.5540  139.7500 C   0  0  0  0  0  2  0  0  0  0  0  0
  191.8020  174.8980  137.5100 C   0  0  0  0  0  0  0  0  0  0  0  0
  191.3020  176.8620  138.8910 C   0  0  0  0  0  3  0  0  0  0  0  0
  188.2380  175.6800  137.6620 O   0  0  0  0  0  0  0  0  0  0  0  0
  187.7590  176.6910  138.3380 N   0  0  0  0  0  0  0  0  0  0  0  0
  192.8030  173.9600  136.9370 C   0  0  0  0  0  1  0  0  0  0  0  0
  188.8050  177.3110  138.9330 C   0  0  0  0  0  0  0  0  0  0  0  0
  192.2320  175.9630  138.3370 C   0  0  0  0  0  3  0  0  0  0  0  0
  189.5420  175.6270  137.7860 C   0  0  0  0  0  0  0  0  0  0  0  0
  189.9590  176.6500  138.5880 C   0  0  0  0  0  0  0  0  0  0  0  0
  190.4340  174.7200  137.2240 C   0  0  0  0  0  3  0  0  0  0  0  0
  1  6  1  0  0  0  0
  2  8  1  6  0  0  0
  2  3  1  0  0  0  0
  2 12  1  0  0  0  0
  3  9  2  0  0  0  0
  4  1  2  0  0  0  0
  5  7  2  0  0  0  0
  5  8  1  0  0  0  0
  7 10  1  0  0  0  0
  9  1  1  0  0  0  0
 10 11  2  0  0  0  0
 10  3  1  0  0  0  0
 11  4  1  0  0  0  0
 12 14  1  1  0  0  0
 14 13  2  0  0  0  0
 15 13  1  0  0  0  0
 16 18  1  6  0  0  0
 16 15  1  0  0  0  0
 17 20  1  6  0  0  0
 17 18  1  0  0  0  0
 17 12  1  0  0  0  0
 17 16  1  0  0  0  0
 19 20  1  0  0  0  0
 21  5  1  0  0  0  0
 22 28  1  0  0  0  0
 24 29  1  0  0  0  0
 24 25  1  0  0  0  0
 25 27  2  0  0  0  0
 26 22  1  0  0  0  0
 27 21  1  0  0  0  0
 28 23  2  0  0  0  0
 29 30  2  0  0  0  0
 30 23  1  0  0  0  0
 30 27  1  0  0  0  0
 31 22  2  0  0  0  0
 31 29  1  0  0  0  0
M  END
>  <MODEL>
1

>  <REMARK>
 VINA RESULT:      -9.7      0.000      0.000
  Name = 
  4 active torsions:
  status: ('A' for Active; 'I' for Inactive)
    1  A    between atoms: C_4  and  C_5
    2  A    between atoms: C_9  and  C_23
    3  A    between atoms: C_15  and  C_23
    4  A    between atoms: C_29  and  C_30
                            x       y       z     vdW  Elec       q    Type
                         _______ _______ _______ _____ _____    ______ ____

>  <TORSDO>
F 4

$$$$
=
 OpenBabel11052413083D

 31 36  0  0  1  0  0  0  0  0999 V2000
  190.1250  177.1400  146.1560 C   0  0  0  0  0  0  0  0  0  0  0  0
  187.3920  177.5900  143.5390 C   0  0  2  0  0  3  0  0  0  0  0  0
  188.7490  177.5170  144.1920 C   0  0  0  0  0  0  0  0  0  0  0  0
  191.2760  177.2330  145.3700 C   0  0  0  0  0  3  0  0  0  0  0  0
  188.6830  178.0270  141.3970 C   0  0  0  0  0  0  0  0  0  0  0  0
  190.2390  176.8950  147.6170 C   0  0  0  0  0  1  0  0  0  0  0  0
  189.8190  177.8190  141.9900 N   0  0  0  0  0  0  0  0  0  0  0  0
  187.4610  178.0260  142.1440 N   0  0  0  0  0  2  0  0  0  0  0  0
  188.8640  177.2710  145.5680 C   0  0  0  0  0  3  0  0  0  0  0  0
  189.9110  177.5900  143.4010 C   0  0  0  0  0  0  0  0  0  0  0  0
  191.1690  177.4550  143.9950 C   0  0  0  0  0  3  0  0  0  0  0  0
  186.3610  178.4050  144.3330 C   0  0  2  0  0  3  0  0  0  0  0  0
  185.2660  178.1960  146.5240 C   0  0  0  0  0  3  0  0  0  0  0  0
  186.3060  177.9200  145.7490 C   0  0  0  0  0  3  0  0  0  0  0  0
  184.1430  178.8470  146.0090 O   0  0  0  0  0  0  0  0  0  0  0  0
  183.7730  178.7990  144.6280 C   0  0  2  0  0  3  0  0  0  0  0  0
  184.9640  178.5930  143.6880 C   0  0  1  0  0  0  0  0  0  0  0  0
  184.3810  179.9790  143.8890 C   0  0  0  0  0  2  0  0  0  0  0  0
  184.5140  179.0430  140.9770 S   0  0  0  0  0  1  0  0  0  0  0  0
  184.5600  177.8940  142.3900 C   0  0  0  0  0  2  0  0  0  0  0  0
  188.6500  178.2760  139.9290 C   0  0  0  0  0  2  0  0  0  0  0  0
  188.4770  174.7180  136.0100 C   0  0  0  0  0  0  0  0  0  0  0  0
  187.6830  176.6250  137.3330 C   0  0  0  0  0  3  0  0  0  0  0  0
  190.7190  175.5980  138.7560 O   0  0  0  0  0  0  0  0  0  0  0  0
  190.4780  176.5790  139.5860 N   0  0  0  0  0  0  0  0  0  0  0  0
  188.2760  173.7770  134.8770 C   0  0  0  0  0  1  0  0  0  0  0  0
  189.3140  177.1540  139.2040 C   0  0  0  0  0  0  0  0  0  0  0  0
  187.5140  175.7220  136.2670 C   0  0  0  0  0  3  0  0  0  0  0  0
  189.7590  175.5090  137.8670 C   0  0  0  0  0  0  0  0  0  0  0  0
  188.8310  176.4800  138.1080 C   0  0  0  0  0  0  0  0  0  0  0  0
  189.6230  174.6020  136.8210 C   0  0  0  0  0  3  0  0  0  0  0  0
  1  6  1  0  0  0  0
  2  8  1  6  0  0  0
  2  3  1  0  0  0  0
  2 12  1  0  0  0  0
  3  9  2  0  0  0  0
  4  1  2  0  0  0  0
  5  7  2  0  0  0  0
  5  8  1  0  0  0  0
  7 10  1  0  0  0  0
  9  1  1  0  0  0  0
 10 11  2  0  0  0  0
 10  3  1  0  0  0  0
 11  4  1  0  0  0  0
 12 14  1  1  0  0  0
 14 13  2  0  0  0  0
 15 13  1  0  0  0  0
 16 18  1  6  0  0  0
 16 15  1  0  0  0  0
 17 20  1  6  0  0  0
 17 18  1  0  0  0  0
 17 12  1  0  0  0  0
 17 16  1  0  0  0  0
 19 20  1  0  0  0  0
 21  5  1  0  0  0  0
 22 28  2  0  0  0  0
 22 31  1  0  0  0  0
 23 30  2  0  0  0  0
 24 25  1  0  0  0  0
 26 22  1  0  0  0  0
 27 25  2  0  0  0  0
 27 21  1  0  0  0  0
 28 23  1  0  0  0  0
 29 30  1  0  0  0  0
 29 24  1  0  0  0  0
 30 27  1  0  0  0  0
 31 29  2  0  0  0  0
M  END
>  <MODEL>
2

>  <REMARK>
 VINA RESULT:      -9.6      1.213      1.801
  Name = 
  4 active torsions:
  status: ('A' for Active; 'I' for Inactive)
    1  A    between atoms: C_4  and  C_5
    2  A    between atoms: C_9  and  C_23
    3  A    between atoms: C_15  and  C_23
    4  A    between atoms: C_29  and  C_30
                            x       y       z     vdW  Elec       q    Type
                         _______ _______ _______ _____ _____    ______ ____

>  <TORSDO>
F 4

$$$$
=
 OpenBabel11052413083D

 31 36  0  0  1  0  0  0  0  0999 V2000
  182.3660  178.7510  143.1000 C   0  0  0  0  0  0  0  0  0  0  0  0
  184.7150  178.1670  140.1580 C   0  0  2  0  0  3  0  0  0  0  0  0
  184.1970  178.5590  141.5180 C   0  0  0  0  0  0  0  0  0  0  0  0
  183.2640  179.1470  144.0950 C   0  0  0  0  0  3  0  0  0  0  0  0
  186.9870  178.8470  141.0640 C   0  0  0  0  0  0  0  0  0  0  0  0
  180.9160  178.6460  143.4070 C   0  0  0  0  0  1  0  0  0  0  0  0
  186.5030  179.0390  142.2530 N   0  0  0  0  0  0  0  0  0  0  0  0
  186.1240  178.5140  139.9710 N   0  0  0  0  0  2  0  0  0  0  0  0
  182.8320  178.4470  141.8190 C   0  0  0  0  0  3  0  0  0  0  0  0
  185.1010  178.9390  142.5290 C   0  0  0  0  0  0  0  0  0  0  0  0
  184.6290  179.2370  143.8100 C   0  0  0  0  0  3  0  0  0  0  0  0
  183.8510  178.6700  138.9930 C   0  0  2  0  0  3  0  0  0  0  0  0
  182.1920  180.4550  138.6780 C   0  0  0  0  0  3  0  0  0  0  0  0
  183.2440  179.9930  139.3400 C   0  0  0  0  0  3  0  0  0  0  0  0
  181.5510  179.6710  137.7160 O   0  0  0  0  0  0  0  0  0  0  0  0
  181.5840  178.2410  137.7220 C   0  0  2  0  0  3  0  0  0  0  0  0
  182.8410  177.6660  138.3800 C   0  0  1  0  0  0  0  0  0  0  0  0
  182.7400  177.7480  136.8690 C   0  0  0  0  0  2  0  0  0  0  0  0
  183.3560  174.9580  137.9840 S   0  0  0  0  0  1  0  0  0  0  0  0
  182.5960  176.2810  138.9800 C   0  0  0  0  0  2  0  0  0  0  0  0
  188.4520  178.9800  140.8330 C   0  0  0  0  0  2  0  0  0  0  0  0
  191.0570  176.8620  144.9280 C   0  0  0  0  0  0  0  0  0  0  0  0
  189.7580  178.5790  143.7540 C   0  0  0  0  0  3  0  0  0  0  0  0
  190.1420  175.8990  141.5260 O   0  0  0  0  0  0  0  0  0  0  0  0
  189.4550  176.6730  140.7270 N   0  0  0  0  0  0  0  0  0  0  0  0
  191.7710  176.4150  146.1530 C   0  0  0  0  0  1  0  0  0  0  0  0
  189.1710  177.8070  141.4090 C   0  0  0  0  0  0  0  0  0  0  0  0
  190.4400  178.1350  144.9020 C   0  0  0  0  0  3  0  0  0  0  0  0
  190.3210  176.4860  142.6850 C   0  0  0  0  0  0  0  0  0  0  0  0
  189.7220  177.7130  142.6640 C   0  0  0  0  0  0  0  0  0  0  0  0
  191.0020  176.0160  143.8030 C   0  0  0  0  0  3  0  0  0  0  0  0
  1  6  1  0  0  0  0
  1  4  1  0  0  0  0
  2  8  1  6  0  0  0
  2  3  1  0  0  0  0
  3  9  1  0  0  0  0
  3 10  2  0  0  0  0
  5  7  2  0  0  0  0
  7 10  1  0  0  0  0
  8  5  1  0  0  0  0
  9  1  2  0  0  0  0
 10 11  1  0  0  0  0
 11  4  2  0  0  0  0
 12 14  1  1  0  0  0
 12  2  1  0  0  0  0
 13 14  2  0  0  0  0
 15 16  1  0  0  0  0
 15 13  1  0  0  0  0
 16 18  1  6  0  0  0
 16 17  1  0  0  0  0
 17 20  1  1  0  0  0
 17 12  1  0  0  0  0
 18 17  1  0  0  0  0
 19 20  1  0  0  0  0
 21  5  1  0  0  0  0
 21 27  1  0  0  0  0
 22 26  1  0  0  0  0
 23 28  2  0  0  0  0
 24 29  1  0  0  0  0
 25 27  2  0  0  0  0
 25 24  1  0  0  0  0
 27 30  1  0  0  0  0
 28 22  1  0  0  0  0
 29 31  1  0  0  0  0
 30 29  2  0  0  0  0
 30 23  1  0  0  0  0
 31 22  2  0  0  0  0
M  END
>  <MODEL>
3

>  <REMARK>
 VINA RESULT:      -9.1      3.301      6.255
  Name = 
  4 active torsions:
  status: ('A' for Active; 'I' for Inactive)
    1  A    between atoms: C_4  and  C_5
    2  A    between atoms: C_9  and  C_23
    3  A    between atoms: C_15  and  C_23
    4  A    between atoms: C_29  and  C_30
                            x       y       z     vdW  Elec       q    Type
                         _______ _______ _______ _____ _____    ______ ____

>  <TORSDO>
F 4

$$$$
=
 OpenBabel11052413083D

 31 36  0  0  1  0  0  0  0  0999 V2000
  183.9060  178.6280  143.1370 C   0  0  0  0  0  0  0  0  0  0  0  0
  187.6390  178.5220  142.3820 C   0  0  2  0  0  3  0  0  0  0  0  0
  186.1430  178.5320  142.1990 C   0  0  0  0  0  0  0  0  0  0  0  0
  183.3670  178.7020  141.8490 C   0  0  0  0  0  3  0  0  0  0  0  0
  187.7340  178.4820  139.8450 C   0  0  0  0  0  0  0  0  0  0  0  0
  183.0080  178.6350  144.3210 C   0  0  0  0  0  1  0  0  0  0  0  0
  186.4480  178.6280  139.7520 N   0  0  0  0  0  0  0  0  0  0  0  0
  188.3590  178.3230  141.1240 N   0  0  0  0  0  2  0  0  0  0  0  0
  185.2900  178.5540  143.3120 C   0  0  0  0  0  3  0  0  0  0  0  0
  185.5960  178.6270  140.9050 C   0  0  0  0  0  0  0  0  0  0  0  0
  184.2110  178.7040  140.7360 C   0  0  0  0  0  3  0  0  0  0  0  0
  188.1280  177.5560  143.4700 C   0  0  2  0  0  3  0  0  0  0  0  0
  187.7980  177.3260  145.8950 C   0  0  0  0  0  3  0  0  0  0  0  0
  187.3420  177.7610  144.7280 C   0  0  0  0  0  3  0  0  0  0  0  0
  189.0730  176.7680  146.0020 O   0  0  0  0  0  0  0  0  0  0  0  0
  190.1400  177.0730  145.1000 C   0  0  2  0  0  3  0  0  0  0  0  0
  189.6590  177.4730  143.7020 C   0  0  1  0  0  0  0  0  0  0  0  0
  190.1600  176.0650  143.9630 C   0  0  0  0  0  2  0  0  0  0  0  0
  191.7100  177.5030  141.8200 S   0  0  0  0  0  1  0  0  0  0  0  0
  190.6460  178.4010  142.9950 C   0  0  0  0  0  2  0  0  0  0  0  0
  188.5680  178.4760  138.6110 C   0  0  0  0  0  2  0  0  0  0  0  0
  191.7720  174.5000  137.2080 C   0  0  0  0  0  0  0  0  0  0  0  0
  191.2200  176.7110  138.1140 C   0  0  0  0  0  3  0  0  0  0  0  0
  188.1860  175.1890  137.2390 O   0  0  0  0  0  0  0  0  0  0  0  0
  187.6800  176.3130  137.6750 N   0  0  0  0  0  0  0  0  0  0  0  0
  192.7970  173.4870  136.8460 C   0  0  0  0  0  1  0  0  0  0  0  0
  188.7100  177.0830  138.0960 C   0  0  0  0  0  0  0  0  0  0  0  0
  192.1740  175.7370  137.7630 C   0  0  0  0  0  3  0  0  0  0  0  0
  189.4920  175.2050  137.3490 C   0  0  0  0  0  0  0  0  0  0  0  0
  189.8830  176.3960  137.8900 C   0  0  0  0  0  0  0  0  0  0  0  0
  190.4080  174.2210  136.9930 C   0  0  0  0  0  3  0  0  0  0  0  0
  1  9  1  0  0  0  0
  1  6  1  0  0  0  0
  2  8  1  6  0  0  0
  2 12  1  0  0  0  0
  3  2  1  0  0  0  0
  3  9  2  0  0  0  0
  4  1  2  0  0  0  0
  5  8  1  0  0  0  0
  7  5  2  0  0  0  0
  7 10  1  0  0  0  0
 10  3  1  0  0  0  0
 11 10  2  0  0  0  0
 11  4  1  0  0  0  0
 12 17  1  0  0  0  0
 12 14  1  1  0  0  0
 13 15  1  0  0  0  0
 14 13  2  0  0  0  0
 16 18  1  6  0  0  0
 16 15  1  0  0  0  0
 17 20  1  6  0  0  0
 17 18  1  0  0  0  0
 17 16  1  0  0  0  0
 19 20  1  0  0  0  0
 21  5  1  0  0  0  0
 22 28  1  0  0  0  0
 24 29  1  0  0  0  0
 24 25  1  0  0  0  0
 25 27  2  0  0  0  0
 26 22  1  0  0  0  0
 27 21  1  0  0  0  0
 28 23  2  0  0  0  0
 29 30  2  0  0  0  0
 30 27  1  0  0  0  0
 30 23  1  0  0  0  0
 31 22  2  0  0  0  0
 31 29  1  0  0  0  0
M  END
>  <MODEL>
4

>  <REMARK>
 VINA RESULT:      -8.9      1.995      4.336
  Name = 
  4 active torsions:
  status: ('A' for Active; 'I' for Inactive)
    1  A    between atoms: C_4  and  C_5
    2  A    between atoms: C_9  and  C_23
    3  A    between atoms: C_15  and  C_23
    4  A    between atoms: C_29  and  C_30
                            x       y       z     vdW  Elec       q    Type
                         _______ _______ _______ _____ _____    ______ ____

>  <TORSDO>
F 4

$$$$
=
 OpenBabel11052413083D

 31 36  0  0  1  0  0  0  0  0999 V2000
  190.2190  176.9830  146.0290 C   0  0  0  0  0  0  0  0  0  0  0  0
  187.4820  177.6080  143.4540 C   0  0  2  0  0  3  0  0  0  0  0  0
  188.8410  177.4660  144.0900 C   0  0  0  0  0  0  0  0  0  0  0  0
  191.3670  177.0550  145.2340 C   0  0  0  0  0  3  0  0  0  0  0  0
  188.7680  178.0560  141.3110 C   0  0  0  0  0  0  0  0  0  0  0  0
  190.3390  176.6930  147.4810 C   0  0  0  0  0  1  0  0  0  0  0  0
  189.9010  177.7890  141.8860 N   0  0  0  0  0  0  0  0  0  0  0  0
  187.5540  178.0790  142.0710 N   0  0  0  0  0  2  0  0  0  0  0  0
  188.9590  177.1770  145.4570 C   0  0  0  0  0  3  0  0  0  0  0  0
  189.9980  177.5180  143.2890 C   0  0  0  0  0  0  0  0  0  0  0  0
  191.2550  177.3190  143.8660 C   0  0  0  0  0  3  0  0  0  0  0  0
  186.4900  178.4380  144.2800 C   0  0  2  0  0  3  0  0  0  0  0  0
  185.5330  178.2950  146.5400 C   0  0  0  0  0  3  0  0  0  0  0  0
  186.5280  178.0030  145.7130 C   0  0  0  0  0  3  0  0  0  0  0  0
  184.3710  178.9130  146.0730 O   0  0  0  0  0  0  0  0  0  0  0  0
  183.9190  178.8120  144.7200 C   0  0  2  0  0  3  0  0  0  0  0  0
  185.0530  178.5860  143.7160 C   0  0  1  0  0  0  0  0  0  0  0  0
  184.4640  179.9710  143.9040 C   0  0  0  0  0  2  0  0  0  0  0  0
  183.0750  178.5720  141.7560 S   0  0  0  0  0  1  0  0  0  0  0  0
  184.5810  177.8360  142.4700 C   0  0  0  0  0  2  0  0  0  0  0  0
  188.7310  178.3470  139.8510 C   0  0  0  0  0  2  0  0  0  0  0  0
  185.3320  176.5880  136.1900 C   0  0  0  0  0  0  0  0  0  0  0  0
  187.5090  176.7980  137.3000 C   0  0  0  0  0  3  0  0  0  0  0  0
  185.2340  178.7060  139.1640 O   0  0  0  0  0  0  0  0  0  0  0  0
  186.2870  178.9550  139.8970 N   0  0  0  0  0  0  0  0  0  0  0  0
  184.5100  176.0300  135.0850 C   0  0  0  0  0  1  0  0  0  0  0  0
  187.3270  178.2810  139.3510 C   0  0  0  0  0  0  0  0  0  0  0  0
  186.7120  176.2820  136.2620 C   0  0  0  0  0  3  0  0  0  0  0  0
  185.5490  177.9140  138.1680 C   0  0  0  0  0  0  0  0  0  0  0  0
  186.8790  177.6120  138.2370 C   0  0  0  0  0  0  0  0  0  0  0  0
  184.7320  177.4190  137.1570 C   0  0  0  0  0  3  0  0  0  0  0  0
  1  6  1  0  0  0  0
  2  8  1  6  0  0  0
  2  3  1  0  0  0  0
  2 12  1  0  0  0  0
  3  9  2  0  0  0  0
  4  1  2  0  0  0  0
  5  7  2  0  0  0  0
  5  8  1  0  0  0  0
  7 10  1  0  0  0  0
  9  1  1  0  0  0  0
 10 11  2  0  0  0  0
 10  3  1  0  0  0  0
 11  4  1  0  0  0  0
 12 14  1  1  0  0  0
 14 13  2  0  0  0  0
 15 13  1  0  0  0  0
 16 18  1  6  0  0  0
 16 15  1  0  0  0  0
 17 20  1  6  0  0  0
 17 18  1  0  0  0  0
 17 12  1  0  0  0  0
 17 16  1  0  0  0  0
 19 20  1  0  0  0  0
 21  5  1  0  0  0  0
 22 28  2  0  0  0  0
 22 31  1  0  0  0  0
 23 30  2  0  0  0  0
 24 25  1  0  0  0  0
 26 22  1  0  0  0  0
 27 21  1  0  0  0  0
 27 25  2  0  0  0  0
 28 23  1  0  0  0  0
 29 30  1  0  0  0  0
 29 24  1  0  0  0  0
 30 27  1  0  0  0  0
 31 29  2  0  0  0  0
M  END
>  <MODEL>
5

>  <REMARK>
 VINA RESULT:      -8.8      2.187      3.022
  Name = 
  4 active torsions:
  status: ('A' for Active; 'I' for Inactive)
    1  A    between atoms: C_4  and  C_5
    2  A    between atoms: C_9  and  C_23
    3  A    between atoms: C_15  and  C_23
    4  A    between atoms: C_29  and  C_30
                            x       y       z     vdW  Elec       q    Type
                         _______ _______ _______ _____ _____    ______ ____

>  <TORSDO>
F 4

$$$$
=
 OpenBabel11052413083D

 31 36  0  0  1  0  0  0  0  0999 V2000
  188.0010  177.5230  144.7750 C   0  0  0  0  0  0  0  0  0  0  0  0
  187.8910  178.4730  141.0870 C   0  0  2  0  0  3  0  0  0  0  0  0
  187.4560  178.1280  142.4880 C   0  0  0  0  0  0  0  0  0  0  0  0
  186.6540  177.6350  145.1280 C   0  0  0  0  0  3  0  0  0  0  0  0
  185.4160  178.8080  140.6300 C   0  0  0  0  0  0  0  0  0  0  0  0
  189.0090  177.1390  145.7970 C   0  0  0  0  0  1  0  0  0  0  0  0
  185.1180  178.6340  141.8820 N   0  0  0  0  0  0  0  0  0  0  0  0
  186.7610  178.6380  140.1710 N   0  0  0  0  0  2  0  0  0  0  0  0
  188.4030  177.7790  143.4610 C   0  0  0  0  0  3  0  0  0  0  0  0
  186.1020  178.2580  142.8530 C   0  0  0  0  0  0  0  0  0  0  0  0
  185.7070  178.0040  144.1700 C   0  0  0  0  0  3  0  0  0  0  0  0
  188.9490  177.5220  140.5100 C   0  0  2  0  0  3  0  0  0  0  0  0
  191.3300  177.0800  140.9290 C   0  0  0  0  0  3  0  0  0  0  0  0
  190.1640  177.5170  141.3850 C   0  0  0  0  0  3  0  0  0  0  0  0
  191.4860  176.7200  139.5890 O   0  0  0  0  0  0  0  0  0  0  0  0
  190.6720  177.2470  138.5370 C   0  0  2  0  0  3  0  0  0  0  0  0
  189.2730  177.6610  139.0000 C   0  0  1  0  0  0  0  0  0  0  0  0
  189.4830  176.3340  138.2970 C   0  0  0  0  0  2  0  0  0  0  0  0
  187.6820  178.1240  136.7620 S   0  0  0  0  0  1  0  0  0  0  0  0
  188.6860  178.7770  138.1350 C   0  0  0  0  0  2  0  0  0  0  0  0
  184.3480  179.1840  139.6630 C   0  0  0  0  0  2  0  0  0  0  0  0
  180.1560  175.9760  140.0960 C   0  0  0  0  0  0  0  0  0  0  0  0
  181.5120  177.9600  140.5900 C   0  0  0  0  0  3  0  0  0  0  0  0
  183.2520  176.1200  138.1650 O   0  0  0  0  0  0  0  0  0  0  0  0
  184.1200  177.0900  138.2810 N   0  0  0  0  0  0  0  0  0  0  0  0
  178.9310  175.1730  140.3450 C   0  0  0  0  0  1  0  0  0  0  0  0
  183.6300  177.9630  139.1930 C   0  0  0  0  0  0  0  0  0  0  0  0
  180.3590  177.1820  140.8090 C   0  0  0  0  0  3  0  0  0  0  0  0
  182.2330  176.3230  138.9650 C   0  0  0  0  0  0  0  0  0  0  0  0
  182.4240  177.4880  139.6500 C   0  0  0  0  0  0  0  0  0  0  0  0
  181.1060  175.5310  139.1560 C   0  0  0  0  0  3  0  0  0  0  0  0
  1  4  1  0  0  0  0
  1  6  1  0  0  0  0
  2  8  1  6  0  0  0
  2  3  1  0  0  0  0
  3 10  2  0  0  0  0
  3  9  1  0  0  0  0
  5  7  2  0  0  0  0
  7 10  1  0  0  0  0
  8  5  1  0  0  0  0
  9  1  2  0  0  0  0
 10 11  1  0  0  0  0
 11  4  2  0  0  0  0
 12  2  1  0  0  0  0
 12 14  1  1  0  0  0
 13 14  2  0  0  0  0
 15 13  1  0  0  0  0
 16 18  1  6  0  0  0
 16 17  1  0  0  0  0
 16 15  1  0  0  0  0
 17 20  1  6  0  0  0
 17 12  1  0  0  0  0
 18 17  1  0  0  0  0
 19 20  1  0  0  0  0
 21  5  1  0  0  0  0
 22 26  1  0  0  0  0
 22 28  1  0  0  0  0
 23 28  2  0  0  0  0
 24 25  1  0  0  0  0
 24 29  1  0  0  0  0
 25 27  2  0  0  0  0
 27 30  1  0  0  0  0
 27 21  1  0  0  0  0
 29 31  1  0  0  0  0
 29 30  2  0  0  0  0
 30 23  1  0  0  0  0
 31 22  2  0  0  0  0
M  END
>  <MODEL>
6

>  <REMARK>
 VINA RESULT:      -8.7      3.081      6.942
  Name = 
  4 active torsions:
  status: ('A' for Active; 'I' for Inactive)
    1  A    between atoms: C_4  and  C_5
    2  A    between atoms: C_9  and  C_23
    3  A    between atoms: C_15  and  C_23
    4  A    between atoms: C_29  and  C_30
                            x       y       z     vdW  Elec       q    Type
                         _______ _______ _______ _____ _____    ______ ____

>  <TORSDO>
F 4

$$$$
=
 OpenBabel11052413083D

 31 36  0  0  1  0  0  0  0  0999 V2000
  190.7370  177.0300  138.9240 C   0  0  0  0  0  0  0  0  0  0  0  0
  188.4530  177.1980  141.9690 C   0  0  2  0  0  3  0  0  0  0  0  0
  189.0120  177.4190  140.5860 C   0  0  0  0  0  0  0  0  0  0  0  0
  189.9730  177.7060  137.9690 C   0  0  0  0  0  3  0  0  0  0  0  0
  186.4850  178.5860  141.1630 C   0  0  0  0  0  0  0  0  0  0  0  0
  192.0610  176.4670  138.5540 C   0  0  0  0  0  1  0  0  0  0  0  0
  186.9550  178.6260  139.9540 N   0  0  0  0  0  0  0  0  0  0  0  0
  187.2400  177.9790  142.2170 N   0  0  0  0  0  2  0  0  0  0  0  0
  190.2530  176.8770  140.2260 C   0  0  0  0  0  3  0  0  0  0  0  0
  188.2360  178.0830  139.6160 C   0  0  0  0  0  0  0  0  0  0  0  0
  188.7240  178.2290  138.3140 C   0  0  0  0  0  3  0  0  0  0  0  0
  189.4810  177.3820  143.0940 C   0  0  2  0  0  3  0  0  0  0  0  0
  191.5270  176.2240  143.8110 C   0  0  0  0  0  3  0  0  0  0  0  0
  190.6820  176.5250  142.8350 C   0  0  0  0  0  3  0  0  0  0  0  0
  191.2630  176.6010  145.1290 O   0  0  0  0  0  0  0  0  0  0  0  0
  189.9420  176.8310  145.6280 C   0  0  2  0  0  3  0  0  0  0  0  0
  188.9570  177.2890  144.5500 C   0  0  1  0  0  0  0  0  0  0  0  0
  189.5860  178.3010  145.4900 C   0  0  0  0  0  2  0  0  0  0  0  0
  186.6590  178.1770  145.8490 S   0  0  0  0  0  1  0  0  0  0  0  0
  187.5170  176.8960  144.8790 C   0  0  0  0  0  2  0  0  0  0  0  0
  185.1530  179.1820  141.4590 C   0  0  0  0  0  2  0  0  0  0  0  0
  181.6850  176.6460  138.3620 C   0  0  0  0  0  0  0  0  0  0  0  0
  183.0950  176.9630  140.3430 C   0  0  0  0  0  3  0  0  0  0  0  0
  183.5110  179.8090  138.3370 O   0  0  0  0  0  0  0  0  0  0  0  0
  184.3230  180.1700  139.2960 N   0  0  0  0  0  0  0  0  0  0  0  0
  180.7270  175.8060  137.5970 C   0  0  0  0  0  1  0  0  0  0  0  0
  184.3100  179.1880  140.2280 C   0  0  0  0  0  0  0  0  0  0  0  0
  182.1880  176.1840  139.6010 C   0  0  0  0  0  3  0  0  0  0  0  0
  182.9850  178.6380  138.6040 C   0  0  0  0  0  0  0  0  0  0  0  0
  183.4640  178.1920  139.8020 C   0  0  0  0  0  0  0  0  0  0  0  0
  182.0870  177.8940  137.8460 C   0  0  0  0  0  3  0  0  0  0  0  0
  1  9  1  0  0  0  0
  2  3  1  6  0  0  0
  2  8  1  0  0  0  0
  2 12  1  0  0  0  0
  4 11  1  0  0  0  0
  4  1  2  0  0  0  0
  5 21  1  0  0  0  0
  5  8  1  0  0  0  0
  6  1  1  0  0  0  0
  7  5  2  0  0  0  0
  9  3  2  0  0  0  0
 10  7  1  0  0  0  0
 10  3  1  0  0  0  0
 11 10  2  0  0  0  0
 12 14  1  1  0  0  0
 12 17  1  0  0  0  0
 13 15  1  0  0  0  0
 14 13  2  0  0  0  0
 15 16  1  0  0  0  0
 16 18  1  1  0  0  0
 17 20  1  1  0  0  0
 17 18  1  0  0  0  0
 17 16  1  0  0  0  0
 20 19  1  0  0  0  0
 22 28  1  0  0  0  0
 24 29  1  0  0  0  0
 24 25  1  0  0  0  0
 25 27  2  0  0  0  0
 26 22  1  0  0  0  0
 27 21  1  0  0  0  0
 28 23  2  0  0  0  0
 29 30  2  0  0  0  0
 30 27  1  0  0  0  0
 30 23  1  0  0  0  0
 31 22  2  0  0  0  0
 31 29  1  0  0  0  0
M  END
>  <MODEL>
7

>  <REMARK>
 VINA RESULT:      -8.7      3.218      6.451
  Name = 
  4 active torsions:
  status: ('A' for Active; 'I' for Inactive)
    1  A    between atoms: C_4  and  C_5
    2  A    between atoms: C_9  and  C_23
    3  A    between atoms: C_15  and  C_23
    4  A    between atoms: C_29  and  C_30
                            x       y       z     vdW  Elec       q    Type
                         _______ _______ _______ _____ _____    ______ ____

>  <TORSDO>
F 4

$$$$
=
 OpenBabel11052413083D

 31 36  0  0  1  0  0  0  0  0999 V2000
  187.2090  177.8350  144.8390 C   0  0  0  0  0  0  0  0  0  0  0  0
  187.3750  178.5500  141.1010 C   0  0  2  0  0  3  0  0  0  0  0  0
  186.8380  178.3220  142.4910 C   0  0  0  0  0  0  0  0  0  0  0  0
  185.8530  178.0490  145.1010 C   0  0  0  0  0  3  0  0  0  0  0  0
  184.9570  179.0020  140.4720 C   0  0  0  0  0  0  0  0  0  0  0  0
  188.1290  177.4570  145.9440 C   0  0  0  0  0  1  0  0  0  0  0  0
  184.5760  178.9270  141.7100 N   0  0  0  0  0  0  0  0  0  0  0  0
  186.3130  178.7230  140.1080 N   0  0  0  0  0  2  0  0  0  0  0  0
  187.7020  177.9820  143.5400 C   0  0  0  0  0  3  0  0  0  0  0  0
  185.4760  178.5560  142.7620 C   0  0  0  0  0  0  0  0  0  0  0  0
  184.9890  178.4120  144.0640 C   0  0  0  0  0  3  0  0  0  0  0  0
  188.4030  177.5030  140.6500 C   0  0  2  0  0  3  0  0  0  0  0  0
  190.5490  176.6650  141.5050 C   0  0  0  0  0  3  0  0  0  0  0  0
  189.3770  177.2340  141.7540 C   0  0  0  0  0  3  0  0  0  0  0  0
  190.9550  176.4050  140.1940 O   0  0  0  0  0  0  0  0  0  0  0  0
  190.4760  177.1420  139.0650 C   0  0  2  0  0  3  0  0  0  0  0  0
  189.0750  177.7240  139.2700 C   0  0  1  0  0  0  0  0  0  0  0  0
  189.2620  176.4470  138.4720 C   0  0  0  0  0  2  0  0  0  0  0  0
  188.0460  178.6280  136.8450 S   0  0  0  0  0  1  0  0  0  0  0  0
  188.8480  178.9880  138.4410 C   0  0  0  0  0  2  0  0  0  0  0  0
  183.9730  179.3780  139.4180 C   0  0  0  0  0  2  0  0  0  0  0  0
  180.4990  175.4040  139.8430 C   0  0  0  0  0  0  0  0  0  0  0  0
  182.6800  176.4240  139.3780 C   0  0  0  0  0  3  0  0  0  0  0  0
  180.5500  179.0120  140.4070 O   0  0  0  0  0  0  0  0  0  0  0  0
  181.6120  179.7490  140.2120 N   0  0  0  0  0  0  0  0  0  0  0  0
  179.6390  174.1920  139.8930 C   0  0  0  0  0  1  0  0  0  0  0  0
  182.6070  178.9240  139.8080 C   0  0  0  0  0  0  0  0  0  0  0  0
  181.8480  175.2900  139.4320 C   0  0  0  0  0  3  0  0  0  0  0  0
  180.8120  177.7560  140.1380 C   0  0  0  0  0  0  0  0  0  0  0  0
  182.1140  177.6420  139.7460 C   0  0  0  0  0  0  0  0  0  0  0  0
  179.9630  176.6560  140.2030 C   0  0  0  0  0  3  0  0  0  0  0  0
  1  4  1  0  0  0  0
  1  6  1  0  0  0  0
  2  8  1  6  0  0  0
  2  3  1  0  0  0  0
  3 10  2  0  0  0  0
  3  9  1  0  0  0  0
  5  7  2  0  0  0  0
  7 10  1  0  0  0  0
  8  5  1  0  0  0  0
  9  1  2  0  0  0  0
 10 11  1  0  0  0  0
 11  4  2  0  0  0  0
 12  2  1  0  0  0  0
 12 14  1  1  0  0  0
 13 14  2  0  0  0  0
 15 13  1  0  0  0  0
 16 18  1  6  0  0  0
 16 17  1  0  0  0  0
 16 15  1  0  0  0  0
 17 20  1  6  0  0  0
 17 12  1  0  0  0  0
 18 17  1  0  0  0  0
 19 20  1  0  0  0  0
 21 27  1  0  0  0  0
 21  5  1  0  0  0  0
 22 26  1  0  0  0  0
 22 31  1  0  0  0  0
 23 28  1  0  0  0  0
 23 30  2  0  0  0  0
 25 24  1  0  0  0  0
 27 25  2  0  0  0  0
 28 22  2  0  0  0  0
 29 31  2  0  0  0  0
 29 24  1  0  0  0  0
 30 27  1  0  0  0  0
 30 29  1  0  0  0  0
M  END
>  <MODEL>
8

>  <REMARK>
 VINA RESULT:      -8.6      3.374      7.096
  Name = 
  4 active torsions:
  status: ('A' for Active; 'I' for Inactive)
    1  A    between atoms: C_4  and  C_5
    2  A    between atoms: C_9  and  C_23
    3  A    between atoms: C_15  and  C_23
    4  A    between atoms: C_29  and  C_30
                            x       y       z     vdW  Elec       q    Type
                         _______ _______ _______ _____ _____    ______ ____

>  <TORSDO>
F 4

$$$$
=
 OpenBabel11052413083D

 31 36  0  0  1  0  0  0  0  0999 V2000
  187.6750  177.8610  146.8420 C   0  0  0  0  0  0  0  0  0  0  0  0
  187.1570  178.1380  143.0780 C   0  0  2  0  0  3  0  0  0  0  0  0
  186.8800  178.0560  144.5570 C   0  0  0  0  0  0  0  0  0  0  0  0
  186.3740  178.0570  147.3140 C   0  0  0  0  0  3  0  0  0  0  0  0
  184.6460  178.4270  142.8390 C   0  0  0  0  0  0  0  0  0  0  0  0
  188.7890  177.6500  147.8020 C   0  0  0  0  0  1  0  0  0  0  0  0
  184.4880  178.4850  144.1270 N   0  0  0  0  0  0  0  0  0  0  0  0
  185.9340  178.1550  142.2750 N   0  0  0  0  0  2  0  0  0  0  0  0
  187.9290  177.8720  145.4680 C   0  0  0  0  0  3  0  0  0  0  0  0
  185.5740  178.2720  145.0370 C   0  0  0  0  0  0  0  0  0  0  0  0
  185.3260  178.2650  146.4130 C   0  0  0  0  0  3  0  0  0  0  0  0
  188.1490  177.0810  142.5700 C   0  0  2  0  0  3  0  0  0  0  0  0
  190.1210  175.9370  143.4880 C   0  0  0  0  0  3  0  0  0  0  0  0
  188.9740  176.5650  143.7080 C   0  0  0  0  0  3  0  0  0  0  0  0
  190.6490  175.8400  142.1990 O   0  0  0  0  0  0  0  0  0  0  0  0
  190.3520  176.7760  141.1590 C   0  0  2  0  0  3  0  0  0  0  0  0
  188.9840  177.4440  141.3150 C   0  0  1  0  0  0  0  0  0  0  0  0
  189.1640  176.2890  140.3480 C   0  0  0  0  0  2  0  0  0  0  0  0
  188.8470  178.7510  138.8590 S   0  0  0  0  0  1  0  0  0  0  0  0
  188.9430  178.8330  140.6770 C   0  0  0  0  0  2  0  0  0  0  0  0
  183.4780  178.6410  141.9420 C   0  0  0  0  0  2  0  0  0  0  0  0
  183.5550  176.2260  137.2290 C   0  0  0  0  0  0  0  0  0  0  0  0
  182.9010  176.5290  139.5740 C   0  0  0  0  0  3  0  0  0  0  0  0
  184.9560  179.2430  138.7350 O   0  0  0  0  0  0  0  0  0  0  0  0
  184.7370  179.5880  139.9770 N   0  0  0  0  0  0  0  0  0  0  0  0
  183.4940  175.4230  135.9800 C   0  0  0  0  0  1  0  0  0  0  0  0
  183.9210  178.6530  140.5170 C   0  0  0  0  0  0  0  0  0  0  0  0
  182.8590  175.7850  138.3800 C   0  0  0  0  0  3  0  0  0  0  0  0
  184.3290  178.1270  138.4550 C   0  0  0  0  0  0  0  0  0  0  0  0
  183.6520  177.7020  139.5620 C   0  0  0  0  0  0  0  0  0  0  0  0
  184.3070  177.4170  137.2590 C   0  0  0  0  0  3  0  0  0  0  0  0
  1  4  1  0  0  0  0
  1  6  1  0  0  0  0
  2  8  1  6  0  0  0
  2  3  1  0  0  0  0
  3 10  2  0  0  0  0
  3  9  1  0  0  0  0
  5  7  2  0  0  0  0
  7 10  1  0  0  0  0
  8  5  1  0  0  0  0
  9  1  2  0  0  0  0
 10 11  1  0  0  0  0
 11  4  2  0  0  0  0
 12  2  1  0  0  0  0
 12 14  1  1  0  0  0
 13 14  2  0  0  0  0
 15 13  1  0  0  0  0
 16 18  1  6  0  0  0
 16 17  1  0  0  0  0
 16 15  1  0  0  0  0
 17 20  1  6  0  0  0
 17 12  1  0  0  0  0
 18 17  1  0  0  0  0
 19 20  1  0  0  0  0
 21  5  1  0  0  0  0
 22 31  2  0  0  0  0
 22 28  1  0  0  0  0
 24 25  1  0  0  0  0
 25 27  2  0  0  0  0
 26 22  1  0  0  0  0
 27 21  1  0  0  0  0
 28 23  2  0  0  0  0
 29 24  1  0  0  0  0
 29 30  2  0  0  0  0
 30 23  1  0  0  0  0
 30 27  1  0  0  0  0
 31 29  1  0  0  0  0
M  END
>  <MODEL>
9

>  <REMARK>
 VINA RESULT:      -8.6      3.049      5.702
  Name = 
  4 active torsions:
  status: ('A' for Active; 'I' for Inactive)
    1  A    between atoms: C_4  and  C_5
    2  A    between atoms: C_9  and  C_23
    3  A    between atoms: C_15  and  C_23
    4  A    between atoms: C_29  and  C_30
                            x       y       z     vdW  Elec       q    Type
                         _______ _______ _______ _____ _____    ______ ____

>  <TORSDO>
F 4

$$$$
