=
 OpenBabel11052416073D

 43 48  0  0  1  0  0  0  0  0999 V2000
  190.5610  176.7870  147.1160 C   0  0  0  0  0  0  0  0  0  0  0  0
  188.4730  177.6880  143.2570 C   0  0  0  0  0  0  0  0  0  0  0  0
  190.3770  177.2860  141.1920 C   0  0  0  0  0  0  0  0  0  0  0  0
  188.5840  177.5290  145.3760 N   0  0  0  0  0  0  0  0  0  0  0  0
  192.0320  176.4010  145.2510 F   0  0  0  0  0  0  0  0  0  0  0  0
  191.5250  176.4030  147.9890 F   0  0  0  0  0  0  0  0  0  0  0  0
  189.7860  177.1600  144.8910 C   0  0  0  0  0  0  0  0  0  0  0  0
  189.3020  177.1810  147.6020 C   0  0  0  0  0  3  0  0  0  0  0  0
  190.8220  176.7770  145.7370 C   0  0  0  0  0  0  0  0  0  0  0  0
  190.7230  177.0430  142.4670 C   0  0  0  0  0  3  0  0  0  0  0  0
  189.7390  177.2590  143.5210 C   0  0  0  0  0  0  0  0  0  0  0  0
  187.7580  177.8580  144.3920 N   0  0  0  0  0  0  0  0  0  0  0  0
  188.0440  177.9730  141.9260 N   0  0  0  0  0  0  0  0  0  0  0  0
  188.9810  177.7930  140.8010 C   0  0  0  0  0  2  0  0  0  0  0  0
  188.3000  177.5600  146.7000 C   0  0  0  0  0  3  0  0  0  0  0  0
  191.3340  177.0680  140.1490 N   0  0  0  0  0  0  0  0  0  0  0  0
  192.8660  175.8220  137.0720 N   0  0  0  0  0  2  0  0  0  0  0  0
  191.1160  176.3810  138.8850 C   0  0  0  0  0  2  0  0  0  0  0  0
  192.6790  177.4320  140.2410 N   0  0  0  0  0  2  0  0  0  0  0  0
  192.5020  176.4080  138.3220 C   0  0  0  0  0  0  0  0  0  0  0  0
  193.3480  177.0040  139.0960 N   0  0  0  0  0  0  0  0  0  0  0  0
  194.2150  175.9240  136.5440 C   0  0  1  0  0  3  0  0  0  0  0  0
  195.6550  174.1640  137.6460 C   0  0  0  0  0  0  0  0  0  0  0  0
  194.8520  174.6170  136.5590 N   0  0  0  0  0  2  0  0  0  0  0  0
  195.8150  174.8870  138.6650 O   0  0  0  0  0  0  0  0  0  0  0  0
  196.2520  172.7950  137.5880 C   0  0  2  0  0  3  0  0  0  0  0  0
  195.7250  171.3250  135.6320 C   0  0  0  0  0  3  0  0  0  0  0  0
  197.7000  172.8670  135.5270 C   0  0  0  0  0  2  0  0  0  0  0  0
  197.0740  171.5780  135.0120 C   0  0  0  0  0  2  0  0  0  0  0  0
  197.6900  172.8540  137.0540 C   0  0  0  0  0  2  0  0  0  0  0  0
  195.3700  171.8400  136.8160 C   0  0  0  0  0  3  0  0  0  0  0  0
  194.1930  176.5030  135.1310 C   0  0  0  0  0  2  0  0  0  0  0  0
  196.6280  176.6640  134.6940 C   0  0  0  0  0  1  0  0  0  0  0  0
  195.3570  177.4540  134.8970 C   0  0  0  0  0  2  0  0  0  0  0  0
  186.7520  178.5910  141.6870 C   0  0  0  0  0  2  0  0  0  0  0  0
  186.4120  178.5570  140.2060 C   0  0  0  0  0  2  0  0  0  0  0  0
  183.1780  179.8960  139.1270 N   0  0  0  0  0  0  0  0  0  0  0  0
  182.5820  179.0320  139.9720 C   0  0  0  0  0  0  0  0  0  0  0  0
  180.5380  178.0210  141.0370 C   0  0  0  0  0  1  0  0  0  0  0  0
  184.9660  178.8510  139.9860 C   0  0  0  0  0  0  0  0  0  0  0  0
  184.5060  179.7970  139.1360 N   0  0  0  0  0  0  0  0  0  0  0  0
  181.1650  178.9600  140.1320 N   0  0  0  0  0  2  0  0  0  0  0  0
  183.7080  178.0780  140.7910 S   0  0  0  0  0  0  0  0  0  0  0  0
  1  8  1  0  0  0  0
  1  6  1  0  0  0  0
  2 11  1  0  0  0  0
  2 12  2  0  0  0  0
  3 10  2  0  0  0  0
  4 15  1  0  0  0  0
  5  9  1  0  0  0  0
  7  4  1  0  0  0  0
  7  9  1  0  0  0  0
  9  1  2  0  0  0  0
 10 11  1  0  0  0  0
 11  7  2  0  0  0  0
 12  4  1  0  0  0  0
 13  2  1  0  0  0  0
 14  3  1  0  0  0  0
 14 13  1  0  0  0  0
 15  8  2  0  0  0  0
 16 19  1  0  0  0  0
 16  3  1  0  0  0  0
 17 20  1  0  0  0  0
 18 16  1  0  0  0  0
 20 18  1  0  0  0  0
 20 21  2  0  0  0  0
 21 19  1  0  0  0  0
 22 32  1  6  0  0  0
 22 24  1  0  0  0  0
 22 17  1  0  0  0  0
 23 25  2  0  0  0  0
 24 23  1  0  0  0  0
 26 23  1  6  0  0  0
 27 31  2  0  0  0  0
 28 30  1  0  0  0  0
 29 28  1  0  0  0  0
 29 27  1  0  0  0  0
 30 26  1  0  0  0  0
 31 26  1  0  0  0  0
 33 34  1  0  0  0  0
 34 32  1  0  0  0  0
 35 13  1  0  0  0  0
 36 35  1  0  0  0  0
 37 41  1  0  0  0  0
 37 38  2  0  0  0  0
 38 42  1  0  0  0  0
 38 43  1  0  0  0  0
 40 36  1  0  0  0  0
 40 43  1  0  0  0  0
 41 40  2  0  0  0  0
 42 39  1  0  0  0  0
M  END
>  <MODEL>
1

>  <REMARK>
 VINA RESULT:      -9.2      0.000      0.000
  Name = 
  9 active torsions:
  status: ('A' for Active; 'I' for Inactive)
    1  A    between atoms: C_1  and  N_34
    2  A    between atoms: C_1  and  C_35
    3  A    between atoms: N_2  and  C_13
    4  A    between atoms: N_3  and  C_4
    5  A    between atoms: C_4  and  C_15
    6  A    between atoms: C_4  and  N_22
    7  A    between atoms: C_11  and  C_14
    8  A    between atoms: C_15  and  C_42
    9  A    between atoms: C_28  and  C_35
                            x       y       z     vdW  Elec       q    Type
                         _______ _______ _______ _____ _____    ______ ____

>  <TORSDO>
F 9

$$$$
=
 OpenBabel11052416073D

 43 48  0  0  1  0  0  0  0  0999 V2000
  189.2090  177.1180  147.4590 C   0  0  0  0  0  0  0  0  0  0  0  0
  189.6490  177.5700  143.0240 C   0  0  0  0  0  0  0  0  0  0  0  0
  187.0790  178.2280  142.0180 C   0  0  0  0  0  0  0  0  0  0  0  0
  190.3700  177.1480  144.9810 N   0  0  0  0  0  0  0  0  0  0  0  0
  187.1160  177.7690  146.4660 F   0  0  0  0  0  0  0  0  0  0  0  0
  188.6520  177.1170  148.6950 F   0  0  0  0  0  0  0  0  0  0  0  0
  189.0640  177.4570  145.1010 C   0  0  0  0  0  0  0  0  0  0  0  0
  190.5690  176.7920  147.3100 C   0  0  0  0  0  3  0  0  0  0  0  0
  188.4310  177.4540  146.3410 C   0  0  0  0  0  0  0  0  0  0  0  0
  187.2520  178.0750  143.3410 C   0  0  0  0  0  3  0  0  0  0  0  0
  188.5750  177.7310  143.8470 C   0  0  0  0  0  0  0  0  0  0  0  0
  190.7550  177.2100  143.7130 N   0  0  0  0  0  0  0  0  0  0  0  0
  189.5320  177.7090  141.6090 N   0  0  0  0  0  0  0  0  0  0  0  0
  188.2250  178.0450  141.0120 C   0  0  0  0  0  2  0  0  0  0  0  0
  191.1500  176.8090  146.0360 C   0  0  0  0  0  3  0  0  0  0  0  0
  185.7850  178.5750  141.5120 N   0  0  0  0  0  0  0  0  0  0  0  0
  182.1550  178.6730  141.0870 N   0  0  0  0  0  2  0  0  0  0  0  0
  184.4940  178.2100  142.0760 C   0  0  0  0  0  2  0  0  0  0  0  0
  185.5790  179.2750  140.3220 N   0  0  0  0  0  2  0  0  0  0  0  0
  183.5770  178.7810  141.0400 C   0  0  0  0  0  0  0  0  0  0  0  0
  184.2100  179.3730  140.0790 N   0  0  0  0  0  0  0  0  0  0  0  0
  181.3070  179.2940  140.0840 C   0  0  1  0  0  3  0  0  0  0  0  0
  181.2320  178.0780  137.8690 C   0  0  0  0  0  0  0  0  0  0  0  0
  180.7600  178.2760  139.2000 N   0  0  0  0  0  2  0  0  0  0  0  0
  182.1810  178.7740  137.4200 O   0  0  0  0  0  0  0  0  0  0  0  0
  180.6290  176.9920  137.0390 C   0  0  2  0  0  3  0  0  0  0  0  0
  182.1320  175.5470  135.6550 C   0  0  0  0  0  3  0  0  0  0  0  0
  181.6050  174.8850  138.0160 C   0  0  0  0  0  2  0  0  0  0  0  0
  182.0190  174.4050  136.6310 C   0  0  0  0  0  2  0  0  0  0  0  0
  180.3510  175.7490  137.8930 C   0  0  0  0  0  2  0  0  0  0  0  0
  181.4700  176.7000  135.8170 C   0  0  0  0  0  3  0  0  0  0  0  0
  180.1890  180.0930  140.7510 C   0  0  0  0  0  2  0  0  0  0  0  0
  179.5190  180.1210  143.1380 C   0  0  0  0  0  1  0  0  0  0  0  0
  179.5270  179.3020  141.8690 C   0  0  0  0  0  2  0  0  0  0  0  0
  190.6450  177.3650  140.7420 C   0  0  0  0  0  2  0  0  0  0  0  0
  190.1820  177.2540  139.2980 C   0  0  0  0  0  2  0  0  0  0  0  0
  191.3090  174.2280  137.5710 N   0  0  0  0  0  0  0  0  0  0  0  0
  192.5350  174.7790  137.4880 C   0  0  0  0  0  0  0  0  0  0  0  0
  194.9520  174.7220  136.7890 C   0  0  0  0  0  1  0  0  0  0  0  0
  190.9490  176.2010  138.5740 C   0  0  0  0  0  0  0  0  0  0  0  0
  190.4250  175.0190  138.1780 N   0  0  0  0  0  0  0  0  0  0  0  0
  193.6430  174.1130  136.8800 N   0  0  0  0  0  2  0  0  0  0  0  0
  192.5800  176.3170  138.1820 S   0  0  0  0  0  0  0  0  0  0  0  0
  1  6  1  0  0  0  0
  2 12  2  0  0  0  0
  2 11  1  0  0  0  0
  3 10  2  0  0  0  0
  4  7  1  0  0  0  0
  4 15  1  0  0  0  0
  7  9  1  0  0  0  0
  8  1  1  0  0  0  0
  9  5  1  0  0  0  0
  9  1  2  0  0  0  0
 10 11  1  0  0  0  0
 11  7  2  0  0  0  0
 12  4  1  0  0  0  0
 13  2  1  0  0  0  0
 14 13  1  0  0  0  0
 14  3  1  0  0  0  0
 15  8  2  0  0  0  0
 16  3  1  0  0  0  0
 16 18  1  0  0  0  0
 19 16  1  0  0  0  0
 20 17  1  0  0  0  0
 20 18  1  0  0  0  0
 21 19  1  0  0  0  0
 21 20  2  0  0  0  0
 22 32  1  1  0  0  0
 22 17  1  0  0  0  0
 23 24  1  0  0  0  0
 24 22  1  0  0  0  0
 25 23  2  0  0  0  0
 26 23  1  1  0  0  0
 26 30  1  0  0  0  0
 27 31  2  0  0  0  0
 27 29  1  0  0  0  0
 29 28  1  0  0  0  0
 30 28  1  0  0  0  0
 31 26  1  0  0  0  0
 32 34  1  0  0  0  0
 34 33  1  0  0  0  0
 35 13  1  0  0  0  0
 36 35  1  0  0  0  0
 37 41  1  0  0  0  0
 38 37  2  0  0  0  0
 38 43  1  0  0  0  0
 39 42  1  0  0  0  0
 40 36  1  0  0  0  0
 41 40  2  0  0  0  0
 42 38  1  0  0  0  0
 43 40  1  0  0  0  0
M  END
>  <MODEL>
2

>  <REMARK>
 VINA RESULT:      -9.1      3.578     10.456
  Name = 
  9 active torsions:
  status: ('A' for Active; 'I' for Inactive)
    1  A    between atoms: C_1  and  N_34
    2  A    between atoms: C_1  and  C_35
    3  A    between atoms: N_2  and  C_13
    4  A    between atoms: N_3  and  C_4
    5  A    between atoms: C_4  and  C_15
    6  A    between atoms: C_4  and  N_22
    7  A    between atoms: C_11  and  C_14
    8  A    between atoms: C_15  and  C_42
    9  A    between atoms: C_28  and  C_35
                            x       y       z     vdW  Elec       q    Type
                         _______ _______ _______ _____ _____    ______ ____

>  <TORSDO>
F 9

$$$$
=
 OpenBabel11052416073D

 43 48  0  0  1  0  0  0  0  0999 V2000
  188.6370  177.1940  147.2140 C   0  0  0  0  0  0  0  0  0  0  0  0
  189.1830  177.7620  142.8030 C   0  0  0  0  0  0  0  0  0  0  0  0
  186.6070  178.2640  141.7260 C   0  0  0  0  0  0  0  0  0  0  0  0
  189.8700  177.3520  144.7750 N   0  0  0  0  0  0  0  0  0  0  0  0
  186.5360  177.7220  146.1640 F   0  0  0  0  0  0  0  0  0  0  0  0
  188.0420  177.1320  148.4300 F   0  0  0  0  0  0  0  0  0  0  0  0
  188.5430  177.5690  144.8580 C   0  0  0  0  0  0  0  0  0  0  0  0
  190.0200  176.9640  147.1030 C   0  0  0  0  0  3  0  0  0  0  0  0
  187.8720  177.4990  146.0760 C   0  0  0  0  0  0  0  0  0  0  0  0
  186.7480  178.0970  143.0510 C   0  0  0  0  0  3  0  0  0  0  0  0
  188.0750  177.8330  143.5930 C   0  0  0  0  0  0  0  0  0  0  0  0
  190.2890  177.4630  143.5220 N   0  0  0  0  0  0  0  0  0  0  0  0
  189.1010  177.9200  141.3880 N   0  0  0  0  0  0  0  0  0  0  0  0
  187.7940  178.1780  140.7540 C   0  0  0  0  0  2  0  0  0  0  0  0
  190.6370  177.0460  145.8490 C   0  0  0  0  0  3  0  0  0  0  0  0
  185.3090  178.5330  141.1840 N   0  0  0  0  0  0  0  0  0  0  0  0
  182.6800  179.5450  138.8540 N   0  0  0  0  0  2  0  0  0  0  0  0
  184.9840  178.8850  139.8100 C   0  0  0  0  0  2  0  0  0  0  0  0
  184.1410  178.5690  141.9490 N   0  0  0  0  0  2  0  0  0  0  0  0
  183.5130  179.1280  139.9350 C   0  0  0  0  0  0  0  0  0  0  0  0
  183.0720  178.9390  141.1360 N   0  0  0  0  0  0  0  0  0  0  0  0
  181.2460  179.7140  139.0150 C   0  0  1  0  0  3  0  0  0  0  0  0
  179.7920  181.7130  138.4870 C   0  0  0  0  0  0  0  0  0  0  0  0
  180.7640  180.7410  138.1060 N   0  0  0  0  0  2  0  0  0  0  0  0
  179.3360  181.7300  139.6610 O   0  0  0  0  0  0  0  0  0  0  0  0
  179.3720  182.7490  137.4950 C   0  0  2  0  0  3  0  0  0  0  0  0
  179.6200  185.1670  138.0880 C   0  0  0  0  0  3  0  0  0  0  0  0
  181.5130  183.9660  136.9640 C   0  0  0  0  0  2  0  0  0  0  0  0
  180.8410  185.3090  137.2170 C   0  0  0  0  0  2  0  0  0  0  0  0
  180.4720  182.9740  136.4490 C   0  0  0  0  0  2  0  0  0  0  0  0
  178.9310  184.0230  138.1800 C   0  0  0  0  0  3  0  0  0  0  0  0
  180.5220  178.3910  138.7740 C   0  0  0  0  0  2  0  0  0  0  0  0
  179.8450  178.7470  141.1320 C   0  0  0  0  0  1  0  0  0  0  0  0
  179.4300  178.1560  139.8060 C   0  0  0  0  0  2  0  0  0  0  0  0
  190.2620  177.6690  140.5520 C   0  0  0  0  0  2  0  0  0  0  0  0
  189.8360  177.3920  139.1190 C   0  0  0  0  0  2  0  0  0  0  0  0
  191.0710  174.2910  137.6110 N   0  0  0  0  0  0  0  0  0  0  0  0
  192.3180  174.7920  137.6950 C   0  0  0  0  0  0  0  0  0  0  0  0
  194.8050  174.6270  137.3480 C   0  0  0  0  0  1  0  0  0  0  0  0
  190.6540  176.2950  138.5250 C   0  0  0  0  0  0  0  0  0  0  0  0
  190.1440  175.1270  138.0750 N   0  0  0  0  0  0  0  0  0  0  0  0
  193.4720  174.0710  137.2600 N   0  0  0  0  0  2  0  0  0  0  0  0
  192.3280  176.3400  138.3670 S   0  0  0  0  0  0  0  0  0  0  0  0
  1  6  1  0  0  0  0
  2 12  2  0  0  0  0
  2 11  1  0  0  0  0
  3 10  2  0  0  0  0
  4  7  1  0  0  0  0
  4 15  1  0  0  0  0
  7  9  1  0  0  0  0
  8  1  1  0  0  0  0
  9  5  1  0  0  0  0
  9  1  2  0  0  0  0
 10 11  1  0  0  0  0
 11  7  2  0  0  0  0
 12  4  1  0  0  0  0
 13  2  1  0  0  0  0
 14 13  1  0  0  0  0
 14  3  1  0  0  0  0
 15  8  2  0  0  0  0
 16  3  1  0  0  0  0
 16 19  1  0  0  0  0
 17 22  1  0  0  0  0
 17 20  1  0  0  0  0
 18 20  1  0  0  0  0
 18 16  1  0  0  0  0
 20 21  2  0  0  0  0
 21 19  1  0  0  0  0
 22 32  1  6  0  0  0
 23 25  2  0  0  0  0
 24 23  1  0  0  0  0
 24 22  1  0  0  0  0
 26 31  1  0  0  0  0
 26 23  1  1  0  0  0
 27 31  2  0  0  0  0
 28 29  1  0  0  0  0
 29 27  1  0  0  0  0
 30 28  1  0  0  0  0
 30 26  1  0  0  0  0
 32 34  1  0  0  0  0
 34 33  1  0  0  0  0
 35 13  1  0  0  0  0
 36 35  1  0  0  0  0
 37 38  2  0  0  0  0
 37 41  1  0  0  0  0
 38 43  1  0  0  0  0
 40 36  1  0  0  0  0
 41 40  2  0  0  0  0
 42 39  1  0  0  0  0
 42 38  1  0  0  0  0
 43 40  1  0  0  0  0
M  END
>  <MODEL>
3

>  <REMARK>
 VINA RESULT:      -9.1      4.275     11.621
  Name = 
  9 active torsions:
  status: ('A' for Active; 'I' for Inactive)
    1  A    between atoms: C_1  and  N_34
    2  A    between atoms: C_1  and  C_35
    3  A    between atoms: N_2  and  C_13
    4  A    between atoms: N_3  and  C_4
    5  A    between atoms: C_4  and  C_15
    6  A    between atoms: C_4  and  N_22
    7  A    between atoms: C_11  and  C_14
    8  A    between atoms: C_15  and  C_42
    9  A    between atoms: C_28  and  C_35
                            x       y       z     vdW  Elec       q    Type
                         _______ _______ _______ _____ _____    ______ ____

>  <TORSDO>
F 9

$$$$
=
 OpenBabel11052416073D

 43 48  0  0  1  0  0  0  0  0999 V2000
  190.2730  176.9510  147.3550 C   0  0  0  0  0  0  0  0  0  0  0  0
  187.7490  177.8590  143.7660 C   0  0  0  0  0  0  0  0  0  0  0  0
  189.3820  177.4010  141.4920 C   0  0  0  0  0  0  0  0  0  0  0  0
  188.1130  177.7160  145.8580 N   0  0  0  0  0  0  0  0  0  0  0  0
  191.5000  176.5200  145.3300 F   0  0  0  0  0  0  0  0  0  0  0  0
  191.3280  176.5570  148.1090 F   0  0  0  0  0  0  0  0  0  0  0  0
  189.2410  177.3200  145.2360 C   0  0  0  0  0  0  0  0  0  0  0  0
  189.0890  177.3740  147.9850 C   0  0  0  0  0  3  0  0  0  0  0  0
  190.3640  176.9240  145.9550 C   0  0  0  0  0  0  0  0  0  0  0  0
  189.8750  177.1630  142.7180 C   0  0  0  0  0  3  0  0  0  0  0  0
  189.0300  177.4070  143.8800 C   0  0  0  0  0  0  0  0  0  0  0  0
  187.1810  178.0530  144.9780 N   0  0  0  0  0  0  0  0  0  0  0  0
  187.1680  178.1410  142.4940 N   0  0  0  0  0  0  0  0  0  0  0  0
  187.9580  177.9320  141.2660 C   0  0  0  0  0  2  0  0  0  0  0  0
  187.9920  177.7650  147.2070 C   0  0  0  0  0  3  0  0  0  0  0  0
  190.2020  177.1560  140.3430 N   0  0  0  0  0  0  0  0  0  0  0  0
  191.3250  175.8570  137.1160 N   0  0  0  0  0  2  0  0  0  0  0  0
  189.8180  176.4650  139.1210 C   0  0  0  0  0  2  0  0  0  0  0  0
  191.5550  177.4920  140.2690 N   0  0  0  0  0  2  0  0  0  0  0  0
  191.1270  176.4590  138.3950 C   0  0  0  0  0  0  0  0  0  0  0  0
  192.0730  177.0420  139.0560 N   0  0  0  0  0  0  0  0  0  0  0  0
  192.6030  175.9260  136.4280 C   0  0  1  0  0  3  0  0  0  0  0  0
  194.9360  175.0460  136.8430 C   0  0  0  0  0  0  0  0  0  0  0  0
  193.5210  174.9480  136.9900 N   0  0  0  0  0  2  0  0  0  0  0  0
  195.4460  176.0240  136.2340 O   0  0  0  0  0  0  0  0  0  0  0  0
  195.8060  174.0090  137.4750 C   0  0  2  0  0  3  0  0  0  0  0  0
  198.0960  174.6560  138.2520 C   0  0  0  0  0  3  0  0  0  0  0  0
  196.1490  174.8690  139.8180 C   0  0  0  0  0  2  0  0  0  0  0  0
  197.6560  174.6850  139.6920 C   0  0  0  0  0  2  0  0  0  0  0  0
  195.4430  173.8260  138.9540 C   0  0  0  0  0  2  0  0  0  0  0  0
  197.2720  174.3090  137.2540 C   0  0  0  0  0  3  0  0  0  0  0  0
  192.4150  175.6970  134.9290 C   0  0  0  0  0  2  0  0  0  0  0  0
  191.9540  173.2850  134.5940 C   0  0  0  0  0  1  0  0  0  0  0  0
  191.3360  174.6620  134.6530 C   0  0  0  0  0  2  0  0  0  0  0  0
  185.8680  178.7810  142.4060 C   0  0  0  0  0  2  0  0  0  0  0  0
  184.9230  177.9520  141.5520 C   0  0  0  0  0  2  0  0  0  0  0  0
  184.0890  180.3140  138.8800 N   0  0  0  0  0  0  0  0  0  0  0  0
  182.7910  180.0120  139.0710 C   0  0  0  0  0  0  0  0  0  0  0  0
  180.3470  180.2720  138.5270 C   0  0  0  0  0  1  0  0  0  0  0  0
  184.2500  178.8010  140.5270 C   0  0  0  0  0  0  0  0  0  0  0  0
  184.9030  179.6400  139.6920 N   0  0  0  0  0  0  0  0  0  0  0  0
  181.7380  180.6130  138.3160 N   0  0  0  0  0  2  0  0  0  0  0  0
  182.5860  178.8630  140.2910 S   0  0  0  0  0  0  0  0  0  0  0  0
  1  8  1  0  0  0  0
  1  6  1  0  0  0  0
  2 11  1  0  0  0  0
  2 12  2  0  0  0  0
  3 10  2  0  0  0  0
  4 15  1  0  0  0  0
  5  9  1  0  0  0  0
  7  4  1  0  0  0  0
  7  9  1  0  0  0  0
  9  1  2  0  0  0  0
 10 11  1  0  0  0  0
 11  7  2  0  0  0  0
 12  4  1  0  0  0  0
 13  2  1  0  0  0  0
 14  3  1  0  0  0  0
 14 13  1  0  0  0  0
 15  8  2  0  0  0  0
 16  3  1  0  0  0  0
 17 20  1  0  0  0  0
 18 16  1  0  0  0  0
 19 16  1  0  0  0  0
 20 21  2  0  0  0  0
 20 18  1  0  0  0  0
 21 19  1  0  0  0  0
 22 32  1  6  0  0  0
 22 24  1  0  0  0  0
 22 17  1  0  0  0  0
 23 24  1  0  0  0  0
 25 23  2  0  0  0  0
 26 23  1  1  0  0  0
 26 30  1  0  0  0  0
 27 29  1  0  0  0  0
 29 28  1  0  0  0  0
 30 28  1  0  0  0  0
 31 26  1  0  0  0  0
 31 27  2  0  0  0  0
 33 34  1  0  0  0  0
 34 32  1  0  0  0  0
 35 13  1  0  0  0  0
 36 35  1  0  0  0  0
 37 38  2  0  0  0  0
 37 41  1  0  0  0  0
 38 43  1  0  0  0  0
 40 36  1  0  0  0  0
 41 40  2  0  0  0  0
 42 39  1  0  0  0  0
 42 38  1  0  0  0  0
 43 40  1  0  0  0  0
M  END
>  <MODEL>
4

>  <REMARK>
 VINA RESULT:      -9.0      1.645      2.290
  Name = 
  9 active torsions:
  status: ('A' for Active; 'I' for Inactive)
    1  A    between atoms: C_1  and  N_34
    2  A    between atoms: C_1  and  C_35
    3  A    between atoms: N_2  and  C_13
    4  A    between atoms: N_3  and  C_4
    5  A    between atoms: C_4  and  C_15
    6  A    between atoms: C_4  and  N_22
    7  A    between atoms: C_11  and  C_14
    8  A    between atoms: C_15  and  C_42
    9  A    between atoms: C_28  and  C_35
                            x       y       z     vdW  Elec       q    Type
                         _______ _______ _______ _____ _____    ______ ____

>  <TORSDO>
F 9

$$$$
=
 OpenBabel11052416073D

 43 48  0  0  1  0  0  0  0  0999 V2000
  188.4180  177.1380  147.2900 C   0  0  0  0  0  0  0  0  0  0  0  0
  188.3930  178.0660  142.9070 C   0  0  0  0  0  0  0  0  0  0  0  0
  185.6690  178.2330  142.1300 C   0  0  0  0  0  0  0  0  0  0  0  0
  189.3420  177.6410  144.7630 N   0  0  0  0  0  0  0  0  0  0  0  0
  186.1620  177.4010  146.4960 F   0  0  0  0  0  0  0  0  0  0  0  0
  187.9760  176.9060  148.5500 F   0  0  0  0  0  0  0  0  0  0  0  0
  188.0150  177.6450  144.9930 C   0  0  0  0  0  0  0  0  0  0  0  0
  189.8000  177.1310  147.0270 C   0  0  0  0  0  3  0  0  0  0  0  0
  187.4980  177.3930  146.2610 C   0  0  0  0  0  0  0  0  0  0  0  0
  185.9760  178.0050  143.4180 C   0  0  0  0  0  3  0  0  0  0  0  0
  187.3790  177.9150  143.8050 C   0  0  0  0  0  0  0  0  0  0  0  0
  189.6020  177.8960  143.4880 N   0  0  0  0  0  0  0  0  0  0  0  0
  188.1350  178.3010  141.5240 N   0  0  0  0  0  0  0  0  0  0  0  0
  186.7430  178.3940  141.0440 C   0  0  0  0  0  2  0  0  0  0  0  0
  190.2590  177.3880  145.7290 C   0  0  0  0  0  3  0  0  0  0  0  0
  184.2940  178.3320  141.7420 N   0  0  0  0  0  0  0  0  0  0  0  0
  181.2850  178.3640  139.6660 N   0  0  0  0  0  2  0  0  0  0  0  0
  183.7240  178.0240  140.4390 C   0  0  0  0  0  2  0  0  0  0  0  0
  183.2870  178.8310  142.5710 N   0  0  0  0  0  2  0  0  0  0  0  0
  182.3020  178.4310  140.6650 C   0  0  0  0  0  0  0  0  0  0  0  0
  182.0880  178.8700  141.8620 N   0  0  0  0  0  0  0  0  0  0  0  0
  179.9060  178.7190  139.9520 C   0  0  1  0  0  3  0  0  0  0  0  0
  179.4740  180.9920  138.9360 C   0  0  0  0  0  0  0  0  0  0  0  0
  179.3840  179.5690  138.8950 N   0  0  0  0  0  2  0  0  0  0  0  0
  180.0490  181.5660  139.8990 O   0  0  0  0  0  0  0  0  0  0  0  0
  178.9310  181.7880  137.7940 C   0  0  2  0  0  3  0  0  0  0  0  0
  180.1400  183.8590  137.0780 C   0  0  0  0  0  3  0  0  0  0  0  0
  180.7540  181.6520  136.0590 C   0  0  0  0  0  2  0  0  0  0  0  0
  180.7300  183.1640  135.8790 C   0  0  0  0  0  2  0  0  0  0  0  0
  179.3580  181.1720  136.4550 C   0  0  0  0  0  2  0  0  0  0  0  0
  179.2940  183.2510  137.9190 C   0  0  0  0  0  3  0  0  0  0  0  0
  179.0530  177.4610  140.1100 C   0  0  0  0  0  2  0  0  0  0  0  0
  179.4240  175.0100  140.0640 C   0  0  0  0  0  1  0  0  0  0  0  0
  179.6150  176.3000  139.3030 C   0  0  0  0  0  2  0  0  0  0  0  0
  189.2220  178.2870  140.5610 C   0  0  0  0  0  2  0  0  0  0  0  0
  189.6580  176.8610  140.2700 C   0  0  0  0  0  2  0  0  0  0  0  0
  193.2140  177.2480  139.4820 N   0  0  0  0  0  0  0  0  0  0  0  0
  192.9830  176.6220  138.3120 C   0  0  0  0  0  0  0  0  0  0  0  0
  193.7470  175.7020  136.0980 C   0  0  0  0  0  1  0  0  0  0  0  0
  191.0170  176.8350  139.6560 C   0  0  0  0  0  0  0  0  0  0  0  0
  192.1190  177.3680  140.2310 N   0  0  0  0  0  0  0  0  0  0  0  0
  194.0090  176.3830  137.3470 N   0  0  0  0  0  2  0  0  0  0  0  0
  191.3630  176.1770  138.1480 S   0  0  0  0  0  0  0  0  0  0  0  0
  1  6  1  0  0  0  0
  2 12  2  0  0  0  0
  2 11  1  0  0  0  0
  3 10  2  0  0  0  0
  4  7  1  0  0  0  0
  4 15  1  0  0  0  0
  7  9  1  0  0  0  0
  8  1  1  0  0  0  0
  9  5  1  0  0  0  0
  9  1  2  0  0  0  0
 10 11  1  0  0  0  0
 11  7  2  0  0  0  0
 12  4  1  0  0  0  0
 13  2  1  0  0  0  0
 14 13  1  0  0  0  0
 14  3  1  0  0  0  0
 15  8  2  0  0  0  0
 16  3  1  0  0  0  0
 16 19  1  0  0  0  0
 17 22  1  0  0  0  0
 17 20  1  0  0  0  0
 18 20  1  0  0  0  0
 18 16  1  0  0  0  0
 20 21  2  0  0  0  0
 21 19  1  0  0  0  0
 22 32  1  6  0  0  0
 23 25  2  0  0  0  0
 24 23  1  0  0  0  0
 24 22  1  0  0  0  0
 26 31  1  0  0  0  0
 26 23  1  1  0  0  0
 27 31  2  0  0  0  0
 28 30  1  0  0  0  0
 29 28  1  0  0  0  0
 29 27  1  0  0  0  0
 30 26  1  0  0  0  0
 34 33  1  0  0  0  0
 34 32  1  0  0  0  0
 35 13  1  0  0  0  0
 36 35  1  0  0  0  0
 37 41  1  0  0  0  0
 38 37  2  0  0  0  0
 39 42  1  0  0  0  0
 40 41  2  0  0  0  0
 40 36  1  0  0  0  0
 42 38  1  0  0  0  0
 43 38  1  0  0  0  0
 43 40  1  0  0  0  0
M  END
>  <MODEL>
5

>  <REMARK>
 VINA RESULT:      -8.8      4.006     11.661
  Name = 
  9 active torsions:
  status: ('A' for Active; 'I' for Inactive)
    1  A    between atoms: C_1  and  N_34
    2  A    between atoms: C_1  and  C_35
    3  A    between atoms: N_2  and  C_13
    4  A    between atoms: N_3  and  C_4
    5  A    between atoms: C_4  and  C_15
    6  A    between atoms: C_4  and  N_22
    7  A    between atoms: C_11  and  C_14
    8  A    between atoms: C_15  and  C_42
    9  A    between atoms: C_28  and  C_35
                            x       y       z     vdW  Elec       q    Type
                         _______ _______ _______ _____ _____    ______ ____

>  <TORSDO>
F 9

$$$$
=
 OpenBabel11052416073D

 43 48  0  0  1  0  0  0  0  0999 V2000
  195.2720  174.7360  136.5570 C   0  0  0  0  0  0  0  0  0  0  0  0
  191.2390  176.6240  137.0570 C   0  0  0  0  0  0  0  0  0  0  0  0
  190.8530  176.9830  139.8440 C   0  0  0  0  0  0  0  0  0  0  0  0
  192.8270  175.7850  135.9140 N   0  0  0  0  0  0  0  0  0  0  0  0
  194.8340  175.1900  138.8790 F   0  0  0  0  0  0  0  0  0  0  0  0
  196.4930  174.2320  136.8580 F   0  0  0  0  0  0  0  0  0  0  0  0
  193.2100  175.7490  137.2050 C   0  0  0  0  0  0  0  0  0  0  0  0
  194.8490  174.7780  135.2160 C   0  0  0  0  0  3  0  0  0  0  0  0
  194.4430  175.2240  137.5800 C   0  0  0  0  0  0  0  0  0  0  0  0
  192.0120  176.4690  139.3980 C   0  0  0  0  0  3  0  0  0  0  0  0
  192.1970  176.2830  137.9640 C   0  0  0  0  0  0  0  0  0  0  0  0
  191.6180  176.3180  135.7950 N   0  0  0  0  0  0  0  0  0  0  0  0
  189.9840  177.1640  137.4650 N   0  0  0  0  0  0  0  0  0  0  0  0
  189.7080  177.3750  138.8980 C   0  0  0  0  0  2  0  0  0  0  0  0
  193.5950  175.3150  134.9010 C   0  0  0  0  0  3  0  0  0  0  0  0
  190.6650  177.1780  141.2510 N   0  0  0  0  0  0  0  0  0  0  0  0
  191.1460  176.9330  144.8670 N   0  0  0  0  0  2  0  0  0  0  0  0
  191.5500  176.7500  142.3240 C   0  0  0  0  0  2  0  0  0  0  0  0
  189.5250  177.7610  141.8080 N   0  0  0  0  0  2  0  0  0  0  0  0
  190.7420  177.1580  143.5160 C   0  0  0  0  0  0  0  0  0  0  0  0
  189.6240  177.7230  143.1970 N   0  0  0  0  0  0  0  0  0  0  0  0
  190.3510  177.3980  145.9900 C   0  0  1  0  0  3  0  0  0  0  0  0
  187.9010  177.7240  146.5180 C   0  0  0  0  0  0  0  0  0  0  0  0
  188.9430  177.1350  145.7420 N   0  0  0  0  0  2  0  0  0  0  0  0
  188.1770  178.5340  147.4430 O   0  0  0  0  0  0  0  0  0  0  0  0
  186.4790  177.4170  146.1780 C   0  0  2  0  0  3  0  0  0  0  0  0
  184.9240  179.3060  145.6490 C   0  0  0  0  0  3  0  0  0  0  0  0
  186.2460  178.2360  143.8060 C   0  0  0  0  0  2  0  0  0  0  0  0
  184.9910  179.0160  144.1720 C   0  0  0  0  0  2  0  0  0  0  0  0
  186.3520  177.0050  144.7060 C   0  0  0  0  0  2  0  0  0  0  0  0
  185.5620  178.5580  146.5580 C   0  0  0  0  0  3  0  0  0  0  0  0
  190.8110  176.7270  147.2830 C   0  0  0  0  0  2  0  0  0  0  0  0
  192.7900  175.7460  148.4100 C   0  0  0  0  0  1  0  0  0  0  0  0
  192.1020  175.9490  147.0800 C   0  0  0  0  0  2  0  0  0  0  0  0
  188.9180  177.3580  136.4970 C   0  0  0  0  0  2  0  0  0  0  0  0
  188.0830  178.5740  136.8620 C   0  0  0  0  0  2  0  0  0  0  0  0
  184.8730  178.1290  138.5690 N   0  0  0  0  0  0  0  0  0  0  0  0
  184.5460  177.2180  137.6330 C   0  0  0  0  0  0  0  0  0  0  0  0
  182.9590  175.5470  136.6200 C   0  0  0  0  0  1  0  0  0  0  0  0
  186.7110  178.1700  137.2860 C   0  0  0  0  0  0  0  0  0  0  0  0
  186.0800  178.6590  138.3770 N   0  0  0  0  0  0  0  0  0  0  0  0
  183.3010  176.5180  137.6370 N   0  0  0  0  0  2  0  0  0  0  0  0
  185.7740  177.0210  136.4920 S   0  0  0  0  0  0  0  0  0  0  0  0
  1  6  1  0  0  0  0
  1  9  2  0  0  0  0
  2 13  1  0  0  0  0
  2 11  1  0  0  0  0
  3 16  1  0  0  0  0
  4  7  1  0  0  0  0
  7  9  1  0  0  0  0
  7 11  2  0  0  0  0
  8  1  1  0  0  0  0
  9  5  1  0  0  0  0
 10  3  2  0  0  0  0
 11 10  1  0  0  0  0
 12  4  1  0  0  0  0
 12  2  2  0  0  0  0
 13 14  1  0  0  0  0
 14  3  1  0  0  0  0
 15  8  2  0  0  0  0
 15  4  1  0  0  0  0
 16 19  1  0  0  0  0
 16 18  1  0  0  0  0
 17 22  1  0  0  0  0
 18 20  1  0  0  0  0
 19 21  1  0  0  0  0
 20 17  1  0  0  0  0
 21 20  2  0  0  0  0
 22 32  1  1  0  0  0
 23 25  2  0  0  0  0
 24 22  1  0  0  0  0
 24 23  1  0  0  0  0
 26 23  1  6  0  0  0
 26 31  1  0  0  0  0
 27 31  2  0  0  0  0
 28 29  1  0  0  0  0
 28 30  1  0  0  0  0
 29 27  1  0  0  0  0
 30 26  1  0  0  0  0
 34 32  1  0  0  0  0
 34 33  1  0  0  0  0
 35 36  1  0  0  0  0
 35 13  1  0  0  0  0
 36 40  1  0  0  0  0
 38 42  1  0  0  0  0
 38 37  2  0  0  0  0
 39 42  1  0  0  0  0
 40 41  2  0  0  0  0
 41 37  1  0  0  0  0
 43 40  1  0  0  0  0
 43 38  1  0  0  0  0
M  END
>  <MODEL>
6

>  <REMARK>
 VINA RESULT:      -8.8      3.548      9.615
  Name = 
  9 active torsions:
  status: ('A' for Active; 'I' for Inactive)
    1  A    between atoms: C_1  and  N_34
    2  A    between atoms: C_1  and  C_35
    3  A    between atoms: N_2  and  C_13
    4  A    between atoms: N_3  and  C_4
    5  A    between atoms: C_4  and  C_15
    6  A    between atoms: C_4  and  N_22
    7  A    between atoms: C_11  and  C_14
    8  A    between atoms: C_15  and  C_42
    9  A    between atoms: C_28  and  C_35
                            x       y       z     vdW  Elec       q    Type
                         _______ _______ _______ _____ _____    ______ ____

>  <TORSDO>
F 9

$$$$
=
 OpenBabel11052416073D

 43 48  0  0  1  0  0  0  0  0999 V2000
  186.6200  177.5700  135.7910 C   0  0  0  0  0  0  0  0  0  0  0  0
  190.7130  176.7310  137.4080 C   0  0  0  0  0  0  0  0  0  0  0  0
  190.5650  177.0970  140.2180 C   0  0  0  0  0  0  0  0  0  0  0  0
  189.2830  176.9390  135.8460 N   0  0  0  0  0  0  0  0  0  0  0  0
  186.6330  177.7520  138.1910 F   0  0  0  0  0  0  0  0  0  0  0  0
  185.2970  177.8620  135.7500 F   0  0  0  0  0  0  0  0  0  0  0  0
  188.6390  177.1840  137.0040 C   0  0  0  0  0  0  0  0  0  0  0  0
  187.3130  177.3170  134.5940 C   0  0  0  0  0  3  0  0  0  0  0  0
  187.2860  177.5100  137.0260 C   0  0  0  0  0  0  0  0  0  0  0  0
  189.4570  177.2430  139.4730 C   0  0  0  0  0  3  0  0  0  0  0  0
  189.5450  177.0580  138.0290 C   0  0  0  0  0  0  0  0  0  0  0  0
  190.5600  176.6580  136.0660 N   0  0  0  0  0  0  0  0  0  0  0  0
  191.9280  176.5710  138.1390 N   0  0  0  0  0  0  0  0  0  0  0  0
  191.9300  176.7510  139.6030 C   0  0  0  0  0  2  0  0  0  0  0  0
  188.6760  176.9980  134.6360 C   0  0  0  0  0  3  0  0  0  0  0  0
  190.4860  177.2670  141.6370 N   0  0  0  0  0  0  0  0  0  0  0  0
  191.1830  176.8850  145.2060 N   0  0  0  0  0  2  0  0  0  0  0  0
  191.4030  176.7420  142.6380 C   0  0  0  0  0  2  0  0  0  0  0  0
  189.4350  177.9210  142.2840 N   0  0  0  0  0  2  0  0  0  0  0  0
  190.7110  177.1780  143.8920 C   0  0  0  0  0  0  0  0  0  0  0  0
  189.6220  177.8370  143.6620 N   0  0  0  0  0  0  0  0  0  0  0  0
  190.5040  177.3790  146.3910 C   0  0  1  0  0  3  0  0  0  0  0  0
  188.1260  177.8210  147.1240 C   0  0  0  0  0  0  0  0  0  0  0  0
  189.0670  177.2100  146.2440 N   0  0  0  0  0  2  0  0  0  0  0  0
  188.5200  178.5690  148.0580 O   0  0  0  0  0  0  0  0  0  0  0  0
  186.6650  177.6130  146.8840 C   0  0  2  0  0  3  0  0  0  0  0  0
  185.3490  179.4290  145.7730 C   0  0  0  0  0  3  0  0  0  0  0  0
  186.4620  177.6710  144.3730 C   0  0  0  0  0  2  0  0  0  0  0  0
  185.3300  178.6850  144.4640 C   0  0  0  0  0  2  0  0  0  0  0  0
  186.4390  176.7820  145.6150 C   0  0  0  0  0  2  0  0  0  0  0  0
  185.9150  178.9260  146.8780 C   0  0  0  0  0  3  0  0  0  0  0  0
  191.0120  176.6570  147.6370 C   0  0  0  0  0  2  0  0  0  0  0  0
  193.0690  175.6630  148.6000 C   0  0  0  0  0  1  0  0  0  0  0  0
  192.2560  175.8350  147.3380 C   0  0  0  0  0  2  0  0  0  0  0  0
  193.1880  176.3920  137.4400 C   0  0  0  0  0  2  0  0  0  0  0  0
  193.5430  174.9170  137.3500 C   0  0  0  0  0  2  0  0  0  0  0  0
  196.8580  174.7990  138.9030 N   0  0  0  0  0  0  0  0  0  0  0  0
  197.3140  174.1900  137.7920 C   0  0  0  0  0  0  0  0  0  0  0  0
  199.1510  173.1350  136.4330 C   0  0  0  0  0  1  0  0  0  0  0  0
  194.9790  174.6950  137.6830 C   0  0  0  0  0  0  0  0  0  0  0  0
  195.5570  175.0810  138.8430 N   0  0  0  0  0  0  0  0  0  0  0  0
  198.6770  173.7960  137.6300 N   0  0  0  0  0  2  0  0  0  0  0  0
  196.0900  173.9690  136.6500 S   0  0  0  0  0  0  0  0  0  0  0  0
  1  9  2  0  0  0  0
  2 11  1  0  0  0  0
  2 13  1  0  0  0  0
  3 16  1  0  0  0  0
  4 12  1  0  0  0  0
  4  7  1  0  0  0  0
  6  1  1  0  0  0  0
  7  9  1  0  0  0  0
  7 11  2  0  0  0  0
  8 15  2  0  0  0  0
  8  1  1  0  0  0  0
  9  5  1  0  0  0  0
 10  3  2  0  0  0  0
 11 10  1  0  0  0  0
 12  2  2  0  0  0  0
 13 14  1  0  0  0  0
 14  3  1  0  0  0  0
 15  4  1  0  0  0  0
 16 19  1  0  0  0  0
 16 18  1  0  0  0  0
 17 22  1  0  0  0  0
 18 20  1  0  0  0  0
 19 21  1  0  0  0  0
 20 17  1  0  0  0  0
 21 20  2  0  0  0  0
 22 32  1  1  0  0  0
 23 25  2  0  0  0  0
 24 22  1  0  0  0  0
 24 23  1  0  0  0  0
 26 23  1  6  0  0  0
 27 31  2  0  0  0  0
 28 29  1  0  0  0  0
 28 30  1  0  0  0  0
 29 27  1  0  0  0  0
 30 26  1  0  0  0  0
 31 26  1  0  0  0  0
 34 32  1  0  0  0  0
 34 33  1  0  0  0  0
 35 13  1  0  0  0  0
 36 35  1  0  0  0  0
 36 40  1  0  0  0  0
 38 37  2  0  0  0  0
 39 42  1  0  0  0  0
 40 41  2  0  0  0  0
 41 37  1  0  0  0  0
 42 38  1  0  0  0  0
 43 40  1  0  0  0  0
 43 38  1  0  0  0  0
M  END
>  <MODEL>
7

>  <REMARK>
 VINA RESULT:      -8.8      4.658     11.490
  Name = 
  9 active torsions:
  status: ('A' for Active; 'I' for Inactive)
    1  A    between atoms: C_1  and  N_34
    2  A    between atoms: C_1  and  C_35
    3  A    between atoms: N_2  and  C_13
    4  A    between atoms: N_3  and  C_4
    5  A    between atoms: C_4  and  C_15
    6  A    between atoms: C_4  and  N_22
    7  A    between atoms: C_11  and  C_14
    8  A    between atoms: C_15  and  C_42
    9  A    between atoms: C_28  and  C_35
                            x       y       z     vdW  Elec       q    Type
                         _______ _______ _______ _____ _____    ______ ____

>  <TORSDO>
F 9

$$$$
=
 OpenBabel11052416073D

 43 48  0  0  1  0  0  0  0  0999 V2000
  191.5660  176.3890  136.5710 C   0  0  0  0  0  0  0  0  0  0  0  0
  190.9480  177.4350  140.8830 C   0  0  0  0  0  0  0  0  0  0  0  0
  188.2010  178.0830  141.1740 C   0  0  0  0  0  0  0  0  0  0  0  0
  192.1270  176.8600  139.2080 N   0  0  0  0  0  0  0  0  0  0  0  0
  189.2490  176.8780  136.9970 F   0  0  0  0  0  0  0  0  0  0  0  0
  191.2990  176.1340  135.2670 F   0  0  0  0  0  0  0  0  0  0  0  0
  190.8590  176.9850  138.7710 C   0  0  0  0  0  0  0  0  0  0  0  0
  192.8840  176.2700  137.0460 C   0  0  0  0  0  3  0  0  0  0  0  0
  190.5260  176.7570  137.4390 C   0  0  0  0  0  0  0  0  0  0  0  0
  188.6630  177.6840  139.9770 C   0  0  0  0  0  3  0  0  0  0  0  0
  190.0780  177.3600  139.8370 C   0  0  0  0  0  0  0  0  0  0  0  0
  192.2100  177.1310  140.5030 N   0  0  0  0  0  0  0  0  0  0  0  0
  190.5240  177.8600  142.1780 N   0  0  0  0  0  0  0  0  0  0  0  0
  189.1110  178.2180  142.4040 C   0  0  0  0  0  2  0  0  0  0  0  0
  193.1580  176.5160  138.3970 C   0  0  0  0  0  3  0  0  0  0  0  0
  186.8110  178.3950  141.3240 N   0  0  0  0  0  0  0  0  0  0  0  0
  183.4210  178.4960  142.6880 N   0  0  0  0  0  2  0  0  0  0  0  0
  185.9630  178.1030  142.4690 C   0  0  0  0  0  2  0  0  0  0  0  0
  186.0340  178.9760  140.3200 N   0  0  0  0  0  2  0  0  0  0  0  0
  184.6420  178.5810  141.9540 C   0  0  0  0  0  0  0  0  0  0  0  0
  184.7140  179.0670  140.7580 N   0  0  0  0  0  0  0  0  0  0  0  0
  182.1740  179.0250  142.1650 C   0  0  1  0  0  3  0  0  0  0  0  0
  181.4970  178.7300  139.7480 C   0  0  0  0  0  0  0  0  0  0  0  0
  181.7150  178.2050  141.0560 N   0  0  0  0  0  2  0  0  0  0  0  0
  181.7320  179.9430  139.5020 O   0  0  0  0  0  0  0  0  0  0  0  0
  181.0480  177.8080  138.6600 C   0  0  2  0  0  3  0  0  0  0  0  0
  182.7390  176.9370  137.0340 C   0  0  0  0  0  3  0  0  0  0  0  0
  182.2840  175.6680  139.1480 C   0  0  0  0  0  2  0  0  0  0  0  0
  182.7680  175.5900  137.7060 C   0  0  0  0  0  2  0  0  0  0  0  0
  180.9280  176.3720  139.1840 C   0  0  0  0  0  2  0  0  0  0  0  0
  181.9300  177.9260  137.4380 C   0  0  0  0  0  3  0  0  0  0  0  0
  181.1180  179.0920  143.2670 C   0  0  0  0  0  2  0  0  0  0  0  0
  179.4780  180.7350  142.3960 C   0  0  0  0  0  1  0  0  0  0  0  0
  179.7220  179.2730  142.6920 C   0  0  0  0  0  2  0  0  0  0  0  0
  191.4980  178.0960  143.2290 C   0  0  0  0  0  2  0  0  0  0  0  0
  191.6720  176.8500  144.0820 C   0  0  0  0  0  2  0  0  0  0  0  0
  191.1160  177.0820  147.6950 N   0  0  0  0  0  0  0  0  0  0  0  0
  189.8560  177.4810  147.4360 C   0  0  0  0  0  0  0  0  0  0  0  0
  187.5670  178.2240  148.1720 C   0  0  0  0  0  1  0  0  0  0  0  0
  191.1250  177.0640  145.4530 C   0  0  0  0  0  0  0  0  0  0  0  0
  191.8230  176.8470  146.5900 N   0  0  0  0  0  0  0  0  0  0  0  0
  188.9150  177.7880  148.4660 N   0  0  0  0  0  2  0  0  0  0  0  0
  189.5520  177.5650  145.7780 S   0  0  0  0  0  0  0  0  0  0  0  0
  1  8  1  0  0  0  0
  1  9  2  0  0  0  0
  2 13  1  0  0  0  0
  3 16  1  0  0  0  0
  3 14  1  0  0  0  0
  4 12  1  0  0  0  0
  5  9  1  0  0  0  0
  6  1  1  0  0  0  0
  7  4  1  0  0  0  0
  7 11  2  0  0  0  0
  8 15  2  0  0  0  0
  9  7  1  0  0  0  0
 10  3  2  0  0  0  0
 11 10  1  0  0  0  0
 11  2  1  0  0  0  0
 12  2  2  0  0  0  0
 13 14  1  0  0  0  0
 13 35  1  0  0  0  0
 15  4  1  0  0  0  0
 16 18  1  0  0  0  0
 19 21  1  0  0  0  0
 19 16  1  0  0  0  0
 20 18  1  0  0  0  0
 20 17  1  0  0  0  0
 21 20  2  0  0  0  0
 22 17  1  0  0  0  0
 22 32  1  1  0  0  0
 23 24  1  0  0  0  0
 24 22  1  0  0  0  0
 25 23  2  0  0  0  0
 26 30  1  0  0  0  0
 26 23  1  1  0  0  0
 27 31  2  0  0  0  0
 27 29  1  0  0  0  0
 28 30  1  0  0  0  0
 29 28  1  0  0  0  0
 31 26  1  0  0  0  0
 33 34  1  0  0  0  0
 34 32  1  0  0  0  0
 35 36  1  0  0  0  0
 36 40  1  0  0  0  0
 38 37  2  0  0  0  0
 38 42  1  0  0  0  0
 39 42  1  0  0  0  0
 40 43  1  0  0  0  0
 40 41  2  0  0  0  0
 41 37  1  0  0  0  0
 43 38  1  0  0  0  0
M  END
>  <MODEL>
8

>  <REMARK>
 VINA RESULT:      -8.7      4.390     11.047
  Name = 
  9 active torsions:
  status: ('A' for Active; 'I' for Inactive)
    1  A    between atoms: C_1  and  N_34
    2  A    between atoms: C_1  and  C_35
    3  A    between atoms: N_2  and  C_13
    4  A    between atoms: N_3  and  C_4
    5  A    between atoms: C_4  and  C_15
    6  A    between atoms: C_4  and  N_22
    7  A    between atoms: C_11  and  C_14
    8  A    between atoms: C_15  and  C_42
    9  A    between atoms: C_28  and  C_35
                            x       y       z     vdW  Elec       q    Type
                         _______ _______ _______ _____ _____    ______ ____

>  <TORSDO>
F 9

$$$$
=
 OpenBabel11052416073D

 43 48  0  0  1  0  0  0  0  0999 V2000
  189.9080  176.9730  146.9440 C   0  0  0  0  0  0  0  0  0  0  0  0
  189.7820  177.7100  142.5270 C   0  0  0  0  0  0  0  0  0  0  0  0
  187.0800  178.2830  141.8780 C   0  0  0  0  0  0  0  0  0  0  0  0
  190.7550  177.2140  144.3530 N   0  0  0  0  0  0  0  0  0  0  0  0
  187.6810  177.5650  146.2510 F   0  0  0  0  0  0  0  0  0  0  0  0
  189.5060  176.8690  148.2350 F   0  0  0  0  0  0  0  0  0  0  0  0
  189.4600  177.4420  144.6480 C   0  0  0  0  0  0  0  0  0  0  0  0
  191.2540  176.7320  146.6140 C   0  0  0  0  0  3  0  0  0  0  0  0
  188.9840  177.3310  145.9500 C   0  0  0  0  0  0  0  0  0  0  0  0
  187.4190  178.0620  143.1590 C   0  0  0  0  0  3  0  0  0  0  0  0
  188.8090  177.7620  143.4800 C   0  0  0  0  0  0  0  0  0  0  0  0
  190.9790  177.3710  143.0560 N   0  0  0  0  0  0  0  0  0  0  0  0
  189.4860  177.9250  141.1480 N   0  0  0  0  0  0  0  0  0  0  0  0
  188.1020  178.2230  140.7340 C   0  0  0  0  0  2  0  0  0  0  0  0
  191.6730  176.8570  145.2840 C   0  0  0  0  0  3  0  0  0  0  0  0
  185.7180  178.5870  141.5540 N   0  0  0  0  0  0  0  0  0  0  0  0
  182.0640  178.4850  141.5450 N   0  0  0  0  0  2  0  0  0  0  0  0
  184.5230  178.0920  142.2210 C   0  0  0  0  0  2  0  0  0  0  0  0
  185.3370  179.3710  140.4630 N   0  0  0  0  0  2  0  0  0  0  0  0
  183.4630  178.6890  141.3500 C   0  0  0  0  0  0  0  0  0  0  0  0
  183.9460  179.3990  140.3840 N   0  0  0  0  0  0  0  0  0  0  0  0
  181.0720  179.1320  140.7040 C   0  0  1  0  0  3  0  0  0  0  0  0
  181.1270  178.3400  138.3040 C   0  0  0  0  0  0  0  0  0  0  0  0
  180.6550  178.2270  139.6450 N   0  0  0  0  0  2  0  0  0  0  0  0
  181.9650  179.2290  137.9970 O   0  0  0  0  0  0  0  0  0  0  0  0
  180.6640  177.3510  137.2840 C   0  0  2  0  0  3  0  0  0  0  0  0
  182.1970  176.7430  135.4010 C   0  0  0  0  0  3  0  0  0  0  0  0
  182.2800  175.4340  137.5400 C   0  0  0  0  0  2  0  0  0  0  0  0
  182.5410  175.4220  136.0390 C   0  0  0  0  0  2  0  0  0  0  0  0
  180.8540  175.9170  137.7970 C   0  0  0  0  0  2  0  0  0  0  0  0
  181.3160  177.5950  135.9420 C   0  0  0  0  0  3  0  0  0  0  0  0
  179.8750  179.5810  141.5400 C   0  0  0  0  0  2  0  0  0  0  0  0
  179.4730  178.8450  143.8730 C   0  0  0  0  0  1  0  0  0  0  0  0
  180.2580  179.7920  142.9960 C   0  0  0  0  0  2  0  0  0  0  0  0
  190.5010  177.6960  140.1340 C   0  0  0  0  0  2  0  0  0  0  0  0
  190.3010  176.3400  139.4780 C   0  0  0  0  0  2  0  0  0  0  0  0
  190.4640  176.6680  135.8340 N   0  0  0  0  0  0  0  0  0  0  0  0
  189.1250  176.8110  135.8260 C   0  0  0  0  0  0  0  0  0  0  0  0
  186.9370  177.1590  134.6320 C   0  0  0  0  0  1  0  0  0  0  0  0
  190.0120  176.4910  138.0230 C   0  0  0  0  0  0  0  0  0  0  0  0
  190.9590  176.4910  137.0580 N   0  0  0  0  0  0  0  0  0  0  0  0
  188.3770  177.0150  134.6260 N   0  0  0  0  0  2  0  0  0  0  0  0
  188.4750  176.7230  137.3810 S   0  0  0  0  0  0  0  0  0  0  0  0
  1  6  1  0  0  0  0
  2 12  2  0  0  0  0
  2 11  1  0  0  0  0
  3 10  2  0  0  0  0
  4  7  1  0  0  0  0
  4 15  1  0  0  0  0
  7  9  1  0  0  0  0
  8  1  1  0  0  0  0
  9  5  1  0  0  0  0
  9  1  2  0  0  0  0
 10 11  1  0  0  0  0
 11  7  2  0  0  0  0
 12  4  1  0  0  0  0
 13  2  1  0  0  0  0
 14 13  1  0  0  0  0
 14  3  1  0  0  0  0
 15  8  2  0  0  0  0
 16  3  1  0  0  0  0
 16 18  1  0  0  0  0
 19 16  1  0  0  0  0
 20 17  1  0  0  0  0
 20 18  1  0  0  0  0
 21 19  1  0  0  0  0
 21 20  2  0  0  0  0
 22 32  1  1  0  0  0
 22 17  1  0  0  0  0
 23 24  1  0  0  0  0
 24 22  1  0  0  0  0
 25 23  2  0  0  0  0
 26 30  1  0  0  0  0
 26 23  1  1  0  0  0
 27 31  2  0  0  0  0
 27 29  1  0  0  0  0
 28 30  1  0  0  0  0
 29 28  1  0  0  0  0
 31 26  1  0  0  0  0
 32 34  1  0  0  0  0
 34 33  1  0  0  0  0
 35 13  1  0  0  0  0
 36 35  1  0  0  0  0
 37 41  1  0  0  0  0
 38 37  2  0  0  0  0
 38 43  1  0  0  0  0
 40 36  1  0  0  0  0
 41 40  2  0  0  0  0
 42 39  1  0  0  0  0
 42 38  1  0  0  0  0
 43 40  1  0  0  0  0
M  END
>  <MODEL>
9

>  <REMARK>
 VINA RESULT:      -8.5      4.693     10.045
  Name = 
  9 active torsions:
  status: ('A' for Active; 'I' for Inactive)
    1  A    between atoms: C_1  and  N_34
    2  A    between atoms: C_1  and  C_35
    3  A    between atoms: N_2  and  C_13
    4  A    between atoms: N_3  and  C_4
    5  A    between atoms: C_4  and  C_15
    6  A    between atoms: C_4  and  N_22
    7  A    between atoms: C_11  and  C_14
    8  A    between atoms: C_15  and  C_42
    9  A    between atoms: C_28  and  C_35
                            x       y       z     vdW  Elec       q    Type
                         _______ _______ _______ _____ _____    ______ ____

>  <TORSDO>
F 9

$$$$
