=
 OpenBabel11052413233D

 28 31  0  0  1  0  0  0  0  0999 V2000
  187.7430  178.3070  140.5970 C   0  0  0  0  0  0  0  0  0  0  0  0
  189.1200  178.2650  140.9810 N   0  0  0  0  0  2  0  0  0  0  0  0
  183.0320  178.1670  139.9630 C   0  0  0  0  0  1  0  0  0  0  0  0
  185.4310  178.1940  140.6050 C   0  0  0  0  0  0  0  0  0  0  0  0
  185.9870  178.6190  139.3350 C   0  0  0  0  0  0  0  0  0  0  0  0
  184.1550  177.9800  140.9260 C   0  0  0  0  0  3  0  0  0  0  0  0
  185.3320  178.9050  138.2980 O   0  0  0  0  0  0  0  0  0  0  0  0
  187.3980  178.6710  139.4020 N   0  0  0  0  0  0  0  0  0  0  0  0
  186.5870  178.0130  141.5300 C   0  0  2  0  0  3  0  0  0  0  0  0
  189.6610  177.5170  142.0750 C   0  0  0  0  0  0  0  0  0  0  0  0
  190.6460  176.8880  143.9310 C   0  0  0  0  0  0  0  0  0  0  0  0
  189.4100  176.1780  142.3150 C   0  0  0  0  0  3  0  0  0  0  0  0
  190.8620  179.2760  143.3540 O   0  0  0  0  0  1  0  0  0  0  0  0
  190.4310  177.9750  143.1220 C   0  0  0  0  0  0  0  0  0  0  0  0
  191.4360  176.8750  145.1910 C   0  0  0  0  0  1  0  0  0  0  0  0
  190.0290  175.8400  143.4310 O   0  0  0  0  0  0  0  0  0  0  0  0
  186.5290  178.9820  142.5390 O   0  0  0  0  0  0  0  0  0  0  0  0
  187.4600  177.8930  144.9890 C   0  0  0  0  0  3  0  0  0  0  0  0
  185.4900  178.9320  146.0660 C   0  0  2  0  0  3  0  0  0  0  0  0
  185.6010  178.4990  143.4730 C   0  0  1  0  0  3  0  0  0  0  0  0
  187.3550  177.9510  147.4270 C   0  0  0  0  0  0  0  0  0  0  0  0
  186.2300  178.4010  144.8470 C   0  0  0  0  0  0  0  0  0  0  0  0
  183.4690  179.0780  144.6530 C   0  0  0  0  0  3  0  0  0  0  0  0
  185.8700  178.1730  147.3420 C   0  0  0  0  0  2  0  0  0  0  0  0
  184.0010  178.8570  145.8620 C   0  0  0  0  0  3  0  0  0  0  0  0
  188.1160  177.7960  148.9950 Cl  0  0  0  0  0  0  0  0  0  0  0  0
  188.0780  177.7620  146.3200 C   0  0  0  0  0  3  0  0  0  0  0  0
  184.3620  179.4090  143.4920 C   0  0  0  0  0  2  0  0  0  0  0  0
  1  2  1  0  0  0  0
  1  9  1  0  0  0  0
  2 10  1  0  0  0  0
  3  6  1  0  0  0  0
  4  6  2  0  0  0  0
  4  9  1  0  0  0  0
  5  8  1  0  0  0  0
  5  4  1  0  0  0  0
  7  5  2  0  0  0  0
  8  1  2  0  0  0  0
  9 17  1  1  0  0  0
 10 12  2  0  0  0  0
 10 14  1  0  0  0  0
 11 15  1  0  0  0  0
 12 16  1  0  0  0  0
 14 13  1  0  0  0  0
 14 11  2  0  0  0  0
 16 11  1  0  0  0  0
 18 27  1  0  0  0  0
 19 25  1  6  0  0  0
 19 24  1  0  0  0  0
 20 17  1  6  0  0  0
 20 28  1  0  0  0  0
 20 22  1  0  0  0  0
 21 26  1  0  0  0  0
 22 18  2  0  0  0  0
 22 19  1  0  0  0  0
 23 25  2  0  0  0  0
 24 21  1  0  0  0  0
 27 21  2  0  0  0  0
 28 23  1  0  0  0  0
M  END
>  <MODEL>
1

>  <REMARK>
 VINA RESULT:      -9.0      0.000      0.000
  Name = 
  3 active torsions:
  status: ('A' for Active; 'I' for Inactive)
    1  A    between atoms: N_2  and  C_3
    2  A    between atoms: C_10  and  O_17
    3  A    between atoms: O_17  and  C_27
                            x       y       z     vdW  Elec       q    Type
                         _______ _______ _______ _____ _____    ______ ____

>  <TORSDO>
F 3

$$$$
=
 OpenBabel11052413233D

 28 31  0  0  1  0  0  0  0  0999 V2000
  190.0460  176.8600  143.9750 C   0  0  0  0  0  0  0  0  0  0  0  0
  190.1320  176.5810  142.5740 N   0  0  0  0  0  2  0  0  0  0  0  0
  189.2460  178.2440  148.4530 C   0  0  0  0  0  1  0  0  0  0  0  0
  189.3850  177.6610  146.0430 C   0  0  0  0  0  0  0  0  0  0  0  0
  190.5360  176.7800  146.1030 C   0  0  0  0  0  0  0  0  0  0  0  0
  188.7900  178.3230  147.0360 C   0  0  0  0  0  3  0  0  0  0  0  0
  191.1640  176.4510  147.1430 O   0  0  0  0  0  0  0  0  0  0  0  0
  190.8810  176.3250  144.8100 N   0  0  0  0  0  0  0  0  0  0  0  0
  188.9710  177.7150  144.6110 C   0  0  2  0  0  3  0  0  0  0  0  0
  189.5770  177.3840  141.5260 C   0  0  0  0  0  0  0  0  0  0  0  0
  188.9100  178.1830  139.5970 C   0  0  0  0  0  0  0  0  0  0  0  0
  188.7820  178.4990  141.7240 C   0  0  0  0  0  3  0  0  0  0  0  0
  190.2540  176.1190  139.4990 O   0  0  0  0  0  1  0  0  0  0  0  0
  189.6370  177.1690  140.1670 C   0  0  0  0  0  0  0  0  0  0  0  0
  188.6870  178.3920  138.1410 C   0  0  0  0  0  1  0  0  0  0  0  0
  188.4140  178.9530  140.5410 O   0  0  0  0  0  0  0  0  0  0  0  0
  187.7220  177.0980  144.4670 O   0  0  0  0  0  0  0  0  0  0  0  0
  185.9680  178.2140  142.5350 C   0  0  0  0  0  3  0  0  0  0  0  0
  184.2170  178.1950  144.2830 C   0  0  2  0  0  3  0  0  0  0  0  0
  186.7790  178.0550  144.8670 C   0  0  1  0  0  3  0  0  0  0  0  0
  183.6590  178.6640  141.8830 C   0  0  0  0  0  0  0  0  0  0  0  0
  185.6730  178.1750  143.8400 C   0  0  0  0  0  0  0  0  0  0  0  0
  185.0280  178.5340  146.5920 C   0  0  0  0  0  3  0  0  0  0  0  0
  183.3350  178.9900  143.3150 C   0  0  0  0  0  2  0  0  0  0  0  0
  184.0880  178.7710  145.6670 C   0  0  0  0  0  3  0  0  0  0  0  0
  182.4190  178.8250  140.6590 Cl  0  0  0  0  0  0  0  0  0  0  0  0
  184.9080  178.3600  141.5220 C   0  0  0  0  0  3  0  0  0  0  0  0
  186.2170  177.6840  146.2490 C   0  0  0  0  0  2  0  0  0  0  0  0
  1  9  1  0  0  0  0
  1  8  2  0  0  0  0
  2  1  1  0  0  0  0
  4  5  1  0  0  0  0
  4  6  2  0  0  0  0
  5  7  2  0  0  0  0
  6  3  1  0  0  0  0
  8  5  1  0  0  0  0
  9 17  1  1  0  0  0
  9  4  1  0  0  0  0
 10 12  2  0  0  0  0
 10  2  1  0  0  0  0
 11 14  2  0  0  0  0
 11 16  1  0  0  0  0
 13 14  1  0  0  0  0
 14 10  1  0  0  0  0
 15 11  1  0  0  0  0
 16 12  1  0  0  0  0
 18 22  2  0  0  0  0
 19 24  1  6  0  0  0
 19 25  1  0  0  0  0
 20 17  1  6  0  0  0
 20 28  1  0  0  0  0
 21 24  1  0  0  0  0
 22 19  1  0  0  0  0
 22 20  1  0  0  0  0
 25 23  2  0  0  0  0
 26 21  1  0  0  0  0
 27 21  2  0  0  0  0
 27 18  1  0  0  0  0
 28 23  1  0  0  0  0
M  END
>  <MODEL>
2

>  <REMARK>
 VINA RESULT:      -9.0      2.768      5.633
  Name = 
  3 active torsions:
  status: ('A' for Active; 'I' for Inactive)
    1  A    between atoms: N_2  and  C_3
    2  A    between atoms: C_10  and  O_17
    3  A    between atoms: O_17  and  C_27
                            x       y       z     vdW  Elec       q    Type
                         _______ _______ _______ _____ _____    ______ ____

>  <TORSDO>
F 3

$$$$
=
 OpenBabel11052413233D

 28 31  0  0  1  0  0  0  0  0999 V2000
  189.4210  178.0880  140.1900 C   0  0  0  0  0  0  0  0  0  0  0  0
  190.6270  177.9700  140.9510 N   0  0  0  0  0  2  0  0  0  0  0  0
  185.0900  178.1990  138.2300 C   0  0  0  0  0  1  0  0  0  0  0  0
  187.2020  178.0920  139.5320 C   0  0  0  0  0  0  0  0  0  0  0  0
  188.1180  178.5120  138.4890 C   0  0  0  0  0  0  0  0  0  0  0  0
  185.8800  177.9370  139.4670 C   0  0  0  0  0  3  0  0  0  0  0  0
  187.8010  178.8500  137.3170 O   0  0  0  0  0  0  0  0  0  0  0  0
  189.4510  178.4920  138.9580 N   0  0  0  0  0  0  0  0  0  0  0  0
  188.0350  177.8360  140.7430 C   0  0  2  0  0  3  0  0  0  0  0  0
  190.7980  177.1760  142.1290 C   0  0  0  0  0  0  0  0  0  0  0  0
  191.2340  176.4540  144.1530 C   0  0  0  0  0  0  0  0  0  0  0  0
  190.3300  175.8830  142.2830 C   0  0  0  0  0  3  0  0  0  0  0  0
  191.8800  178.7860  143.6800 O   0  0  0  0  0  1  0  0  0  0  0  0
  191.3530  177.5480  143.3340 C   0  0  0  0  0  0  0  0  0  0  0  0
  191.7000  176.3590  145.5630 C   0  0  0  0  0  1  0  0  0  0  0  0
  190.6230  175.4850  143.5070 O   0  0  0  0  0  0  0  0  0  0  0  0
  187.7310  178.7880  141.7240 O   0  0  0  0  0  0  0  0  0  0  0  0
  188.0120  177.7230  144.3400 C   0  0  0  0  0  3  0  0  0  0  0  0
  185.8170  178.7380  144.8630 C   0  0  2  0  0  3  0  0  0  0  0  0
  186.6000  178.2950  142.3900 C   0  0  1  0  0  3  0  0  0  0  0  0
  187.2790  177.7900  146.6670 C   0  0  0  0  0  0  0  0  0  0  0  0
  186.8540  178.2120  143.8810 C   0  0  0  0  0  0  0  0  0  0  0  0
  184.2280  178.8480  142.9750 C   0  0  0  0  0  3  0  0  0  0  0  0
  185.8640  177.9900  146.1990 C   0  0  0  0  0  2  0  0  0  0  0  0
  184.4320  178.6390  144.2820 C   0  0  0  0  0  3  0  0  0  0  0  0
  187.6110  177.6530  148.3800 Cl  0  0  0  0  0  0  0  0  0  0  0  0
  188.2660  177.6070  145.7860 C   0  0  0  0  0  3  0  0  0  0  0  0
  185.3860  179.1870  142.0810 C   0  0  0  0  0  2  0  0  0  0  0  0
  1  9  1  0  0  0  0
  1  2  1  0  0  0  0
  2 10  1  0  0  0  0
  3  6  1  0  0  0  0
  4  9  1  0  0  0  0
  5  8  1  0  0  0  0
  5  4  1  0  0  0  0
  6  4  2  0  0  0  0
  7  5  2  0  0  0  0
  8  1  2  0  0  0  0
  9 17  1  1  0  0  0
 10 12  2  0  0  0  0
 10 14  1  0  0  0  0
 11 15  1  0  0  0  0
 12 16  1  0  0  0  0
 14 13  1  0  0  0  0
 14 11  2  0  0  0  0
 16 11  1  0  0  0  0
 18 27  1  0  0  0  0
 19 25  1  6  0  0  0
 19 24  1  0  0  0  0
 20 17  1  6  0  0  0
 20 22  1  0  0  0  0
 21 26  1  0  0  0  0
 22 18  2  0  0  0  0
 22 19  1  0  0  0  0
 23 25  2  0  0  0  0
 24 21  1  0  0  0  0
 27 21  2  0  0  0  0
 28 20  1  0  0  0  0
 28 23  1  0  0  0  0
M  END
>  <MODEL>
3

>  <REMARK>
 VINA RESULT:      -8.8      1.317      1.560
  Name = 
  3 active torsions:
  status: ('A' for Active; 'I' for Inactive)
    1  A    between atoms: N_2  and  C_3
    2  A    between atoms: C_10  and  O_17
    3  A    between atoms: O_17  and  C_27
                            x       y       z     vdW  Elec       q    Type
                         _______ _______ _______ _____ _____    ______ ____

>  <TORSDO>
F 3

$$$$
=
 OpenBabel11052413233D

 28 31  0  0  1  0  0  0  0  0999 V2000
  190.3920  177.6700  140.2170 C   0  0  0  0  0  0  0  0  0  0  0  0
  191.3980  177.6960  141.2340 N   0  0  0  0  0  2  0  0  0  0  0  0
  186.6090  177.3620  137.3530 C   0  0  0  0  0  1  0  0  0  0  0  0
  188.3770  177.5030  139.0920 C   0  0  0  0  0  0  0  0  0  0  0  0
  189.4980  177.8280  138.2300 C   0  0  0  0  0  0  0  0  0  0  0  0
  187.1040  177.2880  138.7570 C   0  0  0  0  0  3  0  0  0  0  0  0
  189.4480  178.0050  136.9840 O   0  0  0  0  0  0  0  0  0  0  0  0
  190.6920  177.9190  138.9800 N   0  0  0  0  0  0  0  0  0  0  0  0
  188.9200  177.4320  140.4780 C   0  0  2  0  0  3  0  0  0  0  0  0
  191.3100  177.0610  142.5130 C   0  0  0  0  0  0  0  0  0  0  0  0
  191.3030  176.6110  144.6600 C   0  0  0  0  0  0  0  0  0  0  0  0
  190.8100  175.7890  142.7300 C   0  0  0  0  0  3  0  0  0  0  0  0
  192.0530  178.8760  144.0380 O   0  0  0  0  0  1  0  0  0  0  0  0
  191.6020  177.5940  143.7500 C   0  0  0  0  0  0  0  0  0  0  0  0
  191.4610  176.7050  146.1360 C   0  0  0  0  0  1  0  0  0  0  0  0
  190.8350  175.5560  144.0290 O   0  0  0  0  0  0  0  0  0  0  0  0
  188.3930  178.4860  141.2370 O   0  0  0  0  0  0  0  0  0  0  0  0
  188.1060  177.7240  143.9560 C   0  0  0  0  0  3  0  0  0  0  0  0
  185.8430  178.7210  143.8750 C   0  0  2  0  0  3  0  0  0  0  0  0
  187.1480  178.0340  141.6960 C   0  0  1  0  0  3  0  0  0  0  0  0
  186.8850  178.0240  146.0480 C   0  0  0  0  0  0  0  0  0  0  0  0
  187.0720  178.1230  143.2050 C   0  0  0  0  0  0  0  0  0  0  0  0
  184.7020  178.5720  141.6900 C   0  0  0  0  0  3  0  0  0  0  0  0
  185.6040  178.1260  145.2670 C   0  0  0  0  0  2  0  0  0  0  0  0
  184.6190  178.5150  143.0250 C   0  0  0  0  0  3  0  0  0  0  0  0
  186.8380  178.0870  147.7960 Cl  0  0  0  0  0  0  0  0  0  0  0  0
  188.0410  177.7770  145.4270 C   0  0  0  0  0  3  0  0  0  0  0  0
  186.0240  178.8470  141.0340 C   0  0  0  0  0  2  0  0  0  0  0  0
  1  9  1  0  0  0  0
  1  2  1  0  0  0  0
  2 10  1  0  0  0  0
  3  6  1  0  0  0  0
  4  9  1  0  0  0  0
  5  8  1  0  0  0  0
  5  4  1  0  0  0  0
  6  4  2  0  0  0  0
  7  5  2  0  0  0  0
  8  1  2  0  0  0  0
  9 17  1  1  0  0  0
 10 12  2  0  0  0  0
 10 14  1  0  0  0  0
 11 15  1  0  0  0  0
 12 16  1  0  0  0  0
 14 13  1  0  0  0  0
 14 11  2  0  0  0  0
 16 11  1  0  0  0  0
 18 27  1  0  0  0  0
 19 25  1  6  0  0  0
 19 24  1  0  0  0  0
 20 17  1  6  0  0  0
 20 22  1  0  0  0  0
 21 26  1  0  0  0  0
 22 19  1  0  0  0  0
 22 18  2  0  0  0  0
 23 25  2  0  0  0  0
 24 21  1  0  0  0  0
 27 21  2  0  0  0  0
 28 23  1  0  0  0  0
 28 20  1  0  0  0  0
M  END
>  <MODEL>
4

>  <REMARK>
 VINA RESULT:      -8.4      1.777      2.557
  Name = 
  3 active torsions:
  status: ('A' for Active; 'I' for Inactive)
    1  A    between atoms: N_2  and  C_3
    2  A    between atoms: C_10  and  O_17
    3  A    between atoms: O_17  and  C_27
                            x       y       z     vdW  Elec       q    Type
                         _______ _______ _______ _____ _____    ______ ____

>  <TORSDO>
F 3

$$$$
=
 OpenBabel11052413233D

 28 31  0  0  1  0  0  0  0  0999 V2000
  190.2520  176.6040  142.0990 C   0  0  0  0  0  0  0  0  0  0  0  0
  190.1810  176.3950  140.6850 N   0  0  0  0  0  2  0  0  0  0  0  0
  189.9700  177.7810  146.6970 C   0  0  0  0  0  1  0  0  0  0  0  0
  189.8370  177.3180  144.2610 C   0  0  0  0  0  0  0  0  0  0  0  0
  190.9560  176.4020  144.1560 C   0  0  0  0  0  0  0  0  0  0  0  0
  189.3720  177.9450  145.3410 C   0  0  0  0  0  3  0  0  0  0  0  0
  191.6770  176.0010  145.1080 O   0  0  0  0  0  0  0  0  0  0  0  0
  191.1500  176.0030  142.8140 N   0  0  0  0  0  0  0  0  0  0  0  0
  189.2780  177.4570  142.8850 C   0  0  2  0  0  3  0  0  0  0  0  0
  189.5490  177.2660  139.7410 C   0  0  0  0  0  0  0  0  0  0  0  0
  188.4350  178.1080  138.0510 C   0  0  0  0  0  0  0  0  0  0  0  0
  189.3760  178.6270  139.9180 C   0  0  0  0  0  3  0  0  0  0  0  0
  188.7680  175.6660  138.0090 O   0  0  0  0  0  1  0  0  0  0  0  0
  188.9250  176.9320  138.5590 C   0  0  0  0  0  0  0  0  0  0  0  0
  187.6860  178.2680  136.7750 C   0  0  0  0  0  1  0  0  0  0  0  0
  188.7130  179.0940  138.8760 O   0  0  0  0  0  0  0  0  0  0  0  0
  188.0000  176.8850  142.8440 O   0  0  0  0  0  0  0  0  0  0  0  0
  186.2860  178.3280  141.1010 C   0  0  0  0  0  3  0  0  0  0  0  0
  184.5790  178.2290  142.8890 C   0  0  2  0  0  3  0  0  0  0  0  0
  187.1370  177.8520  143.3760 C   0  0  1  0  0  3  0  0  0  0  0  0
  184.0010  179.0030  140.5740 C   0  0  0  0  0  0  0  0  0  0  0  0
  186.0190  178.1620  142.4030 C   0  0  0  0  0  0  0  0  0  0  0  0
  185.4620  178.2510  145.1950 C   0  0  0  0  0  3  0  0  0  0  0  0
  183.7330  179.1860  142.0420 C   0  0  0  0  0  2  0  0  0  0  0  0
  184.5210  178.6530  144.3320 C   0  0  0  0  0  3  0  0  0  0  0  0
  182.7480  179.3830  139.4130 Cl  0  0  0  0  0  0  0  0  0  0  0  0
  185.2170  178.6580  140.1430 C   0  0  0  0  0  3  0  0  0  0  0  0
  186.5810  177.3670  144.7250 C   0  0  0  0  0  2  0  0  0  0  0  0
  1  8  2  0  0  0  0
  1  9  1  0  0  0  0
  2  1  1  0  0  0  0
  4  6  2  0  0  0  0
  5  4  1  0  0  0  0
  5  7  2  0  0  0  0
  6  3  1  0  0  0  0
  8  5  1  0  0  0  0
  9 17  1  1  0  0  0
  9  4  1  0  0  0  0
 10 12  2  0  0  0  0
 10  2  1  0  0  0  0
 11 14  2  0  0  0  0
 11 16  1  0  0  0  0
 13 14  1  0  0  0  0
 14 10  1  0  0  0  0
 15 11  1  0  0  0  0
 16 12  1  0  0  0  0
 18 22  2  0  0  0  0
 19 24  1  6  0  0  0
 19 25  1  0  0  0  0
 20 17  1  6  0  0  0
 20 28  1  0  0  0  0
 21 24  1  0  0  0  0
 22 19  1  0  0  0  0
 22 20  1  0  0  0  0
 25 23  2  0  0  0  0
 26 21  1  0  0  0  0
 27 21  2  0  0  0  0
 27 18  1  0  0  0  0
 28 23  1  0  0  0  0
M  END
>  <MODEL>
5

>  <REMARK>
 VINA RESULT:      -8.4      2.931      5.836
  Name = 
  3 active torsions:
  status: ('A' for Active; 'I' for Inactive)
    1  A    between atoms: N_2  and  C_3
    2  A    between atoms: C_10  and  O_17
    3  A    between atoms: O_17  and  C_27
                            x       y       z     vdW  Elec       q    Type
                         _______ _______ _______ _____ _____    ______ ____

>  <TORSDO>
F 3

$$$$
=
 OpenBabel11052413233D

 28 31  0  0  1  0  0  0  0  0999 V2000
  186.1910  178.6640  139.4950 C   0  0  0  0  0  0  0  0  0  0  0  0
  187.5940  178.7170  139.2200 N   0  0  0  0  0  2  0  0  0  0  0  0
  181.7110  178.1270  140.9960 C   0  0  0  0  0  1  0  0  0  0  0  0
  184.1380  178.3210  140.5080 C   0  0  0  0  0  0  0  0  0  0  0  0
  184.0440  178.9380  139.1990 C   0  0  0  0  0  0  0  0  0  0  0  0
  183.1540  177.9470  141.3250 C   0  0  0  0  0  3  0  0  0  0  0  0
  182.9810  179.2710  138.6110 O   0  0  0  0  0  0  0  0  0  0  0  0
  185.3300  179.1230  138.6420 N   0  0  0  0  0  0  0  0  0  0  0  0
  185.5930  178.1540  140.7890 C   0  0  2  0  0  3  0  0  0  0  0  0
  188.5990  177.9090  139.8420 C   0  0  0  0  0  0  0  0  0  0  0  0
  190.0720  177.0460  141.2190 C   0  0  0  0  0  0  0  0  0  0  0  0
  189.0310  176.6840  139.3670 C   0  0  0  0  0  3  0  0  0  0  0  0
  189.0730  179.1890  141.9180 O   0  0  0  0  0  1  0  0  0  0  0  0
  189.2470  178.1270  141.0380 C   0  0  0  0  0  0  0  0  0  0  0  0
  190.9900  176.8250  142.3680 C   0  0  0  0  0  1  0  0  0  0  0  0
  189.9220  176.2070  140.2170 O   0  0  0  0  0  0  0  0  0  0  0  0
  185.9590  178.9940  141.8490 O   0  0  0  0  0  0  0  0  0  0  0  0
  187.3920  177.4670  143.7650 C   0  0  0  0  0  3  0  0  0  0  0  0
  186.0170  178.5710  145.5000 C   0  0  2  0  0  3  0  0  0  0  0  0
  185.2860  178.4980  142.9740 C   0  0  1  0  0  3  0  0  0  0  0  0
  188.0240  177.1930  146.1060 C   0  0  0  0  0  0  0  0  0  0  0  0
  186.2700  178.1330  144.0650 C   0  0  0  0  0  0  0  0  0  0  0  0
  183.7170  179.1530  144.8130 C   0  0  0  0  0  3  0  0  0  0  0  0
  186.6340  177.6000  146.5130 C   0  0  0  0  0  2  0  0  0  0  0  0
  184.5420  178.7020  145.7660 C   0  0  0  0  0  3  0  0  0  0  0  0
  189.1810  176.7290  147.3340 Cl  0  0  0  0  0  0  0  0  0  0  0  0
  188.3480  177.0780  144.8160 C   0  0  0  0  0  3  0  0  0  0  0  0
  184.2670  179.5360  143.4690 C   0  0  0  0  0  2  0  0  0  0  0  0
  1  9  1  0  0  0  0
  2  1  1  0  0  0  0
  2 10  1  0  0  0  0
  3  6  1  0  0  0  0
  4  9  1  0  0  0  0
  4  6  2  0  0  0  0
  5  4  1  0  0  0  0
  7  5  2  0  0  0  0
  8  5  1  0  0  0  0
  8  1  2  0  0  0  0
  9 17  1  1  0  0  0
 10 14  1  0  0  0  0
 11 15  1  0  0  0  0
 12 10  2  0  0  0  0
 12 16  1  0  0  0  0
 14 11  2  0  0  0  0
 14 13  1  0  0  0  0
 16 11  1  0  0  0  0
 18 22  2  0  0  0  0
 18 27  1  0  0  0  0
 19 25  1  1  0  0  0
 19 24  1  0  0  0  0
 20 17  1  6  0  0  0
 20 28  1  0  0  0  0
 20 22  1  0  0  0  0
 21 24  1  0  0  0  0
 21 26  1  0  0  0  0
 22 19  1  0  0  0  0
 23 25  2  0  0  0  0
 27 21  2  0  0  0  0
 28 23  1  0  0  0  0
M  END
>  <MODEL>
6

>  <REMARK>
 VINA RESULT:      -8.1      1.482      1.899
  Name = 
  3 active torsions:
  status: ('A' for Active; 'I' for Inactive)
    1  A    between atoms: N_2  and  C_3
    2  A    between atoms: C_10  and  O_17
    3  A    between atoms: O_17  and  C_27
                            x       y       z     vdW  Elec       q    Type
                         _______ _______ _______ _____ _____    ______ ____

>  <TORSDO>
F 3

$$$$
=
 OpenBabel11052413233D

 28 31  0  0  1  0  0  0  0  0999 V2000
  191.3630  177.2020  140.8640 C   0  0  0  0  0  0  0  0  0  0  0  0
  192.0880  177.4640  142.0690 N   0  0  0  0  0  2  0  0  0  0  0  0
  188.3960  176.2090  137.2830 C   0  0  0  0  0  1  0  0  0  0  0  0
  189.6840  176.7540  139.3360 C   0  0  0  0  0  0  0  0  0  0  0  0
  190.9910  176.9180  138.7300 C   0  0  0  0  0  0  0  0  0  0  0  0
  188.5270  176.4430  138.7500 C   0  0  0  0  0  3  0  0  0  0  0  0
  191.2550  176.8290  137.5020 O   0  0  0  0  0  0  0  0  0  0  0  0
  191.9650  177.1930  139.7160 N   0  0  0  0  0  0  0  0  0  0  0  0
  189.8660  176.9890  140.7970 C   0  0  2  0  0  3  0  0  0  0  0  0
  191.6680  177.1100  143.3910 C   0  0  0  0  0  0  0  0  0  0  0  0
  190.8300  177.1010  145.4170 C   0  0  0  0  0  0  0  0  0  0  0  0
  191.6810  175.8250  143.9040 C   0  0  0  0  0  3  0  0  0  0  0  0
  190.8080  179.2750  144.2540 O   0  0  0  0  0  1  0  0  0  0  0  0
  191.1010  177.9200  144.3510 C   0  0  0  0  0  0  0  0  0  0  0  0
  190.2200  177.5170  146.7090 C   0  0  0  0  0  1  0  0  0  0  0  0
  191.1800  175.8680  145.1250 O   0  0  0  0  0  0  0  0  0  0  0  0
  189.1980  178.1640  141.1640 O   0  0  0  0  0  0  0  0  0  0  0  0
  187.7910  177.5740  143.5570 C   0  0  0  0  0  3  0  0  0  0  0  0
  185.8620  178.7780  142.5820 C   0  0  2  0  0  3  0  0  0  0  0  0
  187.8320  177.8580  141.1000 C   0  0  1  0  0  3  0  0  0  0  0  0
  185.8900  178.0960  144.9960 C   0  0  0  0  0  0  0  0  0  0  0  0
  187.1820  178.0320  142.4560 C   0  0  0  0  0  0  0  0  0  0  0  0
  185.6560  178.6280  140.1250 C   0  0  0  0  0  3  0  0  0  0  0  0
  185.0350  178.2810  143.7720 C   0  0  0  0  0  2  0  0  0  0  0  0
  185.0530  178.6480  141.3200 C   0  0  0  0  0  3  0  0  0  0  0  0
  185.1700  178.2520  146.5840 Cl  0  0  0  0  0  0  0  0  0  0  0  0
  187.1620  177.7070  144.8830 C   0  0  0  0  0  3  0  0  0  0  0  0
  187.1520  178.7410  140.0410 C   0  0  0  0  0  2  0  0  0  0  0  0
  1  2  1  0  0  0  0
  2 10  1  0  0  0  0
  3  6  1  0  0  0  0
  4  9  1  0  0  0  0
  5  4  1  0  0  0  0
  5  8  1  0  0  0  0
  6  4  2  0  0  0  0
  7  5  2  0  0  0  0
  8  1  2  0  0  0  0
  9  1  1  0  0  0  0
  9 17  1  6  0  0  0
 10 12  2  0  0  0  0
 10 14  1  0  0  0  0
 11 15  1  0  0  0  0
 12 16  1  0  0  0  0
 13 14  1  0  0  0  0
 14 11  2  0  0  0  0
 16 11  1  0  0  0  0
 18 27  1  0  0  0  0
 19 25  1  6  0  0  0
 19 24  1  0  0  0  0
 20 17  1  1  0  0  0
 20 22  1  0  0  0  0
 21 26  1  0  0  0  0
 22 19  1  0  0  0  0
 22 18  2  0  0  0  0
 23 25  2  0  0  0  0
 24 21  1  0  0  0  0
 27 21  2  0  0  0  0
 28 23  1  0  0  0  0
 28 20  1  0  0  0  0
M  END
>  <MODEL>
7

>  <REMARK>
 VINA RESULT:      -8.1      2.361      3.743
  Name = 
  3 active torsions:
  status: ('A' for Active; 'I' for Inactive)
    1  A    between atoms: N_2  and  C_3
    2  A    between atoms: C_10  and  O_17
    3  A    between atoms: O_17  and  C_27
                            x       y       z     vdW  Elec       q    Type
                         _______ _______ _______ _____ _____    ______ ____

>  <TORSDO>
F 3

$$$$
=
 OpenBabel11052413233D

 28 31  0  0  1  0  0  0  0  0999 V2000
  184.9270  178.9660  138.8970 C   0  0  0  0  0  0  0  0  0  0  0  0
  186.0640  178.9140  138.0290 N   0  0  0  0  0  2  0  0  0  0  0  0
  181.5130  178.6810  142.1940 C   0  0  0  0  0  1  0  0  0  0  0  0
  183.4880  178.6930  140.6880 C   0  0  0  0  0  0  0  0  0  0  0  0
  182.9350  179.5000  139.6170 C   0  0  0  0  0  0  0  0  0  0  0  0
  182.9080  178.3080  141.8250 C   0  0  0  0  0  3  0  0  0  0  0  0
  181.7890  180.0210  139.5980 O   0  0  0  0  0  0  0  0  0  0  0  0
  183.8660  179.6300  138.5610 N   0  0  0  0  0  0  0  0  0  0  0  0
  184.8760  178.3390  140.2740 C   0  0  2  0  0  3  0  0  0  0  0  0
  187.0990  177.9270  138.0640 C   0  0  0  0  0  0  0  0  0  0  0  0
  188.9680  176.8280  138.3890 C   0  0  0  0  0  0  0  0  0  0  0  0
  186.9290  176.5940  137.7330 C   0  0  0  0  0  3  0  0  0  0  0  0
  188.9990  179.2110  139.0210 O   0  0  0  0  0  1  0  0  0  0  0  0
  188.3960  178.0690  138.5070 C   0  0  0  0  0  0  0  0  0  0  0  0
  190.3710  176.4720  138.7340 C   0  0  0  0  0  1  0  0  0  0  0  0
  188.0780  175.9750  137.9320 O   0  0  0  0  0  0  0  0  0  0  0  0
  185.7900  178.9760  141.1240 O   0  0  0  0  0  0  0  0  0  0  0  0
  187.9620  177.2920  141.8340 C   0  0  0  0  0  3  0  0  0  0  0  0
  187.6020  178.0110  144.1740 C   0  0  2  0  0  3  0  0  0  0  0  0
  185.7420  178.2650  142.3310 C   0  0  1  0  0  3  0  0  0  0  0  0
  189.6450  176.7180  143.5060 C   0  0  0  0  0  0  0  0  0  0  0  0
  187.1290  177.8160  142.7410 C   0  0  0  0  0  0  0  0  0  0  0  0
  185.2590  178.5110  144.7760 C   0  0  0  0  0  3  0  0  0  0  0  0
  188.6260  176.9490  144.5880 C   0  0  0  0  0  2  0  0  0  0  0  0
  186.4400  177.9860  145.1290 C   0  0  0  0  0  3  0  0  0  0  0  0
  191.2490  176.1650  143.9350 Cl  0  0  0  0  0  0  0  0  0  0  0  0
  189.3050  176.8240  142.2190 C   0  0  0  0  0  3  0  0  0  0  0  0
  185.0930  179.1340  143.4200 C   0  0  0  0  0  2  0  0  0  0  0  0
  1  9  1  0  0  0  0
  2 10  1  0  0  0  0
  2  1  1  0  0  0  0
  4  6  2  0  0  0  0
  5  4  1  0  0  0  0
  6  3  1  0  0  0  0
  7  5  2  0  0  0  0
  8  1  2  0  0  0  0
  8  5  1  0  0  0  0
  9  4  1  0  0  0  0
  9 17  1  1  0  0  0
 10 14  1  0  0  0  0
 11 14  2  0  0  0  0
 11 15  1  0  0  0  0
 12 16  1  0  0  0  0
 12 10  2  0  0  0  0
 14 13  1  0  0  0  0
 16 11  1  0  0  0  0
 18 27  1  0  0  0  0
 18 22  2  0  0  0  0
 19 24  1  1  0  0  0
 19 25  1  0  0  0  0
 20 17  1  6  0  0  0
 20 22  1  0  0  0  0
 20 28  1  0  0  0  0
 21 26  1  0  0  0  0
 21 24  1  0  0  0  0
 22 19  1  0  0  0  0
 23 25  2  0  0  0  0
 27 21  2  0  0  0  0
 28 23  1  0  0  0  0
M  END
>  <MODEL>
8

>  <REMARK>
 VINA RESULT:      -8.0      2.462      3.933
  Name = 
  3 active torsions:
  status: ('A' for Active; 'I' for Inactive)
    1  A    between atoms: N_2  and  C_3
    2  A    between atoms: C_10  and  O_17
    3  A    between atoms: O_17  and  C_27
                            x       y       z     vdW  Elec       q    Type
                         _______ _______ _______ _____ _____    ______ ____

>  <TORSDO>
F 3

$$$$
=
 OpenBabel11052413233D

 28 31  0  0  1  0  0  0  0  0999 V2000
  189.7890  177.1770  140.0340 C   0  0  0  0  0  0  0  0  0  0  0  0
  189.0390  176.7350  138.8990 N   0  0  0  0  0  2  0  0  0  0  0  0
  191.6810  178.9680  144.0120 C   0  0  0  0  0  1  0  0  0  0  0  0
  190.4080  178.1060  142.0610 C   0  0  0  0  0  0  0  0  0  0  0  0
  191.5060  177.4770  141.3520 C   0  0  0  0  0  0  0  0  0  0  0  0
  190.4350  178.7690  143.2180 C   0  0  0  0  0  3  0  0  0  0  0  0
  192.7020  177.4150  141.7420 O   0  0  0  0  0  0  0  0  0  0  0  0
  191.0580  176.9270  140.1290 N   0  0  0  0  0  0  0  0  0  0  0  0
  189.1900  177.8880  141.2290 C   0  0  2  0  0  3  0  0  0  0  0  0
  187.7840  177.2700  138.4660 C   0  0  0  0  0  0  0  0  0  0  0  0
  185.7950  177.5660  137.5920 C   0  0  0  0  0  0  0  0  0  0  0  0
  187.2630  178.4860  138.8720 C   0  0  0  0  0  3  0  0  0  0  0  0
  186.8780  175.4070  137.0950 O   0  0  0  0  0  1  0  0  0  0  0  0
  186.8330  176.6730  137.6680 C   0  0  0  0  0  0  0  0  0  0  0  0
  184.5310  177.3790  136.8300 C   0  0  0  0  0  1  0  0  0  0  0  0
  186.0750  178.6280  138.3160 O   0  0  0  0  0  0  0  0  0  0  0  0
  188.3140  177.0310  141.9060 O   0  0  0  0  0  0  0  0  0  0  0  0
  185.9180  178.5220  142.2110 C   0  0  0  0  0  3  0  0  0  0  0  0
  185.8160  177.6620  144.5290 C   0  0  2  0  0  3  0  0  0  0  0  0
  188.0460  177.6560  143.1320 C   0  0  1  0  0  3  0  0  0  0  0  0
  183.8750  178.8720  143.4990 C   0  0  0  0  0  0  0  0  0  0  0  0
  186.5730  177.9880  143.2490 C   0  0  0  0  0  0  0  0  0  0  0  0
  188.0040  177.2670  145.6050 C   0  0  0  0  0  3  0  0  0  0  0  0
  184.6490  178.6270  144.7650 C   0  0  0  0  0  2  0  0  0  0  0  0
  186.7390  177.6910  145.7170 C   0  0  0  0  0  3  0  0  0  0  0  0
  182.1790  179.2930  143.5930 Cl  0  0  0  0  0  0  0  0  0  0  0  0
  184.4920  178.8780  142.3160 C   0  0  0  0  0  3  0  0  0  0  0  0
  188.5060  176.7530  144.2870 C   0  0  0  0  0  2  0  0  0  0  0  0
  1  8  2  0  0  0  0
  1  9  1  0  0  0  0
  2  1  1  0  0  0  0
  4  6  2  0  0  0  0
  5  7  2  0  0  0  0
  5  4  1  0  0  0  0
  6  3  1  0  0  0  0
  8  5  1  0  0  0  0
  9 17  1  1  0  0  0
  9  4  1  0  0  0  0
 10 12  2  0  0  0  0
 10  2  1  0  0  0  0
 11 14  2  0  0  0  0
 11 16  1  0  0  0  0
 13 14  1  0  0  0  0
 14 10  1  0  0  0  0
 15 11  1  0  0  0  0
 16 12  1  0  0  0  0
 18 27  1  0  0  0  0
 18 22  2  0  0  0  0
 19 24  1  1  0  0  0
 19 25  1  0  0  0  0
 20 17  1  6  0  0  0
 20 22  1  0  0  0  0
 20 28  1  0  0  0  0
 21 26  1  0  0  0  0
 21 24  1  0  0  0  0
 22 19  1  0  0  0  0
 23 25  2  0  0  0  0
 27 21  2  0  0  0  0
 28 23  1  0  0  0  0
M  END
>  <MODEL>
9

>  <REMARK>
 VINA RESULT:      -7.9      2.472      5.709
  Name = 
  3 active torsions:
  status: ('A' for Active; 'I' for Inactive)
    1  A    between atoms: N_2  and  C_3
    2  A    between atoms: C_10  and  O_17
    3  A    between atoms: O_17  and  C_27
                            x       y       z     vdW  Elec       q    Type
                         _______ _______ _______ _____ _____    ______ ____

>  <TORSDO>
F 3

$$$$
