=
 OpenBabel11052412243D

 30 32  0  0  1  0  0  0  0  0999 V2000
  191.1860  177.4060  145.0810 C   0  0  0  0  0  0  0  0  0  0  0  0
  191.7120  176.7890  146.2190 C   0  0  0  0  0  3  0  0  0  0  0  0
  192.0490  177.8110  144.0700 O   0  0  0  0  0  1  0  0  0  0  0  0
  188.9430  177.1980  146.0170 C   0  0  0  0  0  0  0  0  0  0  0  0
  190.8660  176.3760  147.2490 C   0  0  0  0  0  3  0  0  0  0  0  0
  189.7980  177.6140  144.9670 C   0  0  0  0  0  0  0  0  0  0  0  0
  189.4910  176.5820  147.1480 C   0  0  0  0  0  3  0  0  0  0  0  0
  185.8060  179.0170  146.8440 C   0  0  0  0  0  3  0  0  0  0  0  0
  182.8600  179.2720  144.0690 O   0  0  0  0  0  0  0  0  0  0  0  0
  185.0920  178.9070  145.6050 N   0  0  0  0  0  0  0  0  0  0  0  0
  186.9480  178.3600  147.0430 C   0  0  0  0  0  0  0  0  0  0  0  0
  183.4990  178.7130  143.1390 C   0  0  0  0  0  0  0  0  0  0  0  0
  184.8230  178.2100  143.3460 N   0  0  0  0  0  2  0  0  0  0  0  0
  186.9750  177.7530  144.5770 C   0  0  0  0  0  2  0  0  0  0  0  0
  187.5910  178.4400  148.3850 C   0  0  0  0  0  1  0  0  0  0  0  0
  185.5710  178.2880  144.5650 C   0  0  0  0  0  0  0  0  0  0  0  0
  182.8670  178.5730  141.8020 C   0  0  0  0  0  1  0  0  0  0  0  0
  187.4490  177.3950  145.9900 C   0  0  1  0  0  3  0  0  0  0  0  0
  189.2460  178.2660  143.7360 C   0  0  0  0  0  2  0  0  0  0  0  0
  189.7010  177.5260  142.4930 C   0  0  0  0  0  2  0  0  0  0  0  0
  188.5080  177.2840  141.5900 C   0  0  0  0  0  2  0  0  0  0  0  0
  188.3110  178.4380  140.6120 C   0  0  2  0  0  3  0  0  0  0  0  0
  186.9490  178.7120  140.4960 O   0  0  0  0  0  1  0  0  0  0  0  0
  188.9070  178.9230  137.1560 C   0  0  0  0  0  2  0  0  0  0  0  0
  188.8900  178.1570  139.2240 C   0  0  1  0  0  3  0  0  0  0  0  0
  188.2770  177.5590  137.1900 C   0  0  2  0  0  0  0  0  0  0  0  0
  188.0980  177.2290  138.5310 O   0  0  0  0  0  0  0  0  0  0  0  0
  189.0350  179.3390  138.4790 O   0  0  0  0  0  0  0  0  0  0  0  0
  189.1200  176.6310  136.5800 O   0  0  0  0  0  1  0  0  0  0  0  0
  186.9390  177.5820  136.4800 C   0  0  0  0  0  1  0  0  0  0  0  0
  1  2  1  0  0  0  0
  2  5  2  0  0  0  0
  3  1  1  0  0  0  0
  4  7  2  0  0  0  0
  6  1  2  0  0  0  0
  6  4  1  0  0  0  0
  7  5  1  0  0  0  0
  8 11  2  0  0  0  0
 10  8  1  0  0  0  0
 11 15  1  0  0  0  0
 12 13  1  0  0  0  0
 12  9  2  0  0  0  0
 13 16  1  0  0  0  0
 14 18  1  0  0  0  0
 16 14  1  0  0  0  0
 16 10  2  0  0  0  0
 17 12  1  0  0  0  0
 18  4  1  6  0  0  0
 18 11  1  0  0  0  0
 19  6  1  0  0  0  0
 20 19  1  0  0  0  0
 21 20  1  0  0  0  0
 22 23  1  6  0  0  0
 22 21  1  0  0  0  0
 24 26  1  0  0  0  0
 24 28  1  0  0  0  0
 25 22  1  1  0  0  0
 26 30  1  6  0  0  0
 26 27  1  0  0  0  0
 27 25  1  0  0  0  0
 28 25  1  0  0  0  0
 29 26  1  0  0  0  0
M  END
>  <MODEL>
1

>  <REMARK>
 VINA RESULT:     -10.1      0.000      0.000
  Name = 
  6 active torsions:
  status: ('A' for Active; 'I' for Inactive)
    1  A    between atoms: C_1  and  C_4
    2  A    between atoms: C_1  and  C_5
    3  A    between atoms: C_4  and  C_27
    4  A    between atoms: C_5  and  C_22
    5  A    between atoms: C_8  and  C_27
    6  A    between atoms: C_19  and  C_29
                            x       y       z     vdW  Elec       q    Type
                         _______ _______ _______ _____ _____    ______ ____

>  <TORSDO>
F 6

$$$$
=
 OpenBabel11052412243D

 30 32  0  0  1  0  0  0  0  0999 V2000
  191.1140  177.1820  144.9450 C   0  0  0  0  0  0  0  0  0  0  0  0
  191.7070  176.7220  146.1240 C   0  0  0  0  0  3  0  0  0  0  0  0
  191.9140  177.4180  143.8330 O   0  0  0  0  0  1  0  0  0  0  0  0
  188.9360  177.1590  146.0420 C   0  0  0  0  0  0  0  0  0  0  0  0
  190.9260  176.4810  147.2550 C   0  0  0  0  0  3  0  0  0  0  0  0
  189.7250  177.4010  144.8900 C   0  0  0  0  0  0  0  0  0  0  0  0
  189.5500  176.7000  147.2130 C   0  0  0  0  0  3  0  0  0  0  0  0
  185.8720  179.0290  147.0210 C   0  0  0  0  0  3  0  0  0  0  0  0
  182.8130  179.3610  144.3800 O   0  0  0  0  0  0  0  0  0  0  0  0
  185.1030  178.9420  145.8130 N   0  0  0  0  0  0  0  0  0  0  0  0
  187.0100  178.3480  147.1640 C   0  0  0  0  0  0  0  0  0  0  0  0
  183.4010  178.7990  143.4180 C   0  0  0  0  0  0  0  0  0  0  0  0
  184.7220  178.2700  143.5630 N   0  0  0  0  0  2  0  0  0  0  0  0
  186.9170  177.7630  144.6950 C   0  0  0  0  0  2  0  0  0  0  0  0
  187.7130  178.4050  148.4770 C   0  0  0  0  0  1  0  0  0  0  0  0
  185.5250  178.3230  144.7490 C   0  0  0  0  0  0  0  0  0  0  0  0
  182.7080  178.6820  142.1090 C   0  0  0  0  0  1  0  0  0  0  0  0
  187.4460  177.3840  146.0830 C   0  0  1  0  0  3  0  0  0  0  0  0
  189.1000  177.8830  143.6160 C   0  0  0  0  0  2  0  0  0  0  0  0
  189.1210  176.7870  142.5670 C   0  0  0  0  0  2  0  0  0  0  0  0
  188.9830  177.4090  141.1910 C   0  0  0  0  0  2  0  0  0  0  0  0
  190.0840  176.9250  140.2530 C   0  0  2  0  0  3  0  0  0  0  0  0
  191.3090  177.4300  140.6850 O   0  0  0  0  0  1  0  0  0  0  0  0
  188.6560  178.6810  137.5320 C   0  0  0  0  0  2  0  0  0  0  0  0
  189.8550  177.3300  138.7960 C   0  0  1  0  0  3  0  0  0  0  0  0
  188.3270  177.2520  137.2050 C   0  0  2  0  0  0  0  0  0  0  0  0
  188.9430  176.4640  138.1740 O   0  0  0  0  0  0  0  0  0  0  0  0
  189.4210  178.6620  138.6950 O   0  0  0  0  0  0  0  0  0  0  0  0
  188.8210  176.9260  135.9420 O   0  0  0  0  0  1  0  0  0  0  0  0
  186.8280  177.0370  137.2410 C   0  0  0  0  0  1  0  0  0  0  0  0
  1  2  1  0  0  0  0
  2  5  2  0  0  0  0
  3  1  1  0  0  0  0
  4  7  2  0  0  0  0
  6  1  2  0  0  0  0
  6  4  1  0  0  0  0
  7  5  1  0  0  0  0
  8 11  2  0  0  0  0
 10  8  1  0  0  0  0
 11 15  1  0  0  0  0
 12 13  1  0  0  0  0
 12  9  2  0  0  0  0
 13 16  1  0  0  0  0
 14 16  1  0  0  0  0
 14 18  1  0  0  0  0
 16 10  2  0  0  0  0
 17 12  1  0  0  0  0
 18  4  1  6  0  0  0
 18 11  1  0  0  0  0
 19  6  1  0  0  0  0
 20 19  1  0  0  0  0
 21 20  1  0  0  0  0
 22 23  1  1  0  0  0
 22 21  1  0  0  0  0
 24 28  1  0  0  0  0
 25 22  1  1  0  0  0
 26 30  1  1  0  0  0
 26 24  1  0  0  0  0
 26 27  1  0  0  0  0
 27 25  1  0  0  0  0
 28 25  1  0  0  0  0
 29 26  1  0  0  0  0
M  END
>  <MODEL>
2

>  <REMARK>
 VINA RESULT:      -9.9      0.901      1.071
  Name = 
  6 active torsions:
  status: ('A' for Active; 'I' for Inactive)
    1  A    between atoms: C_1  and  C_4
    2  A    between atoms: C_1  and  C_5
    3  A    between atoms: C_4  and  C_27
    4  A    between atoms: C_5  and  C_22
    5  A    between atoms: C_8  and  C_27
    6  A    between atoms: C_19  and  C_29
                            x       y       z     vdW  Elec       q    Type
                         _______ _______ _______ _____ _____    ______ ____

>  <TORSDO>
F 6

$$$$
=
 OpenBabel11052412243D

 30 32  0  0  1  0  0  0  0  0999 V2000
  189.6620  177.3850  145.1680 C   0  0  0  0  0  0  0  0  0  0  0  0
  190.9210  177.9720  145.3190 C   0  0  0  0  0  3  0  0  0  0  0  0
  188.9030  177.1100  146.2990 O   0  0  0  0  0  1  0  0  0  0  0  0
  189.9750  177.3610  142.7490 C   0  0  0  0  0  0  0  0  0  0  0  0
  191.7040  178.2540  144.2000 C   0  0  0  0  0  3  0  0  0  0  0  0
  189.1750  177.0770  143.8830 C   0  0  0  0  0  0  0  0  0  0  0  0
  191.2330  177.9490  142.9240 C   0  0  0  0  0  3  0  0  0  0  0  0
  188.9950  178.2880  139.2820 C   0  0  0  0  0  3  0  0  0  0  0  0
  190.2980  176.0330  136.1730 O   0  0  0  0  0  0  0  0  0  0  0  0
  189.6930  177.2890  138.5250 N   0  0  0  0  0  0  0  0  0  0  0  0
  188.9480  178.2370  140.6130 C   0  0  0  0  0  0  0  0  0  0  0  0
  191.0310  175.2700  136.8560 C   0  0  0  0  0  0  0  0  0  0  0  0
  191.1130  175.3960  138.2790 N   0  0  0  0  0  2  0  0  0  0  0  0
  190.6850  176.3850  140.5580 C   0  0  0  0  0  2  0  0  0  0  0  0
  188.1280  179.2500  141.3360 C   0  0  0  0  0  1  0  0  0  0  0  0
  190.4290  176.3690  139.0780 C   0  0  0  0  0  0  0  0  0  0  0  0
  191.8240  174.2170  136.1710 C   0  0  0  0  0  1  0  0  0  0  0  0
  189.5450  177.0500  141.3380 C   0  0  1  0  0  3  0  0  0  0  0  0
  187.8180  176.4590  143.7340 C   0  0  0  0  0  2  0  0  0  0  0  0
  186.7400  177.4320  144.1700 C   0  0  0  0  0  2  0  0  0  0  0  0
  185.6790  177.5190  143.0900 C   0  0  0  0  0  2  0  0  0  0  0  0
  184.8660  178.8040  143.2160 C   0  0  2  0  0  3  0  0  0  0  0  0
  183.9130  178.6460  144.2210 O   0  0  0  0  0  1  0  0  0  0  0  0
  183.2420  178.3570  140.1030 C   0  0  0  0  0  2  0  0  0  0  0  0
  184.1680  179.2050  141.9160 C   0  0  1  0  0  3  0  0  0  0  0  0
  184.4490  179.1690  139.7270 C   0  0  2  0  0  0  0  0  0  0  0  0
  185.1060  179.4900  140.9120 O   0  0  0  0  0  0  0  0  0  0  0  0
  183.2700  178.2140  141.4870 O   0  0  0  0  0  0  0  0  0  0  0  0
  184.0540  180.3350  139.0720 O   0  0  0  0  0  1  0  0  0  0  0  0
  185.3650  178.3630  138.8300 C   0  0  0  0  0  1  0  0  0  0  0  0
  1  2  1  0  0  0  0
  1  3  1  0  0  0  0
  4  7  2  0  0  0  0
  4  6  1  0  0  0  0
  5  2  2  0  0  0  0
  6  1  2  0  0  0  0
  7  5  1  0  0  0  0
  8 11  2  0  0  0  0
  9 12  2  0  0  0  0
 10 16  2  0  0  0  0
 10  8  1  0  0  0  0
 11 15  1  0  0  0  0
 11 18  1  0  0  0  0
 12 13  1  0  0  0  0
 13 16  1  0  0  0  0
 14 18  1  0  0  0  0
 16 14  1  0  0  0  0
 17 12  1  0  0  0  0
 18  4  1  1  0  0  0
 19  6  1  0  0  0  0
 19 20  1  0  0  0  0
 21 22  1  0  0  0  0
 21 20  1  0  0  0  0
 22 23  1  1  0  0  0
 24 28  1  0  0  0  0
 25 22  1  1  0  0  0
 26 30  1  6  0  0  0
 26 24  1  0  0  0  0
 26 27  1  0  0  0  0
 27 25  1  0  0  0  0
 28 25  1  0  0  0  0
 29 26  1  0  0  0  0
M  END
>  <MODEL>
3

>  <REMARK>
 VINA RESULT:      -9.7      2.932      6.180
  Name = 
  6 active torsions:
  status: ('A' for Active; 'I' for Inactive)
    1  A    between atoms: C_1  and  C_4
    2  A    between atoms: C_1  and  C_5
    3  A    between atoms: C_4  and  C_27
    4  A    between atoms: C_5  and  C_22
    5  A    between atoms: C_8  and  C_27
    6  A    between atoms: C_19  and  C_29
                            x       y       z     vdW  Elec       q    Type
                         _______ _______ _______ _____ _____    ______ ____

>  <TORSDO>
F 6

$$$$
=
 OpenBabel11052412243D

 30 32  0  0  1  0  0  0  0  0999 V2000
  189.8910  177.2310  145.8170 C   0  0  0  0  0  0  0  0  0  0  0  0
  189.7700  177.5310  147.1760 C   0  0  0  0  0  3  0  0  0  0  0  0
  191.1450  176.9240  145.3000 O   0  0  0  0  0  1  0  0  0  0  0  0
  187.4910  177.5660  145.5390 C   0  0  0  0  0  0  0  0  0  0  0  0
  188.5240  177.8460  147.7180 C   0  0  0  0  0  3  0  0  0  0  0  0
  188.7550  177.2410  144.9860 C   0  0  0  0  0  0  0  0  0  0  0  0
  187.3930  177.8640  146.9030 C   0  0  0  0  0  3  0  0  0  0  0  0
  184.1330  178.9190  144.6850 C   0  0  0  0  0  3  0  0  0  0  0  0
  183.0840  179.3320  140.7900 O   0  0  0  0  0  0  0  0  0  0  0  0
  184.2040  178.9410  143.2530 N   0  0  0  0  0  0  0  0  0  0  0  0
  185.0930  178.3500  145.4150 C   0  0  0  0  0  0  0  0  0  0  0  0
  184.1990  178.9950  140.3110 C   0  0  0  0  0  0  0  0  0  0  0  0
  185.2800  178.5940  141.1590 N   0  0  0  0  0  2  0  0  0  0  0  0
  186.5090  178.1540  143.3160 C   0  0  0  0  0  2  0  0  0  0  0  0
  184.9140  178.2750  146.8920 C   0  0  0  0  0  1  0  0  0  0  0  0
  185.2530  178.5460  142.5910 C   0  0  0  0  0  0  0  0  0  0  0  0
  184.3950  179.0110  138.8390 C   0  0  0  0  0  1  0  0  0  0  0  0
  186.2240  177.6200  144.7240 C   0  0  1  0  0  3  0  0  0  0  0  0
  188.8970  176.9050  143.5330 C   0  0  0  0  0  2  0  0  0  0  0  0
  189.6340  178.0100  142.8010 C   0  0  0  0  0  2  0  0  0  0  0  0
  190.6130  177.3950  141.8210 C   0  0  0  0  0  2  0  0  0  0  0  0
  189.8880  176.7820  140.6270 C   0  0  2  0  0  3  0  0  0  0  0  0
  190.8030  176.0710  139.8520 O   0  0  0  0  0  1  0  0  0  0  0  0
  187.6520  178.0240  138.1800 C   0  0  0  0  0  2  0  0  0  0  0  0
  189.1850  177.8220  139.7510 C   0  0  1  0  0  3  0  0  0  0  0  0
  188.9890  178.4520  137.6450 C   0  0  2  0  0  0  0  0  0  0  0  0
  189.9390  178.0970  138.6000 O   0  0  0  0  0  0  0  0  0  0  0  0
  187.8880  177.4100  139.4070 O   0  0  0  0  0  0  0  0  0  0  0  0
  189.0050  179.8320  137.4490 O   0  0  0  0  0  1  0  0  0  0  0  0
  189.2820  177.7440  136.3380 C   0  0  0  0  0  1  0  0  0  0  0  0
  1  2  1  0  0  0  0
  2  5  2  0  0  0  0
  3  1  1  0  0  0  0
  4  7  2  0  0  0  0
  6  4  1  0  0  0  0
  6  1  2  0  0  0  0
  7  5  1  0  0  0  0
  8 11  2  0  0  0  0
 10  8  1  0  0  0  0
 11 15  1  0  0  0  0
 12  9  2  0  0  0  0
 12 13  1  0  0  0  0
 13 16  1  0  0  0  0
 14 18  1  0  0  0  0
 16 10  2  0  0  0  0
 16 14  1  0  0  0  0
 17 12  1  0  0  0  0
 18 11  1  0  0  0  0
 18  4  1  1  0  0  0
 19  6  1  0  0  0  0
 20 19  1  0  0  0  0
 21 20  1  0  0  0  0
 22 23  1  6  0  0  0
 22 21  1  0  0  0  0
 24 28  1  0  0  0  0
 25 22  1  6  0  0  0
 26 30  1  6  0  0  0
 26 24  1  0  0  0  0
 26 27  1  0  0  0  0
 27 25  1  0  0  0  0
 28 25  1  0  0  0  0
 29 26  1  0  0  0  0
M  END
>  <MODEL>
4

>  <REMARK>
 VINA RESULT:      -9.7      1.607      2.373
  Name = 
  6 active torsions:
  status: ('A' for Active; 'I' for Inactive)
    1  A    between atoms: C_1  and  C_4
    2  A    between atoms: C_1  and  C_5
    3  A    between atoms: C_4  and  C_27
    4  A    between atoms: C_5  and  C_22
    5  A    between atoms: C_8  and  C_27
    6  A    between atoms: C_19  and  C_29
                            x       y       z     vdW  Elec       q    Type
                         _______ _______ _______ _____ _____    ______ ____

>  <TORSDO>
F 6

$$$$
=
 OpenBabel11052412243D

 30 32  0  0  1  0  0  0  0  0999 V2000
  187.7890  177.7820  146.4390 C   0  0  0  0  0  0  0  0  0  0  0  0
  187.1870  178.6510  147.3530 C   0  0  0  0  0  3  0  0  0  0  0  0
  188.9880  177.1660  146.7800 O   0  0  0  0  0  1  0  0  0  0  0  0
  185.9680  178.1860  144.8680 C   0  0  0  0  0  0  0  0  0  0  0  0
  185.9850  179.2830  147.0330 C   0  0  0  0  0  3  0  0  0  0  0  0
  187.1860  177.5380  145.1910 C   0  0  0  0  0  0  0  0  0  0  0  0
  185.3820  179.0530  145.7970 C   0  0  0  0  0  3  0  0  0  0  0  0
  183.3620  178.9990  142.3410 C   0  0  0  0  0  3  0  0  0  0  0  0
  184.3190  178.9350  138.4010 O   0  0  0  0  0  0  0  0  0  0  0  0
  184.1210  178.9080  141.1280 N   0  0  0  0  0  0  0  0  0  0  0  0
  183.8840  178.6280  143.5100 C   0  0  0  0  0  0  0  0  0  0  0  0
  185.5470  178.7110  138.5620 C   0  0  0  0  0  0  0  0  0  0  0  0
  186.1050  178.5320  139.8690 N   0  0  0  0  0  2  0  0  0  0  0  0
  186.1540  178.4460  142.3870 C   0  0  0  0  0  2  0  0  0  0  0  0
  183.0130  178.6560  144.7190 C   0  0  0  0  0  1  0  0  0  0  0  0
  185.3860  178.6030  141.1060 C   0  0  0  0  0  0  0  0  0  0  0  0
  186.4360  178.6280  137.3740 C   0  0  0  0  0  1  0  0  0  0  0  0
  185.2600  178.0010  143.5500 C   0  0  1  0  0  3  0  0  0  0  0  0
  187.8370  176.5950  144.2250 C   0  0  0  0  0  2  0  0  0  0  0  0
  189.0380  177.2500  143.5710 C   0  0  0  0  0  2  0  0  0  0  0  0
  189.1590  176.7580  142.1420 C   0  0  0  0  0  2  0  0  0  0  0  0
  190.6190  176.6600  141.7120 C   0  0  2  0  0  3  0  0  0  0  0  0
  191.4010  177.4350  142.5680 O   0  0  0  0  0  1  0  0  0  0  0  0
  189.7970  177.8570  138.4840 C   0  0  0  0  0  2  0  0  0  0  0  0
  190.8540  177.1080  140.2680 C   0  0  1  0  0  3  0  0  0  0  0  0
  190.4120  176.5190  138.1880 C   0  0  2  0  0  0  0  0  0  0  0  0
  190.8690  176.0060  139.4000 O   0  0  0  0  0  0  0  0  0  0  0  0
  189.8940  178.0480  139.8600 O   0  0  0  0  0  0  0  0  0  0  0  0
  191.4790  176.6700  137.3030 O   0  0  0  0  0  1  0  0  0  0  0  0
  189.3780  175.5870  137.5900 C   0  0  0  0  0  1  0  0  0  0  0  0
  1  3  1  0  0  0  0
  1  2  1  0  0  0  0
  4  6  1  0  0  0  0
  4  7  2  0  0  0  0
  5  2  2  0  0  0  0
  6  1  2  0  0  0  0
  7  5  1  0  0  0  0
  8 11  2  0  0  0  0
  9 12  2  0  0  0  0
 10  8  1  0  0  0  0
 11 18  1  0  0  0  0
 11 15  1  0  0  0  0
 12 13  1  0  0  0  0
 13 16  1  0  0  0  0
 14 18  1  0  0  0  0
 16 10  2  0  0  0  0
 16 14  1  0  0  0  0
 17 12  1  0  0  0  0
 18  4  1  1  0  0  0
 19  6  1  0  0  0  0
 20 19  1  0  0  0  0
 21 20  1  0  0  0  0
 22 21  1  0  0  0  0
 22 23  1  1  0  0  0
 24 28  1  0  0  0  0
 25 22  1  1  0  0  0
 26 30  1  6  0  0  0
 26 24  1  0  0  0  0
 26 27  1  0  0  0  0
 27 25  1  0  0  0  0
 28 25  1  0  0  0  0
 29 26  1  0  0  0  0
M  END
>  <MODEL>
5

>  <REMARK>
 VINA RESULT:      -9.6      2.285      3.918
  Name = 
  6 active torsions:
  status: ('A' for Active; 'I' for Inactive)
    1  A    between atoms: C_1  and  C_4
    2  A    between atoms: C_1  and  C_5
    3  A    between atoms: C_4  and  C_27
    4  A    between atoms: C_5  and  C_22
    5  A    between atoms: C_8  and  C_27
    6  A    between atoms: C_19  and  C_29
                            x       y       z     vdW  Elec       q    Type
                         _______ _______ _______ _____ _____    ______ ____

>  <TORSDO>
F 6

$$$$
=
 OpenBabel11052412243D

 30 32  0  0  1  0  0  0  0  0999 V2000
  188.5690  177.1050  146.9680 C   0  0  0  0  0  0  0  0  0  0  0  0
  189.6220  176.4460  147.6060 C   0  0  0  0  0  3  0  0  0  0  0  0
  187.3870  177.3260  147.6640 O   0  0  0  0  0  1  0  0  0  0  0  0
  189.9230  177.2920  144.9470 C   0  0  0  0  0  0  0  0  0  0  0  0
  190.8180  176.2090  146.9270 C   0  0  0  0  0  3  0  0  0  0  0  0
  188.7090  177.5380  145.6350 C   0  0  0  0  0  0  0  0  0  0  0  0
  190.9650  176.6290  145.6050 C   0  0  0  0  0  3  0  0  0  0  0  0
  192.0510  178.3710  142.0940 C   0  0  0  0  0  3  0  0  0  0  0  0
  191.3160  176.8930  138.3890 O   0  0  0  0  0  0  0  0  0  0  0  0
  191.4920  177.5920  141.0270 N   0  0  0  0  0  0  0  0  0  0  0  0
  191.4770  178.4060  143.2960 C   0  0  0  0  0  0  0  0  0  0  0  0
  190.4110  176.0910  138.7400 C   0  0  0  0  0  0  0  0  0  0  0  0
  189.9740  176.0120  140.1000 N   0  0  0  0  0  2  0  0  0  0  0  0
  189.9490  176.5120  142.5710 C   0  0  0  0  0  2  0  0  0  0  0  0
  192.0530  179.3080  144.3340 C   0  0  0  0  0  1  0  0  0  0  0  0
  190.4940  176.7740  141.1960 C   0  0  0  0  0  0  0  0  0  0  0  0
  189.7820  175.2120  137.7200 C   0  0  0  0  0  1  0  0  0  0  0  0
  190.1560  177.7020  143.5150 C   0  0  1  0  0  3  0  0  0  0  0  0
  187.5760  178.2550  144.9670 C   0  0  0  0  0  2  0  0  0  0  0  0
  186.7600  177.2920  144.1250 C   0  0  0  0  0  2  0  0  0  0  0  0
  186.4380  177.9420  142.7930 C   0  0  0  0  0  2  0  0  0  0  0  0
  185.2480  178.8890  142.9130 C   0  0  2  0  0  3  0  0  0  0  0  0
  184.4290  178.4640  143.9580 O   0  0  0  0  0  1  0  0  0  0  0  0
  183.7000  177.7780  139.9300 C   0  0  0  0  0  2  0  0  0  0  0  0
  184.4220  178.9840  141.6290 C   0  0  1  0  0  3  0  0  0  0  0  0
  184.6260  178.8520  139.4350 C   0  0  2  0  0  0  0  0  0  0  0  0
  185.2130  179.4300  140.5590 O   0  0  0  0  0  0  0  0  0  0  0  0
  183.8140  177.7570  141.3170 O   0  0  0  0  0  0  0  0  0  0  0  0
  183.9060  179.8140  138.7270 O   0  0  0  0  0  1  0  0  0  0  0  0
  185.6960  178.2540  138.5450 C   0  0  0  0  0  1  0  0  0  0  0  0
  1  2  1  0  0  0  0
  1  3  1  0  0  0  0
  4  7  2  0  0  0  0
  4  6  1  0  0  0  0
  5  2  2  0  0  0  0
  6  1  2  0  0  0  0
  7  5  1  0  0  0  0
  8 11  2  0  0  0  0
  9 12  2  0  0  0  0
 10 16  2  0  0  0  0
 10  8  1  0  0  0  0
 11 18  1  0  0  0  0
 11 15  1  0  0  0  0
 12 13  1  0  0  0  0
 13 16  1  0  0  0  0
 14 18  1  0  0  0  0
 16 14  1  0  0  0  0
 17 12  1  0  0  0  0
 18  4  1  1  0  0  0
 19  6  1  0  0  0  0
 20 19  1  0  0  0  0
 21 22  1  0  0  0  0
 21 20  1  0  0  0  0
 22 23  1  1  0  0  0
 24 28  1  0  0  0  0
 25 22  1  1  0  0  0
 26 30  1  6  0  0  0
 26 24  1  0  0  0  0
 26 27  1  0  0  0  0
 27 25  1  0  0  0  0
 28 25  1  0  0  0  0
 29 26  1  0  0  0  0
M  END
>  <MODEL>
6

>  <REMARK>
 VINA RESULT:      -9.4      2.896      5.371
  Name = 
  6 active torsions:
  status: ('A' for Active; 'I' for Inactive)
    1  A    between atoms: C_1  and  C_4
    2  A    between atoms: C_1  and  C_5
    3  A    between atoms: C_4  and  C_27
    4  A    between atoms: C_5  and  C_22
    5  A    between atoms: C_8  and  C_27
    6  A    between atoms: C_19  and  C_29
                            x       y       z     vdW  Elec       q    Type
                         _______ _______ _______ _____ _____    ______ ____

>  <TORSDO>
F 6

$$$$
=
 OpenBabel11052412243D

 30 32  0  0  1  0  0  0  0  0999 V2000
  186.6360  177.9560  146.8670 C   0  0  0  0  0  0  0  0  0  0  0  0
  187.3270  178.1720  148.0610 C   0  0  0  0  0  3  0  0  0  0  0  0
  185.2470  177.8930  146.8890 O   0  0  0  0  0  1  0  0  0  0  0  0
  188.7580  177.8650  145.6670 C   0  0  0  0  0  0  0  0  0  0  0  0
  188.7200  178.2360  148.0660 C   0  0  0  0  0  3  0  0  0  0  0  0
  187.3420  177.8040  145.6590 C   0  0  0  0  0  0  0  0  0  0  0  0
  189.4300  178.0820  146.8750 C   0  0  0  0  0  3  0  0  0  0  0  0
  191.1210  176.0150  143.4700 C   0  0  0  0  0  3  0  0  0  0  0  0
  190.5940  176.1090  139.4500 O   0  0  0  0  0  0  0  0  0  0  0  0
  190.5510  176.2700  142.1790 N   0  0  0  0  0  0  0  0  0  0  0  0
  190.6630  176.6300  144.5610 C   0  0  0  0  0  0  0  0  0  0  0  0
  189.5140  176.7550  139.4700 C   0  0  0  0  0  0  0  0  0  0  0  0
  188.9430  177.2130  140.7000 N   0  0  0  0  0  2  0  0  0  0  0  0
  188.7090  177.4990  143.1930 C   0  0  0  0  0  2  0  0  0  0  0  0
  191.3610  176.3940  145.8570 C   0  0  0  0  0  1  0  0  0  0  0  0
  189.4800  176.9910  142.0100 C   0  0  0  0  0  0  0  0  0  0  0  0
  188.8180  177.0490  138.1900 C   0  0  0  0  0  1  0  0  0  0  0  0
  189.5970  177.6950  144.4270 C   0  0  1  0  0  3  0  0  0  0  0  0
  186.5880  177.5850  144.3820 C   0  0  0  0  0  2  0  0  0  0  0  0
  185.5570  178.6790  144.1800 C   0  0  0  0  0  2  0  0  0  0  0  0
  184.7150  178.3530  142.9620 C   0  0  0  0  0  2  0  0  0  0  0  0
  185.5120  178.5360  141.6740 C   0  0  2  0  0  3  0  0  0  0  0  0
  186.1880  179.7540  141.7240 O   0  0  0  0  0  1  0  0  0  0  0  0
  183.3180  179.7390  139.1700 C   0  0  0  0  0  2  0  0  0  0  0  0
  184.6420  178.4920  140.4160 C   0  0  1  0  0  3  0  0  0  0  0  0
  182.5340  178.6090  139.7730 C   0  0  2  0  0  0  0  0  0  0  0  0
  183.3630  177.9960  140.7100 O   0  0  0  0  0  0  0  0  0  0  0  0
  184.5560  179.7550  139.8070 O   0  0  0  0  0  0  0  0  0  0  0  0
  182.1780  177.6940  138.7830 O   0  0  0  0  0  1  0  0  0  0  0  0
  181.2890  179.1390  140.4540 C   0  0  0  0  0  1  0  0  0  0  0  0
  1  3  1  0  0  0  0
  1  2  1  0  0  0  0
  2  5  2  0  0  0  0
  4  7  2  0  0  0  0
  6  4  1  0  0  0  0
  6  1  2  0  0  0  0
  7  5  1  0  0  0  0
  8 11  2  0  0  0  0
  9 12  2  0  0  0  0
 10  8  1  0  0  0  0
 11 15  1  0  0  0  0
 12 13  1  0  0  0  0
 13 16  1  0  0  0  0
 14 18  1  0  0  0  0
 16 10  2  0  0  0  0
 16 14  1  0  0  0  0
 17 12  1  0  0  0  0
 18 11  1  0  0  0  0
 18  4  1  1  0  0  0
 19  6  1  0  0  0  0
 20 19  1  0  0  0  0
 21 20  1  0  0  0  0
 22 23  1  1  0  0  0
 22 21  1  0  0  0  0
 24 26  1  0  0  0  0
 24 28  1  0  0  0  0
 25 27  1  0  0  0  0
 25 22  1  1  0  0  0
 26 30  1  1  0  0  0
 26 27  1  0  0  0  0
 28 25  1  0  0  0  0
 29 26  1  0  0  0  0
M  END
>  <MODEL>
7

>  <REMARK>
 VINA RESULT:      -9.3      2.481      5.264
  Name = 
  6 active torsions:
  status: ('A' for Active; 'I' for Inactive)
    1  A    between atoms: C_1  and  C_4
    2  A    between atoms: C_1  and  C_5
    3  A    between atoms: C_4  and  C_27
    4  A    between atoms: C_5  and  C_22
    5  A    between atoms: C_8  and  C_27
    6  A    between atoms: C_19  and  C_29
                            x       y       z     vdW  Elec       q    Type
                         _______ _______ _______ _____ _____    ______ ____

>  <TORSDO>
F 6

$$$$
=
 OpenBabel11052412243D

 30 32  0  0  1  0  0  0  0  0999 V2000
  186.0730  177.9860  145.8960 C   0  0  0  0  0  0  0  0  0  0  0  0
  185.0220  178.7790  146.3640 C   0  0  0  0  0  3  0  0  0  0  0  0
  186.9920  177.4760  146.8050 O   0  0  0  0  0  1  0  0  0  0  0  0
  185.2460  178.2510  143.6170 C   0  0  0  0  0  0  0  0  0  0  0  0
  184.0880  179.3060  145.4710 C   0  0  0  0  0  3  0  0  0  0  0  0
  186.1930  177.7110  144.5210 C   0  0  0  0  0  0  0  0  0  0  0  0
  184.2020  179.0440  144.1060 C   0  0  0  0  0  3  0  0  0  0  0  0
  184.2600  178.9470  140.0980 C   0  0  0  0  0  3  0  0  0  0  0  0
  187.0800  178.8630  137.1850 O   0  0  0  0  0  0  0  0  0  0  0  0
  185.5300  178.8650  139.4380 N   0  0  0  0  0  0  0  0  0  0  0  0
  184.1260  178.6090  141.3810 C   0  0  0  0  0  0  0  0  0  0  0  0
  188.0620  178.6800  137.9510 C   0  0  0  0  0  0  0  0  0  0  0  0
  187.8850  178.5360  139.3640 N   0  0  0  0  0  2  0  0  0  0  0  0
  186.6550  178.4850  141.5640 C   0  0  0  0  0  2  0  0  0  0  0  0
  182.7620  178.6240  141.9820 C   0  0  0  0  0  1  0  0  0  0  0  0
  186.6380  178.6000  140.0670 C   0  0  0  0  0  0  0  0  0  0  0  0
  189.4310  178.6100  137.3770 C   0  0  0  0  0  1  0  0  0  0  0  0
  185.3060  178.0260  142.1280 C   0  0  1  0  0  3  0  0  0  0  0  0
  187.3180  176.8480  144.0340 C   0  0  0  0  0  2  0  0  0  0  0  0
  188.6440  177.5700  144.1820 C   0  0  0  0  0  2  0  0  0  0  0  0
  189.6870  176.8810  143.3240 C   0  0  0  0  0  2  0  0  0  0  0  0
  191.0670  177.4970  143.5300 C   0  0  2  0  0  3  0  0  0  0  0  0
  191.8960  177.1270  142.4730 O   0  0  0  0  0  1  0  0  0  0  0  0
  191.8720  175.4020  146.2680 C   0  0  0  0  0  2  0  0  0  0  0  0
  191.7190  177.0850  144.8520 C   0  0  1  0  0  3  0  0  0  0  0  0
  191.2110  176.5730  146.9380 C   0  0  2  0  0  0  0  0  0  0  0  0
  190.9470  177.5120  145.9440 O   0  0  0  0  0  0  0  0  0  0  0  0
  191.9330  175.6980  144.9090 O   0  0  0  0  0  0  0  0  0  0  0  0
  192.0660  177.1200  147.8940 O   0  0  0  0  0  1  0  0  0  0  0  0
  189.9170  176.1400  147.5950 C   0  0  0  0  0  1  0  0  0  0  0  0
  1  2  1  0  0  0  0
  1  3  1  0  0  0  0
  4  7  2  0  0  0  0
  4  6  1  0  0  0  0
  5  2  2  0  0  0  0
  6  1  2  0  0  0  0
  7  5  1  0  0  0  0
  8 11  2  0  0  0  0
  9 12  2  0  0  0  0
 10 16  2  0  0  0  0
 10  8  1  0  0  0  0
 11 15  1  0  0  0  0
 11 18  1  0  0  0  0
 12 13  1  0  0  0  0
 13 16  1  0  0  0  0
 14 18  1  0  0  0  0
 16 14  1  0  0  0  0
 17 12  1  0  0  0  0
 18  4  1  1  0  0  0
 19 20  1  0  0  0  0
 19  6  1  0  0  0  0
 21 22  1  0  0  0  0
 21 20  1  0  0  0  0
 22 23  1  6  0  0  0
 24 26  1  0  0  0  0
 25 22  1  6  0  0  0
 25 28  1  0  0  0  0
 25 27  1  0  0  0  0
 26 30  1  1  0  0  0
 26 29  1  0  0  0  0
 27 26  1  0  0  0  0
 28 24  1  0  0  0  0
M  END
>  <MODEL>
8

>  <REMARK>
 VINA RESULT:      -9.3      2.317      6.821
  Name = 
  6 active torsions:
  status: ('A' for Active; 'I' for Inactive)
    1  A    between atoms: C_1  and  C_4
    2  A    between atoms: C_1  and  C_5
    3  A    between atoms: C_4  and  C_27
    4  A    between atoms: C_5  and  C_22
    5  A    between atoms: C_8  and  C_27
    6  A    between atoms: C_19  and  C_29
                            x       y       z     vdW  Elec       q    Type
                         _______ _______ _______ _____ _____    ______ ____

>  <TORSDO>
F 6

$$$$
=
 OpenBabel11052412243D

 30 32  0  0  1  0  0  0  0  0999 V2000
  185.4840  178.4760  140.0140 C   0  0  0  0  0  0  0  0  0  0  0  0
  184.1160  178.1930  139.9780 C   0  0  0  0  0  3  0  0  0  0  0  0
  186.1880  178.5700  138.8200 O   0  0  0  0  0  1  0  0  0  0  0  0
  185.3940  178.5500  142.4510 C   0  0  0  0  0  0  0  0  0  0  0  0
  183.3880  178.0900  141.1630 C   0  0  0  0  0  3  0  0  0  0  0  0
  186.1360  178.6600  141.2480 C   0  0  0  0  0  0  0  0  0  0  0  0
  184.0250  178.2660  142.3910 C   0  0  0  0  0  3  0  0  0  0  0  0
  185.3710  178.3360  146.1640 C   0  0  0  0  0  3  0  0  0  0  0  0
  188.7200  177.1350  148.1110 O   0  0  0  0  0  0  0  0  0  0  0  0
  186.6930  177.8390  146.4170 N   0  0  0  0  0  0  0  0  0  0  0  0
  184.9970  178.7090  144.9410 C   0  0  0  0  0  0  0  0  0  0  0  0
  189.3900  176.8690  147.0790 C   0  0  0  0  0  0  0  0  0  0  0  0
  188.8550  177.0880  145.7690 N   0  0  0  0  0  2  0  0  0  0  0  0
  187.1390  177.6980  144.0270 C   0  0  0  0  0  2  0  0  0  0  0  0
  183.6430  179.3050  144.7610 C   0  0  0  0  0  1  0  0  0  0  0  0
  187.5480  177.5900  145.4680 C   0  0  0  0  0  0  0  0  0  0  0  0
  190.7630  176.3190  147.2230 C   0  0  0  0  0  1  0  0  0  0  0  0
  186.0100  178.7130  143.8170 C   0  0  1  0  0  3  0  0  0  0  0  0
  187.6010  178.9750  141.2730 C   0  0  0  0  0  2  0  0  0  0  0  0
  188.4170  177.7240  141.0130 C   0  0  0  0  0  2  0  0  0  0  0  0
  189.4640  178.0200  139.9570 C   0  0  0  0  0  2  0  0  0  0  0  0
  190.5970  177.0000  140.0000 C   0  0  2  0  0  3  0  0  0  0  0  0
  191.7040  177.5700  140.6270 O   0  0  0  0  0  1  0  0  0  0  0  0
  191.6780  174.6840  137.5500 C   0  0  0  0  0  2  0  0  0  0  0  0
  191.0060  176.4940  138.6150 C   0  0  1  0  0  3  0  0  0  0  0  0
  192.7550  175.7310  137.5060 C   0  0  2  0  0  0  0  0  0  0  0  0
  192.3640  176.7510  138.3700 O   0  0  0  0  0  0  0  0  0  0  0  0
  190.7250  175.1260  138.4640 O   0  0  0  0  0  0  0  0  0  0  0  0
  192.8820  176.2290  136.2100 O   0  0  0  0  0  1  0  0  0  0  0  0
  194.0750  175.1450  137.9630 C   0  0  0  0  0  1  0  0  0  0  0  0
  1  6  1  0  0  0  0
  2  1  2  0  0  0  0
  2  5  1  0  0  0  0
  3  1  1  0  0  0  0
  5  7  2  0  0  0  0
  6 19  1  0  0  0  0
  6  4  2  0  0  0  0
  7  4  1  0  0  0  0
  8 10  1  0  0  0  0
 11  8  2  0  0  0  0
 12 17  1  0  0  0  0
 12  9  2  0  0  0  0
 13 12  1  0  0  0  0
 14 16  1  0  0  0  0
 15 11  1  0  0  0  0
 16 13  1  0  0  0  0
 16 10  2  0  0  0  0
 18  4  1  6  0  0  0
 18 14  1  0  0  0  0
 18 11  1  0  0  0  0
 20 19  1  0  0  0  0
 21 22  1  0  0  0  0
 21 20  1  0  0  0  0
 22 23  1  6  0  0  0
 24 28  1  0  0  0  0
 25 22  1  1  0  0  0
 26 24  1  0  0  0  0
 26 30  1  1  0  0  0
 26 27  1  0  0  0  0
 27 25  1  0  0  0  0
 28 25  1  0  0  0  0
 29 26  1  0  0  0  0
M  END
>  <MODEL>
9

>  <REMARK>
 VINA RESULT:      -9.3      2.763      5.574
  Name = 
  6 active torsions:
  status: ('A' for Active; 'I' for Inactive)
    1  A    between atoms: C_1  and  C_4
    2  A    between atoms: C_1  and  C_5
    3  A    between atoms: C_4  and  C_27
    4  A    between atoms: C_5  and  C_22
    5  A    between atoms: C_8  and  C_27
    6  A    between atoms: C_19  and  C_29
                            x       y       z     vdW  Elec       q    Type
                         _______ _______ _______ _____ _____    ______ ____

>  <TORSDO>
F 6

$$$$
