=
 OpenBabel11052415573D

 34 39  0  0  1  0  0  0  0  0999 V2000
  190.7690  176.9150  137.5200 C   0  0  2  0  0  3  0  0  0  0  0  0
  192.1400  173.5580  136.4450 C   0  0  0  0  0  3  0  0  0  0  0  0
  189.8270  174.3050  137.0300 C   0  0  0  0  0  2  0  0  0  0  0  0
  188.2820  177.3280  138.7450 C   0  0  2  0  0  3  0  0  0  0  0  0
  189.9760  176.7800  139.1820 S   0  0  0  0  0  0  0  0  0  0  0  0
  188.6020  177.6990  136.2650 C   0  0  1  0  0  3  0  0  0  0  0  0
  187.4610  176.8480  135.7290 C   0  0  0  0  0  2  0  0  0  0  0  0
  188.2200  178.3380  137.6000 C   0  0  2  0  0  3  0  0  0  0  0  0
  189.0570  179.5810  137.8590 C   0  0  0  0  0  1  0  0  0  0  0  0
  189.3520  175.3450  136.0060 C   0  0  2  0  0  3  0  0  0  0  0  0
  189.8170  176.7730  136.3180 C   0  0  2  0  0  3  0  0  0  0  0  0
  187.8370  175.3970  135.9820 C   0  0  0  0  0  2  0  0  0  0  0  0
  193.4390  173.3090  136.6660 C   0  0  0  0  0  3  0  0  0  0  0  0
  194.1920  173.8510  137.8530 C   0  0  2  0  0  3  0  0  0  0  0  0
  194.2890  175.3760  137.8150 C   0  0  0  0  0  2  0  0  0  0  0  0
  191.3250  174.4180  137.3610 C   0  0  2  0  0  3  0  0  0  0  0  0
  193.0160  176.0420  138.3330 C   0  0  0  0  0  2  0  0  0  0  0  0
  191.8660  175.8630  137.3480 C   0  0  2  0  0  3  0  0  0  0  0  0
  185.5920  178.8950  140.9410 C   0  0  0  0  0  3  0  0  0  0  0  0
  187.9660  177.4270  141.2210 C   0  0  0  0  0  3  0  0  0  0  0  0
  185.7940  178.5920  144.6280 C   0  0  0  0  0  0  0  0  0  0  0  0
  185.3360  178.9420  143.3490 C   0  0  0  0  0  3  0  0  0  0  0  0
  186.0530  178.5540  142.2150 C   0  0  0  0  0  0  0  0  0  0  0  0
  187.7020  177.4620  143.6310 C   0  0  0  0  0  3  0  0  0  0  0  0
  187.2470  177.8110  142.3570 C   0  0  0  0  0  0  0  0  0  0  0  0
  186.9780  177.8500  144.7620 C   0  0  0  0  0  3  0  0  0  0  0  0
  187.5100  177.7780  139.9470 C   0  0  0  0  0  0  0  0  0  0  0  0
  186.3160  178.5050  139.8100 C   0  0  0  0  0  3  0  0  0  0  0  0
  185.0290  179.0010  145.8190 C   0  0  0  0  0  0  0  0  0  0  0  0
  183.7690  179.0200  145.7920 O   0  0  0  0  0  0  0  0  0  0  0  0
  185.6910  179.3700  146.9830 O   0  0  0  0  0  1  0  0  0  0  0  0
  195.5630  173.2650  137.8960 C   0  0  0  0  0  0  0  0  0  0  0  0
  195.7420  172.1330  138.4190 O   0  0  0  0  0  1  0  0  0  0  0  0
  196.6490  173.9700  137.3930 O   0  0  0  0  0  0  0  0  0  0  0  0
  1  5  1  1  0  0  0
  2 13  2  0  0  0  0
  2 16  1  0  0  0  0
  3 16  1  0  0  0  0
  4  5  1  0  0  0  0
  4 27  1  1  0  0  0
  6  7  1  1  0  0  0
  6 11  1  0  0  0  0
  6  8  1  0  0  0  0
  7 12  1  0  0  0  0
  8  9  1  1  0  0  0
  8  4  1  0  0  0  0
 10 12  1  1  0  0  0
 10 11  1  0  0  0  0
 10  3  1  0  0  0  0
 11  1  1  0  0  0  0
 13 14  1  0  0  0  0
 14 32  1  0  0  0  0
 15 14  1  0  0  0  0
 15 17  1  0  0  0  0
 18 16  1  0  0  0  0
 18  1  1  0  0  0  0
 18 17  1  0  0  0  0
 19 23  1  0  0  0  0
 20 25  1  0  0  0  0
 21 26  1  0  0  0  0
 21 29  1  0  0  0  0
 22 21  2  0  0  0  0
 23 25  2  0  0  0  0
 23 22  1  0  0  0  0
 24 26  2  0  0  0  0
 25 24  1  0  0  0  0
 27 20  2  0  0  0  0
 28 27  1  0  0  0  0
 28 19  2  0  0  0  0
 29 31  1  0  0  0  0
 30 29  2  0  0  0  0
 32 33  1  0  0  0  0
 34 32  2  0  0  0  0
M  END
>  <MODEL>
1

>  <REMARK>
 VINA RESULT:      -8.7      0.000      0.000
  Name = 
  3 active torsions:
  status: ('A' for Active; 'I' for Inactive)
    1  A    between atoms: C_3  and  C_25
    2  A    between atoms: C_7  and  C_11
    3  A    between atoms: C_8  and  C_30
                            x       y       z     vdW  Elec       q    Type
                         _______ _______ _______ _____ _____    ______ ____

>  <TORSDO>
F 3

$$$$
=
 OpenBabel11052415573D

 34 39  0  0  1  0  0  0  0  0999 V2000
  182.3400  177.2580  138.3730 C   0  0  2  0  0  3  0  0  0  0  0  0
  179.0100  175.8250  137.2970 C   0  0  0  0  0  3  0  0  0  0  0  0
  179.6250  177.4400  139.1030 C   0  0  0  0  0  2  0  0  0  0  0  0
  182.8380  178.5230  140.8250 C   0  0  2  0  0  3  0  0  0  0  0  0
  182.6800  176.8310  140.1370 S   0  0  0  0  0  0  0  0  0  0  0  0
  182.3840  179.8580  138.7260 C   0  0  1  0  0  3  0  0  0  0  0  0
  181.2710  180.7610  139.2330 C   0  0  0  0  0  2  0  0  0  0  0  0
  183.3860  179.5560  139.8410 C   0  0  2  0  0  3  0  0  0  0  0  0
  184.7350  179.1650  139.2580 C   0  0  0  0  0  1  0  0  0  0  0  0
  180.1910  178.7200  138.4730 C   0  0  2  0  0  3  0  0  0  0  0  0
  181.6860  178.6320  138.1380 C   0  0  2  0  0  3  0  0  0  0  0  0
  180.0470  179.8820  139.4360 C   0  0  0  0  0  2  0  0  0  0  0  0
  179.0100  174.6480  136.6540 C   0  0  0  0  0  3  0  0  0  0  0  0
  180.0080  173.5550  136.9360 C   0  0  2  0  0  3  0  0  0  0  0  0
  181.4310  173.9790  136.5670 C   0  0  0  0  0  2  0  0  0  0  0  0
  180.0230  176.1620  138.3460 C   0  0  2  0  0  3  0  0  0  0  0  0
  182.0720  174.8310  137.6600 C   0  0  0  0  0  2  0  0  0  0  0  0
  181.4330  176.2130  137.7210 C   0  0  2  0  0  3  0  0  0  0  0  0
  183.6460  178.9810  144.5190 C   0  0  0  0  0  3  0  0  0  0  0  0
  184.8720  178.0200  142.1860 C   0  0  0  0  0  3  0  0  0  0  0  0
  186.9490  177.9430  145.8410 C   0  0  0  0  0  0  0  0  0  0  0  0
  185.6440  178.4540  145.7850 C   0  0  0  0  0  3  0  0  0  0  0  0
  184.9490  178.4790  144.5730 C   0  0  0  0  0  0  0  0  0  0  0  0
  186.8650  177.4810  143.4550 C   0  0  0  0  0  3  0  0  0  0  0  0
  185.5660  177.9910  143.3990 C   0  0  0  0  0  0  0  0  0  0  0  0
  187.5540  177.4560  144.6710 C   0  0  0  0  0  3  0  0  0  0  0  0
  183.5720  178.5330  142.1300 C   0  0  0  0  0  0  0  0  0  0  0  0
  182.9580  179.0030  143.3030 C   0  0  0  0  0  3  0  0  0  0  0  0
  187.6720  177.9170  147.1240 C   0  0  0  0  0  0  0  0  0  0  0  0
  187.2910  178.6370  148.0860 O   0  0  0  0  0  1  0  0  0  0  0  0
  188.7820  177.0970  147.2850 O   0  0  0  0  0  0  0  0  0  0  0  0
  179.6420  172.3240  136.1770 C   0  0  0  0  0  0  0  0  0  0  0  0
  179.5350  172.3730  134.9230 O   0  0  0  0  0  0  0  0  0  0  0  0
  179.3880  171.1320  136.8440 O   0  0  0  0  0  1  0  0  0  0  0  0
  1  5  1  1  0  0  0
  2 16  1  0  0  0  0
  4 27  1  1  0  0  0
  5  4  1  0  0  0  0
  6  7  1  1  0  0  0
  6  8  1  0  0  0  0
  7 12  1  0  0  0  0
  8  9  1  6  0  0  0
  8  4  1  0  0  0  0
 10  3  1  1  0  0  0
 10 12  1  0  0  0  0
 11  1  1  0  0  0  0
 11 10  1  0  0  0  0
 11  6  1  0  0  0  0
 13 14  1  0  0  0  0
 13  2  2  0  0  0  0
 15 14  1  0  0  0  0
 15 17  1  0  0  0  0
 16  3  1  0  0  0  0
 17 18  1  0  0  0  0
 18 16  1  0  0  0  0
 18  1  1  0  0  0  0
 19 23  1  0  0  0  0
 20 25  1  0  0  0  0
 21 29  1  0  0  0  0
 22 21  1  0  0  0  0
 23 22  2  0  0  0  0
 24 26  1  0  0  0  0
 25 24  2  0  0  0  0
 25 23  1  0  0  0  0
 26 21  2  0  0  0  0
 27 20  2  0  0  0  0
 27 28  1  0  0  0  0
 28 19  2  0  0  0  0
 29 31  2  0  0  0  0
 29 30  1  0  0  0  0
 32 34  1  0  0  0  0
 32 14  1  0  0  0  0
 33 32  2  0  0  0  0
M  END
>  <MODEL>
2

>  <REMARK>
 VINA RESULT:      -8.5      6.556      9.089
  Name = 
  3 active torsions:
  status: ('A' for Active; 'I' for Inactive)
    1  A    between atoms: C_3  and  C_25
    2  A    between atoms: C_7  and  C_11
    3  A    between atoms: C_8  and  C_30
                            x       y       z     vdW  Elec       q    Type
                         _______ _______ _______ _____ _____    ______ ____

>  <TORSDO>
F 3

$$$$
=
 OpenBabel11052415573D

 34 39  0  0  1  0  0  0  0  0999 V2000
  190.8860  176.8130  137.4380 C   0  0  2  0  0  3  0  0  0  0  0  0
  192.1730  173.7270  135.6710 C   0  0  0  0  0  3  0  0  0  0  0  0
  190.2180  174.0870  137.1870 C   0  0  0  0  0  2  0  0  0  0  0  0
  189.0830  176.8120  139.5850 C   0  0  2  0  0  3  0  0  0  0  0  0
  190.8680  176.5440  139.2650 S   0  0  0  0  0  0  0  0  0  0  0  0
  188.3060  177.2410  137.2180 C   0  0  1  0  0  3  0  0  0  0  0  0
  187.1830  176.2180  137.1280 C   0  0  0  0  0  2  0  0  0  0  0  0
  188.4130  177.8030  138.6350 C   0  0  2  0  0  3  0  0  0  0  0  0
  189.0910  179.1650  138.6220 C   0  0  0  0  0  1  0  0  0  0  0  0
  189.2200  175.0410  136.5160 C   0  0  2  0  0  3  0  0  0  0  0  0
  189.5580  176.5240  136.7130 C   0  0  2  0  0  3  0  0  0  0  0  0
  187.8370  174.8460  137.1060 C   0  0  0  0  0  2  0  0  0  0  0  0
  193.4710  173.6910  135.3330 C   0  0  0  0  0  3  0  0  0  0  0  0
  194.5540  174.3430  136.1530 C   0  0  2  0  0  3  0  0  0  0  0  0
  194.4030  175.8640  136.1850 C   0  0  0  0  0  2  0  0  0  0  0  0
  191.6860  174.4400  136.8940 C   0  0  2  0  0  3  0  0  0  0  0  0
  193.3700  176.3120  137.2160 C   0  0  0  0  0  2  0  0  0  0  0  0
  191.9580  175.9530  136.7670 C   0  0  2  0  0  3  0  0  0  0  0  0
  187.3410  177.9550  142.7740 C   0  0  0  0  0  3  0  0  0  0  0  0
  189.7750  176.8070  141.9860 C   0  0  0  0  0  3  0  0  0  0  0  0
  189.0340  177.5890  146.0500 C   0  0  0  0  0  0  0  0  0  0  0  0
  188.0660  177.9060  145.0850 C   0  0  0  0  0  3  0  0  0  0  0  0
  188.3080  177.6450  143.7340 C   0  0  0  0  0  0  0  0  0  0  0  0
  190.4960  176.7460  144.2990 C   0  0  0  0  0  3  0  0  0  0  0  0
  189.5330  177.0640  143.3380 C   0  0  0  0  0  0  0  0  0  0  0  0
  190.2470  177.0070  145.6500 C   0  0  0  0  0  3  0  0  0  0  0  0
  188.8120  177.1260  141.0240 C   0  0  0  0  0  0  0  0  0  0  0  0
  187.5900  177.6910  141.4240 C   0  0  0  0  0  3  0  0  0  0  0  0
  188.7690  177.8630  147.4720 C   0  0  0  0  0  0  0  0  0  0  0  0
  189.7120  177.8610  148.3090 O   0  0  0  0  0  1  0  0  0  0  0  0
  187.4750  178.1270  147.9050 O   0  0  0  0  0  0  0  0  0  0  0  0
  195.8930  173.9860  135.6000 C   0  0  0  0  0  0  0  0  0  0  0  0
  195.9930  173.0510  134.7620 O   0  0  0  0  0  0  0  0  0  0  0  0
  197.0340  174.6560  136.0250 O   0  0  0  0  0  1  0  0  0  0  0  0
  1  5  1  1  0  0  0
  2 16  1  0  0  0  0
  4 27  1  1  0  0  0
  5  4  1  0  0  0  0
  6  7  1  1  0  0  0
  6  8  1  0  0  0  0
  8  9  1  6  0  0  0
  8  4  1  0  0  0  0
 10 11  1  0  0  0  0
 10 12  1  1  0  0  0
 10  3  1  0  0  0  0
 11  6  1  0  0  0  0
 11  1  1  0  0  0  0
 12  7  1  0  0  0  0
 13  2  2  0  0  0  0
 13 14  1  0  0  0  0
 14 15  1  0  0  0  0
 15 17  1  0  0  0  0
 16  3  1  0  0  0  0
 18 16  1  0  0  0  0
 18 17  1  0  0  0  0
 18  1  1  0  0  0  0
 19 23  1  0  0  0  0
 20 25  1  0  0  0  0
 21 29  1  0  0  0  0
 22 21  2  0  0  0  0
 23 22  1  0  0  0  0
 24 26  2  0  0  0  0
 25 23  2  0  0  0  0
 25 24  1  0  0  0  0
 26 21  1  0  0  0  0
 27 28  1  0  0  0  0
 27 20  2  0  0  0  0
 28 19  2  0  0  0  0
 29 31  2  0  0  0  0
 29 30  1  0  0  0  0
 32 34  1  0  0  0  0
 32 14  1  0  0  0  0
 33 32  2  0  0  0  0
M  END
>  <MODEL>
3

>  <REMARK>
 VINA RESULT:      -8.5      1.791      2.374
  Name = 
  3 active torsions:
  status: ('A' for Active; 'I' for Inactive)
    1  A    between atoms: C_3  and  C_25
    2  A    between atoms: C_7  and  C_11
    3  A    between atoms: C_8  and  C_30
                            x       y       z     vdW  Elec       q    Type
                         _______ _______ _______ _____ _____    ______ ____

>  <TORSDO>
F 3

$$$$
=
 OpenBabel11052415573D

 34 39  0  0  1  0  0  0  0  0999 V2000
  190.9130  176.8150  137.4640 C   0  0  2  0  0  3  0  0  0  0  0  0
  192.2010  173.8100  135.5620 C   0  0  0  0  0  3  0  0  0  0  0  0
  190.2830  174.0880  137.1410 C   0  0  0  0  0  2  0  0  0  0  0  0
  189.1720  176.7140  139.6590 C   0  0  2  0  0  3  0  0  0  0  0  0
  190.9510  176.4870  139.2800 S   0  0  0  0  0  0  0  0  0  0  0  0
  188.3220  177.2060  137.3290 C   0  0  1  0  0  3  0  0  0  0  0  0
  187.2140  176.1680  137.2360 C   0  0  0  0  0  2  0  0  0  0  0  0
  188.4590  177.7240  138.7600 C   0  0  2  0  0  3  0  0  0  0  0  0
  189.1150  179.0960  138.7740 C   0  0  0  0  0  1  0  0  0  0  0  0
  189.2520  175.0460  136.5300 C   0  0  2  0  0  3  0  0  0  0  0  0
  189.5710  176.5270  136.7670 C   0  0  2  0  0  3  0  0  0  0  0  0
  187.8890  174.8090  137.1500 C   0  0  0  0  0  2  0  0  0  0  0  0
  193.4890  173.8080  135.1880 C   0  0  0  0  0  3  0  0  0  0  0  0
  194.5840  174.4500  135.9980 C   0  0  2  0  0  3  0  0  0  0  0  0
  194.4090  175.9670  136.0850 C   0  0  0  0  0  2  0  0  0  0  0  0
  191.7370  174.4740  136.8210 C   0  0  2  0  0  3  0  0  0  0  0  0
  193.3980  176.3630  137.1580 C   0  0  0  0  0  2  0  0  0  0  0  0
  191.9800  175.9960  136.7360 C   0  0  2  0  0  3  0  0  0  0  0  0
  189.7560  177.1830  143.3930 C   0  0  0  0  0  3  0  0  0  0  0  0
  187.6550  177.3420  141.5420 C   0  0  0  0  0  3  0  0  0  0  0  0
  186.9510  178.1750  145.6030 C   0  0  0  0  0  0  0  0  0  0  0  0
  188.2360  177.8110  145.1720 C   0  0  0  0  0  3  0  0  0  0  0  0
  188.4740  177.5370  143.8230 C   0  0  0  0  0  0  0  0  0  0  0  0
  186.1370  177.9840  143.3190 C   0  0  0  0  0  3  0  0  0  0  0  0
  187.4170  177.6210  142.8900 C   0  0  0  0  0  0  0  0  0  0  0  0
  185.9050  178.2610  144.6690 C   0  0  0  0  0  3  0  0  0  0  0  0
  188.9360  176.9770  141.1140 C   0  0  0  0  0  0  0  0  0  0  0  0
  189.9870  176.9080  142.0430 C   0  0  0  0  0  3  0  0  0  0  0  0
  186.7100  178.4670  147.0250 C   0  0  0  0  0  0  0  0  0  0  0  0
  187.3860  177.8900  147.9190 O   0  0  0  0  0  1  0  0  0  0  0  0
  185.7320  179.3830  147.3960 O   0  0  0  0  0  0  0  0  0  0  0  0
  195.9120  174.1350  135.3970 C   0  0  0  0  0  0  0  0  0  0  0  0
  196.1110  173.0030  134.8810 O   0  0  0  0  0  0  0  0  0  0  0  0
  196.9420  175.0670  135.4300 O   0  0  0  0  0  1  0  0  0  0  0  0
  1  5  1  1  0  0  0
  2 16  1  0  0  0  0
  4 27  1  1  0  0  0
  5  4  1  0  0  0  0
  6  7  1  1  0  0  0
  6  8  1  0  0  0  0
  8  9  1  6  0  0  0
  8  4  1  0  0  0  0
 10 11  1  0  0  0  0
 10  3  1  1  0  0  0
 10 12  1  0  0  0  0
 11  6  1  0  0  0  0
 11  1  1  0  0  0  0
 12  7  1  0  0  0  0
 13  2  2  0  0  0  0
 13 14  1  0  0  0  0
 14 15  1  0  0  0  0
 15 17  1  0  0  0  0
 16  3  1  0  0  0  0
 18 16  1  0  0  0  0
 18 17  1  0  0  0  0
 18  1  1  0  0  0  0
 19 23  1  0  0  0  0
 20 25  1  0  0  0  0
 21 29  1  0  0  0  0
 22 21  1  0  0  0  0
 23 22  2  0  0  0  0
 24 26  1  0  0  0  0
 25 24  2  0  0  0  0
 25 23  1  0  0  0  0
 26 21  2  0  0  0  0
 27 20  2  0  0  0  0
 27 28  1  0  0  0  0
 28 19  2  0  0  0  0
 29 31  2  0  0  0  0
 29 30  1  0  0  0  0
 32 34  1  0  0  0  0
 32 14  1  0  0  0  0
 33 32  2  0  0  0  0
M  END
>  <MODEL>
4

>  <REMARK>
 VINA RESULT:      -8.5      1.504      2.144
  Name = 
  3 active torsions:
  status: ('A' for Active; 'I' for Inactive)
    1  A    between atoms: C_3  and  C_25
    2  A    between atoms: C_7  and  C_11
    3  A    between atoms: C_8  and  C_30
                            x       y       z     vdW  Elec       q    Type
                         _______ _______ _______ _____ _____    ______ ____

>  <TORSDO>
F 3

$$$$
=
 OpenBabel11052415573D

 34 39  0  0  1  0  0  0  0  0999 V2000
  180.0740  179.9580  139.4460 C   0  0  2  0  0  3  0  0  0  0  0  0
  180.6390  180.6000  135.7610 C   0  0  0  0  0  3  0  0  0  0  0  0
  181.7110  179.0050  137.3600 C   0  0  0  0  0  2  0  0  0  0  0  0
  181.8450  178.5970  141.1390 C   0  0  2  0  0  3  0  0  0  0  0  0
  181.6290  180.2580  140.3930 S   0  0  0  0  0  0  0  0  0  0  0  0
  179.8420  177.4340  140.1250 C   0  0  1  0  0  3  0  0  0  0  0  0
  180.5320  176.2240  139.5120 C   0  0  0  0  0  2  0  0  0  0  0  0
  180.5380  177.8560  141.4180 C   0  0  2  0  0  3  0  0  0  0  0  0
  179.5870  178.6430  142.3070 C   0  0  0  0  0  1  0  0  0  0  0  0
  180.6670  177.9920  137.8490 C   0  0  2  0  0  3  0  0  0  0  0  0
  179.8240  178.4970  139.0270 C   0  0  2  0  0  3  0  0  0  0  0  0
  181.3530  176.7320  138.3380 C   0  0  0  0  0  2  0  0  0  0  0  0
  180.3000  181.8020  135.2730 C   0  0  0  0  0  3  0  0  0  0  0  0
  180.4060  183.0750  136.0710 C   0  0  2  0  0  3  0  0  0  0  0  0
  179.4530  183.0750  137.2680 C   0  0  0  0  0  2  0  0  0  0  0  0
  181.1400  180.4190  137.1600 C   0  0  2  0  0  3  0  0  0  0  0  0
  180.0270  182.2990  138.4510 C   0  0  0  0  0  2  0  0  0  0  0  0
  180.0370  180.8010  138.1690 C   0  0  2  0  0  3  0  0  0  0  0  0
  183.1170  178.9990  144.7070 C   0  0  0  0  0  3  0  0  0  0  0  0
  184.0850  178.2400  142.1860 C   0  0  0  0  0  3  0  0  0  0  0  0
  186.6500  178.2310  145.5180 C   0  0  0  0  0  0  0  0  0  0  0  0
  185.3100  178.6180  145.6630 C   0  0  0  0  0  3  0  0  0  0  0  0
  184.4540  178.6200  144.5590 C   0  0  0  0  0  0  0  0  0  0  0  0
  186.2760  177.8460  143.1460 C   0  0  0  0  0  3  0  0  0  0  0  0
  184.9410  178.2340  143.2910 C   0  0  0  0  0  0  0  0  0  0  0  0
  187.1270  177.8440  144.2550 C   0  0  0  0  0  3  0  0  0  0  0  0
  182.7500  178.6300  142.3320 C   0  0  0  0  0  0  0  0  0  0  0  0
  182.2670  178.9990  143.5980 C   0  0  0  0  0  3  0  0  0  0  0  0
  187.5450  178.2270  146.6880 C   0  0  0  0  0  0  0  0  0  0  0  0
  187.1160  178.5810  147.8190 O   0  0  0  0  0  1  0  0  0  0  0  0
  188.8710  177.8340  146.5540 O   0  0  0  0  0  0  0  0  0  0  0  0
  180.1090  184.2480  135.1980 C   0  0  0  0  0  0  0  0  0  0  0  0
  179.0060  184.3140  134.5950 O   0  0  0  0  0  0  0  0  0  0  0  0
  181.0520  185.2530  135.0200 O   0  0  0  0  0  1  0  0  0  0  0  0
  1  5  1  6  0  0  0
  2 16  1  0  0  0  0
  4  8  1  0  0  0  0
  4 27  1  1  0  0  0
  5  4  1  0  0  0  0
  6  7  1  6  0  0  0
  6  8  1  0  0  0  0
  8  9  1  6  0  0  0
 10  3  1  1  0  0  0
 10 12  1  0  0  0  0
 10 11  1  0  0  0  0
 11  1  1  0  0  0  0
 11  6  1  0  0  0  0
 12  7  1  0  0  0  0
 13  2  2  0  0  0  0
 13 14  1  0  0  0  0
 14 15  1  0  0  0  0
 15 17  1  0  0  0  0
 16  3  1  0  0  0  0
 16 18  1  0  0  0  0
 18 17  1  0  0  0  0
 18  1  1  0  0  0  0
 20 27  2  0  0  0  0
 20 25  1  0  0  0  0
 21 22  1  0  0  0  0
 21 29  1  0  0  0  0
 23 19  1  0  0  0  0
 23 22  2  0  0  0  0
 24 25  2  0  0  0  0
 24 26  1  0  0  0  0
 25 23  1  0  0  0  0
 26 21  2  0  0  0  0
 27 28  1  0  0  0  0
 28 19  2  0  0  0  0
 29 30  1  0  0  0  0
 31 29  2  0  0  0  0
 32 14  1  0  0  0  0
 33 32  2  0  0  0  0
 34 32  1  0  0  0  0
M  END
>  <MODEL>
5

>  <REMARK>
 VINA RESULT:      -8.4      7.045     10.536
  Name = 
  3 active torsions:
  status: ('A' for Active; 'I' for Inactive)
    1  A    between atoms: C_3  and  C_25
    2  A    between atoms: C_7  and  C_11
    3  A    between atoms: C_8  and  C_30
                            x       y       z     vdW  Elec       q    Type
                         _______ _______ _______ _____ _____    ______ ____

>  <TORSDO>
F 3

$$$$
=
 OpenBabel11052415573D

 34 39  0  0  1  0  0  0  0  0999 V2000
  181.2140  180.1340  139.4130 C   0  0  2  0  0  3  0  0  0  0  0  0
  180.1790  180.5070  135.7940 C   0  0  0  0  0  3  0  0  0  0  0  0
  181.5530  178.7790  136.9660 C   0  0  0  0  0  2  0  0  0  0  0  0
  183.2850  178.4880  140.3390 C   0  0  2  0  0  3  0  0  0  0  0  0
  183.0540  180.1290  139.5540 S   0  0  0  0  0  0  0  0  0  0  0  0
  180.8710  177.7430  140.4390 C   0  0  1  0  0  3  0  0  0  0  0  0
  180.9910  176.3930  139.7490 C   0  0  0  0  0  2  0  0  0  0  0  0
  182.1330  178.0530  141.2440 C   0  0  2  0  0  3  0  0  0  0  0  0
  181.8330  179.0570  142.3470 C   0  0  0  0  0  1  0  0  0  0  0  0
  180.6770  178.0310  137.9800 C   0  0  2  0  0  3  0  0  0  0  0  0
  180.5510  178.7460  139.3310 C   0  0  2  0  0  3  0  0  0  0  0  0
  181.2770  176.6710  138.2820 C   0  0  0  0  0  2  0  0  0  0  0  0
  179.8740  181.7360  135.3510 C   0  0  0  0  0  3  0  0  0  0  0  0
  180.5460  182.9850  135.8580 C   0  0  2  0  0  3  0  0  0  0  0  0
  180.2440  183.2310  137.3360 C   0  0  0  0  0  2  0  0  0  0  0  0
  181.2100  180.2740  136.8530 C   0  0  2  0  0  3  0  0  0  0  0  0
  181.1390  182.3940  138.2470 C   0  0  0  0  0  2  0  0  0  0  0  0
  180.7600  180.9190  138.1800 C   0  0  2  0  0  3  0  0  0  0  0  0
  187.0420  178.5500  140.9680 C   0  0  0  0  0  3  0  0  0  0  0  0
  184.6680  178.0340  142.3700 C   0  0  0  0  0  3  0  0  0  0  0  0
  188.3750  177.7710  144.3370 C   0  0  0  0  0  0  0  0  0  0  0  0
  188.3230  178.1110  142.9770 C   0  0  0  0  0  3  0  0  0  0  0  0
  187.0930  178.2030  142.3200 C   0  0  0  0  0  0  0  0  0  0  0  0
  185.9490  177.6090  144.3830 C   0  0  0  0  0  3  0  0  0  0  0  0
  185.8970  177.9470  143.0280 C   0  0  0  0  0  0  0  0  0  0  0  0
  187.1820  177.5230  145.0350 C   0  0  0  0  0  3  0  0  0  0  0  0
  184.6170  178.3700  141.0130 C   0  0  0  0  0  0  0  0  0  0  0  0
  185.8080  178.6380  140.3180 C   0  0  0  0  0  3  0  0  0  0  0  0
  189.6750  177.6820  145.0220 C   0  0  0  0  0  0  0  0  0  0  0  0
  189.7890  177.0250  146.0910 O   0  0  0  0  0  1  0  0  0  0  0  0
  190.7900  178.3230  144.4940 O   0  0  0  0  0  0  0  0  0  0  0  0
  180.1020  184.1620  135.0560 C   0  0  0  0  0  0  0  0  0  0  0  0
  178.9310  184.1960  134.5940 O   0  0  0  0  0  0  0  0  0  0  0  0
  180.9780  185.2060  134.7880 O   0  0  0  0  0  1  0  0  0  0  0  0
  1  5  1  6  0  0  0
  2 16  1  0  0  0  0
  4 27  1  1  0  0  0
  4  8  1  0  0  0  0
  5  4  1  0  0  0  0
  6  7  1  6  0  0  0
  6  8  1  0  0  0  0
  8  9  1  1  0  0  0
 10  3  1  6  0  0  0
 10 12  1  0  0  0  0
 10 11  1  0  0  0  0
 11  1  1  0  0  0  0
 11  6  1  0  0  0  0
 12  7  1  0  0  0  0
 13  2  2  0  0  0  0
 13 14  1  0  0  0  0
 14 15  1  0  0  0  0
 15 17  1  0  0  0  0
 16  3  1  0  0  0  0
 16 18  1  0  0  0  0
 18 17  1  0  0  0  0
 18  1  1  0  0  0  0
 19 23  1  0  0  0  0
 20 25  1  0  0  0  0
 21 29  1  0  0  0  0
 21 26  1  0  0  0  0
 22 21  2  0  0  0  0
 23 22  1  0  0  0  0
 23 25  2  0  0  0  0
 24 26  2  0  0  0  0
 25 24  1  0  0  0  0
 27 20  2  0  0  0  0
 28 19  2  0  0  0  0
 28 27  1  0  0  0  0
 29 30  1  0  0  0  0
 31 29  2  0  0  0  0
 32 14  1  0  0  0  0
 33 32  2  0  0  0  0
 34 32  1  0  0  0  0
M  END
>  <MODEL>
6

>  <REMARK>
 VINA RESULT:      -7.6      5.862     10.231
  Name = 
  3 active torsions:
  status: ('A' for Active; 'I' for Inactive)
    1  A    between atoms: C_3  and  C_25
    2  A    between atoms: C_7  and  C_11
    3  A    between atoms: C_8  and  C_30
                            x       y       z     vdW  Elec       q    Type
                         _______ _______ _______ _____ _____    ______ ____

>  <TORSDO>
F 3

$$$$
=
 OpenBabel11052415573D

 34 39  0  0  1  0  0  0  0  0999 V2000
  188.4780  177.8940  138.3940 C   0  0  2  0  0  3  0  0  0  0  0  0
  191.4380  177.1300  140.6210 C   0  0  0  0  0  3  0  0  0  0  0  0
  190.5570  176.0010  138.5720 C   0  0  0  0  0  2  0  0  0  0  0  0
  187.3280  176.1080  136.5660 C   0  0  2  0  0  3  0  0  0  0  0  0
  187.3130  176.4620  138.3640 S   0  0  0  0  0  0  0  0  0  0  0  0
  188.9750  177.8740  135.8170 C   0  0  1  0  0  3  0  0  0  0  0  0
  189.9570  177.0010  135.0520 C   0  0  0  0  0  2  0  0  0  0  0  0
  187.5510  177.3350  135.6820 C   0  0  2  0  0  3  0  0  0  0  0  0
  186.5330  178.4370  135.9290 C   0  0  0  0  0  1  0  0  0  0  0  0
  190.6770  176.9510  137.3730 C   0  0  2  0  0  3  0  0  0  0  0  0
  189.5070  177.9360  137.2490 C   0  0  2  0  0  3  0  0  0  0  0  0
  190.6940  176.1590  136.0810 C   0  0  0  0  0  2  0  0  0  0  0  0
  191.4030  177.5720  141.8870 C   0  0  0  0  0  3  0  0  0  0  0  0
  190.1320  177.6790  142.6880 C   0  0  2  0  0  3  0  0  0  0  0  0
  189.1740  178.7130  142.0940 C   0  0  0  0  0  2  0  0  0  0  0  0
  190.2010  176.7190  139.8850 C   0  0  2  0  0  3  0  0  0  0  0  0
  188.3750  178.1440  140.9240 C   0  0  0  0  0  2  0  0  0  0  0  0
  189.2660  177.9340  139.7050 C   0  0  2  0  0  3  0  0  0  0  0  0
  184.3100  174.8780  134.5940 C   0  0  0  0  0  3  0  0  0  0  0  0
  185.7790  174.1730  136.8770 C   0  0  0  0  0  3  0  0  0  0  0  0
  182.4920  171.8380  135.6830 C   0  0  0  0  0  0  0  0  0  0  0  0
  182.8530  172.9740  134.9430 C   0  0  0  0  0  3  0  0  0  0  0  0
  183.9460  173.7500  135.3350 C   0  0  0  0  0  0  0  0  0  0  0  0
  184.3300  172.2600  137.2190 C   0  0  0  0  0  3  0  0  0  0  0  0
  184.6880  173.3930  136.4830 C   0  0  0  0  0  0  0  0  0  0  0  0
  183.2370  171.4850  136.8200 C   0  0  0  0  0  3  0  0  0  0  0  0
  186.1360  175.3070  136.1410 C   0  0  0  0  0  0  0  0  0  0  0  0
  185.4040  175.6500  134.9920 C   0  0  0  0  0  3  0  0  0  0  0  0
  181.3410  171.0220  135.2600 C   0  0  0  0  0  0  0  0  0  0  0  0
  181.4160  169.7640  135.2630 O   0  0  0  0  0  1  0  0  0  0  0  0
  180.1620  171.6330  134.8530 O   0  0  0  0  0  0  0  0  0  0  0  0
  190.4490  178.0460  144.0980 C   0  0  0  0  0  0  0  0  0  0  0  0
  191.6510  178.1540  144.4600 O   0  0  0  0  0  0  0  0  0  0  0  0
  189.4310  178.2390  145.0250 O   0  0  0  0  0  1  0  0  0  0  0  0
  1  5  1  1  0  0  0
  1 18  1  0  0  0  0
  2 13  2  0  0  0  0
  3 16  1  0  0  0  0
  4 27  1  6  0  0  0
  4  5  1  0  0  0  0
  6  7  1  6  0  0  0
  6 11  1  0  0  0  0
  7 12  1  0  0  0  0
  8  6  1  0  0  0  0
  8  9  1  1  0  0  0
  8  4  1  0  0  0  0
 10 12  1  6  0  0  0
 10  3  1  0  0  0  0
 11 10  1  0  0  0  0
 11  1  1  0  0  0  0
 13 14  1  0  0  0  0
 14 32  1  0  0  0  0
 15 14  1  0  0  0  0
 16  2  1  0  0  0  0
 17 15  1  0  0  0  0
 18 16  1  0  0  0  0
 18 17  1  0  0  0  0
 19 28  2  0  0  0  0
 19 23  1  0  0  0  0
 21 26  1  0  0  0  0
 22 23  1  0  0  0  0
 22 21  2  0  0  0  0
 23 25  2  0  0  0  0
 25 20  1  0  0  0  0
 25 24  1  0  0  0  0
 26 24  2  0  0  0  0
 27 20  2  0  0  0  0
 28 27  1  0  0  0  0
 29 30  1  0  0  0  0
 29 21  1  0  0  0  0
 31 29  2  0  0  0  0
 32 33  2  0  0  0  0
 32 34  1  0  0  0  0
M  END
>  <MODEL>
7

>  <REMARK>
 VINA RESULT:      -6.1      4.786      7.638
  Name = 
  3 active torsions:
  status: ('A' for Active; 'I' for Inactive)
    1  A    between atoms: C_3  and  C_25
    2  A    between atoms: C_7  and  C_11
    3  A    between atoms: C_8  and  C_30
                            x       y       z     vdW  Elec       q    Type
                         _______ _______ _______ _____ _____    ______ ____

>  <TORSDO>
F 3

$$$$
=
 OpenBabel11052415573D

 34 39  0  0  1  0  0  0  0  0999 V2000
  188.2190  175.7090  136.7500 C   0  0  2  0  0  3  0  0  0  0  0  0
  184.7410  175.8660  135.2720 C   0  0  0  0  0  3  0  0  0  0  0  0
  185.9420  177.3660  136.8710 C   0  0  0  0  0  2  0  0  0  0  0  0
  189.0810  177.1330  139.0060 C   0  0  2  0  0  3  0  0  0  0  0  0
  188.1280  175.6230  138.5920 S   0  0  0  0  0  0  0  0  0  0  0  0
  189.5780  177.9530  136.6670 C   0  0  1  0  0  3  0  0  0  0  0  0
  189.0570  179.3770  136.7780 C   0  0  0  0  0  2  0  0  0  0  0  0
  190.1710  177.4880  137.9960 C   0  0  2  0  0  3  0  0  0  0  0  0
  191.1660  176.3580  137.7740 C   0  0  0  0  0  1  0  0  0  0  0  0
  187.1460  178.0050  136.1650 C   0  0  2  0  0  3  0  0  0  0  0  0
  188.3990  177.1210  136.1620 C   0  0  2  0  0  3  0  0  0  0  0  0
  187.5420  179.2870  136.8710 C   0  0  0  0  0  2  0  0  0  0  0  0
  184.1860  174.7200  134.8490 C   0  0  0  0  0  3  0  0  0  0  0  0
  184.4400  173.3890  135.5060 C   0  0  2  0  0  3  0  0  0  0  0  0
  185.9010  172.9590  135.3690 C   0  0  0  0  0  2  0  0  0  0  0  0
  185.6830  175.9140  136.4340 C   0  0  2  0  0  3  0  0  0  0  0  0
  186.7920  173.6310  136.4120 C   0  0  0  0  0  2  0  0  0  0  0  0
  186.9630  175.1150  136.1100 C   0  0  2  0  0  3  0  0  0  0  0  0
  191.4320  177.1230  142.0040 C   0  0  0  0  0  3  0  0  0  0  0  0
  188.6780  177.1170  141.4720 C   0  0  0  0  0  3  0  0  0  0  0  0
  190.0560  177.1290  145.4440 C   0  0  0  0  0  0  0  0  0  0  0  0
  190.9720  177.1230  144.3820 C   0  0  0  0  0  3  0  0  0  0  0  0
  190.5180  177.1220  143.0610 C   0  0  0  0  0  0  0  0  0  0  0  0
  188.2180  177.1300  143.8510 C   0  0  0  0  0  3  0  0  0  0  0  0
  189.1310  177.1220  142.7940 C   0  0  0  0  0  0  0  0  0  0  0  0
  188.6780  177.1350  145.1720 C   0  0  0  0  0  3  0  0  0  0  0  0
  189.5920  177.1070  140.4140 C   0  0  0  0  0  0  0  0  0  0  0  0
  190.9700  177.1200  140.6850 C   0  0  0  0  0  3  0  0  0  0  0  0
  190.5430  177.1350  146.8340 C   0  0  0  0  0  0  0  0  0  0  0  0
  189.7880  177.5060  147.7730 O   0  0  0  0  0  1  0  0  0  0  0  0
  191.8410  176.7330  147.1220 O   0  0  0  0  0  0  0  0  0  0  0  0
  183.5560  172.3490  134.9040 C   0  0  0  0  0  0  0  0  0  0  0  0
  184.0220  171.2080  134.6460 O   0  0  0  0  0  1  0  0  0  0  0  0
  182.2320  172.6380  134.5970 O   0  0  0  0  0  0  0  0  0  0  0  0
  1  5  1  1  0  0  0
  2 16  1  0  0  0  0
  4 27  1  1  0  0  0
  5  4  1  0  0  0  0
  6  7  1  1  0  0  0
  6  8  1  0  0  0  0
  7 12  1  0  0  0  0
  8  9  1  6  0  0  0
  8  4  1  0  0  0  0
 10 12  1  1  0  0  0
 10  3  1  0  0  0  0
 11 10  1  0  0  0  0
 11  6  1  0  0  0  0
 11  1  1  0  0  0  0
 13  2  2  0  0  0  0
 13 14  1  0  0  0  0
 15 14  1  0  0  0  0
 15 17  1  0  0  0  0
 16  3  1  0  0  0  0
 18 17  1  0  0  0  0
 18 16  1  0  0  0  0
 18  1  1  0  0  0  0
 19 23  1  0  0  0  0
 20 25  1  0  0  0  0
 21 29  1  0  0  0  0
 22 21  2  0  0  0  0
 23 22  1  0  0  0  0
 24 26  2  0  0  0  0
 25 23  2  0  0  0  0
 25 24  1  0  0  0  0
 26 21  1  0  0  0  0
 27 28  1  0  0  0  0
 27 20  2  0  0  0  0
 28 19  2  0  0  0  0
 29 31  2  0  0  0  0
 29 30  1  0  0  0  0
 32 14  1  0  0  0  0
 33 32  1  0  0  0  0
 34 32  2  0  0  0  0
M  END
>  <MODEL>
8

>  <REMARK>
 VINA RESULT:      -6.0      4.102      6.294
  Name = 
  3 active torsions:
  status: ('A' for Active; 'I' for Inactive)
    1  A    between atoms: C_3  and  C_25
    2  A    between atoms: C_7  and  C_11
    3  A    between atoms: C_8  and  C_30
                            x       y       z     vdW  Elec       q    Type
                         _______ _______ _______ _____ _____    ______ ____

>  <TORSDO>
F 3

$$$$
=
 OpenBabel11052415573D

 34 39  0  0  1  0  0  0  0  0999 V2000
  181.7700  179.7610  141.0840 C   0  0  2  0  0  3  0  0  0  0  0  0
  179.6500  178.2750  138.3260 C   0  0  0  0  0  3  0  0  0  0  0  0
  180.8010  177.2380  140.2880 C   0  0  0  0  0  2  0  0  0  0  0  0
  183.4740  178.3110  142.7710 C   0  0  2  0  0  3  0  0  0  0  0  0
  183.4530  179.0050  141.0750 S   0  0  0  0  0  0  0  0  0  0  0  0
  181.1540  178.9890  143.5150 C   0  0  1  0  0  3  0  0  0  0  0  0
  180.6270  177.6370  143.9710 C   0  0  0  0  0  2  0  0  0  0  0  0
  182.6540  179.1040  143.7880 C   0  0  2  0  0  3  0  0  0  0  0  0
  183.0720  180.5640  143.8790 C   0  0  0  0  0  1  0  0  0  0  0  0
  180.1760  177.7680  141.5860 C   0  0  2  0  0  3  0  0  0  0  0  0
  180.7560  179.1120  142.0450 C   0  0  2  0  0  3  0  0  0  0  0  0
  180.4300  176.7950  142.7210 C   0  0  0  0  0  2  0  0  0  0  0  0
  179.5700  178.9430  137.1660 C   0  0  0  0  0  3  0  0  0  0  0  0
  180.7060  179.7560  136.6020 C   0  0  2  0  0  3  0  0  0  0  0  0
  181.0420  180.9530  137.4930 C   0  0  0  0  0  2  0  0  0  0  0  0
  180.8820  178.2970  139.1760 C   0  0  2  0  0  3  0  0  0  0  0  0
  181.9270  180.5540  138.6710 C   0  0  0  0  0  2  0  0  0  0  0  0
  181.1460  179.7290  139.6870 C   0  0  2  0  0  3  0  0  0  0  0  0
  187.2240  177.6400  142.8040 C   0  0  0  0  0  3  0  0  0  0  0  0
  185.1200  177.9950  144.6240 C   0  0  0  0  0  3  0  0  0  0  0  0
  189.0250  177.3140  146.0250 C   0  0  0  0  0  0  0  0  0  0  0  0
  188.7710  177.3590  144.6470 C   0  0  0  0  0  3  0  0  0  0  0  0
  187.4750  177.5880  144.1770 C   0  0  0  0  0  0  0  0  0  0  0  0
  186.6700  177.7280  146.4680 C   0  0  0  0  0  3  0  0  0  0  0  0
  186.4160  177.7710  145.0950 C   0  0  0  0  0  0  0  0  0  0  0  0
  187.9690  177.5010  146.9320 C   0  0  0  0  0  3  0  0  0  0  0  0
  184.8670  178.0370  143.2500 C   0  0  0  0  0  0  0  0  0  0  0  0
  185.9250  177.8690  142.3410 C   0  0  0  0  0  3  0  0  0  0  0  0
  190.3950  177.0770  146.5110 C   0  0  0  0  0  0  0  0  0  0  0  0
  190.6410  177.0710  147.7480 O   0  0  0  0  0  1  0  0  0  0  0  0
  191.4300  176.8580  145.6100 O   0  0  0  0  0  0  0  0  0  0  0  0
  180.3570  180.2350  135.2330 C   0  0  0  0  0  0  0  0  0  0  0  0
  179.4270  179.6760  134.5940 O   0  0  0  0  0  0  0  0  0  0  0  0
  181.0700  181.2730  134.6450 O   0  0  0  0  0  1  0  0  0  0  0  0
  1  5  1  6  0  0  0
  1 11  1  0  0  0  0
  2 16  1  0  0  0  0
  4 27  1  1  0  0  0
  4  8  1  0  0  0  0
  5  4  1  0  0  0  0
  6  8  1  0  0  0  0
  6  7  1  6  0  0  0
  8  9  1  6  0  0  0
 10  3  1  6  0  0  0
 10 11  1  0  0  0  0
 10 12  1  0  0  0  0
 11  6  1  0  0  0  0
 12  7  1  0  0  0  0
 13  2  2  0  0  0  0
 14 13  1  0  0  0  0
 14 15  1  0  0  0  0
 15 17  1  0  0  0  0
 16 18  1  0  0  0  0
 16  3  1  0  0  0  0
 17 18  1  0  0  0  0
 18  1  1  0  0  0  0
 19 23  1  0  0  0  0
 20 25  1  0  0  0  0
 21 29  1  0  0  0  0
 21 26  1  0  0  0  0
 22 21  2  0  0  0  0
 23 22  1  0  0  0  0
 23 25  2  0  0  0  0
 24 26  2  0  0  0  0
 25 24  1  0  0  0  0
 27 20  2  0  0  0  0
 28 19  2  0  0  0  0
 28 27  1  0  0  0  0
 29 30  1  0  0  0  0
 31 29  2  0  0  0  0
 32 14  1  0  0  0  0
 33 32  2  0  0  0  0
 34 32  1  0  0  0  0
M  END
>  <MODEL>
9

>  <REMARK>
 VINA RESULT:      -6.0      6.406     10.018
  Name = 
  3 active torsions:
  status: ('A' for Active; 'I' for Inactive)
    1  A    between atoms: C_3  and  C_25
    2  A    between atoms: C_7  and  C_11
    3  A    between atoms: C_8  and  C_30
                            x       y       z     vdW  Elec       q    Type
                         _______ _______ _______ _____ _____    ______ ____

>  <TORSDO>
F 3

$$$$
