=
 OpenBabel11052415363D

 37 41  0  0  1  0  0  0  0  0999 V2000
  188.8480  177.8020  143.2610 C   0  0  1  0  0  3  0  0  0  0  0  0
  186.2630  177.6060  145.6060 C   0  0  2  0  0  3  0  0  0  0  0  0
  187.0830  177.4560  146.8230 C   0  0  0  0  0  2  0  0  0  0  0  0
  188.8810  176.8910  145.5460 C   0  0  0  0  0  2  0  0  0  0  0  0
  187.7630  177.9400  145.5310 C   0  0  2  0  0  0  0  0  0  0  0  0
  188.0650  177.0320  144.3290 C   0  0  1  0  0  3  0  0  0  0  0  0
  185.3970  178.8790  145.6130 C   0  0  2  0  0  3  0  0  0  0  0  0
  185.1000  179.3350  146.9040 O   0  0  0  0  0  1  0  0  0  0  0  0
  183.6380  179.8000  144.3170 O   0  0  0  0  0  0  0  0  0  0  0  0
  184.1050  178.6230  144.8610 C   0  0  0  0  0  3  0  0  0  0  0  0
  183.0840  179.3360  145.4460 O   0  0  0  0  0  0  0  0  0  0  0  0
  190.0210  175.6700  142.4310 C   0  0  0  0  0  1  0  0  0  0  0  0
  190.1790  177.0960  142.9630 C   0  0  1  0  0  3  0  0  0  0  0  0
  191.1090  177.9460  142.1940 N   0  0  0  0  0  0  0  0  0  0  0  0
  191.8910  178.0640  144.3970 O   0  0  0  0  0  0  0  0  0  0  0  0
  192.1700  178.4430  143.0700 C   0  0  2  0  0  3  0  0  0  0  0  0
  191.6180  179.4010  144.0560 C   0  0  0  0  0  2  0  0  0  0  0  0
  191.6390  177.3060  140.9730 C   0  0  0  0  0  2  0  0  0  0  0  0
  193.5670  177.3230  139.6080 O   0  0  0  0  0  0  0  0  0  0  0  0
  193.0740  177.6420  140.6770 C   0  0  0  0  0  3  0  0  0  0  0  0
  188.0450  178.0790  141.9740 C   0  0  1  0  0  3  0  0  0  0  0  0
  188.4600  177.3010  140.8850 O   0  0  0  0  0  0  0  0  0  0  0  0
  189.0140  179.1430  139.6530 O   0  0  0  0  0  1  0  0  0  0  0  0
  188.1420  178.0570  139.7530 C   0  0  1  0  0  3  0  0  0  0  0  0
  189.3430  177.6820  137.5380 C   0  0  1  0  0  3  0  0  0  0  0  0
  187.5980  177.8490  135.6950 C   0  0  0  0  0  2  0  0  0  0  0  0
  186.9500  177.0320  137.8720 O   0  0  0  0  0  0  0  0  0  0  0  0
  189.0190  177.3950  136.0620 C   0  0  2  0  0  3  0  0  0  0  0  0
  188.2220  177.2060  138.4850 C   0  0  2  0  0  3  0  0  0  0  0  0
  186.7300  178.0630  136.9380 C   0  0  0  0  0  2  0  0  0  0  0  0
  190.5720  177.1340  137.9090 O   0  0  0  0  0  1  0  0  0  0  0  0
  188.1680  175.0660  135.7780 O   0  0  0  0  0  1  0  0  0  0  0  0
  190.3510  175.5520  135.2820 O   0  0  0  0  0  0  0  0  0  0  0  0
  189.2270  175.9580  135.6830 C   0  0  0  0  0  0  0  0  0  0  0  0
  186.5390  177.9520  142.2040 C   0  0  0  0  0  2  0  0  0  0  0  0
  185.7740  179.1630  141.7060 C   0  0  0  0  0  2  0  0  0  0  0  0
  184.4940  178.7110  141.0380 C   0  0  0  0  0  1  0  0  0  0  0  0
  1 21  1  6  0  0  0
  2  7  1  1  0  0  0
  2  3  1  0  0  0  0
  5  4  1  6  0  0  0
  5  2  1  0  0  0  0
  5  3  1  0  0  0  0
  6  1  1  6  0  0  0
  6  5  1  0  0  0  0
  6  4  1  0  0  0  0
  7  8  1  1  0  0  0
  9 10  1  0  0  0  0
  9 11  1  0  0  0  0
 10 11  1  0  0  0  0
 10  7  1  0  0  0  0
 13 12  1  6  0  0  0
 13  1  1  0  0  0  0
 14 13  1  0  0  0  0
 16 14  1  6  0  0  0
 16 17  1  0  0  0  0
 16 15  1  0  0  0  0
 17 15  1  0  0  0  0
 18 14  1  0  0  0  0
 19 20  2  0  0  0  0
 20 18  1  0  0  0  0
 21 35  1  1  0  0  0
 22 21  1  0  0  0  0
 24 23  1  6  0  0  0
 24 22  1  0  0  0  0
 25 31  1  1  0  0  0
 25 29  1  0  0  0  0
 26 28  1  0  0  0  0
 26 30  1  0  0  0  0
 27 29  1  0  0  0  0
 28 34  1  1  0  0  0
 28 25  1  0  0  0  0
 29 24  1  1  0  0  0
 30 27  1  0  0  0  0
 33 34  2  0  0  0  0
 34 32  1  0  0  0  0
 36 35  1  0  0  0  0
 37 36  1  0  0  0  0
M  END
>  <MODEL>
1

>  <REMARK>
 VINA RESULT:      -6.7      0.000      0.000
  Name = 
  15 active torsions:
  status: ('A' for Active; 'I' for Inactive)
    1  A    between atoms: C_1  and  C_5
    2  A    between atoms: C_5  and  C_26
    3  A    between atoms: C_8  and  C_19
    4  A    between atoms: N_9  and  C_13
    5  A    between atoms: N_9  and  C_16
    6  A    between atoms: N_9  and  C_30
    7  A    between atoms: O_10  and  C_29
    8  A    between atoms: O_10  and  C_37
    9  A    between atoms: C_13  and  C_20
   10  A    between atoms: C_14  and  C_37
   11  A    between atoms: C_16  and  C_24
   12  A    between atoms: C_20  and  C_25
   13  A    between atoms: C_20  and  C_29
   14  A    between atoms: C_27  and  C_33
   15  A    between atoms: C_29  and  C_33
                            x       y       z     vdW  Elec       q    Type
                         _______ _______ _______ _____ _____    ______ ____

>  <TORSDO>
F 15

$$$$
=
 OpenBabel11052415363D

 37 41  0  0  1  0  0  0  0  0999 V2000
  188.9840  178.5020  143.4300 C   0  0  1  0  0  3  0  0  0  0  0  0
  186.0490  177.6650  145.1360 C   0  0  2  0  0  3  0  0  0  0  0  0
  186.6100  177.5600  146.4960 C   0  0  0  0  0  2  0  0  0  0  0  0
  188.7100  177.4250  145.6240 C   0  0  0  0  0  2  0  0  0  0  0  0
  187.4420  178.2610  145.4090 C   0  0  2  0  0  0  0  0  0  0  0  0
  188.1540  177.5210  144.2640 C   0  0  1  0  0  3  0  0  0  0  0  0
  184.9790  178.7640  145.0070 C   0  0  2  0  0  3  0  0  0  0  0  0
  184.3340  179.0480  146.2180 O   0  0  0  0  0  1  0  0  0  0  0  0
  183.3030  179.4690  143.4840 O   0  0  0  0  0  0  0  0  0  0  0  0
  183.9470  178.3530  143.9730 C   0  0  0  0  0  3  0  0  0  0  0  0
  182.6920  178.7130  144.4080 O   0  0  0  0  0  0  0  0  0  0  0  0
  191.3380  179.3970  143.9470 C   0  0  0  0  0  1  0  0  0  0  0  0
  190.4810  178.1860  143.5690 C   0  0  1  0  0  3  0  0  0  0  0  0
  190.7300  176.9750  144.3730 N   0  0  0  0  0  0  0  0  0  0  0  0
  190.6530  175.8350  142.3300 O   0  0  0  0  0  0  0  0  0  0  0  0
  191.3590  175.9470  143.5440 C   0  0  2  0  0  3  0  0  0  0  0  0
  190.4110  174.8370  143.2910 C   0  0  0  0  0  2  0  0  0  0  0  0
  191.4750  177.2250  145.6230 C   0  0  0  0  0  2  0  0  0  0  0  0
  192.5520  176.0590  147.3730 O   0  0  0  0  0  0  0  0  0  0  0  0
  191.9480  175.9780  146.3170 C   0  0  0  0  0  3  0  0  0  0  0  0
  188.5500  178.5890  141.9520 C   0  0  1  0  0  3  0  0  0  0  0  0
  189.4570  177.9810  141.0730 O   0  0  0  0  0  0  0  0  0  0  0  0
  189.0460  179.1230  139.1390 O   0  0  0  0  0  1  0  0  0  0  0  0
  188.8000  177.9420  139.8400 C   0  0  1  0  0  3  0  0  0  0  0  0
  190.6140  176.9910  138.3260 C   0  0  1  0  0  3  0  0  0  0  0  0
  189.5120  176.3820  136.1170 C   0  0  0  0  0  2  0  0  0  0  0  0
  188.2310  176.2520  138.1570 O   0  0  0  0  0  0  0  0  0  0  0  0
  190.7520  176.2130  137.0070 C   0  0  2  0  0  3  0  0  0  0  0  0
  189.2560  176.7390  139.0140 C   0  0  2  0  0  3  0  0  0  0  0  0
  188.3090  176.8990  136.9090 C   0  0  0  0  0  2  0  0  0  0  0  0
  191.6710  176.7160  139.1970 O   0  0  0  0  0  1  0  0  0  0  0  0
  190.0250  173.8730  137.4810 O   0  0  0  0  0  1  0  0  0  0  0  0
  192.2430  174.3330  137.1450 O   0  0  0  0  0  0  0  0  0  0  0  0
  191.0590  174.7580  137.2120 C   0  0  0  0  0  0  0  0  0  0  0  0
  187.1330  178.0580  141.7430 C   0  0  0  0  0  2  0  0  0  0  0  0
  186.1250  179.1710  141.5250 C   0  0  0  0  0  2  0  0  0  0  0  0
  185.1980  178.7960  140.3890 C   0  0  0  0  0  1  0  0  0  0  0  0
  1 21  1  6  0  0  0
  1 13  1  0  0  0  0
  2  7  1  1  0  0  0
  2  5  1  0  0  0  0
  2  3  1  0  0  0  0
  5  4  1  1  0  0  0
  5  3  1  0  0  0  0
  6  1  1  6  0  0  0
  6  5  1  0  0  0  0
  6  4  1  0  0  0  0
  7  8  1  1  0  0  0
  9 10  1  0  0  0  0
  9 11  1  0  0  0  0
 10 11  1  0  0  0  0
 10  7  1  0  0  0  0
 13 12  1  1  0  0  0
 13 14  1  0  0  0  0
 14 18  1  0  0  0  0
 15 17  1  0  0  0  0
 15 16  1  0  0  0  0
 16 14  1  1  0  0  0
 17 16  1  0  0  0  0
 18 20  1  0  0  0  0
 20 19  2  0  0  0  0
 21 35  1  1  0  0  0
 22 21  1  0  0  0  0
 24 23  1  6  0  0  0
 24 22  1  0  0  0  0
 25 29  1  0  0  0  0
 25 31  1  1  0  0  0
 26 30  1  0  0  0  0
 26 28  1  0  0  0  0
 27 29  1  0  0  0  0
 28 34  1  1  0  0  0
 28 25  1  0  0  0  0
 29 24  1  6  0  0  0
 30 27  1  0  0  0  0
 33 34  2  0  0  0  0
 34 32  1  0  0  0  0
 36 35  1  0  0  0  0
 37 36  1  0  0  0  0
M  END
>  <MODEL>
2

>  <REMARK>
 VINA RESULT:      -6.7      1.667      2.580
  Name = 
  15 active torsions:
  status: ('A' for Active; 'I' for Inactive)
    1  A    between atoms: C_1  and  C_5
    2  A    between atoms: C_5  and  C_26
    3  A    between atoms: C_8  and  C_19
    4  A    between atoms: N_9  and  C_13
    5  A    between atoms: N_9  and  C_16
    6  A    between atoms: N_9  and  C_30
    7  A    between atoms: O_10  and  C_29
    8  A    between atoms: O_10  and  C_37
    9  A    between atoms: C_13  and  C_20
   10  A    between atoms: C_14  and  C_37
   11  A    between atoms: C_16  and  C_24
   12  A    between atoms: C_20  and  C_25
   13  A    between atoms: C_20  and  C_29
   14  A    between atoms: C_27  and  C_33
   15  A    between atoms: C_29  and  C_33
                            x       y       z     vdW  Elec       q    Type
                         _______ _______ _______ _____ _____    ______ ____

>  <TORSDO>
F 15

$$$$
=
 OpenBabel11052415363D

 37 41  0  0  1  0  0  0  0  0999 V2000
  183.8860  178.3270  140.4240 C   0  0  1  0  0  3  0  0  0  0  0  0
  186.5440  178.3920  142.6950 C   0  0  2  0  0  3  0  0  0  0  0  0
  185.7630  178.3440  143.9450 C   0  0  0  0  0  2  0  0  0  0  0  0
  183.8890  178.9510  142.8030 C   0  0  0  0  0  2  0  0  0  0  0  0
  185.0620  177.9790  142.6250 C   0  0  2  0  0  0  0  0  0  0  0  0
  184.6650  179.0080  141.5540 C   0  0  1  0  0  3  0  0  0  0  0  0
  187.4780  177.1810  142.5170 C   0  0  2  0  0  3  0  0  0  0  0  0
  187.5950  176.4020  143.6770 O   0  0  0  0  0  1  0  0  0  0  0  0
  189.5690  176.6020  141.5610 O   0  0  0  0  0  0  0  0  0  0  0  0
  188.8540  177.6550  142.0910 C   0  0  0  0  0  3  0  0  0  0  0  0
  189.8150  176.9930  142.8200 O   0  0  0  0  0  0  0  0  0  0  0  0
  182.3340  179.8270  139.0260 C   0  0  0  0  0  1  0  0  0  0  0  0
  182.4950  178.9610  140.2780 C   0  0  1  0  0  3  0  0  0  0  0  0
  181.4060  177.9920  140.5050 N   0  0  0  0  0  0  0  0  0  0  0  0
  180.6930  179.4810  142.1640 O   0  0  0  0  0  0  0  0  0  0  0  0
  180.2540  178.6660  141.1020 C   0  0  2  0  0  3  0  0  0  0  0  0
  180.0940  178.2590  142.5170 C   0  0  0  0  0  2  0  0  0  0  0  0
  181.0420  177.2050  139.3090 C   0  0  0  0  0  2  0  0  0  0  0  0
  181.2610  174.9600  138.6090 O   0  0  0  0  0  0  0  0  0  0  0  0
  181.0230  175.7190  139.5340 C   0  0  0  0  0  3  0  0  0  0  0  0
  184.6420  178.2850  139.0800 C   0  0  1  0  0  3  0  0  0  0  0  0
  186.0260  178.4480  139.2190 O   0  0  0  0  0  0  0  0  0  0  0  0
  186.8600  179.2620  137.2550 O   0  0  0  0  0  1  0  0  0  0  0  0
  186.5610  178.1040  137.9740 C   0  0  1  0  0  3  0  0  0  0  0  0
  189.1050  178.0530  137.8410 C   0  0  1  0  0  3  0  0  0  0  0  0
  189.7380  176.2570  136.1550 C   0  0  0  0  0  2  0  0  0  0  0  0
  187.7200  176.0060  137.4550 O   0  0  0  0  0  0  0  0  0  0  0  0
  190.2330  177.1640  137.2910 C   0  0  2  0  0  3  0  0  0  0  0  0
  187.8200  177.2510  138.1360 C   0  0  2  0  0  3  0  0  0  0  0  0
  188.2110  176.1430  136.1420 C   0  0  0  0  0  2  0  0  0  0  0  0
  189.5160  178.7640  138.9710 O   0  0  0  0  0  1  0  0  0  0  0  0
  191.8500  176.9570  139.1810 O   0  0  0  0  0  1  0  0  0  0  0  0
  190.6470  175.1300  138.5030 O   0  0  0  0  0  0  0  0  0  0  0  0
  190.9130  176.3520  138.3540 C   0  0  0  0  0  0  0  0  0  0  0  0
  184.3080  177.0280  138.2780 C   0  0  0  0  0  2  0  0  0  0  0  0
  183.6280  177.3470  136.9590 C   0  0  0  0  0  2  0  0  0  0  0  0
  183.7390  176.1550  136.0340 C   0  0  0  0  0  1  0  0  0  0  0  0
  1 21  1  6  0  0  0
  2  7  1  1  0  0  0
  2  3  1  0  0  0  0
  5  2  1  0  0  0  0
  5  4  1  6  0  0  0
  5  3  1  0  0  0  0
  6  1  1  6  0  0  0
  6  5  1  0  0  0  0
  6  4  1  0  0  0  0
  7  8  1  1  0  0  0
  9 10  1  0  0  0  0
  9 11  1  0  0  0  0
 10  7  1  0  0  0  0
 10 11  1  0  0  0  0
 13 12  1  6  0  0  0
 13  1  1  0  0  0  0
 13 14  1  0  0  0  0
 15 17  1  0  0  0  0
 16 14  1  6  0  0  0
 16 15  1  0  0  0  0
 16 17  1  0  0  0  0
 18 20  1  0  0  0  0
 18 14  1  0  0  0  0
 19 20  2  0  0  0  0
 21 35  1  1  0  0  0
 21 22  1  0  0  0  0
 24 23  1  1  0  0  0
 24 22  1  0  0  0  0
 25 29  1  0  0  0  0
 25 31  1  1  0  0  0
 26 28  1  0  0  0  0
 27 29  1  0  0  0  0
 28 25  1  0  0  0  0
 28 34  1  1  0  0  0
 29 24  1  6  0  0  0
 30 26  1  0  0  0  0
 30 27  1  0  0  0  0
 34 33  2  0  0  0  0
 34 32  1  0  0  0  0
 36 35  1  0  0  0  0
 37 36  1  0  0  0  0
M  END
>  <MODEL>
3

>  <REMARK>
 VINA RESULT:      -6.5      3.026      6.594
  Name = 
  15 active torsions:
  status: ('A' for Active; 'I' for Inactive)
    1  A    between atoms: C_1  and  C_5
    2  A    between atoms: C_5  and  C_26
    3  A    between atoms: C_8  and  C_19
    4  A    between atoms: N_9  and  C_13
    5  A    between atoms: N_9  and  C_16
    6  A    between atoms: N_9  and  C_30
    7  A    between atoms: O_10  and  C_29
    8  A    between atoms: O_10  and  C_37
    9  A    between atoms: C_13  and  C_20
   10  A    between atoms: C_14  and  C_37
   11  A    between atoms: C_16  and  C_24
   12  A    between atoms: C_20  and  C_25
   13  A    between atoms: C_20  and  C_29
   14  A    between atoms: C_27  and  C_33
   15  A    between atoms: C_29  and  C_33
                            x       y       z     vdW  Elec       q    Type
                         _______ _______ _______ _____ _____    ______ ____

>  <TORSDO>
F 15

$$$$
=
 OpenBabel11052415363D

 37 41  0  0  1  0  0  0  0  0999 V2000
  183.5390  177.8870  139.7660 C   0  0  1  0  0  3  0  0  0  0  0  0
  185.5730  178.8270  142.4510 C   0  0  2  0  0  3  0  0  0  0  0  0
  184.5840  178.6790  143.5350 C   0  0  0  0  0  2  0  0  0  0  0  0
  182.8980  178.6820  142.0040 C   0  0  0  0  0  2  0  0  0  0  0  0
  184.2800  178.0390  142.1700 C   0  0  2  0  0  0  0  0  0  0  0  0
  183.8800  178.8370  140.9190 C   0  0  1  0  0  3  0  0  0  0  0  0
  186.7850  177.8910  142.6060 C   0  0  2  0  0  3  0  0  0  0  0  0
  187.2580  177.8180  143.9220 O   0  0  0  0  0  1  0  0  0  0  0  0
  188.7150  177.2840  141.3690 O   0  0  0  0  0  0  0  0  0  0  0  0
  187.9060  178.3520  141.6940 C   0  0  0  0  0  3  0  0  0  0  0  0
  189.1180  178.1460  142.3150 O   0  0  0  0  0  0  0  0  0  0  0  0
  181.1370  176.9860  139.9370 C   0  0  0  0  0  1  0  0  0  0  0  0
  182.0680  178.0530  139.3560 C   0  0  1  0  0  3  0  0  0  0  0  0
  181.5930  179.4410  139.5090 N   0  0  0  0  0  0  0  0  0  0  0  0
  182.9610  181.1580  138.6970 O   0  0  0  0  0  0  0  0  0  0  0  0
  181.9660  180.2290  138.3350 C   0  0  2  0  0  3  0  0  0  0  0  0
  181.6550  181.6610  138.5530 C   0  0  0  0  0  2  0  0  0  0  0  0
  180.1560  179.5540  139.8300 C   0  0  0  0  0  2  0  0  0  0  0  0
  179.7030  181.1990  141.4640 O   0  0  0  0  0  0  0  0  0  0  0  0
  179.8740  180.0130  141.2340 C   0  0  0  0  0  3  0  0  0  0  0  0
  184.4890  178.0030  138.5570 C   0  0  1  0  0  3  0  0  0  0  0  0
  185.8350  178.1380  138.9230 O   0  0  0  0  0  0  0  0  0  0  0  0
  186.8870  179.1760  137.1810 O   0  0  0  0  0  1  0  0  0  0  0  0
  186.5560  177.9410  137.7420 C   0  0  1  0  0  3  0  0  0  0  0  0
  189.1010  177.9160  137.6320 C   0  0  1  0  0  3  0  0  0  0  0  0
  189.7750  175.9570  136.1570 C   0  0  0  0  0  2  0  0  0  0  0  0
  187.7500  175.8180  137.4630 O   0  0  0  0  0  0  0  0  0  0  0  0
  190.2470  176.9910  137.1900 C   0  0  2  0  0  3  0  0  0  0  0  0
  187.8270  177.1310  138.0040 C   0  0  2  0  0  3  0  0  0  0  0  0
  188.2500  175.8180  136.1460 C   0  0  0  0  0  2  0  0  0  0  0  0
  189.4920  178.7530  138.6790 O   0  0  0  0  0  1  0  0  0  0  0  0
  191.7070  177.0600  139.2130 O   0  0  0  0  0  1  0  0  0  0  0  0
  190.8110  175.0690  138.5200 O   0  0  0  0  0  0  0  0  0  0  0  0
  190.9310  176.3110  138.3400 C   0  0  0  0  0  0  0  0  0  0  0  0
  184.2950  176.8550  137.5680 C   0  0  0  0  0  2  0  0  0  0  0  0
  183.4750  177.2660  136.3590 C   0  0  0  0  0  2  0  0  0  0  0  0
  182.4310  176.2090  136.0750 C   0  0  0  0  0  1  0  0  0  0  0  0
  1 21  1  6  0  0  0
  2  7  1  1  0  0  0
  2  3  1  0  0  0  0
  5  4  1  6  0  0  0
  5  2  1  0  0  0  0
  5  3  1  0  0  0  0
  6  1  1  6  0  0  0
  6  4  1  0  0  0  0
  6  5  1  0  0  0  0
  7  8  1  1  0  0  0
  9 10  1  0  0  0  0
  9 11  1  0  0  0  0
 10 11  1  0  0  0  0
 10  7  1  0  0  0  0
 13 14  1  0  0  0  0
 13  1  1  0  0  0  0
 13 12  1  1  0  0  0
 14 18  1  0  0  0  0
 16 17  1  0  0  0  0
 16 15  1  0  0  0  0
 16 14  1  1  0  0  0
 17 15  1  0  0  0  0
 18 20  1  0  0  0  0
 20 19  2  0  0  0  0
 21 35  1  6  0  0  0
 21 22  1  0  0  0  0
 24 23  1  1  0  0  0
 24 22  1  0  0  0  0
 25 29  1  0  0  0  0
 25 31  1  1  0  0  0
 26 28  1  0  0  0  0
 27 29  1  0  0  0  0
 28 25  1  0  0  0  0
 28 34  1  1  0  0  0
 29 24  1  6  0  0  0
 30 26  1  0  0  0  0
 30 27  1  0  0  0  0
 34 33  2  0  0  0  0
 34 32  1  0  0  0  0
 36 35  1  0  0  0  0
 37 36  1  0  0  0  0
M  END
>  <MODEL>
4

>  <REMARK>
 VINA RESULT:      -5.9      3.167      6.838
  Name = 
  15 active torsions:
  status: ('A' for Active; 'I' for Inactive)
    1  A    between atoms: C_1  and  C_5
    2  A    between atoms: C_5  and  C_26
    3  A    between atoms: C_8  and  C_19
    4  A    between atoms: N_9  and  C_13
    5  A    between atoms: N_9  and  C_16
    6  A    between atoms: N_9  and  C_30
    7  A    between atoms: O_10  and  C_29
    8  A    between atoms: O_10  and  C_37
    9  A    between atoms: C_13  and  C_20
   10  A    between atoms: C_14  and  C_37
   11  A    between atoms: C_16  and  C_24
   12  A    between atoms: C_20  and  C_25
   13  A    between atoms: C_20  and  C_29
   14  A    between atoms: C_27  and  C_33
   15  A    between atoms: C_29  and  C_33
                            x       y       z     vdW  Elec       q    Type
                         _______ _______ _______ _____ _____    ______ ____

>  <TORSDO>
F 15

$$$$
=
 OpenBabel11052415363D

 37 41  0  0  1  0  0  0  0  0999 V2000
  188.5980  175.7640  137.2600 C   0  0  1  0  0  3  0  0  0  0  0  0
  189.6230  177.4840  140.1260 C   0  0  2  0  0  3  0  0  0  0  0  0
  188.9200  178.7570  139.8790 C   0  0  0  0  0  2  0  0  0  0  0  0
  188.6430  178.1850  137.6930 C   0  0  0  0  0  2  0  0  0  0  0  0
  188.5070  177.5180  139.0670 C   0  0  2  0  0  0  0  0  0  0  0  0
  189.3510  176.9170  137.9320 C   0  0  1  0  0  3  0  0  0  0  0  0
  189.1620  176.7780  141.4140 C   0  0  2  0  0  3  0  0  0  0  0  0
  188.2130  177.5150  142.1350 O   0  0  0  0  0  1  0  0  0  0  0  0
  190.2810  175.2190  142.8060 O   0  0  0  0  0  0  0  0  0  0  0  0
  190.3600  176.4980  142.3010 C   0  0  0  0  0  3  0  0  0  0  0  0
  189.9340  176.2520  143.5860 O   0  0  0  0  0  0  0  0  0  0  0  0
  188.5010  176.0390  134.7050 C   0  0  0  0  0  1  0  0  0  0  0  0
  187.8060  176.2780  136.0490 C   0  0  1  0  0  3  0  0  0  0  0  0
  186.3860  175.8800  136.0920 N   0  0  0  0  0  0  0  0  0  0  0  0
  185.6090  177.7710  137.2310 O   0  0  0  0  0  0  0  0  0  0  0  0
  185.5340  177.0660  136.0150 C   0  0  2  0  0  3  0  0  0  0  0  0
  184.4550  176.9930  137.0270 C   0  0  0  0  0  2  0  0  0  0  0  0
  186.0180  174.8540  135.0960 C   0  0  0  0  0  2  0  0  0  0  0  0
  184.1110  173.7690  135.9740 O   0  0  0  0  0  0  0  0  0  0  0  0
  185.2900  173.6720  135.6720 C   0  0  0  0  0  3  0  0  0  0  0  0
  189.4930  174.5620  136.8930 C   0  0  1  0  0  3  0  0  0  0  0  0
  190.6980  174.5320  137.6070 O   0  0  0  0  0  0  0  0  0  0  0  0
  191.8270  175.5230  135.8870 O   0  0  0  0  0  1  0  0  0  0  0  0
  191.6910  174.3560  136.6400 C   0  0  1  0  0  3  0  0  0  0  0  0
  194.0060  175.1880  137.3010 C   0  0  1  0  0  3  0  0  0  0  0  0
  195.7070  173.6990  136.1350 C   0  0  0  0  0  2  0  0  0  0  0  0
  193.5670  172.7830  136.7730 O   0  0  0  0  0  0  0  0  0  0  0  0
  195.4760  174.7380  137.2430 C   0  0  2  0  0  3  0  0  0  0  0  0
  193.0290  173.9940  137.2870 C   0  0  2  0  0  3  0  0  0  0  0  0
  194.3940  173.0630  135.6680 C   0  0  0  0  0  2  0  0  0  0  0  0
  193.7660  176.0130  138.4020 O   0  0  0  0  0  1  0  0  0  0  0  0
  195.5970  172.9710  139.0020 O   0  0  0  0  0  0  0  0  0  0  0  0
  196.7640  174.9240  139.2630 O   0  0  0  0  0  1  0  0  0  0  0  0
  195.9870  174.2270  138.5570 C   0  0  0  0  0  0  0  0  0  0  0  0
  188.7420  173.2360  137.0140 C   0  0  0  0  0  2  0  0  0  0  0  0
  188.7860  172.4280  135.7310 C   0  0  0  0  0  2  0  0  0  0  0  0
  187.9110  171.2030  135.8770 C   0  0  0  0  0  1  0  0  0  0  0  0
  1 13  1  6  0  0  0
  2  7  1  1  0  0  0
  3  2  1  0  0  0  0
  4  6  1  0  0  0  0
  5  4  1  1  0  0  0
  5  3  1  0  0  0  0
  5  2  1  0  0  0  0
  6  1  1  6  0  0  0
  6  5  1  0  0  0  0
  7  8  1  1  0  0  0
  7 10  1  0  0  0  0
  9 11  1  0  0  0  0
 10  9  1  0  0  0  0
 10 11  1  0  0  0  0
 13 12  1  6  0  0  0
 13 14  1  0  0  0  0
 16 14  1  1  0  0  0
 16 17  1  0  0  0  0
 16 15  1  0  0  0  0
 17 15  1  0  0  0  0
 18 20  1  0  0  0  0
 18 14  1  0  0  0  0
 20 19  2  0  0  0  0
 21 35  1  1  0  0  0
 21  1  1  0  0  0  0
 21 22  1  0  0  0  0
 24 23  1  1  0  0  0
 24 22  1  0  0  0  0
 25 31  1  1  0  0  0
 26 28  1  0  0  0  0
 27 29  1  0  0  0  0
 28 25  1  0  0  0  0
 28 34  1  1  0  0  0
 29 24  1  6  0  0  0
 29 25  1  0  0  0  0
 30 26  1  0  0  0  0
 30 27  1  0  0  0  0
 34 32  2  0  0  0  0
 34 33  1  0  0  0  0
 36 37  1  0  0  0  0
 36 35  1  0  0  0  0
M  END
>  <MODEL>
5

>  <REMARK>
 VINA RESULT:      -5.8      3.647      7.727
  Name = 
  15 active torsions:
  status: ('A' for Active; 'I' for Inactive)
    1  A    between atoms: C_1  and  C_5
    2  A    between atoms: C_5  and  C_26
    3  A    between atoms: C_8  and  C_19
    4  A    between atoms: N_9  and  C_13
    5  A    between atoms: N_9  and  C_16
    6  A    between atoms: N_9  and  C_30
    7  A    between atoms: O_10  and  C_29
    8  A    between atoms: O_10  and  C_37
    9  A    between atoms: C_13  and  C_20
   10  A    between atoms: C_14  and  C_37
   11  A    between atoms: C_16  and  C_24
   12  A    between atoms: C_20  and  C_25
   13  A    between atoms: C_20  and  C_29
   14  A    between atoms: C_27  and  C_33
   15  A    between atoms: C_29  and  C_33
                            x       y       z     vdW  Elec       q    Type
                         _______ _______ _______ _____ _____    ______ ____

>  <TORSDO>
F 15

$$$$
=
 OpenBabel11052415363D

 37 41  0  0  1  0  0  0  0  0999 V2000
  186.0680  176.8320  136.7810 C   0  0  1  0  0  3  0  0  0  0  0  0
  187.6060  173.6920  136.7350 C   0  0  2  0  0  3  0  0  0  0  0  0
  186.6600  173.0000  135.8400 C   0  0  0  0  0  2  0  0  0  0  0  0
  185.1200  174.6400  136.1890 C   0  0  0  0  0  2  0  0  0  0  0  0
  186.6230  174.5360  135.9020 C   0  0  2  0  0  0  0  0  0  0  0  0
  186.0570  175.3310  137.0900 C   0  0  1  0  0  3  0  0  0  0  0  0
  189.0350  173.7630  136.1680 C   0  0  2  0  0  3  0  0  0  0  0  0
  189.4080  172.6050  135.4710 O   0  0  0  0  0  1  0  0  0  0  0  0
  190.6180  175.2420  137.1330 O   0  0  0  0  0  0  0  0  0  0  0  0
  190.0200  174.0100  137.2940 C   0  0  0  0  0  3  0  0  0  0  0  0
  191.2890  174.1370  136.7760 O   0  0  0  0  0  0  0  0  0  0  0  0
  183.6060  177.0800  136.0800 C   0  0  0  0  0  1  0  0  0  0  0  0
  184.6960  177.4490  137.0900 C   0  0  1  0  0  3  0  0  0  0  0  0
  184.3100  177.2880  138.5050 N   0  0  0  0  0  0  0  0  0  0  0  0
  184.9020  179.5000  138.9910 O   0  0  0  0  0  0  0  0  0  0  0  0
  183.8480  178.5670  139.0440 C   0  0  2  0  0  3  0  0  0  0  0  0
  184.6300  178.9310  140.2490 C   0  0  0  0  0  2  0  0  0  0  0  0
  183.3490  176.1940  138.7460 C   0  0  0  0  0  2  0  0  0  0  0  0
  180.9890  176.2740  138.6670 O   0  0  0  0  0  0  0  0  0  0  0  0
  182.0030  176.6540  139.2300 C   0  0  0  0  0  3  0  0  0  0  0  0
  187.2130  177.6040  137.4660 C   0  0  1  0  0  3  0  0  0  0  0  0
  187.9620  176.8140  138.3480 O   0  0  0  0  0  0  0  0  0  0  0  0
  187.9170  178.8200  139.4390 O   0  0  0  0  0  1  0  0  0  0  0  0
  188.7100  177.7200  139.1060 C   0  0  1  0  0  3  0  0  0  0  0  0
  189.2090  178.0170  141.5860 C   0  0  1  0  0  3  0  0  0  0  0  0
  191.6880  177.5580  141.9180 C   0  0  0  0  0  2  0  0  0  0  0  0
  190.4940  176.4120  140.1620 O   0  0  0  0  0  0  0  0  0  0  0  0
  190.3220  177.7140  142.6030 C   0  0  2  0  0  3  0  0  0  0  0  0
  189.2470  177.0600  140.3760 C   0  0  2  0  0  3  0  0  0  0  0  0
  191.5460  177.3140  140.4140 C   0  0  0  0  0  2  0  0  0  0  0  0
  187.9480  178.0070  142.1870 O   0  0  0  0  0  1  0  0  0  0  0  0
  190.1750  175.2440  142.9360 O   0  0  0  0  0  0  0  0  0  0  0  0
  189.6390  176.6620  144.6540 O   0  0  0  0  0  1  0  0  0  0  0  0
  190.0250  176.5200  143.4620 C   0  0  0  0  0  0  0  0  0  0  0  0
  188.1130  178.3080  136.4510 C   0  0  0  0  0  2  0  0  0  0  0  0
  187.9130  177.7830  135.0410 C   0  0  0  0  0  2  0  0  0  0  0  0
  189.1470  177.0220  134.6070 C   0  0  0  0  0  1  0  0  0  0  0  0
  1 13  1  1  0  0  0
  1 21  1  0  0  0  0
  2  7  1  6  0  0  0
  3  2  1  0  0  0  0
  4  6  1  0  0  0  0
  5  3  1  1  0  0  0
  5  4  1  0  0  0  0
  5  2  1  0  0  0  0
  5  6  1  0  0  0  0
  6  1  1  6  0  0  0
  7  8  1  1  0  0  0
  7 10  1  0  0  0  0
  9 10  1  0  0  0  0
 11  9  1  0  0  0  0
 11 10  1  0  0  0  0
 13 12  1  6  0  0  0
 13 14  1  0  0  0  0
 14 18  1  0  0  0  0
 15 16  1  0  0  0  0
 15 17  1  0  0  0  0
 16 14  1  6  0  0  0
 16 17  1  0  0  0  0
 18 20  1  0  0  0  0
 19 20  2  0  0  0  0
 21 35  1  6  0  0  0
 21 22  1  0  0  0  0
 22 24  1  0  0  0  0
 24 23  1  1  0  0  0
 25 31  1  1  0  0  0
 25 28  1  0  0  0  0
 26 28  1  0  0  0  0
 27 29  1  0  0  0  0
 27 30  1  0  0  0  0
 28 34  1  6  0  0  0
 29 24  1  6  0  0  0
 29 25  1  0  0  0  0
 30 26  1  0  0  0  0
 32 34  2  0  0  0  0
 34 33  1  0  0  0  0
 36 35  1  0  0  0  0
 37 36  1  0  0  0  0
M  END
>  <MODEL>
6

>  <REMARK>
 VINA RESULT:      -5.7      3.061      8.503
  Name = 
  15 active torsions:
  status: ('A' for Active; 'I' for Inactive)
    1  A    between atoms: C_1  and  C_5
    2  A    between atoms: C_5  and  C_26
    3  A    between atoms: C_8  and  C_19
    4  A    between atoms: N_9  and  C_13
    5  A    between atoms: N_9  and  C_16
    6  A    between atoms: N_9  and  C_30
    7  A    between atoms: O_10  and  C_29
    8  A    between atoms: O_10  and  C_37
    9  A    between atoms: C_13  and  C_20
   10  A    between atoms: C_14  and  C_37
   11  A    between atoms: C_16  and  C_24
   12  A    between atoms: C_20  and  C_25
   13  A    between atoms: C_20  and  C_29
   14  A    between atoms: C_27  and  C_33
   15  A    between atoms: C_29  and  C_33
                            x       y       z     vdW  Elec       q    Type
                         _______ _______ _______ _____ _____    ______ ____

>  <TORSDO>
F 15

$$$$
=
 OpenBabel11052415363D

 37 41  0  0  1  0  0  0  0  0999 V2000
  187.2550  177.7900  143.6380 C   0  0  1  0  0  3  0  0  0  0  0  0
  189.3230  177.8380  146.4570 C   0  0  2  0  0  3  0  0  0  0  0  0
  188.4330  177.1270  147.3930 C   0  0  0  0  0  2  0  0  0  0  0  0
  186.6650  177.5120  146.0100 C   0  0  0  0  0  2  0  0  0  0  0  0
  188.1250  177.0580  145.8880 C   0  0  2  0  0  0  0  0  0  0  0  0
  187.5480  178.2290  145.0760 C   0  0  1  0  0  3  0  0  0  0  0  0
  190.6510  177.1010  146.2060 C   0  0  2  0  0  3  0  0  0  0  0  0
  190.5790  176.1840  145.1490 O   0  0  0  0  0  1  0  0  0  0  0  0
  192.4310  176.5620  147.6770 O   0  0  0  0  0  0  0  0  0  0  0  0
  191.0810  176.3780  147.4680 C   0  0  0  0  0  3  0  0  0  0  0  0
  192.0010  175.4050  147.1510 O   0  0  0  0  0  0  0  0  0  0  0  0
  186.5740  179.0740  141.5170 C   0  0  0  0  0  1  0  0  0  0  0  0
  186.2550  178.7510  142.9800 C   0  0  1  0  0  3  0  0  0  0  0  0
  184.8530  178.3720  143.2390 N   0  0  0  0  0  0  0  0  0  0  0  0
  184.6680  179.6630  145.1830 O   0  0  0  0  0  0  0  0  0  0  0  0
  184.1490  179.4790  143.8870 C   0  0  2  0  0  3  0  0  0  0  0  0
  183.4310  179.0010  145.0900 C   0  0  0  0  0  2  0  0  0  0  0  0
  184.1370  177.8660  142.0520 C   0  0  0  0  0  2  0  0  0  0  0  0
  181.8660  178.4120  141.6970 O   0  0  0  0  0  0  0  0  0  0  0  0
  183.0280  178.7620  141.5750 C   0  0  0  0  0  3  0  0  0  0  0  0
  188.5180  177.5950  142.7740 C   0  0  1  0  0  3  0  0  0  0  0  0
  188.2370  177.1310  141.4820 O   0  0  0  0  0  0  0  0  0  0  0  0
  190.1770  175.9270  141.5460 O   0  0  0  0  0  1  0  0  0  0  0  0
  189.4860  176.9420  140.8830 C   0  0  1  0  0  3  0  0  0  0  0  0
  190.6610  176.7520  138.6300 C   0  0  1  0  0  3  0  0  0  0  0  0
  189.4280  178.2700  137.0050 C   0  0  0  0  0  2  0  0  0  0  0  0
  188.2110  177.2250  138.8080 O   0  0  0  0  0  0  0  0  0  0  0  0
  190.4340  177.1190  137.1540 C   0  0  2  0  0  3  0  0  0  0  0  0
  189.3350  176.5890  139.4020 C   0  0  2  0  0  3  0  0  0  0  0  0
  188.5980  178.4700  138.2750 C   0  0  0  0  0  2  0  0  0  0  0  0
  191.4550  175.6100  138.7590 O   0  0  0  0  0  1  0  0  0  0  0  0
  188.6870  175.5620  136.2850 O   0  0  0  0  0  1  0  0  0  0  0  0
  190.8690  175.3060  135.6370 O   0  0  0  0  0  0  0  0  0  0  0  0
  190.0200  175.9470  136.3140 C   0  0  0  0  0  0  0  0  0  0  0  0
  189.3820  178.8550  142.7360 C   0  0  0  0  0  2  0  0  0  0  0  0
  190.8100  178.5890  143.1740 C   0  0  0  0  0  2  0  0  0  0  0  0
  191.3170  179.7660  143.9800 C   0  0  0  0  0  1  0  0  0  0  0  0
  1 21  1  6  0  0  0
  2  7  1  6  0  0  0
  2  3  1  0  0  0  0
  5  4  1  6  0  0  0
  5  2  1  0  0  0  0
  5  3  1  0  0  0  0
  6  1  1  6  0  0  0
  6  5  1  0  0  0  0
  6  4  1  0  0  0  0
  7  8  1  6  0  0  0
  7 10  1  0  0  0  0
 10  9  1  0  0  0  0
 11 10  1  0  0  0  0
 11  9  1  0  0  0  0
 13 12  1  6  0  0  0
 13 14  1  0  0  0  0
 13  1  1  0  0  0  0
 16 14  1  6  0  0  0
 16 17  1  0  0  0  0
 16 15  1  0  0  0  0
 17 15  1  0  0  0  0
 18 14  1  0  0  0  0
 20 19  2  0  0  0  0
 20 18  1  0  0  0  0
 21 35  1  6  0  0  0
 22 21  1  0  0  0  0
 24 22  1  0  0  0  0
 24 23  1  1  0  0  0
 25 31  1  6  0  0  0
 25 29  1  0  0  0  0
 26 28  1  0  0  0  0
 26 30  1  0  0  0  0
 27 29  1  0  0  0  0
 28 34  1  6  0  0  0
 28 25  1  0  0  0  0
 29 24  1  1  0  0  0
 30 27  1  0  0  0  0
 32 34  1  0  0  0  0
 33 34  2  0  0  0  0
 35 36  1  0  0  0  0
 36 37  1  0  0  0  0
M  END
>  <MODEL>
7

>  <REMARK>
 VINA RESULT:      -5.5      2.009      5.389
  Name = 
  15 active torsions:
  status: ('A' for Active; 'I' for Inactive)
    1  A    between atoms: C_1  and  C_5
    2  A    between atoms: C_5  and  C_26
    3  A    between atoms: C_8  and  C_19
    4  A    between atoms: N_9  and  C_13
    5  A    between atoms: N_9  and  C_16
    6  A    between atoms: N_9  and  C_30
    7  A    between atoms: O_10  and  C_29
    8  A    between atoms: O_10  and  C_37
    9  A    between atoms: C_13  and  C_20
   10  A    between atoms: C_14  and  C_37
   11  A    between atoms: C_16  and  C_24
   12  A    between atoms: C_20  and  C_25
   13  A    between atoms: C_20  and  C_29
   14  A    between atoms: C_27  and  C_33
   15  A    between atoms: C_29  and  C_33
                            x       y       z     vdW  Elec       q    Type
                         _______ _______ _______ _____ _____    ______ ____

>  <TORSDO>
F 15

$$$$
=
 OpenBabel11052415363D

 37 41  0  0  1  0  0  0  0  0999 V2000
  187.3560  176.0150  136.8330 C   0  0  1  0  0  3  0  0  0  0  0  0
  190.2090  174.0040  137.0370 C   0  0  2  0  0  3  0  0  0  0  0  0
  189.8490  173.0110  136.0080 C   0  0  0  0  0  2  0  0  0  0  0  0
  187.6770  173.6870  136.1080 C   0  0  0  0  0  2  0  0  0  0  0  0
  189.0670  174.3340  136.0590 C   0  0  2  0  0  0  0  0  0  0  0  0
  188.0290  174.6740  137.1420 C   0  0  1  0  0  3  0  0  0  0  0  0
  191.4890  174.7900  136.6990 C   0  0  2  0  0  3  0  0  0  0  0  0
  192.4550  174.0120  136.0480 O   0  0  0  0  0  1  0  0  0  0  0  0
  192.3720  176.7040  137.7850 O   0  0  0  0  0  0  0  0  0  0  0  0
  192.0840  175.3690  137.9680 C   0  0  0  0  0  3  0  0  0  0  0  0
  193.3650  175.8060  137.7190 O   0  0  0  0  0  0  0  0  0  0  0  0
  185.1810  177.2690  137.3880 C   0  0  0  0  0  1  0  0  0  0  0  0
  185.8440  175.9230  137.0840 C   0  0  1  0  0  3  0  0  0  0  0  0
  185.1520  175.1070  136.0670 N   0  0  0  0  0  0  0  0  0  0  0  0
  184.3800  173.9700  137.9620 O   0  0  0  0  0  0  0  0  0  0  0  0
  184.0180  174.4100  136.6740 C   0  0  2  0  0  3  0  0  0  0  0  0
  184.3670  172.9970  136.9470 C   0  0  0  0  0  2  0  0  0  0  0  0
  184.7700  175.8550  134.8530 C   0  0  0  0  0  2  0  0  0  0  0  0
  182.5950  176.7280  135.1510 O   0  0  0  0  0  0  0  0  0  0  0  0
  183.2900  175.8930  134.5950 C   0  0  0  0  0  3  0  0  0  0  0  0
  187.9870  177.2160  137.5680 C   0  0  1  0  0  3  0  0  0  0  0  0
  188.9470  176.8400  138.5180 O   0  0  0  0  0  0  0  0  0  0  0  0
  187.5690  178.3230  139.5750 O   0  0  0  0  0  1  0  0  0  0  0  0
  188.8650  177.8090  139.5220 C   0  0  1  0  0  3  0  0  0  0  0  0
  189.0740  178.2450  142.0230 C   0  0  1  0  0  3  0  0  0  0  0  0
  191.4970  177.8170  142.6650 C   0  0  0  0  0  2  0  0  0  0  0  0
  190.5130  176.5700  140.8490 O   0  0  0  0  0  0  0  0  0  0  0  0
  190.0610  178.0040  143.1770 C   0  0  2  0  0  3  0  0  0  0  0  0
  189.2500  177.2230  140.8810 C   0  0  2  0  0  3  0  0  0  0  0  0
  191.5300  177.4890  141.1700 C   0  0  0  0  0  2  0  0  0  0  0  0
  187.7520  178.2630  142.4740 O   0  0  0  0  0  1  0  0  0  0  0  0
  188.9930  177.1140  145.2500 O   0  0  0  0  0  1  0  0  0  0  0  0
  189.9360  175.6710  143.7410 O   0  0  0  0  0  0  0  0  0  0  0  0
  189.6650  176.8590  144.0620 C   0  0  0  0  0  0  0  0  0  0  0  0
  188.5470  178.2500  136.5920 C   0  0  0  0  0  2  0  0  0  0  0  0
  188.4630  177.7870  135.1490 C   0  0  0  0  0  2  0  0  0  0  0  0
  189.8590  177.5440  134.6160 C   0  0  0  0  0  1  0  0  0  0  0  0
  1 13  1  1  0  0  0
  1 21  1  0  0  0  0
  2  7  1  6  0  0  0
  3  2  1  0  0  0  0
  4  6  1  0  0  0  0
  5  3  1  1  0  0  0
  5  4  1  0  0  0  0
  5  2  1  0  0  0  0
  5  6  1  0  0  0  0
  6  1  1  6  0  0  0
  7  8  1  1  0  0  0
  7 10  1  0  0  0  0
  9 10  1  0  0  0  0
 11  9  1  0  0  0  0
 11 10  1  0  0  0  0
 13 12  1  6  0  0  0
 14 13  1  0  0  0  0
 16 14  1  6  0  0  0
 16 17  1  0  0  0  0
 16 15  1  0  0  0  0
 17 15  1  0  0  0  0
 18 14  1  0  0  0  0
 20 18  1  0  0  0  0
 20 19  2  0  0  0  0
 21 35  1  6  0  0  0
 21 22  1  0  0  0  0
 22 24  1  0  0  0  0
 24 23  1  1  0  0  0
 25 31  1  1  0  0  0
 25 28  1  0  0  0  0
 26 28  1  0  0  0  0
 27 29  1  0  0  0  0
 27 30  1  0  0  0  0
 28 34  1  6  0  0  0
 29 24  1  6  0  0  0
 29 25  1  0  0  0  0
 30 26  1  0  0  0  0
 33 34  2  0  0  0  0
 34 32  1  0  0  0  0
 36 35  1  0  0  0  0
 37 36  1  0  0  0  0
M  END
>  <MODEL>
8

>  <REMARK>
 VINA RESULT:      -5.5      3.147      8.872
  Name = 
  15 active torsions:
  status: ('A' for Active; 'I' for Inactive)
    1  A    between atoms: C_1  and  C_5
    2  A    between atoms: C_5  and  C_26
    3  A    between atoms: C_8  and  C_19
    4  A    between atoms: N_9  and  C_13
    5  A    between atoms: N_9  and  C_16
    6  A    between atoms: N_9  and  C_30
    7  A    between atoms: O_10  and  C_29
    8  A    between atoms: O_10  and  C_37
    9  A    between atoms: C_13  and  C_20
   10  A    between atoms: C_14  and  C_37
   11  A    between atoms: C_16  and  C_24
   12  A    between atoms: C_20  and  C_25
   13  A    between atoms: C_20  and  C_29
   14  A    between atoms: C_27  and  C_33
   15  A    between atoms: C_29  and  C_33
                            x       y       z     vdW  Elec       q    Type
                         _______ _______ _______ _____ _____    ______ ____

>  <TORSDO>
F 15

$$$$
=
 OpenBabel11052415363D

 37 41  0  0  1  0  0  0  0  0999 V2000
  189.0890  178.2370  142.4830 C   0  0  1  0  0  3  0  0  0  0  0  0
  185.6440  177.8340  142.9260 C   0  0  2  0  0  3  0  0  0  0  0  0
  185.5970  177.9650  144.3940 C   0  0  0  0  0  2  0  0  0  0  0  0
  187.8420  177.5970  144.5040 C   0  0  0  0  0  2  0  0  0  0  0  0
  186.8660  178.4220  143.6560 C   0  0  2  0  0  0  0  0  0  0  0  0
  187.8930  177.4580  143.0390 C   0  0  1  0  0  3  0  0  0  0  0  0
  184.8410  178.9260  142.1960 C   0  0  2  0  0  3  0  0  0  0  0  0
  183.5790  179.1500  142.7610 O   0  0  0  0  0  1  0  0  0  0  0  0
  184.8120  179.6700  139.9450 O   0  0  0  0  0  0  0  0  0  0  0  0
  184.6780  178.5490  140.7360 C   0  0  0  0  0  3  0  0  0  0  0  0
  183.5840  179.2010  140.2120 O   0  0  0  0  0  0  0  0  0  0  0  0
  191.0390  179.2950  143.7840 C   0  0  0  0  0  1  0  0  0  0  0  0
  190.3300  178.0060  143.3580 C   0  0  1  0  0  3  0  0  0  0  0  0
  190.0800  177.0460  144.4500 N   0  0  0  0  0  0  0  0  0  0  0  0
  191.7060  175.9730  143.1520 O   0  0  0  0  0  0  0  0  0  0  0  0
  191.0800  175.9790  144.4140 C   0  0  2  0  0  3  0  0  0  0  0  0
  190.7330  174.9820  143.3750 C   0  0  0  0  0  2  0  0  0  0  0  0
  189.9670  177.6680  145.7840 C   0  0  0  0  0  2  0  0  0  0  0  0
  190.9270  177.2550  147.9030 O   0  0  0  0  0  0  0  0  0  0  0  0
  190.3930  176.7760  146.9160 C   0  0  0  0  0  3  0  0  0  0  0  0
  189.3770  177.9610  140.9930 C   0  0  1  0  0  3  0  0  0  0  0  0
  190.2160  176.8570  140.7880 O   0  0  0  0  0  0  0  0  0  0  0  0
  192.2910  177.7780  140.5370 O   0  0  0  0  0  1  0  0  0  0  0  0
  191.1700  177.2900  139.8630 C   0  0  1  0  0  3  0  0  0  0  0  0
  192.3030  176.6750  137.6660 C   0  0  1  0  0  3  0  0  0  0  0  0
  190.6000  175.4070  136.2660 C   0  0  0  0  0  2  0  0  0  0  0  0
  190.5110  175.2510  138.6730 O   0  0  0  0  0  0  0  0  0  0  0  0
  192.0830  175.7620  136.4480 C   0  0  2  0  0  3  0  0  0  0  0  0
  191.5800  176.1540  138.9250 C   0  0  2  0  0  3  0  0  0  0  0  0
  189.7910  175.6730  137.5380 C   0  0  0  0  0  2  0  0  0  0  0  0
  193.6620  176.8730  137.9200 O   0  0  0  0  0  1  0  0  0  0  0  0
  192.3600  173.3300  136.9350 O   0  0  0  0  0  1  0  0  0  0  0  0
  194.1270  174.5390  136.1220 O   0  0  0  0  0  0  0  0  0  0  0  0
  192.9210  174.5180  136.4870 C   0  0  0  0  0  0  0  0  0  0  0  0
  188.0910  177.8400  140.1770 C   0  0  0  0  0  2  0  0  0  0  0  0
  188.1900  178.5380  138.8340 C   0  0  0  0  0  2  0  0  0  0  0  0
  187.1230  178.0010  137.9060 C   0  0  0  0  0  1  0  0  0  0  0  0
  1 21  1  6  0  0  0
  1 13  1  0  0  0  0
  2  7  1  6  0  0  0
  2  5  1  0  0  0  0
  2  3  1  0  0  0  0
  5  3  1  1  0  0  0
  5  4  1  0  0  0  0
  6  1  1  6  0  0  0
  6  5  1  0  0  0  0
  6  4  1  0  0  0  0
  7  8  1  1  0  0  0
  9 11  1  0  0  0  0
  9 10  1  0  0  0  0
 10  7  1  0  0  0  0
 11 10  1  0  0  0  0
 13 12  1  1  0  0  0
 13 14  1  0  0  0  0
 14 18  1  0  0  0  0
 15 17  1  0  0  0  0
 15 16  1  0  0  0  0
 16 14  1  6  0  0  0
 17 16  1  0  0  0  0
 18 20  1  0  0  0  0
 20 19  2  0  0  0  0
 21 35  1  6  0  0  0
 22 21  1  0  0  0  0
 24 23  1  1  0  0  0
 24 22  1  0  0  0  0
 25 31  1  1  0  0  0
 25 29  1  0  0  0  0
 26 28  1  0  0  0  0
 26 30  1  0  0  0  0
 27 29  1  0  0  0  0
 28 34  1  1  0  0  0
 28 25  1  0  0  0  0
 29 24  1  6  0  0  0
 30 27  1  0  0  0  0
 33 34  2  0  0  0  0
 34 32  1  0  0  0  0
 36 35  1  0  0  0  0
 37 36  1  0  0  0  0
M  END
>  <MODEL>
9

>  <REMARK>
 VINA RESULT:      -5.3      2.205      3.836
  Name = 
  15 active torsions:
  status: ('A' for Active; 'I' for Inactive)
    1  A    between atoms: C_1  and  C_5
    2  A    between atoms: C_5  and  C_26
    3  A    between atoms: C_8  and  C_19
    4  A    between atoms: N_9  and  C_13
    5  A    between atoms: N_9  and  C_16
    6  A    between atoms: N_9  and  C_30
    7  A    between atoms: O_10  and  C_29
    8  A    between atoms: O_10  and  C_37
    9  A    between atoms: C_13  and  C_20
   10  A    between atoms: C_14  and  C_37
   11  A    between atoms: C_16  and  C_24
   12  A    between atoms: C_20  and  C_25
   13  A    between atoms: C_20  and  C_29
   14  A    between atoms: C_27  and  C_33
   15  A    between atoms: C_29  and  C_33
                            x       y       z     vdW  Elec       q    Type
                         _______ _______ _______ _____ _____    ______ ____

>  <TORSDO>
F 15

$$$$
