=
 OpenBabel11052415053D

 55 60  0  0  1  0  0  0  0  0999 V2000
  187.1920  177.7480  138.2550 C   0  0  0  0  0  0  0  0  0  0  0  0
  185.4120  177.1560  134.9700 C   0  0  0  0  0  1  0  0  0  0  0  0
  182.3920  175.3270  138.4280 C   0  0  0  0  0  3  0  0  0  0  0  0
  181.0510  175.0130  138.6700 C   0  0  0  0  0  3  0  0  0  0  0  0
  182.0060  177.5200  139.3540 C   0  0  0  0  0  0  0  0  0  0  0  0
  180.6630  177.1870  139.5350 C   0  0  0  0  0  3  0  0  0  0  0  0
  184.6590  176.4650  137.1530 O   0  0  0  0  0  0  0  0  0  0  0  0
  180.2170  175.9460  139.2050 N   0  0  0  0  0  0  0  0  0  0  0  0
  182.8710  176.5980  138.7340 C   0  0  0  0  0  0  0  0  0  0  0  0
  186.2020  178.6650  138.9600 C   0  0  0  0  0  2  0  0  0  0  0  0
  183.9170  179.0540  139.9270 C   0  0  2  0  0  3  0  0  0  0  0  0
  182.4880  178.7970  139.7790 N   0  0  0  0  0  2  0  0  0  0  0  0
  186.9280  177.2370  137.0160 C   0  0  0  0  0  0  0  0  0  0  0  0
  185.5220  177.3470  136.4790 C   0  0  1  0  0  3  0  0  0  0  0  0
  184.3200  176.9340  138.4570 C   0  0  2  0  0  3  0  0  0  0  0  0
  184.6960  178.4230  138.7650 C   0  0  2  0  0  3  0  0  0  0  0  0
  189.6950  177.4320  138.3140 C   0  0  0  0  0  3  0  0  0  0  0  0
  189.6290  177.0350  141.0730 C   0  0  0  0  0  0  0  0  0  0  0  0
  188.4460  177.2790  140.3690 C   0  0  0  0  0  3  0  0  0  0  0  0
  190.8780  177.1820  139.0120 C   0  0  0  0  0  3  0  0  0  0  0  0
  188.4680  177.5070  138.9900 C   0  0  0  0  0  0  0  0  0  0  0  0
  189.5920  176.8390  142.4390 O   0  0  0  0  0  1  0  0  0  0  0  0
  190.8490  176.9940  140.3980 C   0  0  0  0  0  3  0  0  0  0  0  0
  185.7210  179.3810  141.6880 C   0  0  0  0  0  2  0  0  0  0  0  0
  185.1840  179.0800  144.1610 C   0  0  2  0  0  3  0  0  0  0  0  0
  183.3830  178.6450  142.4360 C   0  0  0  0  0  2  0  0  0  0  0  0
  183.8020  179.4830  143.6390 C   0  0  0  0  0  2  0  0  0  0  0  0
  186.2170  178.8820  143.0410 C   0  0  0  0  0  2  0  0  0  0  0  0
  184.4390  178.6380  141.3150 C   0  0  1  0  0  3  0  0  0  0  0  0
  185.0870  177.8030  144.9860 C   0  0  0  0  0  2  0  0  0  0  0  0
  186.1200  177.7860  146.1060 C   0  0  0  0  0  2  0  0  0  0  0  0
  185.9160  178.9400  147.0680 C   0  0  0  0  0  1  0  0  0  0  0  0
  187.9120  176.4360  136.2330 C   0  0  0  0  0  3  0  0  0  0  0  0
  188.0310  175.1090  136.2780 C   0  0  0  0  0  0  0  0  0  0  0  0
  187.2240  174.3520  137.1180 O   0  0  0  0  0  1  0  0  0  0  0  0
  189.1030  174.4550  135.4650 C   0  0  0  0  0  2  0  0  0  0  0  0
  190.4260  175.1980  135.5340 C   0  0  2  0  0  3  0  0  0  0  0  0
  190.4640  176.2320  134.6090 F   0  0  0  0  0  0  0  0  0  0  0  0
  191.4990  174.3040  135.3540 O   0  0  0  0  0  0  0  0  0  0  0  0
  192.6800  174.9960  135.7130 C   0  0  1  0  0  3  0  0  0  0  0  0
  192.3800  176.1120  136.5150 O   0  0  0  0  0  1  0  0  0  0  0  0
  197.0420  174.4780  135.2090 C   0  0  0  0  0  2  0  0  0  0  0  0
  194.9040  172.4730  138.7150 O   0  0  0  0  0  0  0  0  0  0  0  0
  193.7010  174.0420  136.3850 C   0  0  1  0  0  0  0  0  0  0  0  0
  194.5450  175.8670  137.8170 O   0  0  0  0  0  1  0  0  0  0  0  0
  194.1520  174.5220  137.8000 C   0  0  2  0  0  3  0  0  0  0  0  0
  195.5730  174.8640  135.2730 C   0  0  0  0  0  2  0  0  0  0  0  0
  196.5770  174.1150  138.8280 C   0  0  1  0  0  3  0  0  0  0  0  0
  197.5170  173.8280  136.5140 C   0  0  0  0  0  2  0  0  0  0  0  0
  195.2000  173.6280  138.4350 C   0  0  0  0  0  0  0  0  0  0  0  0
  193.0200  172.8570  136.5920 F   0  0  0  0  0  0  0  0  0  0  0  0
  197.3200  174.7870  137.6730 C   0  0  0  0  0  2  0  0  0  0  0  0
  194.7840  173.7310  135.5190 O   0  0  0  0  0  0  0  0  0  0  0  0
  196.4670  175.0450  139.9400 N   0  0  0  0  0  2  0  0  0  0  0  0
  197.8120  175.2760  140.4340 C   0  0  0  0  0  1  0  0  0  0  0  0
  1 10  1  0  0  0  0
  1 21  1  0  0  0  0
  3  4  2  0  0  0  0
  3  9  1  0  0  0  0
  4  8  1  0  0  0  0
  5  6  1  0  0  0  0
  5 12  1  0  0  0  0
  8  6  2  0  0  0  0
  9  5  2  0  0  0  0
 11 12  1  1  0  0  0
 11 29  1  0  0  0  0
 13  1  2  0  0  0  0
 14  2  1  6  0  0  0
 14 13  1  0  0  0  0
 14  7  1  0  0  0  0
 15  7  1  6  0  0  0
 15  9  1  0  0  0  0
 15 16  1  0  0  0  0
 16 10  1  1  0  0  0
 16 11  1  0  0  0  0
 17 21  2  0  0  0  0
 17 20  1  0  0  0  0
 18 22  1  0  0  0  0
 19 18  2  0  0  0  0
 20 23  2  0  0  0  0
 21 19  1  0  0  0  0
 23 18  1  0  0  0  0
 24 28  1  0  0  0  0
 25 30  1  6  0  0  0
 26 27  1  0  0  0  0
 27 25  1  0  0  0  0
 28 25  1  0  0  0  0
 29 24  1  1  0  0  0
 29 26  1  0  0  0  0
 30 31  1  0  0  0  0
 31 32  1  0  0  0  0
 33 34  2  0  0  0  0
 33 13  1  0  0  0  0
 34 35  1  0  0  0  0
 36 37  1  0  0  0  0
 36 34  1  0  0  0  0
 37 38  1  6  0  0  0
 39 37  1  0  0  0  0
 39 40  1  0  0  0  0
 40 44  1  0  0  0  0
 40 41  1  1  0  0  0
 42 47  1  0  0  0  0
 42 49  1  0  0  0  0
 44 51  1  1  0  0  0
 44 46  1  0  0  0  0
 46 45  1  6  0  0  0
 46 50  1  0  0  0  0
 47 53  1  0  0  0  0
 48 54  1  1  0  0  0
 49 52  1  0  0  0  0
 50 43  2  0  0  0  0
 50 48  1  0  0  0  0
 52 48  1  0  0  0  0
 53 44  1  0  0  0  0
 54 55  1  0  0  0  0
M  END
>  <MODEL>
1

>  <REMARK>
 VINA RESULT:      -8.4      0.000      0.000
  Name = 
  11 active torsions:
  status: ('A' for Active; 'I' for Inactive)
    1  A    between atoms: C_2  and  C_44
    2  A    between atoms: C_4  and  C_37
    3  A    between atoms: C_6  and  C_20
    4  A    between atoms: C_7  and  C_8
    5  A    between atoms: C_7  and  O_22
    6  A    between atoms: C_8  and  C_35
    7  A    between atoms: C_10  and  C_18
    8  A    between atoms: C_10  and  C_32
    9  A    between atoms: N_11  and  C_29
   10  A    between atoms: C_20  and  O_22
   11  A    between atoms: C_33  and  C_52
                            x       y       z     vdW  Elec       q    Type
                         _______ _______ _______ _____ _____    ______ ____

>  <TORSDO>
F 11

$$$$
=
 OpenBabel11052415053D

 55 60  0  0  1  0  0  0  0  0999 V2000
  185.7670  178.6320  139.7780 C   0  0  0  0  0  0  0  0  0  0  0  0
  187.0520  178.0250  136.2730 C   0  0  0  0  0  1  0  0  0  0  0  0
  182.5450  176.0010  136.3670 C   0  0  0  0  0  3  0  0  0  0  0  0
  181.4860  175.6230  135.5370 C   0  0  0  0  0  3  0  0  0  0  0  0
  181.5030  178.1560  136.6540 C   0  0  0  0  0  0  0  0  0  0  0  0
  180.4880  177.7610  135.7820 C   0  0  0  0  0  3  0  0  0  0  0  0
  184.9550  177.2610  137.1820 O   0  0  0  0  0  0  0  0  0  0  0  0
  180.4910  176.5090  135.2540 N   0  0  0  0  0  0  0  0  0  0  0  0
  182.5810  177.2860  136.9030 C   0  0  0  0  0  0  0  0  0  0  0  0
  184.5420  179.4910  139.4940 C   0  0  0  0  0  2  0  0  0  0  0  0
  182.2830  179.7610  138.4290 C   0  0  2  0  0  3  0  0  0  0  0  0
  181.4530  179.4450  137.2710 N   0  0  0  0  0  2  0  0  0  0  0  0
  186.5350  178.1340  138.7650 C   0  0  0  0  0  0  0  0  0  0  0  0
  185.9940  178.1930  137.3580 C   0  0  1  0  0  3  0  0  0  0  0  0
  183.7380  177.6900  137.7910 C   0  0  2  0  0  3  0  0  0  0  0  0
  183.6950  179.1880  138.2470 C   0  0  2  0  0  3  0  0  0  0  0  0
  185.0890  178.5650  142.2080 C   0  0  0  0  0  3  0  0  0  0  0  0
  187.7100  178.0060  142.9750 C   0  0  0  0  0  0  0  0  0  0  0  0
  187.3950  178.1790  141.6240 C   0  0  0  0  0  3  0  0  0  0  0  0
  185.4010  178.3980  143.5590 C   0  0  0  0  0  3  0  0  0  0  0  0
  186.0790  178.4330  141.2240 C   0  0  0  0  0  0  0  0  0  0  0  0
  189.0100  177.7290  143.3500 O   0  0  0  0  0  1  0  0  0  0  0  0
  186.7140  178.1070  143.9450 C   0  0  0  0  0  3  0  0  0  0  0  0
  180.2890  180.0700  139.9770 C   0  0  0  0  0  2  0  0  0  0  0  0
  179.4730  178.1440  141.4320 C   0  0  2  0  0  3  0  0  0  0  0  0
  181.5220  177.8220  139.9810 C   0  0  0  0  0  2  0  0  0  0  0  0
  180.1020  177.3540  140.2800 C   0  0  0  0  0  2  0  0  0  0  0  0
  179.7110  179.6570  141.3260 C   0  0  0  0  0  2  0  0  0  0  0  0
  181.6150  179.3420  139.7520 C   0  0  1  0  0  3  0  0  0  0  0  0
  180.0020  177.6430  142.7690 C   0  0  0  0  0  2  0  0  0  0  0  0
  180.4320  178.7990  143.6640 C   0  0  0  0  0  2  0  0  0  0  0  0
  181.8930  178.6870  144.0530 C   0  0  0  0  0  1  0  0  0  0  0  0
  187.8090  177.3920  138.9910 C   0  0  0  0  0  3  0  0  0  0  0  0
  189.0290  177.9250  138.9290 C   0  0  0  0  0  0  0  0  0  0  0  0
  189.2020  179.2660  138.6090 O   0  0  0  0  0  1  0  0  0  0  0  0
  190.2130  177.0360  139.1340 C   0  0  0  0  0  2  0  0  0  0  0  0
  190.6120  176.2900  137.8710 C   0  0  2  0  0  3  0  0  0  0  0  0
  190.4770  174.9210  138.0400 F   0  0  0  0  0  0  0  0  0  0  0  0
  191.9230  176.6370  137.4920 O   0  0  0  0  0  0  0  0  0  0  0  0
  192.3430  175.6870  136.5320 C   0  0  1  0  0  3  0  0  0  0  0  0
  191.7010  175.9050  135.3000 O   0  0  0  0  0  1  0  0  0  0  0  0
  195.5250  173.8920  139.0230 C   0  0  0  0  0  2  0  0  0  0  0  0
  196.5340  175.5320  134.8770 O   0  0  0  0  0  0  0  0  0  0  0  0
  193.8870  175.6740  136.4000 C   0  0  1  0  0  0  0  0  0  0  0  0
  193.8520  173.3460  135.5780 O   0  0  0  0  0  1  0  0  0  0  0  0
  194.4090  174.6170  135.3760 C   0  0  2  0  0  3  0  0  0  0  0  0
  194.2840  174.3640  138.2820 C   0  0  0  0  0  2  0  0  0  0  0  0
  196.7190  173.3080  135.6050 C   0  0  1  0  0  3  0  0  0  0  0  0
  196.7260  173.7420  138.0820 C   0  0  0  0  0  2  0  0  0  0  0  0
  195.9220  174.5540  135.2910 C   0  0  0  0  0  0  0  0  0  0  0  0
  194.2240  176.9050  135.8690 F   0  0  0  0  0  0  0  0  0  0  0  0
  196.4060  172.7380  136.9900 C   0  0  0  0  0  2  0  0  0  0  0  0
  194.5270  175.6010  137.6670 O   0  0  0  0  0  0  0  0  0  0  0  0
  196.4600  172.2950  134.5940 N   0  0  0  0  0  2  0  0  0  0  0  0
  197.4730  171.2670  134.7560 C   0  0  0  0  0  1  0  0  0  0  0  0
  1 21  1  0  0  0  0
  3  9  1  0  0  0  0
  4  3  2  0  0  0  0
  5  9  2  0  0  0  0
  5 12  1  0  0  0  0
  6  5  1  0  0  0  0
  7 14  1  0  0  0  0
  7 15  1  0  0  0  0
  8  4  1  0  0  0  0
  8  6  2  0  0  0  0
 10  1  1  0  0  0  0
 11 12  1  6  0  0  0
 11 29  1  0  0  0  0
 13 33  1  0  0  0  0
 13  1  2  0  0  0  0
 14  2  1  6  0  0  0
 14 13  1  0  0  0  0
 15  9  1  6  0  0  0
 15 16  1  0  0  0  0
 16 11  1  0  0  0  0
 16 10  1  1  0  0  0
 17 20  1  0  0  0  0
 18 22  1  0  0  0  0
 18 23  1  0  0  0  0
 19 18  2  0  0  0  0
 20 23  2  0  0  0  0
 21 19  1  0  0  0  0
 21 17  2  0  0  0  0
 24 28  1  0  0  0  0
 25 30  1  1  0  0  0
 26 27  1  0  0  0  0
 27 25  1  0  0  0  0
 28 25  1  0  0  0  0
 29 24  1  6  0  0  0
 29 26  1  0  0  0  0
 30 31  1  0  0  0  0
 31 32  1  0  0  0  0
 34 33  2  0  0  0  0
 34 36  1  0  0  0  0
 35 34  1  0  0  0  0
 37 38  1  1  0  0  0
 37 36  1  0  0  0  0
 39 37  1  0  0  0  0
 40 41  1  6  0  0  0
 40 39  1  0  0  0  0
 43 50  2  0  0  0  0
 44 51  1  6  0  0  0
 44 40  1  0  0  0  0
 44 53  1  0  0  0  0
 46 45  1  1  0  0  0
 46 44  1  0  0  0  0
 47 42  1  0  0  0  0
 48 54  1  6  0  0  0
 48 52  1  0  0  0  0
 49 42  1  0  0  0  0
 50 46  1  0  0  0  0
 50 48  1  0  0  0  0
 52 49  1  0  0  0  0
 53 47  1  0  0  0  0
 54 55  1  0  0  0  0
M  END
>  <MODEL>
2

>  <REMARK>
 VINA RESULT:      -7.5      2.212      3.892
  Name = 
  11 active torsions:
  status: ('A' for Active; 'I' for Inactive)
    1  A    between atoms: C_2  and  C_44
    2  A    between atoms: C_4  and  C_37
    3  A    between atoms: C_6  and  C_20
    4  A    between atoms: C_7  and  C_8
    5  A    between atoms: C_7  and  O_22
    6  A    between atoms: C_8  and  C_35
    7  A    between atoms: C_10  and  C_18
    8  A    between atoms: C_10  and  C_32
    9  A    between atoms: N_11  and  C_29
   10  A    between atoms: C_20  and  O_22
   11  A    between atoms: C_33  and  C_52
                            x       y       z     vdW  Elec       q    Type
                         _______ _______ _______ _____ _____    ______ ____

>  <TORSDO>
F 11

$$$$
=
 OpenBabel11052415053D

 55 60  0  0  1  0  0  0  0  0999 V2000
  184.7910  177.1130  137.1280 C   0  0  0  0  0  0  0  0  0  0  0  0
  187.6160  175.7660  135.0040 C   0  0  0  0  0  1  0  0  0  0  0  0
  184.9640  171.8010  136.2980 C   0  0  0  0  0  3  0  0  0  0  0  0
  184.6760  170.4900  135.9090 C   0  0  0  0  0  3  0  0  0  0  0  0
  183.0690  172.5590  135.0150 C   0  0  0  0  0  0  0  0  0  0  0  0
  182.8410  171.2440  134.6090 C   0  0  0  0  0  3  0  0  0  0  0  0
  185.9200  174.4690  136.1230 O   0  0  0  0  0  0  0  0  0  0  0  0
  183.6340  170.2400  135.0690 N   0  0  0  0  0  0  0  0  0  0  0  0
  184.1840  172.8520  135.8240 C   0  0  0  0  0  0  0  0  0  0  0  0
  183.5820  176.7040  136.2980 C   0  0  0  0  0  2  0  0  0  0  0  0
  182.1760  174.9000  135.2580 C   0  0  2  0  0  3  0  0  0  0  0  0
  182.1840  173.6000  134.5940 N   0  0  0  0  0  2  0  0  0  0  0  0
  186.0600  176.7830  136.7470 C   0  0  0  0  0  0  0  0  0  0  0  0
  186.2370  175.7560  135.6540 C   0  0  1  0  0  3  0  0  0  0  0  0
  184.5120  174.2700  136.2400 C   0  0  2  0  0  3  0  0  0  0  0  0
  183.6110  175.3550  135.5590 C   0  0  2  0  0  3  0  0  0  0  0  0
  185.3490  177.9620  139.4380 C   0  0  0  0  0  3  0  0  0  0  0  0
  182.9600  179.3960  139.5430 C   0  0  0  0  0  0  0  0  0  0  0  0
  183.2750  178.6350  138.4130 C   0  0  0  0  0  3  0  0  0  0  0  0
  185.0360  178.7160  140.5710 C   0  0  0  0  0  3  0  0  0  0  0  0
  184.4820  177.9330  138.3360 C   0  0  0  0  0  0  0  0  0  0  0  0
  181.7760  180.1040  139.5900 O   0  0  0  0  0  1  0  0  0  0  0  0
  183.8420  179.4450  140.6200 C   0  0  0  0  0  3  0  0  0  0  0  0
  179.7830  175.0470  136.1050 C   0  0  0  0  0  2  0  0  0  0  0  0
  179.1010  173.8780  138.2640 C   0  0  2  0  0  3  0  0  0  0  0  0
  181.5170  173.7890  137.5120 C   0  0  0  0  0  2  0  0  0  0  0  0
  180.2650  172.9800  137.8360 C   0  0  0  0  0  2  0  0  0  0  0  0
  178.9330  175.1160  137.3690 C   0  0  0  0  0  2  0  0  0  0  0  0
  181.2550  174.9140  136.4930 C   0  0  1  0  0  3  0  0  0  0  0  0
  179.2800  174.3240  139.7100 C   0  0  0  0  0  2  0  0  0  0  0  0
  179.7000  175.7870  139.7910 C   0  0  0  0  0  2  0  0  0  0  0  0
  179.3530  176.3900  141.1390 C   0  0  0  0  0  1  0  0  0  0  0  0
  187.2800  177.2620  137.4570 C   0  0  0  0  0  3  0  0  0  0  0  0
  187.8490  178.4550  137.2850 C   0  0  0  0  0  0  0  0  0  0  0  0
  187.3300  179.3650  136.3720 O   0  0  0  0  0  1  0  0  0  0  0  0
  189.1010  178.7700  138.0390 C   0  0  0  0  0  2  0  0  0  0  0  0
  189.5620  177.6180  138.9170 C   0  0  2  0  0  3  0  0  0  0  0  0
  189.8140  176.4850  138.1580 F   0  0  0  0  0  0  0  0  0  0  0  0
  188.6140  177.3630  139.9270 O   0  0  0  0  0  0  0  0  0  0  0  0
  189.3060  176.7590  141.0020 C   0  0  1  0  0  3  0  0  0  0  0  0
  190.5620  176.2850  140.5840 O   0  0  0  0  0  1  0  0  0  0  0  0
  187.1180  176.9770  144.8390 C   0  0  0  0  0  2  0  0  0  0  0  0
  190.8890  179.4870  144.2250 O   0  0  0  0  0  0  0  0  0  0  0  0
  189.4120  177.7270  142.2090 C   0  0  1  0  0  0  0  0  0  0  0  0
  190.6340  176.0360  143.5280 O   0  0  0  0  0  1  0  0  0  0  0  0
  190.5970  177.3900  143.1670 C   0  0  2  0  0  3  0  0  0  0  0  0
  187.7850  176.6810  143.5050 C   0  0  0  0  0  2  0  0  0  0  0  0
  190.5650  177.7800  145.8030 C   0  0  1  0  0  3  0  0  0  0  0  0
  188.0510  177.7470  145.7830 C   0  0  0  0  0  2  0  0  0  0  0  0
  190.6660  178.2920  144.3830 C   0  0  0  0  0  0  0  0  0  0  0  0
  189.7090  178.9630  141.6670 F   0  0  0  0  0  0  0  0  0  0  0  0
  189.3090  176.9390  146.0410 C   0  0  0  0  0  2  0  0  0  0  0  0
  188.1670  177.8770  142.8790 O   0  0  0  0  0  0  0  0  0  0  0  0
  191.7440  176.9910  146.1220 N   0  0  0  0  0  2  0  0  0  0  0  0
  191.6490  176.6390  147.5280 C   0  0  0  0  0  1  0  0  0  0  0  0
  1 21  1  0  0  0  0
  4  3  1  0  0  0  0
  5  9  1  0  0  0  0
  6  5  2  0  0  0  0
  6  8  1  0  0  0  0
  7 15  1  0  0  0  0
  8  4  2  0  0  0  0
  9  3  2  0  0  0  0
 10  1  1  0  0  0  0
 11 12  1  1  0  0  0
 11 16  1  0  0  0  0
 11 29  1  0  0  0  0
 12  5  1  0  0  0  0
 13  1  2  0  0  0  0
 13 33  1  0  0  0  0
 14  2  1  1  0  0  0
 14  7  1  0  0  0  0
 14 13  1  0  0  0  0
 15  9  1  6  0  0  0
 16 15  1  0  0  0  0
 16 10  1  1  0  0  0
 17 20  1  0  0  0  0
 18 22  1  0  0  0  0
 18 23  1  0  0  0  0
 19 18  2  0  0  0  0
 20 23  2  0  0  0  0
 21 19  1  0  0  0  0
 21 17  2  0  0  0  0
 24 28  1  0  0  0  0
 25 30  1  1  0  0  0
 26 27  1  0  0  0  0
 27 25  1  0  0  0  0
 28 25  1  0  0  0  0
 29 24  1  6  0  0  0
 29 26  1  0  0  0  0
 30 31  1  0  0  0  0
 31 32  1  0  0  0  0
 34 33  2  0  0  0  0
 34 36  1  0  0  0  0
 35 34  1  0  0  0  0
 36 37  1  0  0  0  0
 37 38  1  6  0  0  0
 37 39  1  0  0  0  0
 39 40  1  0  0  0  0
 40 41  1  6  0  0  0
 40 44  1  0  0  0  0
 42 49  1  0  0  0  0
 43 50  2  0  0  0  0
 44 51  1  6  0  0  0
 44 53  1  0  0  0  0
 44 46  1  0  0  0  0
 46 45  1  1  0  0  0
 46 50  1  0  0  0  0
 47 42  1  0  0  0  0
 48 52  1  0  0  0  0
 48 54  1  6  0  0  0
 49 52  1  0  0  0  0
 50 48  1  0  0  0  0
 53 47  1  0  0  0  0
 54 55  1  0  0  0  0
M  END
>  <MODEL>
3

>  <REMARK>
 VINA RESULT:      -7.5      4.307      7.479
  Name = 
  11 active torsions:
  status: ('A' for Active; 'I' for Inactive)
    1  A    between atoms: C_2  and  C_44
    2  A    between atoms: C_4  and  C_37
    3  A    between atoms: C_6  and  C_20
    4  A    between atoms: C_7  and  C_8
    5  A    between atoms: C_7  and  O_22
    6  A    between atoms: C_8  and  C_35
    7  A    between atoms: C_10  and  C_18
    8  A    between atoms: C_10  and  C_32
    9  A    between atoms: N_11  and  C_29
   10  A    between atoms: C_20  and  O_22
   11  A    between atoms: C_33  and  C_52
                            x       y       z     vdW  Elec       q    Type
                         _______ _______ _______ _____ _____    ______ ____

>  <TORSDO>
F 11

$$$$
=
 OpenBabel11052415053D

 55 60  0  0  1  0  0  0  0  0999 V2000
  186.9140  177.8470  138.5020 C   0  0  0  0  0  0  0  0  0  0  0  0
  186.1020  179.4930  141.8100 C   0  0  0  0  0  1  0  0  0  0  0  0
  189.4200  175.9910  142.8860 C   0  0  0  0  0  3  0  0  0  0  0  0
  190.3790  175.6340  143.8370 C   0  0  0  0  0  3  0  0  0  0  0  0
  191.1370  177.1320  141.6360 C   0  0  0  0  0  0  0  0  0  0  0  0
  192.0570  176.7980  142.6300 C   0  0  0  0  0  3  0  0  0  0  0  0
  187.5680  177.6100  141.4680 O   0  0  0  0  0  0  0  0  0  0  0  0
  191.6680  176.0510  143.6970 N   0  0  0  0  0  0  0  0  0  0  0  0
  189.7840  176.7760  141.7950 C   0  0  0  0  0  0  0  0  0  0  0  0
  188.4020  178.1480  138.3850 C   0  0  0  0  0  2  0  0  0  0  0  0
  190.7390  177.9130  139.2770 C   0  0  2  0  0  3  0  0  0  0  0  0
  191.5690  177.8480  140.4750 N   0  0  0  0  0  2  0  0  0  0  0  0
  186.1960  178.2310  139.5980 C   0  0  0  0  0  0  0  0  0  0  0  0
  186.9470  178.6940  140.8220 C   0  0  1  0  0  3  0  0  0  0  0  0
  188.7360  177.1690  140.7770 C   0  0  2  0  0  3  0  0  0  0  0  0
  189.2670  178.1260  139.6560 C   0  0  2  0  0  3  0  0  0  0  0  0
  185.5090  177.8580  136.4060 C   0  0  0  0  0  3  0  0  0  0  0  0
  185.9140  175.1210  136.0600 C   0  0  0  0  0  0  0  0  0  0  0  0
  186.4850  175.7840  137.1510 C   0  0  0  0  0  3  0  0  0  0  0  0
  184.9330  177.1980  135.3190 C   0  0  0  0  0  3  0  0  0  0  0  0
  186.3120  177.1610  137.3210 C   0  0  0  0  0  0  0  0  0  0  0  0
  186.1170  173.7660  135.8930 O   0  0  0  0  0  1  0  0  0  0  0  0
  185.1440  175.8270  135.1370 C   0  0  0  0  0  3  0  0  0  0  0  0
  190.5070  176.9900  136.9190 C   0  0  0  0  0  2  0  0  0  0  0  0
  192.1630  175.2660  136.0370 C   0  0  2  0  0  3  0  0  0  0  0  0
  192.3720  176.0820  138.4240 C   0  0  0  0  0  2  0  0  0  0  0  0
  193.0490  175.9800  137.0610 C   0  0  0  0  0  2  0  0  0  0  0  0
  190.7020  175.7400  136.0680 C   0  0  0  0  0  2  0  0  0  0  0  0
  190.9660  176.7050  138.3480 C   0  0  1  0  0  3  0  0  0  0  0  0
  192.2080  173.7590  136.2580 C   0  0  0  0  0  2  0  0  0  0  0  0
  190.8140  173.1460  136.1890 C   0  0  0  0  0  2  0  0  0  0  0  0
  190.6680  172.2340  134.9860 C   0  0  0  0  0  1  0  0  0  0  0  0
  184.7180  178.0690  139.7070 C   0  0  0  0  0  3  0  0  0  0  0  0
  183.8200  179.0190  139.4460 C   0  0  0  0  0  0  0  0  0  0  0  0
  184.2240  180.2900  139.0580 O   0  0  0  0  0  1  0  0  0  0  0  0
  182.3700  178.7130  139.6490 C   0  0  0  0  0  2  0  0  0  0  0  0
  181.5460  178.9180  138.3890 C   0  0  2  0  0  3  0  0  0  0  0  0
  180.2420  178.4840  138.5730 F   0  0  0  0  0  0  0  0  0  0  0  0
  182.1560  178.2750  137.2950 O   0  0  0  0  0  0  0  0  0  0  0  0
  181.2680  177.2630  136.8620 C   0  0  1  0  0  3  0  0  0  0  0  0
  181.1090  177.3020  135.4650 O   0  0  0  0  0  1  0  0  0  0  0  0
  179.1840  174.0940  139.1360 C   0  0  0  0  0  2  0  0  0  0  0  0
  183.2140  173.2080  137.1710 O   0  0  0  0  0  0  0  0  0  0  0  0
  181.7240  175.8690  137.3650 C   0  0  1  0  0  0  0  0  0  0  0  0
  180.4830  174.7470  135.5510 O   0  0  0  0  0  1  0  0  0  0  0  0
  181.6950  174.7730  136.2540 C   0  0  2  0  0  3  0  0  0  0  0  0
  179.6840  175.2700  138.3120 C   0  0  0  0  0  2  0  0  0  0  0  0
  181.1510  172.2010  136.6870 C   0  0  1  0  0  3  0  0  0  0  0  0
  179.9500  172.8060  138.8120 C   0  0  0  0  0  2  0  0  0  0  0  0
  182.0770  173.3940  136.7560 C   0  0  0  0  0  0  0  0  0  0  0  0
  183.0550  176.0170  137.7080 F   0  0  0  0  0  0  0  0  0  0  0  0
  179.7940  172.4650  137.3420 C   0  0  0  0  0  2  0  0  0  0  0  0
  181.0480  175.4880  138.5560 O   0  0  0  0  0  0  0  0  0  0  0  0
  180.9530  171.8160  135.2990 N   0  0  0  0  0  2  0  0  0  0  0  0
  181.0520  170.3680  135.2430 C   0  0  0  0  0  1  0  0  0  0  0  0
  1 13  2  0  0  0  0
  3  4  1  0  0  0  0
  5  9  1  0  0  0  0
  5  6  2  0  0  0  0
  6  8  1  0  0  0  0
  8  4  2  0  0  0  0
  9  3  2  0  0  0  0
 10  1  1  0  0  0  0
 11 16  1  0  0  0  0
 11 12  1  1  0  0  0
 12  5  1  0  0  0  0
 13 33  1  0  0  0  0
 13 14  1  0  0  0  0
 14  7  1  0  0  0  0
 14  2  1  1  0  0  0
 15  7  1  1  0  0  0
 15  9  1  0  0  0  0
 16 10  1  6  0  0  0
 16 15  1  0  0  0  0
 17 21  1  0  0  0  0
 18 19  1  0  0  0  0
 19 21  2  0  0  0  0
 20 17  2  0  0  0  0
 21  1  1  0  0  0  0
 22 18  1  0  0  0  0
 23 20  1  0  0  0  0
 23 18  2  0  0  0  0
 25 28  1  0  0  0  0
 25 30  1  1  0  0  0
 25 27  1  0  0  0  0
 27 26  1  0  0  0  0
 28 24  1  0  0  0  0
 29 24  1  6  0  0  0
 29 26  1  0  0  0  0
 29 11  1  0  0  0  0
 31 30  1  0  0  0  0
 32 31  1  0  0  0  0
 34 36  1  0  0  0  0
 34 33  2  0  0  0  0
 35 34  1  0  0  0  0
 37 38  1  1  0  0  0
 37 36  1  0  0  0  0
 39 37  1  0  0  0  0
 40 41  1  6  0  0  0
 40 39  1  0  0  0  0
 40 44  1  0  0  0  0
 44 51  1  1  0  0  0
 44 53  1  0  0  0  0
 46 45  1  1  0  0  0
 46 50  1  0  0  0  0
 46 44  1  0  0  0  0
 47 53  1  0  0  0  0
 47 42  1  0  0  0  0
 48 54  1  6  0  0  0
 48 50  1  0  0  0  0
 48 52  1  0  0  0  0
 49 42  1  0  0  0  0
 50 43  2  0  0  0  0
 52 49  1  0  0  0  0
 55 54  1  0  0  0  0
M  END
>  <MODEL>
4

>  <REMARK>
 VINA RESULT:      -7.1      4.071     10.655
  Name = 
  11 active torsions:
  status: ('A' for Active; 'I' for Inactive)
    1  A    between atoms: C_2  and  C_44
    2  A    between atoms: C_4  and  C_37
    3  A    between atoms: C_6  and  C_20
    4  A    between atoms: C_7  and  C_8
    5  A    between atoms: C_7  and  O_22
    6  A    between atoms: C_8  and  C_35
    7  A    between atoms: C_10  and  C_18
    8  A    between atoms: C_10  and  C_32
    9  A    between atoms: N_11  and  C_29
   10  A    between atoms: C_20  and  O_22
   11  A    between atoms: C_33  and  C_52
                            x       y       z     vdW  Elec       q    Type
                         _______ _______ _______ _____ _____    ______ ____

>  <TORSDO>
F 11

$$$$
=
 OpenBabel11052415053D

 55 60  0  0  1  0  0  0  0  0999 V2000
  185.1100  178.0600  137.8380 C   0  0  0  0  0  0  0  0  0  0  0  0
  182.9600  176.2400  135.3130 C   0  0  0  0  0  1  0  0  0  0  0  0
  181.0610  175.0600  139.7200 C   0  0  0  0  0  3  0  0  0  0  0  0
  179.8850  174.6200  140.3340 C   0  0  0  0  0  3  0  0  0  0  0  0
  180.3710  177.3370  140.1130 C   0  0  0  0  0  0  0  0  0  0  0  0
  179.1860  176.8610  140.6760 C   0  0  0  0  0  3  0  0  0  0  0  0
  182.7670  176.1170  137.7120 O   0  0  0  0  0  0  0  0  0  0  0  0
  178.9720  175.5230  140.7870 N   0  0  0  0  0  0  0  0  0  0  0  0
  181.2960  176.4250  139.5710 C   0  0  0  0  0  0  0  0  0  0  0  0
  184.0820  178.9730  138.4910 C   0  0  0  0  0  2  0  0  0  0  0  0
  181.9690  179.2580  139.8200 C   0  0  2  0  0  3  0  0  0  0  0  0
  180.6280  178.7430  140.0730 N   0  0  0  0  0  2  0  0  0  0  0  0
  184.7540  177.1680  136.8670 C   0  0  0  0  0  0  0  0  0  0  0  0
  183.2860  176.8860  136.6550 C   0  0  1  0  0  3  0  0  0  0  0  0
  182.5660  176.8920  138.8940 C   0  0  2  0  0  3  0  0  0  0  0  0
  182.6540  178.4450  138.7140 C   0  0  2  0  0  3  0  0  0  0  0  0
  187.5380  178.5910  137.3980 C   0  0  0  0  0  3  0  0  0  0  0  0
  188.1620  178.1990  140.0870 C   0  0  0  0  0  0  0  0  0  0  0  0
  186.8480  178.0360  139.6390 C   0  0  0  0  0  3  0  0  0  0  0  0
  188.8530  178.7490  137.8400 C   0  0  0  0  0  3  0  0  0  0  0  0
  186.5160  178.2560  138.2990 C   0  0  0  0  0  0  0  0  0  0  0  0
  188.4670  178.0050  141.4190 O   0  0  0  0  0  1  0  0  0  0  0  0
  189.1660  178.5640  139.1910 C   0  0  0  0  0  3  0  0  0  0  0  0
  181.9570  179.1050  142.3580 C   0  0  0  0  0  2  0  0  0  0  0  0
  184.0360  178.3390  143.6170 C   0  0  2  0  0  3  0  0  0  0  0  0
  184.1250  178.5740  141.0980 C   0  0  0  0  0  2  0  0  0  0  0  0
  184.2590  177.6220  142.2830 C   0  0  0  0  0  2  0  0  0  0  0  0
  182.8240  179.2830  143.6010 C   0  0  0  0  0  2  0  0  0  0  0  0
  182.8030  179.3630  141.1120 C   0  0  1  0  0  3  0  0  0  0  0  0
  185.2800  179.1260  144.0100 C   0  0  0  0  0  2  0  0  0  0  0  0
  186.4670  178.2010  144.2530 C   0  0  0  0  0  2  0  0  0  0  0  0
  186.4830  177.6810  145.6770 C   0  0  0  0  0  1  0  0  0  0  0  0
  185.7380  176.3400  136.1120 C   0  0  0  0  0  3  0  0  0  0  0  0
  186.0960  175.0960  136.4290 C   0  0  0  0  0  0  0  0  0  0  0  0
  185.5680  174.4680  137.5500 O   0  0  0  0  0  1  0  0  0  0  0  0
  187.1340  174.4130  135.5970 C   0  0  0  0  0  2  0  0  0  0  0  0
  188.4480  175.1760  135.5570 C   0  0  2  0  0  3  0  0  0  0  0  0
  188.4140  176.1730  134.5940 F   0  0  0  0  0  0  0  0  0  0  0  0
  189.5220  174.2910  135.3470 O   0  0  0  0  0  0  0  0  0  0  0  0
  190.7070  174.9940  135.6650 C   0  0  1  0  0  3  0  0  0  0  0  0
  190.6000  175.6110  136.9240 O   0  0  0  0  0  1  0  0  0  0  0  0
  194.9250  175.7790  134.5940 C   0  0  0  0  0  2  0  0  0  0  0  0
  193.7550  171.7600  136.4280 O   0  0  0  0  0  0  0  0  0  0  0  0
  191.9480  174.0680  135.5650 C   0  0  1  0  0  0  0  0  0  0  0  0
  192.8160  174.9080  137.7180 O   0  0  0  0  0  1  0  0  0  0  0  0
  192.5960  173.7560  136.9500 C   0  0  2  0  0  3  0  0  0  0  0  0
  193.4590  175.7430  134.9930 C   0  0  0  0  0  2  0  0  0  0  0  0
  195.2030  173.3650  137.3410 C   0  0  1  0  0  3  0  0  0  0  0  0
  195.7150  174.6270  135.2270 C   0  0  0  0  0  2  0  0  0  0  0  0
  193.8470  172.9050  136.8530 C   0  0  0  0  0  0  0  0  0  0  0  0
  191.4700  172.8590  135.0960 F   0  0  0  0  0  0  0  0  0  0  0  0
  195.6250  174.7070  136.7400 C   0  0  0  0  0  2  0  0  0  0  0  0
  192.8770  174.5300  134.5950 O   0  0  0  0  0  0  0  0  0  0  0  0
  195.1910  173.4660  138.7910 N   0  0  0  0  0  2  0  0  0  0  0  0
  196.3890  174.1910  139.1750 C   0  0  0  0  0  1  0  0  0  0  0  0
  1 21  1  0  0  0  0
  1 10  1  0  0  0  0
  3  4  1  0  0  0  0
  4  8  2  0  0  0  0
  5  6  2  0  0  0  0
  6  8  1  0  0  0  0
  9  3  2  0  0  0  0
  9  5  1  0  0  0  0
 11 12  1  1  0  0  0
 11 29  1  0  0  0  0
 12  5  1  0  0  0  0
 13  1  2  0  0  0  0
 14  2  1  6  0  0  0
 14 13  1  0  0  0  0
 14  7  1  0  0  0  0
 15  7  1  6  0  0  0
 15  9  1  0  0  0  0
 16 10  1  1  0  0  0
 16 15  1  0  0  0  0
 16 11  1  0  0  0  0
 17 20  2  0  0  0  0
 17 21  1  0  0  0  0
 18 22  1  0  0  0  0
 19 18  1  0  0  0  0
 20 23  1  0  0  0  0
 21 19  2  0  0  0  0
 23 18  2  0  0  0  0
 24 28  1  0  0  0  0
 25 30  1  6  0  0  0
 26 27  1  0  0  0  0
 27 25  1  0  0  0  0
 28 25  1  0  0  0  0
 29 26  1  6  0  0  0
 29 24  1  0  0  0  0
 30 31  1  0  0  0  0
 31 32  1  0  0  0  0
 33 34  2  0  0  0  0
 33 13  1  0  0  0  0
 34 35  1  0  0  0  0
 36 34  1  0  0  0  0
 37 38  1  6  0  0  0
 37 36  1  0  0  0  0
 39 37  1  0  0  0  0
 39 40  1  0  0  0  0
 40 41  1  1  0  0  0
 42 47  1  0  0  0  0
 42 49  1  0  0  0  0
 43 50  2  0  0  0  0
 44 51  1  6  0  0  0
 44 40  1  0  0  0  0
 44 46  1  0  0  0  0
 46 45  1  6  0  0  0
 48 54  1  1  0  0  0
 49 52  1  0  0  0  0
 50 46  1  0  0  0  0
 50 48  1  0  0  0  0
 52 48  1  0  0  0  0
 53 47  1  0  0  0  0
 53 44  1  0  0  0  0
 54 55  1  0  0  0  0
M  END
>  <MODEL>
5

>  <REMARK>
 VINA RESULT:      -6.9      1.555      2.173
  Name = 
  11 active torsions:
  status: ('A' for Active; 'I' for Inactive)
    1  A    between atoms: C_2  and  C_44
    2  A    between atoms: C_4  and  C_37
    3  A    between atoms: C_6  and  C_20
    4  A    between atoms: C_7  and  C_8
    5  A    between atoms: C_7  and  O_22
    6  A    between atoms: C_8  and  C_35
    7  A    between atoms: C_10  and  C_18
    8  A    between atoms: C_10  and  C_32
    9  A    between atoms: N_11  and  C_29
   10  A    between atoms: C_20  and  O_22
   11  A    between atoms: C_33  and  C_52
                            x       y       z     vdW  Elec       q    Type
                         _______ _______ _______ _____ _____    ______ ____

>  <TORSDO>
F 11

$$$$
=
 OpenBabel11052415053D

 55 60  0  0  1  0  0  0  0  0999 V2000
  183.9990  178.3400  140.5210 C   0  0  0  0  0  0  0  0  0  0  0  0
  186.7880  179.8510  142.5820 C   0  0  0  0  0  1  0  0  0  0  0  0
  189.0300  176.7840  139.4210 C   0  0  0  0  0  3  0  0  0  0  0  0
  190.2580  176.5430  138.7990 C   0  0  0  0  0  3  0  0  0  0  0  0
  188.3810  178.1380  137.5340 C   0  0  0  0  0  0  0  0  0  0  0  0
  189.6360  177.9140  136.9660 C   0  0  0  0  0  3  0  0  0  0  0  0
  187.0200  178.1680  140.8720 O   0  0  0  0  0  0  0  0  0  0  0  0
  190.5390  177.1180  137.5970 N   0  0  0  0  0  0  0  0  0  0  0  0
  188.0950  177.6150  138.8100 C   0  0  0  0  0  0  0  0  0  0  0  0
  184.3720  178.8260  139.1270 C   0  0  0  0  0  2  0  0  0  0  0  0
  185.9980  178.8780  137.2120 C   0  0  2  0  0  3  0  0  0  0  0  0
  187.4050  178.9090  136.8290 N   0  0  0  0  0  2  0  0  0  0  0  0
  184.7800  178.6250  141.6050 C   0  0  0  0  0  0  0  0  0  0  0  0
  186.1670  179.1710  141.3670 C   0  0  1  0  0  3  0  0  0  0  0  0
  186.7730  177.8810  139.4970 C   0  0  2  0  0  3  0  0  0  0  0  0
  185.8590  178.9030  138.7400 C   0  0  2  0  0  3  0  0  0  0  0  0
  182.5380  176.3610  139.9590 C   0  0  0  0  0  3  0  0  0  0  0  0
  180.4040  177.4740  141.3660 C   0  0  0  0  0  0  0  0  0  0  0  0
  181.6240  178.1510  141.2880 C   0  0  0  0  0  3  0  0  0  0  0  0
  181.3190  175.6830  140.0300 C   0  0  0  0  0  3  0  0  0  0  0  0
  182.7110  177.5920  140.6080 C   0  0  0  0  0  0  0  0  0  0  0  0
  179.3500  178.0280  142.0640 O   0  0  0  0  0  1  0  0  0  0  0  0
  180.2510  176.2350  140.7460 C   0  0  0  0  0  3  0  0  0  0  0  0
  185.8950  177.2870  135.2310 C   0  0  0  0  0  2  0  0  0  0  0  0
  184.9280  174.9450  135.5030 C   0  0  2  0  0  3  0  0  0  0  0  0
  184.9170  176.5300  137.4760 C   0  0  0  0  0  2  0  0  0  0  0  0
  185.4150  175.1950  136.9330 C   0  0  0  0  0  2  0  0  0  0  0  0
  185.0670  176.1760  134.5940 C   0  0  0  0  0  2  0  0  0  0  0  0
  185.2410  177.7130  136.5450 C   0  0  1  0  0  3  0  0  0  0  0  0
  183.4750  174.4880  135.5110 C   0  0  0  0  0  2  0  0  0  0  0  0
  182.5390  175.6060  135.0680 C   0  0  0  0  0  2  0  0  0  0  0  0
  181.5550  175.9730  136.1620 C   0  0  0  0  0  1  0  0  0  0  0  0
  184.3980  178.2790  143.0040 C   0  0  0  0  0  3  0  0  0  0  0  0
  183.8580  179.1230  143.8830 C   0  0  0  0  0  0  0  0  0  0  0  0
  183.6270  180.4510  143.5440 O   0  0  0  0  0  1  0  0  0  0  0  0
  183.5740  178.6350  145.2670 C   0  0  0  0  0  2  0  0  0  0  0  0
  184.6870  178.9700  146.2470 C   0  0  2  0  0  3  0  0  0  0  0  0
  185.4510  180.0310  145.7850 F   0  0  0  0  0  0  0  0  0  0  0  0
  185.4780  177.8320  146.4960 O   0  0  0  0  0  0  0  0  0  0  0  0
  186.7370  178.2930  146.9450 C   0  0  1  0  0  3  0  0  0  0  0  0
  186.6840  178.6430  148.3060 O   0  0  0  0  0  1  0  0  0  0  0  0
  188.0080  176.2890  143.2140 C   0  0  0  0  0  2  0  0  0  0  0  0
  190.6190  175.9990  146.9540 O   0  0  0  0  0  0  0  0  0  0  0  0
  187.8500  177.2550  146.6460 C   0  0  1  0  0  0  0  0  0  0  0  0
  189.2890  179.0000  145.6580 O   0  0  0  0  0  1  0  0  0  0  0  0
  189.2690  177.8920  146.5170 C   0  0  2  0  0  3  0  0  0  0  0  0
  187.4610  177.1320  144.3540 C   0  0  0  0  0  2  0  0  0  0  0  0
  191.1870  176.9890  144.9040 C   0  0  1  0  0  3  0  0  0  0  0  0
  189.4580  175.8590  143.4700 C   0  0  0  0  0  2  0  0  0  0  0  0
  190.3500  176.8920  146.1600 C   0  0  0  0  0  0  0  0  0  0  0  0
  187.9060  176.4410  147.7620 F   0  0  0  0  0  0  0  0  0  0  0  0
  190.3410  177.0820  143.6330 C   0  0  0  0  0  2  0  0  0  0  0  0
  187.5060  176.4100  145.5560 O   0  0  0  0  0  0  0  0  0  0  0  0
  192.0630  178.1460  144.9890 N   0  0  0  0  0  2  0  0  0  0  0  0
  191.6430  179.0720  143.9530 C   0  0  0  0  0  1  0  0  0  0  0  0
  1 21  1  0  0  0  0
  1 13  2  0  0  0  0
  4  3  2  0  0  0  0
  5  9  2  0  0  0  0
  6  5  1  0  0  0  0
  6  8  2  0  0  0  0
  7 14  1  0  0  0  0
  8  4  1  0  0  0  0
  9  3  1  0  0  0  0
 10  1  1  0  0  0  0
 11 12  1  1  0  0  0
 11 16  1  0  0  0  0
 12  5  1  0  0  0  0
 13 33  1  0  0  0  0
 14 13  1  0  0  0  0
 14  2  1  1  0  0  0
 15  9  1  6  0  0  0
 15  7  1  0  0  0  0
 16 10  1  6  0  0  0
 16 15  1  0  0  0  0
 17 20  2  0  0  0  0
 17 21  1  0  0  0  0
 18 22  1  0  0  0  0
 19 18  1  0  0  0  0
 20 23  1  0  0  0  0
 21 19  2  0  0  0  0
 23 18  2  0  0  0  0
 25 30  1  1  0  0  0
 25 27  1  0  0  0  0
 27 26  1  0  0  0  0
 28 24  1  0  0  0  0
 28 25  1  0  0  0  0
 29 24  1  6  0  0  0
 29 11  1  0  0  0  0
 29 26  1  0  0  0  0
 31 30  1  0  0  0  0
 31 32  1  0  0  0  0
 33 34  2  0  0  0  0
 34 36  1  0  0  0  0
 35 34  1  0  0  0  0
 36 37  1  0  0  0  0
 37 38  1  6  0  0  0
 37 39  1  0  0  0  0
 39 40  1  0  0  0  0
 40 41  1  1  0  0  0
 42 49  1  0  0  0  0
 42 47  1  0  0  0  0
 44 40  1  0  0  0  0
 44 51  1  1  0  0  0
 46 45  1  6  0  0  0
 46 44  1  0  0  0  0
 47 53  1  0  0  0  0
 48 54  1  1  0  0  0
 48 50  1  0  0  0  0
 49 52  1  0  0  0  0
 50 46  1  0  0  0  0
 50 43  2  0  0  0  0
 52 48  1  0  0  0  0
 53 44  1  0  0  0  0
 55 54  1  0  0  0  0
M  END
>  <MODEL>
6

>  <REMARK>
 VINA RESULT:      -6.7      5.110      9.253
  Name = 
  11 active torsions:
  status: ('A' for Active; 'I' for Inactive)
    1  A    between atoms: C_2  and  C_44
    2  A    between atoms: C_4  and  C_37
    3  A    between atoms: C_6  and  C_20
    4  A    between atoms: C_7  and  C_8
    5  A    between atoms: C_7  and  O_22
    6  A    between atoms: C_8  and  C_35
    7  A    between atoms: C_10  and  C_18
    8  A    between atoms: C_10  and  C_32
    9  A    between atoms: N_11  and  C_29
   10  A    between atoms: C_20  and  O_22
   11  A    between atoms: C_33  and  C_52
                            x       y       z     vdW  Elec       q    Type
                         _______ _______ _______ _____ _____    ______ ____

>  <TORSDO>
F 11

$$$$
=
 OpenBabel11052415053D

 55 60  0  0  1  0  0  0  0  0999 V2000
  188.9090  177.2670  138.1140 C   0  0  0  0  0  0  0  0  0  0  0  0
  188.2690  176.0360  134.5950 C   0  0  0  0  0  1  0  0  0  0  0  0
  184.4690  174.3510  137.2680 C   0  0  0  0  0  3  0  0  0  0  0  0
  183.1440  173.9180  137.1550 C   0  0  0  0  0  3  0  0  0  0  0  0
  183.6650  176.5880  137.6690 C   0  0  0  0  0  0  0  0  0  0  0  0
  182.3580  176.1290  137.5020 C   0  0  0  0  0  3  0  0  0  0  0  0
  186.9330  175.5620  136.5440 O   0  0  0  0  0  0  0  0  0  0  0  0
  182.1230  174.8120  137.2630 N   0  0  0  0  0  0  0  0  0  0  0  0
  184.7410  175.6990  137.4890 C   0  0  0  0  0  0  0  0  0  0  0  0
  187.6890  178.1500  138.3390 C   0  0  0  0  0  2  0  0  0  0  0  0
  185.1950  178.3970  138.5170 C   0  0  2  0  0  3  0  0  0  0  0  0
  183.9030  177.9580  138.0020 N   0  0  0  0  0  2  0  0  0  0  0  0
  189.0740  176.5670  136.9540 C   0  0  0  0  0  0  0  0  0  0  0  0
  187.8970  176.4400  136.0180 C   0  0  1  0  0  3  0  0  0  0  0  0
  186.1780  176.1600  137.5980 C   0  0  2  0  0  3  0  0  0  0  0  0
  186.3360  177.7100  137.7540 C   0  0  2  0  0  3  0  0  0  0  0  0
  191.2860  177.3660  138.9550 C   0  0  0  0  0  3  0  0  0  0  0  0
  190.4160  177.1130  141.5920 C   0  0  0  0  0  0  0  0  0  0  0  0
  189.4900  177.1240  140.5440 C   0  0  0  0  0  3  0  0  0  0  0  0
  192.2140  177.3510  139.9990 C   0  0  0  0  0  3  0  0  0  0  0  0
  189.9110  177.2770  139.2200 C   0  0  0  0  0  0  0  0  0  0  0  0
  189.9810  176.9890  142.8960 O   0  0  0  0  0  1  0  0  0  0  0  0
  191.7780  177.2360  141.3230 C   0  0  0  0  0  3  0  0  0  0  0  0
  186.1570  179.3250  140.6800 C   0  0  0  0  0  2  0  0  0  0  0  0
  184.8940  179.0560  142.8770 C   0  0  2  0  0  3  0  0  0  0  0  0
  183.9480  178.0280  140.7660 C   0  0  0  0  0  2  0  0  0  0  0  0
  183.7200  179.0280  141.8950 C   0  0  0  0  0  2  0  0  0  0  0  0
  186.2640  179.0740  142.1810 C   0  0  0  0  0  2  0  0  0  0  0  0
  185.2940  178.2350  140.0460 C   0  0  1  0  0  3  0  0  0  0  0  0
  184.8250  177.8600  143.8190 C   0  0  0  0  0  2  0  0  0  0  0  0
  185.9660  177.8830  144.8300 C   0  0  0  0  0  2  0  0  0  0  0  0
  185.5910  178.6700  146.0710 C   0  0  0  0  0  1  0  0  0  0  0  0
  190.3050  175.7880  136.6340 C   0  0  0  0  0  3  0  0  0  0  0  0
  190.4960  174.5010  136.9270 C   0  0  0  0  0  0  0  0  0  0  0  0
  189.5240  173.7750  137.6030 O   0  0  0  0  0  1  0  0  0  0  0  0
  191.8080  173.8730  136.5820 C   0  0  0  0  0  2  0  0  0  0  0  0
  191.7730  173.1340  135.2540 C   0  0  2  0  0  3  0  0  0  0  0  0
  190.9030  172.0550  135.3100 F   0  0  0  0  0  0  0  0  0  0  0  0
  193.0700  172.7330  134.8820 O   0  0  0  0  0  0  0  0  0  0  0  0
  193.7140  172.2720  136.0540 C   0  0  1  0  0  3  0  0  0  0  0  0
  193.3080  170.9620  136.3640 O   0  0  0  0  0  1  0  0  0  0  0  0
  196.3500  175.7030  135.1410 C   0  0  0  0  0  2  0  0  0  0  0  0
  198.1520  171.8020  136.6980 O   0  0  0  0  0  0  0  0  0  0  0  0
  195.2540  172.3990  135.9300 C   0  0  1  0  0  0  0  0  0  0  0  0
  195.4000  173.4670  138.1520 O   0  0  0  0  0  1  0  0  0  0  0  0
  195.9770  172.5050  137.3100 C   0  0  2  0  0  3  0  0  0  0  0  0
  195.2780  174.6870  135.5000 C   0  0  0  0  0  2  0  0  0  0  0  0
  198.2040  173.9020  137.7430 C   0  0  1  0  0  3  0  0  0  0  0  0
  197.7150  175.3190  135.7240 C   0  0  0  0  0  2  0  0  0  0  0  0
  197.4760  172.6960  137.1930 C   0  0  0  0  0  0  0  0  0  0  0  0
  195.6810  171.2070  135.3760 F   0  0  0  0  0  0  0  0  0  0  0  0
  197.6260  175.2250  137.2360 C   0  0  0  0  0  2  0  0  0  0  0  0
  195.6300  173.4190  135.0140 O   0  0  0  0  0  0  0  0  0  0  0  0
  198.1590  173.8800  139.1960 N   0  0  0  0  0  2  0  0  0  0  0  0
  198.1540  175.2620  139.6410 C   0  0  0  0  0  1  0  0  0  0  0  0
  1 10  1  0  0  0  0
  1 21  1  0  0  0  0
  3  9  1  0  0  0  0
  4  8  1  0  0  0  0
  4  3  2  0  0  0  0
  5 12  1  0  0  0  0
  6  5  1  0  0  0  0
  8  6  2  0  0  0  0
  9 15  1  0  0  0  0
  9  5  2  0  0  0  0
 11 12  1  6  0  0  0
 11 29  1  0  0  0  0
 13  1  2  0  0  0  0
 14  2  1  6  0  0  0
 14  7  1  0  0  0  0
 14 13  1  0  0  0  0
 15  7  1  6  0  0  0
 15 16  1  0  0  0  0
 16 10  1  1  0  0  0
 16 11  1  0  0  0  0
 17 21  2  0  0  0  0
 17 20  1  0  0  0  0
 18 22  1  0  0  0  0
 19 18  2  0  0  0  0
 20 23  2  0  0  0  0
 21 19  1  0  0  0  0
 23 18  1  0  0  0  0
 24 28  1  0  0  0  0
 25 30  1  1  0  0  0
 26 27  1  0  0  0  0
 27 25  1  0  0  0  0
 28 25  1  0  0  0  0
 29 24  1  1  0  0  0
 29 26  1  0  0  0  0
 30 31  1  0  0  0  0
 31 32  1  0  0  0  0
 33 34  2  0  0  0  0
 33 13  1  0  0  0  0
 34 35  1  0  0  0  0
 36 34  1  0  0  0  0
 37 38  1  1  0  0  0
 37 36  1  0  0  0  0
 39 37  1  0  0  0  0
 39 40  1  0  0  0  0
 40 41  1  6  0  0  0
 42 47  1  0  0  0  0
 42 49  1  0  0  0  0
 43 50  2  0  0  0  0
 44 51  1  6  0  0  0
 44 40  1  0  0  0  0
 44 46  1  0  0  0  0
 46 45  1  6  0  0  0
 48 54  1  1  0  0  0
 49 52  1  0  0  0  0
 50 46  1  0  0  0  0
 50 48  1  0  0  0  0
 52 48  1  0  0  0  0
 53 47  1  0  0  0  0
 53 44  1  0  0  0  0
 54 55  1  0  0  0  0
M  END
>  <MODEL>
7

>  <REMARK>
 VINA RESULT:      -6.7      1.734      2.290
  Name = 
  11 active torsions:
  status: ('A' for Active; 'I' for Inactive)
    1  A    between atoms: C_2  and  C_44
    2  A    between atoms: C_4  and  C_37
    3  A    between atoms: C_6  and  C_20
    4  A    between atoms: C_7  and  C_8
    5  A    between atoms: C_7  and  O_22
    6  A    between atoms: C_8  and  C_35
    7  A    between atoms: C_10  and  C_18
    8  A    between atoms: C_10  and  C_32
    9  A    between atoms: N_11  and  C_29
   10  A    between atoms: C_20  and  O_22
   11  A    between atoms: C_33  and  C_52
                            x       y       z     vdW  Elec       q    Type
                         _______ _______ _______ _____ _____    ______ ____

>  <TORSDO>
F 11

$$$$
=
 OpenBabel11052415053D

 55 60  0  0  1  0  0  0  0  0999 V2000
  182.0020  177.3480  138.4770 C   0  0  0  0  0  0  0  0  0  0  0  0
  184.4160  180.2380  138.8380 C   0  0  0  0  0  1  0  0  0  0  0  0
  187.2200  176.3540  137.6240 C   0  0  0  0  0  3  0  0  0  0  0  0
  188.4490  176.0140  137.0510 C   0  0  0  0  0  3  0  0  0  0  0  0
  186.2050  176.2100  135.4420 C   0  0  0  0  0  0  0  0  0  0  0  0
  187.4570  175.9210  134.8990 C   0  0  0  0  0  3  0  0  0  0  0  0
  184.9870  177.9460  138.3580 O   0  0  0  0  0  0  0  0  0  0  0  0
  188.5440  175.8170  135.7070 N   0  0  0  0  0  0  0  0  0  0  0  0
  186.0930  176.4910  136.8170 C   0  0  0  0  0  0  0  0  0  0  0  0
  182.2020  176.9840  137.0120 C   0  0  0  0  0  2  0  0  0  0  0  0
  183.7040  176.1910  135.1600 C   0  0  2  0  0  3  0  0  0  0  0  0
  185.0500  176.2380  134.5990 N   0  0  0  0  0  2  0  0  0  0  0  0
  182.7270  178.3440  139.0670 C   0  0  0  0  0  0  0  0  0  0  0  0
  183.9360  178.8800  138.3380 C   0  0  1  0  0  3  0  0  0  0  0  0
  184.7700  176.8710  137.4440 C   0  0  2  0  0  3  0  0  0  0  0  0
  183.6140  177.0800  136.4090 C   0  0  2  0  0  3  0  0  0  0  0  0
  180.0830  177.2000  140.1090 C   0  0  0  0  0  3  0  0  0  0  0  0
  179.8280  174.4640  139.6360 C   0  0  0  0  0  0  0  0  0  0  0  0
  180.8120  175.2030  138.9730 C   0  0  0  0  0  3  0  0  0  0  0  0
  179.1030  176.4640  140.7770 C   0  0  0  0  0  3  0  0  0  0  0  0
  180.9330  176.5800  139.1810 C   0  0  0  0  0  0  0  0  0  0  0  0
  179.7040  173.1100  139.3990 O   0  0  0  0  0  1  0  0  0  0  0  0
  178.9650  175.0930  140.5330 C   0  0  0  0  0  3  0  0  0  0  0  0
  184.0770  173.7310  134.6360 C   0  0  0  0  0  2  0  0  0  0  0  0
  183.4880  171.9400  136.3500 C   0  0  2  0  0  3  0  0  0  0  0  0
  183.0060  174.3690  136.8750 C   0  0  0  0  0  2  0  0  0  0  0  0
  183.7730  173.1170  137.2880 C   0  0  0  0  0  2  0  0  0  0  0  0
  183.5170  172.3310  134.8650 C   0  0  0  0  0  2  0  0  0  0  0  0
  183.2260  174.7460  135.3990 C   0  0  1  0  0  3  0  0  0  0  0  0
  182.1390  171.3160  136.6800 C   0  0  0  0  0  2  0  0  0  0  0  0
  181.0480  171.8260  135.7450 C   0  0  0  0  0  2  0  0  0  0  0  0
  179.6800  171.7520  136.3950 C   0  0  0  0  0  1  0  0  0  0  0  0
  182.4860  178.8200  140.4590 C   0  0  0  0  0  3  0  0  0  0  0  0
  183.1650  178.4220  141.5340 C   0  0  0  0  0  0  0  0  0  0  0  0
  184.1750  177.4740  141.4270 O   0  0  0  0  0  1  0  0  0  0  0  0
  182.7700  178.9590  142.8730 C   0  0  0  0  0  2  0  0  0  0  0  0
  183.8910  178.8690  143.8950 C   0  0  2  0  0  3  0  0  0  0  0  0
  183.4990  179.4060  145.1110 F   0  0  0  0  0  0  0  0  0  0  0  0
  185.0520  179.4970  143.4030 O   0  0  0  0  0  0  0  0  0  0  0  0
  186.1430  178.9930  144.1490 C   0  0  1  0  0  3  0  0  0  0  0  0
  185.7500  178.6870  145.4640 O   0  0  0  0  0  1  0  0  0  0  0  0
  188.4190  178.6480  140.3730 C   0  0  0  0  0  2  0  0  0  0  0  0
  188.3200  175.1370  143.2980 O   0  0  0  0  0  0  0  0  0  0  0  0
  186.7960  177.7830  143.4320 C   0  0  1  0  0  0  0  0  0  0  0  0
  189.0410  178.4760  144.1870 O   0  0  0  0  0  1  0  0  0  0  0  0
  188.1780  177.3810  144.0350 C   0  0  2  0  0  3  0  0  0  0  0  0
  187.6810  178.9990  141.6550 C   0  0  0  0  0  2  0  0  0  0  0  0
  190.2020  176.3690  142.6270 C   0  0  1  0  0  3  0  0  0  0  0  0
  189.2450  177.3650  140.5250 C   0  0  0  0  0  2  0  0  0  0  0  0
  188.8510  176.2410  143.2960 C   0  0  0  0  0  0  0  0  0  0  0  0
  185.9570  176.7120  143.6760 F   0  0  0  0  0  0  0  0  0  0  0  0
  190.2640  177.5340  141.6370 C   0  0  0  0  0  2  0  0  0  0  0  0
  186.8200  177.9530  142.0210 O   0  0  0  0  0  0  0  0  0  0  0  0
  191.2340  176.5350  143.6370 N   0  0  0  0  0  2  0  0  0  0  0  0
  191.6670  175.2050  144.0230 C   0  0  0  0  0  1  0  0  0  0  0  0
  1 13  2  0  0  0  0
  1 21  1  0  0  0  0
  4  3  1  0  0  0  0
  5  9  1  0  0  0  0
  6  5  2  0  0  0  0
  6  8  1  0  0  0  0
  8  4  2  0  0  0  0
  9  3  2  0  0  0  0
 10  1  1  0  0  0  0
 11 12  1  1  0  0  0
 11 29  1  0  0  0  0
 11 16  1  0  0  0  0
 12  5  1  0  0  0  0
 13 33  1  0  0  0  0
 14  7  1  0  0  0  0
 14  2  1  1  0  0  0
 14 13  1  0  0  0  0
 15  9  1  6  0  0  0
 15  7  1  0  0  0  0
 16 10  1  1  0  0  0
 16 15  1  0  0  0  0
 17 20  1  0  0  0  0
 18 23  1  0  0  0  0
 19 21  1  0  0  0  0
 19 18  2  0  0  0  0
 21 17  2  0  0  0  0
 22 18  1  0  0  0  0
 23 20  2  0  0  0  0
 24 28  1  0  0  0  0
 25 30  1  1  0  0  0
 25 27  1  0  0  0  0
 26 27  1  0  0  0  0
 28 25  1  0  0  0  0
 29 24  1  1  0  0  0
 29 26  1  0  0  0  0
 31 32  1  0  0  0  0
 31 30  1  0  0  0  0
 33 34  2  0  0  0  0
 34 36  1  0  0  0  0
 35 34  1  0  0  0  0
 36 37  1  0  0  0  0
 37 38  1  1  0  0  0
 39 37  1  0  0  0  0
 39 40  1  0  0  0  0
 40 41  1  1  0  0  0
 42 49  1  0  0  0  0
 42 47  1  0  0  0  0
 44 51  1  1  0  0  0
 44 46  1  0  0  0  0
 44 40  1  0  0  0  0
 46 45  1  6  0  0  0
 47 53  1  0  0  0  0
 48 50  1  0  0  0  0
 48 54  1  1  0  0  0
 49 52  1  0  0  0  0
 50 43  2  0  0  0  0
 50 46  1  0  0  0  0
 52 48  1  0  0  0  0
 53 44  1  0  0  0  0
 54 55  1  0  0  0  0
M  END
>  <MODEL>
8

>  <REMARK>
 VINA RESULT:      -6.3      4.966      8.911
  Name = 
  11 active torsions:
  status: ('A' for Active; 'I' for Inactive)
    1  A    between atoms: C_2  and  C_44
    2  A    between atoms: C_4  and  C_37
    3  A    between atoms: C_6  and  C_20
    4  A    between atoms: C_7  and  C_8
    5  A    between atoms: C_7  and  O_22
    6  A    between atoms: C_8  and  C_35
    7  A    between atoms: C_10  and  C_18
    8  A    between atoms: C_10  and  C_32
    9  A    between atoms: N_11  and  C_29
   10  A    between atoms: C_20  and  O_22
   11  A    between atoms: C_33  and  C_52
                            x       y       z     vdW  Elec       q    Type
                         _______ _______ _______ _____ _____    ______ ____

>  <TORSDO>
F 11

$$$$
=
 OpenBabel11052415053D

 55 60  0  0  1  0  0  0  0  0999 V2000
  184.0170  176.7400  136.9770 C   0  0  0  0  0  0  0  0  0  0  0  0
  186.4400  175.0800  134.5940 C   0  0  0  0  0  1  0  0  0  0  0  0
  183.7670  171.3880  136.5020 C   0  0  0  0  0  3  0  0  0  0  0  0
  183.3520  170.0770  136.2470 C   0  0  0  0  0  3  0  0  0  0  0  0
  181.7600  172.1910  135.4340 C   0  0  0  0  0  0  0  0  0  0  0  0
  181.4030  170.8720  135.1540 C   0  0  0  0  0  3  0  0  0  0  0  0
  184.8420  173.9700  136.0160 O   0  0  0  0  0  0  0  0  0  0  0  0
  182.1920  169.8470  135.5730 N   0  0  0  0  0  0  0  0  0  0  0  0
  182.9910  172.4570  136.0640 C   0  0  0  0  0  0  0  0  0  0  0  0
  182.6840  176.3620  136.3460 C   0  0  0  0  0  2  0  0  0  0  0  0
  181.0460  174.5960  135.6310 C   0  0  2  0  0  3  0  0  0  0  0  0
  180.8870  173.2610  135.0640 N   0  0  0  0  0  2  0  0  0  0  0  0
  185.2000  176.3030  136.4530 C   0  0  0  0  0  0  0  0  0  0  0  0
  185.1650  175.2020  135.4210 C   0  0  1  0  0  3  0  0  0  0  0  0
  183.4540  173.8730  136.3340 C   0  0  2  0  0  3  0  0  0  0  0  0
  182.5320  174.9720  135.7060 C   0  0  2  0  0  3  0  0  0  0  0  0
  183.9620  177.1520  139.4660 C   0  0  0  0  0  3  0  0  0  0  0  0
  183.6220  179.8890  139.0550 C   0  0  0  0  0  0  0  0  0  0  0  0
  183.7270  179.0220  137.9630 C   0  0  0  0  0  3  0  0  0  0  0  0
  183.8520  178.0150  140.5590 C   0  0  0  0  0  3  0  0  0  0  0  0
  183.9250  177.6510  138.1550 C   0  0  0  0  0  0  0  0  0  0  0  0
  183.4540  181.2440  138.8470 O   0  0  0  0  0  1  0  0  0  0  0  0
  183.6920  179.3900  140.3540 C   0  0  0  0  0  3  0  0  0  0  0  0
  180.2860  173.4390  137.7640 C   0  0  0  0  0  2  0  0  0  0  0  0
  180.0700  174.7480  139.9390 C   0  0  2  0  0  3  0  0  0  0  0  0
  180.7320  175.9620  137.8190 C   0  0  0  0  0  2  0  0  0  0  0  0
  181.1450  175.5810  139.2370 C   0  0  0  0  0  2  0  0  0  0  0  0
  179.4900  173.6380  139.0490 C   0  0  0  0  0  2  0  0  0  0  0  0
  180.3060  174.7470  136.9740 C   0  0  1  0  0  3  0  0  0  0  0  0
  178.9390  175.6450  140.4260 C   0  0  0  0  0  2  0  0  0  0  0  0
  179.3540  177.1110  140.4240 C   0  0  0  0  0  2  0  0  0  0  0  0
  179.9020  177.5350  141.7730 C   0  0  0  0  0  1  0  0  0  0  0  0
  186.5320  176.7420  136.9590 C   0  0  0  0  0  3  0  0  0  0  0  0
  187.4680  175.9340  137.4560 C   0  0  0  0  0  0  0  0  0  0  0  0
  187.2430  174.5670  137.5640 O   0  0  0  0  0  1  0  0  0  0  0  0
  188.7390  176.5340  137.9680 C   0  0  0  0  0  2  0  0  0  0  0  0
  188.5820  177.9950  138.3560 C   0  0  2  0  0  3  0  0  0  0  0  0
  188.7860  178.8240  137.2630 F   0  0  0  0  0  0  0  0  0  0  0  0
  189.4500  178.3160  139.4170 O   0  0  0  0  0  0  0  0  0  0  0  0
  188.6410  178.6300  140.5340 C   0  0  1  0  0  3  0  0  0  0  0  0
  187.2930  178.7550  140.1540 O   0  0  0  0  0  1  0  0  0  0  0  0
  190.8900  178.7990  144.3370 C   0  0  0  0  0  2  0  0  0  0  0  0
  187.9670  175.3700  143.5740 O   0  0  0  0  0  0  0  0  0  0  0  0
  188.8410  177.5980  141.6740 C   0  0  1  0  0  0  0  0  0  0  0  0
  187.2220  178.7880  143.1080 O   0  0  0  0  0  1  0  0  0  0  0  0
  187.6310  177.5250  142.6570 C   0  0  2  0  0  3  0  0  0  0  0  0
  190.1360  178.9770  143.0290 C   0  0  0  0  0  2  0  0  0  0  0  0
  187.8330  176.9960  145.2610 C   0  0  1  0  0  3  0  0  0  0  0  0
  190.2350  177.7390  145.2310 C   0  0  0  0  0  2  0  0  0  0  0  0
  187.8470  176.5660  143.8110 C   0  0  0  0  0  0  0  0  0  0  0  0
  188.8910  176.3650  141.0520 F   0  0  0  0  0  0  0  0  0  0  0  0
  188.8060  178.1400  145.5490 C   0  0  0  0  0  2  0  0  0  0  0  0
  190.0920  177.7640  142.3260 O   0  0  0  0  0  0  0  0  0  0  0  0
  186.4880  177.3970  145.6380 N   0  0  0  0  0  2  0  0  0  0  0  0
  186.6110  178.2350  146.8170 C   0  0  0  0  0  1  0  0  0  0  0  0
  1 21  1  0  0  0  0
  4  3  1  0  0  0  0
  5  9  1  0  0  0  0
  6  5  2  0  0  0  0
  6  8  1  0  0  0  0
  8  4  2  0  0  0  0
  9 15  1  0  0  0  0
  9  3  2  0  0  0  0
 10  1  1  0  0  0  0
 11 12  1  1  0  0  0
 11 16  1  0  0  0  0
 11 29  1  0  0  0  0
 12  5  1  0  0  0  0
 13 33  1  0  0  0  0
 13  1  2  0  0  0  0
 14  2  1  1  0  0  0
 14  7  1  0  0  0  0
 14 13  1  0  0  0  0
 15  7  1  6  0  0  0
 16 15  1  0  0  0  0
 16 10  1  1  0  0  0
 17 20  1  0  0  0  0
 18 23  1  0  0  0  0
 19 21  1  0  0  0  0
 19 18  2  0  0  0  0
 21 17  2  0  0  0  0
 22 18  1  0  0  0  0
 23 20  2  0  0  0  0
 24 28  1  0  0  0  0
 25 30  1  6  0  0  0
 26 27  1  0  0  0  0
 27 25  1  0  0  0  0
 28 25  1  0  0  0  0
 29 24  1  1  0  0  0
 29 26  1  0  0  0  0
 31 30  1  0  0  0  0
 31 32  1  0  0  0  0
 33 34  2  0  0  0  0
 34 35  1  0  0  0  0
 34 36  1  0  0  0  0
 36 37  1  0  0  0  0
 37 38  1  6  0  0  0
 37 39  1  0  0  0  0
 39 40  1  0  0  0  0
 40 41  1  6  0  0  0
 40 44  1  0  0  0  0
 42 49  1  0  0  0  0
 43 50  2  0  0  0  0
 44 51  1  6  0  0  0
 44 53  1  0  0  0  0
 44 46  1  0  0  0  0
 46 45  1  1  0  0  0
 46 50  1  0  0  0  0
 47 42  1  0  0  0  0
 48 52  1  0  0  0  0
 48 54  1  6  0  0  0
 49 52  1  0  0  0  0
 50 48  1  0  0  0  0
 53 47  1  0  0  0  0
 54 55  1  0  0  0  0
M  END
>  <MODEL>
9

>  <REMARK>
 VINA RESULT:      -6.3      4.653      7.412
  Name = 
  11 active torsions:
  status: ('A' for Active; 'I' for Inactive)
    1  A    between atoms: C_2  and  C_44
    2  A    between atoms: C_4  and  C_37
    3  A    between atoms: C_6  and  C_20
    4  A    between atoms: C_7  and  C_8
    5  A    between atoms: C_7  and  O_22
    6  A    between atoms: C_8  and  C_35
    7  A    between atoms: C_10  and  C_18
    8  A    between atoms: C_10  and  C_32
    9  A    between atoms: N_11  and  C_29
   10  A    between atoms: C_20  and  O_22
   11  A    between atoms: C_33  and  C_52
                            x       y       z     vdW  Elec       q    Type
                         _______ _______ _______ _____ _____    ______ ____

>  <TORSDO>
F 11

$$$$
