=
 OpenBabel11052414403D

 32 37  0  0  1  0  0  0  0  0999 V2000
  189.7140  177.4990  141.2680 C   0  0  1  0  0  3  0  0  0  0  0  0
  188.0350  177.6920  143.0880 C   0  0  1  0  0  3  0  0  0  0  0  0
  191.1510  177.8130  140.8270 C   0  0  0  0  0  2  0  0  0  0  0  0
  189.4680  178.0140  142.6950 C   0  0  1  0  0  3  0  0  0  0  0  0
  187.8140  177.8410  144.5830 C   0  0  0  0  0  0  0  0  0  0  0  0
  182.3610  179.1150  143.2450 C   0  0  0  0  0  2  0  0  0  0  0  0
  187.1090  178.5280  142.1990 C   0  0  1  0  0  3  0  0  0  0  0  0
  184.3150  178.5310  144.5540 N   0  0  0  0  0  0  0  0  0  0  0  0
  185.5360  178.3530  144.1860 C   0  0  0  0  0  0  0  0  0  0  0  0
  190.5050  177.5360  143.7510 C   0  0  1  0  0  3  0  0  0  0  0  0
  186.6310  178.1030  145.0720 N   0  0  0  0  0  0  0  0  0  0  0  0
  189.9230  176.7360  144.7590 O   0  0  0  0  0  0  0  0  0  0  0  0
  191.6710  176.7850  143.1090 C   0  0  0  0  0  2  0  0  0  0  0  0
  187.2270  177.9930  140.7750 C   0  0  0  0  0  2  0  0  0  0  0  0
  188.6850  178.1070  140.2800 C   0  0  2  0  0  3  0  0  0  0  0  0
  185.7260  178.4860  142.7590 C   0  0  0  0  0  0  0  0  0  0  0  0
  188.9930  177.5270  145.4710 C   0  0  2  0  0  3  0  0  0  0  0  0
  192.2110  177.5660  141.9130 C   0  0  0  0  0  2  0  0  0  0  0  0
  183.6430  178.7910  143.3210 C   0  0  0  0  0  0  0  0  0  0  0  0
  184.5760  178.8110  142.1880 C   0  0  0  0  0  3  0  0  0  0  0  0
  187.7470  178.3980  136.8480 C   0  0  0  0  0  0  0  0  0  0  0  0
  187.0470  174.9530  135.9950 O   0  0  0  0  0  0  0  0  0  0  0  0
  187.1780  179.4890  136.5760 O   0  0  0  0  0  0  0  0  0  0  0  0
  188.8740  175.5830  137.3600 C   0  0  0  0  0  2  0  0  0  0  0  0
  188.8110  177.5160  138.9000 C   0  0  0  0  0  0  0  0  0  0  0  0
  187.2050  177.2150  136.3200 O   0  0  0  0  0  0  0  0  0  0  0  0
  188.7660  176.1880  138.7250 C   0  0  0  0  0  3  0  0  0  0  0  0
  188.9820  178.4150  137.7060 C   0  0  2  0  0  3  0  0  0  0  0  0
  189.2980  179.7080  138.0950 F   0  0  0  0  0  0  0  0  0  0  0  0
  187.6660  175.9050  136.5350 C   0  0  0  0  0  0  0  0  0  0  0  0
  188.5560  176.7730  146.7180 C   0  0  0  0  0  2  0  0  0  0  0  0
  188.9150  177.4940  147.8570 O   0  0  0  0  0  1  0  0  0  0  0  0
  1  3  1  6  0  0  0
  1  4  1  0  0  0  0
  2  5  1  1  0  0  0
  3 18  1  0  0  0  0
  4  2  1  0  0  0  0
  4 10  1  0  0  0  0
  5 11  2  0  0  0  0
  5 17  1  0  0  0  0
  6 19  2  0  0  0  0
  7 16  1  0  0  0  0
  7  2  1  0  0  0  0
  9  8  2  0  0  0  0
  9 11  1  0  0  0  0
 10 12  1  0  0  0  0
 12 17  1  0  0  0  0
 13 10  1  0  0  0  0
 14  7  1  0  0  0  0
 15 14  1  0  0  0  0
 15  1  1  0  0  0  0
 16  9  1  0  0  0  0
 17 31  1  0  0  0  0
 18 13  1  0  0  0  0
 19  8  1  0  0  0  0
 20 16  2  0  0  0  0
 20 19  1  0  0  0  0
 21 28  1  0  0  0  0
 22 30  2  0  0  0  0
 23 21  2  0  0  0  0
 24 27  1  0  0  0  0
 25 15  1  0  0  0  0
 26 30  1  0  0  0  0
 26 21  1  0  0  0  0
 27 25  2  0  0  0  0
 28 29  1  0  0  0  0
 28 25  1  0  0  0  0
 30 24  1  0  0  0  0
 31 32  1  0  0  0  0
M  END
>  <MODEL>
1

>  <REMARK>
 VINA RESULT:      -9.0      0.000      0.000
  Name = 
  2 active torsions:
  status: ('A' for Active; 'I' for Inactive)
    1  A    between atoms: C_13  and  C_29
    2  A    between atoms: C_16  and  C_27
                            x       y       z     vdW  Elec       q    Type
                         _______ _______ _______ _____ _____    ______ ____

>  <TORSDO>
F 2

$$$$
=
 OpenBabel11052414403D

 32 37  0  0  1  0  0  0  0  0999 V2000
  189.8760  177.6610  142.0640 C   0  0  1  0  0  3  0  0  0  0  0  0
  187.6980  177.8220  143.2490 C   0  0  1  0  0  3  0  0  0  0  0  0
  191.3570  178.0640  142.0680 C   0  0  0  0  0  2  0  0  0  0  0  0
  189.1600  178.2370  143.2970 C   0  0  1  0  0  3  0  0  0  0  0  0
  187.0070  178.0410  144.5830 C   0  0  0  0  0  0  0  0  0  0  0  0
  182.1920  178.7820  141.5140 C   0  0  0  0  0  2  0  0  0  0  0  0
  187.0530  178.5260  142.0500 C   0  0  1  0  0  3  0  0  0  0  0  0
  183.6630  178.4390  143.4090 N   0  0  0  0  0  0  0  0  0  0  0  0
  184.9460  178.3400  143.4560 C   0  0  0  0  0  0  0  0  0  0  0  0
  189.8370  177.9090  144.6580 C   0  0  1  0  0  3  0  0  0  0  0  0
  185.7160  178.2340  144.6560 N   0  0  0  0  0  0  0  0  0  0  0  0
  189.0130  177.1240  145.4960 O   0  0  0  0  0  0  0  0  0  0  0  0
  191.1880  177.2190  144.4750 C   0  0  0  0  0  2  0  0  0  0  0  0
  187.6480  177.9190  140.7820 C   0  0  0  0  0  2  0  0  0  0  0  0
  189.1780  178.1230  140.7590 C   0  0  2  0  0  3  0  0  0  0  0  0
  185.5690  178.4040  142.1530 C   0  0  0  0  0  0  0  0  0  0  0  0
  187.8610  177.8780  145.8170 C   0  0  2  0  0  3  0  0  0  0  0  0
  192.0310  177.9700  143.4470 C   0  0  0  0  0  2  0  0  0  0  0  0
  183.4020  178.5700  142.0120 C   0  0  0  0  0  0  0  0  0  0  0  0
  184.6420  178.6000  141.2280 C   0  0  0  0  0  3  0  0  0  0  0  0
  188.6290  177.1610  137.3650 C   0  0  0  0  0  0  0  0  0  0  0  0
  190.1030  173.8570  137.3020 O   0  0  0  0  0  0  0  0  0  0  0  0
  187.5770  177.6480  136.8710 O   0  0  0  0  0  0  0  0  0  0  0  0
  191.0860  175.6710  138.4610 C   0  0  0  0  0  2  0  0  0  0  0  0
  189.7690  177.4640  139.5400 C   0  0  0  0  0  0  0  0  0  0  0  0
  188.9150  175.8080  137.1210 O   0  0  0  0  0  0  0  0  0  0  0  0
  190.5040  176.3490  139.6610 C   0  0  0  0  0  3  0  0  0  0  0  0
  189.5320  178.0500  138.1750 C   0  0  2  0  0  3  0  0  0  0  0  0
  189.0160  179.3330  138.2640 F   0  0  0  0  0  0  0  0  0  0  0  0
  190.0090  175.0740  137.6080 C   0  0  0  0  0  0  0  0  0  0  0  0
  187.0970  177.1650  146.9230 C   0  0  0  0  0  2  0  0  0  0  0  0
  187.8570  177.1570  148.0930 O   0  0  0  0  0  1  0  0  0  0  0  0
  1  3  1  6  0  0  0
  1  4  1  0  0  0  0
  2  4  1  0  0  0  0
  2  5  1  1  0  0  0
  3 18  1  0  0  0  0
  4 10  1  0  0  0  0
  5 11  2  0  0  0  0
  5 17  1  0  0  0  0
  6 19  2  0  0  0  0
  7 16  1  0  0  0  0
  7  2  1  0  0  0  0
  8  9  2  0  0  0  0
  9 11  1  0  0  0  0
 10 12  1  0  0  0  0
 12 17  1  0  0  0  0
 13 10  1  0  0  0  0
 14  7  1  0  0  0  0
 15 14  1  0  0  0  0
 15  1  1  0  0  0  0
 16  9  1  0  0  0  0
 17 31  1  0  0  0  0
 18 13  1  0  0  0  0
 19  8  1  0  0  0  0
 20 19  1  0  0  0  0
 20 16  2  0  0  0  0
 21 28  1  0  0  0  0
 22 30  2  0  0  0  0
 23 21  2  0  0  0  0
 24 27  1  0  0  0  0
 25 27  2  0  0  0  0
 25 15  1  0  0  0  0
 26 21  1  0  0  0  0
 26 30  1  0  0  0  0
 28 29  1  0  0  0  0
 28 25  1  0  0  0  0
 30 24  1  0  0  0  0
 31 32  1  0  0  0  0
M  END
>  <MODEL>
2

>  <REMARK>
 VINA RESULT:      -8.9      1.344      1.488
  Name = 
  2 active torsions:
  status: ('A' for Active; 'I' for Inactive)
    1  A    between atoms: C_13  and  C_29
    2  A    between atoms: C_16  and  C_27
                            x       y       z     vdW  Elec       q    Type
                         _______ _______ _______ _____ _____    ______ ____

>  <TORSDO>
F 2

$$$$
=
 OpenBabel11052414403D

 32 37  0  0  1  0  0  0  0  0999 V2000
  187.1630  178.0530  139.1500 C   0  0  1  0  0  3  0  0  0  0  0  0
  187.7520  177.7620  141.5450 C   0  0  1  0  0  3  0  0  0  0  0  0
  187.6150  178.6000  137.7880 C   0  0  0  0  0  2  0  0  0  0  0  0
  188.2410  178.3110  140.2150 C   0  0  1  0  0  3  0  0  0  0  0  0
  188.8770  177.6550  142.5590 C   0  0  0  0  0  0  0  0  0  0  0  0
  184.8150  178.4510  146.5600 C   0  0  0  0  0  2  0  0  0  0  0  0
  186.5500  178.6070  141.9840 C   0  0  1  0  0  3  0  0  0  0  0  0
  186.9500  177.9150  145.5490 N   0  0  0  0  0  0  0  0  0  0  0  0
  187.3130  177.9430  144.3140 C   0  0  0  0  0  0  0  0  0  0  0  0
  189.6640  177.8060  139.8410 C   0  0  1  0  0  3  0  0  0  0  0  0
  188.6410  177.6950  143.8440 N   0  0  0  0  0  0  0  0  0  0  0  0
  190.1280  176.7970  140.7150 O   0  0  0  0  0  0  0  0  0  0  0  0
  189.7340  177.3070  138.3980 C   0  0  0  0  0  2  0  0  0  0  0  0
  185.4020  178.3130  141.0220 C   0  0  0  0  0  2  0  0  0  0  0  0
  185.8090  178.6760  139.5780 C   0  0  2  0  0  3  0  0  0  0  0  0
  186.2440  178.3140  143.4150 C   0  0  0  0  0  0  0  0  0  0  0  0
  190.2500  177.3540  142.0080 C   0  0  2  0  0  3  0  0  0  0  0  0
  189.0890  178.3200  137.4550 C   0  0  0  0  0  2  0  0  0  0  0  0
  185.5710  178.2770  145.4870 C   0  0  0  0  0  0  0  0  0  0  0  0
  185.1510  178.5810  144.1140 C   0  0  0  0  0  3  0  0  0  0  0  0
  182.2790  178.6030  139.0520 C   0  0  0  0  0  0  0  0  0  0  0  0
  181.8480  175.3740  137.4790 O   0  0  0  0  0  0  0  0  0  0  0  0
  181.6300  179.2310  139.9310 O   0  0  0  0  0  0  0  0  0  0  0  0
  183.6560  176.8110  136.9660 C   0  0  0  0  0  2  0  0  0  0  0  0
  184.6990  178.3210  138.6230 C   0  0  0  0  0  0  0  0  0  0  0  0
  181.8060  177.3450  138.6460 O   0  0  0  0  0  0  0  0  0  0  0  0
  184.7560  177.1890  137.9080 C   0  0  0  0  0  3  0  0  0  0  0  0
  183.5140  179.2350  138.4700 C   0  0  2  0  0  3  0  0  0  0  0  0
  183.7580  180.4710  139.0470 F   0  0  0  0  0  0  0  0  0  0  0  0
  182.4010  176.4790  137.7140 C   0  0  0  0  0  0  0  0  0  0  0  0
  190.9950  176.3710  142.8990 C   0  0  0  0  0  2  0  0  0  0  0  0
  190.3780  175.1210  142.8450 O   0  0  0  0  0  1  0  0  0  0  0  0
  1  3  1  6  0  0  0
  1 15  1  0  0  0  0
  1  4  1  0  0  0  0
  2  7  1  0  0  0  0
  2  5  1  1  0  0  0
  4  2  1  0  0  0  0
  5 11  2  0  0  0  0
  7 16  1  0  0  0  0
  9  8  2  0  0  0  0
 10  4  1  0  0  0  0
 10 12  1  0  0  0  0
 11  9  1  0  0  0  0
 12 17  1  0  0  0  0
 13 10  1  0  0  0  0
 14  7  1  0  0  0  0
 15 14  1  0  0  0  0
 16 20  2  0  0  0  0
 16  9  1  0  0  0  0
 17  5  1  0  0  0  0
 17 31  1  0  0  0  0
 18  3  1  0  0  0  0
 18 13  1  0  0  0  0
 19  8  1  0  0  0  0
 19  6  2  0  0  0  0
 20 19  1  0  0  0  0
 21 23  2  0  0  0  0
 22 30  2  0  0  0  0
 24 30  1  0  0  0  0
 24 27  1  0  0  0  0
 25 15  1  0  0  0  0
 26 21  1  0  0  0  0
 27 25  2  0  0  0  0
 28 25  1  0  0  0  0
 28 29  1  0  0  0  0
 28 21  1  0  0  0  0
 30 26  1  0  0  0  0
 32 31  1  0  0  0  0
M  END
>  <MODEL>
3

>  <REMARK>
 VINA RESULT:      -8.5      3.019      4.200
  Name = 
  2 active torsions:
  status: ('A' for Active; 'I' for Inactive)
    1  A    between atoms: C_13  and  C_29
    2  A    between atoms: C_16  and  C_27
                            x       y       z     vdW  Elec       q    Type
                         _______ _______ _______ _____ _____    ______ ____

>  <TORSDO>
F 2

$$$$
=
 OpenBabel11052414403D

 32 37  0  0  1  0  0  0  0  0999 V2000
  185.6410  178.0780  139.5810 C   0  0  1  0  0  3  0  0  0  0  0  0
  186.9590  177.8780  141.6770 C   0  0  1  0  0  3  0  0  0  0  0  0
  185.6090  178.6270  138.1480 C   0  0  0  0  0  2  0  0  0  0  0  0
  186.9730  178.4320  140.2610 C   0  0  1  0  0  3  0  0  0  0  0  0
  188.3470  177.8700  142.2920 C   0  0  0  0  0  0  0  0  0  0  0  0
  185.6710  178.4630  147.3550 C   0  0  0  0  0  2  0  0  0  0  0  0
  185.8930  178.6460  142.4670 C   0  0  1  0  0  3  0  0  0  0  0  0
  187.4230  178.0570  145.7320 N   0  0  0  0  0  0  0  0  0  0  0  0
  187.3840  178.0840  144.4450 C   0  0  0  0  0  0  0  0  0  0  0  0
  188.2430  178.0200  139.4640 C   0  0  1  0  0  3  0  0  0  0  0  0
  188.5170  177.9200  143.5870 N   0  0  0  0  0  0  0  0  0  0  0  0
  189.0260  177.0640  140.1500 O   0  0  0  0  0  0  0  0  0  0  0  0
  187.9010  177.4980  138.0700 C   0  0  0  0  0  2  0  0  0  0  0  0
  184.5290  178.2530  141.9060 C   0  0  0  0  0  2  0  0  0  0  0  0
  184.4430  178.6130  140.4080 C   0  0  2  0  0  3  0  0  0  0  0  0
  186.0650  178.3610  143.9220 C   0  0  0  0  0  0  0  0  0  0  0  0
  189.5010  177.6540  141.3440 C   0  0  2  0  0  3  0  0  0  0  0  0
  186.9250  178.4440  137.3740 C   0  0  0  0  0  2  0  0  0  0  0  0
  186.0690  178.3200  146.1000 C   0  0  0  0  0  0  0  0  0  0  0  0
  185.2250  178.5660  144.9250 C   0  0  0  0  0  3  0  0  0  0  0  0
  180.9490  179.3040  140.1620 C   0  0  0  0  0  0  0  0  0  0  0  0
  179.5290  176.0030  140.5830 O   0  0  0  0  0  0  0  0  0  0  0  0
  180.6330  180.4430  140.5970 O   0  0  0  0  0  0  0  0  0  0  0  0
  181.4760  176.3990  139.2990 C   0  0  0  0  0  2  0  0  0  0  0  0
  183.1220  178.1630  139.8420 C   0  0  0  0  0  0  0  0  0  0  0  0
  180.1430  178.2090  140.5140 O   0  0  0  0  0  0  0  0  0  0  0  0
  182.7910  176.8640  139.8430 C   0  0  0  0  0  3  0  0  0  0  0  0
  182.1590  179.1720  139.2780 C   0  0  2  0  0  3  0  0  0  0  0  0
  182.7730  180.4000  139.0910 F   0  0  0  0  0  0  0  0  0  0  0  0
  180.3450  176.8630  140.1650 C   0  0  0  0  0  0  0  0  0  0  0  0
  190.5540  176.7440  141.9580 C   0  0  0  0  0  2  0  0  0  0  0  0
  191.6850  177.4880  142.2930 O   0  0  0  0  0  1  0  0  0  0  0  0
  1  3  1  6  0  0  0
  1  4  1  0  0  0  0
  1 15  1  0  0  0  0
  2  5  1  1  0  0  0
  2  7  1  0  0  0  0
  4  2  1  0  0  0  0
  5 11  2  0  0  0  0
  7 16  1  0  0  0  0
  8 19  1  0  0  0  0
  9  8  2  0  0  0  0
 10 12  1  0  0  0  0
 10  4  1  0  0  0  0
 11  9  1  0  0  0  0
 12 17  1  0  0  0  0
 13 10  1  0  0  0  0
 14  7  1  0  0  0  0
 15 14  1  0  0  0  0
 16  9  1  0  0  0  0
 16 20  2  0  0  0  0
 17 31  1  0  0  0  0
 17  5  1  0  0  0  0
 18 13  1  0  0  0  0
 18  3  1  0  0  0  0
 19  6  2  0  0  0  0
 20 19  1  0  0  0  0
 21 26  1  0  0  0  0
 21 23  2  0  0  0  0
 24 27  1  0  0  0  0
 24 30  1  0  0  0  0
 25 27  2  0  0  0  0
 25 15  1  0  0  0  0
 28 25  1  0  0  0  0
 28 21  1  0  0  0  0
 29 28  1  0  0  0  0
 30 26  1  0  0  0  0
 30 22  2  0  0  0  0
 31 32  1  0  0  0  0
M  END
>  <MODEL>
4

>  <REMARK>
 VINA RESULT:      -8.4      3.576      5.462
  Name = 
  2 active torsions:
  status: ('A' for Active; 'I' for Inactive)
    1  A    between atoms: C_13  and  C_29
    2  A    between atoms: C_16  and  C_27
                            x       y       z     vdW  Elec       q    Type
                         _______ _______ _______ _____ _____    ______ ____

>  <TORSDO>
F 2

$$$$
=
 OpenBabel11052414403D

 32 37  0  0  1  0  0  0  0  0999 V2000
  189.0170  177.4900  142.3790 C   0  0  1  0  0  3  0  0  0  0  0  0
  186.8830  178.2050  141.3280 C   0  0  1  0  0  3  0  0  0  0  0  0
  190.2450  176.5750  142.2670 C   0  0  0  0  0  2  0  0  0  0  0  0
  188.0860  177.2880  141.1730 C   0  0  1  0  0  3  0  0  0  0  0  0
  186.1020  178.3310  140.0320 C   0  0  0  0  0  0  0  0  0  0  0  0
  181.4930  179.2220  143.3650 C   0  0  0  0  0  2  0  0  0  0  0  0
  186.0780  177.7160  142.5370 C   0  0  1  0  0  3  0  0  0  0  0  0
  182.9010  179.1140  141.3960 N   0  0  0  0  0  0  0  0  0  0  0  0
  184.1270  178.7410  141.2730 C   0  0  0  0  0  0  0  0  0  0  0  0
  188.7760  177.4260  139.7850 C   0  0  1  0  0  3  0  0  0  0  0  0
  184.8290  178.6280  140.0320 N   0  0  0  0  0  0  0  0  0  0  0  0
  188.2620  178.5040  139.0310 O   0  0  0  0  0  0  0  0  0  0  0  0
  190.2930  177.5630  139.9100 C   0  0  0  0  0  2  0  0  0  0  0  0
  186.9090  177.9890  143.7870 C   0  0  0  0  0  2  0  0  0  0  0  0
  188.2570  177.2400  143.7070 C   0  0  2  0  0  3  0  0  0  0  0  0
  184.7400  178.3780  142.5310 C   0  0  0  0  0  0  0  0  0  0  0  0
  186.9010  178.2430  138.7540 C   0  0  2  0  0  3  0  0  0  0  0  0
  190.8450  176.4970  140.8540 C   0  0  0  0  0  2  0  0  0  0  0  0
  182.6720  179.0060  142.8010 C   0  0  0  0  0  0  0  0  0  0  0  0
  183.8480  178.4800  143.5040 C   0  0  0  0  0  3  0  0  0  0  0  0
  191.5130  178.1200  144.8750 C   0  0  0  0  0  0  0  0  0  0  0  0
  191.8080  176.0470  147.8260 O   0  0  0  0  0  0  0  0  0  0  0  0
  192.3110  178.4240  143.9480 O   0  0  0  0  0  0  0  0  0  0  0  0
  189.8050  177.1650  147.2480 C   0  0  0  0  0  2  0  0  0  0  0  0
  189.1020  177.5660  144.9110 C   0  0  0  0  0  0  0  0  0  0  0  0
  191.9760  177.2850  145.9050 O   0  0  0  0  0  0  0  0  0  0  0  0
  188.9630  176.8670  146.0470 C   0  0  0  0  0  3  0  0  0  0  0  0
  190.1160  178.6750  144.8440 C   0  0  2  0  0  3  0  0  0  0  0  0
  189.9200  179.4640  143.7200 F   0  0  0  0  0  0  0  0  0  0  0  0
  191.2370  176.8050  147.0000 C   0  0  0  0  0  0  0  0  0  0  0  0
  186.4050  179.2490  137.7260 C   0  0  0  0  0  2  0  0  0  0  0  0
  187.4390  179.5790  136.8500 O   0  0  0  0  0  1  0  0  0  0  0  0
  1  3  1  6  0  0  0
  1 15  1  0  0  0  0
  2  5  1  6  0  0  0
  2  7  1  0  0  0  0
  4  2  1  0  0  0  0
  4  1  1  0  0  0  0
  5 11  2  0  0  0  0
  7 14  1  0  0  0  0
  8 19  1  0  0  0  0
  9  8  2  0  0  0  0
  9 16  1  0  0  0  0
 10 13  1  0  0  0  0
 10  4  1  0  0  0  0
 11  9  1  0  0  0  0
 12 10  1  0  0  0  0
 13 18  1  0  0  0  0
 15 14  1  0  0  0  0
 15 25  1  0  0  0  0
 16  7  1  0  0  0  0
 16 20  2  0  0  0  0
 17 12  1  0  0  0  0
 17  5  1  0  0  0  0
 18  3  1  0  0  0  0
 19  6  2  0  0  0  0
 19 20  1  0  0  0  0
 21 26  1  0  0  0  0
 23 21  2  0  0  0  0
 25 27  2  0  0  0  0
 26 30  1  0  0  0  0
 27 24  1  0  0  0  0
 28 21  1  0  0  0  0
 28 25  1  0  0  0  0
 29 28  1  0  0  0  0
 30 24  1  0  0  0  0
 30 22  2  0  0  0  0
 31 17  1  0  0  0  0
 32 31  1  0  0  0  0
M  END
>  <MODEL>
5

>  <REMARK>
 VINA RESULT:      -7.8      2.319      6.379
  Name = 
  2 active torsions:
  status: ('A' for Active; 'I' for Inactive)
    1  A    between atoms: C_13  and  C_29
    2  A    between atoms: C_16  and  C_27
                            x       y       z     vdW  Elec       q    Type
                         _______ _______ _______ _____ _____    ______ ____

>  <TORSDO>
F 2

$$$$
=
 OpenBabel11052414403D

 32 37  0  0  1  0  0  0  0  0999 V2000
  185.9820  178.2890  139.5650 C   0  0  1  0  0  3  0  0  0  0  0  0
  187.0400  177.8740  141.7740 C   0  0  1  0  0  3  0  0  0  0  0  0
  186.1780  178.8440  138.1470 C   0  0  0  0  0  2  0  0  0  0  0  0
  187.2790  178.4260  140.3780 C   0  0  1  0  0  3  0  0  0  0  0  0
  188.3420  177.6450  142.5200 C   0  0  0  0  0  0  0  0  0  0  0  0
  185.3050  178.6270  147.3120 C   0  0  0  0  0  2  0  0  0  0  0  0
  186.0340  178.7960  142.4730 C   0  0  1  0  0  3  0  0  0  0  0  0
  187.1240  177.9580  145.8580 N   0  0  0  0  0  0  0  0  0  0  0  0
  187.2170  177.9970  144.5740 C   0  0  0  0  0  0  0  0  0  0  0  0
  188.5420  177.8230  139.6990 C   0  0  1  0  0  3  0  0  0  0  0  0
  188.3890  177.6610  143.8260 N   0  0  0  0  0  0  0  0  0  0  0  0
  189.0950  176.7530  140.4380 O   0  0  0  0  0  0  0  0  0  0  0  0
  188.2620  177.3680  138.2680 C   0  0  0  0  0  2  0  0  0  0  0  0
  184.6880  178.6250  141.7750 C   0  0  0  0  0  2  0  0  0  0  0  0
  184.8070  179.0020  140.2830 C   0  0  2  0  0  3  0  0  0  0  0  0
  186.0150  178.4810  143.9320 C   0  0  0  0  0  0  0  0  0  0  0  0
  189.5360  177.2550  141.6840 C   0  0  2  0  0  3  0  0  0  0  0  0
  187.5190  178.4600  137.5010 C   0  0  0  0  0  2  0  0  0  0  0  0
  185.7980  178.4290  146.0990 C   0  0  0  0  0  0  0  0  0  0  0  0
  185.1230  178.8110  144.8530 C   0  0  0  0  0  3  0  0  0  0  0  0
  182.8890  176.7500  138.2840 C   0  0  0  0  0  0  0  0  0  0  0  0
  181.3770  179.0110  135.8970 O   0  0  0  0  0  0  0  0  0  0  0  0
  183.4070  175.6060  138.1830 O   0  0  0  0  0  0  0  0  0  0  0  0
  181.6020  179.5430  138.1920 C   0  0  0  0  0  2  0  0  0  0  0  0
  183.4940  178.7680  139.5830 C   0  0  0  0  0  0  0  0  0  0  0  0
  182.3640  177.3490  137.1260 O   0  0  0  0  0  0  0  0  0  0  0  0
  182.8990  179.7600  138.9070 C   0  0  0  0  0  3  0  0  0  0  0  0
  182.8430  177.4120  139.6340 C   0  0  2  0  0  3  0  0  0  0  0  0
  183.4310  176.6100  140.6000 F   0  0  0  0  0  0  0  0  0  0  0  0
  181.7830  178.6240  137.0230 C   0  0  0  0  0  0  0  0  0  0  0  0
  190.3690  176.1880  142.3780 C   0  0  0  0  0  2  0  0  0  0  0  0
  191.5590  176.7460  142.8450 O   0  0  0  0  0  1  0  0  0  0  0  0
  1  3  1  6  0  0  0
  1 15  1  0  0  0  0
  1  4  1  0  0  0  0
  2  7  1  0  0  0  0
  2  5  1  1  0  0  0
  4  2  1  0  0  0  0
  5 11  2  0  0  0  0
  7 16  1  0  0  0  0
  8 19  1  0  0  0  0
  9  8  2  0  0  0  0
 10  4  1  0  0  0  0
 10 12  1  0  0  0  0
 11  9  1  0  0  0  0
 12 17  1  0  0  0  0
 13 10  1  0  0  0  0
 14  7  1  0  0  0  0
 15 14  1  0  0  0  0
 16  9  1  0  0  0  0
 16 20  2  0  0  0  0
 17 31  1  0  0  0  0
 17  5  1  0  0  0  0
 18  3  1  0  0  0  0
 18 13  1  0  0  0  0
 19  6  2  0  0  0  0
 20 19  1  0  0  0  0
 21 28  1  0  0  0  0
 22 30  2  0  0  0  0
 23 21  2  0  0  0  0
 24 27  1  0  0  0  0
 25 28  1  0  0  0  0
 25 15  1  0  0  0  0
 26 21  1  0  0  0  0
 27 25  2  0  0  0  0
 28 29  1  0  0  0  0
 30 26  1  0  0  0  0
 30 24  1  0  0  0  0
 31 32  1  0  0  0  0
M  END
>  <MODEL>
6

>  <REMARK>
 VINA RESULT:      -7.7      3.100      4.872
  Name = 
  2 active torsions:
  status: ('A' for Active; 'I' for Inactive)
    1  A    between atoms: C_13  and  C_29
    2  A    between atoms: C_16  and  C_27
                            x       y       z     vdW  Elec       q    Type
                         _______ _______ _______ _____ _____    ______ ____

>  <TORSDO>
F 2

$$$$
=
 OpenBabel11052414403D

 32 37  0  0  1  0  0  0  0  0999 V2000
  186.5080  178.0180  144.0370 C   0  0  1  0  0  3  0  0  0  0  0  0
  188.6790  177.8560  142.8400 C   0  0  1  0  0  3  0  0  0  0  0  0
  185.6770  177.5300  145.2320 C   0  0  0  0  0  2  0  0  0  0  0  0
  187.8940  177.3530  144.0400 C   0  0  1  0  0  3  0  0  0  0  0  0
  190.1570  177.5320  142.9570 C   0  0  0  0  0  0  0  0  0  0  0  0
  190.1820  177.4200  137.2010 C   0  0  0  0  0  2  0  0  0  0  0  0
  187.9880  177.3280  141.5780 C   0  0  1  0  0  3  0  0  0  0  0  0
  190.9820  177.4640  139.4880 N   0  0  0  0  0  0  0  0  0  0  0  0
  190.3250  177.4820  140.5960 C   0  0  0  0  0  0  0  0  0  0  0  0
  188.6810  177.4880  145.3750 C   0  0  1  0  0  3  0  0  0  0  0  0
  190.9130  177.4100  141.8980 N   0  0  0  0  0  0  0  0  0  0  0  0
  189.8780  178.2220  145.2250 O   0  0  0  0  0  0  0  0  0  0  0  0
  187.8310  178.1130  146.4810 C   0  0  0  0  0  2  0  0  0  0  0  0
  186.6410  178.0340  141.4570 C   0  0  0  0  0  2  0  0  0  0  0  0
  185.7720  177.7450  142.7000 C   0  0  2  0  0  3  0  0  0  0  0  0
  188.8930  177.5260  140.4070 C   0  0  0  0  0  0  0  0  0  0  0  0
  190.7300  177.5070  144.3530 C   0  0  2  0  0  3  0  0  0  0  0  0
  186.4660  177.4320  146.5490 C   0  0  0  0  0  2  0  0  0  0  0  0
  189.9500  177.5040  138.5020 C   0  0  0  0  0  0  0  0  0  0  0  0
  188.6150  177.4880  139.1120 C   0  0  0  0  0  3  0  0  0  0  0  0
  183.0840  179.2220  144.5260 C   0  0  0  0  0  0  0  0  0  0  0  0
  180.2240  178.1950  142.5620 O   0  0  0  0  0  0  0  0  0  0  0  0
  183.3010  179.2930  145.7650 O   0  0  0  0  0  0  0  0  0  0  0  0
  182.2590  178.9020  141.5810 C   0  0  0  0  0  2  0  0  0  0  0  0
  184.4710  178.4980  142.6090 C   0  0  0  0  0  0  0  0  0  0  0  0
  181.8190  178.7890  144.0950 O   0  0  0  0  0  0  0  0  0  0  0  0
  183.5640  178.1750  141.6760 C   0  0  0  0  0  3  0  0  0  0  0  0
  184.1770  179.6160  143.5720 C   0  0  2  0  0  3  0  0  0  0  0  0
  185.3200  180.0000  144.2570 F   0  0  0  0  0  0  0  0  0  0  0  0
  181.3940  178.6080  142.7680 C   0  0  0  0  0  0  0  0  0  0  0  0
  192.1150  178.1380  144.3900 C   0  0  0  0  0  2  0  0  0  0  0  0
  192.0050  179.5260  144.2990 O   0  0  0  0  0  1  0  0  0  0  0  0
  1  4  1  0  0  0  0
  1  3  1  1  0  0  0
  2  5  1  1  0  0  0
  2  4  1  0  0  0  0
  3 18  1  0  0  0  0
  4 10  1  0  0  0  0
  5 17  1  0  0  0  0
  6 19  2  0  0  0  0
  7  2  1  0  0  0  0
  8  9  2  0  0  0  0
  9 11  1  0  0  0  0
 10 13  1  0  0  0  0
 11  5  2  0  0  0  0
 12 10  1  0  0  0  0
 13 18  1  0  0  0  0
 14  7  1  0  0  0  0
 14 15  1  0  0  0  0
 15  1  1  0  0  0  0
 16  9  1  0  0  0  0
 16  7  1  0  0  0  0
 17 31  1  0  0  0  0
 17 12  1  0  0  0  0
 19 20  1  0  0  0  0
 19  8  1  0  0  0  0
 20 16  2  0  0  0  0
 21 23  2  0  0  0  0
 22 30  2  0  0  0  0
 24 27  1  0  0  0  0
 24 30  1  0  0  0  0
 25 15  1  0  0  0  0
 25 28  1  0  0  0  0
 26 21  1  0  0  0  0
 27 25  2  0  0  0  0
 28 29  1  0  0  0  0
 28 21  1  0  0  0  0
 30 26  1  0  0  0  0
 32 31  1  0  0  0  0
M  END
>  <MODEL>
7

>  <REMARK>
 VINA RESULT:      -7.7      3.801      6.382
  Name = 
  2 active torsions:
  status: ('A' for Active; 'I' for Inactive)
    1  A    between atoms: C_13  and  C_29
    2  A    between atoms: C_16  and  C_27
                            x       y       z     vdW  Elec       q    Type
                         _______ _______ _______ _____ _____    ______ ____

>  <TORSDO>
F 2

$$$$
=
 OpenBabel11052414403D

 32 37  0  0  1  0  0  0  0  0999 V2000
  185.6810  178.3950  143.7130 C   0  0  1  0  0  3  0  0  0  0  0  0
  183.5510  178.4560  142.4360 C   0  0  1  0  0  3  0  0  0  0  0  0
  186.4800  178.9910  144.8810 C   0  0  0  0  0  2  0  0  0  0  0  0
  184.3030  179.0690  143.6070 C   0  0  1  0  0  3  0  0  0  0  0  0
  182.0730  178.8020  142.4740 C   0  0  0  0  0  0  0  0  0  0  0  0
  182.2290  178.3490  136.7360 C   0  0  0  0  0  2  0  0  0  0  0  0
  184.2870  178.8520  141.1520 C   0  0  1  0  0  3  0  0  0  0  0  0
  181.3590  178.5360  138.9900 N   0  0  0  0  0  0  0  0  0  0  0  0
  181.9800  178.6220  140.1150 C   0  0  0  0  0  0  0  0  0  0  0  0
  183.4740  179.0710  144.9220 C   0  0  1  0  0  3  0  0  0  0  0  0
  181.3530  178.8260  141.3840 N   0  0  0  0  0  0  0  0  0  0  0  0
  182.2730  178.3350  144.8070 O   0  0  0  0  0  0  0  0  0  0  0  0
  184.2820  178.5510  146.1110 C   0  0  0  0  0  2  0  0  0  0  0  0
  185.6290  178.1260  141.1440 C   0  0  0  0  0  2  0  0  0  0  0  0
  186.4620  178.5300  142.3800 C   0  0  2  0  0  3  0  0  0  0  0  0
  183.4170  178.5480  139.9770 C   0  0  0  0  0  0  0  0  0  0  0  0
  181.4570  178.9680  143.8420 C   0  0  2  0  0  3  0  0  0  0  0  0
  185.6520  179.2240  146.1550 C   0  0  0  0  0  2  0  0  0  0  0  0
  182.4200  178.3910  138.0470 C   0  0  0  0  0  0  0  0  0  0  0  0
  183.7350  178.4560  138.6950 C   0  0  0  0  0  3  0  0  0  0  0  0
  188.8860  176.9000  144.4320 C   0  0  0  0  0  0  0  0  0  0  0  0
  191.9780  177.9910  142.9030 O   0  0  0  0  0  0  0  0  0  0  0  0
  188.5150  176.7590  145.6280 O   0  0  0  0  0  0  0  0  0  0  0  0
  190.0760  177.3800  141.6360 C   0  0  0  0  0  2  0  0  0  0  0  0
  187.7570  177.7600  142.4050 C   0  0  0  0  0  0  0  0  0  0  0  0
  190.1990  177.3350  144.1880 O   0  0  0  0  0  0  0  0  0  0  0  0
  188.7760  178.1220  141.6140 C   0  0  0  0  0  3  0  0  0  0  0  0
  187.9170  176.5820  143.3270 C   0  0  2  0  0  3  0  0  0  0  0  0
  186.6940  176.1790  143.8400 F   0  0  0  0  0  0  0  0  0  0  0  0
  190.7880  177.5870  142.9380 C   0  0  0  0  0  0  0  0  0  0  0  0
  180.0650  178.3560  143.8950 C   0  0  0  0  0  2  0  0  0  0  0  0
  179.1320  179.3320  144.2450 O   0  0  0  0  0  1  0  0  0  0  0  0
  1  3  1  1  0  0  0
  2  5  1  6  0  0  0
  2  4  1  0  0  0  0
  3 18  1  0  0  0  0
  4  1  1  0  0  0  0
  4 10  1  0  0  0  0
  5 17  1  0  0  0  0
  6 19  2  0  0  0  0
  7  2  1  0  0  0  0
  8  9  2  0  0  0  0
  9 11  1  0  0  0  0
 10 13  1  0  0  0  0
 11  5  2  0  0  0  0
 12 10  1  0  0  0  0
 13 18  1  0  0  0  0
 14  7  1  0  0  0  0
 14 15  1  0  0  0  0
 15 25  1  0  0  0  0
 15  1  1  0  0  0  0
 16  9  1  0  0  0  0
 16  7  1  0  0  0  0
 17 31  1  0  0  0  0
 17 12  1  0  0  0  0
 19 20  1  0  0  0  0
 19  8  1  0  0  0  0
 20 16  2  0  0  0  0
 21 23  2  0  0  0  0
 22 30  2  0  0  0  0
 24 30  1  0  0  0  0
 25 28  1  0  0  0  0
 26 21  1  0  0  0  0
 27 24  1  0  0  0  0
 27 25  2  0  0  0  0
 28 29  1  0  0  0  0
 28 21  1  0  0  0  0
 30 26  1  0  0  0  0
 31 32  1  0  0  0  0
M  END
>  <MODEL>
8

>  <REMARK>
 VINA RESULT:      -7.5      3.807      6.561
  Name = 
  2 active torsions:
  status: ('A' for Active; 'I' for Inactive)
    1  A    between atoms: C_13  and  C_29
    2  A    between atoms: C_16  and  C_27
                            x       y       z     vdW  Elec       q    Type
                         _______ _______ _______ _____ _____    ______ ____

>  <TORSDO>
F 2

$$$$
=
 OpenBabel11052414403D

 32 37  0  0  1  0  0  0  0  0999 V2000
  185.0470  178.4920  140.9750 C   0  0  1  0  0  3  0  0  0  0  0  0
  187.0220  177.8650  142.3450 C   0  0  1  0  0  3  0  0  0  0  0  0
  184.5400  179.3030  139.7740 C   0  0  0  0  0  2  0  0  0  0  0  0
  186.5640  178.6770  141.1440 C   0  0  1  0  0  3  0  0  0  0  0  0
  188.5320  177.7060  142.3730 C   0  0  0  0  0  0  0  0  0  0  0  0
  187.9900  177.3970  148.0970 C   0  0  0  0  0  2  0  0  0  0  0  0
  186.4030  178.4960  143.5970 C   0  0  1  0  0  3  0  0  0  0  0  0
  188.9690  177.2610  145.8850 N   0  0  0  0  0  0  0  0  0  0  0  0
  188.4590  177.5320  144.7340 C   0  0  0  0  0  0  0  0  0  0  0  0
  187.4030  178.3910  139.8660 C   0  0  1  0  0  3  0  0  0  0  0  0
  189.1730  177.5050  143.4950 N   0  0  0  0  0  0  0  0  0  0  0  0
  188.2890  177.3030  140.0330 O   0  0  0  0  0  0  0  0  0  0  0  0
  186.5210  178.1510  138.6420 C   0  0  0  0  0  2  0  0  0  0  0  0
  184.8980  178.2510  143.5420 C   0  0  0  0  0  2  0  0  0  0  0  0
  184.2980  178.8910  142.2720 C   0  0  2  0  0  3  0  0  0  0  0  0
  187.0740  177.9370  144.8070 C   0  0  0  0  0  0  0  0  0  0  0  0
  189.2260  177.6440  141.0350 C   0  0  2  0  0  3  0  0  0  0  0  0
  185.4520  179.2360  138.5380 C   0  0  0  0  0  2  0  0  0  0  0  0
  187.8800  177.4840  146.7800 C   0  0  0  0  0  0  0  0  0  0  0  0
  186.6880  177.9700  146.0740 C   0  0  0  0  0  3  0  0  0  0  0  0
  181.5500  178.1890  140.1040 C   0  0  0  0  0  0  0  0  0  0  0  0
  178.9310  180.2020  141.5800 O   0  0  0  0  0  0  0  0  0  0  0  0
  181.8970  177.9580  138.9160 O   0  0  0  0  0  0  0  0  0  0  0  0
  180.4820  178.9750  142.8800 C   0  0  0  0  0  2  0  0  0  0  0  0
  182.8240  178.5900  142.1870 C   0  0  0  0  0  0  0  0  0  0  0  0
  180.4430  179.0250  140.3250 O   0  0  0  0  0  0  0  0  0  0  0  0
  181.9510  179.2500  142.9610 C   0  0  0  0  0  3  0  0  0  0  0  0
  182.3210  177.5480  141.2250 C   0  0  2  0  0  3  0  0  0  0  0  0
  183.3620  176.7760  140.7340 F   0  0  0  0  0  0  0  0  0  0  0  0
  179.9240  179.4310  141.5660 C   0  0  0  0  0  0  0  0  0  0  0  0
  190.3400  176.6080  141.0410 C   0  0  0  0  0  2  0  0  0  0  0  0
  190.5650  176.1460  139.7440 O   0  0  0  0  0  1  0  0  0  0  0  0
  1  3  1  6  0  0  0
  1  4  1  0  0  0  0
  1 15  1  0  0  0  0
  2  5  1  1  0  0  0
  2  7  1  0  0  0  0
  4  2  1  0  0  0  0
  5 11  2  0  0  0  0
  7 16  1  0  0  0  0
  8 19  1  0  0  0  0
  9 16  1  0  0  0  0
  9  8  2  0  0  0  0
 10 12  1  0  0  0  0
 10  4  1  0  0  0  0
 11  9  1  0  0  0  0
 12 17  1  0  0  0  0
 13 10  1  0  0  0  0
 14  7  1  0  0  0  0
 15 14  1  0  0  0  0
 16 20  2  0  0  0  0
 17 31  1  0  0  0  0
 17  5  1  0  0  0  0
 18 13  1  0  0  0  0
 18  3  1  0  0  0  0
 19  6  2  0  0  0  0
 20 19  1  0  0  0  0
 21 26  1  0  0  0  0
 21 28  1  0  0  0  0
 23 21  2  0  0  0  0
 24 27  1  0  0  0  0
 25 15  1  0  0  0  0
 25 27  2  0  0  0  0
 26 30  1  0  0  0  0
 28 25  1  0  0  0  0
 29 28  1  0  0  0  0
 30 22  2  0  0  0  0
 30 24  1  0  0  0  0
 32 31  1  0  0  0  0
M  END
>  <MODEL>
9

>  <REMARK>
 VINA RESULT:      -7.5      3.371      6.341
  Name = 
  2 active torsions:
  status: ('A' for Active; 'I' for Inactive)
    1  A    between atoms: C_13  and  C_29
    2  A    between atoms: C_16  and  C_27
                            x       y       z     vdW  Elec       q    Type
                         _______ _______ _______ _____ _____    ______ ____

>  <TORSDO>
F 2

$$$$
