=
 OpenBabel11052414073D

 34 39  0  0  1  0  0  0  0  0999 V2000
  184.4260  178.7080  144.2600 C   0  0  0  0  0  0  0  0  0  0  0  0
  184.4860  177.9780  141.9420 C   0  0  0  0  0  3  0  0  0  0  0  0
  186.4070  177.3410  143.4620 C   0  0  2  0  0  3  0  0  0  0  0  0
  188.6030  176.4570  142.6260 N   0  0  1  0  0  0  0  0  0  0  0  0
  182.5900  179.2350  142.7660 C   0  0  0  0  0  3  0  0  0  0  0  0
  183.2390  178.5670  141.7240 C   0  0  0  0  0  3  0  0  0  0  0  0
  187.8410  178.4280  141.5890 C   0  0  0  0  0  0  0  0  0  0  0  0
  185.1090  178.0710  143.1970 C   0  0  0  0  0  0  0  0  0  0  0  0
  189.5300  176.8060  141.5420 C   0  0  0  0  0  2  0  0  0  0  0  0
  183.1820  179.3040  144.0300 C   0  0  0  0  0  3  0  0  0  0  0  0
  187.1160  177.8060  144.7230 C   0  0  2  0  0  3  0  0  0  0  0  0
  185.0400  178.8300  145.6300 C   0  0  0  0  0  2  0  0  0  0  0  0
  187.1820  179.4450  141.4340 O   0  0  0  0  0  0  0  0  0  0  0  0
  189.2000  176.9960  143.7930 N   0  0  0  0  0  2  0  0  0  0  0  0
  188.3010  176.8720  144.9410 C   0  0  1  0  0  3  0  0  0  0  0  0
  189.2200  178.2370  141.0890 C   0  0  1  0  0  3  0  0  0  0  0  0
  187.3760  177.1980  142.2730 C   0  0  2  0  0  3  0  0  0  0  0  0
  186.1210  177.7790  145.8780 C   0  0  0  0  0  2  0  0  0  0  0  0
  191.0380  177.0510  147.5840 C   0  0  0  0  0  0  0  0  0  0  0  0
  190.4190  177.8420  148.5560 C   0  0  0  0  0  3  0  0  0  0  0  0
  189.0530  177.2020  146.1950 C   0  0  0  0  0  0  0  0  0  0  0  0
  189.1190  178.3110  148.3520 C   0  0  0  0  0  3  0  0  0  0  0  0
  190.3580  176.7310  146.4050 C   0  0  0  0  0  3  0  0  0  0  0  0
  188.4360  177.9910  147.1730 C   0  0  0  0  0  3  0  0  0  0  0  0
  192.2980  176.5960  147.7820 F   0  0  0  0  0  0  0  0  0  0  0  0
  189.3000  178.3500  139.5690 C   0  0  0  0  0  2  0  0  0  0  0  0
  188.2890  177.6020  138.9530 O   0  0  0  0  0  0  0  0  0  0  0  0
  185.5400  178.2990  138.6000 F   0  0  0  0  0  0  0  0  0  0  0  0
  187.8280  178.4040  137.9040 C   0  0  2  0  0  3  0  0  0  0  0  0
  186.3870  178.0330  137.5400 C   0  0  1  0  0  3  0  0  0  0  0  0
  187.5170  175.9870  135.9240 S   0  0  0  0  0  0  0  0  0  0  0  0
  188.1790  177.6290  135.4850 C   0  0  0  0  0  2  0  0  0  0  0  0
  188.7920  178.2990  136.7120 C   0  0  0  0  0  2  0  0  0  0  0  0
  186.2550  176.5640  137.1320 C   0  0  0  0  0  2  0  0  0  0  0  0
  1 12  1  0  0  0  0
  2  8  1  0  0  0  0
  3  8  1  6  0  0  0
  3 11  1  0  0  0  0
  4  9  1  6  0  0  0
  4 14  1  0  0  0  0
  5 10  2  0  0  0  0
  6  2  2  0  0  0  0
  6  5  1  0  0  0  0
  8  1  2  0  0  0  0
 10  1  1  0  0  0  0
 11 15  1  0  0  0  0
 11 18  1  1  0  0  0
 12 18  1  0  0  0  0
 13  7  2  0  0  0  0
 14 15  1  0  0  0  0
 15 21  1  1  0  0  0
 16 26  1  6  0  0  0
 16  9  1  0  0  0  0
 16  7  1  0  0  0  0
 17  7  1  1  0  0  0
 17  4  1  0  0  0  0
 17  3  1  0  0  0  0
 19 25  1  0  0  0  0
 19 20  1  0  0  0  0
 21 23  1  0  0  0  0
 21 24  2  0  0  0  0
 22 20  2  0  0  0  0
 23 19  2  0  0  0  0
 24 22  1  0  0  0  0
 27 26  1  0  0  0  0
 29 27  1  1  0  0  0
 30 29  1  0  0  0  0
 30 28  1  1  0  0  0
 31 34  1  0  0  0  0
 32 31  1  0  0  0  0
 32 33  1  0  0  0  0
 33 29  1  0  0  0  0
 34 30  1  0  0  0  0
M  END
>  <MODEL>
1

>  <REMARK>
 VINA RESULT:     -10.3      0.000      0.000
  Name = 
  4 active torsions:
  status: ('A' for Active; 'I' for Inactive)
    1  A    between atoms: O_3  and  C_13
    2  A    between atoms: O_3  and  C_17
    3  A    between atoms: C_12  and  C_28
    4  A    between atoms: C_17  and  C_29
                            x       y       z     vdW  Elec       q    Type
                         _______ _______ _______ _____ _____    ______ ____

>  <TORSDO>
F 4

$$$$
=
 OpenBabel11052414073D

 34 39  0  0  1  0  0  0  0  0999 V2000
  188.1940  177.3140  145.9490 C   0  0  0  0  0  0  0  0  0  0  0  0
  190.3750  177.6430  144.9270 C   0  0  0  0  0  3  0  0  0  0  0  0
  188.3160  178.3560  143.6410 C   0  0  2  0  0  3  0  0  0  0  0  0
  188.3300  178.8990  141.1900 N   0  0  1  0  0  0  0  0  0  0  0  0
  190.2100  176.7050  147.1510 C   0  0  0  0  0  3  0  0  0  0  0  0
  190.9890  177.1330  146.0740 C   0  0  0  0  0  3  0  0  0  0  0  0
  189.3370  176.8560  141.7820 C   0  0  0  0  0  0  0  0  0  0  0  0
  188.9760  177.7060  144.8360 C   0  0  0  0  0  0  0  0  0  0  0  0
  188.9170  178.2980  139.9850 C   0  0  0  0  0  2  0  0  0  0  0  0
  188.8170  176.7960  147.0880 C   0  0  0  0  0  3  0  0  0  0  0  0
  186.8320  178.0480  143.5250 C   0  0  2  0  0  3  0  0  0  0  0  0
  186.6890  177.3680  145.9130 C   0  0  0  0  0  2  0  0  0  0  0  0
  189.6140  175.8870  142.4730 O   0  0  0  0  0  0  0  0  0  0  0  0
  186.9680  178.5120  141.1530 N   0  0  0  0  0  2  0  0  0  0  0  0
  186.2840  178.9010  142.3870 C   0  0  1  0  0  3  0  0  0  0  0  0
  189.2800  176.8440  140.3050 C   0  0  1  0  0  3  0  0  0  0  0  0
  189.0410  178.2180  142.2890 C   0  0  2  0  0  3  0  0  0  0  0  0
  186.1680  178.3500  144.8640 C   0  0  0  0  0  2  0  0  0  0  0  0
  182.5440  178.7560  143.0910 C   0  0  0  0  0  0  0  0  0  0  0  0
  182.0520  178.3650  141.8420 C   0  0  0  0  0  3  0  0  0  0  0  0
  184.8060  178.7190  142.2120 C   0  0  0  0  0  0  0  0  0  0  0  0
  182.9340  178.1480  140.7800 C   0  0  0  0  0  3  0  0  0  0  0  0
  183.9180  178.9340  143.2770 C   0  0  0  0  0  3  0  0  0  0  0  0
  184.3090  178.3240  140.9650 C   0  0  0  0  0  3  0  0  0  0  0  0
  181.6890  178.9670  144.1200 F   0  0  0  0  0  0  0  0  0  0  0  0
  190.6240  176.4740  139.6810 C   0  0  0  0  0  2  0  0  0  0  0  0
  190.4540  175.5960  138.6030 O   0  0  0  0  0  0  0  0  0  0  0  0
  189.7320  175.1350  135.8760 F   0  0  0  0  0  0  0  0  0  0  0  0
  191.0950  176.2140  137.5240 C   0  0  2  0  0  3  0  0  0  0  0  0
  191.0420  175.3150  136.2840 C   0  0  1  0  0  3  0  0  0  0  0  0
  193.3420  174.0290  137.3450 S   0  0  0  0  0  0  0  0  0  0  0  0
  193.6030  175.8250  137.1630 C   0  0  0  0  0  2  0  0  0  0  0  0
  192.5280  176.5970  137.9230 C   0  0  0  0  0  2  0  0  0  0  0  0
  191.6950  173.9530  136.5300 C   0  0  0  0  0  2  0  0  0  0  0  0
  1 10  1  0  0  0  0
  2  6  2  0  0  0  0
  3  8  1  1  0  0  0
  4  9  1  6  0  0  0
  4 17  1  0  0  0  0
  6  5  1  0  0  0  0
  7 13  2  0  0  0  0
  8  2  1  0  0  0  0
  8  1  2  0  0  0  0
  9 16  1  0  0  0  0
 10  5  2  0  0  0  0
 11  3  1  0  0  0  0
 11 18  1  1  0  0  0
 12  1  1  0  0  0  0
 14  4  1  0  0  0  0
 14 15  1  0  0  0  0
 15 21  1  6  0  0  0
 15 11  1  0  0  0  0
 16 26  1  6  0  0  0
 16  7  1  0  0  0  0
 17  7  1  6  0  0  0
 17  3  1  0  0  0  0
 18 12  1  0  0  0  0
 19 23  1  0  0  0  0
 19 25  1  0  0  0  0
 20 19  2  0  0  0  0
 21 23  2  0  0  0  0
 22 24  2  0  0  0  0
 22 20  1  0  0  0  0
 24 21  1  0  0  0  0
 27 26  1  0  0  0  0
 29 33  1  0  0  0  0
 29 27  1  1  0  0  0
 30 28  1  1  0  0  0
 30 34  1  0  0  0  0
 30 29  1  0  0  0  0
 32 31  1  0  0  0  0
 32 33  1  0  0  0  0
 34 31  1  0  0  0  0
M  END
>  <MODEL>
2

>  <REMARK>
 VINA RESULT:     -10.1      3.182      5.915
  Name = 
  4 active torsions:
  status: ('A' for Active; 'I' for Inactive)
    1  A    between atoms: O_3  and  C_13
    2  A    between atoms: O_3  and  C_17
    3  A    between atoms: C_12  and  C_28
    4  A    between atoms: C_17  and  C_29
                            x       y       z     vdW  Elec       q    Type
                         _______ _______ _______ _____ _____    ______ ____

>  <TORSDO>
F 4

$$$$
=
 OpenBabel11052414073D

 34 39  0  0  1  0  0  0  0  0999 V2000
  188.7330  177.2140  146.1600 C   0  0  0  0  0  0  0  0  0  0  0  0
  190.8190  177.5210  144.9510 C   0  0  0  0  0  3  0  0  0  0  0  0
  188.6680  178.3000  143.8700 C   0  0  2  0  0  3  0  0  0  0  0  0
  188.4720  178.8910  141.4380 N   0  0  1  0  0  0  0  0  0  0  0  0
  190.8360  176.5420  147.1630 C   0  0  0  0  0  3  0  0  0  0  0  0
  191.5240  176.9770  146.0280 C   0  0  0  0  0  3  0  0  0  0  0  0
  189.4850  176.8180  141.9000 C   0  0  0  0  0  0  0  0  0  0  0  0
  189.4200  177.6130  144.9880 C   0  0  0  0  0  0  0  0  0  0  0  0
  188.9350  178.3040  140.1740 C   0  0  0  0  0  2  0  0  0  0  0  0
  189.4460  176.6610  147.2290 C   0  0  0  0  0  3  0  0  0  0  0  0
  187.1740  178.0230  143.8850 C   0  0  2  0  0  3  0  0  0  0  0  0
  187.2330  177.2980  146.2620 C   0  0  0  0  0  2  0  0  0  0  0  0
  189.8020  175.8300  142.5450 O   0  0  0  0  0  0  0  0  0  0  0  0
  187.1040  178.5320  141.5190 N   0  0  0  0  0  2  0  0  0  0  0  0
  186.5430  178.9090  142.8160 C   0  0  1  0  0  3  0  0  0  0  0  0
  189.2940  176.8360  140.4340 C   0  0  1  0  0  3  0  0  0  0  0  0
  189.2650  178.1740  142.4560 C   0  0  2  0  0  3  0  0  0  0  0  0
  186.6410  178.3110  145.2830 C   0  0  0  0  0  2  0  0  0  0  0  0
  183.0150  178.1200  141.6180 C   0  0  0  0  0  0  0  0  0  0  0  0
  182.2630  178.5010  142.7330 C   0  0  0  0  0  3  0  0  0  0  0  0
  185.0520  178.7600  142.7730 C   0  0  0  0  0  0  0  0  0  0  0  0
  182.9020  179.0130  143.8650 C   0  0  0  0  0  3  0  0  0  0  0  0
  184.4080  178.2480  141.6360 C   0  0  0  0  0  3  0  0  0  0  0  0
  184.2950  179.1430  143.8850 C   0  0  0  0  0  3  0  0  0  0  0  0
  182.3960  177.6230  140.5210 F   0  0  0  0  0  0  0  0  0  0  0  0
  190.5680  176.4530  139.6830 C   0  0  0  0  0  2  0  0  0  0  0  0
  190.2760  175.6570  138.5690 O   0  0  0  0  0  0  0  0  0  0  0  0
  189.6100  175.2030  135.8270 F   0  0  0  0  0  0  0  0  0  0  0  0
  190.9570  176.2560  137.5030 C   0  0  2  0  0  3  0  0  0  0  0  0
  190.9120  175.3540  136.2660 C   0  0  1  0  0  3  0  0  0  0  0  0
  193.1570  174.0200  137.3850 S   0  0  0  0  0  0  0  0  0  0  0  0
  193.4640  175.8090  137.2040 C   0  0  0  0  0  2  0  0  0  0  0  0
  192.3880  176.6070  137.9360 C   0  0  0  0  0  2  0  0  0  0  0  0
  191.5280  173.9780  136.5320 C   0  0  0  0  0  2  0  0  0  0  0  0
  1 12  1  0  0  0  0
  1 10  1  0  0  0  0
  2  8  1  0  0  0  0
  2  6  2  0  0  0  0
  3 11  1  0  0  0  0
  3  8  1  1  0  0  0
  4  9  1  6  0  0  0
  4 14  1  0  0  0  0
  4 17  1  0  0  0  0
  5 10  2  0  0  0  0
  6  5  1  0  0  0  0
  7 13  2  0  0  0  0
  8  1  2  0  0  0  0
  9 16  1  0  0  0  0
 11 18  1  1  0  0  0
 14 15  1  0  0  0  0
 15 21  1  6  0  0  0
 15 11  1  0  0  0  0
 16 26  1  6  0  0  0
 16  7  1  0  0  0  0
 17  7  1  6  0  0  0
 17  3  1  0  0  0  0
 18 12  1  0  0  0  0
 19 23  2  0  0  0  0
 19 20  1  0  0  0  0
 20 22  2  0  0  0  0
 21 24  2  0  0  0  0
 22 24  1  0  0  0  0
 23 21  1  0  0  0  0
 25 19  1  0  0  0  0
 27 26  1  0  0  0  0
 29 33  1  0  0  0  0
 29 27  1  1  0  0  0
 30 28  1  1  0  0  0
 30 34  1  0  0  0  0
 30 29  1  0  0  0  0
 32 31  1  0  0  0  0
 32 33  1  0  0  0  0
 34 31  1  0  0  0  0
M  END
>  <MODEL>
3

>  <REMARK>
 VINA RESULT:     -10.1      3.165      5.863
  Name = 
  4 active torsions:
  status: ('A' for Active; 'I' for Inactive)
    1  A    between atoms: O_3  and  C_13
    2  A    between atoms: O_3  and  C_17
    3  A    between atoms: C_12  and  C_28
    4  A    between atoms: C_17  and  C_29
                            x       y       z     vdW  Elec       q    Type
                         _______ _______ _______ _____ _____    ______ ____

>  <TORSDO>
F 4

$$$$
=
 OpenBabel11052414073D

 34 39  0  0  1  0  0  0  0  0999 V2000
  188.3310  177.3140  146.1900 C   0  0  0  0  0  0  0  0  0  0  0  0
  190.4760  177.6070  145.0840 C   0  0  0  0  0  3  0  0  0  0  0  0
  188.3830  178.3750  143.8880 C   0  0  2  0  0  3  0  0  0  0  0  0
  188.3110  178.9410  141.4430 N   0  0  1  0  0  0  0  0  0  0  0  0
  190.3800  176.6510  147.3050 C   0  0  0  0  0  3  0  0  0  0  0  0
  191.1240  177.0740  146.2010 C   0  0  0  0  0  3  0  0  0  0  0  0
  189.2970  176.8720  141.9770 C   0  0  0  0  0  0  0  0  0  0  0  0
  189.0760  177.7000  145.0500 C   0  0  0  0  0  0  0  0  0  0  0  0
  188.8360  178.3400  140.2110 C   0  0  0  0  0  2  0  0  0  0  0  0
  188.9880  176.7720  147.2990 C   0  0  0  0  0  3  0  0  0  0  0  0
  186.8890  178.0990  143.8300 C   0  0  2  0  0  3  0  0  0  0  0  0
  186.8270  177.3990  146.2150 C   0  0  0  0  0  2  0  0  0  0  0  0
  189.5800  175.8910  142.6480 O   0  0  0  0  0  0  0  0  0  0  0  0
  186.9400  178.5830  141.4580 N   0  0  0  0  0  2  0  0  0  0  0  0
  186.3140  178.9740  142.7210 C   0  0  1  0  0  3  0  0  0  0  0  0
  189.1810  176.8750  140.5030 C   0  0  1  0  0  3  0  0  0  0  0  0
  189.0510  178.2350  142.5070 C   0  0  2  0  0  3  0  0  0  0  0  0
  186.2860  178.4020  145.1970 C   0  0  0  0  0  2  0  0  0  0  0  0
  182.8450  178.2550  141.3250 C   0  0  0  0  0  0  0  0  0  0  0  0
  182.0440  178.5630  142.4280 C   0  0  0  0  0  3  0  0  0  0  0  0
  184.8270  178.8250  142.6040 C   0  0  0  0  0  0  0  0  0  0  0  0
  182.6310  179.0050  143.6170 C   0  0  0  0  0  3  0  0  0  0  0  0
  184.2350  178.3850  141.4110 C   0  0  0  0  0  3  0  0  0  0  0  0
  184.0210  179.1360  143.7050 C   0  0  0  0  0  3  0  0  0  0  0  0
  182.2750  177.8270  140.1730 F   0  0  0  0  0  0  0  0  0  0  0  0
  190.4910  176.4830  139.8220 C   0  0  0  0  0  2  0  0  0  0  0  0
  190.4160  176.6780  138.4380 O   0  0  0  0  0  0  0  0  0  0  0  0
  192.2110  174.5040  137.9680 F   0  0  0  0  0  0  0  0  0  0  0  0
  190.0100  175.4440  137.9170 C   0  0  2  0  0  3  0  0  0  0  0  0
  191.1510  174.7940  137.1290 C   0  0  1  0  0  3  0  0  0  0  0  0
  190.2930  176.3810  134.9340 S   0  0  0  0  0  0  0  0  0  0  0  0
  188.9340  175.3560  135.5910 C   0  0  0  0  0  2  0  0  0  0  0  0
  188.7360  175.6310  137.0800 C   0  0  0  0  0  2  0  0  0  0  0  0
  191.6350  175.6790  135.9770 C   0  0  0  0  0  2  0  0  0  0  0  0
  1 12  1  0  0  0  0
  1 10  1  0  0  0  0
  2  6  2  0  0  0  0
  3  8  1  1  0  0  0
  4  9  1  6  0  0  0
  4 14  1  0  0  0  0
  4 17  1  0  0  0  0
  6  5  1  0  0  0  0
  7 13  2  0  0  0  0
  8  2  1  0  0  0  0
  8  1  2  0  0  0  0
  9 16  1  0  0  0  0
 10  5  2  0  0  0  0
 11  3  1  0  0  0  0
 11 18  1  1  0  0  0
 14 15  1  0  0  0  0
 15 21  1  6  0  0  0
 15 11  1  0  0  0  0
 16 26  1  6  0  0  0
 16  7  1  0  0  0  0
 17  7  1  6  0  0  0
 17  3  1  0  0  0  0
 18 12  1  0  0  0  0
 19 23  2  0  0  0  0
 19 20  1  0  0  0  0
 20 22  2  0  0  0  0
 21 24  2  0  0  0  0
 22 24  1  0  0  0  0
 23 21  1  0  0  0  0
 25 19  1  0  0  0  0
 27 26  1  0  0  0  0
 29 27  1  6  0  0  0
 30 29  1  0  0  0  0
 30 28  1  1  0  0  0
 31 32  1  0  0  0  0
 31 34  1  0  0  0  0
 32 33  1  0  0  0  0
 33 29  1  0  0  0  0
 34 30  1  0  0  0  0
M  END
>  <MODEL>
4

>  <REMARK>
 VINA RESULT:      -9.8      2.608      5.773
  Name = 
  4 active torsions:
  status: ('A' for Active; 'I' for Inactive)
    1  A    between atoms: O_3  and  C_13
    2  A    between atoms: O_3  and  C_17
    3  A    between atoms: C_12  and  C_28
    4  A    between atoms: C_17  and  C_29
                            x       y       z     vdW  Elec       q    Type
                         _______ _______ _______ _____ _____    ______ ____

>  <TORSDO>
F 4

$$$$
=
 OpenBabel11052414073D

 34 39  0  0  1  0  0  0  0  0999 V2000
  184.5460  178.4800  142.0650 C   0  0  0  0  0  0  0  0  0  0  0  0
  186.1950  178.8480  143.8130 C   0  0  0  0  0  3  0  0  0  0  0  0
  186.9920  178.6410  141.4200 C   0  0  2  0  0  3  0  0  0  0  0  0
  189.3940  178.2750  140.7860 N   0  0  1  0  0  0  0  0  0  0  0  0
  183.8420  178.7440  144.3700 C   0  0  0  0  0  3  0  0  0  0  0  0
  185.1730  178.9080  144.7640 C   0  0  0  0  0  3  0  0  0  0  0  0
  188.5420  176.8130  142.4220 C   0  0  0  0  0  0  0  0  0  0  0  0
  185.8990  178.5990  142.4630 C   0  0  0  0  0  0  0  0  0  0  0  0
  190.4850  177.4150  141.2610 C   0  0  0  0  0  2  0  0  0  0  0  0
  183.5310  178.5320  143.0250 C   0  0  0  0  0  3  0  0  0  0  0  0
  186.5870  178.0280  140.0910 C   0  0  2  0  0  3  0  0  0  0  0  0
  184.1670  178.2220  140.6300 C   0  0  0  0  0  2  0  0  0  0  0  0
  187.7060  176.2250  143.0920 O   0  0  0  0  0  0  0  0  0  0  0  0
  188.9270  177.6410  139.6080 N   0  0  0  0  0  2  0  0  0  0  0  0
  187.7200  178.2980  139.1070 C   0  0  1  0  0  3  0  0  0  0  0  0
  189.8710  176.2690  142.0730 C   0  0  1  0  0  3  0  0  0  0  0  0
  188.3930  178.1800  141.8660 C   0  0  2  0  0  3  0  0  0  0  0  0
  185.2630  178.6470  139.6540 C   0  0  0  0  0  2  0  0  0  0  0  0
  186.9550  175.9470  136.2110 C   0  0  0  0  0  0  0  0  0  0  0  0
  186.8260  176.8560  135.1560 C   0  0  0  0  0  3  0  0  0  0  0  0
  187.4070  177.7800  137.7360 C   0  0  0  0  0  0  0  0  0  0  0  0
  186.9900  178.2240  135.3880 C   0  0  0  0  0  3  0  0  0  0  0  0
  187.2450  176.4070  137.4990 C   0  0  0  0  0  3  0  0  0  0  0  0
  187.2810  178.6850  136.6760 C   0  0  0  0  0  3  0  0  0  0  0  0
  186.7960  174.6210  135.9850 F   0  0  0  0  0  0  0  0  0  0  0  0
  190.7150  175.9730  143.3110 C   0  0  0  0  0  2  0  0  0  0  0  0
  189.9620  176.1290  144.4820 O   0  0  0  0  0  0  0  0  0  0  0  0
  192.3120  175.9440  146.0980 F   0  0  0  0  0  0  0  0  0  0  0  0
  190.5310  177.2250  145.1390 C   0  0  2  0  0  3  0  0  0  0  0  0
  191.2490  176.7710  146.4130 C   0  0  1  0  0  3  0  0  0  0  0  0
  188.7080  176.9110  147.6740 S   0  0  0  0  0  0  0  0  0  0  0  0
  189.1520  178.4950  146.8880 C   0  0  0  0  0  2  0  0  0  0  0  0
  189.4520  178.2850  145.4060 C   0  0  0  0  0  2  0  0  0  0  0  0
  190.3080  176.0520  147.3820 C   0  0  0  0  0  2  0  0  0  0  0  0
  1  8  2  0  0  0  0
  1 10  1  0  0  0  0
  2  6  2  0  0  0  0
  3 17  1  0  0  0  0
  3  8  1  1  0  0  0
  4  9  1  1  0  0  0
  4 17  1  0  0  0  0
  5  6  1  0  0  0  0
  7 13  2  0  0  0  0
  8  2  1  0  0  0  0
  9 16  1  0  0  0  0
 10  5  2  0  0  0  0
 11 18  1  6  0  0  0
 11  3  1  0  0  0  0
 12  1  1  0  0  0  0
 14  4  1  0  0  0  0
 15 21  1  6  0  0  0
 15 14  1  0  0  0  0
 15 11  1  0  0  0  0
 16  7  1  0  0  0  0
 16 26  1  1  0  0  0
 17  7  1  6  0  0  0
 18 12  1  0  0  0  0
 19 23  1  0  0  0  0
 20 22  1  0  0  0  0
 20 19  2  0  0  0  0
 22 24  2  0  0  0  0
 23 21  2  0  0  0  0
 24 21  1  0  0  0  0
 25 19  1  0  0  0  0
 26 27  1  0  0  0  0
 29 27  1  1  0  0  0
 29 33  1  0  0  0  0
 29 30  1  0  0  0  0
 30 28  1  6  0  0  0
 30 34  1  0  0  0  0
 32 31  1  0  0  0  0
 33 32  1  0  0  0  0
 34 31  1  0  0  0  0
M  END
>  <MODEL>
5

>  <REMARK>
 VINA RESULT:      -8.6      2.825      7.625
  Name = 
  4 active torsions:
  status: ('A' for Active; 'I' for Inactive)
    1  A    between atoms: O_3  and  C_13
    2  A    between atoms: O_3  and  C_17
    3  A    between atoms: C_12  and  C_28
    4  A    between atoms: C_17  and  C_29
                            x       y       z     vdW  Elec       q    Type
                         _______ _______ _______ _____ _____    ______ ____

>  <TORSDO>
F 4

$$$$
=
 OpenBabel11052414073D

 34 39  0  0  1  0  0  0  0  0999 V2000
  184.6600  178.4100  144.9200 C   0  0  0  0  0  0  0  0  0  0  0  0
  187.0600  178.6280  145.2370 C   0  0  0  0  0  3  0  0  0  0  0  0
  186.1100  178.9670  142.9170 C   0  0  2  0  0  3  0  0  0  0  0  0
  187.5140  179.0030  140.8350 N   0  0  1  0  0  0  0  0  0  0  0  0
  185.6270  178.1540  147.1280 C   0  0  0  0  0  3  0  0  0  0  0  0
  186.9000  178.3920  146.6050 C   0  0  0  0  0  3  0  0  0  0  0  0
  187.8740  177.1720  142.2710 C   0  0  0  0  0  0  0  0  0  0  0  0
  185.9520  178.6050  144.3760 C   0  0  0  0  0  0  0  0  0  0  0  0
  188.6220  178.1990  140.3030 C   0  0  0  0  0  2  0  0  0  0  0  0
  184.5110  178.1640  146.2880 C   0  0  0  0  0  3  0  0  0  0  0  0
  184.9180  178.5720  142.0610 C   0  0  2  0  0  3  0  0  0  0  0  0
  183.4330  178.3840  144.0460 C   0  0  0  0  0  2  0  0  0  0  0  0
  187.6510  176.3780  143.1710 O   0  0  0  0  0  0  0  0  0  0  0  0
  186.3730  178.5520  140.1260 N   0  0  0  0  0  2  0  0  0  0  0  0
  185.1540  179.1490  140.6690 C   0  0  1  0  0  3  0  0  0  0  0  0
  188.6400  176.8590  141.0450 C   0  0  1  0  0  3  0  0  0  0  0  0
  187.4480  178.5930  142.2520 C   0  0  2  0  0  3  0  0  0  0  0  0
  183.6510  179.1070  142.7180 C   0  0  0  0  0  2  0  0  0  0  0  0
  182.2620  179.6180  138.2360 C   0  0  0  0  0  0  0  0  0  0  0  0
  181.8720  178.2920  138.0250 C   0  0  0  0  0  3  0  0  0  0  0  0
  184.0090  178.8660  139.7440 C   0  0  0  0  0  0  0  0  0  0  0  0
  182.5460  177.2540  138.6740 C   0  0  0  0  0  3  0  0  0  0  0  0
  183.3280  179.9070  139.0930 C   0  0  0  0  0  3  0  0  0  0  0  0
  183.6130  177.5410  139.5330 C   0  0  0  0  0  3  0  0  0  0  0  0
  181.6080  180.6240  137.6070 F   0  0  0  0  0  0  0  0  0  0  0  0
  190.0730  176.4340  141.3570 C   0  0  0  0  0  2  0  0  0  0  0  0
  190.2300  176.1550  142.7210 O   0  0  0  0  0  0  0  0  0  0  0  0
  192.0890  174.7410  144.3680 F   0  0  0  0  0  0  0  0  0  0  0  0
  191.4960  176.6510  143.0520 C   0  0  2  0  0  3  0  0  0  0  0  0
  191.9400  176.1150  144.4160 C   0  0  1  0  0  3  0  0  0  0  0  0
  190.4420  178.2530  145.5370 S   0  0  0  0  0  0  0  0  0  0  0  0
  191.6810  178.8580  144.3430 C   0  0  0  0  0  2  0  0  0  0  0  0
  191.4830  178.1860  142.9870 C   0  0  0  0  0  2  0  0  0  0  0  0
  190.9590  176.4880  145.5300 C   0  0  0  0  0  2  0  0  0  0  0  0
  1 10  1  0  0  0  0
  2  6  2  0  0  0  0
  3  8  1  1  0  0  0
  4  9  1  6  0  0  0
  4 17  1  0  0  0  0
  6  5  1  0  0  0  0
  7 13  2  0  0  0  0
  8  1  2  0  0  0  0
  8  2  1  0  0  0  0
  9 16  1  0  0  0  0
 10  5  2  0  0  0  0
 11 18  1  1  0  0  0
 11  3  1  0  0  0  0
 12  1  1  0  0  0  0
 14 15  1  0  0  0  0
 14  4  1  0  0  0  0
 15 21  1  6  0  0  0
 15 11  1  0  0  0  0
 16 26  1  1  0  0  0
 16  7  1  0  0  0  0
 17  7  1  6  0  0  0
 17  3  1  0  0  0  0
 18 12  1  0  0  0  0
 19 23  1  0  0  0  0
 20 19  2  0  0  0  0
 20 22  1  0  0  0  0
 22 24  2  0  0  0  0
 23 21  2  0  0  0  0
 24 21  1  0  0  0  0
 25 19  1  0  0  0  0
 26 27  1  0  0  0  0
 29 27  1  1  0  0  0
 29 30  1  0  0  0  0
 30 28  1  6  0  0  0
 30 34  1  0  0  0  0
 32 31  1  0  0  0  0
 33 29  1  0  0  0  0
 33 32  1  0  0  0  0
 34 31  1  0  0  0  0
M  END
>  <MODEL>
6

>  <REMARK>
 VINA RESULT:      -8.4      3.080      7.268
  Name = 
  4 active torsions:
  status: ('A' for Active; 'I' for Inactive)
    1  A    between atoms: O_3  and  C_13
    2  A    between atoms: O_3  and  C_17
    3  A    between atoms: C_12  and  C_28
    4  A    between atoms: C_17  and  C_29
                            x       y       z     vdW  Elec       q    Type
                         _______ _______ _______ _____ _____    ______ ____

>  <TORSDO>
F 4

$$$$
=
 OpenBabel11052414073D

 34 39  0  0  1  0  0  0  0  0999 V2000
  189.4110  177.8780  146.5020 C   0  0  0  0  0  0  0  0  0  0  0  0
  187.1490  177.5950  147.3470 C   0  0  0  0  0  3  0  0  0  0  0  0
  187.5710  177.2420  144.8770 C   0  0  2  0  0  3  0  0  0  0  0  0
  185.7430  177.1280  143.1600 N   0  0  1  0  0  0  0  0  0  0  0  0
  188.9490  178.1450  148.8670 C   0  0  0  0  0  3  0  0  0  0  0  0
  187.6000  177.8610  148.6420 C   0  0  0  0  0  3  0  0  0  0  0  0
  185.6510  178.9730  144.6190 C   0  0  0  0  0  0  0  0  0  0  0  0
  188.0370  177.6350  146.2610 C   0  0  0  0  0  0  0  0  0  0  0  0
  184.5190  177.8890  142.8780 C   0  0  0  0  0  2  0  0  0  0  0  0
  189.8510  178.1530  147.8000 C   0  0  0  0  0  3  0  0  0  0  0  0
  188.5310  177.6560  143.7740 C   0  0  2  0  0  3  0  0  0  0  0  0
  190.4120  177.9240  145.3770 C   0  0  0  0  0  2  0  0  0  0  0  0
  186.0420  179.7890  145.4390 O   0  0  0  0  0  0  0  0  0  0  0  0
  186.6830  177.5990  142.2100 N   0  0  0  0  0  2  0  0  0  0  0  0
  188.0120  177.0470  142.4760 C   0  0  1  0  0  3  0  0  0  0  0  0
  184.6230  179.2410  143.5910 C   0  0  1  0  0  3  0  0  0  0  0  0
  186.1080  177.5650  144.5220 C   0  0  2  0  0  3  0  0  0  0  0  0
  189.9290  177.1710  144.1390 C   0  0  0  0  0  2  0  0  0  0  0  0
  189.3670  178.4770  139.2160 C   0  0  0  0  0  0  0  0  0  0  0  0
  190.6290  177.8780  139.1660 C   0  0  0  0  0  3  0  0  0  0  0  0
  188.9130  177.3470  141.3160 C   0  0  0  0  0  0  0  0  0  0  0  0
  191.0330  177.0130  140.1860 C   0  0  0  0  0  3  0  0  0  0  0  0
  188.5090  178.2130  140.2890 C   0  0  0  0  0  3  0  0  0  0  0  0
  190.1760  176.7470  141.2600 C   0  0  0  0  0  3  0  0  0  0  0  0
  188.9750  179.3150  138.2270 F   0  0  0  0  0  0  0  0  0  0  0  0
  183.2810  179.6290  144.2090 C   0  0  0  0  0  2  0  0  0  0  0  0
  182.3460  179.9550  143.2180 O   0  0  0  0  0  0  0  0  0  0  0  0
  182.1510  178.3190  140.8820 F   0  0  0  0  0  0  0  0  0  0  0  0
  181.5060  178.8400  143.1290 C   0  0  2  0  0  3  0  0  0  0  0  0
  181.0610  178.6200  141.6790 C   0  0  1  0  0  3  0  0  0  0  0  0
  179.0250  180.5290  142.2090 S   0  0  0  0  0  0  0  0  0  0  0  0
  178.9750  179.1500  143.4010 C   0  0  0  0  0  2  0  0  0  0  0  0
  180.3250  179.0030  144.0980 C   0  0  0  0  0  2  0  0  0  0  0  0
  180.3270  179.8360  141.1100 C   0  0  0  0  0  2  0  0  0  0  0  0
  1 10  1  0  0  0  0
  2  6  2  0  0  0  0
  3  8  1  1  0  0  0
  4  9  1  6  0  0  0
  4 17  1  0  0  0  0
  6  5  1  0  0  0  0
  7 13  2  0  0  0  0
  8  1  2  0  0  0  0
  8  2  1  0  0  0  0
  9 16  1  0  0  0  0
 10  5  2  0  0  0  0
 11 18  1  1  0  0  0
 11  3  1  0  0  0  0
 12  1  1  0  0  0  0
 14 15  1  0  0  0  0
 14  4  1  0  0  0  0
 15 21  1  6  0  0  0
 15 11  1  0  0  0  0
 16 26  1  1  0  0  0
 16  7  1  0  0  0  0
 17  7  1  6  0  0  0
 17  3  1  0  0  0  0
 18 12  1  0  0  0  0
 19 23  1  0  0  0  0
 20 19  2  0  0  0  0
 20 22  1  0  0  0  0
 22 24  2  0  0  0  0
 23 21  2  0  0  0  0
 24 21  1  0  0  0  0
 25 19  1  0  0  0  0
 27 26  1  0  0  0  0
 29 27  1  6  0  0  0
 29 33  1  0  0  0  0
 30 28  1  6  0  0  0
 30 29  1  0  0  0  0
 31 32  1  0  0  0  0
 32 33  1  0  0  0  0
 34 30  1  0  0  0  0
 34 31  1  0  0  0  0
M  END
>  <MODEL>
7

>  <REMARK>
 VINA RESULT:      -8.3      3.516      6.934
  Name = 
  4 active torsions:
  status: ('A' for Active; 'I' for Inactive)
    1  A    between atoms: O_3  and  C_13
    2  A    between atoms: O_3  and  C_17
    3  A    between atoms: C_12  and  C_28
    4  A    between atoms: C_17  and  C_29
                            x       y       z     vdW  Elec       q    Type
                         _______ _______ _______ _____ _____    ______ ____

>  <TORSDO>
F 4

$$$$
=
 OpenBabel11052414073D

 34 39  0  0  1  0  0  0  0  0999 V2000
  188.9450  177.4360  144.4200 C   0  0  0  0  0  0  0  0  0  0  0  0
  190.7940  177.7640  142.8770 C   0  0  0  0  0  3  0  0  0  0  0  0
  188.4750  178.4690  142.1540 C   0  0  2  0  0  3  0  0  0  0  0  0
  187.8650  179.0030  139.7770 N   0  0  1  0  0  0  0  0  0  0  0  0
  191.2010  176.8350  145.0740 C   0  0  0  0  0  3  0  0  0  0  0  0
  191.6800  177.2600  143.8330 C   0  0  0  0  0  3  0  0  0  0  0  0
  188.9950  176.9630  140.1020 C   0  0  0  0  0  0  0  0  0  0  0  0
  189.4180  177.8250  143.1440 C   0  0  0  0  0  0  0  0  0  0  0  0
  188.1290  178.3980  138.4650 C   0  0  0  0  0  2  0  0  0  0  0  0
  189.8380  176.9240  145.3660 C   0  0  0  0  0  3  0  0  0  0  0  0
  187.0110  178.1590  142.4190 C   0  0  2  0  0  3  0  0  0  0  0  0
  187.4800  177.4880  144.7670 C   0  0  0  0  0  2  0  0  0  0  0  0
  189.4390  175.9980  140.7030 O   0  0  0  0  0  0  0  0  0  0  0  0
  186.5390  178.6140  140.0890 N   0  0  0  0  0  2  0  0  0  0  0  0
  186.1900  179.0070  141.4540 C   0  0  1  0  0  3  0  0  0  0  0  0
  188.5640  176.9450  138.6870 C   0  0  1  0  0  3  0  0  0  0  0  0
  188.8340  178.3270  140.6620 C   0  0  2  0  0  3  0  0  0  0  0  0
  186.7080  178.4650  143.8820 C   0  0  0  0  0  2  0  0  0  0  0  0
  182.7590  178.8130  143.0950 C   0  0  0  0  0  0  0  0  0  0  0  0
  181.9590  178.4650  142.0020 C   0  0  0  0  0  3  0  0  0  0  0  0
  184.7160  178.8220  141.6600 C   0  0  0  0  0  0  0  0  0  0  0  0
  182.5350  178.2930  140.7410 C   0  0  0  0  0  3  0  0  0  0  0  0
  184.1350  178.9920  142.9260 C   0  0  0  0  0  3  0  0  0  0  0  0
  183.9130  178.4710  140.5700 C   0  0  0  0  0  3  0  0  0  0  0  0
  182.1990  178.9800  144.3170 F   0  0  0  0  0  0  0  0  0  0  0  0
  189.7070  176.5740  137.7440 C   0  0  0  0  0  2  0  0  0  0  0  0
  190.9310  177.0610  138.2200 O   0  0  0  0  0  0  0  0  0  0  0  0
  193.5700  177.1650  139.3110 F   0  0  0  0  0  0  0  0  0  0  0  0
  191.6960  175.9210  138.4900 C   0  0  2  0  0  3  0  0  0  0  0  0
  193.1900  176.2370  138.3590 C   0  0  1  0  0  3  0  0  0  0  0  0
  192.8570  175.7620  135.5780 S   0  0  0  0  0  0  0  0  0  0  0  0
  192.3070  174.3340  136.5710 C   0  0  0  0  0  2  0  0  0  0  0  0
  191.2470  174.7680  137.5800 C   0  0  0  0  0  2  0  0  0  0  0  0
  193.5500  176.7530  136.9640 C   0  0  0  0  0  2  0  0  0  0  0  0
  1 12  1  0  0  0  0
  1 10  1  0  0  0  0
  2  8  1  0  0  0  0
  2  6  2  0  0  0  0
  3 11  1  0  0  0  0
  3  8  1  1  0  0  0
  4  9  1  6  0  0  0
  4 14  1  0  0  0  0
  4 17  1  0  0  0  0
  5 10  2  0  0  0  0
  6  5  1  0  0  0  0
  7 13  2  0  0  0  0
  8  1  2  0  0  0  0
  9 16  1  0  0  0  0
 11 18  1  1  0  0  0
 14 15  1  0  0  0  0
 15 21  1  1  0  0  0
 15 11  1  0  0  0  0
 16 26  1  6  0  0  0
 16  7  1  0  0  0  0
 17  7  1  6  0  0  0
 17  3  1  0  0  0  0
 18 12  1  0  0  0  0
 19 25  1  0  0  0  0
 20 19  2  0  0  0  0
 21 23  2  0  0  0  0
 22 20  1  0  0  0  0
 23 19  1  0  0  0  0
 24 22  2  0  0  0  0
 24 21  1  0  0  0  0
 26 27  1  0  0  0  0
 29 27  1  6  0  0  0
 30 29  1  0  0  0  0
 30 28  1  1  0  0  0
 31 32  1  0  0  0  0
 31 34  1  0  0  0  0
 32 33  1  0  0  0  0
 33 29  1  0  0  0  0
 34 30  1  0  0  0  0
M  END
>  <MODEL>
8

>  <REMARK>
 VINA RESULT:      -8.3      3.152      6.196
  Name = 
  4 active torsions:
  status: ('A' for Active; 'I' for Inactive)
    1  A    between atoms: O_3  and  C_13
    2  A    between atoms: O_3  and  C_17
    3  A    between atoms: C_12  and  C_28
    4  A    between atoms: C_17  and  C_29
                            x       y       z     vdW  Elec       q    Type
                         _______ _______ _______ _____ _____    ______ ____

>  <TORSDO>
F 4

$$$$
=
 OpenBabel11052414073D

 34 39  0  0  1  0  0  0  0  0999 V2000
  184.6950  178.7120  144.4580 C   0  0  0  0  0  0  0  0  0  0  0  0
  184.4900  178.0320  142.1330 C   0  0  0  0  0  3  0  0  0  0  0  0
  186.5360  177.3040  143.4300 C   0  0  2  0  0  3  0  0  0  0  0  0
  188.6040  176.3730  142.3510 N   0  0  1  0  0  0  0  0  0  0  0  0
  182.7320  179.3280  143.1750 C   0  0  0  0  0  3  0  0  0  0  0  0
  183.2460  178.6640  142.0590 C   0  0  0  0  0  3  0  0  0  0  0  0
  187.8020  178.3890  141.4380 C   0  0  0  0  0  0  0  0  0  0  0  0
  185.2430  178.0780  143.3160 C   0  0  0  0  0  0  0  0  0  0  0  0
  189.4240  176.7170  141.1830 C   0  0  0  0  0  2  0  0  0  0  0  0
  183.4550  179.3500  144.3710 C   0  0  0  0  0  3  0  0  0  0  0  0
  187.3890  177.7180  144.6180 C   0  0  2  0  0  3  0  0  0  0  0  0
  185.4530  178.7840  145.7580 C   0  0  0  0  0  2  0  0  0  0  0  0
  187.1640  179.4280  141.3720 O   0  0  0  0  0  0  0  0  0  0  0  0
  189.3360  176.8670  143.4590 N   0  0  0  0  0  2  0  0  0  0  0  0
  188.5590  176.7440  144.6920 C   0  0  1  0  0  3  0  0  0  0  0  0
  189.1140  178.1670  140.7930 C   0  0  1  0  0  3  0  0  0  0  0  0
  187.3710  177.1580  142.1440 C   0  0  2  0  0  3  0  0  0  0  0  0
  186.5190  177.6960  145.8700 C   0  0  0  0  0  2  0  0  0  0  0  0
  189.7950  177.8930  148.1060 C   0  0  0  0  0  0  0  0  0  0  0  0
  191.1440  177.5300  148.0380 C   0  0  0  0  0  3  0  0  0  0  0  0
  189.4480  177.0230  145.8670 C   0  0  0  0  0  0  0  0  0  0  0  0
  191.6460  176.9180  146.8870 C   0  0  0  0  0  3  0  0  0  0  0  0
  188.9470  177.6410  147.0240 C   0  0  0  0  0  3  0  0  0  0  0  0
  190.7990  176.6650  145.8020 C   0  0  0  0  0  3  0  0  0  0  0  0
  189.3090  178.4870  149.2220 F   0  0  0  0  0  0  0  0  0  0  0  0
  189.0390  178.3120  139.2740 C   0  0  0  0  0  2  0  0  0  0  0  0
  190.2710  178.0150  138.6790 O   0  0  0  0  0  0  0  0  0  0  0  0
  192.5540  176.7530  139.8470 F   0  0  0  0  0  0  0  0  0  0  0  0
  190.4070  176.6270  138.7950 C   0  0  2  0  0  3  0  0  0  0  0  0
  191.8860  176.2290  138.7550 C   0  0  1  0  0  3  0  0  0  0  0  0
  191.6410  176.3040  135.9260 S   0  0  0  0  0  0  0  0  0  0  0  0
  190.4110  175.1840  136.6750 C   0  0  0  0  0  2  0  0  0  0  0  0
  189.5720  175.9330  137.7080 C   0  0  0  0  0  2  0  0  0  0  0  0
  192.5720  176.6850  137.4660 C   0  0  0  0  0  2  0  0  0  0  0  0
  1 12  1  0  0  0  0
  2  8  1  0  0  0  0
  3  8  1  6  0  0  0
  3 11  1  0  0  0  0
  4  9  1  6  0  0  0
  4 14  1  0  0  0  0
  5 10  2  0  0  0  0
  6  2  2  0  0  0  0
  6  5  1  0  0  0  0
  8  1  2  0  0  0  0
 10  1  1  0  0  0  0
 11 15  1  0  0  0  0
 11 18  1  1  0  0  0
 12 18  1  0  0  0  0
 13  7  2  0  0  0  0
 14 15  1  0  0  0  0
 15 21  1  1  0  0  0
 16 26  1  6  0  0  0
 16  9  1  0  0  0  0
 16  7  1  0  0  0  0
 17  7  1  1  0  0  0
 17  4  1  0  0  0  0
 17  3  1  0  0  0  0
 19 25  1  0  0  0  0
 20 19  1  0  0  0  0
 21 23  1  0  0  0  0
 22 20  2  0  0  0  0
 23 19  2  0  0  0  0
 24 21  2  0  0  0  0
 24 22  1  0  0  0  0
 27 26  1  0  0  0  0
 29 27  1  6  0  0  0
 30 29  1  0  0  0  0
 30 28  1  1  0  0  0
 31 32  1  0  0  0  0
 31 34  1  0  0  0  0
 32 33  1  0  0  0  0
 33 29  1  0  0  0  0
 34 30  1  0  0  0  0
M  END
>  <MODEL>
9

>  <REMARK>
 VINA RESULT:      -8.3      2.085      2.560
  Name = 
  4 active torsions:
  status: ('A' for Active; 'I' for Inactive)
    1  A    between atoms: O_3  and  C_13
    2  A    between atoms: O_3  and  C_17
    3  A    between atoms: C_12  and  C_28
    4  A    between atoms: C_17  and  C_29
                            x       y       z     vdW  Elec       q    Type
                         _______ _______ _______ _____ _____    ______ ____

>  <TORSDO>
F 4

$$$$
