=
 OpenBabel11052414323D

 32 35  0  0  1  0  0  0  0  0999 V2000
  188.6940  178.7710  139.2080 N   0  0  1  0  0  0  0  0  0  0  0  0
  188.8400  176.9240  140.7400 C   0  0  1  0  0  3  0  0  0  0  0  0
  190.1420  175.0280  137.4200 C   0  0  2  0  0  3  0  0  0  0  0  0
  187.7110  178.3800  138.1790 C   0  0  0  0  0  2  0  0  0  0  0  0
  188.2960  178.3230  140.5530 C   0  0  2  0  0  3  0  0  0  0  0  0
  188.4500  177.3780  143.2520 C   0  0  0  0  0  2  0  0  0  0  0  0
  191.0300  173.8690  136.9980 C   0  0  0  0  0  1  0  0  0  0  0  0
  190.1290  176.9300  139.9310 C   0  0  1  0  0  3  0  0  0  0  0  0
  186.9300  177.4850  143.2030 C   0  0  1  0  0  3  0  0  0  0  0  0
  188.6740  174.8570  137.0030 C   0  0  1  0  0  3  0  0  0  0  0  0
  188.3350  177.3680  137.2370 C   0  0  2  0  0  3  0  0  0  0  0  0
  188.9820  176.4230  142.1890 C   0  0  0  0  0  2  0  0  0  0  0  0
  186.7940  178.3950  140.8320 C   0  0  0  0  0  2  0  0  0  0  0  0
  187.8420  175.9700  137.6330 C   0  0  0  0  0  2  0  0  0  0  0  0
  190.7330  176.3970  137.0490 C   0  0  1  0  0  3  0  0  0  0  0  0
  190.9990  176.4860  135.6210 N   0  0  0  0  0  1  0  0  0  0  0  0
  189.9450  178.0600  138.9040 C   0  0  1  0  0  3  0  0  0  0  0  0
  186.4500  177.6600  144.6350 C   0  0  0  0  0  1  0  0  0  0  0  0
  189.8190  177.5570  137.4750 C   0  0  2  0  0  3  0  0  0  0  0  0
  186.4980  178.6650  142.3050 C   0  0  1  0  0  3  0  0  0  0  0  0
  185.0300  178.9430  142.4100 C   0  0  0  0  0  3  0  0  0  0  0  0
  184.1580  178.3160  141.6240 C   0  0  0  0  0  3  0  0  0  0  0  0
  182.7040  178.6080  141.7450 C   0  0  0  0  0  1  0  0  0  0  0  0
  188.4560  174.8160  135.4920 C   0  0  0  0  0  2  0  0  0  0  0  0
  187.6930  172.7480  135.5650 C   0  0  0  0  0  1  0  0  0  0  0  0
  187.3380  174.0410  135.1850 O   0  0  0  0  0  0  0  0  0  0  0  0
  191.4110  177.1180  140.7660 C   0  0  1  0  0  3  0  0  0  0  0  0
  193.7610  176.9770  140.3420 O   0  0  0  0  0  1  0  0  0  0  0  0
  192.5700  177.5240  139.8670 C   0  0  0  0  0  2  0  0  0  0  0  0
  191.2280  178.1110  141.9120 C   0  0  0  0  0  2  0  0  0  0  0  0
  191.9240  177.6810  143.0400 O   0  0  0  0  0  0  0  0  0  0  0  0
  191.7370  178.6980  143.9740 C   0  0  0  0  0  1  0  0  0  0  0  0
  1  4  1  6  0  0  0
  1  5  1  0  0  0  0
  2 12  1  1  0  0  0
  3  7  1  6  0  0  0
  5  2  1  0  0  0  0
  5 13  1  6  0  0  0
  8  2  1  0  0  0  0
  8 27  1  1  0  0  0
  9  6  1  0  0  0  0
  9 18  1  1  0  0  0
 10 24  1  6  0  0  0
 10  3  1  0  0  0  0
 10 14  1  0  0  0  0
 11 19  1  0  0  0  0
 11 14  1  1  0  0  0
 11  4  1  0  0  0  0
 12  6  1  0  0  0  0
 13 20  1  0  0  0  0
 15 16  1  6  0  0  0
 15  3  1  0  0  0  0
 15 19  1  0  0  0  0
 17  1  1  0  0  0  0
 17  8  1  0  0  0  0
 19 17  1  0  0  0  0
 20 21  1  0  0  0  0
 20  9  1  0  0  0  0
 22 23  1  0  0  0  0
 22 21  2  0  0  0  0
 26 24  1  0  0  0  0
 26 25  1  0  0  0  0
 27 30  1  0  0  0  0
 29 28  1  0  0  0  0
 29 27  1  0  0  0  0
 30 31  1  0  0  0  0
 31 32  1  0  0  0  0
M  END
>  <MODEL>
1

>  <REMARK>
 VINA RESULT:      -6.7      0.000      0.000
  Name = 
  7 active torsions:
  status: ('A' for Active; 'I' for Inactive)
    1  A    between atoms: C_10  and  C_28
    2  A    between atoms: O_11  and  C_12
    3  A    between atoms: C_12  and  C_28
    4  A    between atoms: C_14  and  C_29
    5  A    between atoms: C_15  and  C_19
    6  A    between atoms: C_19  and  O_26
    7  A    between atoms: C_28  and  C_32
                            x       y       z     vdW  Elec       q    Type
                         _______ _______ _______ _____ _____    ______ ____

>  <TORSDO>
F 7

$$$$
=
 OpenBabel11052414323D

 32 35  0  0  1  0  0  0  0  0999 V2000
  188.1910  178.8690  138.9200 N   0  0  1  0  0  0  0  0  0  0  0  0
  188.4560  177.1550  140.5840 C   0  0  1  0  0  3  0  0  0  0  0  0
  189.8180  175.0840  137.3950 C   0  0  2  0  0  3  0  0  0  0  0  0
  187.2180  178.3490  137.9400 C   0  0  0  0  0  2  0  0  0  0  0  0
  187.8340  178.5040  140.3010 C   0  0  2  0  0  3  0  0  0  0  0  0
  188.0720  177.7770  143.0610 C   0  0  0  0  0  2  0  0  0  0  0  0
  190.7630  173.9450  137.0470 C   0  0  0  0  0  1  0  0  0  0  0  0
  189.7330  177.1670  139.7560 C   0  0  1  0  0  3  0  0  0  0  0  0
  186.5480  177.7980  143.0280 C   0  0  1  0  0  3  0  0  0  0  0  0
  188.3560  174.8030  137.0160 C   0  0  1  0  0  3  0  0  0  0  0  0
  187.8850  177.3030  137.0660 C   0  0  2  0  0  3  0  0  0  0  0  0
  188.6420  176.7730  142.0640 C   0  0  0  0  0  2  0  0  0  0  0  0
  186.3340  178.5170  140.5980 C   0  0  0  0  0  2  0  0  0  0  0  0
  187.4730  175.9150  137.5740 C   0  0  0  0  0  2  0  0  0  0  0  0
  190.3290  176.4500  136.9120 C   0  0  1  0  0  3  0  0  0  0  0  0
  190.5720  176.4440  135.4780 N   0  0  0  0  0  1  0  0  0  0  0  0
  189.4740  178.2050  138.6490 C   0  0  1  0  0  3  0  0  0  0  0  0
  186.0760  178.0550  144.4510 C   0  0  0  0  0  1  0  0  0  0  0  0
  189.3590  177.5890  137.2650 C   0  0  2  0  0  3  0  0  0  0  0  0
  186.0420  178.8810  142.0510 C   0  0  1  0  0  3  0  0  0  0  0  0
  184.5620  179.0880  142.1590 C   0  0  0  0  0  3  0  0  0  0  0  0
  183.7190  178.3990  141.3950 C   0  0  0  0  0  3  0  0  0  0  0  0
  182.2520  178.6200  141.5180 C   0  0  0  0  0  1  0  0  0  0  0  0
  188.1220  174.6360  135.5160 C   0  0  0  0  0  2  0  0  0  0  0  0
  187.4240  172.6040  136.0150 C   0  0  0  0  0  1  0  0  0  0  0  0
  187.0780  173.7420  135.2860 O   0  0  0  0  0  0  0  0  0  0  0  0
  191.0120  177.4860  140.5530 C   0  0  1  0  0  3  0  0  0  0  0  0
  191.9490  177.0010  142.7000 O   0  0  0  0  0  1  0  0  0  0  0  0
  191.2250  176.4470  141.6450 C   0  0  0  0  0  2  0  0  0  0  0  0
  192.2460  177.6110  139.6620 C   0  0  0  0  0  2  0  0  0  0  0  0
  192.6240  176.3570  139.1820 O   0  0  0  0  0  0  0  0  0  0  0  0
  193.4440  176.6360  138.0910 C   0  0  0  0  0  1  0  0  0  0  0  0
  1  4  1  6  0  0  0
  1  5  1  0  0  0  0
  2 12  1  1  0  0  0
  3  7  1  6  0  0  0
  5  2  1  0  0  0  0
  5 13  1  6  0  0  0
  8 27  1  1  0  0  0
  8  2  1  0  0  0  0
  9  6  1  0  0  0  0
  9 18  1  1  0  0  0
 10 24  1  6  0  0  0
 10  3  1  0  0  0  0
 10 14  1  0  0  0  0
 11 19  1  0  0  0  0
 11 14  1  1  0  0  0
 11  4  1  0  0  0  0
 12  6  1  0  0  0  0
 13 20  1  0  0  0  0
 15 16  1  6  0  0  0
 15 19  1  0  0  0  0
 15  3  1  0  0  0  0
 17  1  1  0  0  0  0
 17  8  1  0  0  0  0
 19 17  1  0  0  0  0
 20 21  1  0  0  0  0
 20  9  1  0  0  0  0
 22 23  1  0  0  0  0
 22 21  2  0  0  0  0
 26 24  1  0  0  0  0
 26 25  1  0  0  0  0
 27 29  1  0  0  0  0
 29 28  1  0  0  0  0
 30 27  1  0  0  0  0
 31 30  1  0  0  0  0
 32 31  1  0  0  0  0
M  END
>  <MODEL>
2

>  <REMARK>
 VINA RESULT:      -6.1      0.855      1.647
  Name = 
  7 active torsions:
  status: ('A' for Active; 'I' for Inactive)
    1  A    between atoms: C_10  and  C_28
    2  A    between atoms: O_11  and  C_12
    3  A    between atoms: C_12  and  C_28
    4  A    between atoms: C_14  and  C_29
    5  A    between atoms: C_15  and  C_19
    6  A    between atoms: C_19  and  O_26
    7  A    between atoms: C_28  and  C_32
                            x       y       z     vdW  Elec       q    Type
                         _______ _______ _______ _____ _____    ______ ____

>  <TORSDO>
F 7

$$$$
=
 OpenBabel11052414323D

 32 35  0  0  1  0  0  0  0  0999 V2000
  183.1650  177.9260  139.6550 N   0  0  1  0  0  0  0  0  0  0  0  0
  182.4940  179.1340  141.6220 C   0  0  1  0  0  3  0  0  0  0  0  0
  180.2300  181.1130  138.9250 C   0  0  2  0  0  3  0  0  0  0  0  0
  183.8130  178.9100  138.7660 C   0  0  0  0  0  2  0  0  0  0  0  0
  183.5030  178.1530  141.0700 C   0  0  2  0  0  3  0  0  0  0  0  0
  183.2890  178.2720  143.9230 C   0  0  0  0  0  2  0  0  0  0  0  0
  178.9310  181.8950  138.8270 C   0  0  0  0  0  1  0  0  0  0  0  0
  181.2250  178.8200  140.8420 C   0  0  1  0  0  3  0  0  0  0  0  0
  184.7220  178.7860  143.8450 C   0  0  1  0  0  3  0  0  0  0  0  0
  181.4710  181.9430  138.5670 C   0  0  1  0  0  3  0  0  0  0  0  0
  182.7570  179.7920  138.1270 C   0  0  2  0  0  3  0  0  0  0  0  0
  182.3260  179.1700  143.1520 C   0  0  0  0  0  2  0  0  0  0  0  0
  184.9420  178.6100  141.3180 C   0  0  0  0  0  2  0  0  0  0  0  0
  182.7240  181.1290  138.8780 C   0  0  0  0  0  2  0  0  0  0  0  0
  180.1650  179.7580  138.2050 C   0  0  1  0  0  3  0  0  0  0  0  0
  179.8040  179.9230  136.8060 N   0  0  0  0  0  1  0  0  0  0  0  0
  181.7140  178.1400  139.5510 C   0  0  1  0  0  3  0  0  0  0  0  0
  185.3800  178.4710  145.1790 C   0  0  0  0  0  1  0  0  0  0  0  0
  181.4890  178.9840  138.3070 C   0  0  2  0  0  3  0  0  0  0  0  0
  185.4700  178.1280  142.6660 C   0  0  1  0  0  3  0  0  0  0  0  0
  186.9370  178.4320  142.6920 C   0  0  0  0  0  3  0  0  0  0  0  0
  187.7600  177.9050  141.7870 C   0  0  0  0  0  3  0  0  0  0  0  0
  189.2140  178.2200  141.8320 C   0  0  0  0  0  1  0  0  0  0  0  0
  181.4980  182.4330  137.1210 C   0  0  0  0  0  2  0  0  0  0  0  0
  181.0320  184.2370  135.9400 C   0  0  0  0  0  1  0  0  0  0  0  0
  181.7110  183.8110  137.0810 O   0  0  0  0  0  0  0  0  0  0  0  0
  180.2050  177.9470  141.5990 C   0  0  1  0  0  3  0  0  0  0  0  0
  178.9690  179.2980  143.1380 O   0  0  0  0  0  1  0  0  0  0  0  0
  178.9300  178.7350  141.8630 C   0  0  0  0  0  2  0  0  0  0  0  0
  179.9030  176.6350  140.8770 C   0  0  0  0  0  2  0  0  0  0  0  0
  179.1970  175.7750  141.7160 O   0  0  0  0  0  0  0  0  0  0  0  0
  179.1250  174.5770  141.0060 C   0  0  0  0  0  1  0  0  0  0  0  0
  1  4  1  6  0  0  0
  1  5  1  0  0  0  0
  2 12  1  1  0  0  0
  3  7  1  6  0  0  0
  5 13  1  6  0  0  0
  5  2  1  0  0  0  0
  8 27  1  1  0  0  0
  8  2  1  0  0  0  0
  9  6  1  0  0  0  0
  9 18  1  1  0  0  0
 10 24  1  6  0  0  0
 10 14  1  0  0  0  0
 10  3  1  0  0  0  0
 11 19  1  0  0  0  0
 11  4  1  1  0  0  0
 11 14  1  0  0  0  0
 12  6  1  0  0  0  0
 13 20  1  0  0  0  0
 15 16  1  6  0  0  0
 15 19  1  0  0  0  0
 15  3  1  0  0  0  0
 17  1  1  0  0  0  0
 17  8  1  0  0  0  0
 19 17  1  0  0  0  0
 20 21  1  0  0  0  0
 20  9  1  0  0  0  0
 22 23  1  0  0  0  0
 22 21  2  0  0  0  0
 25 26  1  0  0  0  0
 26 24  1  0  0  0  0
 27 29  1  0  0  0  0
 29 28  1  0  0  0  0
 30 27  1  0  0  0  0
 30 31  1  0  0  0  0
 32 31  1  0  0  0  0
M  END
>  <MODEL>
3

>  <REMARK>
 VINA RESULT:      -5.7      5.564      9.282
  Name = 
  7 active torsions:
  status: ('A' for Active; 'I' for Inactive)
    1  A    between atoms: C_10  and  C_28
    2  A    between atoms: O_11  and  C_12
    3  A    between atoms: C_12  and  C_28
    4  A    between atoms: C_14  and  C_29
    5  A    between atoms: C_15  and  C_19
    6  A    between atoms: C_19  and  O_26
    7  A    between atoms: C_28  and  C_32
                            x       y       z     vdW  Elec       q    Type
                         _______ _______ _______ _____ _____    ______ ____

>  <TORSDO>
F 7

$$$$
=
 OpenBabel11052414323D

 32 35  0  0  1  0  0  0  0  0999 V2000
  180.2820  176.6690  139.5920 N   0  0  1  0  0  0  0  0  0  0  0  0
  182.2220  176.8490  138.1830 C   0  0  1  0  0  3  0  0  0  0  0  0
  181.1970  180.7550  138.2600 C   0  0  2  0  0  3  0  0  0  0  0  0
  179.1360  177.1210  138.7790 C   0  0  0  0  0  2  0  0  0  0  0  0
  181.2420  175.8780  138.8040 C   0  0  2  0  0  3  0  0  0  0  0  0
  183.7020  174.7580  137.8590 C   0  0  0  0  0  2  0  0  0  0  0  0
  181.8160  182.1370  138.1370 C   0  0  0  0  0  1  0  0  0  0  0  0
  182.3170  177.9680  139.2100 C   0  0  1  0  0  3  0  0  0  0  0  0
  182.7990  174.0240  136.8740 C   0  0  1  0  0  3  0  0  0  0  0  0
  180.1570  180.4520  137.1710 C   0  0  1  0  0  3  0  0  0  0  0  0
  179.1690  178.6320  138.6490 C   0  0  2  0  0  3  0  0  0  0  0  0
  183.5720  176.2710  137.7220 C   0  0  0  0  0  2  0  0  0  0  0  0
  180.6070  174.9590  137.7590 C   0  0  0  0  0  2  0  0  0  0  0  0
  179.7400  178.9880  137.2710 C   0  0  0  0  0  2  0  0  0  0  0  0
  180.7070  180.4460  139.6830 C   0  0  1  0  0  3  0  0  0  0  0  0
  179.7540  181.4470  140.1390 N   0  0  0  0  0  1  0  0  0  0  0  0
  181.0110  177.8730  140.0180 C   0  0  1  0  0  3  0  0  0  0  0  0
  183.5360  172.7630  136.4500 C   0  0  0  0  0  1  0  0  0  0  0  0
  180.0760  179.0490  139.7880 C   0  0  2  0  0  3  0  0  0  0  0  0
  181.4370  173.7010  137.5250 C   0  0  1  0  0  3  0  0  0  0  0  0
  180.6110  172.7860  136.6730 C   0  0  0  0  0  3  0  0  0  0  0  0
  180.0240  171.7120  137.1950 C   0  0  0  0  0  3  0  0  0  0  0  0
  179.2070  170.8170  136.3300 C   0  0  0  0  0  1  0  0  0  0  0  0
  178.9310  181.3610  137.2100 C   0  0  0  0  0  2  0  0  0  0  0  0
  179.3590  181.8280  135.0970 C   0  0  0  0  0  1  0  0  0  0  0  0
  179.0910  182.4280  136.3270 O   0  0  0  0  0  0  0  0  0  0  0  0
  183.5590  177.9030  140.1180 C   0  0  1  0  0  3  0  0  0  0  0  0
  184.3290  180.0550  139.4120 O   0  0  0  0  0  1  0  0  0  0  0  0
  184.6970  178.7140  139.5140 C   0  0  0  0  0  2  0  0  0  0  0  0
  183.2660  178.3460  141.5510 C   0  0  0  0  0  2  0  0  0  0  0  0
  184.3540  178.0620  142.3750 O   0  0  0  0  0  0  0  0  0  0  0  0
  184.0620  178.7130  143.5720 C   0  0  0  0  0  1  0  0  0  0  0  0
  1  4  1  6  0  0  0
  1 17  1  0  0  0  0
  2 12  1  1  0  0  0
  2  5  1  0  0  0  0
  2  8  1  0  0  0  0
  3  7  1  1  0  0  0
  3 15  1  0  0  0  0
  5 13  1  6  0  0  0
  5  1  1  0  0  0  0
  8 17  1  0  0  0  0
  8 27  1  1  0  0  0
  9 18  1  1  0  0  0
  9 20  1  0  0  0  0
  9  6  1  0  0  0  0
 10 24  1  1  0  0  0
 10 14  1  0  0  0  0
 10  3  1  0  0  0  0
 11 14  1  6  0  0  0
 11  4  1  0  0  0  0
 11 19  1  0  0  0  0
 12  6  1  0  0  0  0
 15 19  1  0  0  0  0
 15 16  1  6  0  0  0
 19 17  1  0  0  0  0
 20 13  1  0  0  0  0
 21 22  2  0  0  0  0
 21 20  1  0  0  0  0
 23 22  1  0  0  0  0
 25 26  1  0  0  0  0
 26 24  1  0  0  0  0
 27 30  1  0  0  0  0
 28 29  1  0  0  0  0
 29 27  1  0  0  0  0
 30 31  1  0  0  0  0
 31 32  1  0  0  0  0
M  END
>  <MODEL>
4

>  <REMARK>
 VINA RESULT:      -5.6      5.925      9.441
  Name = 
  7 active torsions:
  status: ('A' for Active; 'I' for Inactive)
    1  A    between atoms: C_10  and  C_28
    2  A    between atoms: O_11  and  C_12
    3  A    between atoms: C_12  and  C_28
    4  A    between atoms: C_14  and  C_29
    5  A    between atoms: C_15  and  C_19
    6  A    between atoms: C_19  and  O_26
    7  A    between atoms: C_28  and  C_32
                            x       y       z     vdW  Elec       q    Type
                         _______ _______ _______ _____ _____    ______ ____

>  <TORSDO>
F 7

$$$$
=
 OpenBabel11052414323D

 32 35  0  0  1  0  0  0  0  0999 V2000
  187.4890  175.9240  135.3980 N   0  0  1  0  0  0  0  0  0  0  0  0
  186.2140  174.9940  137.2110 C   0  0  1  0  0  3  0  0  0  0  0  0
  188.3210  177.7180  139.3220 C   0  0  2  0  0  3  0  0  0  0  0  0
  188.9060  175.6480  135.7040 C   0  0  0  0  0  2  0  0  0  0  0  0
  186.6140  174.7990  135.7660 C   0  0  2  0  0  3  0  0  0  0  0  0
  184.3290  173.3190  136.6540 C   0  0  0  0  0  2  0  0  0  0  0  0
  188.2240  178.5610  140.5830 C   0  0  0  0  0  1  0  0  0  0  0  0
  186.1660  176.5070  137.3690 C   0  0  1  0  0  3  0  0  0  0  0  0
  185.2120  172.1070  136.3810 C   0  0  1  0  0  3  0  0  0  0  0  0
  189.4920  176.7240  139.3400 C   0  0  1  0  0  3  0  0  0  0  0  0
  189.3820  176.5810  136.8020 C   0  0  2  0  0  3  0  0  0  0  0  0
  184.9540  174.2490  137.6890 C   0  0  0  0  0  2  0  0  0  0  0  0
  187.2160  173.4150  135.5200 C   0  0  0  0  0  2  0  0  0  0  0  0
  189.3870  175.8060  138.1260 C   0  0  0  0  0  2  0  0  0  0  0  0
  188.2420  178.5560  138.0370 C   0  0  1  0  0  3  0  0  0  0  0  0
  189.2740  179.5810  138.0140 N   0  0  0  0  0  1  0  0  0  0  0  0
  187.0740  177.0480  136.2510 C   0  0  1  0  0  3  0  0  0  0  0  0
  184.2850  170.9310  136.1180 C   0  0  0  0  0  1  0  0  0  0  0  0
  188.3500  177.6890  136.7720 C   0  0  2  0  0  3  0  0  0  0  0  0
  186.1480  172.3780  135.1830 C   0  0  1  0  0  3  0  0  0  0  0  0
  186.8680  171.1400  134.7410 C   0  0  0  0  0  3  0  0  0  0  0  0
  188.1500  170.9510  135.0430 C   0  0  0  0  0  3  0  0  0  0  0  0
  188.8460  169.7140  134.5940 C   0  0  0  0  0  1  0  0  0  0  0  0
  190.8680  177.3840  139.3940 C   0  0  0  0  0  2  0  0  0  0  0  0
  192.7940  177.4260  140.4680 C   0  0  0  0  0  1  0  0  0  0  0  0
  191.4270  177.2330  140.6630 O   0  0  0  0  0  0  0  0  0  0  0  0
  184.7520  177.1150  137.3040 C   0  0  1  0  0  3  0  0  0  0  0  0
  183.2890  178.5960  138.4830 O   0  0  0  0  0  1  0  0  0  0  0  0
  184.6310  178.2730  138.2840 C   0  0  0  0  0  2  0  0  0  0  0  0
  184.3600  177.5460  135.8910 C   0  0  0  0  0  2  0  0  0  0  0  0
  183.5290  176.5910  135.3090 O   0  0  0  0  0  0  0  0  0  0  0  0
  182.3320  177.2660  135.0760 C   0  0  0  0  0  1  0  0  0  0  0  0
  1  4  1  1  0  0  0
  1  5  1  0  0  0  0
  1 17  1  0  0  0  0
  2  8  1  0  0  0  0
  2 12  1  6  0  0  0
  3 10  1  0  0  0  0
  3  7  1  1  0  0  0
  5 13  1  1  0  0  0
  5  2  1  0  0  0  0
  6 12  1  0  0  0  0
  8 27  1  6  0  0  0
  9 18  1  6  0  0  0
  9  6  1  0  0  0  0
 10 24  1  6  0  0  0
 11  4  1  6  0  0  0
 11 14  1  0  0  0  0
 14 10  1  0  0  0  0
 15 16  1  1  0  0  0
 15  3  1  0  0  0  0
 17 19  1  0  0  0  0
 17  8  1  0  0  0  0
 19 11  1  0  0  0  0
 19 15  1  0  0  0  0
 20 13  1  0  0  0  0
 20  9  1  0  0  0  0
 21 22  2  0  0  0  0
 21 20  1  0  0  0  0
 23 22  1  0  0  0  0
 24 26  1  0  0  0  0
 25 26  1  0  0  0  0
 27 29  1  0  0  0  0
 29 28  1  0  0  0  0
 30 27  1  0  0  0  0
 31 30  1  0  0  0  0
 32 31  1  0  0  0  0
M  END
>  <MODEL>
5

>  <REMARK>
 VINA RESULT:      -5.3      2.835      7.684
  Name = 
  7 active torsions:
  status: ('A' for Active; 'I' for Inactive)
    1  A    between atoms: C_10  and  C_28
    2  A    between atoms: O_11  and  C_12
    3  A    between atoms: C_12  and  C_28
    4  A    between atoms: C_14  and  C_29
    5  A    between atoms: C_15  and  C_19
    6  A    between atoms: C_19  and  O_26
    7  A    between atoms: C_28  and  C_32
                            x       y       z     vdW  Elec       q    Type
                         _______ _______ _______ _____ _____    ______ ____

>  <TORSDO>
F 7

$$$$
=
 OpenBabel11052414323D

 32 35  0  0  1  0  0  0  0  0999 V2000
  190.2860  177.3120  137.9050 N   0  0  1  0  0  0  0  0  0  0  0  0
  188.5430  175.6600  137.9950 C   0  0  1  0  0  3  0  0  0  0  0  0
  187.7620  177.5190  141.4950 C   0  0  2  0  0  3  0  0  0  0  0  0
  191.1650  177.0520  139.0620 C   0  0  0  0  0  2  0  0  0  0  0  0
  189.8110  176.0670  137.2790 C   0  0  2  0  0  3  0  0  0  0  0  0
  188.1390  174.1860  135.9130 C   0  0  0  0  0  2  0  0  0  0  0  0
  186.6110  177.8030  142.4460 C   0  0  0  0  0  1  0  0  0  0  0  0
  187.9140  176.9870  138.3940 C   0  0  1  0  0  3  0  0  0  0  0  0
  189.3240  173.2460  136.1010 C   0  0  1  0  0  3  0  0  0  0  0  0
  188.8880  176.6900  142.1290 C   0  0  1  0  0  3  0  0  0  0  0  0
  190.4860  177.5240  140.3330 C   0  0  2  0  0  3  0  0  0  0  0  0
  187.6060  174.6930  137.2490 C   0  0  0  0  0  2  0  0  0  0  0  0
  190.8400  174.9360  137.2470 C   0  0  0  0  0  2  0  0  0  0  0  0
  189.8940  176.3030  141.0490 C   0  0  0  0  0  2  0  0  0  0  0  0
  188.2580  178.7780  140.7670 C   0  0  1  0  0  3  0  0  0  0  0  0
  188.6540  179.8100  141.7130 N   0  0  0  0  0  1  0  0  0  0  0  0
  189.0840  177.9860  138.4190 C   0  0  1  0  0  3  0  0  0  0  0  0
  189.2330  172.1920  135.0080 C   0  0  0  0  0  1  0  0  0  0  0  0
  189.4260  178.4750  139.8160 C   0  0  2  0  0  3  0  0  0  0  0  0
  190.6530  174.0280  136.0340 C   0  0  1  0  0  3  0  0  0  0  0  0
  191.8410  173.1160  135.9870 C   0  0  0  0  0  3  0  0  0  0  0  0
  192.9760  173.4410  136.6010 C   0  0  0  0  0  3  0  0  0  0  0  0
  194.1440  172.5200  136.5410 C   0  0  0  0  0  1  0  0  0  0  0  0
  189.5930  177.3830  143.2930 C   0  0  0  0  0  2  0  0  0  0  0  0
  188.8920  177.6810  145.3620 C   0  0  0  0  0  1  0  0  0  0  0  0
  189.3480  176.7000  144.4830 O   0  0  0  0  0  0  0  0  0  0  0  0
  186.7750  177.4620  137.4710 C   0  0  1  0  0  3  0  0  0  0  0  0
  185.5370  179.2180  138.5220 O   0  0  0  0  0  1  0  0  0  0  0  0
  185.5530  177.8420  138.2950 C   0  0  0  0  0  2  0  0  0  0  0  0
  187.1990  178.6070  136.5520 C   0  0  0  0  0  2  0  0  0  0  0  0
  187.5930  178.1090  135.3110 O   0  0  0  0  0  0  0  0  0  0  0  0
  186.4740  177.4230  134.8410 C   0  0  0  0  0  1  0  0  0  0  0  0
  1 17  1  0  0  0  0
  1  4  1  1  0  0  0
  2 12  1  6  0  0  0
  2  8  1  0  0  0  0
  3 10  1  0  0  0  0
  3  7  1  1  0  0  0
  5 13  1  1  0  0  0
  5  1  1  0  0  0  0
  5  2  1  0  0  0  0
  6  9  1  0  0  0  0
  6 12  1  0  0  0  0
  8 27  1  6  0  0  0
  8 17  1  0  0  0  0
  9 18  1  6  0  0  0
 10 24  1  1  0  0  0
 11  4  1  6  0  0  0
 11 14  1  0  0  0  0
 14 10  1  0  0  0  0
 15  3  1  0  0  0  0
 15 16  1  1  0  0  0
 17 19  1  0  0  0  0
 19 11  1  0  0  0  0
 19 15  1  0  0  0  0
 20  9  1  0  0  0  0
 20 13  1  0  0  0  0
 21 20  1  0  0  0  0
 21 22  2  0  0  0  0
 23 22  1  0  0  0  0
 24 26  1  0  0  0  0
 26 25  1  0  0  0  0
 27 29  1  0  0  0  0
 29 28  1  0  0  0  0
 30 27  1  0  0  0  0
 31 30  1  0  0  0  0
 32 31  1  0  0  0  0
M  END
>  <MODEL>
6

>  <REMARK>
 VINA RESULT:      -5.3      2.143      7.584
  Name = 
  7 active torsions:
  status: ('A' for Active; 'I' for Inactive)
    1  A    between atoms: C_10  and  C_28
    2  A    between atoms: O_11  and  C_12
    3  A    between atoms: C_12  and  C_28
    4  A    between atoms: C_14  and  C_29
    5  A    between atoms: C_15  and  C_19
    6  A    between atoms: C_19  and  O_26
    7  A    between atoms: C_28  and  C_32
                            x       y       z     vdW  Elec       q    Type
                         _______ _______ _______ _____ _____    ______ ____

>  <TORSDO>
F 7

$$$$
=
 OpenBabel11052414323D

 32 35  0  0  1  0  0  0  0  0999 V2000
  184.1380  177.9780  137.2030 N   0  0  1  0  0  0  0  0  0  0  0  0
  183.8200  175.7020  137.9100 C   0  0  1  0  0  3  0  0  0  0  0  0
  181.0660  177.4410  140.2980 C   0  0  2  0  0  3  0  0  0  0  0  0
  184.5950  178.7220  138.3940 C   0  0  0  0  0  2  0  0  0  0  0  0
  184.7270  176.6300  137.1330 C   0  0  2  0  0  3  0  0  0  0  0  0
  185.0390  173.8320  136.6120 C   0  0  0  0  0  2  0  0  0  0  0  0
  179.7580  177.1300  141.0070 C   0  0  0  0  0  1  0  0  0  0  0  0
  182.4350  176.2970  137.7020 C   0  0  1  0  0  3  0  0  0  0  0  0
  186.4250  174.0420  137.2120 C   0  0  1  0  0  3  0  0  0  0  0  0
  182.2060  177.8150  141.2570 C   0  0  1  0  0  3  0  0  0  0  0  0
  183.4240  178.9490  139.3320 C   0  0  2  0  0  3  0  0  0  0  0  0
  183.9370  174.1990  137.6000 C   0  0  0  0  0  2  0  0  0  0  0  0
  186.1790  176.5420  137.6070 C   0  0  0  0  0  2  0  0  0  0  0  0
  183.5080  177.9210  140.4680 C   0  0  0  0  0  2  0  0  0  0  0  0
  180.8920  178.4260  139.1320 C   0  0  1  0  0  3  0  0  0  0  0  0
  180.2770  179.6660  139.5790 N   0  0  0  0  0  1  0  0  0  0  0  0
  182.6890  177.7740  137.3510 C   0  0  1  0  0  3  0  0  0  0  0  0
  187.3230  172.9510  136.6510 C   0  0  0  0  0  1  0  0  0  0  0  0
  182.2250  178.7360  138.4320 C   0  0  2  0  0  3  0  0  0  0  0  0
  186.9540  175.4520  136.8730 C   0  0  1  0  0  3  0  0  0  0  0  0
  188.3960  175.6170  137.2480 C   0  0  0  0  0  3  0  0  0  0  0  0
  188.8350  176.7500  137.7900 C   0  0  0  0  0  3  0  0  0  0  0  0
  190.2710  176.8920  138.1540 C   0  0  0  0  0  1  0  0  0  0  0  0
  181.9570  179.0940  142.0520 C   0  0  0  0  0  2  0  0  0  0  0  0
  183.0520  178.9910  143.9640 C   0  0  0  0  0  1  0  0  0  0  0  0
  181.7900  178.7980  143.4040 O   0  0  0  0  0  0  0  0  0  0  0  0
  181.5870  175.5910  136.6270 C   0  0  1  0  0  3  0  0  0  0  0  0
  180.4920  174.5000  138.4540 O   0  0  0  0  0  1  0  0  0  0  0  0
  180.2690  175.1180  137.2230 C   0  0  0  0  0  2  0  0  0  0  0  0
  181.3530  176.4610  135.3940 C   0  0  0  0  0  2  0  0  0  0  0  0
  179.9920  176.7170  135.2350 O   0  0  0  0  0  0  0  0  0  0  0  0
  179.9330  178.0540  134.8450 C   0  0  0  0  0  1  0  0  0  0  0  0
  1 17  1  0  0  0  0
  1  4  1  1  0  0  0
  2 12  1  6  0  0  0
  3  7  1  1  0  0  0
  3 10  1  0  0  0  0
  5  1  1  0  0  0  0
  5 13  1  1  0  0  0
  5  2  1  0  0  0  0
  6  9  1  0  0  0  0
  6 12  1  0  0  0  0
  8 27  1  6  0  0  0
  8  2  1  0  0  0  0
  9 18  1  6  0  0  0
 10 24  1  6  0  0  0
 11  4  1  6  0  0  0
 11 14  1  0  0  0  0
 14 10  1  0  0  0  0
 15 16  1  1  0  0  0
 15  3  1  0  0  0  0
 17  8  1  0  0  0  0
 17 19  1  0  0  0  0
 19 15  1  0  0  0  0
 19 11  1  0  0  0  0
 20  9  1  0  0  0  0
 20 21  1  0  0  0  0
 20 13  1  0  0  0  0
 21 22  2  0  0  0  0
 22 23  1  0  0  0  0
 24 26  1  0  0  0  0
 26 25  1  0  0  0  0
 27 29  1  0  0  0  0
 29 28  1  0  0  0  0
 30 27  1  0  0  0  0
 31 30  1  0  0  0  0
 32 31  1  0  0  0  0
M  END
>  <MODEL>
7

>  <REMARK>
 VINA RESULT:      -5.3      4.584      9.295
  Name = 
  7 active torsions:
  status: ('A' for Active; 'I' for Inactive)
    1  A    between atoms: C_10  and  C_28
    2  A    between atoms: O_11  and  C_12
    3  A    between atoms: C_12  and  C_28
    4  A    between atoms: C_14  and  C_29
    5  A    between atoms: C_15  and  C_19
    6  A    between atoms: C_19  and  O_26
    7  A    between atoms: C_28  and  C_32
                            x       y       z     vdW  Elec       q    Type
                         _______ _______ _______ _____ _____    ______ ____

>  <TORSDO>
F 7

$$$$
=
 OpenBabel11052414323D

 32 35  0  0  1  0  0  0  0  0999 V2000
  184.9440  179.4640  139.5310 N   0  0  1  0  0  0  0  0  0  0  0  0
  186.0420  177.7920  140.8640 C   0  0  1  0  0  3  0  0  0  0  0  0
  186.1350  175.8600  137.3190 C   0  0  2  0  0  3  0  0  0  0  0  0
  183.7040  178.8420  139.0250 C   0  0  0  0  0  2  0  0  0  0  0  0
  185.2340  179.0690  140.9200 C   0  0  2  0  0  3  0  0  0  0  0  0
  186.6730  178.3820  143.2990 C   0  0  0  0  0  2  0  0  0  0  0  0
  186.9510  174.8230  136.5650 C   0  0  0  0  0  1  0  0  0  0  0  0
  186.8480  177.9320  139.5820 C   0  0  1  0  0  3  0  0  0  0  0  0
  185.2800  178.2460  143.9040 C   0  0  1  0  0  3  0  0  0  0  0  0
  184.6830  175.4290  137.5730 C   0  0  1  0  0  3  0  0  0  0  0  0
  184.0410  177.8670  137.9130 C   0  0  2  0  0  3  0  0  0  0  0  0
  186.8660  177.4380  142.1160 C   0  0  0  0  0  2  0  0  0  0  0  0
  184.0020  178.9300  141.8150 C   0  0  0  0  0  2  0  0  0  0  0  0
  184.0130  176.4460  138.4910 C   0  0  0  0  0  2  0  0  0  0  0  0
  186.2650  177.2690  136.7220 C   0  0  1  0  0  3  0  0  0  0  0  0
  185.8860  177.2820  135.3180 N   0  0  0  0  0  1  0  0  0  0  0  0
  186.0530  178.9340  138.7250 C   0  0  1  0  0  3  0  0  0  0  0  0
  185.4250  178.4600  145.4030 C   0  0  0  0  0  1  0  0  0  0  0  0
  185.4280  178.3040  137.4910 C   0  0  2  0  0  3  0  0  0  0  0  0
  184.3110  179.2680  143.2710 C   0  0  1  0  0  3  0  0  0  0  0  0
  183.0000  179.3220  143.9930 C   0  0  0  0  0  3  0  0  0  0  0  0
  181.8900  178.8480  143.4310 C   0  0  0  0  0  3  0  0  0  0  0  0
  180.5980  178.9130  144.1660 C   0  0  0  0  0  1  0  0  0  0  0  0
  183.8610  175.2320  136.3010 C   0  0  0  0  0  2  0  0  0  0  0  0
  183.5320  173.1030  136.7740 C   0  0  0  0  0  1  0  0  0  0  0  0
  182.8530  174.2930  136.5180 O   0  0  0  0  0  0  0  0  0  0  0  0
  188.3070  178.3840  139.7850 C   0  0  1  0  0  3  0  0  0  0  0  0
  190.1680  177.6920  141.1190 O   0  0  0  0  0  1  0  0  0  0  0  0
  189.1530  177.2230  140.2860 C   0  0  0  0  0  2  0  0  0  0  0  0
  188.9130  179.0060  138.5280 C   0  0  0  0  0  2  0  0  0  0  0  0
  189.6590  178.0560  137.8320 O   0  0  0  0  0  0  0  0  0  0  0  0
  189.3410  178.2760  136.4930 C   0  0  0  0  0  1  0  0  0  0  0  0
  1  4  1  6  0  0  0
  1  5  1  0  0  0  0
  2  5  1  0  0  0  0
  2 12  1  1  0  0  0
  3  7  1  6  0  0  0
  3 10  1  0  0  0  0
  5 13  1  1  0  0  0
  6  9  1  0  0  0  0
  8 27  1  1  0  0  0
  8  2  1  0  0  0  0
  9 18  1  1  0  0  0
 10 24  1  6  0  0  0
 10 14  1  0  0  0  0
 11 14  1  1  0  0  0
 11  4  1  0  0  0  0
 12  6  1  0  0  0  0
 13 20  1  0  0  0  0
 15 16  1  6  0  0  0
 15  3  1  0  0  0  0
 15 19  1  0  0  0  0
 17  1  1  0  0  0  0
 17  8  1  0  0  0  0
 19 11  1  0  0  0  0
 19 17  1  0  0  0  0
 20  9  1  0  0  0  0
 20 21  1  0  0  0  0
 22 21  2  0  0  0  0
 22 23  1  0  0  0  0
 24 26  1  0  0  0  0
 26 25  1  0  0  0  0
 27 29  1  0  0  0  0
 29 28  1  0  0  0  0
 30 27  1  0  0  0  0
 31 30  1  0  0  0  0
 32 31  1  0  0  0  0
M  END
>  <MODEL>
8

>  <REMARK>
 VINA RESULT:      -5.1      2.693      3.957
  Name = 
  7 active torsions:
  status: ('A' for Active; 'I' for Inactive)
    1  A    between atoms: C_10  and  C_28
    2  A    between atoms: O_11  and  C_12
    3  A    between atoms: C_12  and  C_28
    4  A    between atoms: C_14  and  C_29
    5  A    between atoms: C_15  and  C_19
    6  A    between atoms: C_19  and  O_26
    7  A    between atoms: C_28  and  C_32
                            x       y       z     vdW  Elec       q    Type
                         _______ _______ _______ _____ _____    ______ ____

>  <TORSDO>
F 7

$$$$
=
 OpenBabel11052414323D

 32 35  0  0  1  0  0  0  0  0999 V2000
  188.0000  176.0940  143.9860 N   0  0  1  0  0  0  0  0  0  0  0  0
  189.4320  178.0220  144.0770 C   0  0  1  0  0  3  0  0  0  0  0  0
  186.3480  179.4890  146.2350 C   0  0  2  0  0  3  0  0  0  0  0  0
  186.7760  176.5200  143.2810 C   0  0  0  0  0  2  0  0  0  0  0  0
  189.2130  176.6890  143.3990 C   0  0  2  0  0  3  0  0  0  0  0  0
  191.8350  177.8130  143.1530 C   0  0  0  0  0  2  0  0  0  0  0  0
  186.0550  180.4970  147.3330 C   0  0  0  0  0  1  0  0  0  0  0  0
  188.9010  177.8010  145.4860 C   0  0  1  0  0  3  0  0  0  0  0  0
  191.4860  177.8850  141.6710 C   0  0  1  0  0  3  0  0  0  0  0  0
  185.6360  179.8020  144.9110 C   0  0  1  0  0  3  0  0  0  0  0  0
  185.9270  177.3750  144.2040 C   0  0  2  0  0  3  0  0  0  0  0  0
  190.8520  178.6130  144.0020 C   0  0  0  0  0  2  0  0  0  0  0  0
  189.1870  176.8180  141.8750 C   0  0  0  0  0  2  0  0  0  0  0  0
  186.1430  178.8480  143.8330 C   0  0  0  0  0  2  0  0  0  0  0  0
  186.1750  178.0350  146.6990 C   0  0  1  0  0  3  0  0  0  0  0  0
  184.8370  177.8060  147.2220 N   0  0  0  0  0  1  0  0  0  0  0  0
  187.9170  176.6250  145.3550 C   0  0  1  0  0  3  0  0  0  0  0  0
  192.8000  177.8800  140.9040 C   0  0  0  0  0  1  0  0  0  0  0  0
  186.4680  177.0280  145.5750 C   0  0  2  0  0  3  0  0  0  0  0  0
  190.5820  176.7000  141.2680 C   0  0  1  0  0  3  0  0  0  0  0  0
  190.4040  176.6080  139.7840 C   0  0  0  0  0  3  0  0  0  0  0  0
  189.6530  177.4920  139.1300 C   0  0  0  0  0  3  0  0  0  0  0  0
  189.4890  177.3820  137.6540 C   0  0  0  0  0  1  0  0  0  0  0  0
  184.1130  179.7530  144.9950 C   0  0  0  0  0  2  0  0  0  0  0  0
  182.3960  179.0030  143.8310 C   0  0  0  0  0  1  0  0  0  0  0  0
  183.5560  179.7680  143.7170 O   0  0  0  0  0  0  0  0  0  0  0  0
  189.9850  177.5260  146.5460 C   0  0  1  0  0  3  0  0  0  0  0  0
  189.0750  178.6280  148.4640 O   0  0  0  0  0  1  0  0  0  0  0  0
  189.3500  177.3740  147.9210 C   0  0  0  0  0  2  0  0  0  0  0  0
  190.8520  176.3160  146.2020 C   0  0  0  0  0  2  0  0  0  0  0  0
  192.1770  176.5530  146.5660 O   0  0  0  0  0  0  0  0  0  0  0  0
  192.4300  175.6270  147.5770 C   0  0  0  0  0  1  0  0  0  0  0  0
  1  4  1  6  0  0  0
  1 17  1  0  0  0  0
  2 12  1  1  0  0  0
  2  8  1  0  0  0  0
  3 15  1  0  0  0  0
  3  7  1  1  0  0  0
  5 13  1  6  0  0  0
  5  1  1  0  0  0  0
  5  2  1  0  0  0  0
  6 12  1  0  0  0  0
  8 27  1  1  0  0  0
  9 18  1  6  0  0  0
  9  6  1  0  0  0  0
 10 24  1  1  0  0  0
 10  3  1  0  0  0  0
 11  4  1  6  0  0  0
 11 19  1  0  0  0  0
 14 11  1  0  0  0  0
 14 10  1  0  0  0  0
 15 16  1  6  0  0  0
 17  8  1  0  0  0  0
 17 19  1  0  0  0  0
 19 15  1  0  0  0  0
 20  9  1  0  0  0  0
 20 13  1  0  0  0  0
 21 20  1  0  0  0  0
 22 21  2  0  0  0  0
 23 22  1  0  0  0  0
 26 25  1  0  0  0  0
 26 24  1  0  0  0  0
 27 29  1  0  0  0  0
 29 28  1  0  0  0  0
 30 27  1  0  0  0  0
 30 31  1  0  0  0  0
 31 32  1  0  0  0  0
M  END
>  <MODEL>
9

>  <REMARK>
 VINA RESULT:      -5.0      3.577      7.796
  Name = 
  7 active torsions:
  status: ('A' for Active; 'I' for Inactive)
    1  A    between atoms: C_10  and  C_28
    2  A    between atoms: O_11  and  C_12
    3  A    between atoms: C_12  and  C_28
    4  A    between atoms: C_14  and  C_29
    5  A    between atoms: C_15  and  C_19
    6  A    between atoms: C_19  and  O_26
    7  A    between atoms: C_28  and  C_32
                            x       y       z     vdW  Elec       q    Type
                         _______ _______ _______ _____ _____    ______ ____

>  <TORSDO>
F 7

$$$$
