=
 OpenBabel11052413303D

 28 31  0  0  1  0  0  0  0  0999 V2000
  190.4810  176.9200  142.5530 N   0  0  0  0  0  0  0  0  0  0  0  0
  189.9450  177.3280  141.2770 C   0  0  0  0  0  0  0  0  0  0  0  0
  188.7110  177.5310  141.1290 O   0  0  0  0  0  0  0  0  0  0  0  0
  189.3430  177.8130  144.5350 C   0  0  1  0  0  3  0  0  0  0  0  0
  188.3870  175.7880  143.3000 C   0  0  0  0  0  1  0  0  0  0  0  0
  191.7360  178.9850  143.7040 S   0  0  0  0  0  0  0  0  0  0  0  0
  190.6510  178.4130  145.0600 C   0  0  0  0  0  2  0  0  0  0  0  0
  191.8280  177.3500  142.8990 C   0  0  0  0  0  2  0  0  0  0  0  0
  189.6400  176.5630  143.6990 C   0  0  1  0  0  3  0  0  0  0  0  0
  188.9360  176.7670  146.7980 C   0  0  0  0  0  1  0  0  0  0  0  0
  188.4380  177.5180  145.6480 N   0  0  0  0  0  0  0  0  0  0  0  0
  184.4590  178.2130  141.9270 C   0  0  0  0  0  1  0  0  0  0  0  0
  184.3950  178.7390  145.5050 C   0  0  0  0  0  0  0  0  0  0  0  0
  186.3750  177.9720  144.3550 C   0  0  0  0  0  3  0  0  0  0  0  0
  183.0400  178.9250  143.8910 C   0  0  0  0  0  0  0  0  0  0  0  0
  185.0430  178.3800  144.3600 C   0  0  0  0  0  0  0  0  0  0  0  0
  186.3730  178.3120  146.7770 C   0  0  0  0  0  3  0  0  0  0  0  0
  183.1220  179.0900  145.2380 N   0  0  0  0  0  0  0  0  0  0  0  0
  185.0270  178.7200  146.7440 C   0  0  0  0  0  3  0  0  0  0  0  0
  181.7930  179.1960  143.1200 C   0  0  0  0  0  1  0  0  0  0  0  0
  184.1960  178.4920  143.3300 N   0  0  0  0  0  0  0  0  0  0  0  0
  187.0600  177.9360  145.5920 C   0  0  0  0  0  0  0  0  0  0  0  0
  190.8460  177.5070  140.0980 C   0  0  0  0  0  2  0  0  0  0  0  0
  189.5770  177.6420  137.9200 N   0  0  0  0  0  0  0  0  0  0  0  0
  190.3240  175.6080  138.7590 O   0  0  0  0  0  0  0  0  0  0  0  0
  190.2530  176.8560  138.8960 C   0  0  0  0  0  0  0  0  0  0  0  0
  188.8130  177.8020  136.6500 C   0  0  0  0  0  2  0  0  0  0  0  0
  189.0840  178.9400  137.3780 C   0  0  0  0  0  2  0  0  0  0  0  0
  1  8  1  0  0  0  0
  1  9  1  0  0  0  0
  2  1  1  0  0  0  0
  3  2  2  0  0  0  0
  4  7  1  0  0  0  0
  4 11  1  1  0  0  0
  6  7  1  0  0  0  0
  8  6  1  0  0  0  0
  9  5  1  6  0  0  0
  9  4  1  0  0  0  0
 11 10  1  0  0  0  0
 12 21  1  0  0  0  0
 13 19  1  0  0  0  0
 14 16  1  0  0  0  0
 14 22  2  0  0  0  0
 15 18  2  0  0  0  0
 16 13  2  0  0  0  0
 18 13  1  0  0  0  0
 19 17  2  0  0  0  0
 20 15  1  0  0  0  0
 21 15  1  0  0  0  0
 21 16  1  0  0  0  0
 22 11  1  0  0  0  0
 22 17  1  0  0  0  0
 23  2  1  0  0  0  0
 24 26  1  0  0  0  0
 25 26  2  0  0  0  0
 26 23  1  0  0  0  0
 27 28  1  0  0  0  0
 27 24  1  0  0  0  0
 28 24  1  0  0  0  0
M  END
>  <MODEL>
1

>  <REMARK>
 VINA RESULT:      -9.1      0.000      0.000
  Name = 
  4 active torsions:
  status: ('A' for Active; 'I' for Inactive)
    1  A    between atoms: C_2  and  C_3
    2  A    between atoms: C_3  and  C_11
    3  A    between atoms: C_16  and  N_20
    4  A    between atoms: N_20  and  C_25
                            x       y       z     vdW  Elec       q    Type
                         _______ _______ _______ _____ _____    ______ ____

>  <TORSDO>
F 4

$$$$
=
 OpenBabel11052413303D

 28 31  0  0  1  0  0  0  0  0999 V2000
  184.3040  177.8770  137.7300 N   0  0  0  0  0  0  0  0  0  0  0  0
  185.7470  177.8810  137.7420 C   0  0  0  0  0  0  0  0  0  0  0  0
  186.3840  178.4040  138.6950 O   0  0  0  0  0  0  0  0  0  0  0  0
  183.2090  177.6950  139.9170 C   0  0  1  0  0  3  0  0  0  0  0  0
  184.0820  179.9530  139.0940 C   0  0  0  0  0  1  0  0  0  0  0  0
  183.4080  175.4220  138.3100 S   0  0  0  0  0  0  0  0  0  0  0  0
  182.4360  176.4510  139.4670 C   0  0  0  0  0  2  0  0  0  0  0  0
  183.6290  176.7590  137.0870 C   0  0  0  0  0  2  0  0  0  0  0  0
  183.4910  178.5990  138.7120 C   0  0  1  0  0  3  0  0  0  0  0  0
  181.1810  179.0180  140.6360 C   0  0  0  0  0  1  0  0  0  0  0  0
  182.4650  178.4030  140.9620 N   0  0  0  0  0  0  0  0  0  0  0  0
  187.2030  177.5030  143.5890 C   0  0  0  0  0  1  0  0  0  0  0  0
  184.0570  178.7570  144.8600 C   0  0  0  0  0  0  0  0  0  0  0  0
  184.3570  178.1560  142.5410 C   0  0  0  0  0  3  0  0  0  0  0  0
  185.9780  178.3320  145.6370 C   0  0  0  0  0  0  0  0  0  0  0  0
  184.8360  178.2920  143.8410 C   0  0  0  0  0  0  0  0  0  0  0  0
  182.2140  179.0030  143.3590 C   0  0  0  0  0  3  0  0  0  0  0  0
  184.7560  178.7930  146.0110 N   0  0  0  0  0  0  0  0  0  0  0  0
  182.7320  179.1270  144.6610 C   0  0  0  0  0  3  0  0  0  0  0  0
  187.1140  178.1890  146.5920 C   0  0  0  0  0  1  0  0  0  0  0  0
  186.0550  178.0190  144.3200 N   0  0  0  0  0  0  0  0  0  0  0  0
  183.0140  178.5190  142.2900 C   0  0  0  0  0  0  0  0  0  0  0  0
  186.5190  177.2750  136.6140 C   0  0  0  0  0  2  0  0  0  0  0  0
  188.7400  176.4290  137.4630 N   0  0  0  0  0  0  0  0  0  0  0  0
  186.9200  175.0060  137.2150 O   0  0  0  0  0  0  0  0  0  0  0  0
  187.3830  176.1710  137.1190 C   0  0  0  0  0  0  0  0  0  0  0  0
  190.0850  176.0030  137.9450 C   0  0  0  0  0  2  0  0  0  0  0  0
  189.9180  177.3300  137.6150 C   0  0  0  0  0  2  0  0  0  0  0  0
  1  2  1  0  0  0  0
  1  9  1  0  0  0  0
  2  3  2  0  0  0  0
  4 11  1  1  0  0  0
  6  7  1  0  0  0  0
  7  4  1  0  0  0  0
  8  1  1  0  0  0  0
  8  6  1  0  0  0  0
  9  5  1  1  0  0  0
  9  4  1  0  0  0  0
 10 11  1  0  0  0  0
 11 22  1  0  0  0  0
 12 21  1  0  0  0  0
 13 18  1  0  0  0  0
 14 16  1  0  0  0  0
 15 18  2  0  0  0  0
 15 20  1  0  0  0  0
 16 21  1  0  0  0  0
 16 13  2  0  0  0  0
 17 19  2  0  0  0  0
 19 13  1  0  0  0  0
 21 15  1  0  0  0  0
 22 14  2  0  0  0  0
 22 17  1  0  0  0  0
 23 26  1  0  0  0  0
 23  2  1  0  0  0  0
 24 28  1  0  0  0  0
 24 27  1  0  0  0  0
 26 25  2  0  0  0  0
 26 24  1  0  0  0  0
 28 27  1  0  0  0  0
M  END
>  <MODEL>
2

>  <REMARK>
 VINA RESULT:      -7.9      3.228      5.909
  Name = 
  4 active torsions:
  status: ('A' for Active; 'I' for Inactive)
    1  A    between atoms: C_2  and  C_3
    2  A    between atoms: C_3  and  C_11
    3  A    between atoms: C_16  and  N_20
    4  A    between atoms: N_20  and  C_25
                            x       y       z     vdW  Elec       q    Type
                         _______ _______ _______ _____ _____    ______ ____

>  <TORSDO>
F 4

$$$$
=
 OpenBabel11052413303D

 28 31  0  0  1  0  0  0  0  0999 V2000
  185.4640  178.8210  139.7980 N   0  0  0  0  0  0  0  0  0  0  0  0
  186.7310  178.1880  139.5220 C   0  0  0  0  0  0  0  0  0  0  0  0
  187.5010  177.8490  140.4600 O   0  0  0  0  0  0  0  0  0  0  0  0
  184.3290  178.1120  141.8540 C   0  0  1  0  0  3  0  0  0  0  0  0
  186.2100  179.8420  141.9470 C   0  0  0  0  0  1  0  0  0  0  0  0
  183.4790  177.0680  139.4100 S   0  0  0  0  0  0  0  0  0  0  0  0
  183.0730  177.7200  141.0700 C   0  0  0  0  0  2  0  0  0  0  0  0
  184.3610  178.5750  138.8800 C   0  0  0  0  0  2  0  0  0  0  0  0
  185.0580  179.2550  141.1380 C   0  0  1  0  0  3  0  0  0  0  0  0
  182.6510  179.0240  143.5070 C   0  0  0  0  0  1  0  0  0  0  0  0
  183.9760  178.4740  143.2290 N   0  0  0  0  0  0  0  0  0  0  0  0
  189.0770  176.5780  143.9600 C   0  0  0  0  0  1  0  0  0  0  0  0
  186.7890  178.0370  146.3510 C   0  0  0  0  0  0  0  0  0  0  0  0
  186.2050  177.7490  144.0260 C   0  0  0  0  0  3  0  0  0  0  0  0
  188.7530  177.2510  146.3730 C   0  0  0  0  0  0  0  0  0  0  0  0
  187.0990  177.6270  145.0870 C   0  0  0  0  0  0  0  0  0  0  0  0
  184.6290  178.7430  145.6100 C   0  0  0  0  0  3  0  0  0  0  0  0
  187.8210  177.8110  147.1880 N   0  0  0  0  0  0  0  0  0  0  0  0
  185.5580  178.6050  146.6580 C   0  0  0  0  0  3  0  0  0  0  0  0
  190.0950  176.8210  146.8590 C   0  0  0  0  0  1  0  0  0  0  0  0
  188.3400  177.1280  145.0870 N   0  0  0  0  0  0  0  0  0  0  0  0
  184.9390  178.3200  144.2900 C   0  0  0  0  0  0  0  0  0  0  0  0
  187.1610  177.9300  138.1140 C   0  0  0  0  0  2  0  0  0  0  0  0
  189.5820  177.2580  137.8740 N   0  0  0  0  0  0  0  0  0  0  0  0
  188.9440  179.4930  137.8910 O   0  0  0  0  0  0  0  0  0  0  0  0
  188.5980  178.2850  137.9440 C   0  0  0  0  0  0  0  0  0  0  0  0
  190.9890  176.7830  137.7480 C   0  0  0  0  0  2  0  0  0  0  0  0
  190.0030  175.8280  137.8730 C   0  0  0  0  0  2  0  0  0  0  0  0
  1  9  1  0  0  0  0
  2  1  1  0  0  0  0
  2  3  2  0  0  0  0
  4 11  1  1  0  0  0
  6  7  1  0  0  0  0
  7  4  1  0  0  0  0
  8  6  1  0  0  0  0
  8  1  1  0  0  0  0
  9  4  1  0  0  0  0
  9  5  1  1  0  0  0
 11 10  1  0  0  0  0
 11 22  1  0  0  0  0
 12 21  1  0  0  0  0
 13 19  1  0  0  0  0
 13 18  1  0  0  0  0
 14 22  2  0  0  0  0
 14 16  1  0  0  0  0
 15 20  1  0  0  0  0
 15 18  2  0  0  0  0
 16 13  2  0  0  0  0
 17 19  2  0  0  0  0
 21 16  1  0  0  0  0
 21 15  1  0  0  0  0
 22 17  1  0  0  0  0
 23  2  1  0  0  0  0
 24 26  1  0  0  0  0
 25 26  2  0  0  0  0
 26 23  1  0  0  0  0
 27 28  1  0  0  0  0
 27 24  1  0  0  0  0
 28 24  1  0  0  0  0
M  END
>  <MODEL>
3

>  <REMARK>
 VINA RESULT:      -7.3      2.457      5.186
  Name = 
  4 active torsions:
  status: ('A' for Active; 'I' for Inactive)
    1  A    between atoms: C_2  and  C_3
    2  A    between atoms: C_3  and  C_11
    3  A    between atoms: C_16  and  N_20
    4  A    between atoms: N_20  and  C_25
                            x       y       z     vdW  Elec       q    Type
                         _______ _______ _______ _____ _____    ______ ____

>  <TORSDO>
F 4

$$$$
=
 OpenBabel11052413303D

 28 31  0  0  1  0  0  0  0  0999 V2000
  189.2180  177.9350  142.6720 N   0  0  0  0  0  0  0  0  0  0  0  0
  188.5500  176.9290  143.4620 C   0  0  0  0  0  0  0  0  0  0  0  0
  187.6700  176.1860  142.9520 O   0  0  0  0  0  0  0  0  0  0  0  0
  189.5840  177.3830  140.3110 C   0  0  1  0  0  3  0  0  0  0  0  0
  187.3120  178.2540  141.0960 C   0  0  0  0  0  1  0  0  0  0  0  0
  191.7060  177.1280  142.1050 S   0  0  0  0  0  0  0  0  0  0  0  0
  191.0910  177.6140  140.4520 C   0  0  0  0  0  2  0  0  0  0  0  0
  190.5960  178.2630  143.0050 C   0  0  0  0  0  2  0  0  0  0  0  0
  188.8230  178.2710  141.3010 C   0  0  1  0  0  3  0  0  0  0  0  0
  189.0560  179.0030  138.4460 C   0  0  0  0  0  1  0  0  0  0  0  0
  189.1620  177.6290  138.9300 N   0  0  0  0  0  0  0  0  0  0  0  0
  191.6150  173.3780  136.4670 C   0  0  0  0  0  1  0  0  0  0  0  0
  188.1440  174.3930  136.4100 C   0  0  0  0  0  0  0  0  0  0  0  0
  189.8190  175.6150  137.6460 C   0  0  0  0  0  3  0  0  0  0  0  0
  189.3140  172.8410  135.5740 C   0  0  0  0  0  0  0  0  0  0  0  0
  189.4340  174.5640  136.8170 C   0  0  0  0  0  0  0  0  0  0  0  0
  187.4820  176.3340  137.6360 C   0  0  0  0  0  3  0  0  0  0  0  0
  188.0380  173.3070  135.6190 N   0  0  0  0  0  0  0  0  0  0  0  0
  187.1290  175.2600  136.7990 C   0  0  0  0  0  3  0  0  0  0  0  0
  189.7020  171.6260  134.8030 C   0  0  0  0  0  1  0  0  0  0  0  0
  190.1850  173.5870  136.2960 N   0  0  0  0  0  0  0  0  0  0  0  0
  188.8220  176.5240  138.0680 C   0  0  0  0  0  0  0  0  0  0  0  0
  188.8820  176.7560  144.9100 C   0  0  0  0  0  2  0  0  0  0  0  0
  188.2390  177.8490  147.0920 N   0  0  0  0  0  0  0  0  0  0  0  0
  186.7760  177.8030  145.2870 O   0  0  0  0  0  0  0  0  0  0  0  0
  187.9060  177.5030  145.7520 C   0  0  0  0  0  0  0  0  0  0  0  0
  187.9290  178.4630  148.4150 C   0  0  0  0  0  2  0  0  0  0  0  0
  189.1650  177.8740  148.2600 C   0  0  0  0  0  2  0  0  0  0  0  0
  1  8  1  0  0  0  0
  1  2  1  0  0  0  0
  2 23  1  0  0  0  0
  3  2  2  0  0  0  0
  4 11  1  6  0  0  0
  4  7  1  0  0  0  0
  4  9  1  0  0  0  0
  6  8  1  0  0  0  0
  7  6  1  0  0  0  0
  9  5  1  1  0  0  0
  9  1  1  0  0  0  0
 10 11  1  0  0  0  0
 13 19  2  0  0  0  0
 13 16  1  0  0  0  0
 14 22  1  0  0  0  0
 15 18  2  0  0  0  0
 15 21  1  0  0  0  0
 16 14  2  0  0  0  0
 17 22  2  0  0  0  0
 18 13  1  0  0  0  0
 19 17  1  0  0  0  0
 20 15  1  0  0  0  0
 21 12  1  0  0  0  0
 21 16  1  0  0  0  0
 22 11  1  0  0  0  0
 23 26  1  0  0  0  0
 24 28  1  0  0  0  0
 24 27  1  0  0  0  0
 25 26  2  0  0  0  0
 26 24  1  0  0  0  0
 28 27  1  0  0  0  0
M  END
>  <MODEL>
4

>  <REMARK>
 VINA RESULT:      -6.8      2.948      8.291
  Name = 
  4 active torsions:
  status: ('A' for Active; 'I' for Inactive)
    1  A    between atoms: C_2  and  C_3
    2  A    between atoms: C_3  and  C_11
    3  A    between atoms: C_16  and  N_20
    4  A    between atoms: N_20  and  C_25
                            x       y       z     vdW  Elec       q    Type
                         _______ _______ _______ _____ _____    ______ ____

>  <TORSDO>
F 4

$$$$
=
 OpenBabel11052413303D

 28 31  0  0  1  0  0  0  0  0999 V2000
  189.1910  177.9400  142.7240 N   0  0  0  0  0  0  0  0  0  0  0  0
  188.5150  176.9400  143.5150 C   0  0  0  0  0  0  0  0  0  0  0  0
  187.6380  176.1950  143.0020 O   0  0  0  0  0  0  0  0  0  0  0  0
  189.5770  177.3720  140.3690 C   0  0  1  0  0  3  0  0  0  0  0  0
  187.2990  178.2510  141.1290 C   0  0  0  0  0  1  0  0  0  0  0  0
  191.6830  177.1270  142.1840 S   0  0  0  0  0  0  0  0  0  0  0  0
  191.0830  177.6030  140.5230 C   0  0  0  0  0  2  0  0  0  0  0  0
  190.5660  178.2690  143.0670 C   0  0  0  0  0  2  0  0  0  0  0  0
  188.8080  178.2680  141.3480 C   0  0  1  0  0  3  0  0  0  0  0  0
  189.0560  178.9820  138.4930 C   0  0  0  0  0  1  0  0  0  0  0  0
  189.1670  177.6100  138.9830 N   0  0  0  0  0  0  0  0  0  0  0  0
  184.8380  175.5590  136.2980 C   0  0  0  0  0  1  0  0  0  0  0  0
  188.2440  174.3530  136.4540 C   0  0  0  0  0  0  0  0  0  0  0  0
  187.5300  176.3380  137.6280 C   0  0  0  0  0  3  0  0  0  0  0  0
  186.4390  173.7670  135.5200 C   0  0  0  0  0  0  0  0  0  0  0  0
  187.2760  175.2500  136.7970 C   0  0  0  0  0  0  0  0  0  0  0  0
  189.8440  175.5580  137.7580 C   0  0  0  0  0  3  0  0  0  0  0  0
  187.7420  173.4000  135.6450 N   0  0  0  0  0  0  0  0  0  0  0  0
  189.5510  174.4700  136.9150 C   0  0  0  0  0  3  0  0  0  0  0  0
  185.4600  172.9990  134.6980 C   0  0  0  0  0  1  0  0  0  0  0  0
  186.1280  174.8910  136.2110 N   0  0  0  0  0  0  0  0  0  0  0  0
  188.8450  176.5000  138.1220 C   0  0  0  0  0  0  0  0  0  0  0  0
  188.8330  176.7760  144.9660 C   0  0  0  0  0  2  0  0  0  0  0  0
  188.2060  177.8830  147.1460 N   0  0  0  0  0  0  0  0  0  0  0  0
  186.7950  177.9610  145.3010 O   0  0  0  0  0  0  0  0  0  0  0  0
  187.8870  177.5780  145.7920 C   0  0  0  0  0  0  0  0  0  0  0  0
  187.9020  178.5010  148.4680 C   0  0  0  0  0  2  0  0  0  0  0  0
  189.0980  177.8300  148.3390 C   0  0  0  0  0  2  0  0  0  0  0  0
  1  8  1  0  0  0  0
  1  2  1  0  0  0  0
  2 23  1  0  0  0  0
  3  2  2  0  0  0  0
  4 11  1  6  0  0  0
  4  7  1  0  0  0  0
  4  9  1  0  0  0  0
  6  8  1  0  0  0  0
  7  6  1  0  0  0  0
  9  5  1  1  0  0  0
  9  1  1  0  0  0  0
 10 11  1  0  0  0  0
 13 16  2  0  0  0  0
 13 19  1  0  0  0  0
 14 22  2  0  0  0  0
 15 18  2  0  0  0  0
 15 21  1  0  0  0  0
 16 14  1  0  0  0  0
 17 22  1  0  0  0  0
 18 13  1  0  0  0  0
 19 17  2  0  0  0  0
 20 15  1  0  0  0  0
 21 12  1  0  0  0  0
 21 16  1  0  0  0  0
 22 11  1  0  0  0  0
 23 26  1  0  0  0  0
 24 28  1  0  0  0  0
 24 27  1  0  0  0  0
 25 26  2  0  0  0  0
 26 24  1  0  0  0  0
 28 27  1  0  0  0  0
M  END
>  <MODEL>
5

>  <REMARK>
 VINA RESULT:      -6.8      2.931      7.822
  Name = 
  4 active torsions:
  status: ('A' for Active; 'I' for Inactive)
    1  A    between atoms: C_2  and  C_3
    2  A    between atoms: C_3  and  C_11
    3  A    between atoms: C_16  and  N_20
    4  A    between atoms: N_20  and  C_25
                            x       y       z     vdW  Elec       q    Type
                         _______ _______ _______ _____ _____    ______ ____

>  <TORSDO>
F 4

$$$$
=
 OpenBabel11052413303D

 28 31  0  0  1  0  0  0  0  0999 V2000
  189.1030  178.0340  142.4030 N   0  0  0  0  0  0  0  0  0  0  0  0
  188.4020  177.0960  143.2450 C   0  0  0  0  0  0  0  0  0  0  0  0
  187.3870  176.4800  142.8210 O   0  0  0  0  0  0  0  0  0  0  0  0
  189.1490  177.5080  140.0070 C   0  0  1  0  0  3  0  0  0  0  0  0
  187.0970  178.6290  141.0450 C   0  0  0  0  0  1  0  0  0  0  0  0
  191.3980  176.9450  141.5600 S   0  0  0  0  0  0  0  0  0  0  0  0
  190.6800  177.5490  139.9900 C   0  0  0  0  0  2  0  0  0  0  0  0
  190.5390  178.1820  142.5910 C   0  0  0  0  0  2  0  0  0  0  0  0
  188.6120  178.4550  141.0870 C   0  0  1  0  0  3  0  0  0  0  0  0
  189.0560  179.0720  138.0250 C   0  0  0  0  0  1  0  0  0  0  0  0
  188.6180  177.8430  138.6830 N   0  0  0  0  0  0  0  0  0  0  0  0
  188.2180  172.6830  136.8460 C   0  0  0  0  0  1  0  0  0  0  0  0
  185.7580  175.3360  136.8420 C   0  0  0  0  0  0  0  0  0  0  0  0
  187.9810  175.6470  137.7320 C   0  0  0  0  0  3  0  0  0  0  0  0
  185.8550  173.3180  136.2150 C   0  0  0  0  0  0  0  0  0  0  0  0
  187.0040  174.8600  137.1270 C   0  0  0  0  0  0  0  0  0  0  0  0
  186.3470  177.4670  137.7500 C   0  0  0  0  0  3  0  0  0  0  0  0
  185.0080  174.3790  136.2620 N   0  0  0  0  0  0  0  0  0  0  0  0
  185.3850  176.6420  137.1390 C   0  0  0  0  0  3  0  0  0  0  0  0
  185.4630  171.9980  135.6450 C   0  0  0  0  0  1  0  0  0  0  0  0
  187.0780  173.5830  136.7360 N   0  0  0  0  0  0  0  0  0  0  0  0
  187.6480  176.9830  138.0530 C   0  0  0  0  0  0  0  0  0  0  0  0
  188.8580  176.8430  144.6450 C   0  0  0  0  0  2  0  0  0  0  0  0
  188.4260  177.7550  146.9590 N   0  0  0  0  0  0  0  0  0  0  0  0
  186.9090  178.0790  145.2290 O   0  0  0  0  0  0  0  0  0  0  0  0
  188.0090  177.6000  145.6060 C   0  0  0  0  0  0  0  0  0  0  0  0
  188.2380  178.2510  148.3520 C   0  0  0  0  0  2  0  0  0  0  0  0
  189.3880  177.5420  148.0790 C   0  0  0  0  0  2  0  0  0  0  0  0
  1  8  1  0  0  0  0
  1  2  1  0  0  0  0
  2 23  1  0  0  0  0
  3  2  2  0  0  0  0
  4 11  1  6  0  0  0
  4  9  1  0  0  0  0
  6  8  1  0  0  0  0
  7  4  1  0  0  0  0
  7  6  1  0  0  0  0
  9  5  1  1  0  0  0
  9  1  1  0  0  0  0
 10 11  1  0  0  0  0
 13 16  2  0  0  0  0
 13 19  1  0  0  0  0
 14 22  2  0  0  0  0
 15 18  2  0  0  0  0
 15 21  1  0  0  0  0
 16 14  1  0  0  0  0
 17 22  1  0  0  0  0
 18 13  1  0  0  0  0
 19 17  2  0  0  0  0
 20 15  1  0  0  0  0
 21 12  1  0  0  0  0
 21 16  1  0  0  0  0
 22 11  1  0  0  0  0
 23 26  1  0  0  0  0
 24 28  1  0  0  0  0
 24 27  1  0  0  0  0
 25 26  2  0  0  0  0
 26 24  1  0  0  0  0
 28 27  1  0  0  0  0
M  END
>  <MODEL>
6

>  <REMARK>
 VINA RESULT:      -6.6      3.202      7.609
  Name = 
  4 active torsions:
  status: ('A' for Active; 'I' for Inactive)
    1  A    between atoms: C_2  and  C_3
    2  A    between atoms: C_3  and  C_11
    3  A    between atoms: C_16  and  N_20
    4  A    between atoms: N_20  and  C_25
                            x       y       z     vdW  Elec       q    Type
                         _______ _______ _______ _____ _____    ______ ____

>  <TORSDO>
F 4

$$$$
=
 OpenBabel11052413303D

 28 31  0  0  1  0  0  0  0  0999 V2000
  189.7720  176.5450  136.6450 N   0  0  0  0  0  0  0  0  0  0  0  0
  189.0240  175.3490  136.3460 C   0  0  0  0  0  0  0  0  0  0  0  0
  188.9190  174.4230  137.1950 O   0  0  0  0  0  0  0  0  0  0  0  0
  189.7190  177.2950  138.9800 C   0  0  1  0  0  3  0  0  0  0  0  0
  191.3100  175.4260  138.2590 C   0  0  0  0  0  1  0  0  0  0  0  0
  188.0840  178.5690  137.1120 S   0  0  0  0  0  0  0  0  0  0  0  0
  189.1900  178.6710  138.5650 C   0  0  0  0  0  2  0  0  0  0  0  0
  189.3380  177.7940  136.0360 C   0  0  0  0  0  2  0  0  0  0  0  0
  190.5800  176.7050  137.8580 C   0  0  1  0  0  3  0  0  0  0  0  0
  191.9230  177.4950  140.2000 C   0  0  0  0  0  1  0  0  0  0  0  0
  190.4660  177.3970  140.2370 N   0  0  0  0  0  0  0  0  0  0  0  0
  191.5910  176.9310  145.5920 C   0  0  0  0  0  1  0  0  0  0  0  0
  188.4050  177.3220  143.9250 C   0  0  0  0  0  0  0  0  0  0  0  0
  190.4870  177.2220  142.7070 C   0  0  0  0  0  3  0  0  0  0  0  0
  189.0930  177.1270  145.9150 C   0  0  0  0  0  0  0  0  0  0  0  0
  189.7630  177.2040  143.8970 C   0  0  0  0  0  0  0  0  0  0  0  0
  188.3540  177.4900  141.5410 C   0  0  0  0  0  3  0  0  0  0  0  0
  187.9520  177.2760  145.1930 N   0  0  0  0  0  0  0  0  0  0  0  0
  187.6550  177.4680  142.7630 C   0  0  0  0  0  3  0  0  0  0  0  0
  189.0990  177.0260  147.4030 C   0  0  0  0  0  1  0  0  0  0  0  0
  190.2120  177.0800  145.1510 N   0  0  0  0  0  0  0  0  0  0  0  0
  189.7680  177.3680  141.4980 C   0  0  0  0  0  0  0  0  0  0  0  0
  188.3650  175.1770  135.0160 C   0  0  0  0  0  2  0  0  0  0  0  0
  186.2510  173.8440  135.3660 N   0  0  0  0  0  0  0  0  0  0  0  0
  186.1960  176.1550  135.1290 O   0  0  0  0  0  0  0  0  0  0  0  0
  186.8860  175.1040  135.1810 C   0  0  0  0  0  0  0  0  0  0  0  0
  185.0470  172.9870  135.5630 C   0  0  0  0  0  2  0  0  0  0  0  0
  186.2730  172.3600  135.5070 C   0  0  0  0  0  2  0  0  0  0  0  0
  1  9  1  0  0  0  0
  2  1  1  0  0  0  0
  2  3  2  0  0  0  0
  4 11  1  1  0  0  0
  6  7  1  0  0  0  0
  7  4  1  0  0  0  0
  8  1  1  0  0  0  0
  8  6  1  0  0  0  0
  9  5  1  1  0  0  0
  9  4  1  0  0  0  0
 10 11  1  0  0  0  0
 11 22  1  0  0  0  0
 13 18  1  0  0  0  0
 14 16  2  0  0  0  0
 15 20  1  0  0  0  0
 16 13  1  0  0  0  0
 16 21  1  0  0  0  0
 17 19  1  0  0  0  0
 18 15  2  0  0  0  0
 19 13  2  0  0  0  0
 21 12  1  0  0  0  0
 21 15  1  0  0  0  0
 22 17  2  0  0  0  0
 22 14  1  0  0  0  0
 23 26  1  0  0  0  0
 23  2  1  0  0  0  0
 24 28  1  0  0  0  0
 24 27  1  0  0  0  0
 25 26  2  0  0  0  0
 26 24  1  0  0  0  0
 28 27  1  0  0  0  0
M  END
>  <MODEL>
7

>  <REMARK>
 VINA RESULT:      -6.6      3.265      6.131
  Name = 
  4 active torsions:
  status: ('A' for Active; 'I' for Inactive)
    1  A    between atoms: C_2  and  C_3
    2  A    between atoms: C_3  and  C_11
    3  A    between atoms: C_16  and  N_20
    4  A    between atoms: N_20  and  C_25
                            x       y       z     vdW  Elec       q    Type
                         _______ _______ _______ _____ _____    ______ ____

>  <TORSDO>
F 4

$$$$
=
 OpenBabel11052413303D

 28 31  0  0  1  0  0  0  0  0999 V2000
  187.0590  175.5300  135.7820 N   0  0  0  0  0  0  0  0  0  0  0  0
  187.0520  174.1350  136.1510 C   0  0  0  0  0  0  0  0  0  0  0  0
  187.8380  173.6960  137.0320 O   0  0  0  0  0  0  0  0  0  0  0  0
  187.5770  177.1180  137.5780 C   0  0  1  0  0  3  0  0  0  0  0  0
  189.4580  175.8830  136.3640 C   0  0  0  0  0  1  0  0  0  0  0  0
  184.9160  176.7470  136.8240 S   0  0  0  0  0  0  0  0  0  0  0  0
  186.2630  177.8700  137.3420 C   0  0  0  0  0  2  0  0  0  0  0  0
  185.8040  176.1300  135.3540 C   0  0  0  0  0  2  0  0  0  0  0  0
  188.0590  176.4840  136.2680 C   0  0  1  0  0  3  0  0  0  0  0  0
  189.0720  179.1400  137.3440 C   0  0  0  0  0  1  0  0  0  0  0  0
  188.5820  178.0210  138.1440 N   0  0  0  0  0  0  0  0  0  0  0  0
  186.8110  177.8320  143.3390 C   0  0  0  0  0  1  0  0  0  0  0  0
  190.1360  177.3170  142.0100 C   0  0  0  0  0  0  0  0  0  0  0  0
  188.2520  177.8360  140.5920 C   0  0  0  0  0  3  0  0  0  0  0  0
  189.2130  177.2990  143.9130 C   0  0  0  0  0  0  0  0  0  0  0  0
  188.8110  177.5960  141.8440 C   0  0  0  0  0  0  0  0  0  0  0  0
  190.4840  177.4920  139.6520 C   0  0  0  0  0  3  0  0  0  0  0  0
  190.4190  177.1240  143.3130 N   0  0  0  0  0  0  0  0  0  0  0  0
  191.0140  177.2550  140.9340 C   0  0  0  0  0  3  0  0  0  0  0  0
  189.0210  177.1820  145.3870 C   0  0  0  0  0  1  0  0  0  0  0  0
  188.2150  177.5870  143.0420 N   0  0  0  0  0  0  0  0  0  0  0  0
  189.1060  177.7840  139.4660 C   0  0  0  0  0  0  0  0  0  0  0  0
  186.1170  173.1770  135.4850 C   0  0  0  0  0  2  0  0  0  0  0  0
  184.3870  171.4710  136.1690 N   0  0  0  0  0  0  0  0  0  0  0  0
  184.9740  173.2260  137.5740 O   0  0  0  0  0  0  0  0  0  0  0  0
  185.1450  172.6360  136.4760 C   0  0  0  0  0  0  0  0  0  0  0  0
  183.3680  170.4340  136.4950 C   0  0  0  0  0  2  0  0  0  0  0  0
  183.9940  170.3480  135.2700 C   0  0  0  0  0  2  0  0  0  0  0  0
  1  2  1  0  0  0  0
  1  9  1  0  0  0  0
  2  3  2  0  0  0  0
  4 11  1  6  0  0  0
  6  7  1  0  0  0  0
  7  4  1  0  0  0  0
  8  1  1  0  0  0  0
  8  6  1  0  0  0  0
  9  5  1  1  0  0  0
  9  4  1  0  0  0  0
 10 11  1  0  0  0  0
 11 22  1  0  0  0  0
 13 18  1  0  0  0  0
 14 16  2  0  0  0  0
 15 20  1  0  0  0  0
 16 13  1  0  0  0  0
 16 21  1  0  0  0  0
 17 19  1  0  0  0  0
 18 15  2  0  0  0  0
 19 13  2  0  0  0  0
 21 12  1  0  0  0  0
 21 15  1  0  0  0  0
 22 17  2  0  0  0  0
 22 14  1  0  0  0  0
 23  2  1  0  0  0  0
 23 26  1  0  0  0  0
 24 26  1  0  0  0  0
 24 27  1  0  0  0  0
 26 25  2  0  0  0  0
 28 24  1  0  0  0  0
 28 27  1  0  0  0  0
M  END
>  <MODEL>
8

>  <REMARK>
 VINA RESULT:      -6.5      4.362      7.511
  Name = 
  4 active torsions:
  status: ('A' for Active; 'I' for Inactive)
    1  A    between atoms: C_2  and  C_3
    2  A    between atoms: C_3  and  C_11
    3  A    between atoms: C_16  and  N_20
    4  A    between atoms: N_20  and  C_25
                            x       y       z     vdW  Elec       q    Type
                         _______ _______ _______ _____ _____    ______ ____

>  <TORSDO>
F 4

$$$$
=
 OpenBabel11052413303D

 28 31  0  0  1  0  0  0  0  0999 V2000
  189.0890  178.0980  142.4950 N   0  0  0  0  0  0  0  0  0  0  0  0
  188.3730  177.1610  143.3270 C   0  0  0  0  0  0  0  0  0  0  0  0
  187.3920  176.5140  142.8740 O   0  0  0  0  0  0  0  0  0  0  0  0
  189.2490  177.5220  140.1160 C   0  0  1  0  0  3  0  0  0  0  0  0
  187.1300  178.6160  141.0400 C   0  0  0  0  0  1  0  0  0  0  0  0
  191.4420  177.0450  141.7750 S   0  0  0  0  0  0  0  0  0  0  0  0
  190.7780  177.5980  140.1630 C   0  0  0  0  0  2  0  0  0  0  0  0
  190.5110  178.2830  142.7400 C   0  0  0  0  0  2  0  0  0  0  0  0
  188.6460  178.4790  141.1500 C   0  0  1  0  0  3  0  0  0  0  0  0
  189.0340  179.1270  138.1770 C   0  0  0  0  0  1  0  0  0  0  0  0
  188.7690  177.8150  138.7630 N   0  0  0  0  0  0  0  0  0  0  0  0
  183.7250  177.1500  136.6950 C   0  0  0  0  0  1  0  0  0  0  0  0
  186.5690  174.9160  136.6160 C   0  0  0  0  0  0  0  0  0  0  0  0
  186.6640  177.0780  137.6850 C   0  0  0  0  0  3  0  0  0  0  0  0
  184.5740  174.9020  135.9140 C   0  0  0  0  0  0  0  0  0  0  0  0
  185.9820  176.0930  136.9760 C   0  0  0  0  0  0  0  0  0  0  0  0
  188.6120  175.6000  137.6510 C   0  0  0  0  0  3  0  0  0  0  0  0
  185.6990  174.1400  135.9410 N   0  0  0  0  0  0  0  0  0  0  0  0
  187.8910  174.6260  136.9350 C   0  0  0  0  0  3  0  0  0  0  0  0
  183.3120  174.4540  135.2600 C   0  0  0  0  0  1  0  0  0  0  0  0
  184.7180  176.0970  136.5370 N   0  0  0  0  0  0  0  0  0  0  0  0
  188.0120  176.8300  138.0330 C   0  0  0  0  0  0  0  0  0  0  0  0
  188.7750  176.9490  144.7510 C   0  0  0  0  0  2  0  0  0  0  0  0
  188.2210  177.8760  147.0330 N   0  0  0  0  0  0  0  0  0  0  0  0
  186.8260  178.2390  145.2100 O   0  0  0  0  0  0  0  0  0  0  0  0
  187.8860  177.7310  145.6560 C   0  0  0  0  0  0  0  0  0  0  0  0
  187.9570  178.3790  148.4110 C   0  0  0  0  0  2  0  0  0  0  0  0
  189.1020  177.6390  148.2110 C   0  0  0  0  0  2  0  0  0  0  0  0
  1  8  1  0  0  0  0
  1  2  1  0  0  0  0
  2 23  1  0  0  0  0
  3  2  2  0  0  0  0
  4 11  1  6  0  0  0
  4  7  1  0  0  0  0
  4  9  1  0  0  0  0
  6  8  1  0  0  0  0
  7  6  1  0  0  0  0
  9  5  1  1  0  0  0
  9  1  1  0  0  0  0
 10 11  1  0  0  0  0
 13 19  2  0  0  0  0
 13 16  1  0  0  0  0
 14 22  1  0  0  0  0
 15 18  2  0  0  0  0
 15 21  1  0  0  0  0
 16 14  2  0  0  0  0
 17 22  2  0  0  0  0
 18 13  1  0  0  0  0
 19 17  1  0  0  0  0
 20 15  1  0  0  0  0
 21 12  1  0  0  0  0
 21 16  1  0  0  0  0
 22 11  1  0  0  0  0
 23 26  1  0  0  0  0
 24 28  1  0  0  0  0
 24 27  1  0  0  0  0
 25 26  2  0  0  0  0
 26 24  1  0  0  0  0
 28 27  1  0  0  0  0
M  END
>  <MODEL>
9

>  <REMARK>
 VINA RESULT:      -6.5      3.138      7.450
  Name = 
  4 active torsions:
  status: ('A' for Active; 'I' for Inactive)
    1  A    between atoms: C_2  and  C_3
    2  A    between atoms: C_3  and  C_11
    3  A    between atoms: C_16  and  N_20
    4  A    between atoms: N_20  and  C_25
                            x       y       z     vdW  Elec       q    Type
                         _______ _______ _______ _____ _____    ______ ____

>  <TORSDO>
F 4

$$$$
