=
 OpenBabel11052413323D

 28 31  0  0  1  0  0  0  0  0999 V2000
  188.5520  176.9700  144.2320 C   0  0  0  0  0  0  0  0  0  0  0  0
  185.3230  178.8800  140.6450 C   0  0  0  0  0  2  0  0  0  0  0  0
  185.2650  179.2660  146.9150 O   0  0  0  0  0  1  0  0  0  0  0  0
  183.4480  178.3160  142.2410 C   0  0  2  0  0  3  0  0  0  0  0  0
  185.6930  179.0350  143.1700 C   0  0  2  0  0  3  0  0  0  0  0  0
  183.0110  178.4840  139.8130 C   0  0  0  0  0  0  0  0  0  0  0  0
  184.7000  179.1820  142.0110 C   0  0  1  0  0  3  0  0  0  0  0  0
  183.5130  179.6010  144.4540 C   0  0  0  0  0  2  0  0  0  0  0  0
  182.3950  178.6030  141.1760 C   0  0  0  0  0  2  0  0  0  0  0  0
  186.8180  177.9830  145.6140 C   0  0  0  0  0  0  0  0  0  0  0  0
  186.3430  177.6450  143.1910 C   0  0  0  0  0  2  0  0  0  0  0  0
  182.8570  178.4740  143.6500 C   0  0  0  0  0  2  0  0  0  0  0  0
  188.9130  177.2760  146.6140 C   0  0  0  0  0  3  0  0  0  0  0  0
  185.4200  178.5390  145.7320 C   0  0  2  0  0  3  0  0  0  0  0  0
  187.6420  177.8390  146.7400 C   0  0  0  0  0  3  0  0  0  0  0  0
  182.4220  177.8900  138.9240 O   0  0  0  0  0  0  0  0  0  0  0  0
  184.3170  179.1660  139.5290 C   0  0  0  0  0  2  0  0  0  0  0  0
  185.0380  179.4270  144.5320 C   0  0  1  0  0  3  0  0  0  0  0  0
  189.3660  176.8430  145.3670 C   0  0  0  0  0  3  0  0  0  0  0  0
  187.2680  177.5310  144.3630 C   0  0  0  0  0  0  0  0  0  0  0  0
  189.0430  176.4850  142.8980 C   0  0  2  0  0  3  0  0  0  0  0  0
  190.1080  175.6020  143.0780 O   0  0  0  0  0  1  0  0  0  0  0  0
  189.4770  177.6320  141.9840 C   0  0  0  0  0  2  0  0  0  0  0  0
  188.7580  178.4500  139.6870 C   0  0  0  0  0  1  0  0  0  0  0  0
  189.3780  177.3120  140.4890 C   0  0  1  0  0  3  0  0  0  0  0  0
  190.6710  176.8180  139.9130 C   0  0  0  0  0  0  0  0  0  0  0  0
  191.8570  177.4510  140.2590 O   0  0  0  0  0  1  0  0  0  0  0  0
  190.6950  175.8560  139.1010 O   0  0  0  0  0  0  0  0  0  0  0  0
  1 20  2  0  0  0  0
  1 19  1  0  0  0  0
  4  9  1  6  0  0  0
  4 12  1  0  0  0  0
  5 11  1  1  0  0  0
  5 18  1  0  0  0  0
  6  9  1  0  0  0  0
  7  2  1  6  0  0  0
  7  4  1  0  0  0  0
  7  5  1  0  0  0  0
 10 14  1  0  0  0  0
 10 15  2  0  0  0  0
 11 20  1  0  0  0  0
 12  8  1  0  0  0  0
 13 15  1  0  0  0  0
 14  3  1  1  0  0  0
 16  6  2  0  0  0  0
 17  6  1  0  0  0  0
 17  2  1  0  0  0  0
 18  8  1  6  0  0  0
 18 14  1  0  0  0  0
 19 13  2  0  0  0  0
 20 10  1  0  0  0  0
 21 22  1  1  0  0  0
 21  1  1  0  0  0  0
 23 21  1  0  0  0  0
 25 24  1  6  0  0  0
 25 23  1  0  0  0  0
 26 27  1  0  0  0  0
 26 25  1  0  0  0  0
 28 26  2  0  0  0  0
M  END
>  <MODEL>
1

>  <REMARK>
 VINA RESULT:     -10.3      0.000      0.000
  Name = 
  4 active torsions:
  status: ('A' for Active; 'I' for Inactive)
    1  A    between atoms: C_1  and  C_2
    2  A    between atoms: C_2  and  C_3
    3  A    between atoms: C_3  and  C_11
    4  A    between atoms: C_6  and  C_11
                            x       y       z     vdW  Elec       q    Type
                         _______ _______ _______ _____ _____    ______ ____

>  <TORSDO>
F 4

$$$$
=
 OpenBabel11052413323D

 28 31  0  0  1  0  0  0  0  0999 V2000
  184.1600  178.5690  142.4100 C   0  0  0  0  0  0  0  0  0  0  0  0
  188.7900  176.2530  142.7860 C   0  0  0  0  0  2  0  0  0  0  0  0
  184.8540  178.4100  147.1820 O   0  0  0  0  0  1  0  0  0  0  0  0
  189.2700  177.8460  144.6870 C   0  0  2  0  0  3  0  0  0  0  0  0
  186.9010  177.0250  144.3260 C   0  0  2  0  0  3  0  0  0  0  0  0
  191.1290  176.8430  143.4000 C   0  0  0  0  0  0  0  0  0  0  0  0
  188.3890  176.6800  144.2010 C   0  0  1  0  0  3  0  0  0  0  0  0
  187.7380  177.5700  146.7180 C   0  0  0  0  0  2  0  0  0  0  0  0
  190.7370  177.4290  144.7250 C   0  0  0  0  0  2  0  0  0  0  0  0
  184.5600  178.6470  144.8130 C   0  0  0  0  0  0  0  0  0  0  0  0
  186.4790  178.1030  143.3180 C   0  0  0  0  0  2  0  0  0  0  0  0
  188.8280  178.4100  146.0460 C   0  0  0  0  0  2  0  0  0  0  0  0
  182.3570  179.1530  143.9300 C   0  0  0  0  0  3  0  0  0  0  0  0
  185.5290  178.5460  145.9660 C   0  0  2  0  0  3  0  0  0  0  0  0
  183.2230  179.0170  145.0170 C   0  0  0  0  0  3  0  0  0  0  0  0
  192.1840  177.1610  142.8770 O   0  0  0  0  0  0  0  0  0  0  0  0
  190.2520  175.8050  142.7620 C   0  0  0  0  0  2  0  0  0  0  0  0
  186.5210  177.3800  145.7980 C   0  0  1  0  0  3  0  0  0  0  0  0
  182.8230  178.9300  142.6330 C   0  0  0  0  0  3  0  0  0  0  0  0
  185.0320  178.4410  143.5070 C   0  0  0  0  0  0  0  0  0  0  0  0
  184.6550  178.3480  141.0090 C   0  0  2  0  0  3  0  0  0  0  0  0
  185.1680  179.5390  140.4950 O   0  0  0  0  0  1  0  0  0  0  0  0
  183.5600  177.8190  140.0800 C   0  0  0  0  0  2  0  0  0  0  0  0
  183.2580  177.8450  137.5570 C   0  0  0  0  0  1  0  0  0  0  0  0
  183.3330  178.6770  138.8320 C   0  0  1  0  0  3  0  0  0  0  0  0
  182.1860  179.6310  138.9830 C   0  0  0  0  0  0  0  0  0  0  0  0
  182.3260  180.9400  138.5430 O   0  0  0  0  0  0  0  0  0  0  0  0
  181.1090  179.2720  139.5270 O   0  0  0  0  0  1  0  0  0  0  0  0
  1 19  2  0  0  0  0
  1 20  1  0  0  0  0
  4  9  1  1  0  0  0
  4 12  1  0  0  0  0
  5 11  1  6  0  0  0
  5 18  1  0  0  0  0
  6  9  1  0  0  0  0
  7  2  1  6  0  0  0
  7  5  1  0  0  0  0
  7  4  1  0  0  0  0
 10 15  1  0  0  0  0
 10 14  1  0  0  0  0
 11 20  1  0  0  0  0
 12  8  1  0  0  0  0
 13 15  2  0  0  0  0
 14  3  1  1  0  0  0
 16  6  2  0  0  0  0
 17  2  1  0  0  0  0
 17  6  1  0  0  0  0
 18 14  1  0  0  0  0
 18  8  1  1  0  0  0
 19 13  1  0  0  0  0
 20 10  2  0  0  0  0
 21 22  1  6  0  0  0
 21  1  1  0  0  0  0
 23 21  1  0  0  0  0
 25 24  1  6  0  0  0
 25 26  1  0  0  0  0
 25 23  1  0  0  0  0
 26 28  1  0  0  0  0
 27 26  2  0  0  0  0
M  END
>  <MODEL>
2

>  <REMARK>
 VINA RESULT:     -10.2      1.747      6.422
  Name = 
  4 active torsions:
  status: ('A' for Active; 'I' for Inactive)
    1  A    between atoms: C_1  and  C_2
    2  A    between atoms: C_2  and  C_3
    3  A    between atoms: C_3  and  C_11
    4  A    between atoms: C_6  and  C_11
                            x       y       z     vdW  Elec       q    Type
                         _______ _______ _______ _____ _____    ______ ____

>  <TORSDO>
F 4

$$$$
=
 OpenBabel11052413323D

 28 31  0  0  1  0  0  0  0  0999 V2000
  184.0790  178.5830  142.3850 C   0  0  0  0  0  0  0  0  0  0  0  0
  188.7200  176.2850  142.7360 C   0  0  0  0  0  2  0  0  0  0  0  0
  184.7740  178.3770  147.1550 O   0  0  0  0  0  1  0  0  0  0  0  0
  189.1930  177.8590  144.6530 C   0  0  2  0  0  3  0  0  0  0  0  0
  186.8270  177.0310  144.2840 C   0  0  2  0  0  3  0  0  0  0  0  0
  191.0560  176.8780  143.3560 C   0  0  0  0  0  0  0  0  0  0  0  0
  188.3170  176.6950  144.1550 C   0  0  1  0  0  3  0  0  0  0  0  0
  187.6620  177.5540  146.6820 C   0  0  0  0  0  2  0  0  0  0  0  0
  190.6620  177.4490  144.6870 C   0  0  0  0  0  2  0  0  0  0  0  0
  184.4790  178.6370  144.7890 C   0  0  0  0  0  0  0  0  0  0  0  0
  186.4000  178.1180  143.2880 C   0  0  0  0  0  2  0  0  0  0  0  0
  188.7480  178.4060  146.0190 C   0  0  0  0  0  2  0  0  0  0  0  0
  182.2740  179.1420  143.9110 C   0  0  0  0  0  3  0  0  0  0  0  0
  185.4480  178.5280  145.9400 C   0  0  2  0  0  3  0  0  0  0  0  0
  183.1400  178.9990  144.9960 C   0  0  0  0  0  3  0  0  0  0  0  0
  192.1100  177.2070  142.8370 O   0  0  0  0  0  0  0  0  0  0  0  0
  190.1840  175.8440  142.7080 C   0  0  0  0  0  2  0  0  0  0  0  0
  186.4460  177.3680  145.7600 C   0  0  1  0  0  3  0  0  0  0  0  0
  182.7400  178.9350  142.6120 C   0  0  0  0  0  3  0  0  0  0  0  0
  184.9520  178.4470  143.4800 C   0  0  0  0  0  0  0  0  0  0  0  0
  184.5750  178.3790  140.9820 C   0  0  2  0  0  3  0  0  0  0  0  0
  185.3920  179.4460  140.6090 O   0  0  0  0  0  1  0  0  0  0  0  0
  183.4330  178.2330  139.9750 C   0  0  0  0  0  2  0  0  0  0  0  0
  181.5400  176.5390  139.8790 C   0  0  0  0  0  1  0  0  0  0  0  0
  183.0330  176.7820  139.6890 C   0  0  1  0  0  3  0  0  0  0  0  0
  183.5510  176.2850  138.3730 C   0  0  0  0  0  0  0  0  0  0  0  0
  184.4610  177.0560  137.6630 O   0  0  0  0  0  0  0  0  0  0  0  0
  183.1530  175.1920  137.8890 O   0  0  0  0  0  1  0  0  0  0  0  0
  1 19  2  0  0  0  0
  1 20  1  0  0  0  0
  4  9  1  1  0  0  0
  4 12  1  0  0  0  0
  5 11  1  6  0  0  0
  5 18  1  0  0  0  0
  6  9  1  0  0  0  0
  7  2  1  6  0  0  0
  7  5  1  0  0  0  0
  7  4  1  0  0  0  0
 10 15  1  0  0  0  0
 10 14  1  0  0  0  0
 11 20  1  0  0  0  0
 12  8  1  0  0  0  0
 13 15  2  0  0  0  0
 14  3  1  1  0  0  0
 16  6  2  0  0  0  0
 17  2  1  0  0  0  0
 17  6  1  0  0  0  0
 18 14  1  0  0  0  0
 18  8  1  1  0  0  0
 19 13  1  0  0  0  0
 20 10  2  0  0  0  0
 21 22  1  6  0  0  0
 21  1  1  0  0  0  0
 23 21  1  0  0  0  0
 25 24  1  6  0  0  0
 25 23  1  0  0  0  0
 26 25  1  0  0  0  0
 27 26  2  0  0  0  0
 28 26  1  0  0  0  0
M  END
>  <MODEL>
3

>  <REMARK>
 VINA RESULT:     -10.0      1.757      6.129
  Name = 
  4 active torsions:
  status: ('A' for Active; 'I' for Inactive)
    1  A    between atoms: C_1  and  C_2
    2  A    between atoms: C_2  and  C_3
    3  A    between atoms: C_3  and  C_11
    4  A    between atoms: C_6  and  C_11
                            x       y       z     vdW  Elec       q    Type
                         _______ _______ _______ _____ _____    ______ ____

>  <TORSDO>
F 4

$$$$
=
 OpenBabel11052413323D

 28 31  0  0  1  0  0  0  0  0999 V2000
  188.3640  176.9700  144.2650 C   0  0  0  0  0  0  0  0  0  0  0  0
  185.2640  178.9640  140.6100 C   0  0  0  0  0  2  0  0  0  0  0  0
  184.9480  179.1530  146.8820 O   0  0  0  0  0  1  0  0  0  0  0  0
  183.3320  178.3340  142.1100 C   0  0  2  0  0  3  0  0  0  0  0  0
  185.5300  179.0430  143.1520 C   0  0  2  0  0  3  0  0  0  0  0  0
  182.9920  178.5750  139.6730 C   0  0  0  0  0  0  0  0  0  0  0  0
  184.5840  179.2180  141.9580 C   0  0  1  0  0  3  0  0  0  0  0  0
  183.2940  179.5500  144.3620 C   0  0  0  0  0  2  0  0  0  0  0  0
  182.3200  178.6460  141.0120 C   0  0  0  0  0  2  0  0  0  0  0  0
  186.5660  177.9250  145.6060 C   0  0  0  0  0  0  0  0  0  0  0  0
  186.1920  177.6590  143.1560 C   0  0  0  0  0  2  0  0  0  0  0  0
  182.6830  178.4430  143.4980 C   0  0  0  0  0  2  0  0  0  0  0  0
  188.6260  177.2060  146.6690 C   0  0  0  0  0  3  0  0  0  0  0  0
  185.1590  178.4650  145.6840 C   0  0  2  0  0  3  0  0  0  0  0  0
  187.3450  177.7530  146.7590 C   0  0  0  0  0  3  0  0  0  0  0  0
  182.4460  178.0040  138.7430 O   0  0  0  0  0  0  0  0  0  0  0  0
  184.3010  179.2770  139.4640 C   0  0  0  0  0  2  0  0  0  0  0  0
  184.8170  179.3860  144.4970 C   0  0  1  0  0  3  0  0  0  0  0  0
  189.1330  176.8160  145.4280 C   0  0  0  0  0  3  0  0  0  0  0  0
  187.0700  177.5160  144.3610 C   0  0  0  0  0  0  0  0  0  0  0  0
  188.9130  176.5320  142.9380 C   0  0  2  0  0  3  0  0  0  0  0  0
  189.6830  175.3800  143.1010 O   0  0  0  0  0  1  0  0  0  0  0  0
  189.7550  177.6190  142.2660 C   0  0  0  0  0  2  0  0  0  0  0  0
  192.1860  177.6590  141.5270 C   0  0  0  0  0  1  0  0  0  0  0  0
  191.2210  177.6350  142.7070 C   0  0  1  0  0  3  0  0  0  0  0  0
  191.5100  178.6940  143.7290 C   0  0  0  0  0  0  0  0  0  0  0  0
  190.7880  179.8800  143.7040 O   0  0  0  0  0  0  0  0  0  0  0  0
  192.4130  178.5350  144.5920 O   0  0  0  0  0  1  0  0  0  0  0  0
  1 20  2  0  0  0  0
  1 19  1  0  0  0  0
  4  9  1  6  0  0  0
  4 12  1  0  0  0  0
  5 11  1  1  0  0  0
  5 18  1  0  0  0  0
  6  9  1  0  0  0  0
  7  2  1  6  0  0  0
  7  4  1  0  0  0  0
  7  5  1  0  0  0  0
 10 14  1  0  0  0  0
 10 15  2  0  0  0  0
 11 20  1  0  0  0  0
 12  8  1  0  0  0  0
 13 15  1  0  0  0  0
 14  3  1  1  0  0  0
 16  6  2  0  0  0  0
 17  6  1  0  0  0  0
 17  2  1  0  0  0  0
 18  8  1  6  0  0  0
 18 14  1  0  0  0  0
 19 13  2  0  0  0  0
 20 10  1  0  0  0  0
 21 22  1  1  0  0  0
 21  1  1  0  0  0  0
 23 25  1  0  0  0  0
 23 21  1  0  0  0  0
 25 24  1  6  0  0  0
 25 26  1  0  0  0  0
 26 28  1  0  0  0  0
 27 26  2  0  0  0  0
M  END
>  <MODEL>
4

>  <REMARK>
 VINA RESULT:      -9.4      1.388      1.923
  Name = 
  4 active torsions:
  status: ('A' for Active; 'I' for Inactive)
    1  A    between atoms: C_1  and  C_2
    2  A    between atoms: C_2  and  C_3
    3  A    between atoms: C_3  and  C_11
    4  A    between atoms: C_6  and  C_11
                            x       y       z     vdW  Elec       q    Type
                         _______ _______ _______ _____ _____    ______ ____

>  <TORSDO>
F 4

$$$$
=
 OpenBabel11052413323D

 28 31  0  0  1  0  0  0  0  0999 V2000
  186.8200  178.6250  141.3990 C   0  0  0  0  0  0  0  0  0  0  0  0
  188.6990  177.0680  145.9800 C   0  0  0  0  0  2  0  0  0  0  0  0
  182.8850  178.6370  144.1900 O   0  0  0  0  0  1  0  0  0  0  0  0
  187.1250  178.7410  147.0300 C   0  0  2  0  0  3  0  0  0  0  0  0
  186.4330  177.5540  144.9010 C   0  0  2  0  0  3  0  0  0  0  0  0
  189.1650  178.0250  148.2300 C   0  0  0  0  0  0  0  0  0  0  0  0
  187.2330  177.4450  146.2050 C   0  0  1  0  0  3  0  0  0  0  0  0
  184.6420  178.2530  146.6410 C   0  0  0  0  0  2  0  0  0  0  0  0
  187.7730  178.5590  148.3990 C   0  0  0  0  0  2  0  0  0  0  0  0
  184.8520  178.7950  142.8260 C   0  0  0  0  0  0  0  0  0  0  0  0
  187.0780  178.5400  143.9180 C   0  0  0  0  0  2  0  0  0  0  0  0
  185.6800  179.2450  147.1740 C   0  0  0  0  0  2  0  0  0  0  0  0
  184.6220  178.9380  140.4140 C   0  0  0  0  0  3  0  0  0  0  0  0
  184.2640  178.8620  144.2140 C   0  0  2  0  0  3  0  0  0  0  0  0
  184.0490  178.9540  141.6870 C   0  0  0  0  0  3  0  0  0  0  0  0
  190.0860  178.4980  148.8760 O   0  0  0  0  0  0  0  0  0  0  0  0
  189.4030  176.8550  147.3210 C   0  0  0  0  0  2  0  0  0  0  0  0
  184.9280  177.8630  145.1820 C   0  0  1  0  0  3  0  0  0  0  0  0
  186.0000  178.7740  140.2700 C   0  0  0  0  0  3  0  0  0  0  0  0
  186.2410  178.6490  142.6810 C   0  0  0  0  0  0  0  0  0  0  0  0
  188.3050  178.4660  141.2330 C   0  0  2  0  0  3  0  0  0  0  0  0
  188.6380  178.5190  139.8790 O   0  0  0  0  0  1  0  0  0  0  0  0
  188.8240  177.1610  141.8370 C   0  0  0  0  0  2  0  0  0  0  0  0
  190.5250  178.5350  143.1330 C   0  0  0  0  0  1  0  0  0  0  0  0
  190.2590  177.2450  142.3660 C   0  0  1  0  0  3  0  0  0  0  0  0
  190.6750  176.0150  143.1160 C   0  0  0  0  0  0  0  0  0  0  0  0
  191.6410  176.1150  144.1080 O   0  0  0  0  0  1  0  0  0  0  0  0
  190.1800  174.8890  142.8430 O   0  0  0  0  0  0  0  0  0  0  0  0
  1 20  1  0  0  0  0
  2 17  1  0  0  0  0
  4 12  1  1  0  0  0
  4  9  1  0  0  0  0
  5 11  1  6  0  0  0
  5 18  1  0  0  0  0
  5  7  1  0  0  0  0
  6  9  1  0  0  0  0
  6 16  2  0  0  0  0
  7  2  1  6  0  0  0
  7  4  1  0  0  0  0
  8 12  1  0  0  0  0
 10 14  1  0  0  0  0
 13 15  2  0  0  0  0
 14  3  1  6  0  0  0
 14 18  1  0  0  0  0
 15 10  1  0  0  0  0
 17  6  1  0  0  0  0
 18  8  1  1  0  0  0
 19 13  1  0  0  0  0
 19  1  2  0  0  0  0
 20 10  2  0  0  0  0
 20 11  1  0  0  0  0
 21 22  1  6  0  0  0
 21  1  1  0  0  0  0
 21 23  1  0  0  0  0
 23 25  1  0  0  0  0
 25 26  1  0  0  0  0
 25 24  1  1  0  0  0
 26 27  1  0  0  0  0
 28 26  2  0  0  0  0
M  END
>  <MODEL>
5

>  <REMARK>
 VINA RESULT:      -9.2      1.922      5.561
  Name = 
  4 active torsions:
  status: ('A' for Active; 'I' for Inactive)
    1  A    between atoms: C_1  and  C_2
    2  A    between atoms: C_2  and  C_3
    3  A    between atoms: C_3  and  C_11
    4  A    between atoms: C_6  and  C_11
                            x       y       z     vdW  Elec       q    Type
                         _______ _______ _______ _____ _____    ______ ____

>  <TORSDO>
F 4

$$$$
=
 OpenBabel11052413323D

 28 31  0  0  1  0  0  0  0  0999 V2000
  187.5640  178.3150  146.4770 C   0  0  0  0  0  0  0  0  0  0  0  0
  187.9110  177.4600  141.3700 C   0  0  0  0  0  2  0  0  0  0  0  0
  191.7030  175.8620  146.1160 O   0  0  0  0  0  1  0  0  0  0  0  0
  190.3900  177.8770  141.6150 C   0  0  2  0  0  3  0  0  0  0  0  0
  189.1240  176.7790  143.5150 C   0  0  2  0  0  3  0  0  0  0  0  0
  189.2760  178.2290  139.4350 C   0  0  0  0  0  0  0  0  0  0  0  0
  189.2150  176.9570  141.9950 C   0  0  1  0  0  3  0  0  0  0  0  0
  191.6120  176.1830  143.0950 C   0  0  0  0  0  2  0  0  0  0  0  0
  190.5810  177.9040  140.1010 C   0  0  0  0  0  2  0  0  0  0  0  0
  189.7360  177.2210  146.3040 C   0  0  0  0  0  0  0  0  0  0  0  0
  188.6760  178.0700  144.2140 C   0  0  0  0  0  2  0  0  0  0  0  0
  191.7010  177.5030  142.3230 C   0  0  0  0  0  2  0  0  0  0  0  0
  188.6920  177.5150  148.4750 C   0  0  0  0  0  3  0  0  0  0  0  0
  190.9000  176.7880  145.4460 C   0  0  2  0  0  3  0  0  0  0  0  0
  189.7590  177.0620  147.6970 C   0  0  0  0  0  3  0  0  0  0  0  0
  189.2380  179.0380  138.5230 O   0  0  0  0  0  0  0  0  0  0  0  0
  188.0330  177.4940  139.8450 C   0  0  0  0  0  2  0  0  0  0  0  0
  190.4470  176.1930  144.0990 C   0  0  1  0  0  3  0  0  0  0  0  0
  187.6000  178.1390  147.8680 C   0  0  0  0  0  3  0  0  0  0  0  0
  188.6450  177.8640  145.6960 C   0  0  0  0  0  0  0  0  0  0  0  0
  186.3920  179.0020  145.8370 C   0  0  2  0  0  3  0  0  0  0  0  0
  185.6090  179.6130  146.8170 O   0  0  0  0  0  1  0  0  0  0  0  0
  185.5290  178.0420  145.0170 C   0  0  0  0  0  2  0  0  0  0  0  0
  184.9210  178.0520  142.5500 C   0  0  0  0  0  1  0  0  0  0  0  0
  184.7240  178.7200  143.9050 C   0  0  1  0  0  3  0  0  0  0  0  0
  183.2810  178.9120  144.2660 C   0  0  0  0  0  0  0  0  0  0  0  0
  182.3340  179.0190  143.2560 O   0  0  0  0  0  0  0  0  0  0  0  0
  182.9180  179.0030  145.4680 O   0  0  0  0  0  1  0  0  0  0  0  0
  1 19  1  0  0  0  0
  4  9  1  6  0  0  0
  4  7  1  0  0  0  0
  4 12  1  0  0  0  0
  5 18  1  0  0  0  0
  5 11  1  1  0  0  0
  6 17  1  0  0  0  0
  6  9  1  0  0  0  0
  7  2  1  1  0  0  0
  7  5  1  0  0  0  0
 10 15  2  0  0  0  0
 11 20  1  0  0  0  0
 12  8  1  0  0  0  0
 14  3  1  1  0  0  0
 14 10  1  0  0  0  0
 15 13  1  0  0  0  0
 16  6  2  0  0  0  0
 17  2  1  0  0  0  0
 18  8  1  6  0  0  0
 18 14  1  0  0  0  0
 19 13  2  0  0  0  0
 20 10  1  0  0  0  0
 20  1  2  0  0  0  0
 21  1  1  0  0  0  0
 21 22  1  1  0  0  0
 23 21  1  0  0  0  0
 25 24  1  6  0  0  0
 25 26  1  0  0  0  0
 25 23  1  0  0  0  0
 26 28  1  0  0  0  0
 27 26  2  0  0  0  0
M  END
>  <MODEL>
6

>  <REMARK>
 VINA RESULT:      -8.9      2.023      6.138
  Name = 
  4 active torsions:
  status: ('A' for Active; 'I' for Inactive)
    1  A    between atoms: C_1  and  C_2
    2  A    between atoms: C_2  and  C_3
    3  A    between atoms: C_3  and  C_11
    4  A    between atoms: C_6  and  C_11
                            x       y       z     vdW  Elec       q    Type
                         _______ _______ _______ _____ _____    ______ ____

>  <TORSDO>
F 4

$$$$
=
 OpenBabel11052413323D

 28 31  0  0  1  0  0  0  0  0999 V2000
  187.1830  177.7700  144.4270 C   0  0  0  0  0  0  0  0  0  0  0  0
  190.7090  177.4110  140.6350 C   0  0  0  0  0  2  0  0  0  0  0  0
  184.7440  179.3820  140.5900 O   0  0  0  0  0  1  0  0  0  0  0  0
  188.8130  176.6640  139.1420 C   0  0  2  0  0  3  0  0  0  0  0  0
  188.3530  178.3430  140.9820 C   0  0  2  0  0  3  0  0  0  0  0  0
  191.1430  176.0250  138.6140 C   0  0  0  0  0  0  0  0  0  0  0  0
  189.3880  177.8220  139.9780 C   0  0  1  0  0  3  0  0  0  0  0  0
  186.9890  178.4220  138.7790 C   0  0  0  0  0  2  0  0  0  0  0  0
  189.7830  176.2730  138.0310 C   0  0  0  0  0  2  0  0  0  0  0  0
  185.8820  178.4340  142.4760 C   0  0  0  0  0  0  0  0  0  0  0  0
  188.0840  177.3270  142.1010 C   0  0  0  0  0  2  0  0  0  0  0  0
  187.4210  176.9680  138.5680 C   0  0  0  0  0  2  0  0  0  0  0  0
  185.0000  178.7980  144.7070 C   0  0  0  0  0  3  0  0  0  0  0  0
  185.7330  178.4730  140.9750 C   0  0  2  0  0  3  0  0  0  0  0  0
  184.8610  178.8900  143.3210 C   0  0  0  0  0  3  0  0  0  0  0  0
  191.7910  175.0510  138.2660 O   0  0  0  0  0  0  0  0  0  0  0  0
  191.7330  177.0220  139.5670 C   0  0  0  0  0  2  0  0  0  0  0  0
  187.0540  178.8220  140.2620 C   0  0  1  0  0  3  0  0  0  0  0  0
  186.1560  178.2410  145.2580 C   0  0  0  0  0  3  0  0  0  0  0  0
  187.0360  177.8570  143.0310 C   0  0  0  0  0  0  0  0  0  0  0  0
  188.4150  177.1570  145.0300 C   0  0  2  0  0  3  0  0  0  0  0  0
  188.1220  176.6590  146.3000 O   0  0  0  0  0  1  0  0  0  0  0  0
  189.5750  178.1500  145.1250 C   0  0  0  0  0  2  0  0  0  0  0  0
  191.6870  178.9280  143.9440 C   0  0  0  0  0  1  0  0  0  0  0  0
  190.8170  177.7370  144.3290 C   0  0  1  0  0  3  0  0  0  0  0  0
  191.5860  176.6300  144.9850 C   0  0  0  0  0  0  0  0  0  0  0  0
  191.9680  176.7590  146.3140 O   0  0  0  0  0  1  0  0  0  0  0  0
  191.9130  175.5970  144.3440 O   0  0  0  0  0  0  0  0  0  0  0  0
  1 21  1  0  0  0  0
  1 19  1  0  0  0  0
  4  9  1  6  0  0  0
  4  7  1  0  0  0  0
  5 11  1  1  0  0  0
  6 17  1  0  0  0  0
  7  2  1  1  0  0  0
  7  5  1  0  0  0  0
  9  6  1  0  0  0  0
 10 20  1  0  0  0  0
 10 15  2  0  0  0  0
 11 20  1  0  0  0  0
 12  8  1  0  0  0  0
 12  4  1  0  0  0  0
 13 19  2  0  0  0  0
 14  3  1  1  0  0  0
 14 10  1  0  0  0  0
 15 13  1  0  0  0  0
 16  6  2  0  0  0  0
 17  2  1  0  0  0  0
 18  8  1  6  0  0  0
 18 14  1  0  0  0  0
 18  5  1  0  0  0  0
 20  1  2  0  0  0  0
 21 23  1  0  0  0  0
 21 22  1  1  0  0  0
 25 24  1  1  0  0  0
 25 26  1  0  0  0  0
 25 23  1  0  0  0  0
 26 27  1  0  0  0  0
 28 26  2  0  0  0  0
M  END
>  <MODEL>
7

>  <REMARK>
 VINA RESULT:      -8.8      1.916      5.457
  Name = 
  4 active torsions:
  status: ('A' for Active; 'I' for Inactive)
    1  A    between atoms: C_1  and  C_2
    2  A    between atoms: C_2  and  C_3
    3  A    between atoms: C_3  and  C_11
    4  A    between atoms: C_6  and  C_11
                            x       y       z     vdW  Elec       q    Type
                         _______ _______ _______ _____ _____    ______ ____

>  <TORSDO>
F 4

$$$$
=
 OpenBabel11052413323D

 28 31  0  0  1  0  0  0  0  0999 V2000
  185.1820  178.6320  143.9280 C   0  0  0  0  0  0  0  0  0  0  0  0
  189.3790  176.7230  141.5450 C   0  0  0  0  0  2  0  0  0  0  0  0
  187.9460  177.2640  147.6380 O   0  0  0  0  0  1  0  0  0  0  0  0
  190.7330  177.7850  143.3950 C   0  0  2  0  0  3  0  0  0  0  0  0
  188.4230  176.8820  143.9110 C   0  0  2  0  0  3  0  0  0  0  0  0
  191.7670  177.3320  141.1940 C   0  0  0  0  0  0  0  0  0  0  0  0
  189.6780  176.7180  143.0470 C   0  0  1  0  0  3  0  0  0  0  0  0
  190.2720  176.8390  145.7280 C   0  0  0  0  0  2  0  0  0  0  0  0
  192.0400  177.5050  142.6590 C   0  0  0  0  0  2  0  0  0  0  0  0
  186.6260  178.0990  145.8180 C   0  0  0  0  0  0  0  0  0  0  0  0
  187.6390  178.1490  143.5410 C   0  0  0  0  0  2  0  0  0  0  0  0
  190.9760  177.9220  144.9050 C   0  0  0  0  0  2  0  0  0  0  0  0
  184.2850  178.6240  146.1850 C   0  0  0  0  0  3  0  0  0  0  0  0
  188.0050  177.7800  146.3410 C   0  0  2  0  0  3  0  0  0  0  0  0
  185.5410  178.2800  146.6880 C   0  0  0  0  0  3  0  0  0  0  0  0
  192.4850  177.8720  140.3690 O   0  0  0  0  0  0  0  0  0  0  0  0
  190.6530  176.4300  140.7510 C   0  0  0  0  0  2  0  0  0  0  0  0
  188.7640  176.7940  145.4320 C   0  0  1  0  0  3  0  0  0  0  0  0
  184.1060  178.7990  144.8120 C   0  0  0  0  0  3  0  0  0  0  0  0
  186.4480  178.2930  144.4380 C   0  0  0  0  0  0  0  0  0  0  0  0
  184.9820  178.8390  142.4540 C   0  0  2  0  0  3  0  0  0  0  0  0
  185.3750  180.1310  142.1000 O   0  0  0  0  0  1  0  0  0  0  0  0
  183.5320  178.6100  142.0230 C   0  0  0  0  0  2  0  0  0  0  0  0
  181.9180  178.2800  140.0870 C   0  0  0  0  0  1  0  0  0  0  0  0
  183.3700  178.2320  140.5480 C   0  0  1  0  0  3  0  0  0  0  0  0
  184.3020  178.9880  139.6490 C   0  0  0  0  0  0  0  0  0  0  0  0
  185.5350  178.4380  139.3270 O   0  0  0  0  0  1  0  0  0  0  0  0
  183.9950  180.1250  139.2030 O   0  0  0  0  0  0  0  0  0  0  0  0
  1 20  2  0  0  0  0
  1 19  1  0  0  0  0
  4  9  1  6  0  0  0
  4 12  1  0  0  0  0
  5 11  1  1  0  0  0
  5 18  1  0  0  0  0
  6  9  1  0  0  0  0
  7  2  1  6  0  0  0
  7  4  1  0  0  0  0
  7  5  1  0  0  0  0
 10 14  1  0  0  0  0
 10 15  2  0  0  0  0
 11 20  1  0  0  0  0
 12  8  1  0  0  0  0
 13 15  1  0  0  0  0
 14  3  1  1  0  0  0
 16  6  2  0  0  0  0
 17  6  1  0  0  0  0
 17  2  1  0  0  0  0
 18  8  1  6  0  0  0
 18 14  1  0  0  0  0
 19 13  2  0  0  0  0
 20 10  1  0  0  0  0
 21 22  1  1  0  0  0
 21  1  1  0  0  0  0
 23 21  1  0  0  0  0
 25 24  1  6  0  0  0
 25 23  1  0  0  0  0
 26 25  1  0  0  0  0
 27 26  1  0  0  0  0
 28 26  2  0  0  0  0
M  END
>  <MODEL>
8

>  <REMARK>
 VINA RESULT:      -8.7      1.747      6.058
  Name = 
  4 active torsions:
  status: ('A' for Active; 'I' for Inactive)
    1  A    between atoms: C_1  and  C_2
    2  A    between atoms: C_2  and  C_3
    3  A    between atoms: C_3  and  C_11
    4  A    between atoms: C_6  and  C_11
                            x       y       z     vdW  Elec       q    Type
                         _______ _______ _______ _____ _____    ______ ____

>  <TORSDO>
F 4

$$$$
=
 OpenBabel11052413323D

 28 31  0  0  1  0  0  0  0  0999 V2000
  187.2400  177.8060  144.7290 C   0  0  0  0  0  0  0  0  0  0  0  0
  185.6480  178.6600  139.8640 C   0  0  0  0  0  2  0  0  0  0  0  0
  182.7250  179.3780  145.3780 O   0  0  0  0  0  1  0  0  0  0  0  0
  183.4080  177.7470  140.5900 C   0  0  2  0  0  3  0  0  0  0  0  0
  184.8140  179.0450  142.2500 C   0  0  2  0  0  3  0  0  0  0  0  0
  184.0760  177.6640  138.2110 C   0  0  0  0  0  0  0  0  0  0  0  0
  184.4360  178.8780  140.7730 C   0  0  1  0  0  3  0  0  0  0  0  0
  182.2270  179.1330  142.3890 C   0  0  0  0  0  2  0  0  0  0  0  0
  182.9060  177.7070  139.1500 C   0  0  0  0  0  2  0  0  0  0  0  0
  184.9120  178.4420  145.0740 C   0  0  0  0  0  0  0  0  0  0  0  0
  185.6430  177.8600  142.7630 C   0  0  0  0  0  2  0  0  0  0  0  0
  182.2320  177.8360  141.5750 C   0  0  0  0  0  2  0  0  0  0  0  0
  186.4340  178.3280  146.9600 C   0  0  0  0  0  3  0  0  0  0  0  0
  183.5300  178.6450  144.5020 C   0  0  2  0  0  3  0  0  0  0  0  0
  185.1580  178.5690  146.4480 C   0  0  0  0  0  3  0  0  0  0  0  0
  184.0740  176.8940  137.2640 O   0  0  0  0  0  0  0  0  0  0  0  0
  185.2100  178.6280  138.3980 C   0  0  0  0  0  2  0  0  0  0  0  0
  183.5590  179.3420  143.1290 C   0  0  1  0  0  3  0  0  0  0  0  0
  187.4700  177.9490  146.1060 C   0  0  0  0  0  3  0  0  0  0  0  0
  185.9510  178.0430  144.2170 C   0  0  0  0  0  0  0  0  0  0  0  0
  188.3580  177.3820  143.8210 C   0  0  2  0  0  3  0  0  0  0  0  0
  188.2830  176.0080  143.5890 O   0  0  0  0  0  1  0  0  0  0  0  0
  189.7360  177.7300  144.3880 C   0  0  0  0  0  2  0  0  0  0  0  0
  191.6810  176.1380  144.0140 C   0  0  0  0  0  1  0  0  0  0  0  0
  190.5160  176.5250  144.9190 C   0  0  1  0  0  3  0  0  0  0  0  0
  190.9100  176.6750  146.3580 C   0  0  0  0  0  0  0  0  0  0  0  0
  189.9850  176.3820  147.3510 O   0  0  0  0  0  1  0  0  0  0  0  0
  192.0560  177.0870  146.6790 O   0  0  0  0  0  0  0  0  0  0  0  0
  1 19  1  0  0  0  0
  4  9  1  6  0  0  0
  4  7  1  0  0  0  0
  4 12  1  0  0  0  0
  5 11  1  1  0  0  0
  5 18  1  0  0  0  0
  6 17  1  0  0  0  0
  6  9  1  0  0  0  0
  7  2  1  6  0  0  0
  7  5  1  0  0  0  0
 10 15  2  0  0  0  0
 11 20  1  0  0  0  0
 12  8  1  0  0  0  0
 14 10  1  0  0  0  0
 14  3  1  1  0  0  0
 15 13  1  0  0  0  0
 16  6  2  0  0  0  0
 17  2  1  0  0  0  0
 18  8  1  6  0  0  0
 18 14  1  0  0  0  0
 19 13  2  0  0  0  0
 20  1  2  0  0  0  0
 20 10  1  0  0  0  0
 21 22  1  1  0  0  0
 21 23  1  0  0  0  0
 21  1  1  0  0  0  0
 23 25  1  0  0  0  0
 25 24  1  6  0  0  0
 25 26  1  0  0  0  0
 26 28  2  0  0  0  0
 26 27  1  0  0  0  0
M  END
>  <MODEL>
9

>  <REMARK>
 VINA RESULT:      -8.5      2.208      3.312
  Name = 
  4 active torsions:
  status: ('A' for Active; 'I' for Inactive)
    1  A    between atoms: C_1  and  C_2
    2  A    between atoms: C_2  and  C_3
    3  A    between atoms: C_3  and  C_11
    4  A    between atoms: C_6  and  C_11
                            x       y       z     vdW  Elec       q    Type
                         _______ _______ _______ _____ _____    ______ ____

>  <TORSDO>
F 4

$$$$
