=
 OpenBabel11052413413D

 27 31  0  0  1  0  0  0  0  0999 V2000
  189.1860  178.7250  137.3640 C   0  0  0  0  0  2  0  0  0  0  0  0
  187.8620  178.2740  139.5630 C   0  0  0  0  0  0  0  0  0  0  0  0
  190.3420  177.5570  139.7310 C   0  0  0  0  0  2  0  0  0  0  0  0
  187.6780  177.8340  143.7040 N   0  0  0  0  0  2  0  0  0  0  0  0
  189.6650  178.3750  144.8960 N   0  0  0  0  0  1  0  0  0  0  0  0
  186.6950  178.5680  140.2150 N   0  0  0  0  0  0  0  0  0  0  0  0
  189.8050  177.2430  142.7300 C   0  0  1  0  0  3  0  0  0  0  0  0
  192.5260  176.0430  137.4260 C   0  0  0  0  0  2  0  0  0  0  0  0
  190.1790  175.7860  142.5240 C   0  0  0  0  0  1  0  0  0  0  0  0
  192.1200  175.5140  136.0430 C   0  0  0  0  0  2  0  0  0  0  0  0
  188.8130  177.6720  141.6990 C   0  0  0  0  0  0  0  0  0  0  0  0
  187.8500  178.4060  138.0590 C   0  0  2  0  0  3  0  0  0  0  0  0
  189.0230  177.3810  144.0530 C   0  0  2  0  0  3  0  0  0  0  0  0
  187.6340  177.9880  142.3020 C   0  0  0  0  0  0  0  0  0  0  0  0
  190.1570  177.5450  137.2280 C   0  0  2  0  0  3  0  0  0  0  0  0
  188.9820  177.8090  140.3150 C   0  0  0  0  0  0  0  0  0  0  0  0
  191.4910  175.7300  138.5100 C   0  0  0  0  0  2  0  0  0  0  0  0
  186.5530  178.4450  141.5640 C   0  0  0  0  0  3  0  0  0  0  0  0
  189.8960  176.7770  135.9250 C   0  0  0  0  0  2  0  0  0  0  0  0
  190.6070  175.4270  135.8240 C   0  0  0  0  0  2  0  0  0  0  0  0
  190.2740  176.6740  138.4980 C   0  0  1  0  0  3  0  0  0  0  0  0
  185.4650  175.5680  135.8030 C   0  0  0  0  0  2  0  0  0  0  0  0
  186.9080  177.4140  137.3620 C   0  0  0  0  0  3  0  0  0  0  0  0
  187.2970  175.9480  137.5670 C   0  0  0  0  0  2  0  0  0  0  0  0
  186.2330  174.9980  137.0030 C   0  0  0  0  0  2  0  0  0  0  0  0
  186.3170  176.5610  135.0170 C   0  0  0  0  0  2  0  0  0  0  0  0
  186.6830  177.7720  135.8830 C   0  0  0  0  0  2  0  0  0  0  0  0
  1 12  1  0  0  0  0
  2  6  2  0  0  0  0
  2 16  1  0  0  0  0
  3 16  1  0  0  0  0
  4 13  1  0  0  0  0
  6 18  1  0  0  0  0
  7  9  1  6  0  0  0
  7 13  1  0  0  0  0
  8 17  1  0  0  0  0
 10  8  1  0  0  0  0
 11 14  1  0  0  0  0
 11  7  1  0  0  0  0
 12 23  1  6  0  0  0
 12  2  1  0  0  0  0
 13  5  1  1  0  0  0
 14  4  1  0  0  0  0
 15 19  1  6  0  0  0
 15  1  1  0  0  0  0
 15 21  1  0  0  0  0
 16 11  2  0  0  0  0
 18 14  2  0  0  0  0
 20 19  1  0  0  0  0
 20 10  1  0  0  0  0
 21 17  1  6  0  0  0
 21  3  1  0  0  0  0
 22 25  1  0  0  0  0
 23 24  1  0  0  0  0
 25 24  1  0  0  0  0
 26 22  1  0  0  0  0
 26 27  1  0  0  0  0
 27 23  1  0  0  0  0
M  END
>  <MODEL>
1

>  <REMARK>
 VINA RESULT:      -7.6      0.000      0.000
  Name = 
  1 active torsions:
  status: ('A' for Active; 'I' for Inactive)
    1  A    between atoms: C_9  and  C_15
                            x       y       z     vdW  Elec       q    Type
                         _______ _______ _______ _____ _____    ______ ____

>  <TORSDO>
F 1

$$$$
=
 OpenBabel11052413413D

 27 31  0  0  1  0  0  0  0  0999 V2000
  188.6040  178.8880  137.5540 C   0  0  0  0  0  2  0  0  0  0  0  0
  186.3460  178.4240  138.7680 C   0  0  0  0  0  0  0  0  0  0  0  0
  188.3530  178.5050  140.3980 C   0  0  0  0  0  2  0  0  0  0  0  0
  183.8860  178.6120  142.1280 N   0  0  0  0  0  2  0  0  0  0  0  0
  184.7150  179.8970  143.9520 N   0  0  0  0  0  1  0  0  0  0  0  0
  184.9870  178.4600  138.6010 N   0  0  0  0  0  0  0  0  0  0  0  0
  186.2460  178.5270  142.6220 C   0  0  1  0  0  3  0  0  0  0  0  0
  191.6660  177.3550  140.1270 C   0  0  0  0  0  2  0  0  0  0  0  0
  186.8900  177.2320  143.0830 C   0  0  0  0  0  1  0  0  0  0  0  0
  192.2160  176.5170  138.9640 C   0  0  0  0  0  2  0  0  0  0  0  0
  185.9750  178.4760  141.1540 C   0  0  0  0  0  0  0  0  0  0  0  0
  187.1800  178.3050  137.5160 C   0  0  2  0  0  3  0  0  0  0  0  0
  184.8360  178.6370  143.2390 C   0  0  2  0  0  3  0  0  0  0  0  0
  184.6320  178.5220  140.9340 C   0  0  0  0  0  0  0  0  0  0  0  0
  189.6440  178.0410  138.2960 C   0  0  2  0  0  3  0  0  0  0  0  0
  186.8850  178.4340  140.0890 C   0  0  0  0  0  0  0  0  0  0  0  0
  190.2600  176.9280  140.5540 C   0  0  0  0  0  2  0  0  0  0  0  0
  184.1170  178.5170  139.6470 C   0  0  0  0  0  3  0  0  0  0  0  0
  190.3020  177.0330  137.3440 C   0  0  0  0  0  2  0  0  0  0  0  0
  191.1400  175.9550  138.0310 C   0  0  0  0  0  2  0  0  0  0  0  0
  189.1430  177.4570  139.6360 C   0  0  1  0  0  3  0  0  0  0  0  0
  187.0000  174.5570  135.3350 C   0  0  0  0  0  2  0  0  0  0  0  0
  186.9760  176.9820  136.7630 C   0  0  0  0  0  3  0  0  0  0  0  0
  187.3180  175.7430  137.5950 C   0  0  0  0  0  2  0  0  0  0  0  0
  186.9330  174.4500  136.8640 C   0  0  0  0  0  2  0  0  0  0  0  0
  188.0380  175.5850  134.8940 C   0  0  0  0  0  2  0  0  0  0  0  0
  187.6640  176.9870  135.3880 C   0  0  0  0  0  2  0  0  0  0  0  0
  1 15  1  0  0  0  0
  2 16  1  0  0  0  0
  4 13  1  0  0  0  0
  6  2  2  0  0  0  0
  6 18  1  0  0  0  0
  7  9  1  1  0  0  0
  7 13  1  0  0  0  0
  8 17  1  0  0  0  0
 10  8  1  0  0  0  0
 11  7  1  0  0  0  0
 12 23  1  1  0  0  0
 12  1  1  0  0  0  0
 12  2  1  0  0  0  0
 13  5  1  6  0  0  0
 14 11  1  0  0  0  0
 14  4  1  0  0  0  0
 15 19  1  6  0  0  0
 15 21  1  0  0  0  0
 16  3  1  0  0  0  0
 16 11  2  0  0  0  0
 18 14  2  0  0  0  0
 19 20  1  0  0  0  0
 20 10  1  0  0  0  0
 21  3  1  1  0  0  0
 21 17  1  0  0  0  0
 22 25  1  0  0  0  0
 23 24  1  0  0  0  0
 25 24  1  0  0  0  0
 26 22  1  0  0  0  0
 26 27  1  0  0  0  0
 27 23  1  0  0  0  0
M  END
>  <MODEL>
2

>  <REMARK>
 VINA RESULT:      -7.0      1.887      2.665
  Name = 
  1 active torsions:
  status: ('A' for Active; 'I' for Inactive)
    1  A    between atoms: C_9  and  C_15
                            x       y       z     vdW  Elec       q    Type
                         _______ _______ _______ _____ _____    ______ ____

>  <TORSDO>
F 1

$$$$
=
 OpenBabel11052413413D

 27 31  0  0  1  0  0  0  0  0999 V2000
  180.8340  177.3520  140.0740 C   0  0  0  0  0  2  0  0  0  0  0  0
  183.1760  178.2430  139.3610 C   0  0  0  0  0  0  0  0  0  0  0  0
  182.9420  178.0040  141.9260 C   0  0  0  0  0  2  0  0  0  0  0  0
  187.2710  178.6990  139.9940 N   0  0  0  0  0  2  0  0  0  0  0  0
  188.1850  177.4620  141.8100 N   0  0  0  0  0  1  0  0  0  0  0  0
  184.0070  178.3930  138.2830 N   0  0  0  0  0  0  0  0  0  0  0  0
  185.9670  178.4760  142.0120 C   0  0  1  0  0  3  0  0  0  0  0  0
  180.2660  178.6270  144.1240 C   0  0  0  0  0  2  0  0  0  0  0  0
  185.6330  179.6970  142.8510 C   0  0  0  0  0  1  0  0  0  0  0  0
  178.9320  179.2750  143.7270 C   0  0  0  0  0  2  0  0  0  0  0  0
  185.1160  178.4450  140.7850 C   0  0  0  0  0  0  0  0  0  0  0  0
  181.6990  178.1330  139.0690 C   0  0  2  0  0  3  0  0  0  0  0  0
  187.3960  178.6270  141.4490 C   0  0  2  0  0  3  0  0  0  0  0  0
  185.9010  178.5790  139.6800 C   0  0  0  0  0  0  0  0  0  0  0  0
  180.4950  178.0960  141.3710 C   0  0  2  0  0  3  0  0  0  0  0  0
  183.7310  178.2630  140.6760 C   0  0  0  0  0  0  0  0  0  0  0  0
  181.4720  179.2900  143.4530 C   0  0  0  0  0  2  0  0  0  0  0  0
  185.3530  178.5520  138.4070 C   0  0  0  0  0  3  0  0  0  0  0  0
  179.2070  178.9130  141.2070 C   0  0  0  0  0  2  0  0  0  0  0  0
  178.9330  179.9100  142.3340 C   0  0  0  0  0  2  0  0  0  0  0  0
  181.6880  178.8570  141.9920 C   0  0  1  0  0  3  0  0  0  0  0  0
  180.3740  181.8550  137.2750 C   0  0  0  0  0  2  0  0  0  0  0  0
  181.0970  179.4050  138.4530 C   0  0  0  0  0  3  0  0  0  0  0  0
  181.1440  179.4270  136.9230 C   0  0  0  0  0  2  0  0  0  0  0  0
  180.3780  180.6280  136.3530 C   0  0  0  0  0  2  0  0  0  0  0  0
  181.6210  181.8970  138.1540 C   0  0  0  0  0  2  0  0  0  0  0  0
  181.6710  180.6820  139.0880 C   0  0  0  0  0  2  0  0  0  0  0  0
  2 16  1  0  0  0  0
  4 13  1  0  0  0  0
  6 18  1  0  0  0  0
  6  2  2  0  0  0  0
  7  9  1  1  0  0  0
 10  8  1  0  0  0  0
 11  7  1  0  0  0  0
 12 23  1  1  0  0  0
 12  2  1  0  0  0  0
 12  1  1  0  0  0  0
 13  5  1  6  0  0  0
 13  7  1  0  0  0  0
 14  4  1  0  0  0  0
 14 11  1  0  0  0  0
 15  1  1  6  0  0  0
 15 21  1  0  0  0  0
 16 11  2  0  0  0  0
 16  3  1  0  0  0  0
 17  8  1  0  0  0  0
 18 14  2  0  0  0  0
 19 15  1  0  0  0  0
 19 20  1  0  0  0  0
 20 10  1  0  0  0  0
 21  3  1  1  0  0  0
 21 17  1  0  0  0  0
 22 26  1  0  0  0  0
 23 27  1  0  0  0  0
 24 23  1  0  0  0  0
 25 24  1  0  0  0  0
 25 22  1  0  0  0  0
 26 27  1  0  0  0  0
M  END
>  <MODEL>
3

>  <REMARK>
 VINA RESULT:      -6.8      5.146      8.227
  Name = 
  1 active torsions:
  status: ('A' for Active; 'I' for Inactive)
    1  A    between atoms: C_9  and  C_15
                            x       y       z     vdW  Elec       q    Type
                         _______ _______ _______ _____ _____    ______ ____

>  <TORSDO>
F 1

$$$$
=
 OpenBabel11052413413D

 27 31  0  0  1  0  0  0  0  0999 V2000
  184.0430  179.8680  139.3730 C   0  0  0  0  0  2  0  0  0  0  0  0
  183.2440  179.0620  141.7180 C   0  0  0  0  0  0  0  0  0  0  0  0
  185.8210  179.1250  141.5130 C   0  0  0  0  0  2  0  0  0  0  0  0
  183.7960  178.6280  145.8270 N   0  0  0  0  0  2  0  0  0  0  0  0
  185.6810  179.7530  146.7470 N   0  0  0  0  0  1  0  0  0  0  0  0
  182.1480  178.9980  142.5370 N   0  0  0  0  0  0  0  0  0  0  0  0
  185.8390  178.6940  144.5460 C   0  0  1  0  0  3  0  0  0  0  0  0
  188.0040  178.3150  138.8750 C   0  0  0  0  0  2  0  0  0  0  0  0
  186.5990  177.4150  144.2400 C   0  0  0  0  0  1  0  0  0  0  0  0
  187.5800  177.6760  137.5460 C   0  0  0  0  0  2  0  0  0  0  0  0
  184.6280  178.7950  143.6790 C   0  0  0  0  0  0  0  0  0  0  0  0
  182.9770  179.1690  140.2360 C   0  0  2  0  0  3  0  0  0  0  0  0
  185.2510  178.6040  145.9690 C   0  0  2  0  0  3  0  0  0  0  0  0
  183.5070  178.7470  144.4510 C   0  0  0  0  0  0  0  0  0  0  0  0
  185.2910  179.0340  139.0610 C   0  0  2  0  0  3  0  0  0  0  0  0
  184.5470  178.9620  142.2900 C   0  0  0  0  0  0  0  0  0  0  0  0
  187.2760  177.7170  140.0820 C   0  0  0  0  0  2  0  0  0  0  0  0
  182.2450  178.8510  143.8870 C   0  0  0  0  0  3  0  0  0  0  0  0
  185.0870  178.2100  137.7830 C   0  0  0  0  0  2  0  0  0  0  0  0
  186.1470  177.1360  137.5380 C   0  0  0  0  0  2  0  0  0  0  0  0
  185.8450  178.2510  140.2730 C   0  0  1  0  0  3  0  0  0  0  0  0
  181.2780  175.7000  138.2600 C   0  0  0  0  0  2  0  0  0  0  0  0
  182.2840  177.9330  139.6440 C   0  0  0  0  0  3  0  0  0  0  0  0
  183.0560  176.6300  139.8690 C   0  0  0  0  0  2  0  0  0  0  0  0
  182.2430  175.4100  139.4180 C   0  0  0  0  0  2  0  0  0  0  0  0
  181.7890  176.8370  137.3800 C   0  0  0  0  0  2  0  0  0  0  0  0
  181.8810  178.1440  138.1760 C   0  0  0  0  0  2  0  0  0  0  0  0
  1 12  1  0  0  0  0
  2 16  2  0  0  0  0
  2  6  1  0  0  0  0
  3 16  1  0  0  0  0
  4 13  1  0  0  0  0
  6 18  2  0  0  0  0
  7  9  1  6  0  0  0
  7 13  1  0  0  0  0
  8 17  1  0  0  0  0
 10  8  1  0  0  0  0
 11 14  2  0  0  0  0
 11  7  1  0  0  0  0
 12 23  1  6  0  0  0
 12  2  1  0  0  0  0
 13  5  1  1  0  0  0
 14  4  1  0  0  0  0
 15 19  1  6  0  0  0
 15  1  1  0  0  0  0
 15 21  1  0  0  0  0
 16 11  1  0  0  0  0
 18 14  1  0  0  0  0
 20 10  1  0  0  0  0
 20 19  1  0  0  0  0
 21 17  1  6  0  0  0
 21  3  1  0  0  0  0
 22 25  1  0  0  0  0
 23 24  1  0  0  0  0
 25 24  1  0  0  0  0
 26 27  1  0  0  0  0
 26 22  1  0  0  0  0
 27 23  1  0  0  0  0
M  END
>  <MODEL>
4

>  <REMARK>
 VINA RESULT:      -6.8      3.535      4.993
  Name = 
  1 active torsions:
  status: ('A' for Active; 'I' for Inactive)
    1  A    between atoms: C_9  and  C_15
                            x       y       z     vdW  Elec       q    Type
                         _______ _______ _______ _____ _____    ______ ____

>  <TORSDO>
F 1

$$$$
=
 OpenBabel11052413413D

 27 31  0  0  1  0  0  0  0  0999 V2000
  188.8240  178.8650  138.1660 C   0  0  0  0  0  2  0  0  0  0  0  0
  190.9250  177.5190  138.9160 C   0  0  0  0  0  0  0  0  0  0  0  0
  190.0910  176.8330  136.5660 C   0  0  0  0  0  2  0  0  0  0  0  0
  194.4050  175.3870  138.0680 N   0  0  0  0  0  2  0  0  0  0  0  0
  195.1090  175.4090  135.7950 N   0  0  0  0  0  1  0  0  0  0  0  0
  191.9370  177.4970  139.8380 N   0  0  0  0  0  0  0  0  0  0  0  0
  192.7260  175.2870  136.3380 C   0  0  1  0  0  3  0  0  0  0  0  0
  186.8630  176.4510  135.2210 C   0  0  0  0  0  2  0  0  0  0  0  0
  191.8520  174.0550  136.1830 C   0  0  0  0  0  1  0  0  0  0  0  0
  185.5570  176.5420  136.0230 C   0  0  0  0  0  2  0  0  0  0  0  0
  192.2780  176.0930  137.5120 C   0  0  0  0  0  0  0  0  0  0  0  0
  189.6710  178.2660  139.3030 C   0  0  2  0  0  3  0  0  0  0  0  0
  194.1520  174.8490  136.7320 C   0  0  2  0  0  3  0  0  0  0  0  0
  193.2590  176.1110  138.4570 C   0  0  0  0  0  0  0  0  0  0  0  0
  187.9570  177.8650  137.3920 C   0  0  2  0  0  3  0  0  0  0  0  0
  191.0810  176.7980  137.6940 C   0  0  0  0  0  0  0  0  0  0  0  0
  187.9680  175.7000  135.9680 C   0  0  0  0  0  2  0  0  0  0  0  0
  193.1010  176.8190  139.6380 C   0  0  0  0  0  3  0  0  0  0  0  0
  186.5840  177.7070  138.0590 C   0  0  0  0  0  2  0  0  0  0  0  0
  185.7520  176.5330  137.5420 C   0  0  0  0  0  2  0  0  0  0  0  0
  188.6790  176.5440  137.0410 C   0  0  1  0  0  3  0  0  0  0  0  0
  187.8650  176.6310  142.8930 C   0  0  0  0  0  2  0  0  0  0  0  0
  188.9250  177.6430  140.4910 C   0  0  0  0  0  3  0  0  0  0  0  0
  188.1780  178.6650  141.3520 C   0  0  0  0  0  2  0  0  0  0  0  0
  187.3110  177.9790  142.4160 C   0  0  0  0  0  2  0  0  0  0  0  0
  189.3860  176.5810  142.7790 C   0  0  0  0  0  2  0  0  0  0  0  0
  189.8290  176.7120  141.3170 C   0  0  0  0  0  2  0  0  0  0  0  0
  1 12  1  0  0  0  0
  2 12  1  0  0  0  0
  2  6  1  0  0  0  0
  3 21  1  0  0  0  0
  3 16  1  0  0  0  0
  4 14  1  0  0  0  0
  7  9  1  1  0  0  0
  7 13  1  0  0  0  0
  7 11  1  0  0  0  0
  8 17  1  0  0  0  0
  8 10  1  0  0  0  0
 10 20  1  0  0  0  0
 11 16  1  0  0  0  0
 11 14  2  0  0  0  0
 12 23  1  6  0  0  0
 13  5  1  6  0  0  0
 13  4  1  0  0  0  0
 14 18  1  0  0  0  0
 15 19  1  1  0  0  0
 15  1  1  0  0  0  0
 16  2  2  0  0  0  0
 18  6  2  0  0  0  0
 20 19  1  0  0  0  0
 21 17  1  6  0  0  0
 21 15  1  0  0  0  0
 23 27  1  0  0  0  0
 23 24  1  0  0  0  0
 24 25  1  0  0  0  0
 25 22  1  0  0  0  0
 26 22  1  0  0  0  0
 27 26  1  0  0  0  0
M  END
>  <MODEL>
5

>  <REMARK>
 VINA RESULT:      -6.4      2.976      6.042
  Name = 
  1 active torsions:
  status: ('A' for Active; 'I' for Inactive)
    1  A    between atoms: C_9  and  C_15
                            x       y       z     vdW  Elec       q    Type
                         _______ _______ _______ _____ _____    ______ ____

>  <TORSDO>
F 1

$$$$
=
 OpenBabel11052413413D

 27 31  0  0  1  0  0  0  0  0999 V2000
  190.3400  179.1640  143.6190 C   0  0  0  0  0  2  0  0  0  0  0  0
  191.3070  177.8540  141.5850 C   0  0  0  0  0  0  0  0  0  0  0  0
  188.7660  178.2860  141.3720 C   0  0  0  0  0  2  0  0  0  0  0  0
  191.2420  176.7640  137.5620 N   0  0  0  0  0  2  0  0  0  0  0  0
  189.6930  177.9400  136.1920 N   0  0  0  0  0  1  0  0  0  0  0  0
  192.4790  177.5020  140.9690 N   0  0  0  0  0  0  0  0  0  0  0  0
  189.0830  177.3230  138.4810 C   0  0  1  0  0  3  0  0  0  0  0  0
  186.1560  178.2530  143.7300 C   0  0  0  0  0  2  0  0  0  0  0  0
  188.1010  176.2300  138.8630 C   0  0  0  0  0  1  0  0  0  0  0  0
  186.2960  177.8130  145.1940 C   0  0  0  0  0  2  0  0  0  0  0  0
  190.1700  177.4200  139.5000 C   0  0  0  0  0  0  0  0  0  0  0  0
  191.3890  178.1900  143.0550 C   0  0  2  0  0  3  0  0  0  0  0  0
  189.8330  176.9030  137.2000 C   0  0  2  0  0  3  0  0  0  0  0  0
  191.3620  177.0900  138.9300 C   0  0  0  0  0  0  0  0  0  0  0  0
  188.9480  178.5690  143.8590 C   0  0  2  0  0  3  0  0  0  0  0  0
  190.0910  177.8230  140.8390 C   0  0  0  0  0  0  0  0  0  0  0  0
  186.9350  177.3580  142.7630 C   0  0  0  0  0  2  0  0  0  0  0  0
  192.5390  177.1290  139.6610 C   0  0  0  0  0  3  0  0  0  0  0  0
  188.8510  177.9680  145.2680 C   0  0  0  0  0  2  0  0  0  0  0  0
  187.6140  177.1020  145.5120 C   0  0  0  0  0  2  0  0  0  0  0  0
  188.4440  177.6590  142.7160 C   0  0  1  0  0  3  0  0  0  0  0  0
  192.1990  174.8780  145.7390 C   0  0  0  0  0  2  0  0  0  0  0  0
  191.7990  177.0010  143.9360 C   0  0  0  0  0  3  0  0  0  0  0  0
  191.1100  175.6870  143.5550 C   0  0  0  0  0  2  0  0  0  0  0  0
  191.6810  174.5020  144.3450 C   0  0  0  0  0  2  0  0  0  0  0  0
  191.4540  176.0830  146.3060 C   0  0  0  0  0  2  0  0  0  0  0  0
  191.6810  177.3240  145.4350 C   0  0  0  0  0  2  0  0  0  0  0  0
  2 12  1  0  0  0  0
  4 14  1  0  0  0  0
  6  2  1  0  0  0  0
  7  9  1  1  0  0  0
  7 11  1  0  0  0  0
  8 10  1  0  0  0  0
 10 20  1  0  0  0  0
 11 16  1  0  0  0  0
 12  1  1  0  0  0  0
 12 23  1  1  0  0  0
 13  5  1  6  0  0  0
 13  4  1  0  0  0  0
 13  7  1  0  0  0  0
 14 11  2  0  0  0  0
 14 18  1  0  0  0  0
 15  1  1  6  0  0  0
 15 19  1  0  0  0  0
 16  3  1  0  0  0  0
 16  2  2  0  0  0  0
 17  8  1  0  0  0  0
 18  6  2  0  0  0  0
 19 20  1  0  0  0  0
 21  3  1  6  0  0  0
 21 17  1  0  0  0  0
 21 15  1  0  0  0  0
 22 26  1  0  0  0  0
 23 27  1  0  0  0  0
 24 23  1  0  0  0  0
 24 25  1  0  0  0  0
 25 22  1  0  0  0  0
 27 26  1  0  0  0  0
M  END
>  <MODEL>
6

>  <REMARK>
 VINA RESULT:      -6.2      2.632      7.584
  Name = 
  1 active torsions:
  status: ('A' for Active; 'I' for Inactive)
    1  A    between atoms: C_9  and  C_15
                            x       y       z     vdW  Elec       q    Type
                         _______ _______ _______ _____ _____    ______ ____

>  <TORSDO>
F 1

$$$$
=
 OpenBabel11052413413D

 27 31  0  0  1  0  0  0  0  0999 V2000
  189.4310  178.5380  139.5210 C   0  0  0  0  0  2  0  0  0  0  0  0
  187.1550  178.0030  138.3710 C   0  0  0  0  0  0  0  0  0  0  0  0
  186.8850  178.6230  140.8670 C   0  0  0  0  0  2  0  0  0  0  0  0
  183.0240  178.4520  138.0350 N   0  0  0  0  0  2  0  0  0  0  0  0
  182.0460  180.1280  139.4110 N   0  0  0  0  0  1  0  0  0  0  0  0
  186.5610  177.8350  137.1480 N   0  0  0  0  0  0  0  0  0  0  0  0
  183.8840  178.7580  140.2680 C   0  0  1  0  0  3  0  0  0  0  0  0
  188.8200  177.8800  143.7100 C   0  0  0  0  0  2  0  0  0  0  0  0
  183.7480  177.6560  141.3040 C   0  0  0  0  0  1  0  0  0  0  0  0
  190.0270  176.9320  143.7320 C   0  0  0  0  0  2  0  0  0  0  0  0
  184.9620  178.4190  139.2920 C   0  0  0  0  0  0  0  0  0  0  0  0
  188.6470  177.7780  138.4370 C   0  0  2  0  0  3  0  0  0  0  0  0
  182.6120  178.7910  139.3960 C   0  0  2  0  0  3  0  0  0  0  0  0
  184.4210  178.2530  138.0530 C   0  0  0  0  0  0  0  0  0  0  0  0
  189.3090  177.9730  140.9420 C   0  0  2  0  0  3  0  0  0  0  0  0
  186.3420  178.3120  139.5020 C   0  0  0  0  0  0  0  0  0  0  0  0
  187.6670  177.3560  142.8500 C   0  0  0  0  0  2  0  0  0  0  0  0
  185.2190  177.9590  136.9580 C   0  0  0  0  0  3  0  0  0  0  0  0
  190.3850  176.9090  141.1960 C   0  0  0  0  0  2  0  0  0  0  0  0
  190.1810  176.0830  142.4670 C   0  0  0  0  0  2  0  0  0  0  0  0
  187.8710  177.5700  141.3390 C   0  0  1  0  0  3  0  0  0  0  0  0
  189.7710  173.7680  137.2190 C   0  0  0  0  0  2  0  0  0  0  0  0
  189.0640  176.3300  138.1430 C   0  0  0  0  0  3  0  0  0  0  0  0
  190.5050  176.1950  137.6450 C   0  0  0  0  0  2  0  0  0  0  0  0
  190.9280  174.7240  137.5340 C   0  0  0  0  0  2  0  0  0  0  0  0
  188.6690  174.4670  136.4260 C   0  0  0  0  0  2  0  0  0  0  0  0
  188.0490  175.6070  137.2420 C   0  0  0  0  0  2  0  0  0  0  0  0
  2 12  1  0  0  0  0
  2 16  1  0  0  0  0
  4 14  1  0  0  0  0
  4 13  1  0  0  0  0
  6  2  2  0  0  0  0
  7  9  1  1  0  0  0
  8 10  1  0  0  0  0
 11 16  2  0  0  0  0
 11  7  1  0  0  0  0
 12 23  1  1  0  0  0
 12  1  1  0  0  0  0
 13  5  1  6  0  0  0
 13  7  1  0  0  0  0
 14 11  1  0  0  0  0
 15  1  1  6  0  0  0
 15 19  1  0  0  0  0
 15 21  1  0  0  0  0
 16  3  1  0  0  0  0
 17  8  1  0  0  0  0
 18  6  1  0  0  0  0
 18 14  2  0  0  0  0
 19 20  1  0  0  0  0
 20 10  1  0  0  0  0
 21  3  1  1  0  0  0
 21 17  1  0  0  0  0
 22 25  1  0  0  0  0
 24 23  1  0  0  0  0
 25 24  1  0  0  0  0
 26 22  1  0  0  0  0
 26 27  1  0  0  0  0
 27 23  1  0  0  0  0
M  END
>  <MODEL>
7

>  <REMARK>
 VINA RESULT:      -6.0      2.578      5.293
  Name = 
  1 active torsions:
  status: ('A' for Active; 'I' for Inactive)
    1  A    between atoms: C_9  and  C_15
                            x       y       z     vdW  Elec       q    Type
                         _______ _______ _______ _____ _____    ______ ____

>  <TORSDO>
F 1

$$$$
=
 OpenBabel11052413413D

 27 31  0  0  1  0  0  0  0  0999 V2000
  185.7430  177.3420  135.5170 C   0  0  0  0  0  2  0  0  0  0  0  0
  183.7350  176.6530  137.0280 C   0  0  0  0  0  0  0  0  0  0  0  0
  185.3160  178.3420  138.1850 C   0  0  0  0  0  2  0  0  0  0  0  0
  181.0110  177.4380  140.0840 N   0  0  0  0  0  2  0  0  0  0  0  0
  181.0130  179.6610  140.9320 N   0  0  0  0  0  1  0  0  0  0  0  0
  182.5100  176.0400  137.0060 N   0  0  0  0  0  0  0  0  0  0  0  0
  183.1210  178.5860  140.3080 C   0  0  1  0  0  3  0  0  0  0  0  0
  188.8170  178.6890  138.1790 C   0  0  0  0  0  2  0  0  0  0  0  0
  184.1720  178.0830  141.2820 C   0  0  0  0  0  1  0  0  0  0  0  0
  189.7990  177.7010  137.5360 C   0  0  0  0  0  2  0  0  0  0  0  0
  183.0800  177.7130  139.0960 C   0  0  0  0  0  0  0  0  0  0  0  0
  184.6950  176.2890  135.9210 C   0  0  2  0  0  3  0  0  0  0  0  0
  181.7230  178.3940  140.9300 C   0  0  2  0  0  3  0  0  0  0  0  0
  181.8730  177.0880  139.0230 C   0  0  0  0  0  0  0  0  0  0  0  0
  186.9360  177.4840  136.4700 C   0  0  2  0  0  3  0  0  0  0  0  0
  184.0540  177.5320  138.1050 C   0  0  0  0  0  0  0  0  0  0  0  0
  187.6630  177.9930  138.9050 C   0  0  0  0  0  2  0  0  0  0  0  0
  181.5690  176.2400  137.9700 C   0  0  0  0  0  3  0  0  0  0  0  0
  188.0590  176.5130  136.0820 C   0  0  0  0  0  2  0  0  0  0  0  0
  189.1690  176.3680  137.1230 C   0  0  0  0  0  2  0  0  0  0  0  0
  186.5520  177.4880  137.9660 C   0  0  1  0  0  3  0  0  0  0  0  0
  185.6240  172.0610  136.2210 C   0  0  0  0  0  2  0  0  0  0  0  0
  185.1400  174.8200  135.9510 C   0  0  0  0  0  3  0  0  0  0  0  0
  184.3840  173.9290  134.9610 C   0  0  0  0  0  2  0  0  0  0  0  0
  184.9820  172.5170  134.9040 C   0  0  0  0  0  2  0  0  0  0  0  0
  184.9640  172.7290  137.4240 C   0  0  0  0  0  2  0  0  0  0  0  0
  185.1560  174.2490  137.3780 C   0  0  0  0  0  2  0  0  0  0  0  0
  1 12  1  0  0  0  0
  2 16  1  0  0  0  0
  4 13  1  0  0  0  0
  6  2  2  0  0  0  0
  6 18  1  0  0  0  0
  7 13  1  0  0  0  0
  7  9  1  1  0  0  0
  8 17  1  0  0  0  0
 10  8  1  0  0  0  0
 11  7  1  0  0  0  0
 12 23  1  1  0  0  0
 12  2  1  0  0  0  0
 13  5  1  6  0  0  0
 14 11  1  0  0  0  0
 14  4  1  0  0  0  0
 15  1  1  6  0  0  0
 15 21  1  0  0  0  0
 16  3  1  0  0  0  0
 16 11  2  0  0  0  0
 18 14  2  0  0  0  0
 19 15  1  0  0  0  0
 19 20  1  0  0  0  0
 20 10  1  0  0  0  0
 21  3  1  6  0  0  0
 21 17  1  0  0  0  0
 22 26  1  0  0  0  0
 23 27  1  0  0  0  0
 24 23  1  0  0  0  0
 25 24  1  0  0  0  0
 25 22  1  0  0  0  0
 27 26  1  0  0  0  0
M  END
>  <MODEL>
8

>  <REMARK>
 VINA RESULT:      -5.9      3.535      5.350
  Name = 
  1 active torsions:
  status: ('A' for Active; 'I' for Inactive)
    1  A    between atoms: C_9  and  C_15
                            x       y       z     vdW  Elec       q    Type
                         _______ _______ _______ _____ _____    ______ ____

>  <TORSDO>
F 1

$$$$
=
 OpenBabel11052413413D

 27 31  0  0  1  0  0  0  0  0999 V2000
  183.0450  178.6310  138.3290 C   0  0  0  0  0  2  0  0  0  0  0  0
  185.5910  178.0970  138.4860 C   0  0  0  0  0  0  0  0  0  0  0  0
  184.3040  176.3880  137.0330 C   0  0  0  0  0  2  0  0  0  0  0  0
  189.0930  176.4590  136.9290 N   0  0  0  0  0  2  0  0  0  0  0  0
  188.9710  175.6910  134.6800 N   0  0  0  0  0  1  0  0  0  0  0  0
  186.7990  178.6270  138.8540 N   0  0  0  0  0  0  0  0  0  0  0  0
  187.0690  175.3760  136.1880 C   0  0  1  0  0  3  0  0  0  0  0  0
  181.1180  174.9310  137.3600 C   0  0  0  0  0  2  0  0  0  0  0  0
  186.6380  174.0520  136.7930 C   0  0  0  0  0  1  0  0  0  0  0  0
  180.1900  175.1030  138.5700 C   0  0  0  0  0  2  0  0  0  0  0  0
  186.7940  176.4920  137.1410 C   0  0  0  0  0  0  0  0  0  0  0  0
  184.3620  178.7010  139.1230 C   0  0  2  0  0  3  0  0  0  0  0  0
  188.6060  175.3940  136.0540 C   0  0  2  0  0  3  0  0  0  0  0  0
  187.9680  177.0630  137.5290 C   0  0  0  0  0  0  0  0  0  0  0  0
  182.3440  177.2680  138.3320 C   0  0  2  0  0  3  0  0  0  0  0  0
  185.5620  176.9860  137.5910 C   0  0  0  0  0  0  0  0  0  0  0  0
  182.5860  174.7530  137.7570 C   0  0  0  0  0  2  0  0  0  0  0  0
  187.9860  178.1450  138.3940 C   0  0  0  0  0  3  0  0  0  0  0  0
  181.3920  177.1500  139.5300 C   0  0  0  0  0  2  0  0  0  0  0  0
  180.8620  175.7400  139.7900 C   0  0  0  0  0  2  0  0  0  0  0  0
  183.2960  176.0690  138.1220 C   0  0  1  0  0  3  0  0  0  0  0  0
  184.2510  178.4800  143.4550 C   0  0  0  0  0  2  0  0  0  0  0  0
  184.2870  178.4860  140.6410 C   0  0  0  0  0  3  0  0  0  0  0  0
  182.9990  179.0200  141.2740 C   0  0  0  0  0  2  0  0  0  0  0  0
  182.8940  178.6270  142.7540 C   0  0  0  0  0  2  0  0  0  0  0  0
  185.3080  179.3770  142.8180 C   0  0  0  0  0  2  0  0  0  0  0  0
  185.5550  178.9800  141.3580 C   0  0  0  0  0  2  0  0  0  0  0  0
  1 12  1  0  0  0  0
  2  6  1  0  0  0  0
  2 12  1  0  0  0  0
  3 16  1  0  0  0  0
  4 14  1  0  0  0  0
  7  9  1  1  0  0  0
  7 11  1  0  0  0  0
  8 17  1  0  0  0  0
  8 10  1  0  0  0  0
 10 20  1  0  0  0  0
 11 14  2  0  0  0  0
 11 16  1  0  0  0  0
 12 23  1  1  0  0  0
 13  5  1  6  0  0  0
 13  7  1  0  0  0  0
 13  4  1  0  0  0  0
 14 18  1  0  0  0  0
 15  1  1  1  0  0  0
 15 19  1  0  0  0  0
 16  2  2  0  0  0  0
 17 21  1  0  0  0  0
 18  6  2  0  0  0  0
 19 20  1  0  0  0  0
 21  3  1  6  0  0  0
 21 15  1  0  0  0  0
 23 24  1  0  0  0  0
 23 27  1  0  0  0  0
 24 25  1  0  0  0  0
 25 22  1  0  0  0  0
 26 22  1  0  0  0  0
 27 26  1  0  0  0  0
M  END
>  <MODEL>
9

>  <REMARK>
 VINA RESULT:      -5.8      3.495      7.396
  Name = 
  1 active torsions:
  status: ('A' for Active; 'I' for Inactive)
    1  A    between atoms: C_9  and  C_15
                            x       y       z     vdW  Elec       q    Type
                         _______ _______ _______ _____ _____    ______ ____

>  <TORSDO>
F 1

$$$$
