=
 OpenBabel11052415433D

 34 38  0  0  1  0  0  0  0  0999 V2000
  183.0610  179.0020  141.8750 C   0  0  2  0  0  3  0  0  0  0  0  0
  183.3350  177.0400  138.4170 C   0  0  0  0  0  3  0  0  0  0  0  0
  181.6410  177.2420  140.0490 C   0  0  0  0  0  3  0  0  0  0  0  0
  180.8210  179.5490  142.9890 C   0  0  0  0  0  2  0  0  0  0  0  0
  178.9660  178.0750  142.5100 O   0  0  0  0  0  0  0  0  0  0  0  0
  179.3130  179.4190  142.7570 C   0  0  0  0  0  2  0  0  0  0  0  0
  181.0200  177.6710  141.3430 C   0  0  1  0  0  3  0  0  0  0  0  0
  181.5380  179.0490  141.7380 C   0  0  2  0  0  3  0  0  0  0  0  0
  179.4970  177.7280  141.2510 C   0  0  0  0  0  2  0  0  0  0  0  0
  184.4730  177.2170  137.7550 C   0  0  0  0  0  3  0  0  0  0  0  0
  185.6580  178.0270  138.0890 C   0  0  0  0  0  0  0  0  0  0  0  0
  185.7890  178.7750  139.1840 C   0  0  0  0  0  3  0  0  0  0  0  0
  182.8880  177.5910  139.6990 C   0  0  0  0  0  0  0  0  0  0  0  0
  184.8790  179.0000  140.3080 C   0  0  0  0  0  3  0  0  0  0  0  0
  183.6660  178.5250  140.5720 C   0  0  0  0  0  0  0  0  0  0  0  0
  186.7990  178.0240  137.1430 C   0  0  0  0  0  0  0  0  0  0  0  0
  187.4280  179.2170  136.8010 O   0  0  0  0  0  1  0  0  0  0  0  0
  187.2490  176.8970  136.6010 C   0  0  0  0  0  2  0  0  0  0  0  0
  183.4540  178.1020  142.9660 N   0  0  0  0  0  2  0  0  0  0  0  0
  184.2840  178.7950  143.9580 C   0  0  2  0  0  3  0  0  0  0  0  0
  184.4660  180.1400  143.6210 O   0  0  0  0  0  1  0  0  0  0  0  0
  187.6700  177.0710  143.2850 C   0  0  0  0  0  2  0  0  0  0  0  0
  186.1200  177.9320  145.5620 C   0  0  0  0  0  3  0  0  0  0  0  0
  190.1210  176.9570  146.0870 C   0  0  0  0  0  0  0  0  0  0  0  0
  189.6160  176.9760  144.8480 C   0  0  0  0  0  3  0  0  0  0  0  0
  188.2270  177.2560  144.6250 N   0  0  0  0  0  0  0  0  0  0  0  0
  187.9410  177.4760  147.1050 C   0  0  0  0  0  3  0  0  0  0  0  0
  187.3760  177.5360  145.7530 C   0  0  0  0  0  0  0  0  0  0  0  0
  189.2410  177.2040  147.2570 C   0  0  0  0  0  3  0  0  0  0  0  0
  185.5890  178.0920  144.1930 C   0  0  0  0  0  0  0  0  0  0  0  0
  186.3320  177.7440  143.1360 C   0  0  0  0  0  3  0  0  0  0  0  0
  191.5780  176.6780  146.2700 C   0  0  0  0  0  3  0  0  0  0  0  0
  192.0800  175.7070  145.2180 C   0  0  0  0  0  1  0  0  0  0  0  0
  191.8540  176.1310  147.6580 C   0  0  0  0  0  1  0  0  0  0  0  0
  1 19  1  1  0  0  0
  2 13  1  0  0  0  0
  5  6  1  0  0  0  0
  6  4  1  0  0  0  0
  7  3  1  6  0  0  0
  7  8  1  0  0  0  0
  8  1  1  0  0  0  0
  8  4  1  1  0  0  0
  9  7  1  0  0  0  0
  9  5  1  0  0  0  0
 10 11  1  0  0  0  0
 10  2  2  0  0  0  0
 11 12  2  0  0  0  0
 12 14  1  0  0  0  0
 13  3  2  0  0  0  0
 13 15  1  0  0  0  0
 14 15  2  0  0  0  0
 15  1  1  0  0  0  0
 16 11  1  0  0  0  0
 17 16  1  0  0  0  0
 18 16  2  0  0  0  0
 19 20  1  0  0  0  0
 20 21  1  6  0  0  0
 20 30  1  0  0  0  0
 22 26  1  0  0  0  0
 23 28  2  0  0  0  0
 24 32  1  0  0  0  0
 24 29  1  0  0  0  0
 25 24  2  0  0  0  0
 26 25  1  0  0  0  0
 26 28  1  0  0  0  0
 27 29  2  0  0  0  0
 28 27  1  0  0  0  0
 30 23  1  0  0  0  0
 31 22  1  0  0  0  0
 31 30  2  0  0  0  0
 32 34  1  0  0  0  0
 33 32  1  0  0  0  0
M  END
>  <MODEL>
1

>  <REMARK>
 VINA RESULT:      -9.5      0.000      0.000
  Name = 
  5 active torsions:
  status: ('A' for Active; 'I' for Inactive)
    1  A    between atoms: C_1  and  N_9
    2  A    between atoms: C_3  and  C_25
    3  A    between atoms: C_7  and  C_11
    4  A    between atoms: C_8  and  N_9
    5  A    between atoms: C_8  and  C_30
                            x       y       z     vdW  Elec       q    Type
                         _______ _______ _______ _____ _____    ______ ____

>  <TORSDO>
F 5

$$$$
=
 OpenBabel11052415433D

 34 38  0  0  1  0  0  0  0  0999 V2000
  189.0520  177.0420  141.3720 C   0  0  2  0  0  3  0  0  0  0  0  0
  192.9430  177.4480  140.6160 C   0  0  0  0  0  3  0  0  0  0  0  0
  191.5890  177.9150  142.4910 C   0  0  0  0  0  3  0  0  0  0  0  0
  188.0970  176.9820  143.7460 C   0  0  0  0  0  2  0  0  0  0  0  0
  189.3480  178.1330  145.4650 O   0  0  0  0  0  0  0  0  0  0  0  0
  188.5440  177.0040  145.2110 C   0  0  0  0  0  2  0  0  0  0  0  0
  190.3180  178.0400  143.2750 C   0  0  1  0  0  3  0  0  0  0  0  0
  189.3450  176.9390  142.8700 C   0  0  2  0  0  3  0  0  0  0  0  0
  190.5650  177.9460  144.7780 C   0  0  0  0  0  2  0  0  0  0  0  0
  193.3340  177.0230  139.4190 C   0  0  0  0  0  3  0  0  0  0  0  0
  192.5620  176.4200  138.3180 C   0  0  0  0  0  0  0  0  0  0  0  0
  191.2530  176.1760  138.3480 C   0  0  0  0  0  3  0  0  0  0  0  0
  191.6130  177.4580  141.2300 C   0  0  0  0  0  0  0  0  0  0  0  0
  190.2530  176.4190  139.3900 C   0  0  0  0  0  3  0  0  0  0  0  0
  190.3520  176.9560  140.6010 C   0  0  0  0  0  0  0  0  0  0  0  0
  193.2820  176.0460  137.0790 C   0  0  0  0  0  0  0  0  0  0  0  0
  194.3320  176.8330  136.6150 O   0  0  0  0  0  1  0  0  0  0  0  0
  192.9510  174.9640  136.3830 C   0  0  0  0  0  2  0  0  0  0  0  0
  188.3720  178.3060  141.0640 N   0  0  0  0  0  2  0  0  0  0  0  0
  187.4620  178.1590  139.9220 C   0  0  2  0  0  3  0  0  0  0  0  0
  187.9540  178.8160  138.7890 O   0  0  0  0  0  1  0  0  0  0  0  0
  183.7280  179.0520  139.5280 C   0  0  0  0  0  2  0  0  0  0  0  0
  185.6460  178.7550  141.6640 C   0  0  0  0  0  3  0  0  0  0  0  0
  181.6000  178.8990  142.5810 C   0  0  0  0  0  0  0  0  0  0  0  0
  181.9730  178.8750  141.2960 C   0  0  0  0  0  3  0  0  0  0  0  0
  183.3600  178.8770  140.9340 N   0  0  0  0  0  0  0  0  0  0  0  0
  183.9290  178.9540  143.3730 C   0  0  0  0  0  3  0  0  0  0  0  0
  184.3590  178.8910  141.9720 C   0  0  0  0  0  0  0  0  0  0  0  0
  182.6230  178.9550  143.6550 C   0  0  0  0  0  3  0  0  0  0  0  0
  186.0630  178.5860  140.2570 C   0  0  0  0  0  0  0  0  0  0  0  0
  185.1610  178.6690  139.2730 C   0  0  0  0  0  3  0  0  0  0  0  0
  180.1420  178.8770  142.9120 C   0  0  0  0  0  3  0  0  0  0  0  0
  179.5440  180.2680  142.8160 C   0  0  0  0  0  1  0  0  0  0  0  0
  179.9110  178.3050  144.2980 C   0  0  0  0  0  1  0  0  0  0  0  0
  1 19  1  1  0  0  0
  1  8  1  0  0  0  0
  2 13  1  0  0  0  0
  4  6  1  0  0  0  0
  6  5  1  0  0  0  0
  7  3  1  6  0  0  0
  7  9  1  0  0  0  0
  8  7  1  0  0  0  0
  8  4  1  1  0  0  0
  9  5  1  0  0  0  0
 10  2  2  0  0  0  0
 11 12  2  0  0  0  0
 11 10  1  0  0  0  0
 12 14  1  0  0  0  0
 13  3  2  0  0  0  0
 14 15  2  0  0  0  0
 15 13  1  0  0  0  0
 15  1  1  0  0  0  0
 16 11  1  0  0  0  0
 17 16  1  0  0  0  0
 18 16  2  0  0  0  0
 20 21  1  6  0  0  0
 20 30  1  0  0  0  0
 20 19  1  0  0  0  0
 22 26  1  0  0  0  0
 23 28  2  0  0  0  0
 24 32  1  0  0  0  0
 24 29  1  0  0  0  0
 25 24  2  0  0  0  0
 26 25  1  0  0  0  0
 26 28  1  0  0  0  0
 27 29  2  0  0  0  0
 28 27  1  0  0  0  0
 30 23  1  0  0  0  0
 31 22  1  0  0  0  0
 31 30  2  0  0  0  0
 32 34  1  0  0  0  0
 33 32  1  0  0  0  0
M  END
>  <MODEL>
2

>  <REMARK>
 VINA RESULT:      -9.3      3.389      8.152
  Name = 
  5 active torsions:
  status: ('A' for Active; 'I' for Inactive)
    1  A    between atoms: C_1  and  N_9
    2  A    between atoms: C_3  and  C_25
    3  A    between atoms: C_7  and  C_11
    4  A    between atoms: C_8  and  N_9
    5  A    between atoms: C_8  and  C_30
                            x       y       z     vdW  Elec       q    Type
                         _______ _______ _______ _____ _____    ______ ____

>  <TORSDO>
F 5

$$$$
=
 OpenBabel11052415433D

 34 38  0  0  1  0  0  0  0  0999 V2000
  191.1660  176.6770  138.3110 C   0  0  2  0  0  3  0  0  0  0  0  0
  191.4600  173.2520  136.2950 C   0  0  0  0  0  3  0  0  0  0  0  0
  189.6640  174.6960  136.8060 C   0  0  0  0  0  3  0  0  0  0  0  0
  189.1990  178.2910  138.0290 C   0  0  0  0  0  2  0  0  0  0  0  0
  187.0880  177.3410  137.3340 O   0  0  0  0  0  0  0  0  0  0  0  0
  187.9160  178.4750  137.2120 C   0  0  0  0  0  2  0  0  0  0  0  0
  188.9750  175.8670  137.4370 C   0  0  1  0  0  3  0  0  0  0  0  0
  189.9250  177.0570  137.5010 C   0  0  2  0  0  3  0  0  0  0  0  0
  187.7270  176.2790  136.6610 C   0  0  0  0  0  2  0  0  0  0  0  0
  192.6890  172.7580  136.1960 C   0  0  0  0  0  3  0  0  0  0  0  0
  193.9710  173.2710  136.7110 C   0  0  0  0  0  0  0  0  0  0  0  0
  194.1210  174.4000  137.4020 C   0  0  0  0  0  3  0  0  0  0  0  0
  190.9780  174.4700  136.9510 C   0  0  0  0  0  0  0  0  0  0  0  0
  193.1400  175.3960  137.8370 C   0  0  0  0  0  3  0  0  0  0  0  0
  191.8220  175.4670  137.6810 C   0  0  0  0  0  0  0  0  0  0  0  0
  195.1990  172.4840  136.4460 C   0  0  0  0  0  0  0  0  0  0  0  0
  195.7260  172.4240  135.1600 O   0  0  0  0  0  1  0  0  0  0  0  0
  195.8230  171.8230  137.4140 C   0  0  0  0  0  2  0  0  0  0  0  0
  190.8060  176.3820  139.7030 N   0  0  0  0  0  2  0  0  0  0  0  0
  191.3760  177.3710  140.6240 C   0  0  2  0  0  3  0  0  0  0  0  0
  192.7740  177.3380  140.6060 O   0  0  0  0  0  1  0  0  0  0  0  0
  191.1440  177.4200  144.4760 C   0  0  0  0  0  2  0  0  0  0  0  0
  189.3930  176.9540  142.2300 C   0  0  0  0  0  3  0  0  0  0  0  0
  187.7430  177.6030  145.9840 C   0  0  0  0  0  0  0  0  0  0  0  0
  189.0670  177.7310  145.8270 C   0  0  0  0  0  3  0  0  0  0  0  0
  189.6840  177.4650  144.5600 N   0  0  0  0  0  0  0  0  0  0  0  0
  187.4190  176.9030  143.6480 C   0  0  0  0  0  3  0  0  0  0  0  0
  188.8620  177.0720  143.4450 C   0  0  0  0  0  0  0  0  0  0  0  0
  186.8950  177.1580  144.8500 C   0  0  0  0  0  3  0  0  0  0  0  0
  190.8280  177.2290  142.0140 C   0  0  0  0  0  0  0  0  0  0  0  0
  191.6260  177.5000  143.0520 C   0  0  0  0  0  3  0  0  0  0  0  0
  187.1410  177.9080  147.3180 C   0  0  0  0  0  3  0  0  0  0  0  0
  186.0810  178.9860  147.2000 C   0  0  0  0  0  1  0  0  0  0  0  0
  188.2090  178.3330  148.3090 C   0  0  0  0  0  1  0  0  0  0  0  0
  1 19  1  1  0  0  0
  2 13  1  0  0  0  0
  3 13  2  0  0  0  0
  3  7  1  0  0  0  0
  6  5  1  0  0  0  0
  6  4  1  0  0  0  0
  7  9  1  6  0  0  0
  7  8  1  0  0  0  0
  8  4  1  1  0  0  0
  8  1  1  0  0  0  0
  9  5  1  0  0  0  0
 10  2  2  0  0  0  0
 10 11  1  0  0  0  0
 11 12  2  0  0  0  0
 12 14  1  0  0  0  0
 13 15  1  0  0  0  0
 15 14  2  0  0  0  0
 15  1  1  0  0  0  0
 16 11  1  0  0  0  0
 16 18  2  0  0  0  0
 17 16  1  0  0  0  0
 19 20  1  0  0  0  0
 20 21  1  1  0  0  0
 20 30  1  0  0  0  0
 22 26  1  0  0  0  0
 23 28  2  0  0  0  0
 24 32  1  0  0  0  0
 25 24  2  0  0  0  0
 26 25  1  0  0  0  0
 27 29  2  0  0  0  0
 28 27  1  0  0  0  0
 28 26  1  0  0  0  0
 29 24  1  0  0  0  0
 30 23  1  0  0  0  0
 30 31  2  0  0  0  0
 31 22  1  0  0  0  0
 32 34  1  0  0  0  0
 33 32  1  0  0  0  0
M  END
>  <MODEL>
3

>  <REMARK>
 VINA RESULT:      -9.2      4.711      7.872
  Name = 
  5 active torsions:
  status: ('A' for Active; 'I' for Inactive)
    1  A    between atoms: C_1  and  N_9
    2  A    between atoms: C_3  and  C_25
    3  A    between atoms: C_7  and  C_11
    4  A    between atoms: C_8  and  N_9
    5  A    between atoms: C_8  and  C_30
                            x       y       z     vdW  Elec       q    Type
                         _______ _______ _______ _____ _____    ______ ____

>  <TORSDO>
F 5

$$$$
=
 OpenBabel11052415433D

 34 38  0  0  1  0  0  0  0  0999 V2000
  189.0540  177.1430  137.2040 C   0  0  2  0  0  3  0  0  0  0  0  0
  190.9680  173.7650  136.3060 C   0  0  0  0  0  3  0  0  0  0  0  0
  188.8280  174.6150  135.7870 C   0  0  0  0  0  2  0  0  0  0  0  0
  187.0450  177.9990  135.8680 C   0  0  0  0  0  2  0  0  0  0  0  0
  185.7030  176.3490  134.7220 O   0  0  0  0  0  0  0  0  0  0  0  0
  186.2050  177.6620  134.6320 C   0  0  0  0  0  2  0  0  0  0  0  0
  187.6800  175.5760  135.8340 C   0  0  1  0  0  3  0  0  0  0  0  0
  188.2000  177.0050  135.9430 C   0  0  2  0  0  3  0  0  0  0  0  0
  186.7970  175.4700  134.5940 C   0  0  0  0  0  2  0  0  0  0  0  0
  192.2100  173.6780  136.7690 C   0  0  0  0  0  2  0  0  0  0  0  0
  193.0040  174.6320  137.5640 C   0  0  0  0  0  0  0  0  0  0  0  0
  192.5790  175.8280  137.9710 C   0  0  0  0  0  3  0  0  0  0  0  0
  189.9800  174.8390  136.4370 C   0  0  0  0  0  0  0  0  0  0  0  0
  191.2960  176.5070  137.7800 C   0  0  0  0  0  3  0  0  0  0  0  0
  190.1830  176.1350  137.1560 C   0  0  0  0  0  0  0  0  0  0  0  0
  194.3830  174.2500  137.9460 C   0  0  0  0  0  0  0  0  0  0  0  0
  195.1990  175.1540  138.6210 O   0  0  0  0  0  1  0  0  0  0  0  0
  194.8760  173.0500  137.6590 C   0  0  0  0  0  2  0  0  0  0  0  0
  188.2410  176.9250  138.4060 N   0  0  0  0  0  2  0  0  0  0  0  0
  188.2810  178.0890  139.2980 C   0  0  2  0  0  3  0  0  0  0  0  0
  189.0890  179.1050  138.7750 O   0  0  0  0  0  1  0  0  0  0  0  0
  190.4660  177.2340  142.3620 C   0  0  0  0  0  2  0  0  0  0  0  0
  187.6740  177.6710  141.7760 C   0  0  0  0  0  3  0  0  0  0  0  0
  188.9390  177.6750  145.7300 C   0  0  0  0  0  0  0  0  0  0  0  0
  189.8540  177.5880  144.7570 C   0  0  0  0  0  3  0  0  0  0  0  0
  189.4570  177.5300  143.3800 N   0  0  0  0  0  0  0  0  0  0  0  0
  187.0700  177.6450  144.1310 C   0  0  0  0  0  3  0  0  0  0  0  0
  188.0580  177.5840  143.0480 C   0  0  0  0  0  0  0  0  0  0  0  0
  187.4920  177.6900  145.3970 C   0  0  0  0  0  3  0  0  0  0  0  0
  188.6800  177.7160  140.6960 C   0  0  0  0  0  0  0  0  0  0  0  0
  189.9790  177.5680  140.9770 C   0  0  0  0  0  3  0  0  0  0  0  0
  189.3990  177.7510  147.1510 C   0  0  0  0  0  3  0  0  0  0  0  0
  190.4780  176.7210  147.4260 C   0  0  0  0  0  1  0  0  0  0  0  0
  188.2370  177.5560  148.1070 C   0  0  0  0  0  1  0  0  0  0  0  0
  1 19  1  1  0  0  0
  2 13  2  0  0  0  0
  2 10  1  0  0  0  0
  3  7  1  0  0  0  0
  3 13  1  0  0  0  0
  6  5  1  0  0  0  0
  6  4  1  0  0  0  0
  7  9  1  6  0  0  0
  7  8  1  0  0  0  0
  8  4  1  1  0  0  0
  8  1  1  0  0  0  0
  9  5  1  0  0  0  0
 10 11  1  0  0  0  0
 11 16  1  0  0  0  0
 11 12  2  0  0  0  0
 13 15  1  0  0  0  0
 14 12  1  0  0  0  0
 15  1  1  0  0  0  0
 15 14  2  0  0  0  0
 16 17  1  0  0  0  0
 18 16  2  0  0  0  0
 19 20  1  0  0  0  0
 20 21  1  6  0  0  0
 20 30  1  0  0  0  0
 22 26  1  0  0  0  0
 23 28  2  0  0  0  0
 24 32  1  0  0  0  0
 25 24  2  0  0  0  0
 26 25  1  0  0  0  0
 27 29  2  0  0  0  0
 28 26  1  0  0  0  0
 28 27  1  0  0  0  0
 29 24  1  0  0  0  0
 30 31  2  0  0  0  0
 30 23  1  0  0  0  0
 31 22  1  0  0  0  0
 32 33  1  0  0  0  0
 32 34  1  0  0  0  0
M  END
>  <MODEL>
4

>  <REMARK>
 VINA RESULT:      -9.2      4.406      6.970
  Name = 
  5 active torsions:
  status: ('A' for Active; 'I' for Inactive)
    1  A    between atoms: C_1  and  N_9
    2  A    between atoms: C_3  and  C_25
    3  A    between atoms: C_7  and  C_11
    4  A    between atoms: C_8  and  N_9
    5  A    between atoms: C_8  and  C_30
                            x       y       z     vdW  Elec       q    Type
                         _______ _______ _______ _____ _____    ______ ____

>  <TORSDO>
F 5

$$$$
=
 OpenBabel11052415433D

 34 38  0  0  1  0  0  0  0  0999 V2000
  188.6220  178.1000  143.5080 C   0  0  2  0  0  3  0  0  0  0  0  0
  191.6140  175.6280  144.4110 C   0  0  0  0  0  3  0  0  0  0  0  0
  190.4060  176.0720  142.4330 C   0  0  0  0  0  2  0  0  0  0  0  0
  188.0770  178.8030  141.1070 C   0  0  0  0  0  2  0  0  0  0  0  0
  188.6880  177.2660  139.3450 O   0  0  0  0  0  0  0  0  0  0  0  0
  188.5840  178.6330  139.6720 C   0  0  0  0  0  2  0  0  0  0  0  0
  189.3440  176.6940  141.5780 C   0  0  1  0  0  3  0  0  0  0  0  0
  189.0670  178.1180  142.0450 C   0  0  2  0  0  3  0  0  0  0  0  0
  189.7470  176.7300  140.1060 C   0  0  0  0  0  2  0  0  0  0  0  0
  192.0530  175.7050  145.6630 C   0  0  0  0  0  2  0  0  0  0  0  0
  191.6150  176.5620  146.7790 C   0  0  0  0  0  0  0  0  0  0  0  0
  190.6440  177.4700  146.7100 C   0  0  0  0  0  3  0  0  0  0  0  0
  190.5470  176.3690  143.7340 C   0  0  0  0  0  0  0  0  0  0  0  0
  189.7730  177.8630  145.6010 C   0  0  0  0  0  3  0  0  0  0  0  0
  189.6890  177.4300  144.3470 C   0  0  0  0  0  0  0  0  0  0  0  0
  192.3010  176.4170  148.0850 C   0  0  0  0  0  0  0  0  0  0  0  0
  192.4310  177.5130  148.9330 O   0  0  0  0  0  1  0  0  0  0  0  0
  192.8060  175.2530  148.4790 C   0  0  0  0  0  2  0  0  0  0  0  0
  187.3500  177.3810  143.6520 N   0  0  0  0  0  2  0  0  0  0  0  0
  186.4430  178.0780  144.5710 C   0  0  2  0  0  3  0  0  0  0  0  0
  186.4480  177.4880  145.8390 O   0  0  0  0  0  1  0  0  0  0  0  0
  182.6630  178.8130  144.3220 C   0  0  0  0  0  2  0  0  0  0  0  0
  184.8080  178.0030  142.5690 C   0  0  0  0  0  3  0  0  0  0  0  0
  181.2430  179.3460  140.9200 C   0  0  0  0  0  0  0  0  0  0  0  0
  181.4080  179.4110  142.2470 C   0  0  0  0  0  3  0  0  0  0  0  0
  182.6020  178.9100  142.8630 N   0  0  0  0  0  0  0  0  0  0  0  0
  183.4230  178.2540  140.5880 C   0  0  0  0  0  3  0  0  0  0  0  0
  183.6380  178.3470  142.0360 C   0  0  0  0  0  0  0  0  0  0  0  0
  182.2890  178.7300  140.0650 C   0  0  0  0  0  3  0  0  0  0  0  0
  185.0550  178.1980  144.0120 C   0  0  0  0  0  0  0  0  0  0  0  0
  184.0730  178.6270  144.8130 C   0  0  0  0  0  3  0  0  0  0  0  0
  179.9900  179.8970  140.3190 C   0  0  0  0  0  3  0  0  0  0  0  0
  180.2910  180.6650  139.0460 C   0  0  0  0  0  1  0  0  0  0  0  0
  179.2650  180.7920  141.3070 C   0  0  0  0  0  1  0  0  0  0  0  0
  1 19  1  6  0  0  0
  1 15  1  0  0  0  0
  2 10  1  0  0  0  0
  3 13  1  0  0  0  0
  5  6  1  0  0  0  0
  5  9  1  0  0  0  0
  6  4  1  0  0  0  0
  7  9  1  6  0  0  0
  7  8  1  0  0  0  0
  7  3  1  0  0  0  0
  8  4  1  6  0  0  0
  8  1  1  0  0  0  0
 10 11  1  0  0  0  0
 11 16  1  0  0  0  0
 12 11  2  0  0  0  0
 13 15  1  0  0  0  0
 13  2  2  0  0  0  0
 14 12  1  0  0  0  0
 15 14  2  0  0  0  0
 16 18  2  0  0  0  0
 16 17  1  0  0  0  0
 19 20  1  0  0  0  0
 20 21  1  1  0  0  0
 22 31  1  0  0  0  0
 23 30  1  0  0  0  0
 24 25  2  0  0  0  0
 25 26  1  0  0  0  0
 26 22  1  0  0  0  0
 27 28  1  0  0  0  0
 28 23  2  0  0  0  0
 28 26  1  0  0  0  0
 29 27  2  0  0  0  0
 29 24  1  0  0  0  0
 30 20  1  0  0  0  0
 30 31  2  0  0  0  0
 32 24  1  0  0  0  0
 32 34  1  0  0  0  0
 33 32  1  0  0  0  0
M  END
>  <MODEL>
5

>  <REMARK>
 VINA RESULT:      -8.9      2.549      9.125
  Name = 
  5 active torsions:
  status: ('A' for Active; 'I' for Inactive)
    1  A    between atoms: C_1  and  N_9
    2  A    between atoms: C_3  and  C_25
    3  A    between atoms: C_7  and  C_11
    4  A    between atoms: C_8  and  N_9
    5  A    between atoms: C_8  and  C_30
                            x       y       z     vdW  Elec       q    Type
                         _______ _______ _______ _____ _____    ______ ____

>  <TORSDO>
F 5

$$$$
=
 OpenBabel11052415433D

 34 38  0  0  1  0  0  0  0  0999 V2000
  182.8150  177.6820  138.9380 C   0  0  2  0  0  3  0  0  0  0  0  0
  185.6840  175.7080  137.0000 C   0  0  0  0  0  3  0  0  0  0  0  0
  183.4380  175.2150  137.5330 C   0  0  0  0  0  3  0  0  0  0  0  0
  180.3290  177.1270  138.6800 C   0  0  0  0  0  2  0  0  0  0  0  0
  179.7660  174.8550  138.0780 O   0  0  0  0  0  0  0  0  0  0  0  0
  179.3900  176.2020  137.9010 C   0  0  0  0  0  2  0  0  0  0  0  0
  182.0920  175.4270  138.1570 C   0  0  1  0  0  3  0  0  0  0  0  0
  181.7470  176.9110  138.1600 C   0  0  2  0  0  3  0  0  0  0  0  0
  180.9950  174.6710  137.4120 C   0  0  0  0  0  2  0  0  0  0  0  0
  186.8340  176.3620  136.8740 C   0  0  0  0  0  3  0  0  0  0  0  0
  187.2260  177.7060  137.3330 C   0  0  0  0  0  0  0  0  0  0  0  0
  186.4330  178.5510  137.9900 C   0  0  0  0  0  3  0  0  0  0  0  0
  184.4300  176.1120  137.6410 C   0  0  0  0  0  0  0  0  0  0  0  0
  185.0430  178.4170  138.4320 C   0  0  0  0  0  3  0  0  0  0  0  0
  184.1710  177.4210  138.3180 C   0  0  0  0  0  0  0  0  0  0  0  0
  188.6040  178.1700  137.0480 C   0  0  0  0  0  0  0  0  0  0  0  0
  188.9570  179.4960  137.2790 O   0  0  0  0  0  1  0  0  0  0  0  0
  189.5290  177.3460  136.5680 C   0  0  0  0  0  2  0  0  0  0  0  0
  182.8240  177.2740  140.3480 N   0  0  0  0  0  2  0  0  0  0  0  0
  182.4600  178.3890  141.2290 C   0  0  2  0  0  3  0  0  0  0  0  0
  182.2880  179.5750  140.5080 O   0  0  0  0  0  1  0  0  0  0  0  0
  183.8650  179.0400  144.7640 C   0  0  0  0  0  2  0  0  0  0  0  0
  184.8540  178.1940  142.1880 C   0  0  0  0  0  3  0  0  0  0  0  0
  187.2390  177.6690  145.5440 C   0  0  0  0  0  0  0  0  0  0  0  0
  185.9880  178.1180  145.7020 C   0  0  0  0  0  3  0  0  0  0  0  0
  185.1480  178.3630  144.5660 N   0  0  0  0  0  0  0  0  0  0  0  0
  187.0420  177.6470  143.0920 C   0  0  0  0  0  3  0  0  0  0  0  0
  185.6570  178.1060  143.2440 C   0  0  0  0  0  0  0  0  0  0  0  0
  187.7850  177.4400  144.1830 C   0  0  0  0  0  3  0  0  0  0  0  0
  183.4310  178.5540  142.3610 C   0  0  0  0  0  0  0  0  0  0  0  0
  182.9640  178.8920  143.5680 C   0  0  0  0  0  3  0  0  0  0  0  0
  188.0730  177.4100  146.7580 C   0  0  0  0  0  3  0  0  0  0  0  0
  187.6480  178.3030  147.9080 C   0  0  0  0  0  1  0  0  0  0  0  0
  189.5460  177.6160  146.4560 C   0  0  0  0  0  1  0  0  0  0  0  0
  1 19  1  1  0  0  0
  2 13  1  0  0  0  0
  3 13  2  0  0  0  0
  3  7  1  0  0  0  0
  6  5  1  0  0  0  0
  6  4  1  0  0  0  0
  7  9  1  6  0  0  0
  7  8  1  0  0  0  0
  8  4  1  1  0  0  0
  8  1  1  0  0  0  0
  9  5  1  0  0  0  0
 10  2  2  0  0  0  0
 10 11  1  0  0  0  0
 11 12  2  0  0  0  0
 12 14  1  0  0  0  0
 13 15  1  0  0  0  0
 15 14  2  0  0  0  0
 15  1  1  0  0  0  0
 16 17  1  0  0  0  0
 16 11  1  0  0  0  0
 18 16  2  0  0  0  0
 19 20  1  0  0  0  0
 20 21  1  6  0  0  0
 20 30  1  0  0  0  0
 23 30  1  0  0  0  0
 23 28  2  0  0  0  0
 24 25  2  0  0  0  0
 24 32  1  0  0  0  0
 26 22  1  0  0  0  0
 26 25  1  0  0  0  0
 27 28  1  0  0  0  0
 27 29  2  0  0  0  0
 28 26  1  0  0  0  0
 29 24  1  0  0  0  0
 30 31  2  0  0  0  0
 31 22  1  0  0  0  0
 32 33  1  0  0  0  0
 34 32  1  0  0  0  0
M  END
>  <MODEL>
6

>  <REMARK>
 VINA RESULT:      -8.9      1.947      3.608
  Name = 
  5 active torsions:
  status: ('A' for Active; 'I' for Inactive)
    1  A    between atoms: C_1  and  N_9
    2  A    between atoms: C_3  and  C_25
    3  A    between atoms: C_7  and  C_11
    4  A    between atoms: C_8  and  N_9
    5  A    between atoms: C_8  and  C_30
                            x       y       z     vdW  Elec       q    Type
                         _______ _______ _______ _____ _____    ______ ____

>  <TORSDO>
F 5

$$$$
=
 OpenBabel11052415433D

 34 38  0  0  1  0  0  0  0  0999 V2000
  184.5620  178.2620  141.8490 C   0  0  2  0  0  3  0  0  0  0  0  0
  185.4900  178.5860  145.7100 C   0  0  0  0  0  3  0  0  0  0  0  0
  183.5640  179.1010  144.4470 C   0  0  0  0  0  2  0  0  0  0  0  0
  182.1480  178.2500  140.9960 C   0  0  0  0  0  2  0  0  0  0  0  0
  180.5010  179.3990  142.3410 O   0  0  0  0  0  0  0  0  0  0  0  0
  180.7040  178.2810  141.5070 C   0  0  0  0  0  2  0  0  0  0  0  0
  182.7280  179.2600  143.2130 C   0  0  1  0  0  3  0  0  0  0  0  0
  183.0770  178.1720  142.2040 C   0  0  2  0  0  3  0  0  0  0  0  0
  181.2360  179.1810  143.5230 C   0  0  0  0  0  2  0  0  0  0  0  0
  186.6970  178.1380  146.0420 C   0  0  0  0  0  2  0  0  0  0  0  0
  187.7550  177.5360  145.2120 C   0  0  0  0  0  0  0  0  0  0  0  0
  187.6660  177.3170  143.9010 C   0  0  0  0  0  3  0  0  0  0  0  0
  184.8190  178.6280  144.4090 C   0  0  0  0  0  0  0  0  0  0  0  0
  186.5850  177.5910  142.9520 C   0  0  0  0  0  3  0  0  0  0  0  0
  185.3860  178.1420  143.1120 C   0  0  0  0  0  0  0  0  0  0  0  0
  189.0190  177.1330  145.8710 C   0  0  0  0  0  0  0  0  0  0  0  0
  189.0200  176.7530  147.2100 O   0  0  0  0  0  1  0  0  0  0  0  0
  190.1730  177.1230  145.2130 C   0  0  0  0  0  2  0  0  0  0  0  0
  184.8580  179.5340  141.1790 N   0  0  0  0  0  2  0  0  0  0  0  0
  184.9200  179.3690  139.7220 C   0  0  2  0  0  3  0  0  0  0  0  0
  183.6940  178.9380  139.2040 O   0  0  0  0  0  1  0  0  0  0  0  0
  187.1020  177.0000  137.5960 C   0  0  0  0  0  2  0  0  0  0  0  0
  187.2820  178.3930  140.1170 C   0  0  0  0  0  3  0  0  0  0  0  0
  190.7240  176.7920  138.4380 C   0  0  0  0  0  0  0  0  0  0  0  0
  189.5820  176.7500  137.7400 C   0  0  0  0  0  3  0  0  0  0  0  0
  188.3590  177.2440  138.3030 N   0  0  0  0  0  0  0  0  0  0  0  0
  189.6250  177.8100  140.3890 C   0  0  0  0  0  3  0  0  0  0  0  0
  188.3710  177.8060  139.6290 C   0  0  0  0  0  0  0  0  0  0  0  0
  190.7350  177.3320  139.8200 C   0  0  0  0  0  3  0  0  0  0  0  0
  186.0520  178.4790  139.3030 C   0  0  0  0  0  0  0  0  0  0  0  0
  185.9910  177.8780  138.1090 C   0  0  0  0  0  3  0  0  0  0  0  0
  191.9780  176.2820  137.8040 C   0  0  0  0  0  3  0  0  0  0  0  0
  191.9070  174.7820  137.5920 C   0  0  0  0  0  1  0  0  0  0  0  0
  193.1910  176.6330  138.6460 C   0  0  0  0  0  1  0  0  0  0  0  0
  1 19  1  1  0  0  0
  1  8  1  0  0  0  0
  1 15  1  0  0  0  0
  2 10  1  0  0  0  0
  4  6  1  0  0  0  0
  5  9  1  0  0  0  0
  6  5  1  0  0  0  0
  7  9  1  1  0  0  0
  7  3  1  0  0  0  0
  8  4  1  6  0  0  0
  8  7  1  0  0  0  0
 11 16  1  0  0  0  0
 11 10  1  0  0  0  0
 12 11  2  0  0  0  0
 13  3  1  0  0  0  0
 13  2  2  0  0  0  0
 14 15  2  0  0  0  0
 14 12  1  0  0  0  0
 15 13  1  0  0  0  0
 16 17  1  0  0  0  0
 18 16  2  0  0  0  0
 20 21  1  1  0  0  0
 20 19  1  0  0  0  0
 22 31  1  0  0  0  0
 22 26  1  0  0  0  0
 24 29  1  0  0  0  0
 25 26  1  0  0  0  0
 25 24  2  0  0  0  0
 26 28  1  0  0  0  0
 28 23  2  0  0  0  0
 28 27  1  0  0  0  0
 29 27  2  0  0  0  0
 30 20  1  0  0  0  0
 30 23  1  0  0  0  0
 31 30  2  0  0  0  0
 32 24  1  0  0  0  0
 32 34  1  0  0  0  0
 33 32  1  0  0  0  0
M  END
>  <MODEL>
7

>  <REMARK>
 VINA RESULT:      -8.6      2.925      6.148
  Name = 
  5 active torsions:
  status: ('A' for Active; 'I' for Inactive)
    1  A    between atoms: C_1  and  N_9
    2  A    between atoms: C_3  and  C_25
    3  A    between atoms: C_7  and  C_11
    4  A    between atoms: C_8  and  N_9
    5  A    between atoms: C_8  and  C_30
                            x       y       z     vdW  Elec       q    Type
                         _______ _______ _______ _____ _____    ______ ____

>  <TORSDO>
F 5

$$$$
=
 OpenBabel11052415433D

 34 38  0  0  1  0  0  0  0  0999 V2000
  184.5240  178.1510  142.0420 C   0  0  2  0  0  3  0  0  0  0  0  0
  185.2820  178.8000  145.9000 C   0  0  0  0  0  3  0  0  0  0  0  0
  183.4580  179.3020  144.4890 C   0  0  0  0  0  2  0  0  0  0  0  0
  182.1590  178.2000  141.0630 C   0  0  0  0  0  2  0  0  0  0  0  0
  180.5270  179.5740  142.1990 O   0  0  0  0  0  0  0  0  0  0  0  0
  180.6970  178.3690  141.4880 C   0  0  0  0  0  2  0  0  0  0  0  0
  182.6950  179.3890  143.2020 C   0  0  1  0  0  3  0  0  0  0  0  0
  183.0210  178.1870  142.3220 C   0  0  2  0  0  3  0  0  0  0  0  0
  181.1880  179.4300  143.4360 C   0  0  0  0  0  2  0  0  0  0  0  0
  186.4390  178.3150  146.3380 C   0  0  0  0  0  2  0  0  0  0  0  0
  187.4950  177.5710  145.6290 C   0  0  0  0  0  0  0  0  0  0  0  0
  187.4560  177.2290  144.3420 C   0  0  0  0  0  3  0  0  0  0  0  0
  184.6800  178.7530  144.5650 C   0  0  0  0  0  0  0  0  0  0  0  0
  186.4430  177.4730  143.3140 C   0  0  0  0  0  3  0  0  0  0  0  0
  185.2760  178.1080  143.3550 C   0  0  0  0  0  0  0  0  0  0  0  0
  188.6960  177.1600  146.3930 C   0  0  0  0  0  0  0  0  0  0  0  0
  188.5780  176.7530  147.7180 O   0  0  0  0  0  1  0  0  0  0  0  0
  189.9060  177.1680  145.8420 C   0  0  0  0  0  2  0  0  0  0  0  0
  184.9350  179.3310  141.2710 N   0  0  0  0  0  2  0  0  0  0  0  0
  185.2070  178.9860  139.8710 C   0  0  2  0  0  3  0  0  0  0  0  0
  184.3410  177.9870  139.4130 O   0  0  0  0  0  1  0  0  0  0  0  0
  188.9300  178.2440  140.5630 C   0  0  0  0  0  2  0  0  0  0  0  0
  187.1010  178.1290  138.3330 C   0  0  0  0  0  3  0  0  0  0  0  0
  190.7630  176.1930  138.0510 C   0  0  0  0  0  0  0  0  0  0  0  0
  190.4140  176.7550  139.2150 C   0  0  0  0  0  3  0  0  0  0  0  0
  189.1830  177.4780  139.3420 N   0  0  0  0  0  0  0  0  0  0  0  0
  188.7250  176.9910  136.9270 C   0  0  0  0  0  3  0  0  0  0  0  0
  188.3080  177.5830  138.2030 C   0  0  0  0  0  0  0  0  0  0  0  0
  189.8860  176.3330  136.8620 C   0  0  0  0  0  3  0  0  0  0  0  0
  186.6470  178.6280  139.6470 C   0  0  0  0  0  0  0  0  0  0  0  0
  187.4810  178.6280  140.6930 C   0  0  0  0  0  3  0  0  0  0  0  0
  192.0480  175.4340  137.9700 C   0  0  0  0  0  3  0  0  0  0  0  0
  193.1810  176.3320  137.5120 C   0  0  0  0  0  1  0  0  0  0  0  0
  191.9160  174.2450  137.0360 C   0  0  0  0  0  1  0  0  0  0  0  0
  1 19  1  1  0  0  0
  1  8  1  0  0  0  0
  1 15  1  0  0  0  0
  2 10  1  0  0  0  0
  3 13  1  0  0  0  0
  4  6  1  0  0  0  0
  5  9  1  0  0  0  0
  6  5  1  0  0  0  0
  7  9  1  1  0  0  0
  7  3  1  0  0  0  0
  8  4  1  6  0  0  0
  8  7  1  0  0  0  0
 11 10  1  0  0  0  0
 11 16  1  0  0  0  0
 12 11  2  0  0  0  0
 13  2  2  0  0  0  0
 14 15  2  0  0  0  0
 14 12  1  0  0  0  0
 15 13  1  0  0  0  0
 16 17  1  0  0  0  0
 18 16  2  0  0  0  0
 20 21  1  1  0  0  0
 20 19  1  0  0  0  0
 22 31  1  0  0  0  0
 23 30  1  0  0  0  0
 24 25  2  0  0  0  0
 25 26  1  0  0  0  0
 26 22  1  0  0  0  0
 27 28  1  0  0  0  0
 28 23  2  0  0  0  0
 28 26  1  0  0  0  0
 29 27  2  0  0  0  0
 29 24  1  0  0  0  0
 30 20  1  0  0  0  0
 30 31  2  0  0  0  0
 32 24  1  0  0  0  0
 33 32  1  0  0  0  0
 34 32  1  0  0  0  0
M  END
>  <MODEL>
8

>  <REMARK>
 VINA RESULT:      -8.6      2.843      6.535
  Name = 
  5 active torsions:
  status: ('A' for Active; 'I' for Inactive)
    1  A    between atoms: C_1  and  N_9
    2  A    between atoms: C_3  and  C_25
    3  A    between atoms: C_7  and  C_11
    4  A    between atoms: C_8  and  N_9
    5  A    between atoms: C_8  and  C_30
                            x       y       z     vdW  Elec       q    Type
                         _______ _______ _______ _____ _____    ______ ____

>  <TORSDO>
F 5

$$$$
=
 OpenBabel11052415433D

 34 38  0  0  1  0  0  0  0  0999 V2000
  185.4790  177.9410  142.2670 C   0  0  2  0  0  3  0  0  0  0  0  0
  185.1220  178.9410  146.1080 C   0  0  0  0  0  3  0  0  0  0  0  0
  183.7350  179.2080  144.2170 C   0  0  0  0  0  2  0  0  0  0  0  0
  183.4720  177.7550  140.6870 C   0  0  0  0  0  2  0  0  0  0  0  0
  181.5340  179.1020  141.2080 O   0  0  0  0  0  0  0  0  0  0  0  0
  181.9440  177.8580  140.6860 C   0  0  0  0  0  2  0  0  0  0  0  0
  183.3510  179.1410  142.7700 C   0  0  1  0  0  3  0  0  0  0  0  0
  183.9560  177.8980  142.1280 C   0  0  2  0  0  3  0  0  0  0  0  0
  181.8360  179.1000  142.5850 C   0  0  0  0  0  2  0  0  0  0  0  0
  186.1350  178.5710  146.8850 C   0  0  0  0  0  2  0  0  0  0  0  0
  187.3750  177.8450  146.5590 C   0  0  0  0  0  0  0  0  0  0  0  0
  187.7050  177.4010  145.3470 C   0  0  0  0  0  3  0  0  0  0  0  0
  184.9110  178.7490  144.6710 C   0  0  0  0  0  0  0  0  0  0  0  0
  187.0030  177.4950  144.0660 C   0  0  0  0  0  3  0  0  0  0  0  0
  185.8430  178.0510  143.7320 C   0  0  0  0  0  0  0  0  0  0  0  0
  188.3380  177.5760  147.6530 C   0  0  0  0  0  0  0  0  0  0  0  0
  187.9810  177.8200  148.9750 O   0  0  0  0  0  1  0  0  0  0  0  0
  189.5550  177.1030  147.4060 C   0  0  0  0  0  2  0  0  0  0  0  0
  186.0340  179.0810  141.5270 N   0  0  0  0  0  2  0  0  0  0  0  0
  187.4670  178.9030  141.2680 C   0  0  2  0  0  3  0  0  0  0  0  0
  188.1630  180.1090  141.4010 O   0  0  0  0  0  1  0  0  0  0  0  0
  189.1460  176.7930  138.5070 C   0  0  0  0  0  2  0  0  0  0  0  0
  186.6990  178.2770  138.8790 C   0  0  0  0  0  3  0  0  0  0  0  0
  186.9960  175.6270  135.6980 C   0  0  0  0  0  0  0  0  0  0  0  0
  187.9930  175.6840  136.5890 C   0  0  0  0  0  3  0  0  0  0  0  0
  187.9550  176.6210  137.6740 N   0  0  0  0  0  0  0  0  0  0  0  0
  185.7560  177.4440  136.8000 C   0  0  0  0  0  3  0  0  0  0  0  0
  186.8200  177.4980  137.8080 C   0  0  0  0  0  0  0  0  0  0  0  0
  185.8430  176.5560  135.8050 C   0  0  0  0  0  3  0  0  0  0  0  0
  187.7240  178.2480  139.9420 C   0  0  0  0  0  0  0  0  0  0  0  0
  188.8320  177.5150  139.7900 C   0  0  0  0  0  3  0  0  0  0  0  0
  187.0700  174.6220  134.5940 C   0  0  0  0  0  3  0  0  0  0  0  0
  185.9450  173.6100  134.7060 C   0  0  0  0  0  1  0  0  0  0  0  0
  188.4110  173.9120  134.5970 C   0  0  0  0  0  1  0  0  0  0  0  0
  1 19  1  6  0  0  0
  1 15  1  0  0  0  0
  2 10  1  0  0  0  0
  3 13  1  0  0  0  0
  5  9  1  0  0  0  0
  6  4  1  0  0  0  0
  6  5  1  0  0  0  0
  7  9  1  1  0  0  0
  7  3  1  0  0  0  0
  8  4  1  6  0  0  0
  8  1  1  0  0  0  0
  8  7  1  0  0  0  0
 11 10  1  0  0  0  0
 11 16  1  0  0  0  0
 12 11  2  0  0  0  0
 13  2  2  0  0  0  0
 14 12  1  0  0  0  0
 15 14  2  0  0  0  0
 15 13  1  0  0  0  0
 16 17  1  0  0  0  0
 18 16  2  0  0  0  0
 20 21  1  6  0  0  0
 20 19  1  0  0  0  0
 22 31  1  0  0  0  0
 23 30  1  0  0  0  0
 24 29  1  0  0  0  0
 24 25  2  0  0  0  0
 25 26  1  0  0  0  0
 26 28  1  0  0  0  0
 26 22  1  0  0  0  0
 27 28  1  0  0  0  0
 28 23  2  0  0  0  0
 29 27  2  0  0  0  0
 30 20  1  0  0  0  0
 31 30  2  0  0  0  0
 32 34  1  0  0  0  0
 32 33  1  0  0  0  0
 32 24  1  0  0  0  0
M  END
>  <MODEL>
9

>  <REMARK>
 VINA RESULT:      -8.3      2.591      7.739
  Name = 
  5 active torsions:
  status: ('A' for Active; 'I' for Inactive)
    1  A    between atoms: C_1  and  N_9
    2  A    between atoms: C_3  and  C_25
    3  A    between atoms: C_7  and  C_11
    4  A    between atoms: C_8  and  N_9
    5  A    between atoms: C_8  and  C_30
                            x       y       z     vdW  Elec       q    Type
                         _______ _______ _______ _____ _____    ______ ____

>  <TORSDO>
F 5

$$$$
