=
 OpenBabel11052412503D

 25 28  0  0  1  0  0  0  0  0999 V2000
  189.3800  177.6430  146.2270 C   0  0  0  0  0  0  0  0  0  0  0  0
  188.1150  177.7820  145.6450 C   0  0  0  0  0  0  0  0  0  0  0  0
  188.4110  177.8380  148.3830 C   0  0  0  0  0  3  0  0  0  0  0  0
  187.1750  177.9830  147.8360 N   0  0  0  0  0  0  0  0  0  0  0  0
  185.7430  178.1060  145.9050 C   0  0  0  0  0  0  0  0  0  0  0  0
  184.3080  178.3400  146.8880 Cl  0  0  0  0  0  0  0  0  0  0  0  0
  187.9430  177.7510  144.2960 N   0  0  0  0  0  0  0  0  0  0  0  0
  189.4970  177.6700  147.5840 N   0  0  0  0  0  0  0  0  0  0  0  0
  185.6220  178.0730  144.5510 N   0  0  0  0  0  0  0  0  0  0  0  0
  186.7060  177.8900  143.7510 C   0  0  0  0  0  0  0  0  0  0  0  0
  187.0060  177.9580  146.4880 C   0  0  0  0  0  0  0  0  0  0  0  0
  190.6010  177.4510  145.3760 C   0  0  1  0  0  3  0  0  0  0  0  0
  191.3310  176.7920  142.7130 C   0  0  0  0  0  1  0  0  0  0  0  0
  190.7860  178.6430  144.4320 C   0  0  2  0  0  3  0  0  0  0  0  0
  191.1600  178.2810  142.9880 C   0  0  1  0  0  3  0  0  0  0  0  0
  192.2260  178.7280  143.9670 C   0  0  0  0  0  2  0  0  0  0  0  0
  191.7280  177.3060  146.1900 O   0  0  0  0  0  0  0  0  0  0  0  0
  191.9730  175.9320  146.2220 C   0  0  0  0  0  1  0  0  0  0  0  0
  186.5440  177.8850  142.2720 C   0  0  0  0  0  2  0  0  0  0  0  0
  187.8180  178.4150  141.6120 C   0  0  0  0  0  2  0  0  0  0  0  0
  187.9430  178.0130  140.2070 N   0  0  0  0  0  0  0  0  0  0  0  0
  186.9160  178.5650  139.5120 O   0  0  0  0  0  1  0  0  0  0  0  0
  189.1870  178.5390  139.6580 C   0  0  0  0  0  3  0  0  0  0  0  0
  189.2520  178.2390  138.1720 C   0  0  0  0  0  2  0  0  0  0  0  0
  190.0400  177.3930  139.1470 C   0  0  0  0  0  2  0  0  0  0  0  0
  1  8  1  0  0  0  0
  2  1  2  0  0  0  0
  2 11  1  0  0  0  0
  4  3  1  0  0  0  0
  5 11  1  0  0  0  0
  5  6  1  0  0  0  0
  7  2  1  0  0  0  0
  8  3  2  0  0  0  0
  9  5  2  0  0  0  0
 10  7  2  0  0  0  0
 10  9  1  0  0  0  0
 11  4  2  0  0  0  0
 12 17  1  1  0  0  0
 12  1  1  0  0  0  0
 14 12  1  1  0  0  0
 15 13  1  1  0  0  0
 15 16  1  0  0  0  0
 15 14  1  0  0  0  0
 16 14  1  0  0  0  0
 17 18  1  0  0  0  0
 19 10  1  0  0  0  0
 20 19  1  0  0  0  0
 21 20  1  0  0  0  0
 22 21  1  0  0  0  0
 23 21  1  0  0  0  0
 24 25  1  0  0  0  0
 24 23  1  0  0  0  0
 25 23  1  0  0  0  0
M  END
>  <MODEL>
1

>  <REMARK>
 VINA RESULT:      -7.2      0.000      0.000
  Name = 
  7 active torsions:
  status: ('A' for Active; 'I' for Inactive)
    1  A    between atoms: C_1  and  C_5
    2  A    between atoms: C_2  and  N_21
    3  A    between atoms: C_5  and  C_10
    4  A    between atoms: C_5  and  O_17
    5  A    between atoms: C_6  and  C_15
    6  A    between atoms: C_6  and  C_23
    7  A    between atoms: C_15  and  N_21
                            x       y       z     vdW  Elec       q    Type
                         _______ _______ _______ _____ _____    ______ ____

>  <TORSDO>
F 7

$$$$
=
 OpenBabel11052412503D

 25 28  0  0  1  0  0  0  0  0999 V2000
  189.3540  177.5450  146.2680 C   0  0  0  0  0  0  0  0  0  0  0  0
  188.0910  177.7390  145.6950 C   0  0  0  0  0  0  0  0  0  0  0  0
  188.4010  177.7230  148.4320 C   0  0  0  0  0  3  0  0  0  0  0  0
  187.1680  177.9210  147.8950 N   0  0  0  0  0  0  0  0  0  0  0  0
  185.7320  178.1340  145.9740 C   0  0  0  0  0  0  0  0  0  0  0  0
  184.3100  178.3920  146.9700 Cl  0  0  0  0  0  0  0  0  0  0  0  0
  187.9130  177.7440  144.3470 N   0  0  0  0  0  0  0  0  0  0  0  0
  189.4770  177.5380  147.6240 N   0  0  0  0  0  0  0  0  0  0  0  0
  185.6040  178.1350  144.6200 N   0  0  0  0  0  0  0  0  0  0  0  0
  186.6780  177.9350  143.8110 C   0  0  0  0  0  0  0  0  0  0  0  0
  186.9920  177.9320  146.5480 C   0  0  0  0  0  0  0  0  0  0  0  0
  190.5640  177.3320  145.4060 C   0  0  1  0  0  3  0  0  0  0  0  0
  190.8740  176.5450  142.6970 C   0  0  0  0  0  1  0  0  0  0  0  0
  190.7120  178.4790  144.4020 C   0  0  2  0  0  3  0  0  0  0  0  0
  190.8580  178.0490  142.9350 C   0  0  1  0  0  3  0  0  0  0  0  0
  192.0780  178.4340  143.7470 C   0  0  0  0  0  2  0  0  0  0  0  0
  191.7070  177.2490  146.2070 O   0  0  0  0  0  0  0  0  0  0  0  0
  192.0170  175.8880  146.2470 C   0  0  0  0  0  1  0  0  0  0  0  0
  186.5110  177.9690  142.3340 C   0  0  0  0  0  2  0  0  0  0  0  0
  185.6570  179.1750  141.9380 C   0  0  0  0  0  2  0  0  0  0  0  0
  185.5140  179.3220  140.4860 N   0  0  0  0  0  0  0  0  0  0  0  0
  186.5590  178.6960  139.8890 O   0  0  0  0  0  1  0  0  0  0  0  0
  184.2900  178.6630  140.0470 C   0  0  0  0  0  3  0  0  0  0  0  0
  184.3640  178.3960  138.5560 C   0  0  0  0  0  2  0  0  0  0  0  0
  183.5510  179.5630  139.0730 C   0  0  0  0  0  2  0  0  0  0  0  0
  1  8  1  0  0  0  0
  2  1  2  0  0  0  0
  2 11  1  0  0  0  0
  4  3  1  0  0  0  0
  5 11  1  0  0  0  0
  5  6  1  0  0  0  0
  7  2  1  0  0  0  0
  8  3  2  0  0  0  0
  9  5  2  0  0  0  0
 10  7  2  0  0  0  0
 10  9  1  0  0  0  0
 11  4  2  0  0  0  0
 12 17  1  1  0  0  0
 12  1  1  0  0  0  0
 14 12  1  1  0  0  0
 15 13  1  1  0  0  0
 15 16  1  0  0  0  0
 15 14  1  0  0  0  0
 16 14  1  0  0  0  0
 17 18  1  0  0  0  0
 19 10  1  0  0  0  0
 20 19  1  0  0  0  0
 21 20  1  0  0  0  0
 22 21  1  0  0  0  0
 23 21  1  0  0  0  0
 24 25  1  0  0  0  0
 24 23  1  0  0  0  0
 25 23  1  0  0  0  0
M  END
>  <MODEL>
2

>  <REMARK>
 VINA RESULT:      -7.2      1.587      2.089
  Name = 
  7 active torsions:
  status: ('A' for Active; 'I' for Inactive)
    1  A    between atoms: C_1  and  C_5
    2  A    between atoms: C_2  and  N_21
    3  A    between atoms: C_5  and  C_10
    4  A    between atoms: C_5  and  O_17
    5  A    between atoms: C_6  and  C_15
    6  A    between atoms: C_6  and  C_23
    7  A    between atoms: C_15  and  N_21
                            x       y       z     vdW  Elec       q    Type
                         _______ _______ _______ _____ _____    ______ ____

>  <TORSDO>
F 7

$$$$
=
 OpenBabel11052412503D

 25 28  0  0  1  0  0  0  0  0999 V2000
  190.2650  177.6810  141.8360 C   0  0  0  0  0  0  0  0  0  0  0  0
  189.0640  177.9830  141.1830 C   0  0  0  0  0  0  0  0  0  0  0  0
  191.2180  177.0030  139.7730 C   0  0  0  0  0  3  0  0  0  0  0  0
  190.0580  177.2820  139.1220 N   0  0  0  0  0  0  0  0  0  0  0  0
  187.7800  178.0600  139.1470 C   0  0  0  0  0  0  0  0  0  0  0  0
  187.5940  177.8090  137.4200 Cl  0  0  0  0  0  0  0  0  0  0  0  0
  187.9890  178.4730  141.8560 N   0  0  0  0  0  0  0  0  0  0  0  0
  191.3160  177.2030  141.1140 N   0  0  0  0  0  0  0  0  0  0  0  0
  186.7310  178.5440  139.8640 N   0  0  0  0  0  0  0  0  0  0  0  0
  186.8310  178.7580  141.2030 C   0  0  0  0  0  0  0  0  0  0  0  0
  188.9830  177.7660  139.7970 C   0  0  0  0  0  0  0  0  0  0  0  0
  190.4100  177.8930  143.3150 C   0  0  1  0  0  3  0  0  0  0  0  0
  189.1950  177.8920  145.8800 C   0  0  0  0  0  1  0  0  0  0  0  0
  190.4250  176.5480  144.0470 C   0  0  2  0  0  3  0  0  0  0  0  0
  189.7470  176.5470  145.4250 C   0  0  1  0  0  3  0  0  0  0  0  0
  191.2560  176.6460  145.3110 C   0  0  0  0  0  2  0  0  0  0  0  0
  191.5890  178.5940  143.5790 O   0  0  0  0  0  0  0  0  0  0  0  0
  191.1710  179.8750  143.9470 C   0  0  0  0  0  1  0  0  0  0  0  0
  185.6580  179.2630  141.9640 C   0  0  0  0  0  2  0  0  0  0  0  0
  185.2450  178.2360  143.0200 C   0  0  0  0  0  2  0  0  0  0  0  0
  184.8490  178.8510  144.2910 N   0  0  0  0  0  0  0  0  0  0  0  0
  183.5270  178.6170  144.4840 O   0  0  0  0  0  1  0  0  0  0  0  0
  185.5780  178.2220  145.3860 C   0  0  0  0  0  3  0  0  0  0  0  0
  184.7450  178.2840  146.6520 C   0  0  0  0  0  2  0  0  0  0  0  0
  185.8860  179.2580  146.4510 C   0  0  0  0  0  2  0  0  0  0  0  0
  1 12  1  0  0  0  0
  2  1  1  0  0  0  0
  2  7  1  0  0  0  0
  3  8  1  0  0  0  0
  4  3  2  0  0  0  0
  4 11  1  0  0  0  0
  5 11  1  0  0  0  0
  5  9  2  0  0  0  0
  6  5  1  0  0  0  0
  8  1  2  0  0  0  0
  9 10  1  0  0  0  0
 10  7  2  0  0  0  0
 10 19  1  0  0  0  0
 11  2  2  0  0  0  0
 12 17  1  6  0  0  0
 14 12  1  6  0  0  0
 14 16  1  0  0  0  0
 14 15  1  0  0  0  0
 15 13  1  6  0  0  0
 16 15  1  0  0  0  0
 17 18  1  0  0  0  0
 19 20  1  0  0  0  0
 20 21  1  0  0  0  0
 21 22  1  0  0  0  0
 21 23  1  0  0  0  0
 23 25  1  0  0  0  0
 23 24  1  0  0  0  0
 25 24  1  0  0  0  0
M  END
>  <MODEL>
3

>  <REMARK>
 VINA RESULT:      -7.1      3.105      5.830
  Name = 
  7 active torsions:
  status: ('A' for Active; 'I' for Inactive)
    1  A    between atoms: C_1  and  C_5
    2  A    between atoms: C_2  and  N_21
    3  A    between atoms: C_5  and  C_10
    4  A    between atoms: C_5  and  O_17
    5  A    between atoms: C_6  and  C_15
    6  A    between atoms: C_6  and  C_23
    7  A    between atoms: C_15  and  N_21
                            x       y       z     vdW  Elec       q    Type
                         _______ _______ _______ _____ _____    ______ ____

>  <TORSDO>
F 7

$$$$
=
 OpenBabel11052412503D

 25 28  0  0  1  0  0  0  0  0999 V2000
  187.8730  177.5480  144.8620 C   0  0  0  0  0  0  0  0  0  0  0  0
  186.8000  177.9770  144.0710 C   0  0  0  0  0  0  0  0  0  0  0  0
  186.5170  177.7230  146.8000 C   0  0  0  0  0  3  0  0  0  0  0  0
  185.4660  178.1480  146.0500 N   0  0  0  0  0  0  0  0  0  0  0  0
  184.5140  178.7170  143.9130 C   0  0  0  0  0  0  0  0  0  0  0  0
  182.9630  179.1250  144.6260 Cl  0  0  0  0  0  0  0  0  0  0  0  0
  186.9130  178.1030  142.7220 N   0  0  0  0  0  0  0  0  0  0  0  0
  187.7040  177.4270  146.2080 N   0  0  0  0  0  0  0  0  0  0  0  0
  184.6770  178.8320  142.5680 N   0  0  0  0  0  0  0  0  0  0  0  0
  185.8600  178.5220  141.9730 C   0  0  0  0  0  0  0  0  0  0  0  0
  185.5830  178.2800  144.7030 C   0  0  0  0  0  0  0  0  0  0  0  0
  189.1960  177.2080  144.2410 C   0  0  1  0  0  3  0  0  0  0  0  0
  191.4040  178.9580  143.8940 C   0  0  0  0  0  1  0  0  0  0  0  0
  190.2820  177.1170  145.3180 C   0  0  2  0  0  3  0  0  0  0  0  0
  191.4640  178.0810  145.1370 C   0  0  1  0  0  3  0  0  0  0  0  0
  191.5840  176.6300  144.7130 C   0  0  0  0  0  2  0  0  0  0  0  0
  189.1000  175.9930  143.5570 O   0  0  0  0  0  0  0  0  0  0  0  0
  189.6020  176.2610  142.2810 C   0  0  0  0  0  1  0  0  0  0  0  0
  186.0150  178.6840  140.5030 C   0  0  0  0  0  2  0  0  0  0  0  0
  187.4600  178.3840  140.0990 C   0  0  0  0  0  2  0  0  0  0  0  0
  187.6190  178.1800  138.6560 N   0  0  0  0  0  0  0  0  0  0  0  0
  186.6630  178.8970  138.0150 O   0  0  0  0  0  1  0  0  0  0  0  0
  188.9180  178.6880  138.2320 C   0  0  0  0  0  3  0  0  0  0  0  0
  189.0110  178.6440  136.7190 C   0  0  0  0  0  2  0  0  0  0  0  0
  189.6980  177.5810  137.5470 C   0  0  0  0  0  2  0  0  0  0  0  0
  1  8  1  0  0  0  0
  2 11  1  0  0  0  0
  2  1  2  0  0  0  0
  4  3  1  0  0  0  0
  5  6  1  0  0  0  0
  5 11  1  0  0  0  0
  7  2  1  0  0  0  0
  8  3  2  0  0  0  0
  9  5  2  0  0  0  0
 10  9  1  0  0  0  0
 10  7  2  0  0  0  0
 11  4  2  0  0  0  0
 12 17  1  1  0  0  0
 12  1  1  0  0  0  0
 14 12  1  6  0  0  0
 15 13  1  6  0  0  0
 15 14  1  0  0  0  0
 16 15  1  0  0  0  0
 16 14  1  0  0  0  0
 18 17  1  0  0  0  0
 19 10  1  0  0  0  0
 20 19  1  0  0  0  0
 21 20  1  0  0  0  0
 22 21  1  0  0  0  0
 23 21  1  0  0  0  0
 24 25  1  0  0  0  0
 24 23  1  0  0  0  0
 25 23  1  0  0  0  0
M  END
>  <MODEL>
4

>  <REMARK>
 VINA RESULT:      -7.0      1.709      2.334
  Name = 
  7 active torsions:
  status: ('A' for Active; 'I' for Inactive)
    1  A    between atoms: C_1  and  C_5
    2  A    between atoms: C_2  and  N_21
    3  A    between atoms: C_5  and  C_10
    4  A    between atoms: C_5  and  O_17
    5  A    between atoms: C_6  and  C_15
    6  A    between atoms: C_6  and  C_23
    7  A    between atoms: C_15  and  N_21
                            x       y       z     vdW  Elec       q    Type
                         _______ _______ _______ _____ _____    ______ ____

>  <TORSDO>
F 7

$$$$
=
 OpenBabel11052412503D

 25 28  0  0  1  0  0  0  0  0999 V2000
  188.4650  177.7610  140.5490 C   0  0  0  0  0  0  0  0  0  0  0  0
  187.2180  178.2000  141.0090 C   0  0  0  0  0  0  0  0  0  0  0  0
  187.7530  178.0790  138.3100 C   0  0  0  0  0  3  0  0  0  0  0  0
  186.5330  178.5010  138.7370 N   0  0  0  0  0  0  0  0  0  0  0  0
  184.9990  178.9990  140.5240 C   0  0  0  0  0  0  0  0  0  0  0  0
  183.7290  179.4690  139.4070 Cl  0  0  0  0  0  0  0  0  0  0  0  0
  186.9330  178.2740  142.3370 N   0  0  0  0  0  0  0  0  0  0  0  0
  188.7040  177.7150  139.2090 N   0  0  0  0  0  0  0  0  0  0  0  0
  184.7590  179.0520  141.8610 N   0  0  0  0  0  0  0  0  0  0  0  0
  185.7150  178.7020  142.7630 C   0  0  0  0  0  0  0  0  0  0  0  0
  186.2480  178.5690  140.0630 C   0  0  0  0  0  0  0  0  0  0  0  0
  189.5410  177.3560  141.5140 C   0  0  1  0  0  3  0  0  0  0  0  0
  190.4060  177.7990  144.1810 C   0  0  0  0  0  1  0  0  0  0  0  0
  188.9830  176.3810  142.5560 C   0  0  2  0  0  3  0  0  0  0  0  0
  189.4370  176.6380  144.0000 C   0  0  1  0  0  3  0  0  0  0  0  0
  190.1040  175.5630  143.1660 C   0  0  0  0  0  2  0  0  0  0  0  0
  190.5980  176.7600  140.8220 O   0  0  0  0  0  0  0  0  0  0  0  0
  191.6480  177.6770  140.9130 C   0  0  0  0  0  1  0  0  0  0  0  0
  185.4140  178.7450  144.2180 C   0  0  0  0  0  2  0  0  0  0  0  0
  186.4630  177.9420  144.9880 C   0  0  0  0  0  2  0  0  0  0  0  0
  186.8400  178.5650  146.2600 N   0  0  0  0  0  0  0  0  0  0  0  0
  185.7300  179.1180  146.8100 O   0  0  0  0  0  1  0  0  0  0  0  0
  187.3300  177.5430  147.1780 C   0  0  0  0  0  3  0  0  0  0  0  0
  187.8110  178.1990  148.4580 C   0  0  0  0  0  2  0  0  0  0  0  0
  188.8140  177.7480  147.4190 C   0  0  0  0  0  2  0  0  0  0  0  0
  1  2  1  0  0  0  0
  1 12  1  0  0  0  0
  2  7  1  0  0  0  0
  3  4  2  0  0  0  0
  3  8  1  0  0  0  0
  4 11  1  0  0  0  0
  5  9  2  0  0  0  0
  6  5  1  0  0  0  0
  7 10  2  0  0  0  0
  8  1  2  0  0  0  0
  9 10  1  0  0  0  0
 10 19  1  0  0  0  0
 11  5  1  0  0  0  0
 11  2  2  0  0  0  0
 12 17  1  6  0  0  0
 14 12  1  6  0  0  0
 14 16  1  0  0  0  0
 14 15  1  0  0  0  0
 15 13  1  6  0  0  0
 16 15  1  0  0  0  0
 17 18  1  0  0  0  0
 19 20  1  0  0  0  0
 20 21  1  0  0  0  0
 21 22  1  0  0  0  0
 21 23  1  0  0  0  0
 23 25  1  0  0  0  0
 23 24  1  0  0  0  0
 25 24  1  0  0  0  0
M  END
>  <MODEL>
5

>  <REMARK>
 VINA RESULT:      -6.8      2.722      6.084
  Name = 
  7 active torsions:
  status: ('A' for Active; 'I' for Inactive)
    1  A    between atoms: C_1  and  C_5
    2  A    between atoms: C_2  and  N_21
    3  A    between atoms: C_5  and  C_10
    4  A    between atoms: C_5  and  O_17
    5  A    between atoms: C_6  and  C_15
    6  A    between atoms: C_6  and  C_23
    7  A    between atoms: C_15  and  N_21
                            x       y       z     vdW  Elec       q    Type
                         _______ _______ _______ _____ _____    ______ ____

>  <TORSDO>
F 7

$$$$
=
 OpenBabel11052412503D

 25 28  0  0  1  0  0  0  0  0999 V2000
  184.1020  178.6470  142.7290 C   0  0  0  0  0  0  0  0  0  0  0  0
  185.2470  178.2840  143.4500 C   0  0  0  0  0  0  0  0  0  0  0  0
  183.0590  179.3520  144.7400 C   0  0  0  0  0  3  0  0  0  0  0  0
  184.1580  178.9980  145.4570 N   0  0  0  0  0  0  0  0  0  0  0  0
  186.3890  178.0980  145.5620 C   0  0  0  0  0  0  0  0  0  0  0  0
  186.4670  178.2900  147.3050 Cl  0  0  0  0  0  0  0  0  0  0  0  0
  186.3410  177.7610  142.8350 N   0  0  0  0  0  0  0  0  0  0  0  0
  183.0370  179.1770  143.3920 N   0  0  0  0  0  0  0  0  0  0  0  0
  187.4570  177.5760  144.9030 N   0  0  0  0  0  0  0  0  0  0  0  0
  187.4420  177.4140  143.5530 C   0  0  0  0  0  0  0  0  0  0  0  0
  185.2480  178.4700  144.8420 C   0  0  0  0  0  0  0  0  0  0  0  0
  184.0450  178.4730  141.2400 C   0  0  1  0  0  3  0  0  0  0  0  0
  183.0530  176.3750  139.6050 C   0  0  0  0  0  1  0  0  0  0  0  0
  182.6100  178.6540  140.7370 C   0  0  2  0  0  3  0  0  0  0  0  0
  182.0700  177.5070  139.8710 C   0  0  1  0  0  3  0  0  0  0  0  0
  182.5920  178.7760  139.2260 C   0  0  0  0  0  2  0  0  0  0  0  0
  184.8880  179.3990  140.6220 O   0  0  0  0  0  0  0  0  0  0  0  0
  185.7810  178.6290  139.8740 C   0  0  0  0  0  1  0  0  0  0  0  0
  188.6150  176.8140  142.8640 C   0  0  0  0  0  2  0  0  0  0  0  0
  189.9050  177.4230  143.4170 C   0  0  0  0  0  2  0  0  0  0  0  0
  190.6220  176.5190  144.3220 N   0  0  0  0  0  0  0  0  0  0  0  0
  191.6680  175.9800  143.6470 O   0  0  0  0  0  1  0  0  0  0  0  0
  191.1590  177.2780  145.4450 C   0  0  0  0  0  3  0  0  0  0  0  0
  191.6750  176.3210  146.5030 C   0  0  0  0  0  2  0  0  0  0  0  0
  190.3340  176.9970  146.6880 C   0  0  0  0  0  2  0  0  0  0  0  0
  1  8  2  0  0  0  0
  1  2  1  0  0  0  0
  2 11  2  0  0  0  0
  3  4  2  0  0  0  0
  5  6  1  0  0  0  0
  7  2  1  0  0  0  0
  7 10  2  0  0  0  0
  8  3  1  0  0  0  0
  9  5  2  0  0  0  0
 10  9  1  0  0  0  0
 11  4  1  0  0  0  0
 11  5  1  0  0  0  0
 12 17  1  6  0  0  0
 12  1  1  0  0  0  0
 14 12  1  6  0  0  0
 15 13  1  6  0  0  0
 15 14  1  0  0  0  0
 16 15  1  0  0  0  0
 16 14  1  0  0  0  0
 18 17  1  0  0  0  0
 19 20  1  0  0  0  0
 19 10  1  0  0  0  0
 20 21  1  0  0  0  0
 21 23  1  0  0  0  0
 22 21  1  0  0  0  0
 23 24  1  0  0  0  0
 23 25  1  0  0  0  0
 24 25  1  0  0  0  0
M  END
>  <MODEL>
6

>  <REMARK>
 VINA RESULT:      -6.7      2.704      6.496
  Name = 
  7 active torsions:
  status: ('A' for Active; 'I' for Inactive)
    1  A    between atoms: C_1  and  C_5
    2  A    between atoms: C_2  and  N_21
    3  A    between atoms: C_5  and  C_10
    4  A    between atoms: C_5  and  O_17
    5  A    between atoms: C_6  and  C_15
    6  A    between atoms: C_6  and  C_23
    7  A    between atoms: C_15  and  N_21
                            x       y       z     vdW  Elec       q    Type
                         _______ _______ _______ _____ _____    ______ ____

>  <TORSDO>
F 7

$$$$
=
 OpenBabel11052412503D

 25 28  0  0  1  0  0  0  0  0999 V2000
  187.9550  177.5270  144.6330 C   0  0  0  0  0  0  0  0  0  0  0  0
  186.7860  177.9620  143.9960 C   0  0  0  0  0  0  0  0  0  0  0  0
  186.8410  177.5960  146.7260 C   0  0  0  0  0  3  0  0  0  0  0  0
  185.6990  178.0270  146.1260 N   0  0  0  0  0  0  0  0  0  0  0  0
  184.4860  178.6570  144.1450 C   0  0  0  0  0  0  0  0  0  0  0  0
  183.0260  179.0030  145.0560 Cl  0  0  0  0  0  0  0  0  0  0  0  0
  186.7330  178.1440  142.6490 N   0  0  0  0  0  0  0  0  0  0  0  0
  187.9520  177.3500  145.9830 N   0  0  0  0  0  0  0  0  0  0  0  0
  184.4830  178.8280  142.7960 N   0  0  0  0  0  0  0  0  0  0  0  0
  185.5890  178.5680  142.0500 C   0  0  0  0  0  0  0  0  0  0  0  0
  185.6500  178.2140  144.7820 C   0  0  0  0  0  0  0  0  0  0  0  0
  189.1990  177.2410  143.8440 C   0  0  1  0  0  3  0  0  0  0  0  0
  191.3140  179.1300  143.9760 C   0  0  0  0  0  1  0  0  0  0  0  0
  190.3520  176.8710  144.7820 C   0  0  2  0  0  3  0  0  0  0  0  0
  191.4830  177.9060  144.8670 C   0  0  1  0  0  3  0  0  0  0  0  0
  191.6310  176.6760  143.9940 C   0  0  0  0  0  2  0  0  0  0  0  0
  188.9610  176.1970  142.9460 O   0  0  0  0  0  0  0  0  0  0  0  0
  189.4220  176.6700  141.7160 C   0  0  0  0  0  1  0  0  0  0  0  0
  185.5630  178.7910  140.5800 C   0  0  0  0  0  2  0  0  0  0  0  0
  184.2180  178.3330  140.0120 C   0  0  0  0  0  2  0  0  0  0  0  0
  183.3910  179.4460  139.5360 N   0  0  0  0  0  0  0  0  0  0  0  0
  184.2120  180.4160  139.0610 O   0  0  0  0  0  1  0  0  0  0  0  0
  182.5510  178.9930  138.4330 C   0  0  0  0  0  3  0  0  0  0  0  0
  181.5460  180.0740  138.0840 C   0  0  0  0  0  2  0  0  0  0  0  0
  181.1130  178.8780  138.9050 C   0  0  0  0  0  2  0  0  0  0  0  0
  1  8  1  0  0  0  0
  2  1  2  0  0  0  0
  2 11  1  0  0  0  0
  4  3  1  0  0  0  0
  5 11  1  0  0  0  0
  5  6  1  0  0  0  0
  7  2  1  0  0  0  0
  8  3  2  0  0  0  0
  9  5  2  0  0  0  0
 10  7  2  0  0  0  0
 10  9  1  0  0  0  0
 11  4  2  0  0  0  0
 12 17  1  6  0  0  0
 12  1  1  0  0  0  0
 14 12  1  6  0  0  0
 14 15  1  0  0  0  0
 15 13  1  6  0  0  0
 16 14  1  0  0  0  0
 16 15  1  0  0  0  0
 18 17  1  0  0  0  0
 19 10  1  0  0  0  0
 20 19  1  0  0  0  0
 21 20  1  0  0  0  0
 22 21  1  0  0  0  0
 23 25  1  0  0  0  0
 23 21  1  0  0  0  0
 24 23  1  0  0  0  0
 24 25  1  0  0  0  0
M  END
>  <MODEL>
7

>  <REMARK>
 VINA RESULT:      -6.6      3.051      3.839
  Name = 
  7 active torsions:
  status: ('A' for Active; 'I' for Inactive)
    1  A    between atoms: C_1  and  C_5
    2  A    between atoms: C_2  and  N_21
    3  A    between atoms: C_5  and  C_10
    4  A    between atoms: C_5  and  O_17
    5  A    between atoms: C_6  and  C_15
    6  A    between atoms: C_6  and  C_23
    7  A    between atoms: C_15  and  N_21
                            x       y       z     vdW  Elec       q    Type
                         _______ _______ _______ _____ _____    ______ ____

>  <TORSDO>
F 7

$$$$
=
 OpenBabel11052412503D

 25 28  0  0  1  0  0  0  0  0999 V2000
  190.0720  177.7840  142.0330 C   0  0  0  0  0  0  0  0  0  0  0  0
  188.9460  178.0350  141.2400 C   0  0  0  0  0  0  0  0  0  0  0  0
  191.2990  177.1740  140.0980 C   0  0  0  0  0  3  0  0  0  0  0  0
  190.2140  177.4040  139.3120 N   0  0  0  0  0  0  0  0  0  0  0  0
  187.9150  178.0730  139.0650 C   0  0  0  0  0  0  0  0  0  0  0  0
  187.9520  177.8310  137.3260 Cl  0  0  0  0  0  0  0  0  0  0  0  0
  187.7750  178.4670  141.7810 N   0  0  0  0  0  0  0  0  0  0  0  0
  191.2240  177.3640  141.4410 N   0  0  0  0  0  0  0  0  0  0  0  0
  186.7650  178.5000  139.6510 N   0  0  0  0  0  0  0  0  0  0  0  0
  186.6920  178.7040  140.9930 C   0  0  0  0  0  0  0  0  0  0  0  0
  189.0440  177.8300  139.8540 C   0  0  0  0  0  0  0  0  0  0  0  0
  190.0260  177.9880  143.5190 C   0  0  1  0  0  3  0  0  0  0  0  0
  187.9730  178.2270  145.4650 C   0  0  0  0  0  1  0  0  0  0  0  0
  189.6350  176.6860  144.2240 C   0  0  2  0  0  3  0  0  0  0  0  0
  188.5100  176.8160  145.2600 C   0  0  1  0  0  3  0  0  0  0  0  0
  189.9590  176.7690  145.7030 C   0  0  0  0  0  2  0  0  0  0  0  0
  191.2740  178.4220  143.9760 O   0  0  0  0  0  0  0  0  0  0  0  0
  191.1610  179.8120  144.0590 C   0  0  0  0  0  1  0  0  0  0  0  0
  185.4120  179.1450  141.6090 C   0  0  0  0  0  2  0  0  0  0  0  0
  185.4540  178.9030  143.1190 C   0  0  0  0  0  2  0  0  0  0  0  0
  184.1820  178.4090  143.6530 N   0  0  0  0  0  0  0  0  0  0  0  0
  184.2760  178.3630  145.0060 O   0  0  0  0  0  1  0  0  0  0  0  0
  183.1140  179.3420  143.3120 C   0  0  0  0  0  3  0  0  0  0  0  0
  181.8240  178.9020  143.9770 C   0  0  0  0  0  2  0  0  0  0  0  0
  182.0480  178.6220  142.5070 C   0  0  0  0  0  2  0  0  0  0  0  0
  1 12  1  0  0  0  0
  2  7  1  0  0  0  0
  2  1  2  0  0  0  0
  3  8  2  0  0  0  0
  4 11  2  0  0  0  0
  4  3  1  0  0  0  0
  5  9  2  0  0  0  0
  5 11  1  0  0  0  0
  6  5  1  0  0  0  0
  8  1  1  0  0  0  0
  9 10  1  0  0  0  0
 10 19  1  0  0  0  0
 10  7  2  0  0  0  0
 11  2  1  0  0  0  0
 12 17  1  1  0  0  0
 14 12  1  6  0  0  0
 14 15  1  0  0  0  0
 14 16  1  0  0  0  0
 15 13  1  6  0  0  0
 15 16  1  0  0  0  0
 17 18  1  0  0  0  0
 19 20  1  0  0  0  0
 20 21  1  0  0  0  0
 21 22  1  0  0  0  0
 23 21  1  0  0  0  0
 23 24  1  0  0  0  0
 25 23  1  0  0  0  0
 25 24  1  0  0  0  0
M  END
>  <MODEL>
8

>  <REMARK>
 VINA RESULT:      -6.6      3.276      5.861
  Name = 
  7 active torsions:
  status: ('A' for Active; 'I' for Inactive)
    1  A    between atoms: C_1  and  C_5
    2  A    between atoms: C_2  and  N_21
    3  A    between atoms: C_5  and  C_10
    4  A    between atoms: C_5  and  O_17
    5  A    between atoms: C_6  and  C_15
    6  A    between atoms: C_6  and  C_23
    7  A    between atoms: C_15  and  N_21
                            x       y       z     vdW  Elec       q    Type
                         _______ _______ _______ _____ _____    ______ ____

>  <TORSDO>
F 7

$$$$
=
 OpenBabel11052412503D

 25 28  0  0  1  0  0  0  0  0999 V2000
  184.2090  178.5170  142.9580 C   0  0  0  0  0  0  0  0  0  0  0  0
  185.4310  178.1340  143.5250 C   0  0  0  0  0  0  0  0  0  0  0  0
  183.3920  179.0970  145.1070 C   0  0  0  0  0  3  0  0  0  0  0  0
  184.5680  178.7220  145.6780 N   0  0  0  0  0  0  0  0  0  0  0  0
  186.8050  177.8550  145.4830 C   0  0  0  0  0  0  0  0  0  0  0  0
  187.0770  177.9540  147.2140 Cl  0  0  0  0  0  0  0  0  0  0  0  0
  186.4550  177.6620  142.7640 N   0  0  0  0  0  0  0  0  0  0  0  0
  183.2200  178.9940  143.7630 N   0  0  0  0  0  0  0  0  0  0  0  0
  187.7970  177.3850  144.6810 N   0  0  0  0  0  0  0  0  0  0  0  0
  187.6320  177.2950  143.3340 C   0  0  0  0  0  0  0  0  0  0  0  0
  185.5870  178.2460  144.9160 C   0  0  0  0  0  0  0  0  0  0  0  0
  183.9870  178.4210  141.4770 C   0  0  1  0  0  3  0  0  0  0  0  0
  182.8120  176.4190  139.8430 C   0  0  0  0  0  1  0  0  0  0  0  0
  182.5060  178.6290  141.1460 C   0  0  2  0  0  3  0  0  0  0  0  0
  181.8690  177.5330  140.2800 C   0  0  1  0  0  3  0  0  0  0  0  0
  182.3230  178.8380  139.6560 C   0  0  0  0  0  2  0  0  0  0  0  0
  184.7620  179.3790  140.8180 O   0  0  0  0  0  0  0  0  0  0  0  0
  185.4510  178.6680  139.8340 C   0  0  0  0  0  1  0  0  0  0  0  0
  188.7270  176.7520  142.4870 C   0  0  0  0  0  2  0  0  0  0  0  0
  189.5140  177.9030  141.8580 C   0  0  0  0  0  2  0  0  0  0  0  0
  189.9890  177.5980  140.5050 N   0  0  0  0  0  0  0  0  0  0  0  0
  190.5550  176.3650  140.5190 O   0  0  0  0  0  1  0  0  0  0  0  0
  188.8560  177.5590  139.5880 C   0  0  0  0  0  3  0  0  0  0  0  0
  189.3310  177.1290  138.2130 C   0  0  0  0  0  2  0  0  0  0  0  0
  189.0540  178.5900  138.4920 C   0  0  0  0  0  2  0  0  0  0  0  0
  1  2  2  0  0  0  0
  1  8  1  0  0  0  0
  2 11  1  0  0  0  0
  3  4  1  0  0  0  0
  5  6  1  0  0  0  0
  7 10  2  0  0  0  0
  7  2  1  0  0  0  0
  8  3  2  0  0  0  0
  9  5  2  0  0  0  0
 10  9  1  0  0  0  0
 11  5  1  0  0  0  0
 11  4  2  0  0  0  0
 12 17  1  6  0  0  0
 12  1  1  0  0  0  0
 14 12  1  6  0  0  0
 15 13  1  6  0  0  0
 15 14  1  0  0  0  0
 16 15  1  0  0  0  0
 16 14  1  0  0  0  0
 18 17  1  0  0  0  0
 19 10  1  0  0  0  0
 20 19  1  0  0  0  0
 21 22  1  0  0  0  0
 21 20  1  0  0  0  0
 23 21  1  0  0  0  0
 24 25  1  0  0  0  0
 24 23  1  0  0  0  0
 25 23  1  0  0  0  0
M  END
>  <MODEL>
9

>  <REMARK>
 VINA RESULT:      -6.6      2.746      5.734
  Name = 
  7 active torsions:
  status: ('A' for Active; 'I' for Inactive)
    1  A    between atoms: C_1  and  C_5
    2  A    between atoms: C_2  and  N_21
    3  A    between atoms: C_5  and  C_10
    4  A    between atoms: C_5  and  O_17
    5  A    between atoms: C_6  and  C_15
    6  A    between atoms: C_6  and  C_23
    7  A    between atoms: C_15  and  N_21
                            x       y       z     vdW  Elec       q    Type
                         _______ _______ _______ _____ _____    ______ ____

>  <TORSDO>
F 7

$$$$
