=
 OpenBabel11052414383D

 32 36  0  0  1  0  0  0  0  0999 V2000
  182.7630  178.3360  139.9590 C   0  0  2  0  0  3  0  0  0  0  0  0
  184.7040  177.1580  139.1580 O   0  0  0  0  0  0  0  0  0  0  0  0
  181.8860  177.7010  141.0410 C   0  0  0  0  0  2  0  0  0  0  0  0
  183.3320  177.3130  138.9490 C   0  0  1  0  0  3  0  0  0  0  0  0
  184.7770  177.3350  136.0420 C   0  0  0  0  0  2  0  0  0  0  0  0
  189.0060  178.2510  139.1080 C   0  0  0  0  0  3  0  0  0  0  0  0
  185.2430  178.3560  138.6730 C   0  0  1  0  0  3  0  0  0  0  0  0
  188.4940  177.4720  136.8800 C   0  0  0  0  0  3  0  0  0  0  0  0
  187.1250  177.6570  137.1010 C   0  0  0  0  0  0  0  0  0  0  0  0
  184.2120  175.9290  135.9080 C   0  0  2  0  0  3  0  0  0  0  0  0
  182.6250  175.9710  138.8780 C   0  0  0  0  0  0  0  0  0  0  0  0
  186.2340  177.2950  136.0300 N   0  0  0  0  0  2  0  0  0  0  0  0
  183.1190  174.8380  138.0120 C   0  0  0  0  0  2  0  0  0  0  0  0
  181.4900  175.7560  139.5600 C   0  0  0  0  0  3  0  0  0  0  0  0
  184.9960  179.4890  139.5870 N   0  0  0  0  0  2  0  0  0  0  0  0
  182.7840  175.9740  135.3850 C   0  0  0  0  0  1  0  0  0  0  0  0
  183.8860  179.2490  140.5310 C   0  0  2  0  0  3  0  0  0  0  0  0
  186.6940  178.1760  138.3520 C   0  0  0  0  0  0  0  0  0  0  0  0
  184.3920  175.1090  137.1970 C   0  0  0  0  0  2  0  0  0  0  0  0
  180.8330  176.8240  140.3840 C   0  0  0  0  0  2  0  0  0  0  0  0
  189.4300  177.7670  137.8720 C   0  0  0  0  0  3  0  0  0  0  0  0
  187.6460  178.4470  139.3480 C   0  0  0  0  0  3  0  0  0  0  0  0
  184.2120  178.7790  144.3000 C   0  0  0  0  0  0  0  0  0  0  0  0
  183.5160  179.0930  145.4600 O   0  0  0  0  0  1  0  0  0  0  0  0
  184.4220  178.8370  141.8790 C   0  0  0  0  0  0  0  0  0  0  0  0
  185.4220  178.0850  144.3880 C   0  0  0  0  0  3  0  0  0  0  0  0
  185.6330  178.1380  141.9800 C   0  0  0  0  0  3  0  0  0  0  0  0
  183.7090  179.1570  143.0470 C   0  0  0  0  0  0  0  0  0  0  0  0
  182.5040  179.8480  142.9670 O   0  0  0  0  0  1  0  0  0  0  0  0
  186.1310  177.7590  143.2290 C   0  0  0  0  0  0  0  0  0  0  0  0
  188.0330  177.2290  144.7050 C   0  0  0  0  0  1  0  0  0  0  0  0
  187.4300  177.0380  143.3260 C   0  0  0  0  0  2  0  0  0  0  0  0
  1 17  1  0  0  0  0
  1  3  1  1  0  0  0
  4 11  1  1  0  0  0
  4  2  1  0  0  0  0
  4  1  1  0  0  0  0
  6 22  1  0  0  0  0
  7 18  1  1  0  0  0
  7  2  1  0  0  0  0
  7 15  1  0  0  0  0
  8  9  2  0  0  0  0
  8 21  1  0  0  0  0
  9 18  1  0  0  0  0
 10 16  1  1  0  0  0
 10  5  1  0  0  0  0
 10 19  1  0  0  0  0
 11 14  2  0  0  0  0
 12  5  1  0  0  0  0
 12  9  1  0  0  0  0
 13 11  1  0  0  0  0
 14 20  1  0  0  0  0
 15 17  1  0  0  0  0
 17 25  1  1  0  0  0
 18 22  2  0  0  0  0
 19 13  1  0  0  0  0
 20  3  1  0  0  0  0
 21  6  2  0  0  0  0
 23 26  1  0  0  0  0
 23 24  1  0  0  0  0
 25 27  2  0  0  0  0
 25 28  1  0  0  0  0
 27 30  1  0  0  0  0
 28 23  2  0  0  0  0
 29 28  1  0  0  0  0
 30 32  1  0  0  0  0
 30 26  2  0  0  0  0
 32 31  1  0  0  0  0
M  END
>  <MODEL>
1

>  <REMARK>
 VINA RESULT:      -7.8      0.000      0.000
  Name = 
  2 active torsions:
  status: ('A' for Active; 'I' for Inactive)
    1  A    between atoms: C_15  and  C_26
    2  A    between atoms: C_16  and  C_27
                            x       y       z     vdW  Elec       q    Type
                         _______ _______ _______ _____ _____    ______ ____

>  <TORSDO>
F 2

$$$$
=
 OpenBabel11052414383D

 32 36  0  0  1  0  0  0  0  0999 V2000
  186.7170  177.7600  136.5980 C   0  0  2  0  0  3  0  0  0  0  0  0
  187.8910  176.4840  138.2680 O   0  0  0  0  0  0  0  0  0  0  0  0
  185.5700  177.1110  135.8180 C   0  0  0  0  0  2  0  0  0  0  0  0
  187.8800  176.7870  136.9050 C   0  0  1  0  0  3  0  0  0  0  0  0
  190.9590  176.9470  137.9200 C   0  0  0  0  0  2  0  0  0  0  0  0
  188.4970  177.1640  142.6130 C   0  0  0  0  0  3  0  0  0  0  0  0
  188.3550  177.6660  138.8590 C   0  0  1  0  0  3  0  0  0  0  0  0
  190.6790  176.6510  141.7110 C   0  0  0  0  0  3  0  0  0  0  0  0
  190.2410  176.9430  140.4150 C   0  0  0  0  0  0  0  0  0  0  0  0
  191.1180  175.6200  137.1950 C   0  0  2  0  0  3  0  0  0  0  0  0
  187.9500  175.5310  136.0550 C   0  0  0  0  0  0  0  0  0  0  0  0
  191.1920  176.7700  139.3490 N   0  0  0  0  0  2  0  0  0  0  0  0
  188.9690  174.4430  136.2970 C   0  0  0  0  0  2  0  0  0  0  0  0
  187.1250  175.3610  135.0110 C   0  0  0  0  0  3  0  0  0  0  0  0
  187.3260  178.7260  138.8670 N   0  0  0  0  0  2  0  0  0  0  0  0
  191.4160  175.8490  135.7200 C   0  0  0  0  0  1  0  0  0  0  0  0
  186.2490  178.5040  137.8810 C   0  0  2  0  0  3  0  0  0  0  0  0
  188.9020  177.3810  140.2230 C   0  0  0  0  0  0  0  0  0  0  0  0
  189.9400  174.6680  137.4650 C   0  0  0  0  0  2  0  0  0  0  0  0
  186.1300  176.4040  134.5960 C   0  0  0  0  0  2  0  0  0  0  0  0
  189.8170  176.7610  142.8040 C   0  0  0  0  0  3  0  0  0  0  0  0
  188.0410  177.4650  141.3290 C   0  0  0  0  0  3  0  0  0  0  0  0
  183.3630  177.9910  140.3190 C   0  0  0  0  0  0  0  0  0  0  0  0
  182.8200  178.6000  141.4430 O   0  0  0  0  0  1  0  0  0  0  0  0
  185.0340  177.9170  138.5550 C   0  0  0  0  0  0  0  0  0  0  0  0
  182.7830  176.8240  139.8190 C   0  0  0  0  0  3  0  0  0  0  0  0
  184.4400  176.7470  138.0600 C   0  0  0  0  0  3  0  0  0  0  0  0
  184.4890  178.5420  139.6900 C   0  0  0  0  0  0  0  0  0  0  0  0
  185.0620  179.7050  140.1940 O   0  0  0  0  0  1  0  0  0  0  0  0
  183.3160  176.2020  138.6860 C   0  0  0  0  0  0  0  0  0  0  0  0
  183.7370  174.1550  137.3820 C   0  0  0  0  0  1  0  0  0  0  0  0
  182.7090  174.9470  138.1660 C   0  0  0  0  0  2  0  0  0  0  0  0
  1  3  1  1  0  0  0
  1  4  1  0  0  0  0
  1 17  1  0  0  0  0
  4 11  1  6  0  0  0
  4  2  1  0  0  0  0
  5 12  1  0  0  0  0
  6 21  1  0  0  0  0
  7  2  1  1  0  0  0
  7 15  1  0  0  0  0
  7 18  1  0  0  0  0
  8 21  2  0  0  0  0
  9  8  1  0  0  0  0
 10 16  1  6  0  0  0
 10 19  1  0  0  0  0
 10  5  1  0  0  0  0
 11 13  1  0  0  0  0
 12  9  1  0  0  0  0
 13 19  1  0  0  0  0
 14 11  2  0  0  0  0
 17 25  1  1  0  0  0
 17 15  1  0  0  0  0
 18  9  2  0  0  0  0
 18 22  1  0  0  0  0
 20 14  1  0  0  0  0
 20  3  1  0  0  0  0
 22  6  2  0  0  0  0
 23 24  1  0  0  0  0
 25 28  1  0  0  0  0
 26 23  1  0  0  0  0
 27 25  2  0  0  0  0
 27 30  1  0  0  0  0
 28 29  1  0  0  0  0
 28 23  2  0  0  0  0
 30 26  2  0  0  0  0
 31 32  1  0  0  0  0
 32 30  1  0  0  0  0
M  END
>  <MODEL>
2

>  <REMARK>
 VINA RESULT:      -7.3      2.307      5.437
  Name = 
  2 active torsions:
  status: ('A' for Active; 'I' for Inactive)
    1  A    between atoms: C_15  and  C_26
    2  A    between atoms: C_16  and  C_27
                            x       y       z     vdW  Elec       q    Type
                         _______ _______ _______ _____ _____    ______ ____

>  <TORSDO>
F 2

$$$$
=
 OpenBabel11052414383D

 32 36  0  0  1  0  0  0  0  0999 V2000
  187.1520  178.7760  141.0460 C   0  0  2  0  0  3  0  0  0  0  0  0
  185.4080  177.8770  142.4410 O   0  0  0  0  0  0  0  0  0  0  0  0
  188.0530  177.8250  140.2520 C   0  0  0  0  0  2  0  0  0  0  0  0
  186.7590  178.2310  142.4390 C   0  0  1  0  0  3  0  0  0  0  0  0
  185.4530  179.3540  145.1900 C   0  0  0  0  0  2  0  0  0  0  0  0
  181.0110  178.4840  142.4260 C   0  0  0  0  0  3  0  0  0  0  0  0
  184.7490  179.1120  142.4290 C   0  0  1  0  0  3  0  0  0  0  0  0
  181.7130  178.7770  144.7180 C   0  0  0  0  0  3  0  0  0  0  0  0
  183.0380  178.9760  144.3140 C   0  0  0  0  0  0  0  0  0  0  0  0
  186.1910  178.1980  145.8460 C   0  0  2  0  0  3  0  0  0  0  0  0
  187.6270  177.1180  142.9980 C   0  0  0  0  0  0  0  0  0  0  0  0
  184.0130  179.1880  145.3520 N   0  0  0  0  0  2  0  0  0  0  0  0
  187.3150  176.4210  144.3000 C   0  0  0  0  0  2  0  0  0  0  0  0
  188.7490  176.7400  142.3660 C   0  0  0  0  0  3  0  0  0  0  0  0
  184.8130  179.7650  141.1060 N   0  0  0  0  0  2  0  0  0  0  0  0
  187.6240  178.5920  146.1690 C   0  0  0  0  0  1  0  0  0  0  0  0
  185.9020  179.2510  140.2510 C   0  0  2  0  0  3  0  0  0  0  0  0
  183.3460  178.9520  142.9270 C   0  0  0  0  0  0  0  0  0  0  0  0
  186.0560  176.8940  145.0400 C   0  0  0  0  0  2  0  0  0  0  0  0
  189.2320  177.4120  141.1150 C   0  0  0  0  0  2  0  0  0  0  0  0
  180.7050  178.5350  143.7840 C   0  0  0  0  0  3  0  0  0  0  0  0
  182.3250  178.6840  142.0010 C   0  0  0  0  0  3  0  0  0  0  0  0
  185.4170  177.2520  137.0410 C   0  0  0  0  0  0  0  0  0  0  0  0
  185.9660  177.1630  135.7690 O   0  0  0  0  0  1  0  0  0  0  0  0
  185.3610  178.2570  139.2540 C   0  0  0  0  0  0  0  0  0  0  0  0
  184.3510  176.4200  137.3920 C   0  0  0  0  0  3  0  0  0  0  0  0
  184.2930  177.4150  139.5950 C   0  0  0  0  0  3  0  0  0  0  0  0
  185.9250  178.1710  137.9700 C   0  0  0  0  0  0  0  0  0  0  0  0
  186.9870  178.9970  137.6130 O   0  0  0  0  0  1  0  0  0  0  0  0
  183.7900  176.4960  138.6700 C   0  0  0  0  0  0  0  0  0  0  0  0
  181.3940  176.4620  139.2430 C   0  0  0  0  0  1  0  0  0  0  0  0
  182.6410  175.6240  139.0360 C   0  0  0  0  0  2  0  0  0  0  0  0
  1  3  1  6  0  0  0
  1  4  1  0  0  0  0
  3 20  1  0  0  0  0
  4  2  1  6  0  0  0
  4 11  1  0  0  0  0
  5 12  1  0  0  0  0
  5 10  1  0  0  0  0
  6 21  1  0  0  0  0
  7 15  1  6  0  0  0
  7  2  1  0  0  0  0
  7 18  1  0  0  0  0
  9  8  1  0  0  0  0
  9 12  1  0  0  0  0
 10 16  1  6  0  0  0
 11 13  1  0  0  0  0
 13 19  1  0  0  0  0
 14 11  2  0  0  0  0
 17 25  1  1  0  0  0
 17  1  1  0  0  0  0
 17 15  1  0  0  0  0
 18  9  2  0  0  0  0
 19 10  1  0  0  0  0
 20 14  1  0  0  0  0
 21  8  2  0  0  0  0
 22  6  2  0  0  0  0
 22 18  1  0  0  0  0
 23 26  2  0  0  0  0
 23 28  1  0  0  0  0
 24 23  1  0  0  0  0
 25 27  1  0  0  0  0
 26 30  1  0  0  0  0
 28 25  2  0  0  0  0
 29 28  1  0  0  0  0
 30 32  1  0  0  0  0
 30 27  2  0  0  0  0
 32 31  1  0  0  0  0
M  END
>  <MODEL>
3

>  <REMARK>
 VINA RESULT:      -7.1      2.042      7.393
  Name = 
  2 active torsions:
  status: ('A' for Active; 'I' for Inactive)
    1  A    between atoms: C_15  and  C_26
    2  A    between atoms: C_16  and  C_27
                            x       y       z     vdW  Elec       q    Type
                         _______ _______ _______ _____ _____    ______ ____

>  <TORSDO>
F 2

$$$$
=
 OpenBabel11052414383D

 32 36  0  0  1  0  0  0  0  0999 V2000
  182.4920  178.0220  139.0090 C   0  0  2  0  0  3  0  0  0  0  0  0
  184.6660  177.0070  138.8010 O   0  0  0  0  0  0  0  0  0  0  0  0
  181.4410  177.3780  139.9160 C   0  0  0  0  0  2  0  0  0  0  0  0
  183.3760  176.9930  138.2660 C   0  0  1  0  0  3  0  0  0  0  0  0
  185.4690  176.9520  135.7850 C   0  0  0  0  0  2  0  0  0  0  0  0
  188.7390  178.5610  139.6380 C   0  0  0  0  0  3  0  0  0  0  0  0
  185.1970  178.2160  138.3350 C   0  0  1  0  0  3  0  0  0  0  0  0
  188.8490  177.5610  137.4410 C   0  0  0  0  0  3  0  0  0  0  0  0
  187.4560  177.6110  137.3210 C   0  0  0  0  0  0  0  0  0  0  0  0
  185.0810  175.4870  135.6650 C   0  0  2  0  0  3  0  0  0  0  0  0
  182.8290  175.5790  138.1680 C   0  0  0  0  0  0  0  0  0  0  0  0
  186.8850  177.0720  136.1140 N   0  0  0  0  0  2  0  0  0  0  0  0
  183.6160  174.4450  137.5570 C   0  0  0  0  0  2  0  0  0  0  0  0
  181.5880  175.2940  138.5870 C   0  0  0  0  0  3  0  0  0  0  0  0
  184.6380  179.3820  139.0500 N   0  0  0  0  0  2  0  0  0  0  0  0
  183.8220  175.3330  134.8250 C   0  0  0  0  0  1  0  0  0  0  0  0
  183.3590  179.0940  139.7300 C   0  0  2  0  0  3  0  0  0  0  0  0
  186.6920  178.1740  138.3790 C   0  0  0  0  0  0  0  0  0  0  0  0
  185.0180  174.7920  137.0370 C   0  0  0  0  0  2  0  0  0  0  0  0
  180.6590  176.3430  139.1260 C   0  0  0  0  0  2  0  0  0  0  0  0
  189.4890  178.0330  138.5880 C   0  0  0  0  0  3  0  0  0  0  0  0
  187.3490  178.6230  139.5360 C   0  0  0  0  0  3  0  0  0  0  0  0
  182.7580  178.8050  143.4840 C   0  0  0  0  0  0  0  0  0  0  0  0
  181.7280  178.9840  144.3970 O   0  0  0  0  0  1  0  0  0  0  0  0
  183.5900  178.8470  141.2000 C   0  0  0  0  0  0  0  0  0  0  0  0
  184.0180  178.4040  143.9350 C   0  0  0  0  0  3  0  0  0  0  0  0
  184.8490  178.4410  141.6650 C   0  0  0  0  0  3  0  0  0  0  0  0
  182.5400  179.0280  142.1170 C   0  0  0  0  0  0  0  0  0  0  0  0
  181.2830  179.4280  141.6750 O   0  0  0  0  0  1  0  0  0  0  0  0
  185.0640  178.2160  143.0270 C   0  0  0  0  0  0  0  0  0  0  0  0
  186.4720  177.9010  145.0240 C   0  0  0  0  0  1  0  0  0  0  0  0
  186.4110  177.8080  143.5120 C   0  0  0  0  0  2  0  0  0  0  0  0
  1 17  1  0  0  0  0
  1  3  1  1  0  0  0
  4 11  1  1  0  0  0
  4  2  1  0  0  0  0
  4  1  1  0  0  0  0
  5 12  1  0  0  0  0
  7 18  1  1  0  0  0
  7  2  1  0  0  0  0
  7 15  1  0  0  0  0
  8 21  1  0  0  0  0
  9  8  2  0  0  0  0
  9 18  1  0  0  0  0
 10 16  1  1  0  0  0
 10  5  1  0  0  0  0
 10 19  1  0  0  0  0
 11 14  2  0  0  0  0
 12  9  1  0  0  0  0
 13 11  1  0  0  0  0
 14 20  1  0  0  0  0
 15 17  1  0  0  0  0
 17 25  1  1  0  0  0
 18 22  2  0  0  0  0
 19 13  1  0  0  0  0
 20  3  1  0  0  0  0
 21  6  2  0  0  0  0
 22  6  1  0  0  0  0
 23 26  1  0  0  0  0
 23 24  1  0  0  0  0
 25 27  2  0  0  0  0
 25 28  1  0  0  0  0
 27 30  1  0  0  0  0
 28 23  2  0  0  0  0
 29 28  1  0  0  0  0
 30 32  1  0  0  0  0
 30 26  2  0  0  0  0
 32 31  1  0  0  0  0
M  END
>  <MODEL>
4

>  <REMARK>
 VINA RESULT:      -6.9      0.983      1.097
  Name = 
  2 active torsions:
  status: ('A' for Active; 'I' for Inactive)
    1  A    between atoms: C_15  and  C_26
    2  A    between atoms: C_16  and  C_27
                            x       y       z     vdW  Elec       q    Type
                         _______ _______ _______ _____ _____    ______ ____

>  <TORSDO>
F 2

$$$$
=
 OpenBabel11052414383D

 32 36  0  0  1  0  0  0  0  0999 V2000
  182.2950  178.5630  137.3260 C   0  0  2  0  0  3  0  0  0  0  0  0
  184.0770  177.5210  138.5660 O   0  0  0  0  0  0  0  0  0  0  0  0
  181.1450  177.7060  136.7890 C   0  0  0  0  0  2  0  0  0  0  0  0
  183.6680  177.8530  137.2730 C   0  0  1  0  0  3  0  0  0  0  0  0
  186.8060  178.6390  137.5430 C   0  0  0  0  0  2  0  0  0  0  0  0
  185.5880  178.1930  142.6860 C   0  0  0  0  0  3  0  0  0  0  0  0
  184.4250  178.7580  139.1230 C   0  0  1  0  0  3  0  0  0  0  0  0
  187.5370  178.1830  141.2580 C   0  0  0  0  0  3  0  0  0  0  0  0
  186.7420  178.4110  140.1280 C   0  0  0  0  0  0  0  0  0  0  0  0
  187.0440  177.3980  136.6970 C   0  0  2  0  0  3  0  0  0  0  0  0
  183.7770  176.6650  136.3330 C   0  0  0  0  0  0  0  0  0  0  0  0
  187.4150  178.4760  138.8580 N   0  0  0  0  0  2  0  0  0  0  0  0
  185.0210  175.8140  136.2410 C   0  0  0  0  0  2  0  0  0  0  0  0
  182.7710  176.3530  135.5030 C   0  0  0  0  0  3  0  0  0  0  0  0
  183.2390  179.5720  139.4580 N   0  0  0  0  0  2  0  0  0  0  0  0
  186.9160  177.7270  135.2170 C   0  0  0  0  0  1  0  0  0  0  0  0
  182.0190  179.1530  138.7390 C   0  0  2  0  0  3  0  0  0  0  0  0
  185.3380  178.5580  140.2920 C   0  0  0  0  0  0  0  0  0  0  0  0
  186.1850  176.2090  137.1610 C   0  0  0  0  0  2  0  0  0  0  0  0
  181.5160  177.1690  135.4170 C   0  0  0  0  0  2  0  0  0  0  0  0
  186.9680  178.0760  142.5280 C   0  0  0  0  0  3  0  0  0  0  0  0
  184.7790  178.4250  141.5740 C   0  0  0  0  0  3  0  0  0  0  0  0
  179.6370  178.0960  141.5210 C   0  0  0  0  0  0  0  0  0  0  0  0
  178.9310  178.6700  142.5710 O   0  0  0  0  0  1  0  0  0  0  0  0
  181.1510  178.3010  139.6310 C   0  0  0  0  0  0  0  0  0  0  0  0
  179.5460  176.7200  141.3000 C   0  0  0  0  0  3  0  0  0  0  0  0
  181.0500  176.9190  139.4170 C   0  0  0  0  0  3  0  0  0  0  0  0
  180.4380  178.8910  140.6880 C   0  0  0  0  0  0  0  0  0  0  0  0
  180.5240  180.2610  140.9150 O   0  0  0  0  0  1  0  0  0  0  0  0
  180.2480  176.1300  140.2460 C   0  0  0  0  0  0  0  0  0  0  0  0
  179.3100  174.0160  141.0960 C   0  0  0  0  0  1  0  0  0  0  0  0
  180.1670  174.6600  140.0240 C   0  0  0  0  0  2  0  0  0  0  0  0
  1  3  1  1  0  0  0
  1 17  1  0  0  0  0
  4 11  1  6  0  0  0
  4  1  1  0  0  0  0
  4  2  1  0  0  0  0
  5 12  1  0  0  0  0
  7  2  1  1  0  0  0
  7 15  1  0  0  0  0
  7 18  1  0  0  0  0
  8 21  2  0  0  0  0
  9 18  2  0  0  0  0
  9  8  1  0  0  0  0
 10 16  1  6  0  0  0
 10 19  1  0  0  0  0
 10  5  1  0  0  0  0
 12  9  1  0  0  0  0
 13 11  1  0  0  0  0
 13 19  1  0  0  0  0
 14 11  2  0  0  0  0
 17 15  1  0  0  0  0
 17 25  1  1  0  0  0
 18 22  1  0  0  0  0
 20 14  1  0  0  0  0
 20  3  1  0  0  0  0
 21  6  1  0  0  0  0
 22  6  2  0  0  0  0
 23 24  1  0  0  0  0
 25 28  1  0  0  0  0
 26 23  1  0  0  0  0
 27 25  2  0  0  0  0
 27 30  1  0  0  0  0
 28 29  1  0  0  0  0
 28 23  2  0  0  0  0
 30 26  2  0  0  0  0
 32 30  1  0  0  0  0
 32 31  1  0  0  0  0
M  END
>  <MODEL>
5

>  <REMARK>
 VINA RESULT:      -6.7      1.951      4.492
  Name = 
  2 active torsions:
  status: ('A' for Active; 'I' for Inactive)
    1  A    between atoms: C_15  and  C_26
    2  A    between atoms: C_16  and  C_27
                            x       y       z     vdW  Elec       q    Type
                         _______ _______ _______ _____ _____    ______ ____

>  <TORSDO>
F 2

$$$$
=
 OpenBabel11052414383D

 32 36  0  0  1  0  0  0  0  0999 V2000
  190.1010  177.9000  141.1670 C   0  0  2  0  0  3  0  0  0  0  0  0
  187.7950  177.3040  140.8120 O   0  0  0  0  0  0  0  0  0  0  0  0
  191.1040  176.8240  141.5880 C   0  0  0  0  0  2  0  0  0  0  0  0
  188.6990  177.7140  141.7940 C   0  0  1  0  0  3  0  0  0  0  0  0
  185.9780  179.4410  142.1820 C   0  0  0  0  0  2  0  0  0  0  0  0
  185.1690  177.6650  137.2510 C   0  0  0  0  0  3  0  0  0  0  0  0
  187.6050  178.4590  140.0440 C   0  0  1  0  0  3  0  0  0  0  0  0
  183.9080  178.5740  139.1000 C   0  0  0  0  0  3  0  0  0  0  0  0
  185.0760  178.7280  139.8550 C   0  0  0  0  0  0  0  0  0  0  0  0
  185.7400  178.5310  143.3770 C   0  0  2  0  0  3  0  0  0  0  0  0
  188.6230  176.8280  143.0250 C   0  0  0  0  0  0  0  0  0  0  0  0
  184.9290  179.2500  141.1880 N   0  0  0  0  0  2  0  0  0  0  0  0
  187.3160  176.4750  143.6920 C   0  0  0  0  0  2  0  0  0  0  0  0
  189.7400  176.3570  143.6010 C   0  0  0  0  0  3  0  0  0  0  0  0
  188.7660  178.7520  139.1800 N   0  0  0  0  0  2  0  0  0  0  0  0
  186.4550  179.0670  144.6090 C   0  0  0  0  0  1  0  0  0  0  0  0
  190.0090  178.0900  139.6260 C   0  0  2  0  0  3  0  0  0  0  0  0
  186.3220  178.3630  139.2770 C   0  0  0  0  0  0  0  0  0  0  0  0
  186.0470  177.0590  143.0540 C   0  0  0  0  0  2  0  0  0  0  0  0
  191.1110  176.7070  143.1030 C   0  0  0  0  0  2  0  0  0  0  0  0
  183.9510  178.0480  137.8070 C   0  0  0  0  0  3  0  0  0  0  0  0
  186.3460  177.8150  137.9850 C   0  0  0  0  0  3  0  0  0  0  0  0
  191.8130  175.2560  137.8240 C   0  0  0  0  0  0  0  0  0  0  0  0
  193.1110  174.8170  137.5960 O   0  0  0  0  0  1  0  0  0  0  0  0
  190.2620  176.8470  138.8100 C   0  0  0  0  0  0  0  0  0  0  0  0
  190.7390  174.5440  137.2840 C   0  0  0  0  0  3  0  0  0  0  0  0
  189.1930  176.1220  138.2660 C   0  0  0  0  0  3  0  0  0  0  0  0
  191.5790  176.4080  138.5880 C   0  0  0  0  0  0  0  0  0  0  0  0
  192.6530  177.1130  139.1210 O   0  0  0  0  0  1  0  0  0  0  0  0
  189.4280  174.9720  137.5080 C   0  0  0  0  0  0  0  0  0  0  0  0
  187.6440  175.0390  135.8100 C   0  0  0  0  0  1  0  0  0  0  0  0
  188.2860  174.2230  136.9160 C   0  0  0  0  0  2  0  0  0  0  0  0
  1  3  1  6  0  0  0
  1  4  1  0  0  0  0
  3 20  1  0  0  0  0
  4  2  1  6  0  0  0
  4 11  1  0  0  0  0
  5 10  1  0  0  0  0
  6 21  2  0  0  0  0
  6 22  1  0  0  0  0
  7 15  1  6  0  0  0
  7  2  1  0  0  0  0
  8  9  2  0  0  0  0
  9 12  1  0  0  0  0
 10 16  1  1  0  0  0
 11 14  2  0  0  0  0
 11 13  1  0  0  0  0
 12  5  1  0  0  0  0
 15 17  1  0  0  0  0
 17 25  1  6  0  0  0
 17  1  1  0  0  0  0
 18  9  1  0  0  0  0
 18  7  1  0  0  0  0
 19 10  1  0  0  0  0
 19 13  1  0  0  0  0
 20 14  1  0  0  0  0
 21  8  1  0  0  0  0
 22 18  2  0  0  0  0
 23 28  1  0  0  0  0
 24 23  1  0  0  0  0
 26 30  1  0  0  0  0
 26 23  2  0  0  0  0
 27 25  1  0  0  0  0
 28 25  2  0  0  0  0
 28 29  1  0  0  0  0
 30 27  2  0  0  0  0
 31 32  1  0  0  0  0
 32 30  1  0  0  0  0
M  END
>  <MODEL>
6

>  <REMARK>
 VINA RESULT:      -6.4      3.021      7.487
  Name = 
  2 active torsions:
  status: ('A' for Active; 'I' for Inactive)
    1  A    between atoms: C_15  and  C_26
    2  A    between atoms: C_16  and  C_27
                            x       y       z     vdW  Elec       q    Type
                         _______ _______ _______ _____ _____    ______ ____

>  <TORSDO>
F 2

$$$$
=
 OpenBabel11052414383D

 32 36  0  0  1  0  0  0  0  0999 V2000
  183.4220  179.0010  139.8350 C   0  0  2  0  0  3  0  0  0  0  0  0
  184.0780  176.8970  138.8670 O   0  0  0  0  0  0  0  0  0  0  0  0
  182.9540  179.0510  141.2920 C   0  0  0  0  0  2  0  0  0  0  0  0
  182.9750  177.7230  139.0880 C   0  0  1  0  0  3  0  0  0  0  0  0
  182.8000  176.6490  136.0310 C   0  0  0  0  0  2  0  0  0  0  0  0
  187.8910  175.5540  137.0330 C   0  0  0  0  0  3  0  0  0  0  0  0
  184.7910  177.5680  137.8660 C   0  0  1  0  0  3  0  0  0  0  0  0
  186.1490  174.9090  135.4890 C   0  0  0  0  0  3  0  0  0  0  0  0
  185.2560  175.8090  136.0800 C   0  0  0  0  0  0  0  0  0  0  0  0
  181.6980  175.7440  136.5610 C   0  0  2  0  0  3  0  0  0  0  0  0
  181.8170  176.9540  139.7010 C   0  0  0  0  0  0  0  0  0  0  0  0
  183.9190  175.8480  135.5480 N   0  0  0  0  0  2  0  0  0  0  0  0
  181.3290  175.6400  139.1420 C   0  0  0  0  0  2  0  0  0  0  0  0
  181.1460  177.4480  140.7520 C   0  0  0  0  0  3  0  0  0  0  0  0
  185.4940  178.7580  138.3850 N   0  0  0  0  0  2  0  0  0  0  0  0
  180.3620  176.4710  136.5590 C   0  0  0  0  0  1  0  0  0  0  0  0
  184.9490  179.2480  139.6680 C   0  0  2  0  0  3  0  0  0  0  0  0
  185.7060  176.6180  137.1590 C   0  0  0  0  0  0  0  0  0  0  0  0
  182.0730  175.1060  137.9100 C   0  0  0  0  0  2  0  0  0  0  0  0
  181.4590  178.7890  141.3490 C   0  0  0  0  0  2  0  0  0  0  0  0
  187.4580  174.7810  135.9580 C   0  0  0  0  0  3  0  0  0  0  0  0
  187.0180  176.4610  137.6340 C   0  0  0  0  0  3  0  0  0  0  0  0
  187.9680  178.0890  141.6870 C   0  0  0  0  0  0  0  0  0  0  0  0
  189.3240  177.8490  141.5020 O   0  0  0  0  0  1  0  0  0  0  0  0
  185.8040  178.7740  140.8160 C   0  0  0  0  0  0  0  0  0  0  0  0
  187.3960  177.8800  142.9440 C   0  0  0  0  0  3  0  0  0  0  0  0
  185.2430  178.5630  142.0840 C   0  0  0  0  0  3  0  0  0  0  0  0
  187.1760  178.5360  140.6200 C   0  0  0  0  0  0  0  0  0  0  0  0
  187.7520  178.7420  139.3710 O   0  0  0  0  0  1  0  0  0  0  0  0
  186.0350  178.1210  143.1460 C   0  0  0  0  0  0  0  0  0  0  0  0
  184.4250  178.9740  144.8060 C   0  0  0  0  0  1  0  0  0  0  0  0
  185.4220  177.8780  144.4810 C   0  0  0  0  0  2  0  0  0  0  0  0
  1  3  1  1  0  0  0
  3 20  1  0  0  0  0
  4  2  1  1  0  0  0
  4 11  1  0  0  0  0
  4  1  1  0  0  0  0
  5 10  1  0  0  0  0
  6 22  1  0  0  0  0
  7 18  1  1  0  0  0
  7 15  1  0  0  0  0
  7  2  1  0  0  0  0
  8 21  1  0  0  0  0
  8  9  2  0  0  0  0
  9 18  1  0  0  0  0
 10 16  1  1  0  0  0
 10 19  1  0  0  0  0
 11 14  2  0  0  0  0
 12  5  1  0  0  0  0
 12  9  1  0  0  0  0
 13 11  1  0  0  0  0
 14 20  1  0  0  0  0
 15 17  1  0  0  0  0
 17  1  1  0  0  0  0
 17 25  1  1  0  0  0
 18 22  2  0  0  0  0
 19 13  1  0  0  0  0
 21  6  2  0  0  0  0
 23 26  1  0  0  0  0
 24 23  1  0  0  0  0
 25 27  2  0  0  0  0
 26 30  2  0  0  0  0
 27 30  1  0  0  0  0
 28 25  1  0  0  0  0
 28 23  2  0  0  0  0
 29 28  1  0  0  0  0
 30 32  1  0  0  0  0
 32 31  1  0  0  0  0
M  END
>  <MODEL>
7

>  <REMARK>
 VINA RESULT:      -6.3      2.065      2.995
  Name = 
  2 active torsions:
  status: ('A' for Active; 'I' for Inactive)
    1  A    between atoms: C_15  and  C_26
    2  A    between atoms: C_16  and  C_27
                            x       y       z     vdW  Elec       q    Type
                         _______ _______ _______ _____ _____    ______ ____

>  <TORSDO>
F 2

$$$$
=
 OpenBabel11052414383D

 32 36  0  0  1  0  0  0  0  0999 V2000
  185.6090  176.3930  136.8220 C   0  0  2  0  0  3  0  0  0  0  0  0
  187.6610  175.3520  137.5310 O   0  0  0  0  0  0  0  0  0  0  0  0
  184.3480  176.2410  137.6780 C   0  0  0  0  0  2  0  0  0  0  0  0
  186.4940  175.1240  136.8000 C   0  0  1  0  0  3  0  0  0  0  0  0
  188.9780  173.9430  135.0780 C   0  0  0  0  0  2  0  0  0  0  0  0
  191.6640  177.0410  138.4410 C   0  0  0  0  0  3  0  0  0  0  0  0
  188.3950  176.2170  136.7110 C   0  0  1  0  0  3  0  0  0  0  0  0
  192.0540  175.1650  136.9700 C   0  0  0  0  0  3  0  0  0  0  0  0
  190.7190  175.1810  136.5530 C   0  0  0  0  0  0  0  0  0  0  0  0
  188.4610  172.5860  135.5260 C   0  0  2  0  0  3  0  0  0  0  0  0
  185.8220  173.8260  137.2130 C   0  0  0  0  0  0  0  0  0  0  0  0
  190.3170  174.1710  135.6090 N   0  0  0  0  0  2  0  0  0  0  0  0
  186.5770  172.5240  137.3320 C   0  0  0  0  0  2  0  0  0  0  0  0
  184.5020  173.7810  137.4450 C   0  0  0  0  0  3  0  0  0  0  0  0
  187.8480  177.5890  136.7160 N   0  0  0  0  0  2  0  0  0  0  0  0
  187.3630  172.0960  134.5940 C   0  0  0  0  0  1  0  0  0  0  0  0
  186.4440  177.6580  137.1710 C   0  0  2  0  0  3  0  0  0  0  0  0
  189.8450  176.1710  137.0780 C   0  0  0  0  0  0  0  0  0  0  0  0
  188.0790  172.5760  137.0170 C   0  0  0  0  0  2  0  0  0  0  0  0
  183.6130  174.9760  137.2700 C   0  0  0  0  0  2  0  0  0  0  0  0
  192.5270  176.0880  137.9050 C   0  0  0  0  0  3  0  0  0  0  0  0
  190.3300  177.0770  138.0350 C   0  0  0  0  0  3  0  0  0  0  0  0
  185.1390  179.0390  140.4760 C   0  0  0  0  0  0  0  0  0  0  0  0
  183.9710  179.5790  140.9980 O   0  0  0  0  0  1  0  0  0  0  0  0
  186.3810  178.0890  138.6150 C   0  0  0  0  0  0  0  0  0  0  0  0
  186.2630  178.9040  141.2950 C   0  0  0  0  0  3  0  0  0  0  0  0
  187.5020  177.9560  139.4480 C   0  0  0  0  0  3  0  0  0  0  0  0
  185.1940  178.6320  139.1360 C   0  0  0  0  0  0  0  0  0  0  0  0
  184.0710  178.7700  138.3260 O   0  0  0  0  0  1  0  0  0  0  0  0
  187.4440  178.3580  140.7850 C   0  0  0  0  0  0  0  0  0  0  0  0
  188.8080  176.8010  142.1210 C   0  0  0  0  0  1  0  0  0  0  0  0
  188.6470  178.2340  141.6530 C   0  0  0  0  0  2  0  0  0  0  0  0
  1 17  1  0  0  0  0
  1  3  1  1  0  0  0
  4  1  1  0  0  0  0
  4 11  1  1  0  0  0
  4  2  1  0  0  0  0
  5 10  1  0  0  0  0
  5 12  1  0  0  0  0
  7 15  1  1  0  0  0
  7 18  1  0  0  0  0
  7  2  1  0  0  0  0
  8 21  1  0  0  0  0
  9  8  2  0  0  0  0
  9 18  1  0  0  0  0
 10 16  1  6  0  0  0
 10 19  1  0  0  0  0
 11 13  1  0  0  0  0
 11 14  2  0  0  0  0
 12  9  1  0  0  0  0
 15 17  1  0  0  0  0
 17 25  1  1  0  0  0
 18 22  2  0  0  0  0
 19 13  1  0  0  0  0
 20 14  1  0  0  0  0
 20  3  1  0  0  0  0
 21  6  2  0  0  0  0
 22  6  1  0  0  0  0
 23 24  1  0  0  0  0
 23 26  1  0  0  0  0
 25 28  1  0  0  0  0
 25 27  2  0  0  0  0
 27 30  1  0  0  0  0
 28 23  2  0  0  0  0
 29 28  1  0  0  0  0
 30 26  2  0  0  0  0
 30 32  1  0  0  0  0
 32 31  1  0  0  0  0
M  END
>  <MODEL>
8

>  <REMARK>
 VINA RESULT:      -6.1      2.687      4.226
  Name = 
  2 active torsions:
  status: ('A' for Active; 'I' for Inactive)
    1  A    between atoms: C_15  and  C_26
    2  A    between atoms: C_16  and  C_27
                            x       y       z     vdW  Elec       q    Type
                         _______ _______ _______ _____ _____    ______ ____

>  <TORSDO>
F 2

$$$$
=
 OpenBabel11052414383D

 32 36  0  0  1  0  0  0  0  0999 V2000
  183.0200  178.6430  138.0760 C   0  0  2  0  0  3  0  0  0  0  0  0
  183.1430  176.2670  138.4430 O   0  0  0  0  0  0  0  0  0  0  0  0
  182.9560  179.5920  139.2760 C   0  0  0  0  0  2  0  0  0  0  0  0
  182.2430  177.3240  138.2930 C   0  0  1  0  0  3  0  0  0  0  0  0
  181.1500  174.8430  136.5080 C   0  0  0  0  0  2  0  0  0  0  0  0
  186.1580  173.2470  137.2200 C   0  0  0  0  0  3  0  0  0  0  0  0
  183.6460  176.0840  137.1490 C   0  0  1  0  0  3  0  0  0  0  0  0
  184.0090  172.3220  136.6160 C   0  0  0  0  0  3  0  0  0  0  0  0
  183.4150  173.5870  136.6880 C   0  0  0  0  0  0  0  0  0  0  0  0
  180.1240  174.6800  137.6180 C   0  0  2  0  0  3  0  0  0  0  0  0
  181.2010  177.3280  139.3980 C   0  0  0  0  0  0  0  0  0  0  0  0
  182.0010  173.6610  136.4320 N   0  0  0  0  0  2  0  0  0  0  0  0
  180.4300  176.0920  139.7910 C   0  0  0  0  0  2  0  0  0  0  0  0
  180.8900  178.4620  140.0430 C   0  0  0  0  0  3  0  0  0  0  0  0
  184.5980  177.1460  136.7650 N   0  0  0  0  0  2  0  0  0  0  0  0
  178.9310  175.5930  137.3820 C   0  0  0  0  0  1  0  0  0  0  0  0
  184.4680  178.3710  137.5800 C   0  0  2  0  0  3  0  0  0  0  0  0
  184.2240  174.7100  137.0100 C   0  0  0  0  0  0  0  0  0  0  0  0
  180.7580  174.8090  139.0140 C   0  0  0  0  0  2  0  0  0  0  0  0
  181.5070  179.7840  139.6890 C   0  0  0  0  0  2  0  0  0  0  0  0
  185.3700  172.1500  136.8780 C   0  0  0  0  0  3  0  0  0  0  0  0
  185.5860  174.5170  137.2930 C   0  0  0  0  0  3  0  0  0  0  0  0
  187.8630  178.2310  139.3090 C   0  0  0  0  0  0  0  0  0  0  0  0
  189.1990  178.0350  138.9810 O   0  0  0  0  0  1  0  0  0  0  0  0
  185.5290  178.4030  138.6510 C   0  0  0  0  0  0  0  0  0  0  0  0
  187.5050  178.4490  140.6410 C   0  0  0  0  0  3  0  0  0  0  0  0
  185.1820  178.6250  139.9910 C   0  0  0  0  0  3  0  0  0  0  0  0
  186.8790  178.2070  138.3110 C   0  0  0  0  0  0  0  0  0  0  0  0
  187.2440  177.9880  136.9860 O   0  0  0  0  0  1  0  0  0  0  0  0
  186.1650  178.6520  140.9840 C   0  0  0  0  0  0  0  0  0  0  0  0
  184.4110  178.2730  142.6730 C   0  0  0  0  0  1  0  0  0  0  0  0
  185.7820  178.8640  142.4070 C   0  0  0  0  0  2  0  0  0  0  0  0
  1  4  1  0  0  0  0
  1  3  1  1  0  0  0
  3 20  1  0  0  0  0
  4  2  1  1  0  0  0
  4 11  1  0  0  0  0
  5 10  1  0  0  0  0
  6 22  1  0  0  0  0
  7 15  1  1  0  0  0
  7  2  1  0  0  0  0
  8  9  2  0  0  0  0
  8 21  1  0  0  0  0
  9 18  1  0  0  0  0
 10 16  1  6  0  0  0
 10 19  1  0  0  0  0
 11 13  1  0  0  0  0
 11 14  2  0  0  0  0
 12  5  1  0  0  0  0
 12  9  1  0  0  0  0
 15 17  1  0  0  0  0
 17  1  1  0  0  0  0
 17 25  1  1  0  0  0
 18  7  1  0  0  0  0
 18 22  2  0  0  0  0
 19 13  1  0  0  0  0
 20 14  1  0  0  0  0
 21  6  2  0  0  0  0
 23 26  1  0  0  0  0
 24 23  1  0  0  0  0
 25 27  2  0  0  0  0
 26 30  2  0  0  0  0
 27 30  1  0  0  0  0
 28 25  1  0  0  0  0
 28 23  2  0  0  0  0
 29 28  1  0  0  0  0
 30 32  1  0  0  0  0
 32 31  1  0  0  0  0
M  END
>  <MODEL>
9

>  <REMARK>
 VINA RESULT:      -6.1      2.385      4.587
  Name = 
  2 active torsions:
  status: ('A' for Active; 'I' for Inactive)
    1  A    between atoms: C_15  and  C_26
    2  A    between atoms: C_16  and  C_27
                            x       y       z     vdW  Elec       q    Type
                         _______ _______ _______ _____ _____    ______ ____

>  <TORSDO>
F 2

$$$$
