=
 OpenBabel11052415203D

 37 41  0  0  1  0  0  0  0  0999 V2000
  181.7110  175.8870  135.8700 C   0  0  0  0  0  0  0  0  0  0  0  0
  180.9050  172.8350  136.7980 C   0  0  0  0  0  0  0  0  0  0  0  0
  184.8180  174.3900  136.6790 C   0  0  2  0  0  3  0  0  0  0  0  0
  180.7890  175.4980  136.9890 C   0  0  2  0  0  0  0  0  0  0  0  0
  185.7950  176.6750  136.6500 C   0  0  1  0  0  3  0  0  0  0  0  0
  182.8170  171.1280  136.5040 C   0  0  0  0  0  3  0  0  0  0  0  0
  183.7970  176.9830  135.0510 C   0  0  0  0  0  2  0  0  0  0  0  0
  181.6900  174.9430  138.1000 C   0  0  2  0  0  3  0  0  0  0  0  0
  182.9750  173.2840  135.5450 O   0  0  0  0  0  0  0  0  0  0  0  0
  184.0660  170.8420  136.1330 C   0  0  0  0  0  3  0  0  0  0  0  0
  181.9360  177.0980  139.4210 C   0  0  0  0  0  2  0  0  0  0  0  0
  181.4900  175.4510  134.7080 O   0  0  0  0  0  0  0  0  0  0  0  0
  180.5270  174.1080  137.6020 C   0  0  2  0  0  3  0  0  0  0  0  0
  185.0580  171.9440  135.8660 C   0  0  0  0  0  2  0  0  0  0  0  0
  180.2100  172.8470  135.4430 C   0  0  0  0  0  1  0  0  0  0  0  0
  183.1320  177.3620  138.5020 C   0  0  0  0  0  2  0  0  0  0  0  0
  185.1300  177.5340  135.5680 C   0  0  0  0  0  2  0  0  0  0  0  0
  184.3850  173.3260  135.6720 C   0  0  2  0  0  3  0  0  0  0  0  0
  182.7910  176.8190  136.1020 N   0  0  0  0  0  0  0  0  0  0  0  0
  182.4350  172.5790  136.6420 C   0  0  1  0  0  3  0  0  0  0  0  0
  186.0080  175.2190  136.1940 C   0  0  1  0  0  3  0  0  0  0  0  0
  180.2700  171.7010  137.5930 C   0  0  0  0  0  1  0  0  0  0  0  0
  182.6590  177.8550  137.1330 C   0  0  0  0  0  2  0  0  0  0  0  0
  181.4740  175.6330  139.4430 C   0  0  0  0  0  2  0  0  0  0  0  0
  185.0050  173.8730  137.9660 O   0  0  0  0  0  1  0  0  0  0  0  0
  187.9240  178.0080  136.3240 C   0  0  0  0  0  3  0  0  0  0  0  0
  187.0160  177.3700  137.1830 C   0  0  0  0  0  0  0  0  0  0  0  0
  187.2560  177.3620  138.5610 C   0  0  0  0  0  3  0  0  0  0  0  0
  188.6190  177.9820  140.4160 F   0  0  0  0  0  0  0  0  0  0  0  0
  189.2920  178.6280  138.2230 C   0  0  0  0  0  3  0  0  0  0  0  0
  188.3920  177.9910  139.0810 C   0  0  0  0  0  0  0  0  0  0  0  0
  189.0590  178.6370  136.8440 C   0  0  0  0  0  3  0  0  0  0  0  0
  179.0990  177.1200  136.1120 C   0  0  0  0  0  1  0  0  0  0  0  0
  179.7120  176.5180  137.3610 C   0  0  0  0  0  2  0  0  0  0  0  0
  187.3470  174.5970  136.6100 C   0  0  0  0  0  2  0  0  0  0  0  0
  189.4040  174.9590  135.4560 O   0  0  0  0  0  1  0  0  0  0  0  0
  188.1920  174.2690  135.3920 C   0  0  0  0  0  2  0  0  0  0  0  0
  1 19  1  0  0  0  0
  1  4  1  0  0  0  0
  2 22  1  0  0  0  0
  3 25  1  1  0  0  0
  4 34  1  1  0  0  0
  4 13  1  0  0  0  0
  4  8  1  0  0  0  0
  5 27  1  6  0  0  0
  7 17  1  0  0  0  0
  7 19  1  0  0  0  0
  8 24  1  1  0  0  0
  9 18  1  0  0  0  0
  9 20  1  0  0  0  0
 10  6  2  0  0  0  0
 11 24  1  0  0  0  0
 12  1  2  0  0  0  0
 13  2  1  6  0  0  0
 13  8  1  0  0  0  0
 14 10  1  0  0  0  0
 15  2  1  0  0  0  0
 16 11  1  0  0  0  0
 17  5  1  0  0  0  0
 18 14  1  1  0  0  0
 18  3  1  0  0  0  0
 19 23  1  0  0  0  0
 20  6  1  6  0  0  0
 20  2  1  0  0  0  0
 21 35  1  1  0  0  0
 21  5  1  0  0  0  0
 21  3  1  0  0  0  0
 23 16  1  0  0  0  0
 26 32  2  0  0  0  0
 26 27  1  0  0  0  0
 27 28  2  0  0  0  0
 28 31  1  0  0  0  0
 30 31  2  0  0  0  0
 31 29  1  0  0  0  0
 32 30  1  0  0  0  0
 33 34  1  0  0  0  0
 37 36  1  0  0  0  0
 37 35  1  0  0  0  0
M  END
>  <MODEL>
1

>  <REMARK>
 VINA RESULT:      -5.3      0.000      0.000
  Name = 
  4 active torsions:
  status: ('A' for Active; 'I' for Inactive)
    1  A    between atoms: C_5  and  C_23
    2  A    between atoms: C_6  and  C_7
    3  A    between atoms: C_14  and  C_31
    4  A    between atoms: C_14  and  C_37
                            x       y       z     vdW  Elec       q    Type
                         _______ _______ _______ _____ _____    ______ ____

>  <TORSDO>
F 4

$$$$
=
 OpenBabel11052415203D

 37 41  0  0  1  0  0  0  0  0999 V2000
  186.9880  177.2530  135.7250 C   0  0  0  0  0  0  0  0  0  0  0  0
  188.2350  177.6470  138.7430 C   0  0  0  0  0  0  0  0  0  0  0  0
  184.1490  177.1560  137.8420 C   0  0  2  0  0  3  0  0  0  0  0  0
  188.0070  176.3830  136.4000 C   0  0  2  0  0  0  0  0  0  0  0  0
  182.8790  176.2570  135.9040 C   0  0  1  0  0  3  0  0  0  0  0  0
  186.5530  178.6320  140.4340 C   0  0  0  0  0  3  0  0  0  0  0  0
  184.7380  177.5710  134.6960 C   0  0  0  0  0  2  0  0  0  0  0  0
  187.2430  175.6040  137.4800 C   0  0  2  0  0  3  0  0  0  0  0  0
  186.0640  178.6260  138.1200 O   0  0  0  0  0  0  0  0  0  0  0  0
  185.3360  179.0990  140.7170 C   0  0  0  0  0  3  0  0  0  0  0  0
  186.7790  173.5200  136.1050 C   0  0  0  0  0  2  0  0  0  0  0  0
  187.2070  178.4890  135.6150 O   0  0  0  0  0  0  0  0  0  0  0  0
  188.4800  176.3890  137.8670 C   0  0  2  0  0  3  0  0  0  0  0  0
  184.1950  178.9010  139.7530 C   0  0  0  0  0  2  0  0  0  0  0  0
  188.8540  178.8720  138.0840 C   0  0  0  0  0  1  0  0  0  0  0  0
  185.5160  174.2610  135.6620 C   0  0  0  0  0  2  0  0  0  0  0  0
  183.3710  176.8860  134.5950 C   0  0  0  0  0  2  0  0  0  0  0  0
  184.6690  178.5060  138.3320 C   0  0  2  0  0  3  0  0  0  0  0  0
  185.8070  176.6700  135.1290 N   0  0  0  0  0  0  0  0  0  0  0  0
  186.7460  177.9090  139.1260 C   0  0  1  0  0  3  0  0  0  0  0  0
  182.8380  177.2700  137.0630 C   0  0  1  0  0  3  0  0  0  0  0  0
  189.0520  177.3800  140.0010 C   0  0  0  0  0  1  0  0  0  0  0  0
  185.8510  175.3040  134.5940 C   0  0  0  0  0  2  0  0  0  0  0  0
  187.4310  174.0950  137.3720 C   0  0  0  0  0  2  0  0  0  0  0  0
  184.0960  176.1950  138.8570 O   0  0  0  0  0  1  0  0  0  0  0  0
  180.5250  176.0820  134.9840 C   0  0  0  0  0  3  0  0  0  0  0  0
  181.6050  175.4980  135.6650 C   0  0  0  0  0  0  0  0  0  0  0  0
  181.4920  174.1890  136.1470 C   0  0  0  0  0  3  0  0  0  0  0  0
  180.2070  172.1990  136.4160 F   0  0  0  0  0  0  0  0  0  0  0  0
  179.2390  174.0510  135.2680 C   0  0  0  0  0  3  0  0  0  0  0  0
  180.3110  173.4660  135.9480 C   0  0  0  0  0  0  0  0  0  0  0  0
  179.3450  175.3590  134.7860 C   0  0  0  0  0  3  0  0  0  0  0  0
  189.7560  176.5790  134.6230 C   0  0  0  0  0  1  0  0  0  0  0  0
  188.9570  175.6150  135.4790 C   0  0  0  0  0  2  0  0  0  0  0  0
  181.6150  177.1580  137.9820 C   0  0  0  0  0  2  0  0  0  0  0  0
  181.1860  179.2650  136.9460 O   0  0  0  0  0  1  0  0  0  0  0  0
  180.8700  178.4790  138.0550 C   0  0  0  0  0  2  0  0  0  0  0  0
  1  4  1  0  0  0  0
  2 20  1  0  0  0  0
  2 22  1  0  0  0  0
  3 18  1  0  0  0  0
  3 25  1  1  0  0  0
  4 34  1  6  0  0  0
  4  8  1  0  0  0  0
  4 13  1  0  0  0  0
  5 27  1  6  0  0  0
  5 21  1  0  0  0  0
  6 10  2  0  0  0  0
  7 19  1  0  0  0  0
  8 24  1  6  0  0  0
  8 13  1  0  0  0  0
  9 18  1  0  0  0  0
  9 20  1  0  0  0  0
 11 24  1  0  0  0  0
 12  1  2  0  0  0  0
 13  2  1  1  0  0  0
 14 10  1  0  0  0  0
 15  2  1  0  0  0  0
 16 11  1  0  0  0  0
 17  7  1  0  0  0  0
 17  5  1  0  0  0  0
 18 14  1  1  0  0  0
 19  1  1  0  0  0  0
 20  6  1  1  0  0  0
 21  3  1  0  0  0  0
 21 35  1  1  0  0  0
 23 19  1  0  0  0  0
 23 16  1  0  0  0  0
 26 27  1  0  0  0  0
 27 28  2  0  0  0  0
 30 31  2  0  0  0  0
 31 28  1  0  0  0  0
 31 29  1  0  0  0  0
 32 26  2  0  0  0  0
 32 30  1  0  0  0  0
 33 34  1  0  0  0  0
 35 37  1  0  0  0  0
 36 37  1  0  0  0  0
M  END
>  <MODEL>
2

>  <REMARK>
 VINA RESULT:      -4.5      2.771      7.568
  Name = 
  4 active torsions:
  status: ('A' for Active; 'I' for Inactive)
    1  A    between atoms: C_5  and  C_23
    2  A    between atoms: C_6  and  C_7
    3  A    between atoms: C_14  and  C_31
    4  A    between atoms: C_14  and  C_37
                            x       y       z     vdW  Elec       q    Type
                         _______ _______ _______ _____ _____    ______ ____

>  <TORSDO>
F 4

$$$$
=
 OpenBabel11052415203D

 37 41  0  0  1  0  0  0  0  0999 V2000
  181.8860  177.7810  137.3210 C   0  0  0  0  0  0  0  0  0  0  0  0
  180.0070  175.7440  139.0930 C   0  0  0  0  0  0  0  0  0  0  0  0
  183.5510  174.6630  137.0890 C   0  0  2  0  0  3  0  0  0  0  0  0
  181.5220  177.9210  138.7700 C   0  0  2  0  0  0  0  0  0  0  0  0
  185.5130  175.9070  136.2050 C   0  0  1  0  0  3  0  0  0  0  0  0
  180.2330  173.2680  138.4040 C   0  0  0  0  0  3  0  0  0  0  0  0
  183.5920  177.4850  135.5250 C   0  0  0  0  0  2  0  0  0  0  0  0
  182.3250  176.8420  139.5090 C   0  0  2  0  0  3  0  0  0  0  0  0
  181.1420  174.9790  137.0470 O   0  0  0  0  0  0  0  0  0  0  0  0
  180.7730  172.3280  137.6250 C   0  0  0  0  0  3  0  0  0  0  0  0
  184.3050  178.2980  140.1500 C   0  0  0  0  0  2  0  0  0  0  0  0
  180.9700  177.6680  136.4620 O   0  0  0  0  0  0  0  0  0  0  0  0
  180.8240  176.9140  139.7040 C   0  0  2  0  0  3  0  0  0  0  0  0
  181.9680  172.6400  136.7620 C   0  0  0  0  0  2  0  0  0  0  0  0
  178.9310  176.2880  138.1630 C   0  0  0  0  0  1  0  0  0  0  0  0
  184.8760  177.8780  138.7940 C   0  0  0  0  0  2  0  0  0  0  0  0
  185.0590  177.0850  135.3350 C   0  0  0  0  0  2  0  0  0  0  0  0
  182.2000  174.1620  136.5820 C   0  0  2  0  0  3  0  0  0  0  0  0
  183.2670  177.8610  136.9020 N   0  0  0  0  0  0  0  0  0  0  0  0
  180.8530  174.6420  138.3860 C   0  0  1  0  0  3  0  0  0  0  0  0
  184.6310  174.6590  136.0070 C   0  0  1  0  0  3  0  0  0  0  0  0
  179.2750  175.1470  140.2880 C   0  0  0  0  0  1  0  0  0  0  0  0
  184.2210  178.6750  137.6640 C   0  0  0  0  0  2  0  0  0  0  0  0
  183.1630  177.4020  140.6540 C   0  0  0  0  0  2  0  0  0  0  0  0
  183.9580  174.0240  138.2660 O   0  0  0  0  0  1  0  0  0  0  0  0
  187.5610  175.4550  134.7840 C   0  0  0  0  0  3  0  0  0  0  0  0
  186.9900  175.6860  136.0450 C   0  0  0  0  0  0  0  0  0  0  0  0
  187.8050  175.6950  137.1820 C   0  0  0  0  0  3  0  0  0  0  0  0
  189.9680  175.4910  138.1640 F   0  0  0  0  0  0  0  0  0  0  0  0
  189.7470  175.2530  135.8030 C   0  0  0  0  0  3  0  0  0  0  0  0
  189.1820  175.4800  137.0610 C   0  0  0  0  0  0  0  0  0  0  0  0
  188.9360  175.2400  134.6640 C   0  0  0  0  0  3  0  0  0  0  0  0
  180.5690  180.2220  138.5400 C   0  0  0  0  0  1  0  0  0  0  0  0
  181.5190  179.3440  139.3310 C   0  0  0  0  0  2  0  0  0  0  0  0
  185.3910  173.3270  135.9620 C   0  0  0  0  0  2  0  0  0  0  0  0
  185.4900  171.3000  134.7060 O   0  0  0  0  0  1  0  0  0  0  0  0
  185.2550  172.6710  134.6000 C   0  0  0  0  0  2  0  0  0  0  0  0
  1  4  1  0  0  0  0
  2 22  1  0  0  0  0
  3 25  1  1  0  0  0
  4 34  1  1  0  0  0
  4  8  1  0  0  0  0
  4 13  1  0  0  0  0
  5 27  1  6  0  0  0
  7 19  1  0  0  0  0
  8 13  1  0  0  0  0
  8 24  1  1  0  0  0
  9 20  1  0  0  0  0
 10  6  2  0  0  0  0
 11 24  1  0  0  0  0
 12  1  2  0  0  0  0
 13  2  1  6  0  0  0
 14 10  1  0  0  0  0
 15  2  1  0  0  0  0
 16 11  1  0  0  0  0
 17  7  1  0  0  0  0
 17  5  1  0  0  0  0
 18 14  1  1  0  0  0
 18  9  1  0  0  0  0
 18  3  1  0  0  0  0
 19  1  1  0  0  0  0
 19 23  1  0  0  0  0
 20  6  1  6  0  0  0
 20  2  1  0  0  0  0
 21 35  1  1  0  0  0
 21  5  1  0  0  0  0
 21  3  1  0  0  0  0
 23 16  1  0  0  0  0
 26 27  1  0  0  0  0
 27 28  2  0  0  0  0
 30 31  2  0  0  0  0
 31 28  1  0  0  0  0
 31 29  1  0  0  0  0
 32 26  2  0  0  0  0
 32 30  1  0  0  0  0
 33 34  1  0  0  0  0
 37 36  1  0  0  0  0
 37 35  1  0  0  0  0
M  END
>  <MODEL>
3

>  <REMARK>
 VINA RESULT:      -4.0      2.020      3.073
  Name = 
  4 active torsions:
  status: ('A' for Active; 'I' for Inactive)
    1  A    between atoms: C_5  and  C_23
    2  A    between atoms: C_6  and  C_7
    3  A    between atoms: C_14  and  C_31
    4  A    between atoms: C_14  and  C_37
                            x       y       z     vdW  Elec       q    Type
                         _______ _______ _______ _____ _____    ______ ____

>  <TORSDO>
F 4

$$$$
