=
 OpenBabel11052414323D

 32 37  0  0  1  0  0  0  0  0999 V2000
  183.0770  179.3190  139.3620 C   0  0  1  0  0  3  0  0  0  0  0  0
  181.2200  179.1020  137.8910 C   0  0  1  0  0  0  0  0  0  0  0  0
  185.5940  176.9320  136.3740 C   0  0  0  0  0  0  0  0  0  0  0  0
  184.4570  179.6000  139.2140 O   0  0  0  0  0  0  0  0  0  0  0  0
  182.3220  180.0380  138.2670 C   0  0  1  0  0  3  0  0  0  0  0  0
  180.3020  179.5920  136.7810 C   0  0  2  0  0  3  0  0  0  0  0  0
  185.7200  176.4520  135.2150 O   0  0  0  0  0  0  0  0  0  0  0  0
  181.6920  177.6630  138.0550 C   0  0  1  0  0  3  0  0  0  0  0  0
  180.4310  181.1180  136.4790 C   0  0  1  0  0  3  0  0  0  0  0  0
  186.7640  177.6420  137.0170 C   0  0  1  0  0  3  0  0  0  0  0  0
  185.1000  178.5800  138.5530 C   0  0  0  0  0  0  0  0  0  0  0  0
  179.7610  179.4130  138.2030 C   0  0  0  0  0  2  0  0  0  0  0  0
  181.8800  181.4430  138.4860 C   0  0  0  0  0  3  0  0  0  0  0  0
  186.2530  178.7410  137.9040 C   0  0  0  0  0  3  0  0  0  0  0  0
  184.3560  176.7830  137.1030 N   0  0  0  0  0  0  0  0  0  0  0  0
  183.4730  175.6940  136.7080 C   0  0  0  0  0  1  0  0  0  0  0  0
  182.9110  177.8110  138.9980 C   0  0  1  0  0  3  0  0  0  0  0  0
  179.0710  181.6070  136.0080 C   0  0  0  0  0  1  0  0  0  0  0  0
  184.2910  177.3370  138.4680 C   0  0  2  0  0  3  0  0  0  0  0  0
  181.0140  181.9810  137.6190 C   0  0  0  0  0  0  0  0  0  0  0  0
  178.9310  175.0950  138.1880 O   0  0  0  0  0  0  0  0  0  0  0  0
  180.1440  175.1800  140.2640 C   0  0  0  0  0  2  0  0  0  0  0  0
  181.1910  175.9220  139.6870 O   0  0  0  0  0  0  0  0  0  0  0  0
  180.6320  176.7290  138.6720 C   0  0  2  0  0  3  0  0  0  0  0  0
  179.4940  174.2900  139.1970 C   0  0  0  0  0  2  0  0  0  0  0  0
  179.9770  175.8380  137.6070 C   0  0  0  0  0  2  0  0  0  0  0  0
  180.7480  183.3840  137.7480 N   0  0  0  0  0  2  0  0  0  0  0  0
  181.5540  184.4380  137.1540 C   0  0  0  0  0  2  0  0  0  0  0  0
  180.9160  184.8910  135.8570 C   0  0  0  0  0  1  0  0  0  0  0  0
  187.5960  176.6660  137.8370 C   0  0  0  0  0  2  0  0  0  0  0  0
  189.0810  177.3790  139.6830 C   0  0  0  0  0  1  0  0  0  0  0  0
  188.9440  177.2710  138.1790 C   0  0  0  0  0  2  0  0  0  0  0  0
  1  4  1  6  0  0  0
  2  8  1  0  0  0  0
  2 12  1  1  0  0  0
  2  5  1  0  0  0  0
  3 10  1  0  0  0  0
  3 15  1  0  0  0  0
  5 13  1  1  0  0  0
  5  1  1  0  0  0  0
  6  2  1  0  0  0  0
  6 12  1  1  0  0  0
  7  3  2  0  0  0  0
  8 24  1  1  0  0  0
  8 17  1  0  0  0  0
  9 18  1  1  0  0  0
  9  6  1  0  0  0  0
  9 20  1  0  0  0  0
 10 30  1  1  0  0  0
 10 14  1  0  0  0  0
 11  4  1  0  0  0  0
 14 11  2  0  0  0  0
 15 19  1  0  0  0  0
 16 15  1  0  0  0  0
 17  1  1  0  0  0  0
 19 11  1  0  0  0  0
 19 17  1  0  0  0  0
 20 27  1  0  0  0  0
 20 13  2  0  0  0  0
 21 25  1  0  0  0  0
 23 22  1  0  0  0  0
 24 23  1  0  0  0  0
 25 22  1  0  0  0  0
 26 21  1  0  0  0  0
 26 24  1  0  0  0  0
 28 27  1  0  0  0  0
 29 28  1  0  0  0  0
 30 32  1  0  0  0  0
 32 31  1  0  0  0  0
M  END
>  <MODEL>
1

>  <REMARK>
 VINA RESULT:      -5.6      0.000      0.000
  Name = 
  5 active torsions:
  status: ('A' for Active; 'I' for Inactive)
    1  A    between atoms: C_10  and  C_28
    2  A    between atoms: N_14  and  C_21
    3  A    between atoms: N_14  and  C_29
    4  A    between atoms: C_15  and  C_19
    5  A    between atoms: C_19  and  C_26
                            x       y       z     vdW  Elec       q    Type
                         _______ _______ _______ _____ _____    ______ ____

>  <TORSDO>
F 5

$$$$
=
 OpenBabel11052414323D

 32 37  0  0  1  0  0  0  0  0999 V2000
  182.5880  177.8020  137.4250 C   0  0  1  0  0  3  0  0  0  0  0  0
  184.0640  177.9960  139.2810 C   0  0  1  0  0  0  0  0  0  0  0  0
  183.7940  173.4010  137.0540 C   0  0  0  0  0  0  0  0  0  0  0  0
  181.6460  176.8440  136.9770 O   0  0  0  0  0  0  0  0  0  0  0  0
  182.6290  177.7640  138.9370 C   0  0  1  0  0  3  0  0  0  0  0  0
  184.3820  177.9950  140.7690 C   0  0  2  0  0  3  0  0  0  0  0  0
  184.3550  172.3920  137.5620 O   0  0  0  0  0  0  0  0  0  0  0  0
  184.9530  177.3910  138.2020 C   0  0  1  0  0  3  0  0  0  0  0  0
  183.1260  178.1220  141.6870 C   0  0  1  0  0  3  0  0  0  0  0  0
  182.4530  173.2440  136.3740 C   0  0  1  0  0  3  0  0  0  0  0  0
  182.2690  175.6770  136.6040 C   0  0  0  0  0  0  0  0  0  0  0  0
  184.5300  179.2820  139.9520 C   0  0  0  0  0  2  0  0  0  0  0  0
  181.6730  178.6010  139.7140 C   0  0  0  0  0  3  0  0  0  0  0  0
  181.6490  174.4980  136.5620 C   0  0  0  0  0  3  0  0  0  0  0  0
  184.4350  174.6950  137.0890 N   0  0  0  0  0  0  0  0  0  0  0  0
  185.8800  174.7240  137.2600 C   0  0  0  0  0  1  0  0  0  0  0  0
  183.9860  177.2510  137.0030 C   0  0  1  0  0  3  0  0  0  0  0  0
  183.5530  178.8560  142.9470 C   0  0  0  0  0  1  0  0  0  0  0  0
  183.7390  175.8240  136.4420 C   0  0  2  0  0  3  0  0  0  0  0  0
  181.8740  178.7430  141.0290 C   0  0  0  0  0  0  0  0  0  0  0  0
  188.4200  178.8650  138.4240 O   0  0  0  0  0  0  0  0  0  0  0  0
  187.5430  179.0300  136.1890 C   0  0  0  0  0  2  0  0  0  0  0  0
  186.5050  178.1210  136.4690 O   0  0  0  0  0  0  0  0  0  0  0  0
  186.1630  178.2730  137.8310 C   0  0  2  0  0  3  0  0  0  0  0  0
  188.7600  178.7090  137.0660 C   0  0  0  0  0  2  0  0  0  0  0  0
  187.3830  177.9560  138.7070 C   0  0  0  0  0  2  0  0  0  0  0  0
  180.8430  179.3980  141.7800 N   0  0  0  0  0  2  0  0  0  0  0  0
  179.6960  178.7290  142.3690 C   0  0  0  0  0  2  0  0  0  0  0  0
  179.9810  178.4270  143.8260 C   0  0  0  0  0  1  0  0  0  0  0  0
  182.6380  172.9700  134.8870 C   0  0  0  0  0  2  0  0  0  0  0  0
  181.5520  170.8230  135.4630 C   0  0  0  0  0  1  0  0  0  0  0  0
  182.6190  171.4790  134.6130 C   0  0  0  0  0  2  0  0  0  0  0  0
  1  4  1  6  0  0  0
  1  5  1  0  0  0  0
  2 12  1  6  0  0  0
  2  6  1  0  0  0  0
  3 15  1  0  0  0  0
  3  7  2  0  0  0  0
  5  2  1  0  0  0  0
  5 13  1  1  0  0  0
  6 12  1  6  0  0  0
  6  9  1  0  0  0  0
  8 24  1  6  0  0  0
  8  2  1  0  0  0  0
  9 18  1  1  0  0  0
 10 30  1  6  0  0  0
 10 14  1  0  0  0  0
 10  3  1  0  0  0  0
 11  4  1  0  0  0  0
 13 20  2  0  0  0  0
 14 11  2  0  0  0  0
 15 16  1  0  0  0  0
 17  1  1  0  0  0  0
 17  8  1  0  0  0  0
 19 11  1  0  0  0  0
 19 17  1  0  0  0  0
 19 15  1  0  0  0  0
 20  9  1  0  0  0  0
 20 27  1  0  0  0  0
 21 26  1  0  0  0  0
 22 23  1  0  0  0  0
 22 25  1  0  0  0  0
 23 24  1  0  0  0  0
 24 26  1  0  0  0  0
 25 21  1  0  0  0  0
 27 28  1  0  0  0  0
 28 29  1  0  0  0  0
 32 30  1  0  0  0  0
 32 31  1  0  0  0  0
M  END
>  <MODEL>
2

>  <REMARK>
 VINA RESULT:      -5.3      3.181      6.424
  Name = 
  5 active torsions:
  status: ('A' for Active; 'I' for Inactive)
    1  A    between atoms: C_10  and  C_28
    2  A    between atoms: N_14  and  C_21
    3  A    between atoms: N_14  and  C_29
    4  A    between atoms: C_15  and  C_19
    5  A    between atoms: C_19  and  C_26
                            x       y       z     vdW  Elec       q    Type
                         _______ _______ _______ _____ _____    ______ ____

>  <TORSDO>
F 5

$$$$
=
 OpenBabel11052414323D

 32 37  0  0  1  0  0  0  0  0999 V2000
  184.0140  178.5540  138.6220 C   0  0  1  0  0  3  0  0  0  0  0  0
  181.9970  177.8140  137.6010 C   0  0  1  0  0  0  0  0  0  0  0  0
  181.8260  178.6490  142.6420 C   0  0  0  0  0  0  0  0  0  0  0  0
  184.7120  178.2530  139.8170 O   0  0  0  0  0  0  0  0  0  0  0  0
  183.2840  177.3100  138.1680 C   0  0  1  0  0  3  0  0  0  0  0  0
  181.0550  176.7410  137.0730 C   0  0  2  0  0  3  0  0  0  0  0  0
  180.8170  178.3260  143.3260 O   0  0  0  0  0  0  0  0  0  0  0  0
  181.5560  179.0600  138.3590 C   0  0  1  0  0  3  0  0  0  0  0  0
  181.7300  175.3490  136.8720 C   0  0  1  0  0  3  0  0  0  0  0  0
  183.2080  178.4870  143.2320 C   0  0  1  0  0  3  0  0  0  0  0  0
  184.0030  178.6650  140.9200 C   0  0  0  0  0  0  0  0  0  0  0  0
  181.6960  177.7450  136.1080 C   0  0  0  0  0  2  0  0  0  0  0  0
  183.9870  176.3250  137.3000 C   0  0  0  0  0  3  0  0  0  0  0  0
  184.1800  178.1520  142.1370 C   0  0  0  0  0  3  0  0  0  0  0  0
  181.6700  179.2010  141.3160 N   0  0  0  0  0  0  0  0  0  0  0  0
  180.3910  179.8160  140.9920 C   0  0  0  0  0  1  0  0  0  0  0  0
  182.8670  179.5270  139.0360 C   0  0  1  0  0  3  0  0  0  0  0  0
  181.0260  174.6620  135.7130 C   0  0  0  0  0  1  0  0  0  0  0  0
  182.8910  179.5930  140.5870 C   0  0  2  0  0  3  0  0  0  0  0  0
  183.2660  175.3630  136.7130 C   0  0  0  0  0  0  0  0  0  0  0  0
  178.9710  181.0650  136.4780 O   0  0  0  0  0  0  0  0  0  0  0  0
  180.9310  182.3830  136.9400 C   0  0  0  0  0  2  0  0  0  0  0  0
  181.4100  181.4450  137.8750 O   0  0  0  0  0  0  0  0  0  0  0  0
  180.9820  180.1670  137.4530 C   0  0  2  0  0  3  0  0  0  0  0  0
  179.3980  182.3380  136.9050 C   0  0  0  0  0  2  0  0  0  0  0  0
  179.4480  180.1240  137.4120 C   0  0  0  0  0  2  0  0  0  0  0  0
  183.9890  174.3260  136.0360 N   0  0  0  0  0  2  0  0  0  0  0  0
  184.1000  172.9540  136.5010 C   0  0  0  0  0  2  0  0  0  0  0  0
  185.0530  172.8950  137.6760 C   0  0  0  0  0  1  0  0  0  0  0  0
  183.6440  179.7690  143.9300 C   0  0  0  0  0  2  0  0  0  0  0  0
  184.6170  178.6280  145.8980 C   0  0  0  0  0  1  0  0  0  0  0  0
  184.9150  179.5370  144.7250 C   0  0  0  0  0  2  0  0  0  0  0  0
  1 17  1  0  0  0  0
  1  4  1  1  0  0  0
  2 12  1  6  0  0  0
  2  5  1  0  0  0  0
  2  8  1  0  0  0  0
  3 10  1  0  0  0  0
  3  7  2  0  0  0  0
  4 11  1  0  0  0  0
  5 13  1  6  0  0  0
  5  1  1  0  0  0  0
  6 12  1  6  0  0  0
  6  2  1  0  0  0  0
  8 24  1  6  0  0  0
  8 17  1  0  0  0  0
  9 18  1  6  0  0  0
  9  6  1  0  0  0  0
 10 30  1  6  0  0  0
 11 14  2  0  0  0  0
 14 10  1  0  0  0  0
 15  3  1  0  0  0  0
 16 15  1  0  0  0  0
 17 19  1  0  0  0  0
 19 11  1  0  0  0  0
 19 15  1  0  0  0  0
 20  9  1  0  0  0  0
 20 13  2  0  0  0  0
 21 25  1  0  0  0  0
 21 26  1  0  0  0  0
 22 23  1  0  0  0  0
 24 23  1  0  0  0  0
 25 22  1  0  0  0  0
 26 24  1  0  0  0  0
 27 28  1  0  0  0  0
 27 20  1  0  0  0  0
 28 29  1  0  0  0  0
 30 32  1  0  0  0  0
 32 31  1  0  0  0  0
M  END
>  <MODEL>
3

>  <REMARK>
 VINA RESULT:      -5.3      3.100      6.496
  Name = 
  5 active torsions:
  status: ('A' for Active; 'I' for Inactive)
    1  A    between atoms: C_10  and  C_28
    2  A    between atoms: N_14  and  C_21
    3  A    between atoms: N_14  and  C_29
    4  A    between atoms: C_15  and  C_19
    5  A    between atoms: C_19  and  C_26
                            x       y       z     vdW  Elec       q    Type
                         _______ _______ _______ _____ _____    ______ ____

>  <TORSDO>
F 5

$$$$
=
 OpenBabel11052414323D

 32 37  0  0  1  0  0  0  0  0999 V2000
  189.0370  178.4800  138.8970 C   0  0  1  0  0  3  0  0  0  0  0  0
  190.3730  176.8720  140.0320 C   0  0  1  0  0  0  0  0  0  0  0  0
  186.7230  175.0420  136.9530 C   0  0  0  0  0  0  0  0  0  0  0  0
  187.6590  178.6280  138.6070 O   0  0  0  0  0  0  0  0  0  0  0  0
  189.1750  177.7460  140.2120 C   0  0  1  0  0  3  0  0  0  0  0  0
  190.7280  176.0030  141.2300 C   0  0  2  0  0  3  0  0  0  0  0  0
  186.4450  173.8120  136.9250 O   0  0  0  0  0  0  0  0  0  0  0  0
  190.4690  176.4270  138.5780 C   0  0  1  0  0  3  0  0  0  0  0  0
  190.0230  176.4310  142.5540 C   0  0  1  0  0  3  0  0  0  0  0  0
  185.6140  176.0590  136.8190 C   0  0  1  0  0  3  0  0  0  0  0  0
  187.2330  177.6570  137.7320 C   0  0  0  0  0  0  0  0  0  0  0  0
  191.6720  177.1250  140.7870 C   0  0  0  0  0  2  0  0  0  0  0  0
  189.1700  178.5190  141.4840 C   0  0  0  0  0  3  0  0  0  0  0  0
  185.9590  177.2800  137.6220 C   0  0  0  0  0  3  0  0  0  0  0  0
  188.0930  175.4840  137.0800 N   0  0  0  0  0  0  0  0  0  0  0  0
  189.1380  174.5490  136.6890 C   0  0  0  0  0  1  0  0  0  0  0  0
  189.5850  177.4650  137.8460 C   0  0  1  0  0  3  0  0  0  0  0  0
  190.9560  176.0800  143.7030 C   0  0  0  0  0  1  0  0  0  0  0  0
  188.3490  176.9360  137.0680 C   0  0  2  0  0  3  0  0  0  0  0  0
  189.5300  177.8940  142.6110 C   0  0  0  0  0  0  0  0  0  0  0  0
  193.9910  175.2380  137.9290 O   0  0  0  0  0  0  0  0  0  0  0  0
  193.2510  176.7530  136.2120 C   0  0  0  0  0  2  0  0  0  0  0  0
  191.9090  176.6520  136.6230 O   0  0  0  0  0  0  0  0  0  0  0  0
  191.9050  176.4390  138.0190 C   0  0  2  0  0  3  0  0  0  0  0  0
  193.9890  175.4480  136.5370 C   0  0  0  0  0  2  0  0  0  0  0  0
  192.6480  175.1350  138.3430 C   0  0  0  0  0  2  0  0  0  0  0  0
  189.3420  178.6050  143.8420 N   0  0  0  0  0  2  0  0  0  0  0  0
  188.7340  178.0460  145.0370 C   0  0  0  0  0  2  0  0  0  0  0  0
  187.3610  177.5040  144.6980 C   0  0  0  0  0  1  0  0  0  0  0  0
  185.4160  176.4430  135.3590 C   0  0  0  0  0  2  0  0  0  0  0  0
  182.9650  176.1270  135.4770 C   0  0  0  0  0  1  0  0  0  0  0  0
  184.0690  177.1130  135.1620 C   0  0  0  0  0  2  0  0  0  0  0  0
  1  4  1  6  0  0  0
  1  5  1  0  0  0  0
  2  5  1  0  0  0  0
  2 12  1  1  0  0  0
  2  6  1  0  0  0  0
  3 15  1  0  0  0  0
  5 13  1  1  0  0  0
  6 12  1  1  0  0  0
  6  9  1  0  0  0  0
  7  3  2  0  0  0  0
  8 24  1  6  0  0  0
  8  2  1  0  0  0  0
  9 20  1  0  0  0  0
  9 18  1  1  0  0  0
 10 30  1  6  0  0  0
 10  3  1  0  0  0  0
 10 14  1  0  0  0  0
 11  4  1  0  0  0  0
 13 20  2  0  0  0  0
 14 11  2  0  0  0  0
 16 15  1  0  0  0  0
 17  8  1  0  0  0  0
 17  1  1  0  0  0  0
 19 15  1  0  0  0  0
 19 11  1  0  0  0  0
 19 17  1  0  0  0  0
 20 27  1  0  0  0  0
 21 26  1  0  0  0  0
 22 25  1  0  0  0  0
 22 23  1  0  0  0  0
 23 24  1  0  0  0  0
 24 26  1  0  0  0  0
 25 21  1  0  0  0  0
 27 28  1  0  0  0  0
 29 28  1  0  0  0  0
 32 30  1  0  0  0  0
 32 31  1  0  0  0  0
M  END
>  <MODEL>
4

>  <REMARK>
 VINA RESULT:      -5.2      4.905      9.508
  Name = 
  5 active torsions:
  status: ('A' for Active; 'I' for Inactive)
    1  A    between atoms: C_10  and  C_28
    2  A    between atoms: N_14  and  C_21
    3  A    between atoms: N_14  and  C_29
    4  A    between atoms: C_15  and  C_19
    5  A    between atoms: C_19  and  C_26
                            x       y       z     vdW  Elec       q    Type
                         _______ _______ _______ _____ _____    ______ ____

>  <TORSDO>
F 5

$$$$
=
 OpenBabel11052414323D

 32 37  0  0  1  0  0  0  0  0999 V2000
  192.3250  177.5200  139.4860 C   0  0  1  0  0  3  0  0  0  0  0  0
  191.1560  176.0640  138.0130 C   0  0  1  0  0  0  0  0  0  0  0  0
  189.3690  176.3860  142.7930 C   0  0  0  0  0  0  0  0  0  0  0  0
  192.7560  177.4630  140.8340 O   0  0  0  0  0  0  0  0  0  0  0  0
  192.3440  176.1190  138.9170 C   0  0  1  0  0  3  0  0  0  0  0  0
  190.9370  174.7310  137.3100 C   0  0  2  0  0  3  0  0  0  0  0  0
  188.4620  175.6140  143.2070 O   0  0  0  0  0  0  0  0  0  0  0  0
  190.0450  176.9430  138.5720 C   0  0  1  0  0  3  0  0  0  0  0  0
  192.1720  173.7790  137.3580 C   0  0  1  0  0  3  0  0  0  0  0  0
  190.4870  176.7890  143.7270 C   0  0  1  0  0  3  0  0  0  0  0  0
  191.6850  177.4530  141.6950 C   0  0  0  0  0  0  0  0  0  0  0  0
  191.3040  175.9780  136.4990 C   0  0  0  0  0  2  0  0  0  0  0  0
  193.5980  175.5940  138.3090 C   0  0  0  0  0  3  0  0  0  0  0  0
  191.7500  176.9800  142.9390 C   0  0  0  0  0  3  0  0  0  0  0  0
  189.3330  176.9100  141.4470 N   0  0  0  0  0  0  0  0  0  0  0  0
  188.0420  176.9400  140.7740 C   0  0  0  0  0  1  0  0  0  0  0  0
  190.8070  177.8780  139.5420 C   0  0  1  0  0  3  0  0  0  0  0  0
  192.1520  172.9410  136.0890 C   0  0  0  0  0  1  0  0  0  0  0  0
  190.4070  177.8370  141.0420 C   0  0  2  0  0  3  0  0  0  0  0  0
  193.5370  174.4610  137.6020 C   0  0  0  0  0  0  0  0  0  0  0  0
  187.4770  177.7390  135.9240 O   0  0  0  0  0  0  0  0  0  0  0  0
  188.3560  179.7470  136.9190 C   0  0  0  0  0  2  0  0  0  0  0  0
  188.9330  179.0330  137.9860 O   0  0  0  0  0  0  0  0  0  0  0  0
  189.3010  177.7600  137.4970 C   0  0  2  0  0  3  0  0  0  0  0  0
  187.1090  179.0060  136.4170 C   0  0  0  0  0  2  0  0  0  0  0  0
  188.0540  177.0220  136.9900 C   0  0  0  0  0  2  0  0  0  0  0  0
  194.7810  173.8830  137.1850 N   0  0  0  0  0  2  0  0  0  0  0  0
  195.6990  173.1720  138.0590 C   0  0  0  0  0  2  0  0  0  0  0  0
  195.4310  171.6840  137.9680 C   0  0  0  0  0  1  0  0  0  0  0  0
  190.1350  178.0810  144.4530 C   0  0  0  0  0  2  0  0  0  0  0  0
  188.1610  177.8780  145.9310 C   0  0  0  0  0  1  0  0  0  0  0  0
  189.6700  177.7880  145.8670 C   0  0  0  0  0  2  0  0  0  0  0  0
  1 17  1  0  0  0  0
  1  4  1  1  0  0  0
  2 12  1  6  0  0  0
  2  8  1  0  0  0  0
  2  5  1  0  0  0  0
  3  7  2  0  0  0  0
  3 10  1  0  0  0  0
  4 11  1  0  0  0  0
  5 13  1  6  0  0  0
  5  1  1  0  0  0  0
  6 12  1  6  0  0  0
  6  9  1  0  0  0  0
  6  2  1  0  0  0  0
  8 24  1  6  0  0  0
  8 17  1  0  0  0  0
  9 18  1  6  0  0  0
  9 20  1  0  0  0  0
 10 30  1  6  0  0  0
 11 14  2  0  0  0  0
 14 10  1  0  0  0  0
 15  3  1  0  0  0  0
 16 15  1  0  0  0  0
 17 19  1  0  0  0  0
 19 15  1  0  0  0  0
 19 11  1  0  0  0  0
 20 13  2  0  0  0  0
 21 25  1  0  0  0  0
 21 26  1  0  0  0  0
 22 23  1  0  0  0  0
 24 23  1  0  0  0  0
 25 22  1  0  0  0  0
 26 24  1  0  0  0  0
 27 20  1  0  0  0  0
 27 28  1  0  0  0  0
 29 28  1  0  0  0  0
 30 32  1  0  0  0  0
 32 31  1  0  0  0  0
M  END
>  <MODEL>
5

>  <REMARK>
 VINA RESULT:      -5.2      6.276     10.761
  Name = 
  5 active torsions:
  status: ('A' for Active; 'I' for Inactive)
    1  A    between atoms: C_10  and  C_28
    2  A    between atoms: N_14  and  C_21
    3  A    between atoms: N_14  and  C_29
    4  A    between atoms: C_15  and  C_19
    5  A    between atoms: C_19  and  C_26
                            x       y       z     vdW  Elec       q    Type
                         _______ _______ _______ _____ _____    ______ ____

>  <TORSDO>
F 5

$$$$
=
 OpenBabel11052414323D

 32 37  0  0  1  0  0  0  0  0999 V2000
  185.3020  178.7900  139.1200 C   0  0  1  0  0  3  0  0  0  0  0  0
  183.3890  177.4770  139.6460 C   0  0  1  0  0  0  0  0  0  0  0  0
  187.2730  177.2750  142.9650 C   0  0  0  0  0  0  0  0  0  0  0  0
  186.7050  178.5990  139.1710 O   0  0  0  0  0  0  0  0  0  0  0  0
  184.6470  177.4560  138.8410 C   0  0  1  0  0  3  0  0  0  0  0  0
  182.5340  176.2220  139.5480 C   0  0  2  0  0  3  0  0  0  0  0  0
  187.2770  176.4520  143.9200 O   0  0  0  0  0  0  0  0  0  0  0  0
  183.6120  178.2780  140.9230 C   0  0  1  0  0  3  0  0  0  0  0  0
  182.9130  175.2880  138.3570 C   0  0  1  0  0  3  0  0  0  0  0  0
  188.5680  177.5950  142.2530 C   0  0  1  0  0  3  0  0  0  0  0  0
  187.1410  178.4840  140.4700 C   0  0  0  0  0  0  0  0  0  0  0  0
  182.0160  177.5520  138.9890 C   0  0  0  0  0  2  0  0  0  0  0  0
  184.4600  177.0150  137.4310 C   0  0  0  0  0  3  0  0  0  0  0  0
  188.2820  177.8850  140.8080 C   0  0  0  0  0  3  0  0  0  0  0  0
  186.0520  177.9360  142.5680 N   0  0  0  0  0  0  0  0  0  0  0  0
  184.9830  178.0170  143.5530 C   0  0  0  0  0  1  0  0  0  0  0  0
  184.8670  179.1170  140.5830 C   0  0  1  0  0  3  0  0  0  0  0  0
  181.6430  174.5870  137.9030 C   0  0  0  0  0  1  0  0  0  0  0  0
  186.1270  178.9150  141.4670 C   0  0  2  0  0  3  0  0  0  0  0  0
  183.6730  175.9600  137.1920 C   0  0  0  0  0  0  0  0  0  0  0  0
  180.7790  180.7240  140.4390 O   0  0  0  0  0  0  0  0  0  0  0  0
  180.4700  179.4140  142.4340 C   0  0  0  0  0  2  0  0  0  0  0  0
  181.4590  178.4900  142.0490 O   0  0  0  0  0  0  0  0  0  0  0  0
  182.4270  179.1910  141.2960 C   0  0  2  0  0  3  0  0  0  0  0  0
  179.8150  180.0190  141.1860 C   0  0  0  0  0  2  0  0  0  0  0  0
  181.7690  179.8010  140.0500 C   0  0  0  0  0  2  0  0  0  0  0  0
  183.6570  175.4470  135.8530 N   0  0  0  0  0  2  0  0  0  0  0  0
  183.2890  176.2160  134.6760 C   0  0  0  0  0  2  0  0  0  0  0  0
  181.8930  176.7750  134.8540 C   0  0  0  0  0  1  0  0  0  0  0  0
  189.2450  178.7990  142.8940 C   0  0  0  0  0  2  0  0  0  0  0  0
  191.4760  179.0070  143.9450 C   0  0  0  0  0  1  0  0  0  0  0  0
  190.1100  178.3650  144.0620 C   0  0  0  0  0  2  0  0  0  0  0  0
  1  4  1  1  0  0  0
  1 17  1  0  0  0  0
  2 12  1  6  0  0  0
  2  8  1  0  0  0  0
  3  7  2  0  0  0  0
  4 11  1  0  0  0  0
  5 13  1  6  0  0  0
  5  1  1  0  0  0  0
  5  2  1  0  0  0  0
  6 12  1  6  0  0  0
  6  2  1  0  0  0  0
  8 24  1  6  0  0  0
  9 18  1  6  0  0  0
  9  6  1  0  0  0  0
 10 30  1  1  0  0  0
 10  3  1  0  0  0  0
 11 14  2  0  0  0  0
 11 19  1  0  0  0  0
 14 10  1  0  0  0  0
 15  3  1  0  0  0  0
 15 16  1  0  0  0  0
 17  8  1  0  0  0  0
 17 19  1  0  0  0  0
 19 15  1  0  0  0  0
 20 13  2  0  0  0  0
 20  9  1  0  0  0  0
 21 25  1  0  0  0  0
 23 22  1  0  0  0  0
 24 23  1  0  0  0  0
 25 22  1  0  0  0  0
 26 21  1  0  0  0  0
 26 24  1  0  0  0  0
 27 20  1  0  0  0  0
 28 29  1  0  0  0  0
 28 27  1  0  0  0  0
 30 32  1  0  0  0  0
 31 32  1  0  0  0  0
M  END
>  <MODEL>
6

>  <REMARK>
 VINA RESULT:      -5.0      3.396      5.620
  Name = 
  5 active torsions:
  status: ('A' for Active; 'I' for Inactive)
    1  A    between atoms: C_10  and  C_28
    2  A    between atoms: N_14  and  C_21
    3  A    between atoms: N_14  and  C_29
    4  A    between atoms: C_15  and  C_19
    5  A    between atoms: C_19  and  C_26
                            x       y       z     vdW  Elec       q    Type
                         _______ _______ _______ _____ _____    ______ ____

>  <TORSDO>
F 5

$$$$
=
 OpenBabel11052414323D

 32 37  0  0  1  0  0  0  0  0999 V2000
  184.4490  179.3800  140.0530 C   0  0  1  0  0  3  0  0  0  0  0  0
  186.3410  178.1940  140.8710 C   0  0  1  0  0  0  0  0  0  0  0  0
  183.0010  175.5090  138.0830 C   0  0  0  0  0  0  0  0  0  0  0  0
  183.0620  179.1180  139.9400 O   0  0  0  0  0  0  0  0  0  0  0  0
  184.9770  178.6530  141.2690 C   0  0  1  0  0  3  0  0  0  0  0  0
  187.0990  177.4120  141.9350 C   0  0  2  0  0  3  0  0  0  0  0  0
  183.0950  174.2560  137.9750 O   0  0  0  0  0  0  0  0  0  0  0  0
  186.3610  177.8770  139.3820 C   0  0  1  0  0  3  0  0  0  0  0  0
  186.4900  177.5350  143.3660 C   0  0  1  0  0  3  0  0  0  0  0  0
  181.6340  176.1480  138.1730 C   0  0  1  0  0  3  0  0  0  0  0  0
  182.8220  178.1110  139.0340 C   0  0  0  0  0  0  0  0  0  0  0  0
  187.6000  178.7890  141.4900 C   0  0  0  0  0  2  0  0  0  0  0  0
  184.9220  179.3200  142.5990 C   0  0  0  0  0  3  0  0  0  0  0  0
  181.7130  177.3720  139.0390 C   0  0  0  0  0  3  0  0  0  0  0  0
  184.1840  176.3380  138.0900 N   0  0  0  0  0  0  0  0  0  0  0  0
  185.3930  175.7860  137.4960 C   0  0  0  0  0  1  0  0  0  0  0  0
  185.1190  178.6350  138.8560 C   0  0  1  0  0  3  0  0  0  0  0  0
  187.6340  177.4240  144.3610 C   0  0  0  0  0  1  0  0  0  0  0  0
  183.9980  177.7990  138.1820 C   0  0  2  0  0  3  0  0  0  0  0  0
  185.6020  178.7750  143.6140 C   0  0  0  0  0  0  0  0  0  0  0  0
  189.8650  177.7300  137.9890 O   0  0  0  0  0  0  0  0  0  0  0  0
  188.5390  179.3780  136.8420 C   0  0  0  0  0  2  0  0  0  0  0  0
  187.3420  178.8740  137.3840 O   0  0  0  0  0  0  0  0  0  0  0  0
  187.6390  178.3540  138.6630 C   0  0  2  0  0  3  0  0  0  0  0  0
  189.5640  178.2440  136.7130 C   0  0  0  0  0  2  0  0  0  0  0  0
  188.6690  177.2230  138.5330 C   0  0  0  0  0  2  0  0  0  0  0  0
  185.3850  179.3300  144.9180 N   0  0  0  0  0  2  0  0  0  0  0  0
  184.7540  178.6280  146.0230 C   0  0  0  0  0  2  0  0  0  0  0  0
  185.6800  178.6340  147.2200 C   0  0  0  0  0  1  0  0  0  0  0  0
  181.1310  176.5300  136.7880 C   0  0  0  0  0  2  0  0  0  0  0  0
  179.3590  174.8950  137.3400 C   0  0  0  0  0  1  0  0  0  0  0  0
  180.2280  175.4470  136.2300 C   0  0  0  0  0  2  0  0  0  0  0  0
  1  4  1  6  0  0  0
  1  5  1  0  0  0  0
  2  5  1  0  0  0  0
  2 12  1  1  0  0  0
  2  6  1  0  0  0  0
  3 15  1  0  0  0  0
  3 10  1  0  0  0  0
  5 13  1  1  0  0  0
  6 12  1  1  0  0  0
  6  9  1  0  0  0  0
  7  3  2  0  0  0  0
  8 24  1  6  0  0  0
  8  2  1  0  0  0  0
  9 20  1  0  0  0  0
  9 18  1  1  0  0  0
 10 30  1  6  0  0  0
 10 14  1  0  0  0  0
 11 14  2  0  0  0  0
 11  4  1  0  0  0  0
 13 20  2  0  0  0  0
 15 19  1  0  0  0  0
 16 15  1  0  0  0  0
 17  8  1  0  0  0  0
 17  1  1  0  0  0  0
 19 17  1  0  0  0  0
 19 11  1  0  0  0  0
 20 27  1  0  0  0  0
 21 26  1  0  0  0  0
 22 23  1  0  0  0  0
 23 24  1  0  0  0  0
 25 22  1  0  0  0  0
 25 21  1  0  0  0  0
 26 24  1  0  0  0  0
 27 28  1  0  0  0  0
 28 29  1  0  0  0  0
 32 30  1  0  0  0  0
 32 31  1  0  0  0  0
M  END
>  <MODEL>
7

>  <REMARK>
 VINA RESULT:      -4.9      3.458      7.617
  Name = 
  5 active torsions:
  status: ('A' for Active; 'I' for Inactive)
    1  A    between atoms: C_10  and  C_28
    2  A    between atoms: N_14  and  C_21
    3  A    between atoms: N_14  and  C_29
    4  A    between atoms: C_15  and  C_19
    5  A    between atoms: C_19  and  C_26
                            x       y       z     vdW  Elec       q    Type
                         _______ _______ _______ _____ _____    ______ ____

>  <TORSDO>
F 5

$$$$
=
 OpenBabel11052414323D

 32 37  0  0  1  0  0  0  0  0999 V2000
  182.5930  178.1330  138.3580 C   0  0  1  0  0  3  0  0  0  0  0  0
  181.2620  178.1570  136.3860 C   0  0  1  0  0  0  0  0  0  0  0  0
  186.1910  176.9370  135.7930 C   0  0  0  0  0  0  0  0  0  0  0  0
  183.8910  178.5770  138.7070 O   0  0  0  0  0  0  0  0  0  0  0  0
  182.0420  179.0530  137.2910 C   0  0  1  0  0  3  0  0  0  0  0  0
  180.6010  178.8470  135.2010 C   0  0  2  0  0  3  0  0  0  0  0  0
  186.7030  176.8150  134.6470 O   0  0  0  0  0  0  0  0  0  0  0  0
  181.9180  176.7830  136.3360 C   0  0  1  0  0  3  0  0  0  0  0  0
  180.5370  180.4000  135.3280 C   0  0  1  0  0  3  0  0  0  0  0  0
  187.0050  177.5490  136.9100 C   0  0  1  0  0  3  0  0  0  0  0  0
  184.8550  177.8510  138.0480 C   0  0  0  0  0  0  0  0  0  0  0  0
  179.7410  178.2240  136.3060 C   0  0  0  0  0  2  0  0  0  0  0  0
  181.3190  180.2900  137.6960 C   0  0  0  0  0  3  0  0  0  0  0  0
  186.0920  178.3000  137.8370 C   0  0  0  0  0  3  0  0  0  0  0  0
  184.8500  176.4690  136.0540 N   0  0  0  0  0  0  0  0  0  0  0  0
  184.3090  175.4540  135.1610 C   0  0  0  0  0  1  0  0  0  0  0  0
  182.7960  176.7780  137.6100 C   0  0  1  0  0  3  0  0  0  0  0  0
  179.2870  180.8670  134.5980 C   0  0  0  0  0  1  0  0  0  0  0  0
  184.3280  176.6090  137.4260 C   0  0  2  0  0  3  0  0  0  0  0  0
  180.6350  180.9620  136.7630 C   0  0  0  0  0  0  0  0  0  0  0  0
  179.7780  173.9690  135.0160 O   0  0  0  0  0  0  0  0  0  0  0  0
  180.2530  173.6790  137.3570 C   0  0  0  0  0  2  0  0  0  0  0  0
  181.2700  174.6520  137.3290 O   0  0  0  0  0  0  0  0  0  0  0  0
  180.9120  175.6150  136.3600 C   0  0  2  0  0  3  0  0  0  0  0  0
  180.1410  173.0100  135.9810 C   0  0  0  0  0  2  0  0  0  0  0  0
  180.7950  174.9430  134.9840 C   0  0  0  0  0  2  0  0  0  0  0  0
  180.1030  182.2400  137.1380 N   0  0  0  0  0  2  0  0  0  0  0  0
  180.9030  183.4180  137.4270 C   0  0  0  0  0  2  0  0  0  0  0  0
  181.1310  184.2000  136.1500 C   0  0  0  0  0  1  0  0  0  0  0  0
  187.7470  176.4680  137.6850 C   0  0  0  0  0  2  0  0  0  0  0  0
  189.9600  177.5510  137.9080 C   0  0  0  0  0  1  0  0  0  0  0  0
  188.7300  177.0890  138.6590 C   0  0  0  0  0  2  0  0  0  0  0  0
  1  4  1  6  0  0  0
  2 12  1  1  0  0  0
  2  5  1  0  0  0  0
  3 15  1  0  0  0  0
  3 10  1  0  0  0  0
  5 13  1  1  0  0  0
  5  1  1  0  0  0  0
  6  9  1  0  0  0  0
  6 12  1  1  0  0  0
  6  2  1  0  0  0  0
  7  3  2  0  0  0  0
  8 24  1  1  0  0  0
  8  2  1  0  0  0  0
  8 17  1  0  0  0  0
  9 18  1  1  0  0  0
  9 20  1  0  0  0  0
 10 30  1  1  0  0  0
 10 14  1  0  0  0  0
 11  4  1  0  0  0  0
 14 11  2  0  0  0  0
 15 19  1  0  0  0  0
 16 15  1  0  0  0  0
 17  1  1  0  0  0  0
 19 17  1  0  0  0  0
 19 11  1  0  0  0  0
 20 27  1  0  0  0  0
 20 13  2  0  0  0  0
 21 25  1  0  0  0  0
 23 22  1  0  0  0  0
 24 23  1  0  0  0  0
 25 22  1  0  0  0  0
 26 21  1  0  0  0  0
 26 24  1  0  0  0  0
 27 28  1  0  0  0  0
 29 28  1  0  0  0  0
 30 32  1  0  0  0  0
 31 32  1  0  0  0  0
M  END
>  <MODEL>
8

>  <REMARK>
 VINA RESULT:      -4.6      1.614      1.841
  Name = 
  5 active torsions:
  status: ('A' for Active; 'I' for Inactive)
    1  A    between atoms: C_10  and  C_28
    2  A    between atoms: N_14  and  C_21
    3  A    between atoms: N_14  and  C_29
    4  A    between atoms: C_15  and  C_19
    5  A    between atoms: C_19  and  C_26
                            x       y       z     vdW  Elec       q    Type
                         _______ _______ _______ _____ _____    ______ ____

>  <TORSDO>
F 5

$$$$
=
 OpenBabel11052414323D

 32 37  0  0  1  0  0  0  0  0999 V2000
  188.5630  178.1380  138.0500 C   0  0  1  0  0  3  0  0  0  0  0  0
  186.6480  176.7770  137.6770 C   0  0  1  0  0  0  0  0  0  0  0  0
  188.4000  176.9810  142.4760 C   0  0  0  0  0  0  0  0  0  0  0  0
  189.7610  178.0160  138.7950 O   0  0  0  0  0  0  0  0  0  0  0  0
  188.1390  176.7590  137.5950 C   0  0  1  0  0  3  0  0  0  0  0  0
  185.9600  175.4800  137.2760 C   0  0  2  0  0  3  0  0  0  0  0  0
  187.9390  176.2250  143.3750 O   0  0  0  0  0  0  0  0  0  0  0  0
  186.2090  177.6730  138.8290 C   0  0  1  0  0  3  0  0  0  0  0  0
  186.8820  174.4860  136.5040 C   0  0  1  0  0  3  0  0  0  0  0  0
  189.8750  177.3110  142.4660 C   0  0  1  0  0  3  0  0  0  0  0  0
  189.5030  178.0100  140.1460 C   0  0  0  0  0  0  0  0  0  0  0  0
  185.7750  176.7430  136.4280 C   0  0  0  0  0  2  0  0  0  0  0  0
  188.6730  176.2160  136.3160 C   0  0  0  0  0  3  0  0  0  0  0  0
  190.3350  177.4890  141.0470 C   0  0  0  0  0  3  0  0  0  0  0  0
  187.5270  177.5560  141.4790 N   0  0  0  0  0  0  0  0  0  0  0  0
  186.1110  177.6550  141.8040 C   0  0  0  0  0  1  0  0  0  0  0  0
  187.4630  178.5440  139.0800 C   0  0  1  0  0  3  0  0  0  0  0  0
  186.0040  173.6970  135.5460 C   0  0  0  0  0  1  0  0  0  0  0  0
  188.1270  178.4600  140.4800 C   0  0  2  0  0  3  0  0  0  0  0  0
  188.1120  175.1120  135.8090 C   0  0  0  0  0  0  0  0  0  0  0  0
  182.5920  178.5800  138.2500 O   0  0  0  0  0  0  0  0  0  0  0  0
  183.8890  180.5130  138.8600 C   0  0  0  0  0  2  0  0  0  0  0  0
  184.9690  179.7210  139.2930 O   0  0  0  0  0  0  0  0  0  0  0  0
  184.9870  178.5530  138.4980 C   0  0  2  0  0  3  0  0  0  0  0  0
  182.5770  179.7410  139.0470 C   0  0  0  0  0  2  0  0  0  0  0  0
  183.6710  177.7850  138.6820 C   0  0  0  0  0  2  0  0  0  0  0  0
  188.7590  174.5090  134.6810 N   0  0  0  0  0  2  0  0  0  0  0  0
  189.5100  173.2650  134.7230 C   0  0  0  0  0  2  0  0  0  0  0  0
  190.3030  173.1980  136.0120 C   0  0  0  0  0  1  0  0  0  0  0  0
  190.1420  178.5860  143.2550 C   0  0  0  0  0  2  0  0  0  0  0  0
  191.4170  177.0170  144.6810 C   0  0  0  0  0  1  0  0  0  0  0  0
  190.5480  178.2560  144.6790 C   0  0  0  0  0  2  0  0  0  0  0  0
  1  4  1  1  0  0  0
  1 17  1  0  0  0  0
  2 12  1  6  0  0  0
  2  8  1  0  0  0  0
  3  7  2  0  0  0  0
  4 11  1  0  0  0  0
  5 13  1  6  0  0  0
  5  2  1  0  0  0  0
  5  1  1  0  0  0  0
  6 12  1  6  0  0  0
  6  2  1  0  0  0  0
  8 24  1  6  0  0  0
  8 17  1  0  0  0  0
  9 18  1  6  0  0  0
  9  6  1  0  0  0  0
 10  3  1  0  0  0  0
 10 30  1  1  0  0  0
 11 19  1  0  0  0  0
 11 14  2  0  0  0  0
 14 10  1  0  0  0  0
 15 16  1  0  0  0  0
 15  3  1  0  0  0  0
 17 19  1  0  0  0  0
 19 15  1  0  0  0  0
 20 13  2  0  0  0  0
 20  9  1  0  0  0  0
 21 26  1  0  0  0  0
 21 25  1  0  0  0  0
 22 25  1  0  0  0  0
 22 23  1  0  0  0  0
 24 26  1  0  0  0  0
 24 23  1  0  0  0  0
 27 28  1  0  0  0  0
 27 20  1  0  0  0  0
 28 29  1  0  0  0  0
 30 32  1  0  0  0  0
 32 31  1  0  0  0  0
M  END
>  <MODEL>
9

>  <REMARK>
 VINA RESULT:      -4.6      3.615      7.534
  Name = 
  5 active torsions:
  status: ('A' for Active; 'I' for Inactive)
    1  A    between atoms: C_10  and  C_28
    2  A    between atoms: N_14  and  C_21
    3  A    between atoms: N_14  and  C_29
    4  A    between atoms: C_15  and  C_19
    5  A    between atoms: C_19  and  C_26
                            x       y       z     vdW  Elec       q    Type
                         _______ _______ _______ _____ _____    ______ ____

>  <TORSDO>
F 5

$$$$
