=
 OpenBabel11052412583D

 31 35  0  0  1  0  0  0  0  0999 V2000
  190.8300  176.8630  140.1020 C   0  0  1  0  0  3  0  0  0  0  0  0
  190.8870  176.6600  136.9030 C   0  0  1  0  0  3  0  0  0  0  0  0
  189.3510  176.8350  136.8620 C   0  0  1  0  0  3  0  0  0  0  0  0
  193.8210  175.6150  136.6820 C   0  0  1  0  0  3  0  0  0  0  0  0
  187.5860  178.6600  136.4390 C   0  0  0  0  0  2  0  0  0  0  0  0
  191.3800  175.8240  138.1240 C   0  0  2  0  0  0  0  0  0  0  0  0
  192.1680  177.3790  139.5870 C   0  0  0  0  0  2  0  0  0  0  0  0
  188.9730  178.3170  136.9980 C   0  0  0  0  0  2  0  0  0  0  0  0
  192.4750  174.9210  136.2850 C   0  0  1  0  0  0  0  0  0  0  0  0
  189.8900  177.8930  140.0920 O   0  0  0  0  0  1  0  0  0  0  0  0
  189.3290  174.9270  135.1890 C   0  0  0  0  0  2  0  0  0  0  0  0
  186.4260  177.9580  137.1540 C   0  0  0  0  0  2  0  0  0  0  0  0
  191.7040  174.4780  137.5270 C   0  0  0  0  0  2  0  0  0  0  0  0
  191.5640  175.9950  135.6730 C   0  0  1  0  0  3  0  0  0  0  0  0
  192.6890  173.8500  135.4130 O   0  0  0  0  0  1  0  0  0  0  0  0
  190.4000  175.7860  139.2040 N   0  0  0  0  0  2  0  0  0  0  0  0
  186.6200  176.4550  137.3890 C   0  0  0  0  0  2  0  0  0  0  0  0
  193.5880  176.7640  137.6960 C   0  0  0  0  0  2  0  0  0  0  0  0
  192.6240  176.3270  138.7100 N   0  0  2  0  0  0  0  0  0  0  0  0
  190.6170  175.4520  134.5940 C   0  0  0  0  0  2  0  0  0  0  0  0
  188.5740  176.1130  135.7420 C   0  0  1  0  0  3  0  0  0  0  0  0
  187.1620  175.6900  136.1740 C   0  0  0  0  0  2  0  0  0  0  0  0
  194.9680  174.7040  137.1560 C   0  0  1  0  0  3  0  0  0  0  0  0
  195.2530  173.2240  139.0240 O   0  0  0  0  0  1  0  0  0  0  0  0
  194.8780  172.2910  136.9790 O   0  0  0  0  0  1  0  0  0  0  0  0
  194.5810  173.3720  137.8110 C   0  0  0  0  0  3  0  0  0  0  0  0
  196.1530  174.6630  136.2310 C   0  0  0  0  0  0  0  0  0  0  0  0
  195.9420  174.6760  134.9170 C   0  0  0  0  0  2  0  0  0  0  0  0
  197.5420  174.4600  136.7460 C   0  0  0  0  0  2  0  0  0  0  0  0
  197.8790  175.4870  137.6280 O   0  0  0  0  0  0  0  0  0  0  0  0
  198.3760  174.8320  138.7530 C   0  0  0  0  0  1  0  0  0  0  0  0
  1 10  1  6  0  0  0
  2  6  1  0  0  0  0
  3  2  1  0  0  0  0
  3  8  1  0  0  0  0
  4 23  1  0  0  0  0
  4 18  1  0  0  0  0
  5  8  1  0  0  0  0
  5 12  1  0  0  0  0
  6 19  1  0  0  0  0
  6 16  1  0  0  0  0
  7  1  1  0  0  0  0
  9  4  1  0  0  0  0
  9 13  1  0  0  0  0
 11 21  1  0  0  0  0
 12 17  1  0  0  0  0
 13  6  1  0  0  0  0
 14  9  1  0  0  0  0
 14  2  1  0  0  0  0
 15  9  1  0  0  0  0
 16  1  1  0  0  0  0
 18 19  1  0  0  0  0
 19  7  1  0  0  0  0
 20 11  1  0  0  0  0
 20 14  1  0  0  0  0
 21 22  1  0  0  0  0
 21  3  1  0  0  0  0
 22 17  1  0  0  0  0
 23 26  1  0  0  0  0
 25 26  1  0  0  0  0
 26 24  1  0  0  0  0
 27 29  1  0  0  0  0
 27 23  1  0  0  0  0
 28 27  2  0  0  0  0
 29 30  1  0  0  0  0
 30 31  1  0  0  0  0
M  END
>  <MODEL>
1

>  <REMARK>
 VINA RESULT:      -5.9      0.000      0.000
  Name = 
  5 active torsions:
  status: ('A' for Active; 'I' for Inactive)
    1  A    between atoms: O_1  and  C_8
    2  A    between atoms: C_7  and  C_22
    3  A    between atoms: C_8  and  C_19
    4  A    between atoms: C_9  and  C_22
    5  A    between atoms: C_19  and  C_22
                            x       y       z     vdW  Elec       q    Type
                         _______ _______ _______ _____ _____    ______ ____

>  <TORSDO>
F 5

$$$$
=
 OpenBabel11052412583D

 31 35  0  0  1  0  0  0  0  0999 V2000
  186.6920  178.9490  140.5570 C   0  0  1  0  0  3  0  0  0  0  0  0
  184.2330  178.0160  142.3910 C   0  0  1  0  0  3  0  0  0  0  0  0
  183.2460  178.3780  141.2560 C   0  0  1  0  0  3  0  0  0  0  0  0
  185.8460  177.8460  145.0590 C   0  0  1  0  0  3  0  0  0  0  0  0
  181.9110  177.2440  139.3710 C   0  0  0  0  0  2  0  0  0  0  0  0
  185.4440  178.9950  142.4900 C   0  0  2  0  0  0  0  0  0  0  0  0
  187.1600  177.8610  141.5160 C   0  0  0  0  0  2  0  0  0  0  0  0
  183.1960  177.2580  140.2080 C   0  0  0  0  0  2  0  0  0  0  0  0
  184.6540  178.7800  144.6640 C   0  0  1  0  0  0  0  0  0  0  0  0
  186.1500  178.3670  139.4110 O   0  0  0  0  0  1  0  0  0  0  0  0
  181.8280  179.4850  143.0460 C   0  0  0  0  0  2  0  0  0  0  0  0
  181.6980  178.5010  138.5200 C   0  0  0  0  0  2  0  0  0  0  0  0
  185.1090  179.8580  143.6800 C   0  0  0  0  0  2  0  0  0  0  0  0
  183.6670  177.9460  143.8350 C   0  0  1  0  0  3  0  0  0  0  0  0
  184.0520  179.3470  145.7910 O   0  0  0  0  0  1  0  0  0  0  0  0
  185.6650  179.7320  141.2520 N   0  0  0  0  0  2  0  0  0  0  0  0
  181.9190  179.8300  139.2540 C   0  0  0  0  0  2  0  0  0  0  0  0
  186.5510  177.2660  143.8060 C   0  0  0  0  0  2  0  0  0  0  0  0
  186.7070  178.3260  142.8060 N   0  0  2  0  0  0  0  0  0  0  0  0
  182.2040  178.3790  144.0080 C   0  0  0  0  0  2  0  0  0  0  0  0
  181.8480  178.8950  141.6550 C   0  0  1  0  0  3  0  0  0  0  0  0
  181.2740  179.8990  140.6450 C   0  0  0  0  0  2  0  0  0  0  0  0
  186.8840  178.4100  146.0460 C   0  0  1  0  0  3  0  0  0  0  0  0
  186.0200  180.0690  147.5500 O   0  0  0  0  0  1  0  0  0  0  0  0
  187.3930  178.4680  148.4120 O   0  0  0  0  0  1  0  0  0  0  0  0
  186.4000  178.7290  147.4660 C   0  0  0  0  0  3  0  0  0  0  0  0
  188.2470  177.7840  145.9390 C   0  0  0  0  0  0  0  0  0  0  0  0
  188.5130  176.6970  146.6590 C   0  0  0  0  0  2  0  0  0  0  0  0
  189.3490  178.4360  145.1660 C   0  0  0  0  0  2  0  0  0  0  0  0
  190.0130  177.4870  144.3880 O   0  0  0  0  0  0  0  0  0  0  0  0
  190.4350  178.1920  143.2630 C   0  0  0  0  0  1  0  0  0  0  0  0
  1 10  1  6  0  0  0
  1 16  1  0  0  0  0
  1  7  1  0  0  0  0
  2  6  1  0  0  0  0
  2 14  1  0  0  0  0
  3 21  1  0  0  0  0
  3  2  1  0  0  0  0
  4 23  1  0  0  0  0
  5  8  1  0  0  0  0
  6 19  1  0  0  0  0
  6 13  1  0  0  0  0
  7 19  1  0  0  0  0
  8  3  1  0  0  0  0
  9  4  1  0  0  0  0
  9 15  1  0  0  0  0
 11 20  1  0  0  0  0
 12 17  1  0  0  0  0
 12  5  1  0  0  0  0
 13  9  1  0  0  0  0
 14 20  1  0  0  0  0
 14  9  1  0  0  0  0
 16  6  1  0  0  0  0
 17 22  1  0  0  0  0
 18  4  1  0  0  0  0
 19 18  1  0  0  0  0
 21 11  1  0  0  0  0
 22 21  1  0  0  0  0
 23 26  1  0  0  0  0
 26 24  1  0  0  0  0
 26 25  1  0  0  0  0
 27 23  1  0  0  0  0
 27 28  2  0  0  0  0
 29 27  1  0  0  0  0
 30 29  1  0  0  0  0
 31 30  1  0  0  0  0
M  END
>  <MODEL>
2

>  <REMARK>
 VINA RESULT:      -5.8      7.325     10.329
  Name = 
  5 active torsions:
  status: ('A' for Active; 'I' for Inactive)
    1  A    between atoms: O_1  and  C_8
    2  A    between atoms: C_7  and  C_22
    3  A    between atoms: C_8  and  C_19
    4  A    between atoms: C_9  and  C_22
    5  A    between atoms: C_19  and  C_22
                            x       y       z     vdW  Elec       q    Type
                         _______ _______ _______ _____ _____    ______ ____

>  <TORSDO>
F 5

$$$$
=
 OpenBabel11052412583D

 31 35  0  0  1  0  0  0  0  0999 V2000
  186.4530  177.4840  142.8770 C   0  0  1  0  0  3  0  0  0  0  0  0
  189.5680  177.9300  142.2610 C   0  0  1  0  0  3  0  0  0  0  0  0
  189.2920  177.7780  140.7460 C   0  0  1  0  0  3  0  0  0  0  0  0
  190.5470  177.5970  145.2070 C   0  0  1  0  0  3  0  0  0  0  0  0
  188.9520  179.2330  138.6500 C   0  0  0  0  0  2  0  0  0  0  0  0
  188.6860  176.9940  143.1440 C   0  0  2  0  0  0  0  0  0  0  0  0
  187.0630  178.3630  143.9620 C   0  0  0  0  0  2  0  0  0  0  0  0
  188.7470  179.0900  140.1630 C   0  0  0  0  0  2  0  0  0  0  0  0
  190.8500  176.7240  143.9430 C   0  0  1  0  0  0  0  0  0  0  0  0
  186.0540  178.2720  141.7980 O   0  0  0  0  0  1  0  0  0  0  0  0
  191.3360  176.2750  140.6770 C   0  0  0  0  0  2  0  0  0  0  0  0
  188.2280  178.1730  137.8120 C   0  0  0  0  0  2  0  0  0  0  0  0
  189.6300  175.8920  143.5500 C   0  0  0  0  0  2  0  0  0  0  0  0
  191.0200  177.6780  142.7510 C   0  0  1  0  0  3  0  0  0  0  0  0
  191.9740  175.9160  144.1360 O   0  0  0  0  0  1  0  0  0  0  0  0
  187.4890  176.5380  142.4470 N   0  0  0  0  0  2  0  0  0  0  0  0
  188.3920  176.7300  138.3030 C   0  0  0  0  0  2  0  0  0  0  0  0
  189.2660  178.4480  145.0130 C   0  0  0  0  0  2  0  0  0  0  0  0
  188.2290  177.6250  144.3830 N   0  0  2  0  0  0  0  0  0  0  0  0
  192.0100  177.1680  141.6950 C   0  0  0  0  0  2  0  0  0  0  0  0
  190.3940  177.1420  139.8740 C   0  0  1  0  0  3  0  0  0  0  0  0
  189.8290  176.3510  138.6850 C   0  0  0  0  0  2  0  0  0  0  0  0
  190.5130  176.8750  146.5660 C   0  0  1  0  0  3  0  0  0  0  0  0
  191.7010  175.0090  147.4940 O   0  0  0  0  0  1  0  0  0  0  0  0
  192.2830  177.0950  148.2030 O   0  0  0  0  0  1  0  0  0  0  0  0
  191.8430  176.3430  147.1120 C   0  0  0  0  0  3  0  0  0  0  0  0
  189.5870  177.4970  147.5760 C   0  0  0  0  0  0  0  0  0  0  0  0
  190.0460  178.4790  148.3480 C   0  0  0  0  0  2  0  0  0  0  0  0
  188.2230  176.9420  147.8340 C   0  0  0  0  0  2  0  0  0  0  0  0
  187.4320  177.8960  148.4740 O   0  0  0  0  0  0  0  0  0  0  0  0
  186.5370  178.3220  147.4950 C   0  0  0  0  0  1  0  0  0  0  0  0
  1 10  1  6  0  0  0
  1  7  1  0  0  0  0
  2 14  1  0  0  0  0
  2  6  1  0  0  0  0
  3  2  1  0  0  0  0
  4 23  1  0  0  0  0
  5  8  1  0  0  0  0
  6 13  1  0  0  0  0
  6 19  1  0  0  0  0
  7 19  1  0  0  0  0
  8  3  1  0  0  0  0
  9 15  1  0  0  0  0
  9  4  1  0  0  0  0
 11 20  1  0  0  0  0
 12 17  1  0  0  0  0
 12  5  1  0  0  0  0
 13  9  1  0  0  0  0
 14  9  1  0  0  0  0
 16  1  1  0  0  0  0
 16  6  1  0  0  0  0
 17 22  1  0  0  0  0
 18  4  1  0  0  0  0
 19 18  1  0  0  0  0
 20 14  1  0  0  0  0
 21 11  1  0  0  0  0
 21  3  1  0  0  0  0
 22 21  1  0  0  0  0
 23 26  1  0  0  0  0
 23 27  1  0  0  0  0
 26 24  1  0  0  0  0
 26 25  1  0  0  0  0
 27 29  1  0  0  0  0
 27 28  2  0  0  0  0
 29 30  1  0  0  0  0
 31 30  1  0  0  0  0
M  END
>  <MODEL>
3

>  <REMARK>
 VINA RESULT:      -5.2      5.316      8.702
  Name = 
  5 active torsions:
  status: ('A' for Active; 'I' for Inactive)
    1  A    between atoms: O_1  and  C_8
    2  A    between atoms: C_7  and  C_22
    3  A    between atoms: C_8  and  C_19
    4  A    between atoms: C_9  and  C_22
    5  A    between atoms: C_19  and  C_22
                            x       y       z     vdW  Elec       q    Type
                         _______ _______ _______ _____ _____    ______ ____

>  <TORSDO>
F 5

$$$$
=
 OpenBabel11052412583D

 31 35  0  0  1  0  0  0  0  0999 V2000
  193.4830  177.1260  138.9860 C   0  0  1  0  0  3  0  0  0  0  0  0
  192.5670  174.5540  137.3050 C   0  0  1  0  0  3  0  0  0  0  0  0
  194.0480  174.1580  137.1000 C   0  0  1  0  0  3  0  0  0  0  0  0
  189.5900  175.4250  136.9480 C   0  0  1  0  0  3  0  0  0  0  0  0
  195.8100  172.5530  138.0700 C   0  0  0  0  0  2  0  0  0  0  0  0
  192.3330  176.0960  137.2800 C   0  0  2  0  0  0  0  0  0  0  0  0
  192.1140  176.6650  139.4720 C   0  0  0  0  0  2  0  0  0  0  0  0
  194.5930  173.4430  138.3450 C   0  0  0  0  0  2  0  0  0  0  0  0
  190.7090  175.2090  135.8750 C   0  0  1  0  0  0  0  0  0  0  0  0
  194.4840  176.4220  139.6540 O   0  0  0  0  0  1  0  0  0  0  0  0
  193.4410  173.7290  134.6730 C   0  0  0  0  0  2  0  0  0  0  0  0
  197.0430  173.3080  137.5580 C   0  0  0  0  0  2  0  0  0  0  0  0
  191.7320  176.3440  135.9190 C   0  0  0  0  0  2  0  0  0  0  0  0
  191.5290  173.9830  136.3010 C   0  0  1  0  0  3  0  0  0  0  0  0
  190.1680  175.0650  134.5940 O   0  0  0  0  0  1  0  0  0  0  0  0
  193.5530  176.8480  137.5470 N   0  0  0  0  0  2  0  0  0  0  0  0
  196.7700  174.3120  136.4310 C   0  0  0  0  0  2  0  0  0  0  0  0
  190.1930  175.6450  138.3590 C   0  0  0  0  0  2  0  0  0  0  0  0
  191.3420  176.5500  138.2580 N   0  0  2  0  0  0  0  0  0  0  0  0
  192.1000  173.1880  135.1180 C   0  0  0  0  0  2  0  0  0  0  0  0
  194.4280  173.4500  135.7820 C   0  0  1  0  0  3  0  0  0  0  0  0
  195.8540  173.7810  135.3190 C   0  0  0  0  0  2  0  0  0  0  0  0
  188.5240  176.4940  136.6470 C   0  0  1  0  0  3  0  0  0  0  0  0
  186.2500  177.0710  136.1410 O   0  0  0  0  0  1  0  0  0  0  0  0
  186.6480  175.0180  137.0480 O   0  0  0  0  0  1  0  0  0  0  0  0
  187.1460  176.0020  136.1910 C   0  0  0  0  0  3  0  0  0  0  0  0
  188.5270  177.6590  137.5980 C   0  0  0  0  0  0  0  0  0  0  0  0
  189.0830  178.8040  137.2110 C   0  0  0  0  0  2  0  0  0  0  0  0
  188.0570  177.5170  139.0110 C   0  0  0  0  0  2  0  0  0  0  0  0
  188.4590  178.6230  139.7620 O   0  0  0  0  0  0  0  0  0  0  0  0
  188.5730  178.1370  141.0630 C   0  0  0  0  0  1  0  0  0  0  0  0
  1  7  1  0  0  0  0
  1 10  1  1  0  0  0
  3  2  1  0  0  0  0
  3  8  1  0  0  0  0
  4 18  1  0  0  0  0
  5  8  1  0  0  0  0
  6  2  1  0  0  0  0
  6 16  1  0  0  0  0
  6 19  1  0  0  0  0
  9 13  1  0  0  0  0
  9 14  1  0  0  0  0
  9  4  1  0  0  0  0
 11 20  1  0  0  0  0
 11 21  1  0  0  0  0
 12  5  1  0  0  0  0
 13  6  1  0  0  0  0
 14  2  1  0  0  0  0
 15  9  1  0  0  0  0
 16  1  1  0  0  0  0
 17 12  1  0  0  0  0
 19 18  1  0  0  0  0
 19  7  1  0  0  0  0
 20 14  1  0  0  0  0
 21  3  1  0  0  0  0
 22 21  1  0  0  0  0
 22 17  1  0  0  0  0
 23  4  1  0  0  0  0
 23 27  1  0  0  0  0
 24 26  1  0  0  0  0
 26 23  1  0  0  0  0
 26 25  1  0  0  0  0
 27 29  1  0  0  0  0
 28 27  2  0  0  0  0
 29 30  1  0  0  0  0
 30 31  1  0  0  0  0
M  END
>  <MODEL>
4

>  <REMARK>
 VINA RESULT:      -4.8      2.065      6.822
  Name = 
  5 active torsions:
  status: ('A' for Active; 'I' for Inactive)
    1  A    between atoms: O_1  and  C_8
    2  A    between atoms: C_7  and  C_22
    3  A    between atoms: C_8  and  C_19
    4  A    between atoms: C_9  and  C_22
    5  A    between atoms: C_19  and  C_22
                            x       y       z     vdW  Elec       q    Type
                         _______ _______ _______ _____ _____    ______ ____

>  <TORSDO>
F 5

$$$$
=
 OpenBabel11052412583D

 31 35  0  0  1  0  0  0  0  0999 V2000
  183.6920  176.5530  136.5020 C   0  0  1  0  0  3  0  0  0  0  0  0
  184.8920  178.6120  138.6470 C   0  0  1  0  0  3  0  0  0  0  0  0
  186.3240  178.1430  138.2990 C   0  0  1  0  0  3  0  0  0  0  0  0
  182.1780  179.2670  140.0450 C   0  0  1  0  0  3  0  0  0  0  0  0
  188.3450  178.8700  136.8800 C   0  0  0  0  0  2  0  0  0  0  0  0
  183.8410  177.4600  138.6120 C   0  0  2  0  0  0  0  0  0  0  0  0
  182.7580  177.7500  136.6320 C   0  0  0  0  0  2  0  0  0  0  0  0
  186.8180  178.8250  137.0150 C   0  0  0  0  0  2  0  0  0  0  0  0
  183.4600  178.5730  140.6150 C   0  0  1  0  0  0  0  0  0  0  0  0
  184.6900  176.8310  135.5700 O   0  0  0  0  0  1  0  0  0  0  0  0
  186.7490  178.0770  140.8000 C   0  0  0  0  0  2  0  0  0  0  0  0
  189.0130  177.4920  136.7990 C   0  0  0  0  0  2  0  0  0  0  0  0
  183.6000  177.1520  140.0680 C   0  0  0  0  0  2  0  0  0  0  0  0
  184.6790  179.2960  140.0250 C   0  0  1  0  0  3  0  0  0  0  0  0
  183.4670  178.5800  142.0130 O   0  0  0  0  0  1  0  0  0  0  0  0
  184.2910  176.3200  137.8210 N   0  0  0  0  0  2  0  0  0  0  0  0
  188.5340  176.4740  137.8410 C   0  0  0  0  0  2  0  0  0  0  0  0
  182.1420  179.2050  138.4960 C   0  0  0  0  0  2  0  0  0  0  0  0
  182.5500  177.8670  138.0560 N   0  0  2  0  0  0  0  0  0  0  0  0
  185.8940  179.3140  140.9640 C   0  0  0  0  0  2  0  0  0  0  0  0
  187.3770  178.1450  139.4270 C   0  0  1  0  0  3  0  0  0  0  0  0
  188.4230  177.0330  139.2660 C   0  0  0  0  0  2  0  0  0  0  0  0
  180.8230  178.8300  140.6310 C   0  0  1  0  0  3  0  0  0  0  0  0
  180.0330  181.0950  140.6880 O   0  0  0  0  0  1  0  0  0  0  0  0
  180.5130  180.0890  142.6760 O   0  0  0  0  0  1  0  0  0  0  0  0
  180.0130  179.8890  141.3880 C   0  0  0  0  0  3  0  0  0  0  0  0
  180.0340  177.9020  139.7490 C   0  0  0  0  0  0  0  0  0  0  0  0
  179.1240  178.4180  138.9260 C   0  0  0  0  0  2  0  0  0  0  0  0
  180.1410  176.4160  139.8810 C   0  0  0  0  0  2  0  0  0  0  0  0
  179.8220  175.8050  138.6680 O   0  0  0  0  0  0  0  0  0  0  0  0
  180.8150  174.8440  138.4910 C   0  0  0  0  0  1  0  0  0  0  0  0
  1 10  1  6  0  0  0
  1  7  1  0  0  0  0
  1 16  1  0  0  0  0
  2 14  1  0  0  0  0
  3  2  1  0  0  0  0
  3 21  1  0  0  0  0
  4  9  1  0  0  0  0
  4 23  1  0  0  0  0
  5  8  1  0  0  0  0
  6  2  1  0  0  0  0
  6 13  1  0  0  0  0
  7 19  1  0  0  0  0
  8  3  1  0  0  0  0
  9 15  1  0  0  0  0
 11 20  1  0  0  0  0
 12  5  1  0  0  0  0
 12 17  1  0  0  0  0
 13  9  1  0  0  0  0
 14  9  1  0  0  0  0
 14 20  1  0  0  0  0
 16  6  1  0  0  0  0
 17 22  1  0  0  0  0
 18  4  1  0  0  0  0
 19 18  1  0  0  0  0
 19  6  1  0  0  0  0
 21 11  1  0  0  0  0
 22 21  1  0  0  0  0
 23 26  1  0  0  0  0
 24 26  1  0  0  0  0
 26 25  1  0  0  0  0
 27 29  1  0  0  0  0
 27 23  1  0  0  0  0
 28 27  2  0  0  0  0
 30 29  1  0  0  0  0
 31 30  1  0  0  0  0
M  END
>  <MODEL>
5

>  <REMARK>
 VINA RESULT:      -4.6      6.277     11.363
  Name = 
  5 active torsions:
  status: ('A' for Active; 'I' for Inactive)
    1  A    between atoms: O_1  and  C_8
    2  A    between atoms: C_7  and  C_22
    3  A    between atoms: C_8  and  C_19
    4  A    between atoms: C_9  and  C_22
    5  A    between atoms: C_19  and  C_22
                            x       y       z     vdW  Elec       q    Type
                         _______ _______ _______ _____ _____    ______ ____

>  <TORSDO>
F 5

$$$$
=
 OpenBabel11052412583D

 31 35  0  0  1  0  0  0  0  0999 V2000
  186.5750  179.3390  141.4250 C   0  0  1  0  0  3  0  0  0  0  0  0
  188.5270  177.0090  142.4460 C   0  0  1  0  0  3  0  0  0  0  0  0
  188.1500  177.3310  143.9110 C   0  0  1  0  0  3  0  0  0  0  0  0
  189.9940  176.5790  139.7230 C   0  0  1  0  0  3  0  0  0  0  0  0
  186.6020  176.4740  145.7800 C   0  0  0  0  0  2  0  0  0  0  0  0
  188.6130  178.2750  141.5390 C   0  0  2  0  0  0  0  0  0  0  0  0
  186.6660  178.2530  140.3600 C   0  0  0  0  0  2  0  0  0  0  0  0
  186.8040  176.6870  144.2750 C   0  0  0  0  0  2  0  0  0  0  0  0
  190.5530  177.0770  141.0970 C   0  0  1  0  0  0  0  0  0  0  0  0
  185.5850  179.0120  142.3500 O   0  0  0  0  0  1  0  0  0  0  0  0
  190.6290  177.1720  144.4270 C   0  0  0  0  0  2  0  0  0  0  0  0
  186.5820  177.7670  146.6040 C   0  0  0  0  0  2  0  0  0  0  0  0
  190.0950  178.5060  141.3870 C   0  0  0  0  0  2  0  0  0  0  0  0
  189.8650  176.2600  142.2010 C   0  0  1  0  0  3  0  0  0  0  0  0
  191.9460  176.9710  141.1520 O   0  0  0  0  0  1  0  0  0  0  0  0
  187.8790  179.4070  142.0940 N   0  0  0  0  0  2  0  0  0  0  0  0
  187.7080  178.7590  146.2860 C   0  0  0  0  0  2  0  0  0  0  0  0
  188.4550  176.7530  139.6410 C   0  0  0  0  0  2  0  0  0  0  0  0
  188.0870  178.0610  140.1890 N   0  0  2  0  0  0  0  0  0  0  0  0
  190.7490  176.0340  143.4360 C   0  0  0  0  0  2  0  0  0  0  0  0
  189.2290  177.1270  144.9940 C   0  0  1  0  0  3  0  0  0  0  0  0
  189.0970  178.1190  146.1590 C   0  0  0  0  0  2  0  0  0  0  0  0
  190.6650  177.1280  138.4510 C   0  0  1  0  0  3  0  0  0  0  0  0
  191.6800  174.9670  138.2130 O   0  0  0  0  0  1  0  0  0  0  0  0
  193.0550  176.7820  138.2860 O   0  0  0  0  0  1  0  0  0  0  0  0
  191.8150  176.3080  137.8550 C   0  0  0  0  0  3  0  0  0  0  0  0
  189.7130  177.7440  137.4620 C   0  0  0  0  0  0  0  0  0  0  0  0
  189.4300  179.0400  137.5650 C   0  0  0  0  0  2  0  0  0  0  0  0
  188.9680  176.9090  136.4700 C   0  0  0  0  0  2  0  0  0  0  0  0
  187.7800  177.5460  136.1070 O   0  0  0  0  0  0  0  0  0  0  0  0
  186.7940  176.5820  136.3040 C   0  0  0  0  0  1  0  0  0  0  0  0
  1 16  1  0  0  0  0
  1 10  1  1  0  0  0
  2  3  1  0  0  0  0
  3  8  1  0  0  0  0
  3 21  1  0  0  0  0
  4  9  1  0  0  0  0
  5 12  1  0  0  0  0
  6 16  1  0  0  0  0
  6  2  1  0  0  0  0
  7  1  1  0  0  0  0
  8  5  1  0  0  0  0
  9 15  1  0  0  0  0
  9 13  1  0  0  0  0
  9 14  1  0  0  0  0
 11 21  1  0  0  0  0
 13  6  1  0  0  0  0
 14  2  1  0  0  0  0
 14 20  1  0  0  0  0
 17 12  1  0  0  0  0
 18  4  1  0  0  0  0
 18 19  1  0  0  0  0
 19  7  1  0  0  0  0
 19  6  1  0  0  0  0
 20 11  1  0  0  0  0
 21 22  1  0  0  0  0
 22 17  1  0  0  0  0
 23  4  1  0  0  0  0
 26 24  1  0  0  0  0
 26 25  1  0  0  0  0
 26 23  1  0  0  0  0
 27 28  2  0  0  0  0
 27 23  1  0  0  0  0
 29 27  1  0  0  0  0
 30 31  1  0  0  0  0
 30 29  1  0  0  0  0
M  END
>  <MODEL>
6

>  <REMARK>
 VINA RESULT:      -4.6      4.046      7.383
  Name = 
  5 active torsions:
  status: ('A' for Active; 'I' for Inactive)
    1  A    between atoms: O_1  and  C_8
    2  A    between atoms: C_7  and  C_22
    3  A    between atoms: C_8  and  C_19
    4  A    between atoms: C_9  and  C_22
    5  A    between atoms: C_19  and  C_22
                            x       y       z     vdW  Elec       q    Type
                         _______ _______ _______ _____ _____    ______ ____

>  <TORSDO>
F 5

$$$$
=
 OpenBabel11052412583D

 31 35  0  0  1  0  0  0  0  0999 V2000
  184.5980  178.7320  139.2890 C   0  0  1  0  0  3  0  0  0  0  0  0
  181.9430  177.7860  137.7590 C   0  0  1  0  0  3  0  0  0  0  0  0
  181.1380  178.9050  138.4600 C   0  0  1  0  0  3  0  0  0  0  0  0
  183.0900  175.0670  136.7400 C   0  0  1  0  0  3  0  0  0  0  0  0
  180.2320  181.2680  137.9950 C   0  0  0  0  0  2  0  0  0  0  0  0
  183.0410  177.1540  138.6700 C   0  0  2  0  0  0  0  0  0  0  0  0
  184.9800  178.1060  137.9530 C   0  0  0  0  0  2  0  0  0  0  0  0
  181.3520  180.2490  137.7510 C   0  0  0  0  0  2  0  0  0  0  0  0
  181.9140  175.3520  137.7320 C   0  0  1  0  0  0  0  0  0  0  0  0
  184.3040  180.0830  139.1120 O   0  0  0  0  0  1  0  0  0  0  0  0
  179.3560  177.1480  138.8860 C   0  0  0  0  0  2  0  0  0  0  0  0
  180.0700  181.6900  139.4600 C   0  0  0  0  0  2  0  0  0  0  0  0
  182.4450  175.8320  139.0830 C   0  0  0  0  0  2  0  0  0  0  0  0
  181.1480  176.5730  137.2040 C   0  0  1  0  0  3  0  0  0  0  0  0
  181.0880  174.2340  137.8820 O   0  0  0  0  0  1  0  0  0  0  0  0
  183.4110  178.0230  139.7800 N   0  0  0  0  0  2  0  0  0  0  0  0
  180.0610  180.5390  140.4720 C   0  0  0  0  0  2  0  0  0  0  0  0
  184.0390  176.2870  136.6210 C   0  0  0  0  0  2  0  0  0  0  0  0
  184.2810  176.8430  137.9560 N   0  0  2  0  0  0  0  0  0  0  0  0
  179.6480  176.5430  137.5310 C   0  0  0  0  0  2  0  0  0  0  0  0
  179.6570  178.6260  138.7920 C   0  0  1  0  0  3  0  0  0  0  0  0
  179.1870  179.3450  140.0650 C   0  0  0  0  0  2  0  0  0  0  0  0
  183.9000  173.7760  136.9620 C   0  0  1  0  0  3  0  0  0  0  0  0
  184.0430  171.3810  136.9440 O   0  0  0  0  0  1  0  0  0  0  0  0
  182.4740  172.3600  135.6120 O   0  0  0  0  0  1  0  0  0  0  0  0
  183.1490  172.4460  136.8310 C   0  0  0  0  0  3  0  0  0  0  0  0
  185.2900  173.8080  136.3870 C   0  0  0  0  0  0  0  0  0  0  0  0
  185.4410  173.7140  135.0680 C   0  0  0  0  0  2  0  0  0  0  0  0
  186.5000  173.7900  137.2650 C   0  0  0  0  0  2  0  0  0  0  0  0
  187.5730  174.3970  136.6110 O   0  0  0  0  0  0  0  0  0  0  0  0
  187.7200  175.6270  137.2510 C   0  0  0  0  0  1  0  0  0  0  0  0
  1 10  1  6  0  0  0
  1 16  1  0  0  0  0
  2  3  1  0  0  0  0
  2  6  1  0  0  0  0
  3 21  1  0  0  0  0
  4 23  1  0  0  0  0
  4  9  1  0  0  0  0
  5 12  1  0  0  0  0
  6 13  1  0  0  0  0
  6 16  1  0  0  0  0
  7 19  1  0  0  0  0
  7  1  1  0  0  0  0
  8  5  1  0  0  0  0
  8  3  1  0  0  0  0
  9 15  1  0  0  0  0
  9 13  1  0  0  0  0
 12 17  1  0  0  0  0
 14 20  1  0  0  0  0
 14  9  1  0  0  0  0
 14  2  1  0  0  0  0
 18  4  1  0  0  0  0
 18 19  1  0  0  0  0
 19  6  1  0  0  0  0
 20 11  1  0  0  0  0
 21 11  1  0  0  0  0
 21 22  1  0  0  0  0
 22 17  1  0  0  0  0
 25 26  1  0  0  0  0
 26 24  1  0  0  0  0
 26 23  1  0  0  0  0
 27 23  1  0  0  0  0
 27 29  1  0  0  0  0
 28 27  2  0  0  0  0
 30 31  1  0  0  0  0
 30 29  1  0  0  0  0
M  END
>  <MODEL>
7

>  <REMARK>
 VINA RESULT:      -4.6      6.033      9.778
  Name = 
  5 active torsions:
  status: ('A' for Active; 'I' for Inactive)
    1  A    between atoms: O_1  and  C_8
    2  A    between atoms: C_7  and  C_22
    3  A    between atoms: C_8  and  C_19
    4  A    between atoms: C_9  and  C_22
    5  A    between atoms: C_19  and  C_22
                            x       y       z     vdW  Elec       q    Type
                         _______ _______ _______ _____ _____    ______ ____

>  <TORSDO>
F 5

$$$$
=
 OpenBabel11052412583D

 31 35  0  0  1  0  0  0  0  0999 V2000
  189.4330  176.1680  142.3290 C   0  0  1  0  0  3  0  0  0  0  0  0
  187.7670  178.2570  144.1020 C   0  0  1  0  0  3  0  0  0  0  0  0
  188.5680  177.8340  145.3560 C   0  0  1  0  0  3  0  0  0  0  0  0
  185.5560  178.8220  141.9710 C   0  0  1  0  0  3  0  0  0  0  0  0
  190.5550  178.6280  146.7850 C   0  0  0  0  0  2  0  0  0  0  0  0
  187.4740  177.0720  143.1300 C   0  0  2  0  0  0  0  0  0  0  0  0
  188.9910  177.3350  141.4540 C   0  0  0  0  0  2  0  0  0  0  0  0
  189.9330  178.5350  145.3870 C   0  0  0  0  0  2  0  0  0  0  0  0
  185.4420  178.1660  143.3880 C   0  0  1  0  0  0  0  0  0  0  0  0
  190.6350  176.4800  142.9620 O   0  0  0  0  0  1  0  0  0  0  0  0
  186.3410  177.7730  146.5720 C   0  0  0  0  0  2  0  0  0  0  0  0
  190.8680  177.2720  147.4290 C   0  0  0  0  0  2  0  0  0  0  0  0
  186.0230  176.7530  143.3830 C   0  0  0  0  0  2  0  0  0  0  0  0
  186.3860  178.9290  144.3290 C   0  0  1  0  0  3  0  0  0  0  0  0
  184.1220  178.1690  143.8490 O   0  0  0  0  0  1  0  0  0  0  0  0
  188.3840  175.9500  143.3300 N   0  0  0  0  0  2  0  0  0  0  0  0
  189.7400  176.2350  147.3440 C   0  0  0  0  0  2  0  0  0  0  0  0
  187.0100  178.7640  141.4360 C   0  0  0  0  0  2  0  0  0  0  0  0
  187.5760  177.4410  141.7170 N   0  0  2  0  0  0  0  0  0  0  0  0
  185.8920  178.9820  145.7820 C   0  0  0  0  0  2  0  0  0  0  0  0
  187.8430  177.8640  146.7170 C   0  0  1  0  0  3  0  0  0  0  0  0
  188.3490  176.7860  147.6860 C   0  0  0  0  0  2  0  0  0  0  0  0
  184.5670  178.3420  140.8940 C   0  0  1  0  0  3  0  0  0  0  0  0
  182.4180  177.4300  140.3420 O   0  0  0  0  0  1  0  0  0  0  0  0
  182.4720  179.3780  141.5230 O   0  0  0  0  0  1  0  0  0  0  0  0
  183.1060  178.1510  141.3170 C   0  0  0  0  0  3  0  0  0  0  0  0
  184.7860  178.9490  139.5350 C   0  0  0  0  0  0  0  0  0  0  0  0
  184.2320  180.1280  139.2620 C   0  0  0  0  0  2  0  0  0  0  0  0
  185.4800  178.1970  138.4440 C   0  0  0  0  0  2  0  0  0  0  0  0
  186.5660  178.9350  137.9720 O   0  0  0  0  0  0  0  0  0  0  0  0
  187.5750  177.9920  137.7890 C   0  0  0  0  0  1  0  0  0  0  0  0
  1 10  1  1  0  0  0
  1 16  1  0  0  0  0
  2 14  1  0  0  0  0
  2  3  1  0  0  0  0
  3  8  1  0  0  0  0
  3 21  1  0  0  0  0
  4  9  1  0  0  0  0
  5 12  1  0  0  0  0
  6 16  1  0  0  0  0
  6 13  1  0  0  0  0
  6  2  1  0  0  0  0
  7 19  1  0  0  0  0
  7  1  1  0  0  0  0
  8  5  1  0  0  0  0
  9 15  1  0  0  0  0
  9 14  1  0  0  0  0
 11 21  1  0  0  0  0
 13  9  1  0  0  0  0
 14 20  1  0  0  0  0
 17 12  1  0  0  0  0
 17 22  1  0  0  0  0
 18 19  1  0  0  0  0
 18  4  1  0  0  0  0
 19  6  1  0  0  0  0
 20 11  1  0  0  0  0
 21 22  1  0  0  0  0
 23 26  1  0  0  0  0
 23  4  1  0  0  0  0
 24 26  1  0  0  0  0
 26 25  1  0  0  0  0
 27 23  1  0  0  0  0
 28 27  2  0  0  0  0
 29 27  1  0  0  0  0
 30 29  1  0  0  0  0
 31 30  1  0  0  0  0
M  END
>  <MODEL>
8

>  <REMARK>
 VINA RESULT:      -4.5      5.997     10.418
  Name = 
  5 active torsions:
  status: ('A' for Active; 'I' for Inactive)
    1  A    between atoms: O_1  and  C_8
    2  A    between atoms: C_7  and  C_22
    3  A    between atoms: C_8  and  C_19
    4  A    between atoms: C_9  and  C_22
    5  A    between atoms: C_19  and  C_22
                            x       y       z     vdW  Elec       q    Type
                         _______ _______ _______ _____ _____    ______ ____

>  <TORSDO>
F 5

$$$$
=
 OpenBabel11052412583D

 31 35  0  0  1  0  0  0  0  0999 V2000
  187.5730  172.2730  135.1400 C   0  0  1  0  0  3  0  0  0  0  0  0
  185.6300  174.2240  136.7840 C   0  0  1  0  0  3  0  0  0  0  0  0
  184.4040  173.4190  136.2940 C   0  0  1  0  0  3  0  0  0  0  0  0
  187.7710  176.4200  137.3690 C   0  0  1  0  0  3  0  0  0  0  0  0
  182.7980  171.5820  137.1140 C   0  0  0  0  0  2  0  0  0  0  0  0
  186.7550  174.3470  135.7100 C   0  0  2  0  0  0  0  0  0  0  0  0
  188.3140  172.8210  136.3540 C   0  0  0  0  0  2  0  0  0  0  0  0
  184.2240  172.1460  137.1340 C   0  0  0  0  0  2  0  0  0  0  0  0
  186.4540  176.5010  136.5280 C   0  0  1  0  0  0  0  0  0  0  0  0
  186.8530  171.1350  135.5000 O   0  0  0  0  0  1  0  0  0  0  0  0
  183.3070  175.6590  135.8290 C   0  0  0  0  0  2  0  0  0  0  0  0
  182.3160  171.1340  135.7290 C   0  0  0  0  0  2  0  0  0  0  0  0
  186.6090  175.7590  135.2000 C   0  0  0  0  0  2  0  0  0  0  0  0
  185.3840  175.6810  137.2630 C   0  0  1  0  0  3  0  0  0  0  0  0
  186.0570  177.8250  136.3240 O   0  0  0  0  0  1  0  0  0  0  0  0
  186.6550  173.3200  134.6790 N   0  0  0  0  0  2  0  0  0  0  0  0
  182.5800  172.1300  134.5940 C   0  0  0  0  0  2  0  0  0  0  0  0
  188.2430  174.9540  137.5430 C   0  0  0  0  0  2  0  0  0  0  0  0
  188.1050  174.2460  136.2670 N   0  0  2  0  0  0  0  0  0  0  0  0
  183.9600  176.2220  137.0720 C   0  0  0  0  0  2  0  0  0  0  0  0
  183.0830  174.1840  136.0680 C   0  0  1  0  0  3  0  0  0  0  0  0
  182.2350  173.5850  134.9360 C   0  0  0  0  0  2  0  0  0  0  0  0
  188.9440  177.3130  136.9250 C   0  0  1  0  0  3  0  0  0  0  0  0
  188.7720  178.3410  139.0870 O   0  0  0  0  0  1  0  0  0  0  0  0
  188.7230  179.7000  137.2590 O   0  0  0  0  0  1  0  0  0  0  0  0
  189.2670  178.5320  137.7960 C   0  0  0  0  0  3  0  0  0  0  0  0
  190.1270  176.5590  136.3820 C   0  0  0  0  0  0  0  0  0  0  0  0
  190.1910  176.3210  135.0740 C   0  0  0  0  0  2  0  0  0  0  0  0
  191.1480  175.9470  137.2870 C   0  0  0  0  0  2  0  0  0  0  0  0
  192.3280  176.6900  137.2480 O   0  0  0  0  0  0  0  0  0  0  0  0
  193.0960  176.1790  138.2920 C   0  0  0  0  0  1  0  0  0  0  0  0
  1 10  1  1  0  0  0
  1  7  1  0  0  0  0
  2 14  1  0  0  0  0
  3  2  1  0  0  0  0
  3  8  1  0  0  0  0
  4 18  1  0  0  0  0
  5  8  1  0  0  0  0
  6 19  1  0  0  0  0
  6  2  1  0  0  0  0
  9 14  1  0  0  0  0
  9  4  1  0  0  0  0
 11 21  1  0  0  0  0
 11 20  1  0  0  0  0
 12  5  1  0  0  0  0
 13  6  1  0  0  0  0
 13  9  1  0  0  0  0
 15  9  1  0  0  0  0
 16  1  1  0  0  0  0
 16  6  1  0  0  0  0
 17 22  1  0  0  0  0
 17 12  1  0  0  0  0
 19  7  1  0  0  0  0
 19 18  1  0  0  0  0
 20 14  1  0  0  0  0
 21  3  1  0  0  0  0
 22 21  1  0  0  0  0
 23  4  1  0  0  0  0
 23 26  1  0  0  0  0
 25 26  1  0  0  0  0
 26 24  1  0  0  0  0
 27 23  1  0  0  0  0
 27 29  1  0  0  0  0
 28 27  2  0  0  0  0
 30 29  1  0  0  0  0
 30 31  1  0  0  0  0
M  END
>  <MODEL>
9

>  <REMARK>
 VINA RESULT:      -4.5      3.657      6.786
  Name = 
  5 active torsions:
  status: ('A' for Active; 'I' for Inactive)
    1  A    between atoms: O_1  and  C_8
    2  A    between atoms: C_7  and  C_22
    3  A    between atoms: C_8  and  C_19
    4  A    between atoms: C_9  and  C_22
    5  A    between atoms: C_19  and  C_22
                            x       y       z     vdW  Elec       q    Type
                         _______ _______ _______ _____ _____    ______ ____

>  <TORSDO>
F 5

$$$$
