=
 OpenBabel11052412593D

 31 35  0  0  1  0  0  0  0  0999 V2000
  185.1780  178.4450  142.8240 C   0  0  0  0  0  0  0  0  0  0  0  0
  188.6660  177.8950  141.5050 C   0  0  0  0  0  0  0  0  0  0  0  0
  189.4710  177.5020  142.6250 C   0  0  0  0  0  0  0  0  0  0  0  0
  189.7680  177.0200  145.0050 C   0  0  0  0  0  0  0  0  0  0  0  0
  187.2720  178.1980  141.5840 C   0  0  0  0  0  0  0  0  0  0  0  0
  184.5070  178.7800  141.6500 C   0  0  0  0  0  3  0  0  0  0  0  0
  188.9620  177.4070  143.9340 C   0  0  0  0  0  3  0  0  0  0  0  0
  188.5460  178.3750  139.0910 C   0  0  0  0  0  0  0  0  0  0  0  0
  184.4420  178.3900  144.1130 C   0  0  0  0  0  1  0  0  0  0  0  0
  191.4110  177.2580  141.1680 C   0  0  0  0  0  3  0  0  0  0  0  0
  189.2320  176.9380  146.2830 O   0  0  0  0  0  1  0  0  0  0  0  0
  187.2180  178.6110  139.2180 N   0  0  0  0  0  0  0  0  0  0  0  0
  189.2910  177.9760  140.2230 C   0  0  0  0  0  0  0  0  0  0  0  0
  186.5430  178.1550  142.7880 C   0  0  0  0  0  3  0  0  0  0  0  0
  191.1110  176.7160  144.7930 C   0  0  0  0  0  3  0  0  0  0  0  0
  186.5720  178.5460  140.4030 C   0  0  0  0  0  0  0  0  0  0  0  0
  185.2030  178.8300  140.4420 C   0  0  0  0  0  3  0  0  0  0  0  0
  190.6450  177.6460  140.0800 C   0  0  0  0  0  3  0  0  0  0  0  0
  190.8430  177.1880  142.4320 C   0  0  0  0  0  0  0  0  0  0  0  0
  191.6460  176.8000  143.5080 C   0  0  0  0  0  3  0  0  0  0  0  0
  189.9240  176.9660  135.8600 O   0  0  0  0  0  1  0  0  0  0  0  0
  188.0610  178.3430  136.6350 C   0  0  0  0  0  2  0  0  0  0  0  0
  188.9700  177.1640  136.8630 C   0  0  2  0  0  0  0  0  0  0  0  0
  189.1540  178.4310  137.7060 C   0  0  2  0  0  3  0  0  0  0  0  0
  188.3590  175.9700  137.4850 N   0  0  0  0  0  0  0  0  0  0  0  0
  187.0460  175.6340  136.8870 C   0  0  0  0  0  0  0  0  0  0  0  0
  187.0710  175.8660  135.5220 F   0  0  0  0  0  0  0  0  0  0  0  0
  186.0300  176.3940  137.4440 F   0  0  0  0  0  0  0  0  0  0  0  0
  186.7290  174.1600  137.0790 C   0  0  0  0  0  1  0  0  0  0  0  0
  190.3470  174.9450  138.1710 O   0  0  0  0  0  1  0  0  0  0  0  0
  189.2790  174.8520  137.2790 C   0  0  0  0  0  2  0  0  0  0  0  0
  1  9  1  0  0  0  0
  2  5  1  0  0  0  0
  2  3  1  0  0  0  0
  3  7  1  0  0  0  0
  4 11  1  0  0  0  0
  5 14  2  0  0  0  0
  6  1  2  0  0  0  0
  7  4  2  0  0  0  0
  8 12  2  0  0  0  0
  8 13  1  0  0  0  0
 10 19  1  0  0  0  0
 12 16  1  0  0  0  0
 13  2  2  0  0  0  0
 14  1  1  0  0  0  0
 15  4  1  0  0  0  0
 16 17  2  0  0  0  0
 16  5  1  0  0  0  0
 17  6  1  0  0  0  0
 18 13  1  0  0  0  0
 18 10  2  0  0  0  0
 19  3  2  0  0  0  0
 19 20  1  0  0  0  0
 20 15  2  0  0  0  0
 22 23  1  0  0  0  0
 22 24  1  0  0  0  0
 23 21  1  6  0  0  0
 23 25  1  0  0  0  0
 23 24  1  0  0  0  0
 24  8  1  1  0  0  0
 26 29  1  0  0  0  0
 26 28  1  0  0  0  0
 26 25  1  0  0  0  0
 27 26  1  0  0  0  0
 31 25  1  0  0  0  0
 31 30  1  0  0  0  0
M  END
>  <MODEL>
1

>  <REMARK>
 VINA RESULT:      -9.1      0.000      0.000
  Name = 
  4 active torsions:
  status: ('A' for Active; 'I' for Inactive)
    1  A    between atoms: C_1  and  N_19
    2  A    between atoms: C_7  and  N_19
    3  A    between atoms: C_15  and  C_23
    4  A    between atoms: N_19  and  C_22
                            x       y       z     vdW  Elec       q    Type
                         _______ _______ _______ _____ _____    ______ ____

>  <TORSDO>
F 4

$$$$
=
 OpenBabel11052412593D

 31 35  0  0  1  0  0  0  0  0999 V2000
  189.5570  177.4410  141.5750 C   0  0  0  0  0  0  0  0  0  0  0  0
  186.0680  178.3780  142.6520 C   0  0  0  0  0  0  0  0  0  0  0  0
  186.0310  178.2480  144.0800 C   0  0  0  0  0  0  0  0  0  0  0  0
  187.0720  177.6950  146.2240 C   0  0  0  0  0  0  0  0  0  0  0  0
  187.2220  178.1120  141.8510 C   0  0  0  0  0  0  0  0  0  0  0  0
  189.4660  177.6410  140.1990 C   0  0  0  0  0  3  0  0  0  0  0  0
  187.1360  177.8100  144.8340 C   0  0  0  0  0  3  0  0  0  0  0  0
  184.8620  178.9400  140.5780 C   0  0  0  0  0  0  0  0  0  0  0  0
  190.8350  176.9820  142.1770 C   0  0  0  0  0  1  0  0  0  0  0  0
  183.7150  179.0110  144.1070 C   0  0  0  0  0  3  0  0  0  0  0  0
  188.1810  177.2590  146.9360 O   0  0  0  0  0  1  0  0  0  0  0  0
  185.9970  178.7150  139.8730 N   0  0  0  0  0  0  0  0  0  0  0  0
  184.8820  178.8130  141.9850 C   0  0  0  0  0  0  0  0  0  0  0  0
  188.4470  177.6770  142.3880 C   0  0  0  0  0  3  0  0  0  0  0  0
  185.8950  178.0180  146.8970 C   0  0  0  0  0  3  0  0  0  0  0  0
  187.1480  178.3050  140.4500 C   0  0  0  0  0  0  0  0  0  0  0  0
  188.2640  178.0730  139.6380 C   0  0  0  0  0  3  0  0  0  0  0  0
  183.7370  179.1300  142.7260 C   0  0  0  0  0  3  0  0  0  0  0  0
  184.8420  178.5710  144.7870 C   0  0  0  0  0  0  0  0  0  0  0  0
  184.7830  178.4550  146.1790 C   0  0  0  0  0  3  0  0  0  0  0  0
  182.3670  179.0940  137.7370 O   0  0  0  0  0  1  0  0  0  0  0  0
  182.4320  178.5480  140.1170 C   0  0  0  0  0  2  0  0  0  0  0  0
  183.0950  178.4890  138.7660 C   0  0  2  0  0  0  0  0  0  0  0  0
  183.6440  179.4420  139.8330 C   0  0  2  0  0  3  0  0  0  0  0  0
  183.8440  177.2540  138.4520 N   0  0  0  0  0  0  0  0  0  0  0  0
  183.0240  176.0350  138.6370 C   0  0  0  0  0  0  0  0  0  0  0  0
  181.7870  176.1980  138.0360 F   0  0  0  0  0  0  0  0  0  0  0  0
  182.8270  175.7610  139.9820 F   0  0  0  0  0  0  0  0  0  0  0  0
  183.6830  174.8360  137.9760 C   0  0  0  0  0  1  0  0  0  0  0  0
  185.6430  177.5260  136.9800 O   0  0  0  0  0  1  0  0  0  0  0  0
  184.2620  177.3410  137.0530 C   0  0  0  0  0  2  0  0  0  0  0  0
  1  9  1  0  0  0  0
  1 14  1  0  0  0  0
  2  3  1  0  0  0  0
  3 19  2  0  0  0  0
  3  7  1  0  0  0  0
  4 15  1  0  0  0  0
  4 11  1  0  0  0  0
  5 14  2  0  0  0  0
  5  2  1  0  0  0  0
  6  1  2  0  0  0  0
  7  4  2  0  0  0  0
  8 13  1  0  0  0  0
 10 19  1  0  0  0  0
 12 16  1  0  0  0  0
 12  8  2  0  0  0  0
 13  2  2  0  0  0  0
 13 18  1  0  0  0  0
 16  5  1  0  0  0  0
 17  6  1  0  0  0  0
 17 16  2  0  0  0  0
 18 10  2  0  0  0  0
 19 20  1  0  0  0  0
 20 15  2  0  0  0  0
 23 21  1  6  0  0  0
 23 24  1  0  0  0  0
 23 22  1  0  0  0  0
 24 22  1  0  0  0  0
 24  8  1  1  0  0  0
 25 26  1  0  0  0  0
 25 23  1  0  0  0  0
 26 28  1  0  0  0  0
 27 26  1  0  0  0  0
 29 26  1  0  0  0  0
 30 31  1  0  0  0  0
 31 25  1  0  0  0  0
M  END
>  <MODEL>
2

>  <REMARK>
 VINA RESULT:      -9.0      2.718      5.090
  Name = 
  4 active torsions:
  status: ('A' for Active; 'I' for Inactive)
    1  A    between atoms: C_1  and  N_19
    2  A    between atoms: C_7  and  N_19
    3  A    between atoms: C_15  and  C_23
    4  A    between atoms: N_19  and  C_22
                            x       y       z     vdW  Elec       q    Type
                         _______ _______ _______ _____ _____    ______ ____

>  <TORSDO>
F 4

$$$$
=
 OpenBabel11052412593D

 31 35  0  0  1  0  0  0  0  0999 V2000
  189.1540  177.6530  141.1260 C   0  0  0  0  0  0  0  0  0  0  0  0
  186.4960  178.1420  143.7550 C   0  0  0  0  0  0  0  0  0  0  0  0
  187.1230  177.8970  145.0220 C   0  0  0  0  0  0  0  0  0  0  0  0
  189.0560  177.2860  146.3900 C   0  0  0  0  0  0  0  0  0  0  0  0
  187.1690  178.0590  142.4960 C   0  0  0  0  0  0  0  0  0  0  0  0
  188.4350  177.9510  139.9710 C   0  0  0  0  0  3  0  0  0  0  0  0
  188.4720  177.5160  145.1440 C   0  0  0  0  0  3  0  0  0  0  0  0
  184.4470  178.7390  142.5230 C   0  0  0  0  0  0  0  0  0  0  0  0
  190.5890  177.2810  141.0340 C   0  0  0  0  0  1  0  0  0  0  0  0
  185.0370  178.4150  146.1730 C   0  0  0  0  0  3  0  0  0  0  0  0
  190.3900  176.9110  146.4730 O   0  0  0  0  0  1  0  0  0  0  0  0
  185.1460  178.6870  141.3630 N   0  0  0  0  0  0  0  0  0  0  0  0
  185.1150  178.5050  143.7460 C   0  0  0  0  0  0  0  0  0  0  0  0
  188.5270  177.7100  142.3730 C   0  0  0  0  0  3  0  0  0  0  0  0
  188.3010  177.4330  147.5520 C   0  0  0  0  0  3  0  0  0  0  0  0
  186.4540  178.3520  141.3100 C   0  0  0  0  0  0  0  0  0  0  0  0
  187.0870  178.3000  140.0640 C   0  0  0  0  0  3  0  0  0  0  0  0
  184.4180  178.6440  144.9530 C   0  0  0  0  0  3  0  0  0  0  0  0
  186.3710  178.0400  146.2190 C   0  0  0  0  0  0  0  0  0  0  0  0
  186.9610  177.8100  147.4650 C   0  0  0  0  0  3  0  0  0  0  0  0
  181.2360  179.8630  140.8670 O   0  0  0  0  0  1  0  0  0  0  0  0
  182.0910  177.9750  142.1600 C   0  0  0  0  0  2  0  0  0  0  0  0
  182.3250  179.0180  141.0990 C   0  0  2  0  0  0  0  0  0  0  0  0
  182.9980  179.1720  142.4670 C   0  0  2  0  0  3  0  0  0  0  0  0
  183.1430  178.6060  139.9380 N   0  0  0  0  0  0  0  0  0  0  0  0
  182.6570  177.3500  139.3240 C   0  0  0  0  0  0  0  0  0  0  0  0
  181.2780  177.3850  139.1950 F   0  0  0  0  0  0  0  0  0  0  0  0
  182.9980  176.2480  140.0940 F   0  0  0  0  0  0  0  0  0  0  0  0
  183.2280  177.1770  137.9270 C   0  0  0  0  0  1  0  0  0  0  0  0
  184.2430  180.4360  138.9810 O   0  0  0  0  0  1  0  0  0  0  0  0
  183.0700  179.6820  138.9490 C   0  0  0  0  0  2  0  0  0  0  0  0
  1 14  1  0  0  0  0
  2  3  1  0  0  0  0
  3  7  2  0  0  0  0
  3 19  1  0  0  0  0
  4 11  1  0  0  0  0
  4 15  2  0  0  0  0
  5  2  1  0  0  0  0
  6 17  1  0  0  0  0
  6  1  2  0  0  0  0
  7  4  1  0  0  0  0
  8 13  1  0  0  0  0
  9  1  1  0  0  0  0
 10 19  1  0  0  0  0
 12  8  2  0  0  0  0
 13  2  2  0  0  0  0
 13 18  1  0  0  0  0
 14  5  2  0  0  0  0
 16 12  1  0  0  0  0
 16  5  1  0  0  0  0
 17 16  2  0  0  0  0
 18 10  2  0  0  0  0
 19 20  2  0  0  0  0
 20 15  1  0  0  0  0
 22 24  1  0  0  0  0
 23 21  1  6  0  0  0
 23 22  1  0  0  0  0
 23 24  1  0  0  0  0
 24  8  1  6  0  0  0
 25 23  1  0  0  0  0
 26 25  1  0  0  0  0
 26 28  1  0  0  0  0
 27 26  1  0  0  0  0
 29 26  1  0  0  0  0
 31 30  1  0  0  0  0
 31 25  1  0  0  0  0
M  END
>  <MODEL>
3

>  <REMARK>
 VINA RESULT:      -8.9      3.287      5.686
  Name = 
  4 active torsions:
  status: ('A' for Active; 'I' for Inactive)
    1  A    between atoms: C_1  and  N_19
    2  A    between atoms: C_7  and  N_19
    3  A    between atoms: C_15  and  C_23
    4  A    between atoms: N_19  and  C_22
                            x       y       z     vdW  Elec       q    Type
                         _______ _______ _______ _____ _____    ______ ____

>  <TORSDO>
F 4

$$$$
=
 OpenBabel11052412593D

 31 35  0  0  1  0  0  0  0  0999 V2000
  188.2370  177.9120  140.8830 C   0  0  0  0  0  0  0  0  0  0  0  0
  186.0560  178.2740  143.9360 C   0  0  0  0  0  0  0  0  0  0  0  0
  186.8780  177.9580  145.0680 C   0  0  0  0  0  0  0  0  0  0  0  0
  189.0020  177.2630  146.0650 C   0  0  0  0  0  0  0  0  0  0  0  0
  186.5110  178.2550  142.5810 C   0  0  0  0  0  0  0  0  0  0  0  0
  187.3420  178.2750  139.8800 C   0  0  0  0  0  3  0  0  0  0  0  0
  188.2240  177.5630  144.9460 C   0  0  0  0  0  3  0  0  0  0  0  0
  183.8410  178.9500  143.0930 C   0  0  0  0  0  0  0  0  0  0  0  0
  189.6320  177.5360  140.5360 C   0  0  0  0  0  1  0  0  0  0  0  0
  185.0180  178.4260  146.5730 C   0  0  0  0  0  3  0  0  0  0  0  0
  190.3250  176.8760  145.9070 O   0  0  0  0  0  1  0  0  0  0  0  0
  184.3380  178.9550  141.8320 N   0  0  0  0  0  0  0  0  0  0  0  0
  184.6970  178.6460  144.1750 C   0  0  0  0  0  0  0  0  0  0  0  0
  187.8250  177.9050  142.2170 C   0  0  0  0  0  3  0  0  0  0  0  0
  188.4500  177.3530  147.3420 C   0  0  0  0  0  3  0  0  0  0  0  0
  185.6150  178.6160  141.5460 C   0  0  0  0  0  0  0  0  0  0  0  0
  186.0330  178.6270  140.2110 C   0  0  0  0  0  3  0  0  0  0  0  0
  184.2110  178.7240  145.4860 C   0  0  0  0  0  3  0  0  0  0  0  0
  186.3360  178.0420  146.3780 C   0  0  0  0  0  0  0  0  0  0  0  0
  187.1200  177.7410  147.4970 C   0  0  0  0  0  3  0  0  0  0  0  0
  180.3860  180.0810  142.0420 O   0  0  0  0  0  1  0  0  0  0  0  0
  181.4530  178.2000  143.1790 C   0  0  0  0  0  2  0  0  0  0  0  0
  181.4950  179.2290  142.0800 C   0  0  2  0  0  0  0  0  0  0  0  0
  182.4090  179.3930  143.2990 C   0  0  2  0  0  3  0  0  0  0  0  0
  182.0820  178.7980  140.7940 N   0  0  0  0  0  0  0  0  0  0  0  0
  181.4340  177.5790  140.2590 C   0  0  0  0  0  0  0  0  0  0  0  0
  180.8040  177.8620  139.0590 F   0  0  0  0  0  0  0  0  0  0  0  0
  180.4890  177.0820  141.1450 F   0  0  0  0  0  0  0  0  0  0  0  0
  182.4650  176.5000  139.9740 C   0  0  0  0  0  1  0  0  0  0  0  0
  183.0120  179.9850  139.0040 O   0  0  0  0  0  1  0  0  0  0  0  0
  181.9000  179.8940  139.8420 C   0  0  0  0  0  2  0  0  0  0  0  0
  1 14  1  0  0  0  0
  2 13  2  0  0  0  0
  2  3  1  0  0  0  0
  3 19  1  0  0  0  0
  4 15  2  0  0  0  0
  5  2  1  0  0  0  0
  6 17  1  0  0  0  0
  6  1  2  0  0  0  0
  7  3  2  0  0  0  0
  7  4  1  0  0  0  0
  8 13  1  0  0  0  0
  9  1  1  0  0  0  0
 11  4  1  0  0  0  0
 12  8  2  0  0  0  0
 13 18  1  0  0  0  0
 14  5  2  0  0  0  0
 15 20  1  0  0  0  0
 16 12  1  0  0  0  0
 16  5  1  0  0  0  0
 17 16  2  0  0  0  0
 18 10  2  0  0  0  0
 19 10  1  0  0  0  0
 19 20  2  0  0  0  0
 22 24  1  0  0  0  0
 23 21  1  6  0  0  0
 23 22  1  0  0  0  0
 23 24  1  0  0  0  0
 24  8  1  6  0  0  0
 25 23  1  0  0  0  0
 26 25  1  0  0  0  0
 26 28  1  0  0  0  0
 27 26  1  0  0  0  0
 29 26  1  0  0  0  0
 30 31  1  0  0  0  0
 31 25  1  0  0  0  0
M  END
>  <MODEL>
4

>  <REMARK>
 VINA RESULT:      -8.9      3.657      6.270
  Name = 
  4 active torsions:
  status: ('A' for Active; 'I' for Inactive)
    1  A    between atoms: C_1  and  N_19
    2  A    between atoms: C_7  and  N_19
    3  A    between atoms: C_15  and  C_23
    4  A    between atoms: N_19  and  C_22
                            x       y       z     vdW  Elec       q    Type
                         _______ _______ _______ _____ _____    ______ ____

>  <TORSDO>
F 4

$$$$
=
 OpenBabel11052412593D

 31 35  0  0  1  0  0  0  0  0999 V2000
  184.9520  178.6140  143.0800 C   0  0  0  0  0  0  0  0  0  0  0  0
  188.5730  177.8810  142.3350 C   0  0  0  0  0  0  0  0  0  0  0  0
  189.1810  177.5110  143.5800 C   0  0  0  0  0  0  0  0  0  0  0  0
  189.0930  177.1280  145.9950 C   0  0  0  0  0  0  0  0  0  0  0  0
  187.1970  178.2370  142.1870 C   0  0  0  0  0  0  0  0  0  0  0  0
  184.4810  178.9190  141.8050 C   0  0  0  0  0  3  0  0  0  0  0  0
  188.4760  177.4940  144.7980 C   0  0  0  0  0  3  0  0  0  0  0  0
  188.8410  178.2550  139.9140 C   0  0  0  0  0  0  0  0  0  0  0  0
  184.0260  178.6450  144.2420 C   0  0  0  0  0  1  0  0  0  0  0  0
  191.3080  177.1320  142.4490 C   0  0  0  0  0  3  0  0  0  0  0  0
  188.3660  177.1220  147.1770 O   0  0  0  0  0  1  0  0  0  0  0  0
  187.5200  178.5430  139.8260 N   0  0  0  0  0  0  0  0  0  0  0  0
  189.3880  177.8810  141.1620 C   0  0  0  0  0  0  0  0  0  0  0  0
  186.2930  178.2750  143.2660 C   0  0  0  0  0  3  0  0  0  0  0  0
  190.4390  176.7660  146.0030 C   0  0  0  0  0  3  0  0  0  0  0  0
  186.7000  178.5560  140.9000 C   0  0  0  0  0  0  0  0  0  0  0  0
  185.3540  178.8890  140.7170 C   0  0  0  0  0  3  0  0  0  0  0  0
  190.7330  177.4970  141.2420 C   0  0  0  0  0  3  0  0  0  0  0  0
  190.5520  177.1390  143.6120 C   0  0  0  0  0  0  0  0  0  0  0  0
  191.1660  176.7720  144.8140 C   0  0  0  0  0  3  0  0  0  0  0  0
  189.7300  177.1500  136.4050 O   0  0  0  0  0  1  0  0  0  0  0  0
  189.0510  179.1730  137.5940 C   0  0  0  0  0  2  0  0  0  0  0  0
  188.9150  177.6850  137.4080 C   0  0  2  0  0  0  0  0  0  0  0  0
  189.6540  178.2250  138.6370 C   0  0  2  0  0  3  0  0  0  0  0  0
  187.5600  177.1200  137.5750 N   0  0  0  0  0  0  0  0  0  0  0  0
  186.5520  177.8210  136.7480 C   0  0  0  0  0  0  0  0  0  0  0  0
  187.1800  178.5920  135.7830 F   0  0  0  0  0  0  0  0  0  0  0  0
  185.7530  178.6500  137.5220 F   0  0  0  0  0  0  0  0  0  0  0  0
  185.6700  176.8250  136.0130 C   0  0  0  0  0  1  0  0  0  0  0  0
  188.5300  175.0280  137.9720 O   0  0  0  0  0  1  0  0  0  0  0  0
  187.6190  175.7150  137.1700 C   0  0  0  0  0  2  0  0  0  0  0  0
  1 14  1  0  0  0  0
  1  9  1  0  0  0  0
  2  3  1  0  0  0  0
  3 19  2  0  0  0  0
  3  7  1  0  0  0  0
  4 15  1  0  0  0  0
  4 11  1  0  0  0  0
  5  2  1  0  0  0  0
  5 14  2  0  0  0  0
  6  1  2  0  0  0  0
  7  4  2  0  0  0  0
  8 13  1  0  0  0  0
 10 19  1  0  0  0  0
 12  8  2  0  0  0  0
 12 16  1  0  0  0  0
 13 18  1  0  0  0  0
 13  2  2  0  0  0  0
 16  5  1  0  0  0  0
 17 16  2  0  0  0  0
 17  6  1  0  0  0  0
 18 10  2  0  0  0  0
 19 20  1  0  0  0  0
 20 15  2  0  0  0  0
 22 24  1  0  0  0  0
 23 21  1  6  0  0  0
 23 25  1  0  0  0  0
 23 22  1  0  0  0  0
 23 24  1  0  0  0  0
 24  8  1  1  0  0  0
 26 28  1  0  0  0  0
 26 25  1  0  0  0  0
 27 26  1  0  0  0  0
 29 26  1  0  0  0  0
 31 25  1  0  0  0  0
 31 30  1  0  0  0  0
M  END
>  <MODEL>
5

>  <REMARK>
 VINA RESULT:      -8.6      1.133      1.372
  Name = 
  4 active torsions:
  status: ('A' for Active; 'I' for Inactive)
    1  A    between atoms: C_1  and  N_19
    2  A    between atoms: C_7  and  N_19
    3  A    between atoms: C_15  and  C_23
    4  A    between atoms: N_19  and  C_22
                            x       y       z     vdW  Elec       q    Type
                         _______ _______ _______ _____ _____    ______ ____

>  <TORSDO>
F 4

$$$$
=
 OpenBabel11052412593D

 31 35  0  0  1  0  0  0  0  0999 V2000
  184.9170  178.5690  145.4350 C   0  0  0  0  0  0  0  0  0  0  0  0
  186.5120  178.3500  142.0260 C   0  0  0  0  0  0  0  0  0  0  0  0
  187.8720  177.9450  142.2350 C   0  0  0  0  0  0  0  0  0  0  0  0
  189.7440  177.3390  143.6900 C   0  0  0  0  0  0  0  0  0  0  0  0
  185.5620  178.5480  143.0760 C   0  0  0  0  0  0  0  0  0  0  0  0
  183.6160  178.9280  145.0900 C   0  0  0  0  0  3  0  0  0  0  0  0
  188.4160  177.7340  143.5160 C   0  0  0  0  0  3  0  0  0  0  0  0
  184.7450  178.9700  140.4250 C   0  0  0  0  0  0  0  0  0  0  0  0
  185.2840  178.3830  146.8620 C   0  0  0  0  0  1  0  0  0  0  0  0
  188.2570  177.9300  139.8280 C   0  0  0  0  0  3  0  0  0  0  0  0
  190.2470  177.1390  144.9680 O   0  0  0  0  0  1  0  0  0  0  0  0
  183.8760  179.1020  141.4560 N   0  0  0  0  0  0  0  0  0  0  0  0
  186.0700  178.5540  140.6840 C   0  0  0  0  0  0  0  0  0  0  0  0
  185.8760  178.3790  144.4380 C   0  0  0  0  0  3  0  0  0  0  0  0
  190.5640  177.1430  142.5800 C   0  0  0  0  0  3  0  0  0  0  0  0
  184.2360  178.9190  142.7460 C   0  0  0  0  0  0  0  0  0  0  0  0
  183.2770  179.1020  143.7480 C   0  0  0  0  0  3  0  0  0  0  0  0
  186.9460  178.3300  139.6140 C   0  0  0  0  0  3  0  0  0  0  0  0
  188.7270  177.7410  141.1190 C   0  0  0  0  0  0  0  0  0  0  0  0
  190.0550  177.3450  141.2980 C   0  0  0  0  0  3  0  0  0  0  0  0
  182.4240  178.3740  137.4950 O   0  0  0  0  0  1  0  0  0  0  0  0
  183.0830  180.1830  138.9990 C   0  0  0  0  0  2  0  0  0  0  0  0
  182.7620  178.7240  138.8060 C   0  0  2  0  0  0  0  0  0  0  0  0
  184.2180  179.1540  139.0180 C   0  0  2  0  0  3  0  0  0  0  0  0
  182.0430  178.0560  139.9110 N   0  0  0  0  0  0  0  0  0  0  0  0
  180.7430  178.7000  140.2080 C   0  0  0  0  0  0  0  0  0  0  0  0
  180.1360  179.1120  139.0330 F   0  0  0  0  0  0  0  0  0  0  0  0
  180.9050  179.8050  141.0300 F   0  0  0  0  0  0  0  0  0  0  0  0
  179.7940  177.7180  140.8750 C   0  0  0  0  0  1  0  0  0  0  0  0
  183.0050  175.9550  139.5390 O   0  0  0  0  0  1  0  0  0  0  0  0
  181.8080  176.6700  139.5030 C   0  0  0  0  0  2  0  0  0  0  0  0
  1  9  1  0  0  0  0
  2  3  1  0  0  0  0
  2  5  1  0  0  0  0
  3  7  2  0  0  0  0
  4 11  1  0  0  0  0
  5 14  1  0  0  0  0
  6  1  1  0  0  0  0
  7  4  1  0  0  0  0
  8 13  1  0  0  0  0
  8 12  2  0  0  0  0
 10 19  1  0  0  0  0
 12 16  1  0  0  0  0
 13  2  2  0  0  0  0
 14  1  2  0  0  0  0
 15  4  2  0  0  0  0
 16  5  2  0  0  0  0
 16 17  1  0  0  0  0
 17  6  2  0  0  0  0
 18 10  2  0  0  0  0
 18 13  1  0  0  0  0
 19 20  2  0  0  0  0
 19  3  1  0  0  0  0
 20 15  1  0  0  0  0
 22 24  1  0  0  0  0
 23 21  1  6  0  0  0
 23 22  1  0  0  0  0
 23 24  1  0  0  0  0
 23 25  1  0  0  0  0
 24  8  1  1  0  0  0
 25 26  1  0  0  0  0
 26 29  1  0  0  0  0
 26 28  1  0  0  0  0
 27 26  1  0  0  0  0
 31 30  1  0  0  0  0
 31 25  1  0  0  0  0
M  END
>  <MODEL>
6

>  <REMARK>
 VINA RESULT:      -8.4      3.567      4.950
  Name = 
  4 active torsions:
  status: ('A' for Active; 'I' for Inactive)
    1  A    between atoms: C_1  and  N_19
    2  A    between atoms: C_7  and  N_19
    3  A    between atoms: C_15  and  C_23
    4  A    between atoms: N_19  and  C_22
                            x       y       z     vdW  Elec       q    Type
                         _______ _______ _______ _____ _____    ______ ____

>  <TORSDO>
F 4

$$$$
=
 OpenBabel11052412593D

 31 35  0  0  1  0  0  0  0  0999 V2000
  183.0690  178.9180  141.4340 C   0  0  0  0  0  0  0  0  0  0  0  0
  186.6770  178.2590  142.3060 C   0  0  0  0  0  0  0  0  0  0  0  0
  186.7360  178.1250  143.7330 C   0  0  0  0  0  0  0  0  0  0  0  0
  185.6920  178.1320  145.9460 C   0  0  0  0  0  0  0  0  0  0  0  0
  185.4780  178.5160  141.5720 C   0  0  0  0  0  0  0  0  0  0  0  0
  183.1470  178.9900  140.0450 C   0  0  0  0  0  3  0  0  0  0  0  0
  185.6060  178.2690  144.5600 C   0  0  0  0  0  3  0  0  0  0  0  0
  187.8880  178.2520  140.1600 C   0  0  0  0  0  0  0  0  0  0  0  0
  181.7610  179.0880  142.1160 C   0  0  0  0  0  1  0  0  0  0  0  0
  189.1300  177.6770  143.6100 C   0  0  0  0  0  3  0  0  0  0  0  0
  184.5570  178.2800  146.7300 O   0  0  0  0  0  1  0  0  0  0  0  0
  186.7150  178.4550  139.5130 N   0  0  0  0  0  0  0  0  0  0  0  0
  187.8900  178.1110  141.5660 C   0  0  0  0  0  0  0  0  0  0  0  0
  184.2220  178.6810  142.1860 C   0  0  0  0  0  3  0  0  0  0  0  0
  186.9180  177.8440  146.5430 C   0  0  0  0  0  3  0  0  0  0  0  0
  185.5370  178.5980  140.1600 C   0  0  0  0  0  0  0  0  0  0  0  0
  184.3790  178.8300  139.4100 C   0  0  0  0  0  3  0  0  0  0  0  0
  189.0860  177.8140  142.2310 C   0  0  0  0  0  3  0  0  0  0  0  0
  187.9760  177.8340  144.3630 C   0  0  0  0  0  0  0  0  0  0  0  0
  188.0570  177.6960  145.7520 C   0  0  0  0  0  3  0  0  0  0  0  0
  189.9790  176.8610  137.3280 O   0  0  0  0  0  1  0  0  0  0  0  0
  189.1410  179.0120  138.1300 C   0  0  0  0  0  2  0  0  0  0  0  0
  188.9020  177.5420  137.9070 C   0  0  2  0  0  0  0  0  0  0  0  0
  189.1390  178.0580  139.3300 C   0  0  2  0  0  3  0  0  0  0  0  0
  187.5360  177.1490  137.5030 N   0  0  0  0  0  0  0  0  0  0  0  0
  187.0720  177.8790  136.3020 C   0  0  0  0  0  0  0  0  0  0  0  0
  187.8520  177.5420  135.2080 F   0  0  0  0  0  0  0  0  0  0  0  0
  187.1440  179.2510  136.4870 F   0  0  0  0  0  0  0  0  0  0  0  0
  185.6410  177.4980  135.9580 C   0  0  0  0  0  1  0  0  0  0  0  0
  186.3450  175.1350  137.5690 O   0  0  0  0  0  1  0  0  0  0  0  0
  187.5620  175.7150  137.2120 C   0  0  0  0  0  2  0  0  0  0  0  0
  1  9  1  0  0  0  0
  1 14  1  0  0  0  0
  2  3  1  0  0  0  0
  3 19  2  0  0  0  0
  3  7  1  0  0  0  0
  4 15  1  0  0  0  0
  4 11  1  0  0  0  0
  5 14  2  0  0  0  0
  5  2  1  0  0  0  0
  6  1  2  0  0  0  0
  7  4  2  0  0  0  0
  8 13  1  0  0  0  0
 10 19  1  0  0  0  0
 12 16  1  0  0  0  0
 12  8  2  0  0  0  0
 13 18  1  0  0  0  0
 13  2  2  0  0  0  0
 16  5  1  0  0  0  0
 17  6  1  0  0  0  0
 17 16  2  0  0  0  0
 18 10  2  0  0  0  0
 19 20  1  0  0  0  0
 20 15  2  0  0  0  0
 22 24  1  0  0  0  0
 23 21  1  6  0  0  0
 23 22  1  0  0  0  0
 23 24  1  0  0  0  0
 24  8  1  1  0  0  0
 25 23  1  0  0  0  0
 26 28  1  0  0  0  0
 26 25  1  0  0  0  0
 27 26  1  0  0  0  0
 29 26  1  0  0  0  0
 31 25  1  0  0  0  0
 31 30  1  0  0  0  0
M  END
>  <MODEL>
7

>  <REMARK>
 VINA RESULT:      -8.2      1.911      2.817
  Name = 
  4 active torsions:
  status: ('A' for Active; 'I' for Inactive)
    1  A    between atoms: C_1  and  N_19
    2  A    between atoms: C_7  and  N_19
    3  A    between atoms: C_15  and  C_23
    4  A    between atoms: N_19  and  C_22
                            x       y       z     vdW  Elec       q    Type
                         _______ _______ _______ _____ _____    ______ ____

>  <TORSDO>
F 4

$$$$
=
 OpenBabel11052412593D

 31 35  0  0  1  0  0  0  0  0999 V2000
  190.1540  177.3540  143.3940 C   0  0  0  0  0  0  0  0  0  0  0  0
  186.6190  178.1920  142.3870 C   0  0  0  0  0  0  0  0  0  0  0  0
  185.8690  178.3320  143.6010 C   0  0  0  0  0  0  0  0  0  0  0  0
  185.6830  178.2790  146.0410 C   0  0  0  0  0  0  0  0  0  0  0  0
  188.0120  177.8740  142.3350 C   0  0  0  0  0  0  0  0  0  0  0  0
  190.7690  177.2830  142.1460 C   0  0  0  0  0  3  0  0  0  0  0  0
  186.4360  178.1340  144.8750 C   0  0  0  0  0  3  0  0  0  0  0  0
  186.6280  178.2530  139.9240 C   0  0  0  0  0  0  0  0  0  0  0  0
  190.9460  177.1220  144.6280 C   0  0  0  0  0  1  0  0  0  0  0  0
  183.8710  178.8960  142.3240 C   0  0  0  0  0  3  0  0  0  0  0  0
  186.2750  178.0770  147.2790 O   0  0  0  0  0  1  0  0  0  0  0  0
  187.9570  177.9910  139.9350 N   0  0  0  0  0  0  0  0  0  0  0  0
  185.9380  178.3960  141.1480 C   0  0  0  0  0  0  0  0  0  0  0  0
  188.7920  177.6490  143.4840 C   0  0  0  0  0  3  0  0  0  0  0  0
  184.3360  178.6280  145.9610 C   0  0  0  0  0  3  0  0  0  0  0  0
  188.6550  177.7910  141.0750 C   0  0  0  0  0  0  0  0  0  0  0  0
  190.0200  177.5020  140.9890 C   0  0  0  0  0  3  0  0  0  0  0  0
  184.5840  178.7540  141.1430 C   0  0  0  0  0  3  0  0  0  0  0  0
  184.4940  178.6850  143.5440 C   0  0  0  0  0  0  0  0  0  0  0  0
  183.7440  178.8300  144.7150 C   0  0  0  0  0  3  0  0  0  0  0  0
  186.4680  178.7480  136.1750 O   0  0  0  0  0  1  0  0  0  0  0  0
  185.6730  177.1810  137.8720 C   0  0  0  0  0  2  0  0  0  0  0  0
  186.7720  178.0760  137.3630 C   0  0  2  0  0  0  0  0  0  0  0  0
  185.9600  178.5050  138.5890 C   0  0  2  0  0  3  0  0  0  0  0  0
  188.1570  177.5930  137.5520 N   0  0  0  0  0  0  0  0  0  0  0  0
  188.3690  176.2490  136.9670 C   0  0  0  0  0  0  0  0  0  0  0  0
  187.8900  176.2130  135.6680 F   0  0  0  0  0  0  0  0  0  0  0  0
  187.7160  175.2710  137.7030 F   0  0  0  0  0  0  0  0  0  0  0  0
  189.8500  175.9170  136.9020 C   0  0  0  0  0  1  0  0  0  0  0  0
  189.0560  179.7530  137.5940 O   0  0  0  0  0  1  0  0  0  0  0  0
  189.0460  178.5480  136.8910 C   0  0  0  0  0  2  0  0  0  0  0  0
  1 14  1  0  0  0  0
  1  9  1  0  0  0  0
  2  3  1  0  0  0  0
  3  7  1  0  0  0  0
  4 11  1  0  0  0  0
  5  2  1  0  0  0  0
  5 14  2  0  0  0  0
  6  1  2  0  0  0  0
  7  4  2  0  0  0  0
  8 12  2  0  0  0  0
  8 13  1  0  0  0  0
 10 19  1  0  0  0  0
 12 16  1  0  0  0  0
 13  2  2  0  0  0  0
 15  4  1  0  0  0  0
 16  5  1  0  0  0  0
 17 16  2  0  0  0  0
 17  6  1  0  0  0  0
 18 13  1  0  0  0  0
 18 10  2  0  0  0  0
 19  3  2  0  0  0  0
 19 20  1  0  0  0  0
 20 15  2  0  0  0  0
 22 24  1  0  0  0  0
 23 21  1  6  0  0  0
 23 25  1  0  0  0  0
 23 22  1  0  0  0  0
 23 24  1  0  0  0  0
 24  8  1  1  0  0  0
 26 25  1  0  0  0  0
 26 28  1  0  0  0  0
 27 26  1  0  0  0  0
 29 26  1  0  0  0  0
 31 25  1  0  0  0  0
 31 30  1  0  0  0  0
M  END
>  <MODEL>
8

>  <REMARK>
 VINA RESULT:      -8.1      1.685      4.366
  Name = 
  4 active torsions:
  status: ('A' for Active; 'I' for Inactive)
    1  A    between atoms: C_1  and  N_19
    2  A    between atoms: C_7  and  N_19
    3  A    between atoms: C_15  and  C_23
    4  A    between atoms: N_19  and  C_22
                            x       y       z     vdW  Elec       q    Type
                         _______ _______ _______ _____ _____    ______ ____

>  <TORSDO>
F 4

$$$$
=
 OpenBabel11052412593D

 31 35  0  0  1  0  0  0  0  0999 V2000
  190.2620  177.5020  139.6100 C   0  0  0  0  0  0  0  0  0  0  0  0
  187.4990  177.9770  142.1300 C   0  0  0  0  0  0  0  0  0  0  0  0
  188.0630  177.6850  143.4170 C   0  0  0  0  0  0  0  0  0  0  0  0
  189.9200  176.9960  144.8520 C   0  0  0  0  0  0  0  0  0  0  0  0
  188.2260  177.9130  140.9010 C   0  0  0  0  0  0  0  0  0  0  0  0
  189.6010  177.8460  138.4330 C   0  0  0  0  0  3  0  0  0  0  0  0
  189.3980  177.2720  143.5880 C   0  0  0  0  0  3  0  0  0  0  0  0
  185.5200  178.6510  140.8260 C   0  0  0  0  0  0  0  0  0  0  0  0
  191.6920  177.1020  139.5710 C   0  0  0  0  0  1  0  0  0  0  0  0
  185.9380  178.2170  144.4880 C   0  0  0  0  0  3  0  0  0  0  0  0
  191.2410  176.5910  144.9840 O   0  0  0  0  0  1  0  0  0  0  0  0
  186.2690  178.6150  139.6980 N   0  0  0  0  0  0  0  0  0  0  0  0
  186.1270  178.3700  142.0710 C   0  0  0  0  0  0  0  0  0  0  0  0
  189.5810  177.5390  140.8280 C   0  0  0  0  0  3  0  0  0  0  0  0
  189.1170  177.1290  145.9830 C   0  0  0  0  0  3  0  0  0  0  0  0
  187.5710  178.2540  139.6930 C   0  0  0  0  0  0  0  0  0  0  0  0
  188.2580  178.2210  138.4750 C   0  0  0  0  0  3  0  0  0  0  0  0
  185.3800  178.4920  143.2490 C   0  0  0  0  0  3  0  0  0  0  0  0
  187.2620  177.8120  144.5830 C   0  0  0  0  0  0  0  0  0  0  0  0
  187.7900  177.5360  145.8470 C   0  0  0  0  0  3  0  0  0  0  0  0
  182.1270  179.0450  139.1980 O   0  0  0  0  0  1  0  0  0  0  0  0
  183.1250  178.0100  141.1730 C   0  0  0  0  0  2  0  0  0  0  0  0
  183.2250  178.3460  139.7090 C   0  0  2  0  0  0  0  0  0  0  0  0
  184.0840  179.1160  140.7180 C   0  0  2  0  0  3  0  0  0  0  0  0
  183.8670  177.3350  138.8430 N   0  0  0  0  0  0  0  0  0  0  0  0
  183.0530  176.1050  138.7140 C   0  0  0  0  0  0  0  0  0  0  0  0
  182.4270  175.8200  139.9160 F   0  0  0  0  0  0  0  0  0  0  0  0
  183.8370  175.0180  138.3590 F   0  0  0  0  0  0  0  0  0  0  0  0
  181.9580  176.2890  137.6770 C   0  0  0  0  0  1  0  0  0  0  0  0
  185.1830  177.4300  136.9100 O   0  0  0  0  0  1  0  0  0  0  0  0
  184.0360  177.9380  137.5200 C   0  0  0  0  0  2  0  0  0  0  0  0
  1 14  1  0  0  0  0
  2  3  1  0  0  0  0
  3  7  2  0  0  0  0
  3 19  1  0  0  0  0
  4 11  1  0  0  0  0
  4 15  2  0  0  0  0
  5  2  1  0  0  0  0
  6 17  1  0  0  0  0
  6  1  2  0  0  0  0
  7  4  1  0  0  0  0
  8 13  1  0  0  0  0
  9  1  1  0  0  0  0
 10 19  1  0  0  0  0
 12  8  2  0  0  0  0
 13  2  2  0  0  0  0
 13 18  1  0  0  0  0
 14  5  2  0  0  0  0
 16 12  1  0  0  0  0
 16  5  1  0  0  0  0
 17 16  2  0  0  0  0
 18 10  2  0  0  0  0
 19 20  2  0  0  0  0
 20 15  1  0  0  0  0
 23 21  1  6  0  0  0
 23 24  1  0  0  0  0
 23 22  1  0  0  0  0
 24  8  1  6  0  0  0
 24 22  1  0  0  0  0
 25 23  1  0  0  0  0
 26 25  1  0  0  0  0
 26 27  1  0  0  0  0
 28 26  1  0  0  0  0
 29 26  1  0  0  0  0
 30 31  1  0  0  0  0
 31 25  1  0  0  0  0
M  END
>  <MODEL>
9

>  <REMARK>
 VINA RESULT:      -8.1      2.708      4.858
  Name = 
  4 active torsions:
  status: ('A' for Active; 'I' for Inactive)
    1  A    between atoms: C_1  and  N_19
    2  A    between atoms: C_7  and  N_19
    3  A    between atoms: C_15  and  C_23
    4  A    between atoms: N_19  and  C_22
                            x       y       z     vdW  Elec       q    Type
                         _______ _______ _______ _____ _____    ______ ____

>  <TORSDO>
F 4

$$$$
