=
 OpenBabel11052412483D

 25 29  0  0  0  0  0  0  0  0999 V2000
  186.8010  178.0700  145.4910 C   0  0  0  0  0  0  0  0  0  0  0  0
  188.1130  177.7320  145.1460 C   0  0  0  0  0  0  0  0  0  0  0  0
  187.2430  177.8630  147.8200 C   0  0  0  0  0  3  0  0  0  0  0  0
  185.7090  178.3930  144.7130 C   0  0  0  0  0  0  0  0  0  0  0  0
  183.1920  179.1020  143.8170 C   0  0  0  0  0  3  0  0  0  0  0  0
  188.5720  177.5170  147.5400 C   0  0  0  0  0  3  0  0  0  0  0  0
  184.6980  178.6300  145.6160 C   0  0  0  0  0  0  0  0  0  0  0  0
  183.4180  178.9880  145.2020 C   0  0  0  0  0  3  0  0  0  0  0  0
  190.3480  177.1040  145.8930 C   0  0  0  0  0  0  0  0  0  0  0  0
  191.3480  176.7960  146.9570 C   0  0  0  0  0  1  0  0  0  0  0  0
  188.5410  177.6680  143.8160 C   0  0  0  0  0  3  0  0  0  0  0  0
  184.2340  178.8580  142.8930 C   0  0  0  0  0  3  0  0  0  0  0  0
  186.4110  178.1250  146.7820 N   0  0  0  0  0  0  0  0  0  0  0  0
  185.1310  178.4650  146.8850 N   0  0  0  0  0  0  0  0  0  0  0  0
  190.7580  177.0460  144.5560 C   0  0  0  0  0  3  0  0  0  0  0  0
  185.5190  178.4960  143.3380 C   0  0  0  0  0  3  0  0  0  0  0  0
  189.8640  177.3260  143.5100 C   0  0  0  0  0  0  0  0  0  0  0  0
  189.0180  177.4480  146.2010 C   0  0  0  0  0  0  0  0  0  0  0  0
  192.0100  177.3030  140.3710 C   0  0  0  0  0  0  0  0  0  0  0  0
  190.2960  177.2640  142.0960 C   0  0  0  0  0  0  0  0  0  0  0  0
  191.5900  177.3650  141.7730 C   0  0  0  0  0  3  0  0  0  0  0  0
  193.2320  177.4000  140.0840 O   0  0  0  0  0  0  0  0  0  0  0  0
  189.3100  177.0940  141.0620 N   0  0  0  0  0  0  0  0  0  0  0  0
  191.0030  177.1260  139.2730 C   0  0  0  0  0  2  0  0  0  0  0  0
  189.5950  177.0290  139.7940 C   0  0  0  0  0  3  0  0  0  0  0  0
  1 13  1  0  0  0  0
  2  1  1  0  0  0  0
  2 18  1  0  0  0  0
  4  1  2  0  0  0  0
  4  7  1  0  0  0  0
  5  8  2  0  0  0  0
  6  3  2  0  0  0  0
  7 14  2  0  0  0  0
  8  7  1  0  0  0  0
  9 18  2  0  0  0  0
  9 10  1  0  0  0  0
 11  2  2  0  0  0  0
 12 16  2  0  0  0  0
 12  5  1  0  0  0  0
 13 14  1  0  0  0  0
 13  3  1  0  0  0  0
 15  9  1  0  0  0  0
 16  4  1  0  0  0  0
 17 11  1  0  0  0  0
 17 15  2  0  0  0  0
 18  6  1  0  0  0  0
 19 21  1  0  0  0  0
 20 17  1  0  0  0  0
 21 20  2  0  0  0  0
 22 19  2  0  0  0  0
 23 20  1  0  0  0  0
 24 25  1  0  0  0  0
 24 19  1  0  0  0  0
 25 23  2  0  0  0  0
M  END
>  <MODEL>
1

>  <REMARK>
 VINA RESULT:     -11.8      0.000      0.000
  Name = 
  1 active torsions:
  status: ('A' for Active; 'I' for Inactive)
    1  A    between atoms: C_6  and  C_23
                            x       y       z     vdW  Elec       q    Type
                         _______ _______ _______ _____ _____    ______ ____

>  <TORSDO>
F 1

$$$$
=
 OpenBabel11052412483D

 25 29  0  0  0  0  0  0  0  0999 V2000
  186.8170  178.0730  145.5570 C   0  0  0  0  0  0  0  0  0  0  0  0
  188.1310  177.7310  145.2200 C   0  0  0  0  0  0  0  0  0  0  0  0
  187.2450  177.8730  147.8890 C   0  0  0  0  0  3  0  0  0  0  0  0
  185.7300  178.3940  144.7710 C   0  0  0  0  0  0  0  0  0  0  0  0
  183.2200  179.1020  143.8580 C   0  0  0  0  0  3  0  0  0  0  0  0
  188.5750  177.5250  147.6180 C   0  0  0  0  0  3  0  0  0  0  0  0
  184.7130  178.6350  145.6670 C   0  0  0  0  0  0  0  0  0  0  0  0
  183.4360  178.9930  145.2440 C   0  0  0  0  0  3  0  0  0  0  0  0
  190.3600  177.1050  145.9820 C   0  0  0  0  0  0  0  0  0  0  0  0
  191.3540  176.7980  147.0530 C   0  0  0  0  0  1  0  0  0  0  0  0
  188.5670  177.6630  143.8930 C   0  0  0  0  0  3  0  0  0  0  0  0
  184.2660  178.8540  142.9400 C   0  0  0  0  0  3  0  0  0  0  0  0
  186.4190  178.1320  146.8450 N   0  0  0  0  0  0  0  0  0  0  0  0
  185.1390  178.4740  146.9390 N   0  0  0  0  0  0  0  0  0  0  0  0
  190.7780  177.0410  144.6490 C   0  0  0  0  0  3  0  0  0  0  0  0
  185.5490  178.4930  143.3940 C   0  0  0  0  0  3  0  0  0  0  0  0
  189.8910  177.3180  143.5960 C   0  0  0  0  0  0  0  0  0  0  0  0
  189.0290  177.4510  146.2820 C   0  0  0  0  0  0  0  0  0  0  0  0
  189.8930  176.9530  139.8110 C   0  0  0  0  0  0  0  0  0  0  0  0
  190.3310  177.2510  142.1850 C   0  0  0  0  0  0  0  0  0  0  0  0
  189.4500  177.0190  141.2060 C   0  0  0  0  0  3  0  0  0  0  0  0
  189.0510  176.7340  138.9010 O   0  0  0  0  0  0  0  0  0  0  0  0
  191.7220  177.4370  141.8680 N   0  0  0  0  0  0  0  0  0  0  0  0
  191.3370  177.1440  139.4530 C   0  0  0  0  0  2  0  0  0  0  0  0
  192.2000  177.3960  140.6590 C   0  0  0  0  0  3  0  0  0  0  0  0
  1 13  1  0  0  0  0
  2  1  1  0  0  0  0
  2 18  1  0  0  0  0
  4  1  2  0  0  0  0
  4  7  1  0  0  0  0
  5  8  2  0  0  0  0
  6  3  2  0  0  0  0
  7 14  2  0  0  0  0
  8  7  1  0  0  0  0
  9 18  2  0  0  0  0
  9 10  1  0  0  0  0
 11  2  2  0  0  0  0
 12 16  2  0  0  0  0
 12  5  1  0  0  0  0
 13 14  1  0  0  0  0
 13  3  1  0  0  0  0
 15  9  1  0  0  0  0
 16  4  1  0  0  0  0
 17 11  1  0  0  0  0
 17 15  2  0  0  0  0
 18  6  1  0  0  0  0
 19 21  1  0  0  0  0
 20 17  1  0  0  0  0
 21 20  2  0  0  0  0
 22 19  2  0  0  0  0
 23 20  1  0  0  0  0
 24 19  1  0  0  0  0
 24 25  1  0  0  0  0
 25 23  2  0  0  0  0
M  END
>  <MODEL>
2

>  <REMARK>
 VINA RESULT:     -11.7      1.058      1.323
  Name = 
  1 active torsions:
  status: ('A' for Active; 'I' for Inactive)
    1  A    between atoms: C_6  and  C_23
                            x       y       z     vdW  Elec       q    Type
                         _______ _______ _______ _____ _____    ______ ____

>  <TORSDO>
F 1

$$$$
=
 OpenBabel11052412483D

 25 29  0  0  0  0  0  0  0  0999 V2000
  186.8610  177.9500  144.9960 C   0  0  0  0  0  0  0  0  0  0  0  0
  188.0860  177.6400  144.3970 C   0  0  0  0  0  0  0  0  0  0  0  0
  187.7280  177.6330  147.1890 C   0  0  0  0  0  3  0  0  0  0  0  0
  185.6450  178.3010  144.4510 C   0  0  0  0  0  0  0  0  0  0  0  0
  183.0060  179.0310  144.0740 C   0  0  0  0  0  3  0  0  0  0  0  0
  188.9820  177.3130  146.6510 C   0  0  0  0  0  3  0  0  0  0  0  0
  184.8180  178.4850  145.5370 C   0  0  0  0  0  0  0  0  0  0  0  0
  183.4840  178.8520  145.3860 C   0  0  0  0  0  3  0  0  0  0  0  0
  190.4210  176.9960  144.6840 C   0  0  0  0  0  0  0  0  0  0  0  0
  191.6010  176.6440  145.5280 C   0  0  0  0  0  1  0  0  0  0  0  0
  188.2600  177.6450  143.0100 C   0  0  0  0  0  3  0  0  0  0  0  0
  183.8570  178.8420  142.9610 C   0  0  0  0  0  3  0  0  0  0  0  0
  186.7180  177.9380  146.3380 N   0  0  0  0  0  0  0  0  0  0  0  0
  185.4800  178.2620  146.6930 N   0  0  0  0  0  0  0  0  0  0  0  0
  190.5750  177.0070  143.2940 C   0  0  0  0  0  3  0  0  0  0  0  0
  185.2030  178.4700  143.1420 C   0  0  0  0  0  3  0  0  0  0  0  0
  189.5030  177.3290  142.4470 C   0  0  0  0  0  0  0  0  0  0  0  0
  189.1720  177.3130  145.2510 C   0  0  0  0  0  0  0  0  0  0  0  0
  189.1280  178.1970  138.7630 C   0  0  0  0  0  0  0  0  0  0  0  0
  189.6650  177.3410  140.9760 C   0  0  0  0  0  0  0  0  0  0  0  0
  188.9630  178.1910  140.2190 C   0  0  0  0  0  3  0  0  0  0  0  0
  188.4610  179.0040  138.0650 O   0  0  0  0  0  0  0  0  0  0  0  0
  190.5870  176.4240  140.3580 N   0  0  0  0  0  0  0  0  0  0  0  0
  190.0830  177.2530  138.0940 C   0  0  0  0  0  2  0  0  0  0  0  0
  190.7950  176.3620  139.0760 C   0  0  0  0  0  3  0  0  0  0  0  0
  1 13  1  0  0  0  0
  2  1  1  0  0  0  0
  2 18  1  0  0  0  0
  4  1  2  0  0  0  0
  4  7  1  0  0  0  0
  5  8  2  0  0  0  0
  6  3  2  0  0  0  0
  7 14  2  0  0  0  0
  8  7  1  0  0  0  0
  9 18  2  0  0  0  0
  9 10  1  0  0  0  0
 11  2  2  0  0  0  0
 12 16  2  0  0  0  0
 12  5  1  0  0  0  0
 13 14  1  0  0  0  0
 13  3  1  0  0  0  0
 15  9  1  0  0  0  0
 16  4  1  0  0  0  0
 17 11  1  0  0  0  0
 17 15  2  0  0  0  0
 18  6  1  0  0  0  0
 19 21  1  0  0  0  0
 20 17  1  0  0  0  0
 21 20  2  0  0  0  0
 22 19  2  0  0  0  0
 23 20  1  0  0  0  0
 24 19  1  0  0  0  0
 24 25  1  0  0  0  0
 25 23  2  0  0  0  0
M  END
>  <MODEL>
3

>  <REMARK>
 VINA RESULT:     -11.6      1.429      1.694
  Name = 
  1 active torsions:
  status: ('A' for Active; 'I' for Inactive)
    1  A    between atoms: C_6  and  C_23
                            x       y       z     vdW  Elec       q    Type
                         _______ _______ _______ _____ _____    ______ ____

>  <TORSDO>
F 1

$$$$
=
 OpenBabel11052412483D

 25 29  0  0  0  0  0  0  0  0999 V2000
  187.8380  177.7340  145.5490 C   0  0  0  0  0  0  0  0  0  0  0  0
  186.9930  178.0620  144.4830 C   0  0  0  0  0  0  0  0  0  0  0  0
  186.1370  178.1330  147.1640 C   0  0  0  0  0  3  0  0  0  0  0  0
  189.1580  177.3360  145.5750 C   0  0  0  0  0  0  0  0  0  0  0  0
  191.6800  176.5250  146.3610 C   0  0  0  0  0  3  0  0  0  0  0  0
  185.2410  178.4730  146.1410 C   0  0  0  0  0  3  0  0  0  0  0  0
  189.4400  177.1590  146.9110 C   0  0  0  0  0  0  0  0  0  0  0  0
  190.6990  176.7530  147.3430 C   0  0  0  0  0  3  0  0  0  0  0  0
  184.7810  178.7760  143.7460 C   0  0  0  0  0  0  0  0  0  0  0  0
  183.3690  179.1820  144.0050 C   0  0  0  0  0  1  0  0  0  0  0  0
  187.4230  178.0240  143.1530 C   0  0  0  0  0  3  0  0  0  0  0  0
  191.3870  176.7080  144.9900 C   0  0  0  0  0  3  0  0  0  0  0  0
  187.4000  177.7780  146.8250 N   0  0  0  0  0  0  0  0  0  0  0  0
  188.3600  177.4310  147.6750 N   0  0  0  0  0  0  0  0  0  0  0  0
  185.2290  178.7320  142.4210 C   0  0  0  0  0  3  0  0  0  0  0  0
  190.1060  177.1210  144.5780 C   0  0  0  0  0  3  0  0  0  0  0  0
  186.5470  178.3580  142.1120 C   0  0  0  0  0  0  0  0  0  0  0  0
  185.6610  178.4400  144.7920 C   0  0  0  0  0  0  0  0  0  0  0  0
  188.7800  178.0680  139.0480 C   0  0  0  0  0  0  0  0  0  0  0  0
  187.0220  178.3120  140.7120 C   0  0  0  0  0  0  0  0  0  0  0  0
  188.3150  178.1120  140.4370 C   0  0  0  0  0  3  0  0  0  0  0  0
  190.0000  177.8780  138.8060 O   0  0  0  0  0  0  0  0  0  0  0  0
  186.0790  178.4850  139.6380 N   0  0  0  0  0  0  0  0  0  0  0  0
  187.8180  178.2450  137.9100 C   0  0  0  0  0  2  0  0  0  0  0  0
  186.4050  178.4600  138.3790 C   0  0  0  0  0  3  0  0  0  0  0  0
  1  4  2  0  0  0  0
  1 13  1  0  0  0  0
  2 18  1  0  0  0  0
  2  1  1  0  0  0  0
  4  7  1  0  0  0  0
  5  8  2  0  0  0  0
  6  3  2  0  0  0  0
  7  8  1  0  0  0  0
  7 14  2  0  0  0  0
  9 10  1  0  0  0  0
  9 18  2  0  0  0  0
 11  2  2  0  0  0  0
 12  5  1  0  0  0  0
 13  3  1  0  0  0  0
 13 14  1  0  0  0  0
 15  9  1  0  0  0  0
 16 12  2  0  0  0  0
 16  4  1  0  0  0  0
 17 15  2  0  0  0  0
 17 11  1  0  0  0  0
 18  6  1  0  0  0  0
 19 21  1  0  0  0  0
 20 17  1  0  0  0  0
 21 20  2  0  0  0  0
 22 19  2  0  0  0  0
 23 20  1  0  0  0  0
 24 25  1  0  0  0  0
 24 19  1  0  0  0  0
 25 23  2  0  0  0  0
M  END
>  <MODEL>
4

>  <REMARK>
 VINA RESULT:     -11.1      1.844      4.828
  Name = 
  1 active torsions:
  status: ('A' for Active; 'I' for Inactive)
    1  A    between atoms: C_6  and  C_23
                            x       y       z     vdW  Elec       q    Type
                         _______ _______ _______ _____ _____    ______ ____

>  <TORSDO>
F 1

$$$$
=
 OpenBabel11052412483D

 25 29  0  0  0  0  0  0  0  0999 V2000
  185.3250  178.3440  144.4500 C   0  0  0  0  0  0  0  0  0  0  0  0
  186.6730  178.0850  144.1800 C   0  0  0  0  0  0  0  0  0  0  0  0
  185.6760  178.3130  146.8030 C   0  0  0  0  0  3  0  0  0  0  0  0
  184.2500  178.5340  143.6090 C   0  0  0  0  0  0  0  0  0  0  0  0
  181.7310  178.9950  142.5690 C   0  0  0  0  0  3  0  0  0  0  0  0
  187.0380  178.0530  146.6000 C   0  0  0  0  0  3  0  0  0  0  0  0
  183.1830  178.7490  144.4540 C   0  0  0  0  0  0  0  0  0  0  0  0
  181.9010  178.9830  143.9660 C   0  0  0  0  0  3  0  0  0  0  0  0
  188.9120  177.6750  145.0560 C   0  0  0  0  0  0  0  0  0  0  0  0
  189.8830  177.5090  146.1770 C   0  0  0  0  0  1  0  0  0  0  0  0
  187.1650  177.9730  142.8760 C   0  0  0  0  0  3  0  0  0  0  0  0
  182.8280  178.7740  141.7050 C   0  0  0  0  0  3  0  0  0  0  0  0
  184.8750  178.4470  145.7180 N   0  0  0  0  0  0  0  0  0  0  0  0
  183.5700  178.6950  145.7460 N   0  0  0  0  0  0  0  0  0  0  0  0
  189.3850  177.5670  143.7440 C   0  0  0  0  0  3  0  0  0  0  0  0
  184.1150  178.5390  142.2230 C   0  0  0  0  0  3  0  0  0  0  0  0
  188.5210  177.7140  142.6460 C   0  0  0  0  0  0  0  0  0  0  0  0
  187.5480  177.9360  145.2880 C   0  0  0  0  0  0  0  0  0  0  0  0
  188.9600  178.1900  138.8990 C   0  0  0  0  0  0  0  0  0  0  0  0
  189.0200  177.5980  141.2580 C   0  0  0  0  0  0  0  0  0  0  0  0
  188.4620  178.3090  140.2720 C   0  0  0  0  0  3  0  0  0  0  0  0
  188.4240  178.8650  137.9820 O   0  0  0  0  0  0  0  0  0  0  0  0
  190.1160  176.7120  140.9710 N   0  0  0  0  0  0  0  0  0  0  0  0
  190.1020  177.2730  138.5730 C   0  0  0  0  0  2  0  0  0  0  0  0
  190.6210  176.5460  139.7830 C   0  0  0  0  0  3  0  0  0  0  0  0
  1 13  1  0  0  0  0
  2  1  1  0  0  0  0
  2 18  1  0  0  0  0
  4  1  2  0  0  0  0
  4  7  1  0  0  0  0
  5  8  2  0  0  0  0
  6  3  2  0  0  0  0
  7 14  2  0  0  0  0
  8  7  1  0  0  0  0
  9 18  2  0  0  0  0
  9 10  1  0  0  0  0
 11  2  2  0  0  0  0
 12 16  2  0  0  0  0
 12  5  1  0  0  0  0
 13 14  1  0  0  0  0
 13  3  1  0  0  0  0
 15  9  1  0  0  0  0
 16  4  1  0  0  0  0
 17 11  1  0  0  0  0
 17 15  2  0  0  0  0
 18  6  1  0  0  0  0
 19 21  1  0  0  0  0
 20 17  1  0  0  0  0
 21 20  2  0  0  0  0
 22 19  2  0  0  0  0
 23 20  1  0  0  0  0
 24 19  1  0  0  0  0
 24 25  1  0  0  0  0
 25 23  2  0  0  0  0
M  END
>  <MODEL>
5

>  <REMARK>
 VINA RESULT:     -11.1      1.649      2.199
  Name = 
  1 active torsions:
  status: ('A' for Active; 'I' for Inactive)
    1  A    between atoms: C_6  and  C_23
                            x       y       z     vdW  Elec       q    Type
                         _______ _______ _______ _____ _____    ______ ____

>  <TORSDO>
F 1

$$$$
=
 OpenBabel11052412483D

 25 29  0  0  0  0  0  0  0  0999 V2000
  189.7390  177.3760  143.5140 C   0  0  0  0  0  0  0  0  0  0  0  0
  188.6380  177.5620  144.3570 C   0  0  0  0  0  0  0  0  0  0  0  0
  191.2070  176.9600  145.3390 C   0  0  0  0  0  3  0  0  0  0  0  0
  189.8520  177.4300  142.1400 C   0  0  0  0  0  0  0  0  0  0  0  0
  190.7900  177.3780  139.5410 C   0  0  0  0  0  3  0  0  0  0  0  0
  190.1460  177.1340  146.2370 C   0  0  0  0  0  3  0  0  0  0  0  0
  191.1790  177.1610  141.8920 C   0  0  0  0  0  0  0  0  0  0  0  0
  191.6870  177.1280  140.5960 C   0  0  0  0  0  3  0  0  0  0  0  0
  187.7690  177.6170  146.6340 C   0  0  0  0  0  0  0  0  0  0  0  0
  187.9290  177.4990  148.1140 C   0  0  0  0  0  1  0  0  0  0  0  0
  187.3640  177.8610  143.8650 C   0  0  0  0  0  3  0  0  0  0  0  0
  189.4280  177.6530  139.8000 C   0  0  0  0  0  3  0  0  0  0  0  0
  190.9590  177.0880  144.0120 N   0  0  0  0  0  0  0  0  0  0  0  0
  191.8560  176.9520  143.0410 N   0  0  0  0  0  0  0  0  0  0  0  0
  186.5020  177.9150  146.1230 C   0  0  0  0  0  3  0  0  0  0  0  0
  188.9390  177.6820  141.1200 C   0  0  0  0  0  3  0  0  0  0  0  0
  186.2870  178.0400  144.7410 C   0  0  0  0  0  0  0  0  0  0  0  0
  188.8530  177.4370  145.7540 C   0  0  0  0  0  0  0  0  0  0  0  0
  183.3870  178.6280  142.3530 C   0  0  0  0  0  0  0  0  0  0  0  0
  184.9460  178.3560  144.1990 C   0  0  0  0  0  0  0  0  0  0  0  0
  184.7160  178.3140  142.8830 C   0  0  0  0  0  3  0  0  0  0  0  0
  183.1860  178.5840  141.1110 O   0  0  0  0  0  0  0  0  0  0  0  0
  183.8840  178.7110  145.1020 N   0  0  0  0  0  0  0  0  0  0  0  0
  182.2610  179.0010  143.2720 C   0  0  0  0  0  2  0  0  0  0  0  0
  182.6760  179.0040  144.7180 C   0  0  0  0  0  3  0  0  0  0  0  0
  1 13  1  0  0  0  0
  1  2  1  0  0  0  0
  2 18  1  0  0  0  0
  3  6  2  0  0  0  0
  4  1  2  0  0  0  0
  5 12  1  0  0  0  0
  5  8  2  0  0  0  0
  7  4  1  0  0  0  0
  7 14  2  0  0  0  0
  8  7  1  0  0  0  0
  9 10  1  0  0  0  0
 11  2  2  0  0  0  0
 11 17  1  0  0  0  0
 12 16  2  0  0  0  0
 13  3  1  0  0  0  0
 14 13  1  0  0  0  0
 15  9  1  0  0  0  0
 16  4  1  0  0  0  0
 17 15  2  0  0  0  0
 18  6  1  0  0  0  0
 18  9  2  0  0  0  0
 19 21  1  0  0  0  0
 19 24  1  0  0  0  0
 20 17  1  0  0  0  0
 20 23  1  0  0  0  0
 21 20  2  0  0  0  0
 22 19  2  0  0  0  0
 24 25  1  0  0  0  0
 25 23  2  0  0  0  0
M  END
>  <MODEL>
6

>  <REMARK>
 VINA RESULT:     -10.9      2.403      6.289
  Name = 
  1 active torsions:
  status: ('A' for Active; 'I' for Inactive)
    1  A    between atoms: C_6  and  C_23
                            x       y       z     vdW  Elec       q    Type
                         _______ _______ _______ _____ _____    ______ ____

>  <TORSDO>
F 1

$$$$
=
 OpenBabel11052412483D

 25 29  0  0  0  0  0  0  0  0999 V2000
  186.3320  178.2360  145.0840 C   0  0  0  0  0  0  0  0  0  0  0  0
  186.0460  178.3550  143.7200 C   0  0  0  0  0  0  0  0  0  0  0  0
  184.0810  178.6870  145.7090 C   0  0  0  0  0  3  0  0  0  0  0  0
  187.5090  177.9590  145.7460 C   0  0  0  0  0  0  0  0  0  0  0  0
  189.4320  177.4700  147.6710 C   0  0  0  0  0  3  0  0  0  0  0  0
  183.7290  178.8180  144.3590 C   0  0  0  0  0  3  0  0  0  0  0  0
  187.1690  177.9740  147.0800 C   0  0  0  0  0  0  0  0  0  0  0  0
  188.1100  177.7340  148.0770 C   0  0  0  0  0  3  0  0  0  0  0  0
  184.3810  178.7800  141.9900 C   0  0  0  0  0  0  0  0  0  0  0  0
  182.9930  179.0930  141.5390 C   0  0  0  0  0  1  0  0  0  0  0  0
  187.0250  178.1880  142.7360 C   0  0  0  0  0  3  0  0  0  0  0  0
  189.7780  177.4550  146.3000 C   0  0  0  0  0  3  0  0  0  0  0  0
  185.3700  178.4010  146.0160 N   0  0  0  0  0  0  0  0  0  0  0  0
  185.8560  178.2460  147.2430 N   0  0  0  0  0  0  0  0  0  0  0  0
  185.3740  178.6100  141.0200 C   0  0  0  0  0  3  0  0  0  0  0  0
  188.8070  177.7020  145.3110 C   0  0  0  0  0  3  0  0  0  0  0  0
  186.6990  178.3140  141.3800 C   0  0  0  0  0  0  0  0  0  0  0  0
  184.7080  178.6540  143.3530 C   0  0  0  0  0  0  0  0  0  0  0  0
  190.0170  177.5660  139.6800 C   0  0  0  0  0  0  0  0  0  0  0  0
  187.7500  178.1350  140.3540 C   0  0  0  0  0  0  0  0  0  0  0  0
  188.9800  177.7410  140.7010 C   0  0  0  0  0  3  0  0  0  0  0  0
  191.1700  177.1950  140.0230 O   0  0  0  0  0  0  0  0  0  0  0  0
  187.4410  178.3880  138.9720 N   0  0  0  0  0  0  0  0  0  0  0  0
  189.7220  177.8230  138.2320 C   0  0  0  0  0  2  0  0  0  0  0  0
  188.2990  178.2570  138.0030 C   0  0  0  0  0  3  0  0  0  0  0  0
  1  4  2  0  0  0  0
  1 13  1  0  0  0  0
  2  1  1  0  0  0  0
  3 13  1  0  0  0  0
  4  7  1  0  0  0  0
  5  8  2  0  0  0  0
  6  3  2  0  0  0  0
  7 14  2  0  0  0  0
  7  8  1  0  0  0  0
  9 18  2  0  0  0  0
 10  9  1  0  0  0  0
 11  2  2  0  0  0  0
 12  5  1  0  0  0  0
 13 14  1  0  0  0  0
 15 17  2  0  0  0  0
 15  9  1  0  0  0  0
 16  4  1  0  0  0  0
 16 12  2  0  0  0  0
 17 11  1  0  0  0  0
 18  2  1  0  0  0  0
 18  6  1  0  0  0  0
 19 22  2  0  0  0  0
 19 21  1  0  0  0  0
 20 21  2  0  0  0  0
 20 17  1  0  0  0  0
 23 20  1  0  0  0  0
 24 19  1  0  0  0  0
 25 24  1  0  0  0  0
 25 23  2  0  0  0  0
M  END
>  <MODEL>
7

>  <REMARK>
 VINA RESULT:     -10.6      1.481      4.547
  Name = 
  1 active torsions:
  status: ('A' for Active; 'I' for Inactive)
    1  A    between atoms: C_6  and  C_23
                            x       y       z     vdW  Elec       q    Type
                         _______ _______ _______ _____ _____    ______ ____

>  <TORSDO>
F 1

$$$$
=
 OpenBabel11052412483D

 25 29  0  0  0  0  0  0  0  0999 V2000
  186.8050  178.3090  141.0630 C   0  0  0  0  0  0  0  0  0  0  0  0
  186.6120  178.2620  142.4480 C   0  0  0  0  0  0  0  0  0  0  0  0
  184.5370  178.9010  140.6560 C   0  0  0  0  0  3  0  0  0  0  0  0
  187.9260  178.0830  140.2930 C   0  0  0  0  0  0  0  0  0  0  0  0
  189.7000  177.7840  138.1940 C   0  0  0  0  0  3  0  0  0  0  0  0
  184.2790  178.8720  142.0330 C   0  0  0  0  0  3  0  0  0  0  0  0
  187.5010  178.2770  138.9980 C   0  0  0  0  0  0  0  0  0  0  0  0
  188.3650  178.1340  137.9160 C   0  0  0  0  0  3  0  0  0  0  0  0
  185.0810  178.5160  144.3280 C   0  0  0  0  0  0  0  0  0  0  0  0
  183.7380  178.8100  144.9090 C   0  0  0  0  0  1  0  0  0  0  0  0
  187.6460  177.9450  143.3350 C   0  0  0  0  0  3  0  0  0  0  0  0
  190.1330  177.5850  139.5250 C   0  0  0  0  0  3  0  0  0  0  0  0
  185.7910  178.6170  140.2270 N   0  0  0  0  0  0  0  0  0  0  0  0
  186.1910  178.6050  138.9610 N   0  0  0  0  0  0  0  0  0  0  0  0
  186.1280  178.1960  145.1990 C   0  0  0  0  0  3  0  0  0  0  0  0
  189.2380  177.7350  140.6020 C   0  0  0  0  0  3  0  0  0  0  0  0
  187.4140  177.9090  144.7150 C   0  0  0  0  0  0  0  0  0  0  0  0
  185.3130  178.5520  142.9410 C   0  0  0  0  0  0  0  0  0  0  0  0
  190.7910  176.8110  146.0770 C   0  0  0  0  0  0  0  0  0  0  0  0
  188.5230  177.5710  145.6350 C   0  0  0  0  0  0  0  0  0  0  0  0
  189.6970  177.1450  145.1600 C   0  0  0  0  0  3  0  0  0  0  0  0
  191.8900  176.4120  145.6130 O   0  0  0  0  0  0  0  0  0  0  0  0
  188.3290  177.7030  147.0550 N   0  0  0  0  0  0  0  0  0  0  0  0
  190.6150  176.9400  147.5610 C   0  0  0  0  0  2  0  0  0  0  0  0
  189.2430  177.4290  147.9380 C   0  0  0  0  0  3  0  0  0  0  0  0
  1  2  1  0  0  0  0
  2 18  2  0  0  0  0
  2 11  1  0  0  0  0
  3  6  2  0  0  0  0
  4 16  1  0  0  0  0
  4  1  2  0  0  0  0
  5 12  1  0  0  0  0
  6 18  1  0  0  0  0
  7  4  1  0  0  0  0
  8  5  2  0  0  0  0
  8  7  1  0  0  0  0
  9 10  1  0  0  0  0
  9 15  2  0  0  0  0
 11 17  2  0  0  0  0
 12 16  2  0  0  0  0
 13  3  1  0  0  0  0
 13  1  1  0  0  0  0
 14  7  2  0  0  0  0
 14 13  1  0  0  0  0
 17 15  1  0  0  0  0
 17 20  1  0  0  0  0
 18  9  1  0  0  0  0
 19 24  1  0  0  0  0
 20 23  1  0  0  0  0
 21 20  2  0  0  0  0
 21 19  1  0  0  0  0
 22 19  2  0  0  0  0
 23 25  2  0  0  0  0
 24 25  1  0  0  0  0
M  END
>  <MODEL>
8

>  <REMARK>
 VINA RESULT:     -10.5      2.121      6.244
  Name = 
  1 active torsions:
  status: ('A' for Active; 'I' for Inactive)
    1  A    between atoms: C_6  and  C_23
                            x       y       z     vdW  Elec       q    Type
                         _______ _______ _______ _____ _____    ______ ____

>  <TORSDO>
F 1

$$$$
=
 OpenBabel11052412483D

 25 29  0  0  0  0  0  0  0  0999 V2000
  189.8610  177.2780  143.4010 C   0  0  0  0  0  0  0  0  0  0  0  0
  188.7960  177.6400  142.5690 C   0  0  0  0  0  0  0  0  0  0  0  0
  191.3840  177.1440  141.5780 C   0  0  0  0  0  3  0  0  0  0  0  0
  189.9270  177.0890  144.7650 C   0  0  0  0  0  0  0  0  0  0  0  0
  190.7700  176.5590  147.3430 C   0  0  0  0  0  3  0  0  0  0  0  0
  190.3600  177.5030  140.6910 C   0  0  0  0  0  3  0  0  0  0  0  0
  191.2380  176.7440  145.0040 C   0  0  0  0  0  0  0  0  0  0  0  0
  191.6980  176.4690  146.2890 C   0  0  0  0  0  3  0  0  0  0  0  0
  188.0110  178.1160  140.3110 C   0  0  0  0  0  0  0  0  0  0  0  0
  188.2210  178.2530  138.8390 C   0  0  0  0  0  1  0  0  0  0  0  0
  187.5130  177.8860  143.0660 C   0  0  0  0  0  3  0  0  0  0  0  0
  189.4240  176.9140  147.0940 C   0  0  0  0  0  3  0  0  0  0  0  0
  191.0920  177.0460  142.8980 N   0  0  0  0  0  0  0  0  0  0  0  0
  191.9500  176.7180  143.8570 N   0  0  0  0  0  0  0  0  0  0  0  0
  186.7330  178.3590  140.8270 C   0  0  0  0  0  3  0  0  0  0  0  0
  188.9840  177.1860  145.7850 C   0  0  0  0  0  3  0  0  0  0  0  0
  186.4720  178.2470  142.2020 C   0  0  0  0  0  0  0  0  0  0  0  0
  189.0580  177.7540  141.1790 C   0  0  0  0  0  0  0  0  0  0  0  0
  183.5920  178.8840  144.6010 C   0  0  0  0  0  0  0  0  0  0  0  0
  185.1210  178.5020  142.7490 C   0  0  0  0  0  0  0  0  0  0  0  0
  184.9320  178.6310  144.0660 C   0  0  0  0  0  3  0  0  0  0  0  0
  183.4300  179.0030  145.8440 O   0  0  0  0  0  0  0  0  0  0  0  0
  184.0030  178.6120  141.8500 N   0  0  0  0  0  0  0  0  0  0  0  0
  182.4090  179.0030  143.6860 C   0  0  0  0  0  2  0  0  0  0  0  0
  182.7820  178.8350  142.2380 C   0  0  0  0  0  3  0  0  0  0  0  0
  1  4  2  0  0  0  0
  2 11  1  0  0  0  0
  2  1  1  0  0  0  0
  3 13  1  0  0  0  0
  4  7  1  0  0  0  0
  4 16  1  0  0  0  0
  6 18  1  0  0  0  0
  6  3  2  0  0  0  0
  7  8  1  0  0  0  0
  8  5  2  0  0  0  0
  9 15  2  0  0  0  0
  9 18  1  0  0  0  0
 10  9  1  0  0  0  0
 12  5  1  0  0  0  0
 13  1  1  0  0  0  0
 13 14  1  0  0  0  0
 14  7  2  0  0  0  0
 15 17  1  0  0  0  0
 16 12  2  0  0  0  0
 17 20  1  0  0  0  0
 17 11  2  0  0  0  0
 18  2  2  0  0  0  0
 19 22  2  0  0  0  0
 20 21  2  0  0  0  0
 21 19  1  0  0  0  0
 23 25  2  0  0  0  0
 23 20  1  0  0  0  0
 24 19  1  0  0  0  0
 25 24  1  0  0  0  0
M  END
>  <MODEL>
9

>  <REMARK>
 VINA RESULT:     -10.5      3.019      6.890
  Name = 
  1 active torsions:
  status: ('A' for Active; 'I' for Inactive)
    1  A    between atoms: C_6  and  C_23
                            x       y       z     vdW  Elec       q    Type
                         _______ _______ _______ _____ _____    ______ ____

>  <TORSDO>
F 1

$$$$
