=
 OpenBabel11052412393D

 25 28  0  0  1  0  0  0  0  0999 V2000
  187.5090  177.8770  145.9330 C   0  0  0  0  0  0  0  0  0  0  0  0
  188.8200  177.4350  145.7210 C   0  0  0  0  0  0  0  0  0  0  0  0
  187.8640  178.1330  148.3110 C   0  0  0  0  0  3  0  0  0  0  0  0
  186.4470  178.0750  145.0840 C   0  0  1  0  0  3  0  0  0  0  0  0
  183.9980  178.6630  143.9380 C   0  0  0  0  0  3  0  0  0  0  0  0
  189.1830  177.6840  148.1340 C   0  0  0  0  0  3  0  0  0  0  0  0
  185.4080  178.5240  145.8720 C   0  0  0  0  0  0  0  0  0  0  0  0
  184.1630  178.8290  145.3250 C   0  0  0  0  0  3  0  0  0  0  0  0
  191.0630  176.8720  146.6870 C   0  0  0  0  0  0  0  0  0  0  0  0
  191.8320  176.7950  147.6840 O   0  0  0  0  0  0  0  0  0  0  0  0
  189.2870  177.0190  144.3540 C   0  0  0  0  0  2  0  0  0  0  0  0
  185.0650  178.2040  143.1350 C   0  0  0  0  0  3  0  0  0  0  0  0
  187.0460  178.2180  147.1890 C   0  0  0  0  0  0  0  0  0  0  0  0
  185.7540  178.6210  147.1760 N   0  0  0  0  0  0  0  0  0  0  0  0
  191.5710  176.4490  145.3430 C   0  0  0  0  0  2  0  0  0  0  0  0
  186.3140  177.9020  143.7080 C   0  0  0  0  0  3  0  0  0  0  0  0
  190.8100  177.1680  144.2210 C   0  0  1  0  0  3  0  0  0  0  0  0
  189.6670  177.3280  146.8530 C   0  0  0  0  0  0  0  0  0  0  0  0
  191.2880  176.8420  142.9330 O   0  0  0  0  0  0  0  0  0  0  0  0
  190.2120  176.4100  142.1370 C   0  0  0  0  0  2  0  0  0  0  0  0
  190.0830  177.2940  140.9080 C   0  0  0  0  0  2  0  0  0  0  0  0
  188.7210  177.9740  140.8620 C   0  0  0  0  0  2  0  0  0  0  0  0
  188.2420  178.1470  139.4290 C   0  0  0  0  0  3  0  0  0  0  0  0
  189.0210  179.1130  138.7940 O   0  0  0  0  0  1  0  0  0  0  0  0
  186.9070  178.5500  139.4200 O   0  0  0  0  0  1  0  0  0  0  0  0
  1 13  1  0  0  0  0
  2  1  2  0  0  0  0
  2 18  1  0  0  0  0
  4 16  1  6  0  0  0
  4  7  1  0  0  0  0
  4  1  1  0  0  0  0
  5  8  2  0  0  0  0
  6  3  1  0  0  0  0
  7 14  2  0  0  0  0
  8  7  1  0  0  0  0
  9 18  1  0  0  0  0
  9 10  2  0  0  0  0
 11  2  1  0  0  0  0
 12 16  2  0  0  0  0
 12  5  1  0  0  0  0
 13  3  2  0  0  0  0
 14 13  1  0  0  0  0
 15  9  1  0  0  0  0
 17 19  1  6  0  0  0
 17 11  1  0  0  0  0
 17 15  1  0  0  0  0
 18  6  2  0  0  0  0
 20 19  1  0  0  0  0
 21 20  1  0  0  0  0
 22 21  1  0  0  0  0
 23 22  1  0  0  0  0
 24 23  1  0  0  0  0
 25 23  1  0  0  0  0
M  END
>  <MODEL>
1

>  <REMARK>
 VINA RESULT:     -10.8      0.000      0.000
  Name = 
  5 active torsions:
  status: ('A' for Active; 'I' for Inactive)
    1  A    between atoms: C_2  and  C_21
    2  A    between atoms: O_6  and  C_15
    3  A    between atoms: O_6  and  C_23
    4  A    between atoms: C_15  and  C_25
    5  A    between atoms: C_21  and  C_25
                            x       y       z     vdW  Elec       q    Type
                         _______ _______ _______ _____ _____    ______ ____

>  <TORSDO>
F 5

$$$$
=
 OpenBabel11052412393D

 25 28  0  0  1  0  0  0  0  0999 V2000
  187.3510  177.9420  145.9080 C   0  0  0  0  0  0  0  0  0  0  0  0
  188.6660  177.5170  145.6920 C   0  0  0  0  0  0  0  0  0  0  0  0
  187.7020  178.1710  148.2900 C   0  0  0  0  0  3  0  0  0  0  0  0
  186.2880  178.1410  145.0610 C   0  0  2  0  0  3  0  0  0  0  0  0
  183.8330  178.7170  143.9210 C   0  0  0  0  0  3  0  0  0  0  0  0
  189.0250  177.7390  148.1080 C   0  0  0  0  0  3  0  0  0  0  0  0
  185.2430  178.5680  145.8540 C   0  0  0  0  0  0  0  0  0  0  0  0
  183.9960  178.8670  145.3100 C   0  0  0  0  0  3  0  0  0  0  0  0
  190.9150  176.9660  146.6530 C   0  0  0  0  0  0  0  0  0  0  0  0
  191.6840  176.8850  147.6480 O   0  0  0  0  0  0  0  0  0  0  0  0
  189.1390  177.1240  144.3200 C   0  0  0  0  0  2  0  0  0  0  0  0
  184.9060  178.2800  143.1130 C   0  0  0  0  0  3  0  0  0  0  0  0
  186.8830  178.2620  147.1680 C   0  0  0  0  0  0  0  0  0  0  0  0
  185.5870  178.6510  147.1590 N   0  0  0  0  0  0  0  0  0  0  0  0
  191.4280  176.5660  145.3030 C   0  0  0  0  0  2  0  0  0  0  0  0
  186.1570  177.9840  143.6830 C   0  0  0  0  0  3  0  0  0  0  0  0
  190.6600  177.2910  144.1900 C   0  0  1  0  0  3  0  0  0  0  0  0
  189.5140  177.4050  146.8230 C   0  0  0  0  0  0  0  0  0  0  0  0
  191.1430  176.9870  142.8980 O   0  0  0  0  0  0  0  0  0  0  0  0
  190.0770  176.5240  142.1050 C   0  0  0  0  0  2  0  0  0  0  0  0
  190.0140  177.3090  140.8050 C   0  0  0  0  0  2  0  0  0  0  0  0
  191.3160  177.1840  140.0250 C   0  0  0  0  0  2  0  0  0  0  0  0
  191.0620  176.7010  138.6060 C   0  0  0  0  0  3  0  0  0  0  0  0
  189.9470  177.3580  138.0870 O   0  0  0  0  0  1  0  0  0  0  0  0
  190.8290  175.3260  138.6070 O   0  0  0  0  0  1  0  0  0  0  0  0
  1 13  1  0  0  0  0
  2  1  2  0  0  0  0
  2 18  1  0  0  0  0
  4 16  1  1  0  0  0
  4  7  1  0  0  0  0
  4  1  1  0  0  0  0
  5  8  2  0  0  0  0
  6  3  1  0  0  0  0
  7 14  2  0  0  0  0
  8  7  1  0  0  0  0
  9 18  1  0  0  0  0
  9 10  2  0  0  0  0
 11  2  1  0  0  0  0
 12 16  2  0  0  0  0
 12  5  1  0  0  0  0
 13  3  2  0  0  0  0
 14 13  1  0  0  0  0
 15  9  1  0  0  0  0
 17 19  1  6  0  0  0
 17 11  1  0  0  0  0
 17 15  1  0  0  0  0
 18  6  2  0  0  0  0
 20 19  1  0  0  0  0
 21 20  1  0  0  0  0
 22 21  1  0  0  0  0
 23 25  1  0  0  0  0
 23 22  1  0  0  0  0
 24 23  1  0  0  0  0
M  END
>  <MODEL>
2

>  <REMARK>
 VINA RESULT:     -10.2      1.125      1.419
  Name = 
  5 active torsions:
  status: ('A' for Active; 'I' for Inactive)
    1  A    between atoms: C_2  and  C_21
    2  A    between atoms: O_6  and  C_15
    3  A    between atoms: O_6  and  C_23
    4  A    between atoms: C_15  and  C_25
    5  A    between atoms: C_21  and  C_25
                            x       y       z     vdW  Elec       q    Type
                         _______ _______ _______ _____ _____    ______ ____

>  <TORSDO>
F 5

$$$$
=
 OpenBabel11052412393D

 25 28  0  0  1  0  0  0  0  0999 V2000
  185.8320  178.2540  144.9730 C   0  0  0  0  0  0  0  0  0  0  0  0
  187.1730  177.8610  145.0270 C   0  0  0  0  0  0  0  0  0  0  0  0
  185.7310  178.6310  147.3590 C   0  0  0  0  0  3  0  0  0  0  0  0
  184.9390  178.3690  143.9350 C   0  0  0  0  0  0  0  0  0  0  0  0
  182.7260  178.7990  142.3300 C   0  0  0  0  0  3  0  0  0  0  0  0
  187.0750  178.2320  147.4500 C   0  0  0  0  0  3  0  0  0  0  0  0
  183.7580  178.8070  144.4950 C   0  0  0  0  0  0  0  0  0  0  0  0
  182.6260  179.0330  143.7130 C   0  0  0  0  0  2  0  0  0  0  0  0
  189.2170  177.4390  146.4170 C   0  0  0  0  0  0  0  0  0  0  0  0
  189.7900  177.4400  147.5390 O   0  0  0  0  0  0  0  0  0  0  0  0
  187.9000  177.4060  143.7930 C   0  0  0  0  0  2  0  0  0  0  0  0
  183.9390  178.3510  141.7620 C   0  0  0  0  0  3  0  0  0  0  0  0
  185.1320  178.6310  146.1030 C   0  0  0  0  0  0  0  0  0  0  0  0
  183.8520  178.9760  145.8330 N   0  0  0  0  0  0  0  0  0  0  0  0
  189.9790  176.9790  145.2120 C   0  0  0  0  0  2  0  0  0  0  0  0
  185.0690  178.1290  142.5680 C   0  0  0  0  0  3  0  0  0  0  0  0
  189.4150  177.6140  143.9340 C   0  0  1  0  0  3  0  0  0  0  0  0
  187.7990  177.8410  146.3000 C   0  0  0  0  0  0  0  0  0  0  0  0
  190.1340  177.2520  142.7730 O   0  0  0  0  0  0  0  0  0  0  0  0
  189.2280  176.8560  141.7740 C   0  0  0  0  0  2  0  0  0  0  0  0
  189.0070  177.9920  140.7880 C   0  0  0  0  0  2  0  0  0  0  0  0
  189.3230  177.5520  139.3650 C   0  0  0  0  0  2  0  0  0  0  0  0
  188.3950  178.2240  138.3640 C   0  0  0  0  0  3  0  0  0  0  0  0
  188.9880  179.3980  137.9010 O   0  0  0  0  0  1  0  0  0  0  0  0
  187.1800  178.5300  138.9750 O   0  0  0  0  0  1  0  0  0  0  0  0
  1  2  2  0  0  0  0
  1 13  1  0  0  0  0
  2 18  1  0  0  0  0
  3  6  1  0  0  0  0
  4  7  1  0  0  0  0
  4  1  1  0  0  0  0
  5  8  1  0  0  0  0
  7 14  2  0  0  0  0
  8  7  1  0  0  0  0
  9 10  2  0  0  0  0
 11 17  1  0  0  0  0
 11  2  1  0  0  0  0
 12  5  2  0  0  0  0
 12 16  1  0  0  0  0
 13  3  2  0  0  0  0
 14 13  1  0  0  0  0
 15  9  1  0  0  0  0
 16  4  2  0  0  0  0
 17 19  1  6  0  0  0
 17 15  1  0  0  0  0
 18  9  1  0  0  0  0
 18  6  2  0  0  0  0
 20 19  1  0  0  0  0
 21 20  1  0  0  0  0
 22 21  1  0  0  0  0
 23 25  1  0  0  0  0
 23 22  1  0  0  0  0
 24 23  1  0  0  0  0
M  END
>  <MODEL>
3

>  <REMARK>
 VINA RESULT:      -9.6      1.195      1.810
  Name = 
  5 active torsions:
  status: ('A' for Active; 'I' for Inactive)
    1  A    between atoms: C_2  and  C_21
    2  A    between atoms: O_6  and  C_15
    3  A    between atoms: O_6  and  C_23
    4  A    between atoms: C_15  and  C_25
    5  A    between atoms: C_21  and  C_25
                            x       y       z     vdW  Elec       q    Type
                         _______ _______ _______ _____ _____    ______ ____

>  <TORSDO>
F 5

$$$$
=
 OpenBabel11052412393D

 25 28  0  0  1  0  0  0  0  0999 V2000
  187.1050  178.0550  142.6160 C   0  0  0  0  0  0  0  0  0  0  0  0
  186.5280  178.0490  143.8910 C   0  0  0  0  0  0  0  0  0  0  0  0
  185.2350  179.2510  141.6560 C   0  0  0  0  0  3  0  0  0  0  0  0
  188.2890  177.5570  142.1310 C   0  0  0  0  0  0  0  0  0  0  0  0
  190.4530  176.8110  140.5760 C   0  0  0  0  0  3  0  0  0  0  0  0
  184.6240  179.2540  142.9200 C   0  0  0  0  0  3  0  0  0  0  0  0
  188.3120  177.8700  140.7880 C   0  0  0  0  0  0  0  0  0  0  0  0
  189.3880  177.5080  139.9780 C   0  0  0  0  0  2  0  0  0  0  0  0
  184.5990  178.6810  145.3610 C   0  0  0  0  0  0  0  0  0  0  0  0
  183.4760  179.2370  145.5070 O   0  0  0  0  0  0  0  0  0  0  0  0
  187.2010  177.3610  145.0450 C   0  0  0  0  0  2  0  0  0  0  0  0
  190.4250  176.4940  141.9510 C   0  0  0  0  0  3  0  0  0  0  0  0
  186.4790  178.6410  141.5320 C   0  0  0  0  0  0  0  0  0  0  0  0
  187.2060  178.5390  140.3940 N   0  0  0  0  0  0  0  0  0  0  0  0
  185.2350  178.0090  146.5390 C   0  0  0  0  0  2  0  0  0  0  0  0
  189.3310  176.8680  142.7500 C   0  0  0  0  0  3  0  0  0  0  0  0
  186.7610  177.9680  146.3850 C   0  0  1  0  0  3  0  0  0  0  0  0
  185.2530  178.6540  144.0360 C   0  0  0  0  0  0  0  0  0  0  0  0
  187.4130  177.3900  147.4960 O   0  0  0  0  0  0  0  0  0  0  0  0
  188.2120  178.3650  148.1210 C   0  0  0  0  0  2  0  0  0  0  0  0
  189.6480  177.8770  148.2220 C   0  0  0  0  0  2  0  0  0  0  0  0
  189.9080  176.7320  147.2530 C   0  0  0  0  0  2  0  0  0  0  0  0
  191.3980  176.5210  147.0380 C   0  0  0  0  0  3  0  0  0  0  0  0
  192.0970  177.0050  148.1440 O   0  0  0  0  0  1  0  0  0  0  0  0
  191.8140  177.2010  145.8950 O   0  0  0  0  0  1  0  0  0  0  0  0
  1  2  2  0  0  0  0
  2 18  1  0  0  0  0
  2 11  1  0  0  0  0
  3  6  1  0  0  0  0
  4  1  1  0  0  0  0
  4 16  2  0  0  0  0
  5 12  2  0  0  0  0
  6 18  2  0  0  0  0
  7  4  1  0  0  0  0
  8  5  1  0  0  0  0
  8  7  1  0  0  0  0
  9 10  2  0  0  0  0
  9 15  1  0  0  0  0
 11 17  1  0  0  0  0
 12 16  1  0  0  0  0
 13  3  2  0  0  0  0
 13  1  1  0  0  0  0
 14  7  2  0  0  0  0
 14 13  1  0  0  0  0
 17 15  1  0  0  0  0
 17 19  1  1  0  0  0
 18  9  1  0  0  0  0
 19 20  1  0  0  0  0
 20 21  1  0  0  0  0
 22 21  1  0  0  0  0
 23 22  1  0  0  0  0
 23 24  1  0  0  0  0
 25 23  1  0  0  0  0
M  END
>  <MODEL>
4

>  <REMARK>
 VINA RESULT:      -9.4      2.773      6.491
  Name = 
  5 active torsions:
  status: ('A' for Active; 'I' for Inactive)
    1  A    between atoms: C_2  and  C_21
    2  A    between atoms: O_6  and  C_15
    3  A    between atoms: O_6  and  C_23
    4  A    between atoms: C_15  and  C_25
    5  A    between atoms: C_21  and  C_25
                            x       y       z     vdW  Elec       q    Type
                         _______ _______ _______ _____ _____    ______ ____

>  <TORSDO>
F 5

$$$$
=
 OpenBabel11052412393D

 25 28  0  0  1  0  0  0  0  0999 V2000
  189.4960  177.4440  144.1770 C   0  0  0  0  0  0  0  0  0  0  0  0
  188.5490  177.7200  145.1700 C   0  0  0  0  0  0  0  0  0  0  0  0
  191.1650  176.7850  145.7980 C   0  0  0  0  0  3  0  0  0  0  0  0
  189.4560  177.5300  142.8070 C   0  0  0  0  0  0  0  0  0  0  0  0
  190.0060  177.4810  140.0950 C   0  0  0  0  0  3  0  0  0  0  0  0
  190.2410  177.0610  146.8190 C   0  0  0  0  0  3  0  0  0  0  0  0
  190.6970  177.1230  142.3630 C   0  0  0  0  0  0  0  0  0  0  0  0
  191.0040  177.0860  141.0040 C   0  0  0  0  0  2  0  0  0  0  0  0
  187.9800  177.8020  147.6100 C   0  0  0  0  0  0  0  0  0  0  0  0
  188.3100  177.6160  148.8120 O   0  0  0  0  0  0  0  0  0  0  0  0
  187.1930  178.2640  144.8200 C   0  0  0  0  0  2  0  0  0  0  0  0
  188.7370  177.8970  140.5540 C   0  0  0  0  0  3  0  0  0  0  0  0
  190.7640  176.9880  144.4810 C   0  0  0  0  0  0  0  0  0  0  0  0
  191.5220  176.7830  143.3790 N   0  0  0  0  0  0  0  0  0  0  0  0
  186.6170  178.3440  147.3060 C   0  0  0  0  0  2  0  0  0  0  0  0
  188.4480  177.9260  141.9300 C   0  0  0  0  0  3  0  0  0  0  0  0
  186.1610  177.9200  145.9040 C   0  0  1  0  0  3  0  0  0  0  0  0
  188.9410  177.5320  146.5200 C   0  0  0  0  0  0  0  0  0  0  0  0
  184.8570  178.3630  145.5890 O   0  0  0  0  0  0  0  0  0  0  0  0
  184.9230  179.2560  144.5040 C   0  0  0  0  0  2  0  0  0  0  0  0
  183.9750  178.8110  143.4030 C   0  0  0  0  0  2  0  0  0  0  0  0
  184.7310  178.1250  142.2730 C   0  0  0  0  0  2  0  0  0  0  0  0
  184.1860  178.5390  140.9160 C   0  0  0  0  0  3  0  0  0  0  0  0
  184.9500  179.5900  140.4110 O   0  0  0  0  0  1  0  0  0  0  0  0
  182.8600  178.9520  141.0430 O   0  0  0  0  0  1  0  0  0  0  0  0
  1 13  1  0  0  0  0
  1  2  2  0  0  0  0
  2 18  1  0  0  0  0
  3  6  1  0  0  0  0
  4  1  1  0  0  0  0
  5 12  2  0  0  0  0
  5  8  1  0  0  0  0
  7  4  1  0  0  0  0
  7 14  2  0  0  0  0
  8  7  1  0  0  0  0
  9 10  2  0  0  0  0
 11  2  1  0  0  0  0
 11 17  1  0  0  0  0
 12 16  1  0  0  0  0
 13  3  2  0  0  0  0
 14 13  1  0  0  0  0
 15  9  1  0  0  0  0
 16  4  2  0  0  0  0
 17 19  1  6  0  0  0
 17 15  1  0  0  0  0
 18  6  2  0  0  0  0
 18  9  1  0  0  0  0
 20 19  1  0  0  0  0
 21 20  1  0  0  0  0
 22 21  1  0  0  0  0
 23 25  1  0  0  0  0
 23 22  1  0  0  0  0
 24 23  1  0  0  0  0
M  END
>  <MODEL>
5

>  <REMARK>
 VINA RESULT:      -9.1      2.464      4.948
  Name = 
  5 active torsions:
  status: ('A' for Active; 'I' for Inactive)
    1  A    between atoms: C_2  and  C_21
    2  A    between atoms: O_6  and  C_15
    3  A    between atoms: O_6  and  C_23
    4  A    between atoms: C_15  and  C_25
    5  A    between atoms: C_21  and  C_25
                            x       y       z     vdW  Elec       q    Type
                         _______ _______ _______ _____ _____    ______ ____

>  <TORSDO>
F 5

$$$$
=
 OpenBabel11052412393D

 25 28  0  0  1  0  0  0  0  0999 V2000
  189.4730  177.4220  144.0800 C   0  0  0  0  0  0  0  0  0  0  0  0
  189.0740  177.6210  142.7540 C   0  0  0  0  0  0  0  0  0  0  0  0
  191.7460  176.9090  143.4340 C   0  0  0  0  0  3  0  0  0  0  0  0
  188.7980  177.4980  145.2740 C   0  0  2  0  0  3  0  0  0  0  0  0
  188.0350  177.4860  147.9350 C   0  0  0  0  0  3  0  0  0  0  0  0
  191.3760  177.0920  142.0930 C   0  0  0  0  0  3  0  0  0  0  0  0
  189.7210  177.1980  146.2540 C   0  0  0  0  0  0  0  0  0  0  0  0
  189.3680  177.1850  147.6020 C   0  0  0  0  0  3  0  0  0  0  0  0
  189.6860  177.6410  140.3230 C   0  0  0  0  0  0  0  0  0  0  0  0
  190.5510  177.5040  139.4170 O   0  0  0  0  0  0  0  0  0  0  0  0
  187.6460  177.9420  142.4130 C   0  0  0  0  0  2  0  0  0  0  0  0
  187.0940  177.7920  146.9280 C   0  0  0  0  0  3  0  0  0  0  0  0
  190.7700  177.0790  144.4110 C   0  0  0  0  0  0  0  0  0  0  0  0
  190.9460  176.9370  145.7460 N   0  0  0  0  0  0  0  0  0  0  0  0
  188.2740  177.9630  139.9380 C   0  0  0  0  0  2  0  0  0  0  0  0
  187.4700  177.8010  145.5730 C   0  0  0  0  0  3  0  0  0  0  0  0
  187.5510  178.6940  141.0770 C   0  0  1  0  0  3  0  0  0  0  0  0
  190.0500  177.4390  141.7420 C   0  0  0  0  0  0  0  0  0  0  0  0
  186.2310  179.0680  140.7430 O   0  0  0  0  0  0  0  0  0  0  0  0
  185.3310  178.1710  141.3490 C   0  0  0  0  0  2  0  0  0  0  0  0
  184.3350  178.9320  142.2090 C   0  0  0  0  0  2  0  0  0  0  0  0
  184.3080  178.3850  143.6300 C   0  0  0  0  0  2  0  0  0  0  0  0
  183.3510  179.1800  144.5050 C   0  0  0  0  0  3  0  0  0  0  0  0
  183.7670  179.1010  145.8340 O   0  0  0  0  0  1  0  0  0  0  0  0
  182.0620  178.6610  144.3920 O   0  0  0  0  0  1  0  0  0  0  0  0
  1 13  2  0  0  0  0
  1  4  1  0  0  0  0
  2  1  1  0  0  0  0
  3 13  1  0  0  0  0
  4 16  1  6  0  0  0
  4  7  1  0  0  0  0
  6  3  2  0  0  0  0
  7  8  1  0  0  0  0
  8  5  2  0  0  0  0
  9 18  1  0  0  0  0
 10  9  2  0  0  0  0
 11  2  1  0  0  0  0
 12  5  1  0  0  0  0
 13 14  1  0  0  0  0
 14  7  2  0  0  0  0
 15  9  1  0  0  0  0
 15 17  1  0  0  0  0
 16 12  2  0  0  0  0
 17 19  1  6  0  0  0
 17 11  1  0  0  0  0
 18  6  1  0  0  0  0
 18  2  2  0  0  0  0
 19 20  1  0  0  0  0
 20 21  1  0  0  0  0
 21 22  1  0  0  0  0
 22 23  1  0  0  0  0
 23 24  1  0  0  0  0
 25 23  1  0  0  0  0
M  END
>  <MODEL>
6

>  <REMARK>
 VINA RESULT:      -9.1      2.541      5.613
  Name = 
  5 active torsions:
  status: ('A' for Active; 'I' for Inactive)
    1  A    between atoms: C_2  and  C_21
    2  A    between atoms: O_6  and  C_15
    3  A    between atoms: O_6  and  C_23
    4  A    between atoms: C_15  and  C_25
    5  A    between atoms: C_21  and  C_25
                            x       y       z     vdW  Elec       q    Type
                         _______ _______ _______ _____ _____    ______ ____

>  <TORSDO>
F 5

$$$$
=
 OpenBabel11052412393D

 25 28  0  0  1  0  0  0  0  0999 V2000
  188.0310  177.6930  145.7800 C   0  0  0  0  0  0  0  0  0  0  0  0
  187.1670  178.1260  144.7680 C   0  0  0  0  0  0  0  0  0  0  0  0
  186.3680  178.0400  147.5000 C   0  0  0  0  0  3  0  0  0  0  0  0
  189.3310  177.2480  145.7630 C   0  0  0  0  0  0  0  0  0  0  0  0
  191.8510  176.2930  146.3910 C   0  0  0  0  0  3  0  0  0  0  0  0
  185.4790  178.4890  146.5100 C   0  0  0  0  0  3  0  0  0  0  0  0
  189.6510  176.9600  147.0740 C   0  0  0  0  0  0  0  0  0  0  0  0
  190.9120  176.4780  147.4210 C   0  0  0  0  0  3  0  0  0  0  0  0
  184.9090  179.0040  144.1230 C   0  0  0  0  0  0  0  0  0  0  0  0
  183.7430  179.3550  144.4490 O   0  0  0  0  0  0  0  0  0  0  0  0
  187.6260  178.2160  143.3400 C   0  0  0  0  0  2  0  0  0  0  0  0
  191.5170  176.5880  145.0510 C   0  0  0  0  0  3  0  0  0  0  0  0
  187.6430  177.6490  147.1050 C   0  0  2  0  0  3  0  0  0  0  0  0
  188.6250  177.1990  147.9210 N   0  0  0  0  0  0  0  0  0  0  0  0
  185.3250  179.1080  142.6880 C   0  0  0  0  0  2  0  0  0  0  0  0
  190.2400  177.0740  144.7210 C   0  0  0  0  0  3  0  0  0  0  0  0
  186.4420  178.1050  142.3690 C   0  0  1  0  0  3  0  0  0  0  0  0
  185.8660  178.5420  145.1510 C   0  0  0  0  0  0  0  0  0  0  0  0
  186.8330  178.1280  141.0120 O   0  0  0  0  0  0  0  0  0  0  0  0
  188.1540  178.6050  140.9210 C   0  0  0  0  0  2  0  0  0  0  0  0
  188.7110  178.3370  139.5320 C   0  0  0  0  0  2  0  0  0  0  0  0
  189.8730  177.3550  139.5880 C   0  0  0  0  0  2  0  0  0  0  0  0
  190.4680  177.2880  140.9860 C   0  0  0  0  0  3  0  0  0  0  0  0
  191.8230  177.6060  140.9280 O   0  0  0  0  0  1  0  0  0  0  0  0
  190.3160  176.0020  141.5040 O   0  0  0  0  0  1  0  0  0  0  0  0
  1 13  1  0  0  0  0
  2 18  2  0  0  0  0
  2  1  1  0  0  0  0
  4  1  2  0  0  0  0
  4  7  1  0  0  0  0
  5  8  2  0  0  0  0
  6  3  2  0  0  0  0
  7  8  1  0  0  0  0
  7 14  2  0  0  0  0
  9 10  2  0  0  0  0
  9 18  1  0  0  0  0
 11  2  1  0  0  0  0
 12  5  1  0  0  0  0
 13  3  1  1  0  0  0
 13 14  1  0  0  0  0
 15  9  1  0  0  0  0
 16 12  2  0  0  0  0
 16  4  1  0  0  0  0
 17 19  1  6  0  0  0
 17 15  1  0  0  0  0
 17 11  1  0  0  0  0
 18  6  1  0  0  0  0
 20 19  1  0  0  0  0
 21 22  1  0  0  0  0
 21 20  1  0  0  0  0
 22 23  1  0  0  0  0
 23 25  1  0  0  0  0
 24 23  1  0  0  0  0
M  END
>  <MODEL>
7

>  <REMARK>
 VINA RESULT:      -9.1      1.862      4.826
  Name = 
  5 active torsions:
  status: ('A' for Active; 'I' for Inactive)
    1  A    between atoms: C_2  and  C_21
    2  A    between atoms: O_6  and  C_15
    3  A    between atoms: O_6  and  C_23
    4  A    between atoms: C_15  and  C_25
    5  A    between atoms: C_21  and  C_25
                            x       y       z     vdW  Elec       q    Type
                         _______ _______ _______ _____ _____    ______ ____

>  <TORSDO>
F 5

$$$$
=
 OpenBabel11052412393D

 25 28  0  0  1  0  0  0  0  0999 V2000
  187.3800  177.8600  144.5770 C   0  0  0  0  0  0  0  0  0  0  0  0
  188.3340  177.6360  143.5790 C   0  0  0  0  0  0  0  0  0  0  0  0
  188.9490  177.3510  146.3450 C   0  0  0  0  0  3  0  0  0  0  0  0
  186.0570  178.2280  144.5310 C   0  0  0  0  0  0  0  0  0  0  0  0
  183.4430  178.9320  145.1060 C   0  0  0  0  0  3  0  0  0  0  0  0
  189.9280  177.1100  145.3670 C   0  0  0  0  0  3  0  0  0  0  0  0
  185.6340  178.2950  145.8420 C   0  0  0  0  0  0  0  0  0  0  0  0
  184.3250  178.6470  146.1640 C   0  0  0  0  0  3  0  0  0  0  0  0
  190.6820  176.9960  142.9780 C   0  0  0  0  0  0  0  0  0  0  0  0
  191.8460  176.6670  143.3340 O   0  0  0  0  0  0  0  0  0  0  0  0
  187.9740  177.7380  142.1230 C   0  0  0  0  0  2  0  0  0  0  0  0
  183.8810  178.8630  143.7660 C   0  0  0  0  0  3  0  0  0  0  0  0
  187.6780  177.7250  145.9190 C   0  0  2  0  0  3  0  0  0  0  0  0
  186.6180  177.9890  146.7180 N   0  0  0  0  0  0  0  0  0  0  0  0
  190.3670  177.0880  141.5170 C   0  0  0  0  0  2  0  0  0  0  0  0
  185.2060  178.5060  143.4620 C   0  0  0  0  0  3  0  0  0  0  0  0
  189.2080  178.0620  141.2690 C   0  0  1  0  0  3  0  0  0  0  0  0
  189.6330  177.2410  143.9900 C   0  0  0  0  0  0  0  0  0  0  0  0
  188.9060  178.2240  139.8980 O   0  0  0  0  0  0  0  0  0  0  0  0
  187.5380  177.9700  139.6940 C   0  0  0  0  0  2  0  0  0  0  0  0
  187.2430  177.8640  138.2070 C   0  0  0  0  0  2  0  0  0  0  0  0
  185.8070  178.2680  137.9020 C   0  0  0  0  0  2  0  0  0  0  0  0
  185.0480  178.5990  139.1780 C   0  0  0  0  0  3  0  0  0  0  0  0
  183.9950  177.6990  139.3370 O   0  0  0  0  0  1  0  0  0  0  0  0
  184.5400  179.8960  139.1050 O   0  0  0  0  0  1  0  0  0  0  0  0
  1 13  1  0  0  0  0
  2 18  2  0  0  0  0
  2  1  1  0  0  0  0
  4  1  2  0  0  0  0
  4  7  1  0  0  0  0
  5  8  2  0  0  0  0
  6  3  2  0  0  0  0
  7  8  1  0  0  0  0
  7 14  2  0  0  0  0
  9 10  2  0  0  0  0
  9 18  1  0  0  0  0
 11  2  1  0  0  0  0
 12  5  1  0  0  0  0
 13  3  1  6  0  0  0
 13 14  1  0  0  0  0
 15  9  1  0  0  0  0
 16 12  2  0  0  0  0
 16  4  1  0  0  0  0
 17 19  1  6  0  0  0
 17 15  1  0  0  0  0
 17 11  1  0  0  0  0
 18  6  1  0  0  0  0
 20 19  1  0  0  0  0
 21 20  1  0  0  0  0
 22 21  1  0  0  0  0
 22 23  1  0  0  0  0
 23 24  1  0  0  0  0
 25 23  1  0  0  0  0
M  END
>  <MODEL>
8

>  <REMARK>
 VINA RESULT:      -8.9      1.475      2.962
  Name = 
  5 active torsions:
  status: ('A' for Active; 'I' for Inactive)
    1  A    between atoms: C_2  and  C_21
    2  A    between atoms: O_6  and  C_15
    3  A    between atoms: O_6  and  C_23
    4  A    between atoms: C_15  and  C_25
    5  A    between atoms: C_21  and  C_25
                            x       y       z     vdW  Elec       q    Type
                         _______ _______ _______ _____ _____    ______ ____

>  <TORSDO>
F 5

$$$$
=
 OpenBabel11052412393D

 25 28  0  0  1  0  0  0  0  0999 V2000
  186.0550  178.4200  142.8670 C   0  0  0  0  0  0  0  0  0  0  0  0
  187.1130  178.1860  141.9820 C   0  0  0  0  0  0  0  0  0  0  0  0
  184.5590  179.0660  141.0790 C   0  0  0  0  0  3  0  0  0  0  0  0
  185.9450  178.3140  144.2320 C   0  0  1  0  0  3  0  0  0  0  0  0
  185.0960  178.3030  146.8660 C   0  0  0  0  0  3  0  0  0  0  0  0
  185.6030  178.8480  140.1660 C   0  0  0  0  0  3  0  0  0  0  0  0
  184.6510  178.6780  144.5400 C   0  0  0  0  0  0  0  0  0  0  0  0
  184.1930  178.6820  145.8560 C   0  0  0  0  0  3  0  0  0  0  0  0
  187.9580  178.1810  139.6220 C   0  0  0  0  0  0  0  0  0  0  0  0
  187.7540  178.3620  138.3920 O   0  0  0  0  0  0  0  0  0  0  0  0
  188.4680  177.7750  142.4840 C   0  0  0  0  0  2  0  0  0  0  0  0
  186.4200  177.9310  146.5450 C   0  0  0  0  0  3  0  0  0  0  0  0
  184.8150  178.8440  142.4290 C   0  0  0  0  0  0  0  0  0  0  0  0
  183.9330  179.0090  143.4430 N   0  0  0  0  0  0  0  0  0  0  0  0
  189.3240  177.7700  140.0790 C   0  0  0  0  0  2  0  0  0  0  0  0
  186.8610  177.9330  145.2110 C   0  0  0  0  0  3  0  0  0  0  0  0
  189.2480  177.0060  141.4080 C   0  0  1  0  0  3  0  0  0  0  0  0
  186.8780  178.4180  140.6030 C   0  0  0  0  0  0  0  0  0  0  0  0
  190.5080  176.5500  141.8550 O   0  0  0  0  0  0  0  0  0  0  0  0
  190.3600  175.9560  143.1220 C   0  0  0  0  0  2  0  0  0  0  0  0
  191.6030  176.2000  143.9620 C   0  0  0  0  0  2  0  0  0  0  0  0
  191.3310  177.2150  145.0640 C   0  0  0  0  0  2  0  0  0  0  0  0
  191.0680  176.5240  146.3930 C   0  0  0  0  0  3  0  0  0  0  0  0
  189.8330  176.9370  146.8920 O   0  0  0  0  0  1  0  0  0  0  0  0
  192.0690  176.8540  147.3050 O   0  0  0  0  0  1  0  0  0  0  0  0
  1  4  1  0  0  0  0
  2 11  1  0  0  0  0
  2  1  1  0  0  0  0
  3 13  1  0  0  0  0
  4  7  1  0  0  0  0
  4 16  1  6  0  0  0
  6 18  1  0  0  0  0
  6  3  2  0  0  0  0
  7  8  1  0  0  0  0
  8  5  2  0  0  0  0
  9 15  1  0  0  0  0
  9 18  1  0  0  0  0
 10  9  2  0  0  0  0
 12  5  1  0  0  0  0
 13  1  2  0  0  0  0
 13 14  1  0  0  0  0
 14  7  2  0  0  0  0
 15 17  1  0  0  0  0
 16 12  2  0  0  0  0
 17 19  1  1  0  0  0
 17 11  1  0  0  0  0
 18  2  2  0  0  0  0
 19 20  1  0  0  0  0
 20 21  1  0  0  0  0
 21 22  1  0  0  0  0
 22 23  1  0  0  0  0
 23 24  1  0  0  0  0
 23 25  1  0  0  0  0
M  END
>  <MODEL>
9

>  <REMARK>
 VINA RESULT:      -8.9      1.558      5.561
  Name = 
  5 active torsions:
  status: ('A' for Active; 'I' for Inactive)
    1  A    between atoms: C_2  and  C_21
    2  A    between atoms: O_6  and  C_15
    3  A    between atoms: O_6  and  C_23
    4  A    between atoms: C_15  and  C_25
    5  A    between atoms: C_21  and  C_25
                            x       y       z     vdW  Elec       q    Type
                         _______ _______ _______ _____ _____    ______ ____

>  <TORSDO>
F 5

$$$$
