=
 OpenBabel11052412203D

 30 35  0  0  1  0  0  0  0  0999 V2000
  188.1080  176.0550  136.6680 C   0  0  1  0  0  0  0  0  0  0  0  0
  187.4530  174.8190  137.3280 C   0  0  2  0  0  3  0  0  0  0  0  0
  185.3540  175.4820  136.2630 C   0  0  1  0  0  0  0  0  0  0  0  0
  187.8380  177.3950  137.4000 C   0  0  2  0  0  3  0  0  0  0  0  0
  189.2800  175.8100  135.7010 C   0  0  0  0  0  2  0  0  0  0  0  0
  192.8160  175.9510  137.7830 S   0  0  0  0  0  0  0  0  0  0  0  0
  191.0230  175.6920  137.5830 C   0  0  2  0  0  3  0  0  0  0  0  0
  191.6950  176.0470  135.3110 N   0  0  0  0  0  2  0  0  0  0  0  0
  184.7150  176.8150  136.1460 N   0  0  0  0  0  0  0  0  0  0  0  0
  190.6160  176.3090  136.2400 C   0  0  1  0  0  3  0  0  0  0  0  0
  190.2210  176.2030  138.7870 C   0  0  0  0  0  2  0  0  0  0  0  0
  186.4520  172.5840  136.8030 C   0  0  0  0  0  2  0  0  0  0  0  0
  193.9760  175.5500  135.4060 O   0  0  0  0  0  0  0  0  0  0  0  0
  187.7660  173.3900  136.9090 C   0  0  0  0  0  2  0  0  0  0  0  0
  183.5550  173.8670  136.0990 O   0  0  0  0  0  1  0  0  0  0  0  0
  185.2910  173.1800  137.6310 C   0  0  0  0  0  2  0  0  0  0  0  0
  192.9140  175.8540  136.0070 C   0  0  0  0  0  0  0  0  0  0  0  0
  186.8320  175.5120  136.1350 C   0  0  1  0  0  0  0  0  0  0  0  0
  186.7650  178.2610  136.7110 C   0  0  0  0  0  2  0  0  0  0  0  0
  184.6500  177.3200  134.7760 C   0  0  0  0  0  1  0  0  0  0  0  0
  185.3020  177.8440  137.0330 C   0  0  2  0  0  3  0  0  0  0  0  0
  189.0920  178.2320  137.6570 C   0  0  0  0  0  2  0  0  0  0  0  0
  184.5360  174.3580  136.9620 C   0  0  1  0  0  3  0  0  0  0  0  0
  186.1020  174.9010  134.9870 C   0  0  0  0  0  2  0  0  0  0  0  0
  189.9560  177.7140  138.8150 C   0  0  0  0  0  2  0  0  0  0  0  0
  185.0530  177.5280  138.5110 C   0  0  0  0  0  2  0  0  0  0  0  0
  185.1300  178.7270  139.4170 C   0  0  0  0  0  0  0  0  0  0  0  0
  184.4430  179.7660  139.1210 N   0  0  0  0  0  2  0  0  0  0  0  0
  185.9650  178.7340  140.6610 C   0  0  0  0  0  2  0  0  0  0  0  0
  185.4480  179.6550  141.5740 O   0  0  0  0  0  1  0  0  0  0  0  0
  1  5  1  6  0  0  0
  1  2  1  0  0  0  0
  1  4  1  0  0  0  0
  2 14  1  6  0  0  0
  3 24  1  6  0  0  0
  3 23  1  0  0  0  0
  4 19  1  6  0  0  0
  4 22  1  0  0  0  0
  7  6  1  0  0  0  0
  7 11  1  1  0  0  0
  8 17  1  0  0  0  0
  8 10  1  0  0  0  0
  9  3  1  0  0  0  0
  9 21  1  0  0  0  0
 10  5  1  6  0  0  0
 10  7  1  0  0  0  0
 11 25  1  0  0  0  0
 12 14  1  0  0  0  0
 12 16  1  0  0  0  0
 13 17  2  0  0  0  0
 17  6  1  0  0  0  0
 18 24  1  6  0  0  0
 18  3  1  0  0  0  0
 18  1  1  0  0  0  0
 18  2  1  0  0  0  0
 19 21  1  0  0  0  0
 20  9  1  0  0  0  0
 21 26  1  1  0  0  0
 22 25  1  0  0  0  0
 23 15  1  6  0  0  0
 23 16  1  0  0  0  0
 26 27  1  0  0  0  0
 27 29  1  0  0  0  0
 28 27  2  0  0  0  0
 29 30  1  0  0  0  0
M  END
>  <MODEL>
1

>  <REMARK>
 VINA RESULT:      -6.0      0.000      0.000
  Name = 
  3 active torsions:
  status: ('A' for Active; 'I' for Inactive)
    1  A    between atoms: CA_7  and  C_10
    2  A    between atoms: CA_7  and  C_15
    3  A    between atoms: C_10  and  C_25
                            x       y       z     vdW  Elec       q    Type
                         _______ _______ _______ _____ _____    ______ ____

>  <TORSDO>
F 3

$$$$
=
 OpenBabel11052412203D

 30 35  0  0  1  0  0  0  0  0999 V2000
  187.7330  175.9130  136.2980 C   0  0  1  0  0  0  0  0  0  0  0  0
  187.1770  174.7300  137.1250 C   0  0  2  0  0  3  0  0  0  0  0  0
  184.9760  175.2300  136.1840 C   0  0  1  0  0  0  0  0  0  0  0  0
  187.4760  177.3110  136.9190 C   0  0  2  0  0  3  0  0  0  0  0  0
  188.8290  175.6070  135.2630 C   0  0  0  0  0  2  0  0  0  0  0  0
  192.5160  176.0460  137.0160 S   0  0  0  0  0  0  0  0  0  0  0  0
  190.7230  175.7200  136.9930 C   0  0  2  0  0  3  0  0  0  0  0  0
  191.1950  175.8700  134.6490 N   0  0  0  0  0  2  0  0  0  0  0  0
  184.2840  176.5270  135.9950 N   0  0  0  0  0  0  0  0  0  0  0  0
  190.1870  176.1920  135.6380 C   0  0  1  0  0  3  0  0  0  0  0  0
  190.0050  176.3250  138.2070 C   0  0  0  0  0  2  0  0  0  0  0  0
  186.2160  172.4290  136.9020 C   0  0  0  0  0  2  0  0  0  0  0  0
  193.4920  175.4460  134.5980 O   0  0  0  0  0  0  0  0  0  0  0  0
  187.5050  173.2770  136.8190 C   0  0  0  0  0  2  0  0  0  0  0  0
  183.2270  173.5590  136.3270 O   0  0  0  0  0  1  0  0  0  0  0  0
  185.1060  173.0710  137.7640 C   0  0  0  0  0  2  0  0  0  0  0  0
  192.4730  175.7790  135.2550 C   0  0  0  0  0  0  0  0  0  0  0  0
  186.4370  175.2870  135.9290 C   0  0  1  0  0  0  0  0  0  0  0  0
  186.3210  178.0760  136.2450 C   0  0  0  0  0  2  0  0  0  0  0  0
  184.0890  176.8950  134.5940 C   0  0  0  0  0  1  0  0  0  0  0  0
  184.9040  177.6540  136.7270 C   0  0  2  0  0  3  0  0  0  0  0  0
  188.7170  178.2020  136.9890 C   0  0  0  0  0  2  0  0  0  0  0  0
  184.2580  174.1580  137.0530 C   0  0  1  0  0  3  0  0  0  0  0  0
  185.6380  174.5480  134.9100 C   0  0  0  0  0  2  0  0  0  0  0  0
  189.6900  177.8230  138.1140 C   0  0  0  0  0  2  0  0  0  0  0  0
  184.7880  177.4760  138.2450 C   0  0  0  0  0  2  0  0  0  0  0  0
  183.3910  177.6430  138.7770 C   0  0  0  0  0  0  0  0  0  0  0  0
  182.8720  176.6860  139.4520 N   0  0  0  0  0  2  0  0  0  0  0  0
  182.5990  178.8970  138.5610 C   0  0  0  0  0  2  0  0  0  0  0  0
  183.3810  180.0110  138.8680 O   0  0  0  0  0  1  0  0  0  0  0  0
  1  5  1  6  0  0  0
  1  4  1  0  0  0  0
  1  2  1  0  0  0  0
  2 14  1  6  0  0  0
  3 24  1  6  0  0  0
  3 23  1  0  0  0  0
  4 19  1  6  0  0  0
  4 22  1  0  0  0  0
  7  6  1  0  0  0  0
  7 11  1  1  0  0  0
  8 17  1  0  0  0  0
  8 10  1  0  0  0  0
  9  3  1  0  0  0  0
  9 21  1  0  0  0  0
 10  5  1  6  0  0  0
 10  7  1  0  0  0  0
 12 16  1  0  0  0  0
 13 17  2  0  0  0  0
 14 12  1  0  0  0  0
 17  6  1  0  0  0  0
 18 24  1  6  0  0  0
 18  3  1  0  0  0  0
 18  1  1  0  0  0  0
 18  2  1  0  0  0  0
 19 21  1  0  0  0  0
 20  9  1  0  0  0  0
 21 26  1  1  0  0  0
 22 25  1  0  0  0  0
 23 15  1  6  0  0  0
 23 16  1  0  0  0  0
 25 11  1  0  0  0  0
 26 27  1  0  0  0  0
 27 28  2  0  0  0  0
 29 27  1  0  0  0  0
 29 30  1  0  0  0  0
M  END
>  <MODEL>
2

>  <REMARK>
 VINA RESULT:      -5.0      1.233      1.343
  Name = 
  3 active torsions:
  status: ('A' for Active; 'I' for Inactive)
    1  A    between atoms: CA_7  and  C_10
    2  A    between atoms: CA_7  and  C_15
    3  A    between atoms: C_10  and  C_25
                            x       y       z     vdW  Elec       q    Type
                         _______ _______ _______ _____ _____    ______ ____

>  <TORSDO>
F 3

$$$$
=
 OpenBabel11052412203D

 30 35  0  0  1  0  0  0  0  0999 V2000
  189.3900  177.7590  140.8800 C   0  0  1  0  0  0  0  0  0  0  0  0
  188.3450  177.1000  141.8100 C   0  0  2  0  0  3  0  0  0  0  0  0
  189.5860  178.0260  143.7030 C   0  0  1  0  0  0  0  0  0  0  0  0
  190.7220  176.9750  140.7490 C   0  0  2  0  0  3  0  0  0  0  0  0
  188.8860  178.7970  139.8620 C   0  0  0  0  0  2  0  0  0  0  0  0
  187.9960  176.9120  136.3250 S   0  0  0  0  0  0  0  0  0  0  0  0
  188.2300  177.0190  138.1290 C   0  0  2  0  0  3  0  0  0  0  0  0
  188.4910  179.3140  137.4910 N   0  0  0  0  0  2  0  0  0  0  0  0
  191.0440  178.0690  143.9670 N   0  0  0  0  0  0  0  0  0  0  0  0
  188.9890  178.3180  138.4170 C   0  0  1  0  0  3  0  0  0  0  0  0
  188.8830  175.7580  138.7090 C   0  0  0  0  0  2  0  0  0  0  0  0
  186.4800  177.6330  143.3930 C   0  0  0  0  0  2  0  0  0  0  0  0
  187.4030  179.3610  135.4240 O   0  0  0  0  0  0  0  0  0  0  0  0
  186.9040  177.5770  141.9090 C   0  0  0  0  0  2  0  0  0  0  0  0
  188.5140  178.1370  145.8730 O   0  0  0  0  0  1  0  0  0  0  0  0
  187.3260  176.7250  144.3150 C   0  0  0  0  0  2  0  0  0  0  0  0
  187.9530  178.6930  136.3370 C   0  0  0  0  0  0  0  0  0  0  0  0
  189.2290  178.2360  142.2780 C   0  0  1  0  0  0  0  0  0  0  0  0
  191.8700  177.5770  141.5820 C   0  0  0  0  0  2  0  0  0  0  0  0
  191.6070  179.4180  143.9590 C   0  0  0  0  0  1  0  0  0  0  0  0
  191.8420  177.1870  143.0880 C   0  0  2  0  0  3  0  0  0  0  0  0
  191.1850  176.7640  139.3070 C   0  0  0  0  0  2  0  0  0  0  0  0
  188.6900  177.3160  144.7580 C   0  0  1  0  0  3  0  0  0  0  0  0
  188.8830  179.3590  143.1960 C   0  0  0  0  0  2  0  0  0  0  0  0
  190.4080  175.6710  138.5600 C   0  0  0  0  0  2  0  0  0  0  0  0
  191.5400  175.7070  143.3440 C   0  0  0  0  0  2  0  0  0  0  0  0
  192.0090  175.2080  144.6830 C   0  0  0  0  0  0  0  0  0  0  0  0
  192.5270  174.0380  144.7570 N   0  0  0  0  0  2  0  0  0  0  0  0
  191.9100  176.0410  145.9250 C   0  0  0  0  0  2  0  0  0  0  0  0
  192.4400  175.3410  147.0100 O   0  0  0  0  0  1  0  0  0  0  0  0
  1  5  1  6  0  0  0
  1  2  1  0  0  0  0
  1 18  1  0  0  0  0
  2 14  1  6  0  0  0
  2 18  1  0  0  0  0
  3 24  1  1  0  0  0
  3  9  1  0  0  0  0
  3 23  1  0  0  0  0
  4 22  1  6  0  0  0
  4  1  1  0  0  0  0
  4 19  1  0  0  0  0
  6 17  1  0  0  0  0
  6  7  1  0  0  0  0
  7 10  1  0  0  0  0
  7 11  1  6  0  0  0
  8 10  1  0  0  0  0
 10  5  1  1  0  0  0
 12 16  1  0  0  0  0
 13 17  2  0  0  0  0
 14 12  1  0  0  0  0
 16 23  1  0  0  0  0
 17  8  1  0  0  0  0
 18 24  1  6  0  0  0
 18  3  1  0  0  0  0
 19 21  1  0  0  0  0
 20  9  1  0  0  0  0
 21 26  1  6  0  0  0
 21  9  1  0  0  0  0
 23 15  1  1  0  0  0
 25 11  1  0  0  0  0
 25 22  1  0  0  0  0
 26 27  1  0  0  0  0
 27 28  2  0  0  0  0
 27 29  1  0  0  0  0
 29 30  1  0  0  0  0
M  END
>  <MODEL>
3

>  <REMARK>
 VINA RESULT:      -4.8      4.824      7.576
  Name = 
  3 active torsions:
  status: ('A' for Active; 'I' for Inactive)
    1  A    between atoms: CA_7  and  C_10
    2  A    between atoms: CA_7  and  C_15
    3  A    between atoms: C_10  and  C_25
                            x       y       z     vdW  Elec       q    Type
                         _______ _______ _______ _____ _____    ______ ____

>  <TORSDO>
F 3

$$$$
=
 OpenBabel11052412203D

 30 35  0  0  1  0  0  0  0  0999 V2000
  181.3410  176.6230  138.1340 C   0  0  1  0  0  0  0  0  0  0  0  0
  182.7010  177.1330  137.6030 C   0  0  2  0  0  3  0  0  0  0  0  0
  182.7980  178.6120  139.5480 C   0  0  1  0  0  0  0  0  0  0  0  0
  180.1400  177.5570  137.8320 C   0  0  2  0  0  3  0  0  0  0  0  0
  181.2190  175.1250  138.4610 C   0  0  0  0  0  2  0  0  0  0  0  0
  179.8580  173.1140  135.1500 S   0  0  0  0  0  0  0  0  0  0  0  0
  180.6970  174.4690  136.0340 C   0  0  2  0  0  3  0  0  0  0  0  0
  180.2150  172.9690  137.8380 N   0  0  0  0  0  2  0  0  0  0  0  0
  181.7540  179.4700  140.1550 N   0  0  0  0  0  0  0  0  0  0  0  0
  180.2920  174.3760  137.5090 C   0  0  1  0  0  3  0  0  0  0  0  0
  180.4380  175.8370  135.3880 C   0  0  0  0  0  2  0  0  0  0  0  0
  185.1560  177.1190  138.0950 C   0  0  0  0  0  2  0  0  0  0  0  0
  179.9330  170.9420  136.7100 O   0  0  0  0  0  0  0  0  0  0  0  0
  183.9610  176.2790  137.5930 C   0  0  0  0  0  2  0  0  0  0  0  0
  184.9180  179.6110  140.1630 O   0  0  0  0  0  1  0  0  0  0  0  0
  184.9480  178.6430  137.9500 C   0  0  0  0  0  2  0  0  0  0  0  0
  179.9740  172.1990  136.6740 C   0  0  0  0  0  0  0  0  0  0  0  0
  182.2890  177.3100  139.0480 C   0  0  1  0  0  0  0  0  0  0  0  0
  179.6970  178.3940  139.0470 C   0  0  0  0  0  2  0  0  0  0  0  0
  181.3420  179.0450  141.4920 C   0  0  0  0  0  1  0  0  0  0  0  0
  180.5600  179.6630  139.3010 C   0  0  2  0  0  3  0  0  0  0  0  0
  178.9310  176.8450  137.2250 C   0  0  0  0  0  2  0  0  0  0  0  0
  184.1050  179.3080  139.0700 C   0  0  1  0  0  3  0  0  0  0  0  0
  183.1430  177.2370  140.2680 C   0  0  0  0  0  2  0  0  0  0  0  0
  179.0980  176.4950  135.7400 C   0  0  0  0  0  2  0  0  0  0  0  0
  180.8930  180.4560  138.0330 C   0  0  0  0  0  2  0  0  0  0  0  0
  180.3870  181.8730  138.0440 C   0  0  0  0  0  0  0  0  0  0  0  0
  179.6820  182.2660  139.0400 N   0  0  0  0  0  2  0  0  0  0  0  0
  180.6980  182.8410  136.9430 C   0  0  0  0  0  2  0  0  0  0  0  0
  181.3370  183.9650  137.4670 O   0  0  0  0  0  1  0  0  0  0  0  0
  1  5  1  1  0  0  0
  1 18  1  0  0  0  0
  2 14  1  1  0  0  0
  2  1  1  0  0  0  0
  2 18  1  0  0  0  0
  3  9  1  0  0  0  0
  3 24  1  1  0  0  0
  4 22  1  1  0  0  0
  4  1  1  0  0  0  0
  4 19  1  0  0  0  0
  6  7  1  0  0  0  0
  6 17  1  0  0  0  0
  7 11  1  6  0  0  0
  7 10  1  0  0  0  0
  9 20  1  0  0  0  0
 10  8  1  0  0  0  0
 10  5  1  1  0  0  0
 11 25  1  0  0  0  0
 14 12  1  0  0  0  0
 16 12  1  0  0  0  0
 16 23  1  0  0  0  0
 17 13  2  0  0  0  0
 17  8  1  0  0  0  0
 18  3  1  0  0  0  0
 18 24  1  1  0  0  0
 19 21  1  0  0  0  0
 21 26  1  6  0  0  0
 21  9  1  0  0  0  0
 23  3  1  0  0  0  0
 23 15  1  1  0  0  0
 25 22  1  0  0  0  0
 26 27  1  0  0  0  0
 27 28  2  0  0  0  0
 29 30  1  0  0  0  0
 29 27  1  0  0  0  0
M  END
>  <MODEL>
4

>  <REMARK>
 VINA RESULT:      -4.6      5.392      8.449
  Name = 
  3 active torsions:
  status: ('A' for Active; 'I' for Inactive)
    1  A    between atoms: CA_7  and  C_10
    2  A    between atoms: CA_7  and  C_15
    3  A    between atoms: C_10  and  C_25
                            x       y       z     vdW  Elec       q    Type
                         _______ _______ _______ _____ _____    ______ ____

>  <TORSDO>
F 3

$$$$
=
 OpenBabel11052412203D

 30 35  0  0  1  0  0  0  0  0999 V2000
  185.1200  177.7190  137.9680 C   0  0  1  0  0  0  0  0  0  0  0  0
  186.2500  177.5150  139.0040 C   0  0  2  0  0  3  0  0  0  0  0  0
  187.8010  177.2890  137.1270 C   0  0  1  0  0  0  0  0  0  0  0  0
  184.5900  176.4110  137.3260 C   0  0  2  0  0  3  0  0  0  0  0  0
  184.3420  179.0460  138.0130 C   0  0  0  0  0  2  0  0  0  0  0  0
  181.0550  178.6140  140.4350 S   0  0  0  0  0  0  0  0  0  0  0  0
  182.7350  178.2300  139.8420 C   0  0  2  0  0  3  0  0  0  0  0  0
  182.2000  180.1460  138.5070 N   0  0  0  0  0  2  0  0  0  0  0  0
  187.6700  176.5320  135.8590 N   0  0  0  0  0  0  0  0  0  0  0  0
  182.8940  178.8770  138.4620 C   0  0  1  0  0  3  0  0  0  0  0  0
  183.0380  176.7260  139.8780 C   0  0  0  0  0  2  0  0  0  0  0  0
  188.3030  178.5970  139.9430 C   0  0  0  0  0  2  0  0  0  0  0  0
  180.5040  181.1460  139.7660 O   0  0  0  0  0  0  0  0  0  0  0  0
  186.7590  178.6280  139.9080 C   0  0  0  0  0  2  0  0  0  0  0  0
  190.1800  177.4990  137.5330 O   0  0  0  0  0  1  0  0  0  0  0  0
  188.9060  177.2250  139.5660 C   0  0  0  0  0  2  0  0  0  0  0  0
  181.1930  180.1270  139.5040 C   0  0  0  0  0  0  0  0  0  0  0  0
  186.5380  177.9270  137.5760 C   0  0  1  0  0  0  0  0  0  0  0  0
  185.1250  176.1690  135.9010 C   0  0  0  0  0  2  0  0  0  0  0  0
  187.6000  177.3790  134.6690 C   0  0  0  0  0  1  0  0  0  0  0  0
  186.5550  175.5590  135.8490 C   0  0  2  0  0  3  0  0  0  0  0  0
  183.0660  176.2830  137.3350 C   0  0  0  0  0  2  0  0  0  0  0  0
  189.0080  176.9400  138.0440 C   0  0  1  0  0  3  0  0  0  0  0  0
  187.5860  178.8630  137.0780 C   0  0  0  0  0  2  0  0  0  0  0  0
  182.4830  175.9080  138.7050 C   0  0  0  0  0  2  0  0  0  0  0  0
  186.7860  174.4220  136.8490 C   0  0  0  0  0  2  0  0  0  0  0  0
  185.9400  173.2030  136.5980 C   0  0  0  0  0  0  0  0  0  0  0  0
  186.1040  172.5550  135.5050 N   0  0  0  0  0  2  0  0  0  0  0  0
  184.9310  172.7140  137.5920 C   0  0  0  0  0  2  0  0  0  0  0  0
  183.6470  172.8120  137.0530 O   0  0  0  0  0  1  0  0  0  0  0  0
  1  5  1  1  0  0  0
  1  2  1  0  0  0  0
  2 14  1  1  0  0  0
  3 24  1  6  0  0  0
  3 18  1  0  0  0  0
  3 23  1  0  0  0  0
  4 19  1  6  0  0  0
  4 22  1  0  0  0  0
  4  1  1  0  0  0  0
  7 11  1  6  0  0  0
  7  6  1  0  0  0  0
  8 17  1  0  0  0  0
  9  3  1  0  0  0  0
 10  5  1  1  0  0  0
 10  8  1  0  0  0  0
 10  7  1  0  0  0  0
 14 12  1  0  0  0  0
 16 12  1  0  0  0  0
 17 13  2  0  0  0  0
 17  6  1  0  0  0  0
 18 24  1  1  0  0  0
 18  1  1  0  0  0  0
 18  2  1  0  0  0  0
 20  9  1  0  0  0  0
 21  9  1  0  0  0  0
 21 19  1  0  0  0  0
 21 26  1  1  0  0  0
 22 25  1  0  0  0  0
 23 15  1  6  0  0  0
 23 16  1  0  0  0  0
 25 11  1  0  0  0  0
 27 26  1  0  0  0  0
 27 29  1  0  0  0  0
 28 27  2  0  0  0  0
 30 29  1  0  0  0  0
M  END
>  <MODEL>
5

>  <REMARK>
 VINA RESULT:      -4.5      3.271      7.234
  Name = 
  3 active torsions:
  status: ('A' for Active; 'I' for Inactive)
    1  A    between atoms: CA_7  and  C_10
    2  A    between atoms: CA_7  and  C_15
    3  A    between atoms: C_10  and  C_25
                            x       y       z     vdW  Elec       q    Type
                         _______ _______ _______ _____ _____    ______ ____

>  <TORSDO>
F 3

$$$$
=
 OpenBabel11052412203D

 30 35  0  0  1  0  0  0  0  0999 V2000
  181.3000  176.6840  138.2230 C   0  0  1  0  0  0  0  0  0  0  0  0
  180.5460  177.8970  137.6290 C   0  0  2  0  0  3  0  0  0  0  0  0
  182.0340  179.3380  138.9270 C   0  0  1  0  0  0  0  0  0  0  0  0
  180.8710  176.3000  139.6630 C   0  0  2  0  0  3  0  0  0  0  0  0
  182.0080  175.7340  137.2410 C   0  0  0  0  0  2  0  0  0  0  0  0
  179.4440  172.7030  136.1930 S   0  0  0  0  0  0  0  0  0  0  0  0
  179.8800  174.3780  136.7640 C   0  0  2  0  0  3  0  0  0  0  0  0
  182.0420  173.4970  136.2240 N   0  0  0  0  0  2  0  0  0  0  0  0
  182.4870  179.2320  140.3350 N   0  0  0  0  0  0  0  0  0  0  0  0
  181.3590  174.3560  137.1670 C   0  0  1  0  0  3  0  0  0  0  0  0
  178.9310  174.8890  137.8560 C   0  0  0  0  0  2  0  0  0  0  0  0
  180.8190  179.8360  136.0690 C   0  0  0  0  0  2  0  0  0  0  0  0
  181.4950  171.7630  134.7550 O   0  0  0  0  0  0  0  0  0  0  0  0
  180.6490  178.3030  136.1660 C   0  0  0  0  0  2  0  0  0  0  0  0
  182.1950  181.6870  138.3540 O   0  0  0  0  0  1  0  0  0  0  0  0
  180.3080  180.5980  137.3120 C   0  0  0  0  0  2  0  0  0  0  0  0
  181.1360  172.5690  135.6510 C   0  0  0  0  0  0  0  0  0  0  0  0
  181.9270  178.0320  138.2320 C   0  0  1  0  0  0  0  0  0  0  0  0
  181.8660  176.7700  140.7420 C   0  0  0  0  0  2  0  0  0  0  0  0
  183.9170  178.9670  140.4780 C   0  0  0  0  0  1  0  0  0  0  0  0
  181.7140  178.2650  141.1460 C   0  0  2  0  0  3  0  0  0  0  0  0
  180.5690  174.8130  139.8500 C   0  0  0  0  0  2  0  0  0  0  0  0
  181.2870  180.6390  138.5150 C   0  0  1  0  0  3  0  0  0  0  0  0
  183.0500  178.9040  137.7850 C   0  0  0  0  0  2  0  0  0  0  0  0
  179.2140  174.3790  139.2740 C   0  0  0  0  0  2  0  0  0  0  0  0
  180.2630  178.7160  141.3370 C   0  0  0  0  0  2  0  0  0  0  0  0
  180.0320  179.5300  142.5800 C   0  0  0  0  0  0  0  0  0  0  0  0
  179.8560  180.7940  142.4640 N   0  0  0  0  0  2  0  0  0  0  0  0
  179.9790  178.9090  143.9430 C   0  0  0  0  0  2  0  0  0  0  0  0
  179.6840  177.5490  143.8340 O   0  0  0  0  0  1  0  0  0  0  0  0
  1  5  1  6  0  0  0
  1 18  1  0  0  0  0
  1  4  1  0  0  0  0
  2 14  1  6  0  0  0
  2  1  1  0  0  0  0
  2 18  1  0  0  0  0
  3 24  1  6  0  0  0
  3  9  1  0  0  0  0
  4 22  1  6  0  0  0
  4 19  1  0  0  0  0
  6  7  1  0  0  0  0
  7 10  1  0  0  0  0
  7 11  1  1  0  0  0
  8 10  1  0  0  0  0
  9 20  1  0  0  0  0
  9 21  1  0  0  0  0
 10  5  1  6  0  0  0
 11 25  1  0  0  0  0
 12 14  1  0  0  0  0
 12 16  1  0  0  0  0
 13 17  2  0  0  0  0
 16 23  1  0  0  0  0
 17  6  1  0  0  0  0
 17  8  1  0  0  0  0
 18 24  1  6  0  0  0
 18  3  1  0  0  0  0
 19 21  1  0  0  0  0
 21 26  1  6  0  0  0
 23 15  1  6  0  0  0
 23  3  1  0  0  0  0
 25 22  1  0  0  0  0
 26 27  1  0  0  0  0
 27 29  1  0  0  0  0
 28 27  2  0  0  0  0
 30 29  1  0  0  0  0
M  END
>  <MODEL>
6

>  <REMARK>
 VINA RESULT:      -4.4      6.429      8.528
  Name = 
  3 active torsions:
  status: ('A' for Active; 'I' for Inactive)
    1  A    between atoms: CA_7  and  C_10
    2  A    between atoms: CA_7  and  C_15
    3  A    between atoms: C_10  and  C_25
                            x       y       z     vdW  Elec       q    Type
                         _______ _______ _______ _____ _____    ______ ____

>  <TORSDO>
F 3

$$$$
=
 OpenBabel11052412203D

 30 35  0  0  1  0  0  0  0  0999 V2000
  183.0450  176.6890  137.3490 C   0  0  1  0  0  0  0  0  0  0  0  0
  183.1040  177.7430  138.4790 C   0  0  2  0  0  3  0  0  0  0  0  0
  180.6730  177.9310  138.3020 C   0  0  1  0  0  0  0  0  0  0  0  0
  182.9160  177.2800  135.9220 C   0  0  2  0  0  3  0  0  0  0  0  0
  183.5670  175.2760  137.6640 C   0  0  0  0  0  2  0  0  0  0  0  0
  187.5470  175.0460  136.6810 S   0  0  0  0  0  0  0  0  0  0  0  0
  186.0110  175.8930  137.1770 C   0  0  2  0  0  3  0  0  0  0  0  0
  185.3170  173.6010  137.2470 N   0  0  0  0  0  2  0  0  0  0  0  0
  179.8010  178.0230  137.1060 N   0  0  0  0  0  0  0  0  0  0  0  0
  184.8490  174.9300  136.9140 C   0  0  1  0  0  3  0  0  0  0  0  0
  185.8620  177.2680  136.5110 C   0  0  0  0  0  2  0  0  0  0  0  0
  182.4750  178.1270  140.8720 C   0  0  0  0  0  2  0  0  0  0  0  0
  187.3630  172.4900  137.4530 O   0  0  0  0  0  0  0  0  0  0  0  0
  183.4490  177.3970  139.9200 C   0  0  0  0  0  2  0  0  0  0  0  0
  179.4370  178.9760  140.1050 O   0  0  0  0  0  1  0  0  0  0  0  0
  181.8150  179.3760  140.2470 C   0  0  0  0  0  2  0  0  0  0  0  0
  186.7290  173.5330  137.1470 C   0  0  0  0  0  0  0  0  0  0  0  0
  181.8250  177.0120  138.1340 C   0  0  1  0  0  0  0  0  0  0  0  0
  181.4880  177.1930  135.3510 C   0  0  0  0  0  2  0  0  0  0  0  0
  178.9310  176.8640  136.9190 C   0  0  0  0  0  1  0  0  0  0  0  0
  180.5290  178.3120  135.8500 C   0  0  2  0  0  3  0  0  0  0  0  0
  183.9130  176.7050  134.9140 C   0  0  0  0  0  2  0  0  0  0  0  0
  180.5940  179.0940  139.3320 C   0  0  1  0  0  3  0  0  0  0  0  0
  180.7550  176.5350  139.0560 C   0  0  0  0  0  2  0  0  0  0  0  0
  185.3380  177.2540  135.0690 C   0  0  0  0  0  2  0  0  0  0  0  0
  181.1550  179.7100  135.8660 C   0  0  0  0  0  2  0  0  0  0  0  0
  180.1540  180.8310  135.7990 C   0  0  0  0  0  0  0  0  0  0  0  0
  179.1810  180.7380  134.9700 N   0  0  0  0  0  2  0  0  0  0  0  0
  180.2460  182.0380  136.6820 C   0  0  0  0  0  2  0  0  0  0  0  0
  180.7540  183.1190  135.9590 O   0  0  0  0  0  1  0  0  0  0  0  0
  1  5  1  1  0  0  0
  1 18  1  0  0  0  0
  1  2  1  0  0  0  0
  2 14  1  1  0  0  0
  3 24  1  1  0  0  0
  3 23  1  0  0  0  0
  4 22  1  6  0  0  0
  4  1  1  0  0  0  0
  6 17  1  0  0  0  0
  6  7  1  0  0  0  0
  7 11  1  6  0  0  0
  9  3  1  0  0  0  0
 10  7  1  0  0  0  0
 10  8  1  0  0  0  0
 10  5  1  1  0  0  0
 14 12  1  0  0  0  0
 16 12  1  0  0  0  0
 17  8  1  0  0  0  0
 17 13  2  0  0  0  0
 18  3  1  0  0  0  0
 18  2  1  0  0  0  0
 18 24  1  1  0  0  0
 19 21  1  0  0  0  0
 19  4  1  0  0  0  0
 20  9  1  0  0  0  0
 21 26  1  1  0  0  0
 21  9  1  0  0  0  0
 22 25  1  0  0  0  0
 23 15  1  1  0  0  0
 23 16  1  0  0  0  0
 25 11  1  0  0  0  0
 27 26  1  0  0  0  0
 27 29  1  0  0  0  0
 28 27  2  0  0  0  0
 30 29  1  0  0  0  0
M  END
>  <MODEL>
7

>  <REMARK>
 VINA RESULT:      -4.1      4.153      6.316
  Name = 
  3 active torsions:
  status: ('A' for Active; 'I' for Inactive)
    1  A    between atoms: CA_7  and  C_10
    2  A    between atoms: CA_7  and  C_15
    3  A    between atoms: C_10  and  C_25
                            x       y       z     vdW  Elec       q    Type
                         _______ _______ _______ _____ _____    ______ ____

>  <TORSDO>
F 3

$$$$
=
 OpenBabel11052412203D

 30 35  0  0  1  0  0  0  0  0999 V2000
  189.6420  175.5440  136.3180 C   0  0  1  0  0  0  0  0  0  0  0  0
  188.8500  174.3280  136.8540 C   0  0  2  0  0  3  0  0  0  0  0  0
  186.8270  175.3720  135.9620 C   0  0  1  0  0  0  0  0  0  0  0  0
  189.5650  176.8090  137.2130 C   0  0  2  0  0  3  0  0  0  0  0  0
  190.7470  175.2760  135.2820 C   0  0  0  0  0  2  0  0  0  0  0  0
  194.3240  174.7210  137.2200 S   0  0  0  0  0  0  0  0  0  0  0  0
  192.5080  174.7130  137.0640 C   0  0  2  0  0  3  0  0  0  0  0  0
  193.1620  175.2570  134.8240 N   0  0  0  0  0  2  0  0  0  0  0  0
  186.3620  176.7780  136.0280 N   0  0  0  0  0  0  0  0  0  0  0  0
  192.1500  175.5350  135.8210 C   0  0  1  0  0  3  0  0  0  0  0  0
  191.8100  175.1700  138.3520 C   0  0  0  0  0  2  0  0  0  0  0  0
  187.5580  172.3160  136.1120 C   0  0  0  0  0  2  0  0  0  0  0  0
  195.3620  174.4710  134.7660 O   0  0  0  0  0  0  0  0  0  0  0  0
  188.9670  172.9340  136.2570 C   0  0  0  0  0  2  0  0  0  0  0  0
  184.8320  174.0260  135.6830 O   0  0  0  0  0  1  0  0  0  0  0  0
  186.5040  172.9460  137.0500 C   0  0  0  0  0  2  0  0  0  0  0  0
  194.3640  174.8300  135.4420 C   0  0  0  0  0  0  0  0  0  0  0  0
  188.2930  175.2340  135.7770 C   0  0  1  0  0  0  0  0  0  0  0  0
  188.5950  177.8790  136.6750 C   0  0  0  0  0  2  0  0  0  0  0  0
  186.3270  177.4510  134.7310 C   0  0  0  0  0  1  0  0  0  0  0  0
  187.0980  177.6110  137.0060 C   0  0  2  0  0  3  0  0  0  0  0  0
  190.9220  177.4450  137.5150 C   0  0  0  0  0  2  0  0  0  0  0  0
  185.8900  174.2820  136.5570 C   0  0  1  0  0  3  0  0  0  0  0  0
  187.4620  174.8630  134.5970 C   0  0  0  0  0  2  0  0  0  0  0  0
  191.7410  176.6870  138.5680 C   0  0  0  0  0  2  0  0  0  0  0  0
  186.8490  177.1500  138.4450 C   0  0  0  0  0  2  0  0  0  0  0  0
  186.4300  178.2530  139.3780 C   0  0  0  0  0  0  0  0  0  0  0  0
  187.2760  178.6880  140.2360 N   0  0  0  0  0  2  0  0  0  0  0  0
  185.0660  178.8720  139.3220 C   0  0  0  0  0  2  0  0  0  0  0  0
  184.8130  179.5730  140.5020 O   0  0  0  0  0  1  0  0  0  0  0  0
  1  5  1  6  0  0  0
  1  2  1  0  0  0  0
  1  4  1  0  0  0  0
  2 14  1  6  0  0  0
  3 24  1  6  0  0  0
  3  9  1  0  0  0  0
  3 23  1  0  0  0  0
  4 19  1  6  0  0  0
  4 22  1  0  0  0  0
  7  6  1  0  0  0  0
  7 11  1  1  0  0  0
  8 17  1  0  0  0  0
  8 10  1  0  0  0  0
  9 21  1  0  0  0  0
 10  5  1  6  0  0  0
 10  7  1  0  0  0  0
 11 25  1  0  0  0  0
 12 14  1  0  0  0  0
 12 16  1  0  0  0  0
 13 17  2  0  0  0  0
 17  6  1  0  0  0  0
 18 24  1  6  0  0  0
 18  3  1  0  0  0  0
 18  1  1  0  0  0  0
 18  2  1  0  0  0  0
 19 21  1  0  0  0  0
 20  9  1  0  0  0  0
 21 26  1  1  0  0  0
 22 25  1  0  0  0  0
 23 15  1  6  0  0  0
 23 16  1  0  0  0  0
 26 27  1  0  0  0  0
 27 28  2  0  0  0  0
 29 27  1  0  0  0  0
 29 30  1  0  0  0  0
M  END
>  <MODEL>
8

>  <REMARK>
 VINA RESULT:      -4.0      1.479      1.753
  Name = 
  3 active torsions:
  status: ('A' for Active; 'I' for Inactive)
    1  A    between atoms: CA_7  and  C_10
    2  A    between atoms: CA_7  and  C_15
    3  A    between atoms: C_10  and  C_25
                            x       y       z     vdW  Elec       q    Type
                         _______ _______ _______ _____ _____    ______ ____

>  <TORSDO>
F 3

$$$$
=
 OpenBabel11052412203D

 30 35  0  0  1  0  0  0  0  0999 V2000
  182.7980  177.0800  137.4460 C   0  0  1  0  0  0  0  0  0  0  0  0
  181.6910  177.6550  136.5310 C   0  0  2  0  0  3  0  0  0  0  0  0
  180.6860  178.6450  138.5290 C   0  0  1  0  0  0  0  0  0  0  0  0
  182.3940  175.7970  138.2180 C   0  0  2  0  0  3  0  0  0  0  0  0
  184.2480  177.5090  137.1670 C   0  0  0  0  0  2  0  0  0  0  0  0
  185.9900  174.8240  134.5940 S   0  0  0  0  0  0  0  0  0  0  0  0
  184.5990  175.7250  135.3530 C   0  0  2  0  0  3  0  0  0  0  0  0
  186.4710  176.8170  136.3760 N   0  0  0  0  0  2  0  0  0  0  0  0
  180.4540  178.0670  139.8740 N   0  0  0  0  0  0  0  0  0  0  0  0
  185.1190  176.3720  136.6420 C   0  0  1  0  0  3  0  0  0  0  0  0
  183.3620  174.8380  135.5410 C   0  0  0  0  0  2  0  0  0  0  0  0
  180.7960  179.8030  135.6060 C   0  0  0  0  0  2  0  0  0  0  0  0
  188.1910  176.3190  134.8750 O   0  0  0  0  0  0  0  0  0  0  0  0
  181.9410  178.7680  135.5250 C   0  0  0  0  0  2  0  0  0  0  0  0
  179.0440  180.4080  138.2720 O   0  0  0  0  0  1  0  0  0  0  0  0
  179.4900  179.2370  136.2070 C   0  0  0  0  0  2  0  0  0  0  0  0
  187.0430  176.0640  135.3210 C   0  0  0  0  0  0  0  0  0  0  0  0
  181.9660  178.2210  137.9080 C   0  0  1  0  0  0  0  0  0  0  0  0
  182.0490  176.0570  139.6970 C   0  0  0  0  0  2  0  0  0  0  0  0
  181.2480  178.6920  140.9310 C   0  0  0  0  0  1  0  0  0  0  0  0
  180.6090  176.5960  139.9340 C   0  0  2  0  0  3  0  0  0  0  0  0
  183.4110  174.6590  138.1160 C   0  0  0  0  0  2  0  0  0  0  0  0
  179.4440  179.1730  137.7560 C   0  0  1  0  0  3  0  0  0  0  0  0
  181.9090  179.6440  138.3500 C   0  0  0  0  0  2  0  0  0  0  0  0
  183.3820  173.9210  136.7700 C   0  0  0  0  0  2  0  0  0  0  0  0
  179.5310  175.8790  139.1160 C   0  0  0  0  0  2  0  0  0  0  0  0
  179.3900  174.4150  139.4350 C   0  0  0  0  0  0  0  0  0  0  0  0
  179.3560  174.0540  140.6640 N   0  0  0  0  0  2  0  0  0  0  0  0
  179.2670  173.3730  138.3650 C   0  0  0  0  0  2  0  0  0  0  0  0
  180.4540  172.6440  138.2740 O   0  0  0  0  0  1  0  0  0  0  0  0
  1  5  1  6  0  0  0
  1 18  1  0  0  0  0
  1  4  1  0  0  0  0
  2 14  1  6  0  0  0
  2  1  1  0  0  0  0
  2 18  1  0  0  0  0
  3 24  1  1  0  0  0
  3  9  1  0  0  0  0
  4 22  1  1  0  0  0
  4 19  1  0  0  0  0
  6 17  1  0  0  0  0
  6  7  1  0  0  0  0
  7 11  1  1  0  0  0
  7 10  1  0  0  0  0
  8 10  1  0  0  0  0
  9 21  1  0  0  0  0
  9 20  1  0  0  0  0
 10  5  1  6  0  0  0
 11 25  1  0  0  0  0
 12 16  1  0  0  0  0
 13 17  2  0  0  0  0
 14 12  1  0  0  0  0
 16 23  1  0  0  0  0
 17  8  1  0  0  0  0
 18 24  1  6  0  0  0
 18  3  1  0  0  0  0
 19 21  1  0  0  0  0
 21 26  1  6  0  0  0
 23 15  1  1  0  0  0
 23  3  1  0  0  0  0
 25 22  1  0  0  0  0
 26 27  1  0  0  0  0
 27 28  2  0  0  0  0
 29 27  1  0  0  0  0
 30 29  1  0  0  0  0
M  END
>  <MODEL>
9

>  <REMARK>
 VINA RESULT:      -4.0      4.334      6.976
  Name = 
  3 active torsions:
  status: ('A' for Active; 'I' for Inactive)
    1  A    between atoms: CA_7  and  C_10
    2  A    between atoms: CA_7  and  C_15
    3  A    between atoms: C_10  and  C_25
                            x       y       z     vdW  Elec       q    Type
                         _______ _______ _______ _____ _____    ______ ____

>  <TORSDO>
F 3

$$$$
