=
 OpenBabel11052413543D

 27 31  0  0  1  0  0  0  0  0999 V2000
  185.7350  178.3280  144.9480 N   0  0  0  0  0  2  0  0  0  0  0  0
  187.7100  177.9190  143.5350 C   0  0  0  0  0  0  0  0  0  0  0  0
  185.7910  178.0150  141.9310 N   0  0  0  0  0  2  0  0  0  0  0  0
  189.2540  178.2450  139.2130 N   0  0  0  0  0  0  0  0  0  0  0  0
  188.0270  178.4410  137.1760 C   0  0  0  0  0  3  0  0  0  0  0  0
  189.0850  177.8970  143.3510 C   0  0  0  0  0  3  0  0  0  0  0  0
  186.8350  178.4020  137.9000 C   0  0  0  0  0  3  0  0  0  0  0  0
  186.8710  178.2830  139.2900 C   0  0  0  0  0  3  0  0  0  0  0  0
  182.5690  178.9210  143.0360 C   0  0  0  0  0  0  0  0  0  0  0  0
  188.1070  178.2030  139.9480 C   0  0  0  0  0  0  0  0  0  0  0  0
  186.9570  177.5520  144.7700 C   0  0  1  0  0  3  0  0  0  0  0  0
  189.2410  178.3610  137.8590 C   0  0  0  0  0  3  0  0  0  0  0  0
  188.1860  178.0820  141.3810 N   0  0  0  0  0  0  0  0  0  0  0  0
  184.7960  178.5530  144.0770 C   0  0  0  0  0  0  0  0  0  0  0  0
  187.1800  178.0070  142.2750 C   0  0  0  0  0  0  0  0  0  0  0  0
  183.5030  178.4380  142.1260 C   0  0  0  0  0  3  0  0  0  0  0  0
  189.3390  178.0210  142.0300 N   0  0  0  0  0  0  0  0  0  0  0  0
  183.2830  179.1210  144.5400 S   0  0  0  0  0  0  0  0  0  0  0  0
  184.7670  178.2510  142.7010 C   0  0  0  0  0  0  0  0  0  0  0  0
  189.3250  177.7780  148.3520 C   0  0  0  0  0  3  0  0  0  0  0  0
  187.7970  177.6310  146.0110 C   0  0  0  0  0  0  0  0  0  0  0  0
  187.2680  178.2330  147.1580 C   0  0  0  0  0  3  0  0  0  0  0  0
  188.0310  178.3080  148.3270 C   0  0  0  0  0  3  0  0  0  0  0  0
  189.8560  177.1730  147.2100 C   0  0  0  0  0  3  0  0  0  0  0  0
  189.0940  177.0980  146.0410 C   0  0  0  0  0  3  0  0  0  0  0  0
  180.1730  178.7030  143.5570 C   0  0  0  0  0  1  0  0  0  0  0  0
  181.2330  179.2130  142.7620 O   0  0  0  0  0  0  0  0  0  0  0  0
  2 11  1  0  0  0  0
  3 15  1  0  0  0  0
  3 19  1  0  0  0  0
  4 10  1  0  0  0  0
  5 12  1  0  0  0  0
  5  7  2  0  0  0  0
  6  2  1  0  0  0  0
  7  8  1  0  0  0  0
  8 10  2  0  0  0  0
  9 18  1  0  0  0  0
 10 13  1  0  0  0  0
 11  1  1  0  0  0  0
 11 21  1  1  0  0  0
 12  4  2  0  0  0  0
 13 17  1  0  0  0  0
 13 15  1  0  0  0  0
 14 18  1  0  0  0  0
 14  1  1  0  0  0  0
 15  2  2  0  0  0  0
 16 19  1  0  0  0  0
 16  9  2  0  0  0  0
 17  6  2  0  0  0  0
 19 14  2  0  0  0  0
 21 25  2  0  0  0  0
 21 22  1  0  0  0  0
 22 23  2  0  0  0  0
 23 20  1  0  0  0  0
 24 20  2  0  0  0  0
 25 24  1  0  0  0  0
 27  9  1  0  0  0  0
 27 26  1  0  0  0  0
M  END
>  <MODEL>
1

>  <REMARK>
 VINA RESULT:     -10.0      0.000      0.000
  Name = 
  2 active torsions:
  status: ('A' for Active; 'I' for Inactive)
    1  A    between atoms: C_9  and  C_15
    2  A    between atoms: C_13  and  O_22
                            x       y       z     vdW  Elec       q    Type
                         _______ _______ _______ _____ _____    ______ ____

>  <TORSDO>
F 2

$$$$
=
 OpenBabel11052413543D

 27 31  0  0  1  0  0  0  0  0999 V2000
  189.8240  177.2330  142.8640 N   0  0  0  0  0  2  0  0  0  0  0  0
  187.8350  177.7630  144.2170 C   0  0  0  0  0  0  0  0  0  0  0  0
  187.1800  178.3410  141.8710 N   0  0  0  0  0  2  0  0  0  0  0  0
  183.2910  178.4300  143.9450 N   0  0  0  0  0  0  0  0  0  0  0  0
  181.9450  178.9440  142.0410 C   0  0  0  0  0  3  0  0  0  0  0  0
  187.1090  177.6650  145.3950 C   0  0  0  0  0  3  0  0  0  0  0  0
  183.0890  178.9330  141.2410 C   0  0  0  0  0  3  0  0  0  0  0  0
  184.3330  178.6660  141.8130 C   0  0  0  0  0  3  0  0  0  0  0  0
  189.3100  177.5720  139.1700 C   0  0  0  0  0  0  0  0  0  0  0  0
  184.4250  178.4130  143.1890 C   0  0  0  0  0  0  0  0  0  0  0  0
  189.3170  177.8720  144.0740 C   0  0  1  0  0  3  0  0  0  0  0  0
  182.0690  178.6880  143.4070 C   0  0  0  0  0  3  0  0  0  0  0  0
  185.6900  178.1310  143.8160 N   0  0  0  0  0  0  0  0  0  0  0  0
  189.3910  177.3690  141.6460 C   0  0  0  0  0  0  0  0  0  0  0  0
  186.9150  178.0850  143.2540 C   0  0  0  0  0  0  0  0  0  0  0  0
  188.2110  178.1640  139.7840 C   0  0  0  0  0  3  0  0  0  0  0  0
  185.8060  177.8720  145.1100 N   0  0  0  0  0  0  0  0  0  0  0  0
  190.3130  176.8870  140.3260 S   0  0  0  0  0  0  0  0  0  0  0  0
  188.2400  178.0330  141.1790 C   0  0  0  0  0  0  0  0  0  0  0  0
  191.4820  176.4000  147.4840 C   0  0  0  0  0  3  0  0  0  0  0  0
  190.0580  177.3580  145.2720 C   0  0  0  0  0  0  0  0  0  0  0  0
  191.2110  176.5890  145.0850 C   0  0  0  0  0  3  0  0  0  0  0  0
  191.9220  176.1100  146.1890 C   0  0  0  0  0  3  0  0  0  0  0  0
  190.3320  177.1700  147.6760 C   0  0  0  0  0  3  0  0  0  0  0  0
  189.6210  177.6500  146.5730 C   0  0  0  0  0  3  0  0  0  0  0  0
  189.2010  178.6030  136.9370 C   0  0  0  0  0  1  0  0  0  0  0  0
  189.5580  177.5320  137.7980 O   0  0  0  0  0  0  0  0  0  0  0  0
  1 11  1  0  0  0  0
  2  6  1  0  0  0  0
  3 15  1  0  0  0  0
  5 12  2  0  0  0  0
  7  8  2  0  0  0  0
  7  5  1  0  0  0  0
  8 10  1  0  0  0  0
  9 16  2  0  0  0  0
  9 18  1  0  0  0  0
 10 13  1  0  0  0  0
 10  4  2  0  0  0  0
 11  2  1  0  0  0  0
 11 21  1  1  0  0  0
 12  4  1  0  0  0  0
 13 17  1  0  0  0  0
 14  1  1  0  0  0  0
 15 13  1  0  0  0  0
 15  2  2  0  0  0  0
 16 19  1  0  0  0  0
 17  6  2  0  0  0  0
 18 14  1  0  0  0  0
 19 14  2  0  0  0  0
 19  3  1  0  0  0  0
 20 24  1  0  0  0  0
 21 25  1  0  0  0  0
 22 21  2  0  0  0  0
 22 23  1  0  0  0  0
 23 20  2  0  0  0  0
 25 24  2  0  0  0  0
 26 27  1  0  0  0  0
 27  9  1  0  0  0  0
M  END
>  <MODEL>
2

>  <REMARK>
 VINA RESULT:      -9.9      2.840      5.533
  Name = 
  2 active torsions:
  status: ('A' for Active; 'I' for Inactive)
    1  A    between atoms: C_9  and  C_15
    2  A    between atoms: C_13  and  O_22
                            x       y       z     vdW  Elec       q    Type
                         _______ _______ _______ _____ _____    ______ ____

>  <TORSDO>
F 2

$$$$
=
 OpenBabel11052413543D

 27 31  0  0  1  0  0  0  0  0999 V2000
  186.5490  178.1510  140.7310 N   0  0  0  0  0  2  0  0  0  0  0  0
  188.8760  177.6870  141.3920 C   0  0  0  0  0  0  0  0  0  0  0  0
  187.6830  178.1430  143.5450 N   0  0  0  0  0  2  0  0  0  0  0  0
  191.4890  176.4280  144.9640 N   0  0  0  0  0  0  0  0  0  0  0  0
  191.0000  176.5020  147.2990 C   0  0  0  0  0  3  0  0  0  0  0  0
  190.1410  177.1940  141.1080 C   0  0  0  0  0  3  0  0  0  0  0  0
  189.7440  177.0360  147.0110 C   0  0  0  0  0  3  0  0  0  0  0  0
  189.3730  177.2610  145.6850 C   0  0  0  0  0  3  0  0  0  0  0  0
  184.1840  178.5670  143.6060 C   0  0  0  0  0  0  0  0  0  0  0  0
  190.2680  176.9490  144.6510 C   0  0  0  0  0  0  0  0  0  0  0  0
  187.9590  178.4130  140.4650 C   0  0  1  0  0  3  0  0  0  0  0  0
  191.8690  176.2010  146.2490 C   0  0  0  0  0  3  0  0  0  0  0  0
  189.9220  177.1650  143.2700 N   0  0  0  0  0  0  0  0  0  0  0  0
  185.9270  178.2010  141.8720 C   0  0  0  0  0  0  0  0  0  0  0  0
  188.7860  177.6810  142.7590 C   0  0  0  0  0  0  0  0  0  0  0  0
  185.4700  178.5940  144.1370 C   0  0  0  0  0  3  0  0  0  0  0  0
  190.7400  176.8660  142.2730 N   0  0  0  0  0  0  0  0  0  0  0  0
  184.2500  178.2630  141.9590 S   0  0  0  0  0  0  0  0  0  0  0  0
  186.4560  178.3650  143.1670 C   0  0  0  0  0  0  0  0  0  0  0  0
  188.7900  177.6370  136.3180 C   0  0  0  0  0  3  0  0  0  0  0  0
  188.2630  178.1510  139.0200 C   0  0  0  0  0  0  0  0  0  0  0  0
  187.7810  176.9830  138.4200 C   0  0  0  0  0  3  0  0  0  0  0  0
  188.0450  176.7250  137.0720 C   0  0  0  0  0  3  0  0  0  0  0  0
  189.2710  178.8070  136.9120 C   0  0  0  0  0  3  0  0  0  0  0  0
  189.0070  179.0660  138.2600 C   0  0  0  0  0  3  0  0  0  0  0  0
  181.7530  178.9470  143.6680 C   0  0  0  0  0  1  0  0  0  0  0  0
  183.0000  178.7530  144.3190 O   0  0  0  0  0  0  0  0  0  0  0  0
  1 14  1  0  0  0  0
  2 15  2  0  0  0  0
  4 12  1  0  0  0  0
  6  2  1  0  0  0  0
  6 17  2  0  0  0  0
  7  5  1  0  0  0  0
  8  7  2  0  0  0  0
  9 16  2  0  0  0  0
  9 27  1  0  0  0  0
 10  4  2  0  0  0  0
 10  8  1  0  0  0  0
 11 21  1  6  0  0  0
 11  1  1  0  0  0  0
 11  2  1  0  0  0  0
 12  5  2  0  0  0  0
 13 10  1  0  0  0  0
 14 18  1  0  0  0  0
 14 19  2  0  0  0  0
 15 13  1  0  0  0  0
 15  3  1  0  0  0  0
 17 13  1  0  0  0  0
 18  9  1  0  0  0  0
 19  3  1  0  0  0  0
 19 16  1  0  0  0  0
 20 24  2  0  0  0  0
 20 23  1  0  0  0  0
 22 21  1  0  0  0  0
 23 22  2  0  0  0  0
 24 25  1  0  0  0  0
 25 21  2  0  0  0  0
 26 27  1  0  0  0  0
M  END
>  <MODEL>
3

>  <REMARK>
 VINA RESULT:      -9.5      1.727      6.359
  Name = 
  2 active torsions:
  status: ('A' for Active; 'I' for Inactive)
    1  A    between atoms: C_9  and  C_15
    2  A    between atoms: C_13  and  O_22
                            x       y       z     vdW  Elec       q    Type
                         _______ _______ _______ _____ _____    ______ ____

>  <TORSDO>
F 2

$$$$
=
 OpenBabel11052413543D

 27 31  0  0  1  0  0  0  0  0999 V2000
  188.9410  177.5050  143.1850 N   0  0  0  0  0  2  0  0  0  0  0  0
  186.5870  178.1360  143.5380 C   0  0  0  0  0  0  0  0  0  0  0  0
  186.9750  178.4800  141.0900 N   0  0  0  0  0  2  0  0  0  0  0  0
  182.5810  178.7170  141.3520 N   0  0  0  0  0  0  0  0  0  0  0  0
  182.1570  179.0310  139.0240 C   0  0  0  0  0  3  0  0  0  0  0  0
  185.4360  178.1400  144.3150 C   0  0  0  0  0  3  0  0  0  0  0  0
  183.5270  178.9580  138.7730 C   0  0  0  0  0  3  0  0  0  0  0  0
  184.4170  178.7630  139.8300 C   0  0  0  0  0  3  0  0  0  0  0  0
  190.0080  177.4860  139.5940 C   0  0  0  0  0  0  0  0  0  0  0  0
  183.9250  178.6420  141.1380 C   0  0  0  0  0  0  0  0  0  0  0  0
  187.9980  178.2490  144.0120 C   0  0  1  0  0  3  0  0  0  0  0  0
  181.6980  178.9070  140.3360 C   0  0  0  0  0  3  0  0  0  0  0  0
  184.8100  178.4370  142.2550 N   0  0  0  0  0  0  0  0  0  0  0  0
  189.0540  177.5190  141.8900 C   0  0  0  0  0  0  0  0  0  0  0  0
  186.1560  178.3540  142.2560 C   0  0  0  0  0  0  0  0  0  0  0  0
  188.7710  178.1200  139.6420 C   0  0  0  0  0  3  0  0  0  0  0  0
  184.3740  178.3030  143.4980 N   0  0  0  0  0  0  0  0  0  0  0  0
  190.4250  176.9260  141.1190 S   0  0  0  0  0  0  0  0  0  0  0  0
  188.2170  178.1220  140.9300 C   0  0  0  0  0  0  0  0  0  0  0  0
  188.5200  177.1350  148.1320 C   0  0  0  0  0  3  0  0  0  0  0  0
  188.1640  177.8610  145.4510 C   0  0  0  0  0  0  0  0  0  0  0  0
  189.2830  177.1140  145.8340 C   0  0  0  0  0  3  0  0  0  0  0  0
  189.4610  176.7510  147.1720 C   0  0  0  0  0  3  0  0  0  0  0  0
  187.4020  177.8830  147.7550 C   0  0  0  0  0  3  0  0  0  0  0  0
  187.2230  178.2470  146.4170 C   0  0  0  0  0  3  0  0  0  0  0  0
  191.8390  176.3530  138.4020 C   0  0  0  0  0  1  0  0  0  0  0  0
  190.8000  177.3180  138.4580 O   0  0  0  0  0  0  0  0  0  0  0  0
  1 11  1  0  0  0  0
  2 11  1  0  0  0  0
  2  6  1  0  0  0  0
  3 15  1  0  0  0  0
  5 12  1  0  0  0  0
  7  5  2  0  0  0  0
  7  8  1  0  0  0  0
  8 10  2  0  0  0  0
  9 16  2  0  0  0  0
  9 18  1  0  0  0  0
 10  4  1  0  0  0  0
 10 13  1  0  0  0  0
 11 21  1  1  0  0  0
 12  4  2  0  0  0  0
 13 15  1  0  0  0  0
 13 17  1  0  0  0  0
 14  1  1  0  0  0  0
 15  2  2  0  0  0  0
 16 19  1  0  0  0  0
 17  6  2  0  0  0  0
 18 14  1  0  0  0  0
 19  3  1  0  0  0  0
 19 14  2  0  0  0  0
 21 22  2  0  0  0  0
 21 25  1  0  0  0  0
 22 23  1  0  0  0  0
 23 20  2  0  0  0  0
 24 20  1  0  0  0  0
 25 24  2  0  0  0  0
 26 27  1  0  0  0  0
 27  9  1  0  0  0  0
M  END
>  <MODEL>
4

>  <REMARK>
 VINA RESULT:      -9.3      3.127      5.378
  Name = 
  2 active torsions:
  status: ('A' for Active; 'I' for Inactive)
    1  A    between atoms: C_9  and  C_15
    2  A    between atoms: C_13  and  O_22
                            x       y       z     vdW  Elec       q    Type
                         _______ _______ _______ _____ _____    ______ ____

>  <TORSDO>
F 2

$$$$
=
 OpenBabel11052413543D

 27 31  0  0  1  0  0  0  0  0999 V2000
  186.3440  178.5200  140.2390 N   0  0  0  0  0  2  0  0  0  0  0  0
  185.4190  178.4300  142.5200 C   0  0  0  0  0  0  0  0  0  0  0  0
  187.7630  177.5840  142.7520 N   0  0  0  0  0  2  0  0  0  0  0  0
  186.6210  178.2530  146.9580 N   0  0  0  0  0  0  0  0  0  0  0  0
  188.7010  177.6150  147.9400 C   0  0  0  0  0  3  0  0  0  0  0  0
  184.4540  178.7860  143.4520 C   0  0  0  0  0  3  0  0  0  0  0  0
  189.2190  177.3760  146.6660 C   0  0  0  0  0  3  0  0  0  0  0  0
  188.4200  177.5810  145.5420 C   0  0  0  0  0  3  0  0  0  0  0  0
  189.9900  177.6900  140.0210 C   0  0  0  0  0  0  0  0  0  0  0  0
  187.0990  178.0270  145.7010 C   0  0  0  0  0  0  0  0  0  0  0  0
  185.2110  178.1320  141.0720 C   0  0  1  0  0  3  0  0  0  0  0  0
  187.3840  178.0590  148.0660 C   0  0  0  0  0  3  0  0  0  0  0  0
  186.2430  178.2530  144.5660 N   0  0  0  0  0  0  0  0  0  0  0  0
  187.6020  178.2530  140.4250 C   0  0  0  0  0  0  0  0  0  0  0  0
  186.5170  178.0740  143.2570 C   0  0  0  0  0  0  0  0  0  0  0  0
  189.5710  177.3260  141.2970 C   0  0  0  0  0  3  0  0  0  0  0  0
  184.9980  178.6890  144.6840 N   0  0  0  0  0  0  0  0  0  0  0  0
  188.7300  178.4220  139.1910 S   0  0  0  0  0  0  0  0  0  0  0  0
  188.2310  177.6620  141.5390 C   0  0  0  0  0  0  0  0  0  0  0  0
  181.6110  179.8540  139.4710 C   0  0  0  0  0  3  0  0  0  0  0  0
  183.9480  178.7320  140.5290 C   0  0  0  0  0  0  0  0  0  0  0  0
  184.0180  179.5880  139.4240 C   0  0  0  0  0  3  0  0  0  0  0  0
  182.8510  180.1490  138.8960 C   0  0  0  0  0  3  0  0  0  0  0  0
  181.5360  178.9990  140.5730 C   0  0  0  0  0  3  0  0  0  0  0  0
  182.7020  178.4360  141.1010 C   0  0  0  0  0  3  0  0  0  0  0  0
  192.4270  177.5030  140.3070 C   0  0  0  0  0  1  0  0  0  0  0  0
  191.2650  177.4950  139.4920 O   0  0  0  0  0  0  0  0  0  0  0  0
  1 14  1  0  0  0  0
  1 11  1  0  0  0  0
  2 15  2  0  0  0  0
  2  6  1  0  0  0  0
  3 15  1  0  0  0  0
  4 12  1  0  0  0  0
  5 12  2  0  0  0  0
  6 17  2  0  0  0  0
  7  5  1  0  0  0  0
  8 10  1  0  0  0  0
  8  7  2  0  0  0  0
  9 16  2  0  0  0  0
 10  4  2  0  0  0  0
 11 21  1  6  0  0  0
 11  2  1  0  0  0  0
 13 17  1  0  0  0  0
 13 10  1  0  0  0  0
 14 19  2  0  0  0  0
 15 13  1  0  0  0  0
 16 19  1  0  0  0  0
 18  9  1  0  0  0  0
 18 14  1  0  0  0  0
 19  3  1  0  0  0  0
 20 24  1  0  0  0  0
 21 25  1  0  0  0  0
 22 21  2  0  0  0  0
 23 22  1  0  0  0  0
 23 20  2  0  0  0  0
 24 25  2  0  0  0  0
 27  9  1  0  0  0  0
 27 26  1  0  0  0  0
M  END
>  <MODEL>
5

>  <REMARK>
 VINA RESULT:      -9.2      3.146      7.709
  Name = 
  2 active torsions:
  status: ('A' for Active; 'I' for Inactive)
    1  A    between atoms: C_9  and  C_15
    2  A    between atoms: C_13  and  O_22
                            x       y       z     vdW  Elec       q    Type
                         _______ _______ _______ _____ _____    ______ ____

>  <TORSDO>
F 2

$$$$
=
 OpenBabel11052413543D

 27 31  0  0  1  0  0  0  0  0999 V2000
  190.1890  177.5230  141.4300 N   0  0  0  0  0  2  0  0  0  0  0  0
  187.7730  177.8760  141.1090 C   0  0  0  0  0  0  0  0  0  0  0  0
  188.0370  177.4970  143.5680 N   0  0  0  0  0  2  0  0  0  0  0  0
  183.9120  179.0330  143.3270 N   0  0  0  0  0  0  0  0  0  0  0  0
  183.4410  179.0020  145.6660 C   0  0  0  0  0  3  0  0  0  0  0  0
  186.7030  178.3040  140.3350 C   0  0  0  0  0  3  0  0  0  0  0  0
  184.7310  178.5290  145.9110 C   0  0  0  0  0  3  0  0  0  0  0  0
  185.6040  178.3110  144.8450 C   0  0  0  0  0  3  0  0  0  0  0  0
  191.2420  177.2470  145.0140 C   0  0  0  0  0  0  0  0  0  0  0  0
  185.1770  178.5700  143.5340 C   0  0  0  0  0  0  0  0  0  0  0  0
  189.0120  177.1890  140.6370 C   0  0  1  0  0  3  0  0  0  0  0  0
  183.0460  179.2510  144.3510 C   0  0  0  0  0  3  0  0  0  0  0  0
  186.0490  178.3610  142.4070 N   0  0  0  0  0  0  0  0  0  0  0  0
  190.3120  177.5130  142.7250 C   0  0  0  0  0  0  0  0  0  0  0  0
  187.3160  177.8980  142.4000 C   0  0  0  0  0  0  0  0  0  0  0  0
  189.8540  177.1610  144.9960 C   0  0  0  0  0  3  0  0  0  0  0  0
  185.6800  178.6120  141.1610 N   0  0  0  0  0  0  0  0  0  0  0  0
  191.8200  177.5350  143.4670 S   0  0  0  0  0  0  0  0  0  0  0  0
  189.3220  177.3330  143.7110 C   0  0  0  0  0  0  0  0  0  0  0  0
  189.8060  177.8180  136.4580 C   0  0  0  0  0  3  0  0  0  0  0  0
  189.2920  177.4240  139.1830 C   0  0  0  0  0  0  0  0  0  0  0  0
  189.7870  176.3740  138.4020 C   0  0  0  0  0  3  0  0  0  0  0  0
  190.0450  176.5700  137.0430 C   0  0  0  0  0  3  0  0  0  0  0  0
  189.3100  178.8690  137.2330 C   0  0  0  0  0  3  0  0  0  0  0  0
  189.0510  178.6740  138.5930 C   0  0  0  0  0  3  0  0  0  0  0  0
  192.0500  175.9590  146.9500 C   0  0  0  0  0  1  0  0  0  0  0  0
  192.0550  177.1260  146.1410 O   0  0  0  0  0  0  0  0  0  0  0  0
  1 14  1  0  0  0  0
  2 15  2  0  0  0  0
  3 19  1  0  0  0  0
  4 10  2  0  0  0  0
  4 12  1  0  0  0  0
  5  7  1  0  0  0  0
  6  2  1  0  0  0  0
  6 17  2  0  0  0  0
  8  7  2  0  0  0  0
  9 27  1  0  0  0  0
 10  8  1  0  0  0  0
 11 21  1  6  0  0  0
 11  2  1  0  0  0  0
 11  1  1  0  0  0  0
 12  5  2  0  0  0  0
 13 10  1  0  0  0  0
 14 18  1  0  0  0  0
 14 19  2  0  0  0  0
 15 13  1  0  0  0  0
 15  3  1  0  0  0  0
 16  9  2  0  0  0  0
 17 13  1  0  0  0  0
 18  9  1  0  0  0  0
 19 16  1  0  0  0  0
 20 23  2  0  0  0  0
 20 24  1  0  0  0  0
 22 21  2  0  0  0  0
 23 22  1  0  0  0  0
 24 25  2  0  0  0  0
 25 21  1  0  0  0  0
 27 26  1  0  0  0  0
M  END
>  <MODEL>
6

>  <REMARK>
 VINA RESULT:      -9.0      3.381      7.642
  Name = 
  2 active torsions:
  status: ('A' for Active; 'I' for Inactive)
    1  A    between atoms: C_9  and  C_15
    2  A    between atoms: C_13  and  O_22
                            x       y       z     vdW  Elec       q    Type
                         _______ _______ _______ _____ _____    ______ ____

>  <TORSDO>
F 2

$$$$
=
 OpenBabel11052413543D

 27 31  0  0  1  0  0  0  0  0999 V2000
  185.1490  178.6020  141.4530 N   0  0  0  0  0  2  0  0  0  0  0  0
  184.7650  178.4760  143.8820 C   0  0  0  0  0  0  0  0  0  0  0  0
  187.1440  177.7620  143.5780 N   0  0  0  0  0  2  0  0  0  0  0  0
  186.9390  178.3940  147.9360 N   0  0  0  0  0  0  0  0  0  0  0  0
  189.2170  177.8770  148.4230 C   0  0  0  0  0  3  0  0  0  0  0  0
  184.0150  178.7850  145.0090 C   0  0  0  0  0  3  0  0  0  0  0  0
  189.4490  177.6590  147.0650 C   0  0  0  0  0  3  0  0  0  0  0  0
  188.4080  177.8120  146.1490 C   0  0  0  0  0  3  0  0  0  0  0  0
  188.6930  177.9710  140.4180 C   0  0  0  0  0  0  0  0  0  0  0  0
  187.1340  178.1860  146.6030 C   0  0  0  0  0  0  0  0  0  0  0  0
  184.2540  178.1580  142.5160 C   0  0  1  0  0  3  0  0  0  0  0  0
  187.9400  178.2490  148.8440 C   0  0  0  0  0  3  0  0  0  0  0  0
  186.0340  178.3580  145.6900 N   0  0  0  0  0  0  0  0  0  0  0  0
  186.4300  178.4050  141.3500 C   0  0  0  0  0  0  0  0  0  0  0  0
  186.0180  178.1850  144.3520 C   0  0  0  0  0  0  0  0  0  0  0  0
  188.5910  177.5930  141.7530 C   0  0  0  0  0  3  0  0  0  0  0  0
  184.8260  178.7250  146.0870 N   0  0  0  0  0  0  0  0  0  0  0  0
  187.2410  178.6270  139.8950 S   0  0  0  0  0  0  0  0  0  0  0  0
  187.3240  177.8560  142.2910 C   0  0  0  0  0  0  0  0  0  0  0  0
  180.2870  179.6430  141.7770 C   0  0  0  0  0  3  0  0  0  0  0  0
  182.8710  178.6840  142.2720 C   0  0  0  0  0  0  0  0  0  0  0  0
  182.4210  178.8450  140.9570 C   0  0  0  0  0  3  0  0  0  0  0  0
  181.1320  179.3240  140.7100 C   0  0  0  0  0  3  0  0  0  0  0  0
  180.7310  179.4820  143.0920 C   0  0  0  0  0  3  0  0  0  0  0  0
  182.0200  179.0020  143.3410 C   0  0  0  0  0  3  0  0  0  0  0  0
  190.9750  177.1270  140.0440 C   0  0  0  0  0  1  0  0  0  0  0  0
  189.8260  177.8430  139.6150 O   0  0  0  0  0  0  0  0  0  0  0  0
  1 11  1  0  0  0  0
  2 15  2  0  0  0  0
  2  6  1  0  0  0  0
  3 15  1  0  0  0  0
  4 12  1  0  0  0  0
  5 12  2  0  0  0  0
  6 17  2  0  0  0  0
  7  5  1  0  0  0  0
  8 10  1  0  0  0  0
  8  7  2  0  0  0  0
  9 16  2  0  0  0  0
 10  4  2  0  0  0  0
 11 21  1  6  0  0  0
 11  2  1  0  0  0  0
 13 17  1  0  0  0  0
 13 10  1  0  0  0  0
 14  1  1  0  0  0  0
 14 19  2  0  0  0  0
 15 13  1  0  0  0  0
 16 19  1  0  0  0  0
 18  9  1  0  0  0  0
 18 14  1  0  0  0  0
 19  3  1  0  0  0  0
 20 24  1  0  0  0  0
 21 25  1  0  0  0  0
 22 21  2  0  0  0  0
 23 22  1  0  0  0  0
 23 20  2  0  0  0  0
 24 25  2  0  0  0  0
 27 26  1  0  0  0  0
 27  9  1  0  0  0  0
M  END
>  <MODEL>
7

>  <REMARK>
 VINA RESULT:      -8.9      2.750      7.453
  Name = 
  2 active torsions:
  status: ('A' for Active; 'I' for Inactive)
    1  A    between atoms: C_9  and  C_15
    2  A    between atoms: C_13  and  O_22
                            x       y       z     vdW  Elec       q    Type
                         _______ _______ _______ _____ _____    ______ ____

>  <TORSDO>
F 2

$$$$
=
 OpenBabel11052413543D

 27 31  0  0  1  0  0  0  0  0999 V2000
  188.5680  177.6130  139.6180 N   0  0  0  0  0  2  0  0  0  0  0  0
  189.8550  177.1680  141.6700 C   0  0  0  0  0  0  0  0  0  0  0  0
  187.7690  178.3020  142.4630 N   0  0  0  0  0  2  0  0  0  0  0  0
  189.4460  176.7520  146.2340 N   0  0  0  0  0  0  0  0  0  0  0  0
  187.7020  177.5150  147.6750 C   0  0  0  0  0  3  0  0  0  0  0  0
  190.8800  176.5150  142.3410 C   0  0  0  0  0  3  0  0  0  0  0  0
  187.0340  178.0460  146.5710 C   0  0  0  0  0  3  0  0  0  0  0  0
  187.5890  177.9210  145.2980 C   0  0  0  0  0  3  0  0  0  0  0  0
  185.1430  179.0060  140.2190 C   0  0  0  0  0  0  0  0  0  0  0  0
  188.8170  177.2610  145.1370 C   0  0  0  0  0  0  0  0  0  0  0  0
  189.8730  177.6770  140.2670 C   0  0  1  0  0  3  0  0  0  0  0  0
  188.9220  176.8640  147.4830 C   0  0  0  0  0  3  0  0  0  0  0  0
  189.4220  177.1100  143.8390 N   0  0  0  0  0  0  0  0  0  0  0  0
  187.4250  178.0300  140.0770 C   0  0  0  0  0  0  0  0  0  0  0  0
  188.9740  177.5520  142.6460 C   0  0  0  0  0  0  0  0  0  0  0  0
  185.8230  179.0760  141.4300 C   0  0  0  0  0  3  0  0  0  0  0  0
  190.5710  176.4780  143.6550 N   0  0  0  0  0  0  0  0  0  0  0  0
  186.0990  178.2480  139.0680 S   0  0  0  0  0  0  0  0  0  0  0  0
  187.1030  178.5070  141.3620 C   0  0  0  0  0  0  0  0  0  0  0  0
  192.7900  175.7220  137.7850 C   0  0  0  0  0  3  0  0  0  0  0  0
  190.9020  176.9970  139.4130 C   0  0  0  0  0  0  0  0  0  0  0  0
  190.4990  175.9990  138.5200 C   0  0  0  0  0  3  0  0  0  0  0  0
  191.4410  175.3610  137.7080 C   0  0  0  0  0  3  0  0  0  0  0  0
  193.1970  176.7200  138.6740 C   0  0  0  0  0  3  0  0  0  0  0  0
  192.2550  177.3590  139.4860 C   0  0  0  0  0  3  0  0  0  0  0  0
  183.1990  179.2690  138.7330 C   0  0  0  0  0  1  0  0  0  0  0  0
  183.8540  179.4780  139.9750 O   0  0  0  0  0  0  0  0  0  0  0  0
  1 14  1  0  0  0  0
  1 11  1  0  0  0  0
  2  6  1  0  0  0  0
  2 15  2  0  0  0  0
  3 15  1  0  0  0  0
  4 12  1  0  0  0  0
  6 17  2  0  0  0  0
  7  5  1  0  0  0  0
  8  7  2  0  0  0  0
  9 16  2  0  0  0  0
 10  8  1  0  0  0  0
 10  4  2  0  0  0  0
 11 21  1  6  0  0  0
 11  2  1  0  0  0  0
 12  5  2  0  0  0  0
 13 10  1  0  0  0  0
 14 19  2  0  0  0  0
 15 13  1  0  0  0  0
 17 13  1  0  0  0  0
 18 14  1  0  0  0  0
 18  9  1  0  0  0  0
 19 16  1  0  0  0  0
 19  3  1  0  0  0  0
 20 24  1  0  0  0  0
 21 25  1  0  0  0  0
 22 21  2  0  0  0  0
 23 20  2  0  0  0  0
 23 22  1  0  0  0  0
 24 25  2  0  0  0  0
 26 27  1  0  0  0  0
 27  9  1  0  0  0  0
M  END
>  <MODEL>
8

>  <REMARK>
 VINA RESULT:      -8.9      2.749      6.613
  Name = 
  2 active torsions:
  status: ('A' for Active; 'I' for Inactive)
    1  A    between atoms: C_9  and  C_15
    2  A    between atoms: C_13  and  O_22
                            x       y       z     vdW  Elec       q    Type
                         _______ _______ _______ _____ _____    ______ ____

>  <TORSDO>
F 2

$$$$
=
 OpenBabel11052413543D

 27 31  0  0  1  0  0  0  0  0999 V2000
  186.4630  178.2430  141.5670 N   0  0  0  0  0  2  0  0  0  0  0  0
  186.6510  177.7950  143.9810 C   0  0  0  0  0  0  0  0  0  0  0  0
  188.8480  177.0690  143.0280 N   0  0  0  0  0  2  0  0  0  0  0  0
  189.7040  177.1030  147.3530 N   0  0  0  0  0  0  0  0  0  0  0  0
  192.0000  176.4670  147.2110 C   0  0  0  0  0  3  0  0  0  0  0  0
  186.2050  177.9660  145.2840 C   0  0  0  0  0  3  0  0  0  0  0  0
  191.8950  176.4300  145.8200 C   0  0  0  0  0  3  0  0  0  0  0  0
  190.6790  176.7350  145.2070 C   0  0  0  0  0  3  0  0  0  0  0  0
  189.6250  177.6700  139.6430 C   0  0  0  0  0  0  0  0  0  0  0  0
  189.5700  177.0750  145.9960 C   0  0  0  0  0  0  0  0  0  0  0  0
  185.8180  177.6800  142.7480 C   0  0  1  0  0  3  0  0  0  0  0  0
  190.8800  176.8100  147.9690 C   0  0  0  0  0  3  0  0  0  0  0  0
  188.2990  177.3980  145.4020 N   0  0  0  0  0  0  0  0  0  0  0  0
  187.6710  178.0290  141.1360 C   0  0  0  0  0  0  0  0  0  0  0  0
  187.9600  177.4110  144.0970 C   0  0  0  0  0  0  0  0  0  0  0  0
  189.8160  177.1150  140.9040 C   0  0  0  0  0  3  0  0  0  0  0  0
  187.2400  177.7380  146.1210 N   0  0  0  0  0  0  0  0  0  0  0  0
  188.1310  178.4280  139.5700 S   0  0  0  0  0  0  0  0  0  0  0  0
  188.7270  177.3340  141.7590 C   0  0  0  0  0  0  0  0  0  0  0  0
  181.8760  179.3420  143.1830 C   0  0  0  0  0  3  0  0  0  0  0  0
  184.4480  178.2700  142.9120 C   0  0  0  0  0  0  0  0  0  0  0  0
  183.5790  178.2970  141.8150 C   0  0  0  0  0  3  0  0  0  0  0  0
  182.2950  178.8330  141.9500 C   0  0  0  0  0  3  0  0  0  0  0  0
  182.7390  179.3150  144.2810 C   0  0  0  0  0  3  0  0  0  0  0  0
  184.0230  178.7790  144.1480 C   0  0  0  0  0  3  0  0  0  0  0  0
  191.1440  176.4130  138.1690 C   0  0  0  0  0  1  0  0  0  0  0  0
  190.5300  177.6240  138.5820 O   0  0  0  0  0  0  0  0  0  0  0  0
  1 11  1  0  0  0  0
  2 15  2  0  0  0  0
  2  6  1  0  0  0  0
  3 15  1  0  0  0  0
  4 12  1  0  0  0  0
  5 12  2  0  0  0  0
  6 17  2  0  0  0  0
  7  5  1  0  0  0  0
  8  7  2  0  0  0  0
  8 10  1  0  0  0  0
  9 16  2  0  0  0  0
 10  4  2  0  0  0  0
 11 21  1  1  0  0  0
 11  2  1  0  0  0  0
 13 10  1  0  0  0  0
 13 17  1  0  0  0  0
 14  1  1  0  0  0  0
 14 19  2  0  0  0  0
 15 13  1  0  0  0  0
 16 19  1  0  0  0  0
 18  9  1  0  0  0  0
 18 14  1  0  0  0  0
 19  3  1  0  0  0  0
 20 24  1  0  0  0  0
 21 25  1  0  0  0  0
 22 23  1  0  0  0  0
 22 21  2  0  0  0  0
 23 20  2  0  0  0  0
 25 24  2  0  0  0  0
 26 27  1  0  0  0  0
 27  9  1  0  0  0  0
M  END
>  <MODEL>
9

>  <REMARK>
 VINA RESULT:      -8.8      2.987      7.024
  Name = 
  2 active torsions:
  status: ('A' for Active; 'I' for Inactive)
    1  A    between atoms: C_9  and  C_15
    2  A    between atoms: C_13  and  O_22
                            x       y       z     vdW  Elec       q    Type
                         _______ _______ _______ _____ _____    ______ ____

>  <TORSDO>
F 2

$$$$
