=
 OpenBabel11052414243D

 34 37  0  0  1  0  0  0  0  0999 V2000
  191.4980  176.5540  145.8870 C   0  0  2  0  0  3  0  0  0  0  0  0
  189.4030  176.7120  144.3910 C   0  0  2  0  0  3  0  0  0  0  0  0
  187.5900  177.3400  142.7310 C   0  0  1  0  0  3  0  0  0  0  0  0
  187.0660  177.2350  145.1990 C   0  0  0  0  0  2  0  0  0  0  0  0
  190.0530  177.0620  145.7580 C   0  0  2  0  0  3  0  0  0  0  0  0
  185.6270  177.4670  144.7220 C   0  0  0  0  0  2  0  0  0  0  0  0
  186.4120  178.2770  142.4410 C   0  0  0  0  0  2  0  0  0  0  0  0
  190.4240  176.8150  143.3210 N   0  0  2  0  0  0  0  0  0  0  0  0
  191.7420  175.3750  144.9580 C   0  0  0  0  0  2  0  0  0  0  0  0
  188.6850  177.5930  141.7230 C   0  0  0  0  0  2  0  0  0  0  0  0
  189.8370  176.6290  141.9770 C   0  0  1  0  0  3  0  0  0  0  0  0
  185.5600  178.5860  143.6830 C   0  0  1  0  0  3  0  0  0  0  0  0
  188.1380  177.5560  144.1400 C   0  0  1  0  0  3  0  0  0  0  0  0
  191.4220  175.7350  143.4980 C   0  0  0  0  0  2  0  0  0  0  0  0
  191.5070  176.5950  138.5690 C   0  0  0  0  0  0  0  0  0  0  0  0
  192.7400  177.1900  138.8480 C   0  0  0  0  0  3  0  0  0  0  0  0
  190.8620  176.8270  140.8950 C   0  0  0  0  0  0  0  0  0  0  0  0
  193.0370  177.6080  140.1490 C   0  0  0  0  0  3  0  0  0  0  0  0
  190.5690  176.4150  139.5900 C   0  0  0  0  0  3  0  0  0  0  0  0
  192.1000  177.4290  141.1710 C   0  0  0  0  0  3  0  0  0  0  0  0
  191.2180  176.1960  137.3070 F   0  0  0  0  0  0  0  0  0  0  0  0
  183.2530  179.3080  144.2880 O   0  0  0  0  0  1  0  0  0  0  0  0
  183.7340  178.7910  142.0690 C   0  0  0  0  0  0  0  0  0  0  0  0
  183.3340  178.6800  140.8330 C   0  0  0  0  0  0  0  0  0  0  0  0
  184.1440  178.8990  143.3050 C   0  0  0  0  0  0  0  0  0  0  0  0
  182.1430  177.8350  140.5190 C   0  0  0  0  0  2  0  0  0  0  0  0
  180.9370  178.3000  141.3140 C   0  0  0  0  0  1  0  0  0  0  0  0
  184.0950  179.3760  139.7530 C   0  0  0  0  0  2  0  0  0  0  0  0
  184.9050  178.3780  138.9460 C   0  0  0  0  0  1  0  0  0  0  0  0
  191.8060  176.1860  147.3020 C   0  0  0  0  0  0  0  0  0  0  0  0
  192.2250  177.1660  148.1900 O   0  0  0  0  0  1  0  0  0  0  0  0
  191.6890  174.9940  147.6940 O   0  0  0  0  0  0  0  0  0  0  0  0
  189.9110  178.4140  146.1520 O   0  0  0  0  0  0  0  0  0  0  0  0
  189.2350  178.4680  147.3830 C   0  0  0  0  0  1  0  0  0  0  0  0
  1 30  1  1  0  0  0
  2  5  1  0  0  0  0
  3 13  1  0  0  0  0
  5  1  1  0  0  0  0
  5 33  1  0  0  0  0
  6  4  1  0  0  0  0
  7  3  1  0  0  0  0
  7 12  1  0  0  0  0
  8 14  1  0  0  0  0
  8  2  1  0  0  0  0
  9  1  1  0  0  0  0
 10 11  1  0  0  0  0
 10  3  1  0  0  0  0
 11  8  1  0  0  0  0
 12  6  1  0  0  0  0
 13  2  1  0  0  0  0
 13  4  1  0  0  0  0
 14  9  1  0  0  0  0
 15 16  2  0  0  0  0
 15 19  1  0  0  0  0
 16 18  1  0  0  0  0
 17 20  1  0  0  0  0
 17 11  1  0  0  0  0
 18 20  2  0  0  0  0
 19 17  2  0  0  0  0
 21 15  1  0  0  0  0
 23 25  2  0  0  0  0
 24 23  2  0  0  0  0
 25 12  1  0  0  0  0
 25 22  1  0  0  0  0
 26 24  1  0  0  0  0
 26 27  1  0  0  0  0
 28 24  1  0  0  0  0
 29 28  1  0  0  0  0
 30 32  2  0  0  0  0
 30 31  1  0  0  0  0
 33 34  1  0  0  0  0
M  END
>  <MODEL>
1

>  <REMARK>
 VINA RESULT:      -8.5      0.000      0.000
  Name = 
  6 active torsions:
  status: ('A' for Active; 'I' for Inactive)
    1  A    between atoms: C_1  and  C_6
    2  A    between atoms: O_2  and  C_15
    3  A    between atoms: C_11  and  C_20
    4  A    between atoms: C_12  and  C_28
    5  A    between atoms: C_14  and  C_20
    6  A    between atoms: C_29  and  C_33
                            x       y       z     vdW  Elec       q    Type
                         _______ _______ _______ _____ _____    ______ ____

>  <TORSDO>
F 6

$$$$
=
 OpenBabel11052414243D

 34 37  0  0  1  0  0  0  0  0999 V2000
  187.9220  176.5430  135.6110 C   0  0  2  0  0  3  0  0  0  0  0  0
  189.2120  177.2440  137.7320 C   0  0  2  0  0  3  0  0  0  0  0  0
  190.5520  177.3760  139.8830 C   0  0  1  0  0  3  0  0  0  0  0  0
  188.1720  178.2180  139.8190 C   0  0  0  0  0  2  0  0  0  0  0  0
  187.8370  176.8720  137.1100 C   0  0  2  0  0  3  0  0  0  0  0  0
  188.4940  178.7040  141.2380 C   0  0  0  0  0  2  0  0  0  0  0  0
  190.5230  177.1790  141.4020 C   0  0  0  0  0  2  0  0  0  0  0  0
  190.2710  176.4080  137.1190 N   0  0  2  0  0  0  0  0  0  0  0  0
  189.1380  177.2030  134.9800 C   0  0  0  0  0  2  0  0  0  0  0  0
  191.5150  176.3890  139.2710 C   0  0  0  0  0  2  0  0  0  0  0  0
  191.5830  176.6150  137.7660 C   0  0  1  0  0  3  0  0  0  0  0  0
  189.2000  177.6190  142.0500 C   0  0  1  0  0  3  0  0  0  0  0  0
  189.1660  177.1770  139.2720 C   0  0  1  0  0  3  0  0  0  0  0  0
  190.4350  176.7970  135.7000 C   0  0  0  0  0  2  0  0  0  0  0  0
  194.7290  175.4050  136.0210 C   0  0  0  0  0  0  0  0  0  0  0  0
  194.6080  174.0170  136.1430 C   0  0  0  0  0  3  0  0  0  0  0  0
  192.6300  175.6960  137.1990 C   0  0  0  0  0  0  0  0  0  0  0  0
  193.5010  173.4660  136.7950 C   0  0  0  0  0  3  0  0  0  0  0  0
  193.7420  176.2430  136.5500 C   0  0  0  0  0  3  0  0  0  0  0  0
  192.5140  174.3030  137.3240 C   0  0  0  0  0  3  0  0  0  0  0  0
  195.8040  175.9380  135.3940 F   0  0  0  0  0  0  0  0  0  0  0  0
  190.5930  178.6730  143.8260 O   0  0  0  0  0  1  0  0  0  0  0  0
  188.4950  177.8320  144.3820 C   0  0  0  0  0  0  0  0  0  0  0  0
  187.5780  177.6150  145.2830 C   0  0  0  0  0  0  0  0  0  0  0  0
  189.4080  178.0450  143.4710 C   0  0  0  0  0  0  0  0  0  0  0  0
  187.9360  176.8820  146.5350 C   0  0  0  0  0  2  0  0  0  0  0  0
  188.9890  177.6470  147.3160 C   0  0  0  0  0  1  0  0  0  0  0  0
  186.1810  178.0780  145.0310 C   0  0  0  0  0  2  0  0  0  0  0  0
  185.6320  178.7970  146.2500 C   0  0  0  0  0  1  0  0  0  0  0  0
  186.6710  176.9540  134.9070 C   0  0  0  0  0  0  0  0  0  0  0  0
  185.7140  175.9980  134.5940 O   0  0  0  0  0  1  0  0  0  0  0  0
  186.4770  178.1590  134.5940 O   0  0  0  0  0  0  0  0  0  0  0  0
  187.0970  175.9110  137.8400 O   0  0  0  0  0  0  0  0  0  0  0  0
  187.2760  174.6470  137.2520 C   0  0  0  0  0  1  0  0  0  0  0  0
  1 30  1  6  0  0  0
  1  5  1  0  0  0  0
  2 13  1  0  0  0  0
  3  7  1  0  0  0  0
  4  6  1  0  0  0  0
  5  2  1  0  0  0  0
  5 33  1  0  0  0  0
  6 12  1  0  0  0  0
  7 12  1  0  0  0  0
  8  2  1  0  0  0  0
  8 11  1  0  0  0  0
  9  1  1  0  0  0  0
  9 14  1  0  0  0  0
 10  3  1  0  0  0  0
 11 10  1  0  0  0  0
 12 25  1  0  0  0  0
 13  4  1  0  0  0  0
 13  3  1  0  0  0  0
 14  8  1  0  0  0  0
 15 16  2  0  0  0  0
 15 19  1  0  0  0  0
 16 18  1  0  0  0  0
 17 20  1  0  0  0  0
 17 11  1  0  0  0  0
 18 20  2  0  0  0  0
 19 17  2  0  0  0  0
 21 15  1  0  0  0  0
 23 24  2  0  0  0  0
 24 26  1  0  0  0  0
 25 22  1  0  0  0  0
 25 23  2  0  0  0  0
 26 27  1  0  0  0  0
 28 24  1  0  0  0  0
 28 29  1  0  0  0  0
 31 30  1  0  0  0  0
 32 30  2  0  0  0  0
 34 33  1  0  0  0  0
M  END
>  <MODEL>
2

>  <REMARK>
 VINA RESULT:      -8.0      4.055      7.687
  Name = 
  6 active torsions:
  status: ('A' for Active; 'I' for Inactive)
    1  A    between atoms: C_1  and  C_6
    2  A    between atoms: O_2  and  C_15
    3  A    between atoms: C_11  and  C_20
    4  A    between atoms: C_12  and  C_28
    5  A    between atoms: C_14  and  C_20
    6  A    between atoms: C_29  and  C_33
                            x       y       z     vdW  Elec       q    Type
                         _______ _______ _______ _____ _____    ______ ____

>  <TORSDO>
F 6

$$$$
=
 OpenBabel11052414243D

 34 37  0  0  1  0  0  0  0  0999 V2000
  186.9510  177.5460  145.4510 C   0  0  2  0  0  3  0  0  0  0  0  0
  186.6890  178.3920  143.0290 C   0  0  2  0  0  3  0  0  0  0  0  0
  186.1040  178.7680  140.5890 C   0  0  1  0  0  3  0  0  0  0  0  0
  188.5020  178.3660  141.2680 C   0  0  0  0  0  2  0  0  0  0  0  0
  187.5130  177.5250  144.0200 C   0  0  2  0  0  3  0  0  0  0  0  0
  188.7860  178.6890  139.7960 C   0  0  0  0  0  2  0  0  0  0  0  0
  186.3550  178.3170  139.1460 C   0  0  0  0  0  2  0  0  0  0  0  0
  185.2490  178.2870  143.3630 N   0  0  2  0  0  0  0  0  0  0  0  0
  186.1360  178.8060  145.6940 C   0  0  0  0  0  2  0  0  0  0  0  0
  184.6670  178.4860  140.9530 C   0  0  0  0  0  2  0  0  0  0  0  0
  184.3990  178.9780  142.3710 C   0  0  1  0  0  3  0  0  0  0  0  0
  187.8220  177.9500  138.8690 C   0  0  1  0  0  3  0  0  0  0  0  0
  187.0270  178.0420  141.5660 C   0  0  1  0  0  3  0  0  0  0  0  0
  185.0030  178.9500  144.6630 C   0  0  0  0  0  2  0  0  0  0  0  0
  180.6820  178.4040  141.8630 C   0  0  0  0  0  0  0  0  0  0  0  0
  180.2090  178.4140  143.1790 C   0  0  0  0  0  3  0  0  0  0  0  0
  182.9380  178.7870  142.6670 C   0  0  0  0  0  0  0  0  0  0  0  0
  181.0970  178.6070  144.2410 C   0  0  0  0  0  3  0  0  0  0  0  0
  182.0450  178.5890  141.6080 C   0  0  0  0  0  3  0  0  0  0  0  0
  182.4600  178.7920  143.9870 C   0  0  0  0  0  3  0  0  0  0  0  0
  179.8210  178.2110  140.8350 F   0  0  0  0  0  0  0  0  0  0  0  0
  187.5850  179.2150  136.7360 O   0  0  0  0  0  1  0  0  0  0  0  0
  189.0170  177.3810  136.8120 C   0  0  0  0  0  0  0  0  0  0  0  0
  189.8620  176.5940  136.2060 C   0  0  0  0  0  0  0  0  0  0  0  0
  188.1730  178.1660  137.4280 C   0  0  0  0  0  0  0  0  0  0  0  0
  189.4560  175.9180  134.9370 C   0  0  0  0  0  2  0  0  0  0  0  0
  188.1350  175.1950  135.1180 C   0  0  0  0  0  1  0  0  0  0  0  0
  191.2060  176.3600  136.8110 C   0  0  0  0  0  2  0  0  0  0  0  0
  191.0720  175.9880  138.2760 C   0  0  0  0  0  1  0  0  0  0  0  0
  188.0520  177.4260  146.4540 C   0  0  0  0  0  0  0  0  0  0  0  0
  189.3010  177.9570  146.1680 O   0  0  0  0  0  0  0  0  0  0  0  0
  187.8550  176.8470  147.5560 O   0  0  0  0  0  1  0  0  0  0  0  0
  187.8000  176.2160  143.5650 O   0  0  0  0  0  0  0  0  0  0  0  0
  189.1880  176.0850  143.3820 C   0  0  0  0  0  1  0  0  0  0  0  0
  1  9  1  0  0  0  0
  1 30  1  1  0  0  0
  2  8  1  0  0  0  0
  2  5  1  0  0  0  0
  3 10  1  0  0  0  0
  3 13  1  0  0  0  0
  4 13  1  0  0  0  0
  5  1  1  0  0  0  0
  6  4  1  0  0  0  0
  7  3  1  0  0  0  0
  8 14  1  0  0  0  0
 10 11  1  0  0  0  0
 11 17  1  0  0  0  0
 11  8  1  0  0  0  0
 12  7  1  0  0  0  0
 12  6  1  0  0  0  0
 13  2  1  0  0  0  0
 14  9  1  0  0  0  0
 15 16  1  0  0  0  0
 16 18  2  0  0  0  0
 17 20  2  0  0  0  0
 19 15  2  0  0  0  0
 19 17  1  0  0  0  0
 20 18  1  0  0  0  0
 21 15  1  0  0  0  0
 22 25  1  0  0  0  0
 23 25  2  0  0  0  0
 24 28  1  0  0  0  0
 24 23  2  0  0  0  0
 25 12  1  0  0  0  0
 26 27  1  0  0  0  0
 26 24  1  0  0  0  0
 28 29  1  0  0  0  0
 30 32  1  0  0  0  0
 31 30  2  0  0  0  0
 33  5  1  0  0  0  0
 34 33  1  0  0  0  0
M  END
>  <MODEL>
3

>  <REMARK>
 VINA RESULT:      -8.0      3.459      7.359
  Name = 
  6 active torsions:
  status: ('A' for Active; 'I' for Inactive)
    1  A    between atoms: C_1  and  C_6
    2  A    between atoms: O_2  and  C_15
    3  A    between atoms: C_11  and  C_20
    4  A    between atoms: C_12  and  C_28
    5  A    between atoms: C_14  and  C_20
    6  A    between atoms: C_29  and  C_33
                            x       y       z     vdW  Elec       q    Type
                         _______ _______ _______ _____ _____    ______ ____

>  <TORSDO>
F 6

$$$$
=
 OpenBabel11052414243D

 34 37  0  0  1  0  0  0  0  0999 V2000
  192.4320  176.0490  138.6530 C   0  0  2  0  0  3  0  0  0  0  0  0
  190.3500  177.4270  139.3010 C   0  0  2  0  0  3  0  0  0  0  0  0
  188.1700  178.3230  140.2410 C   0  0  1  0  0  3  0  0  0  0  0  0
  188.4400  178.0060  137.7510 C   0  0  0  0  0  2  0  0  0  0  0  0
  190.9870  176.4310  138.2940 C   0  0  2  0  0  3  0  0  0  0  0  0
  187.0750  178.7020  137.6940 C   0  0  0  0  0  2  0  0  0  0  0  0
  186.6410  178.2620  140.1620 C   0  0  0  0  0  2  0  0  0  0  0  0
  190.8130  177.1030  140.6720 N   0  0  2  0  0  0  0  0  0  0  0  0
  193.0790  177.1270  139.5080 C   0  0  0  0  0  2  0  0  0  0  0  0
  188.6180  177.8220  141.5930 C   0  0  0  0  0  2  0  0  0  0  0  0
  190.1340  177.9280  141.6940 C   0  0  1  0  0  3  0  0  0  0  0  0
  186.1100  178.1190  138.7260 C   0  0  1  0  0  3  0  0  0  0  0  0
  188.8170  177.4770  139.1470 C   0  0  1  0  0  3  0  0  0  0  0  0
  192.2580  177.4040  140.7790 C   0  0  0  0  0  2  0  0  0  0  0  0
  191.6510  175.9560  144.5600 C   0  0  0  0  0  0  0  0  0  0  0  0
  191.3310  176.7570  145.6600 C   0  0  0  0  0  3  0  0  0  0  0  0
  190.5420  177.5280  143.0850 C   0  0  0  0  0  0  0  0  0  0  0  0
  190.6190  177.9470  145.4760 C   0  0  0  0  0  3  0  0  0  0  0  0
  191.2580  176.3420  143.2750 C   0  0  0  0  0  3  0  0  0  0  0  0
  190.2260  178.3340  144.1910 C   0  0  0  0  0  3  0  0  0  0  0  0
  192.3450  174.8070  144.7390 F   0  0  0  0  0  0  0  0  0  0  0  0
  184.4890  179.9700  139.1200 O   0  0  0  0  0  1  0  0  0  0  0  0
  183.7780  178.0600  137.9930 C   0  0  0  0  0  0  0  0  0  0  0  0
  182.8240  177.4050  137.3930 C   0  0  0  0  0  0  0  0  0  0  0  0
  184.7400  178.7100  138.5930 C   0  0  0  0  0  0  0  0  0  0  0  0
  181.5300  177.1730  138.1030 C   0  0  0  0  0  2  0  0  0  0  0  0
  181.7800  176.6340  139.5000 C   0  0  0  0  0  1  0  0  0  0  0  0
  183.0570  176.8720  136.0180 C   0  0  0  0  0  2  0  0  0  0  0  0
  184.3120  176.0190  135.9840 C   0  0  0  0  0  1  0  0  0  0  0  0
  193.2360  175.7980  137.4190 C   0  0  0  0  0  0  0  0  0  0  0  0
  193.9160  176.8480  136.8190 O   0  0  0  0  0  0  0  0  0  0  0  0
  193.3020  174.6430  136.9210 O   0  0  0  0  0  1  0  0  0  0  0  0
  190.1840  175.3050  137.9860 O   0  0  0  0  0  0  0  0  0  0  0  0
  190.0010  175.2350  136.5950 C   0  0  0  0  0  1  0  0  0  0  0  0
  1 30  1  6  0  0  0
  1  9  1  0  0  0  0
  2  8  1  0  0  0  0
  3 10  1  0  0  0  0
  4 13  1  0  0  0  0
  5  1  1  0  0  0  0
  5  2  1  0  0  0  0
  6  4  1  0  0  0  0
  6 12  1  0  0  0  0
  7  3  1  0  0  0  0
  8 14  1  0  0  0  0
  8 11  1  0  0  0  0
  9 14  1  0  0  0  0
 10 11  1  0  0  0  0
 11 17  1  0  0  0  0
 12  7  1  0  0  0  0
 13  2  1  0  0  0  0
 13  3  1  0  0  0  0
 15 21  1  0  0  0  0
 15 16  1  0  0  0  0
 17 19  1  0  0  0  0
 17 20  2  0  0  0  0
 18 16  2  0  0  0  0
 19 15  2  0  0  0  0
 20 18  1  0  0  0  0
 23 25  2  0  0  0  0
 24 23  2  0  0  0  0
 24 26  1  0  0  0  0
 25 12  1  0  0  0  0
 25 22  1  0  0  0  0
 26 27  1  0  0  0  0
 28 24  1  0  0  0  0
 29 28  1  0  0  0  0
 31 30  2  0  0  0  0
 32 30  1  0  0  0  0
 33  5  1  0  0  0  0
 34 33  1  0  0  0  0
M  END
>  <MODEL>
4

>  <REMARK>
 VINA RESULT:      -7.6      3.859      6.096
  Name = 
  6 active torsions:
  status: ('A' for Active; 'I' for Inactive)
    1  A    between atoms: C_1  and  C_6
    2  A    between atoms: O_2  and  C_15
    3  A    between atoms: C_11  and  C_20
    4  A    between atoms: C_12  and  C_28
    5  A    between atoms: C_14  and  C_20
    6  A    between atoms: C_29  and  C_33
                            x       y       z     vdW  Elec       q    Type
                         _______ _______ _______ _____ _____    ______ ____

>  <TORSDO>
F 6

$$$$
=
 OpenBabel11052414243D

 34 37  0  0  1  0  0  0  0  0999 V2000
  193.0020  175.9340  138.4690 C   0  0  2  0  0  3  0  0  0  0  0  0
  190.7370  177.1280  138.7880 C   0  0  2  0  0  3  0  0  0  0  0  0
  188.3980  177.8640  139.4400 C   0  0  1  0  0  3  0  0  0  0  0  0
  188.9310  177.3260  137.0310 C   0  0  0  0  0  2  0  0  0  0  0  0
  191.5650  176.1120  137.9530 C   0  0  2  0  0  3  0  0  0  0  0  0
  187.5120  177.8540  136.7860 C   0  0  0  0  0  2  0  0  0  0  0  0
  186.8980  177.6230  139.2440 C   0  0  0  0  0  2  0  0  0  0  0  0
  191.1010  177.0000  140.2190 N   0  0  2  0  0  0  0  0  0  0  0  0
  193.4510  177.1600  139.2490 C   0  0  0  0  0  2  0  0  0  0  0  0
  188.7670  177.5580  140.8710 C   0  0  0  0  0  2  0  0  0  0  0  0
  190.2490  177.8430  141.0830 C   0  0  1  0  0  3  0  0  0  0  0  0
  186.5210  177.2740  137.7950 C   0  0  1  0  0  3  0  0  0  0  0  0
  189.2280  176.9880  138.5040 C   0  0  1  0  0  3  0  0  0  0  0  0
  192.4910  177.4720  140.4090 C   0  0  0  0  0  2  0  0  0  0  0  0
  191.4730  176.2340  144.2950 C   0  0  0  0  0  0  0  0  0  0  0  0
  191.1790  177.2210  145.2400 C   0  0  0  0  0  3  0  0  0  0  0  0
  190.5640  177.6370  142.5390 C   0  0  0  0  0  0  0  0  0  0  0  0
  190.5790  178.4180  144.8380 C   0  0  0  0  0  3  0  0  0  0  0  0
  191.1680  176.4420  142.9470 C   0  0  0  0  0  3  0  0  0  0  0  0
  190.2730  178.6280  143.4900 C   0  0  0  0  0  3  0  0  0  0  0  0
  192.0590  175.0760  144.6850 F   0  0  0  0  0  0  0  0  0  0  0  0
  184.6220  177.5130  136.1990 O   0  0  0  0  0  1  0  0  0  0  0  0
  184.3490  178.2210  138.4000 C   0  0  0  0  0  0  0  0  0  0  0  0
  183.5910  178.7490  139.3210 C   0  0  0  0  0  0  0  0  0  0  0  0
  185.1150  177.6900  137.4850 C   0  0  0  0  0  0  0  0  0  0  0  0
  182.9420  180.0710  139.0700 C   0  0  0  0  0  2  0  0  0  0  0  0
  181.7720  179.9160  138.1150 C   0  0  0  0  0  1  0  0  0  0  0  0
  183.4140  178.0350  140.6200 C   0  0  0  0  0  2  0  0  0  0  0  0
  184.3140  178.6360  141.6840 C   0  0  0  0  0  1  0  0  0  0  0  0
  193.9390  175.6510  137.3410 C   0  0  0  0  0  0  0  0  0  0  0  0
  194.3890  174.3540  137.1330 O   0  0  0  0  0  1  0  0  0  0  0  0
  194.3240  176.5770  136.5790 O   0  0  0  0  0  0  0  0  0  0  0  0
  190.9150  174.8770  137.7090 O   0  0  0  0  0  0  0  0  0  0  0  0
  190.9610  174.5950  136.3330 C   0  0  0  0  0  1  0  0  0  0  0  0
  1 30  1  6  0  0  0
  1  9  1  0  0  0  0
  2  8  1  0  0  0  0
  3 10  1  0  0  0  0
  4 13  1  0  0  0  0
  5  1  1  0  0  0  0
  5  2  1  0  0  0  0
  6  4  1  0  0  0  0
  6 12  1  0  0  0  0
  7  3  1  0  0  0  0
  8 14  1  0  0  0  0
  8 11  1  0  0  0  0
  9 14  1  0  0  0  0
 10 11  1  0  0  0  0
 11 17  1  0  0  0  0
 12  7  1  0  0  0  0
 13  2  1  0  0  0  0
 13  3  1  0  0  0  0
 15 21  1  0  0  0  0
 15 16  1  0  0  0  0
 17 19  1  0  0  0  0
 17 20  2  0  0  0  0
 18 16  2  0  0  0  0
 19 15  2  0  0  0  0
 20 18  1  0  0  0  0
 22 25  1  0  0  0  0
 23 24  2  0  0  0  0
 24 28  1  0  0  0  0
 25 12  1  0  0  0  0
 25 23  2  0  0  0  0
 26 24  1  0  0  0  0
 27 26  1  0  0  0  0
 28 29  1  0  0  0  0
 31 30  1  0  0  0  0
 32 30  2  0  0  0  0
 33  5  1  0  0  0  0
 34 33  1  0  0  0  0
M  END
>  <MODEL>
5

>  <REMARK>
 VINA RESULT:      -7.4      4.001      6.393
  Name = 
  6 active torsions:
  status: ('A' for Active; 'I' for Inactive)
    1  A    between atoms: C_1  and  C_6
    2  A    between atoms: O_2  and  C_15
    3  A    between atoms: C_11  and  C_20
    4  A    between atoms: C_12  and  C_28
    5  A    between atoms: C_14  and  C_20
    6  A    between atoms: C_29  and  C_33
                            x       y       z     vdW  Elec       q    Type
                         _______ _______ _______ _____ _____    ______ ____

>  <TORSDO>
F 6

$$$$
=
 OpenBabel11052414243D

 34 37  0  0  1  0  0  0  0  0999 V2000
  188.2270  178.0220  146.7020 C   0  0  2  0  0  3  0  0  0  0  0  0
  186.3800  177.8190  144.9120 C   0  0  2  0  0  3  0  0  0  0  0  0
  184.8170  178.0730  142.9300 C   0  0  1  0  0  3  0  0  0  0  0  0
  183.9280  178.3040  145.2830 C   0  0  0  0  0  2  0  0  0  0  0  0
  186.7980  178.4100  146.2870 C   0  0  2  0  0  3  0  0  0  0  0  0
  182.5700  178.3680  144.5720 C   0  0  0  0  0  2  0  0  0  0  0  0
  183.6590  178.8780  142.3310 C   0  0  0  0  0  2  0  0  0  0  0  0
  187.5470  177.8260  143.9980 N   0  0  2  0  0  0  0  0  0  0  0  0
  188.6590  176.7360  146.0140 C   0  0  0  0  0  2  0  0  0  0  0  0
  186.0400  178.2430  142.0640 C   0  0  0  0  0  2  0  0  0  0  0  0
  187.1800  177.4050  142.6300 C   0  0  1  0  0  3  0  0  0  0  0  0
  182.6150  179.3130  143.3720 C   0  0  1  0  0  3  0  0  0  0  0  0
  185.1330  178.5320  144.3530 C   0  0  1  0  0  3  0  0  0  0  0  0
  188.5500  176.8520  144.4850 C   0  0  0  0  0  2  0  0  0  0  0  0
  189.3190  178.4130  139.6620 C   0  0  0  0  0  0  0  0  0  0  0  0
  190.5100  177.7270  139.9200 C   0  0  0  0  0  3  0  0  0  0  0  0
  188.3490  177.5040  141.6890 C   0  0  0  0  0  0  0  0  0  0  0  0
  190.6240  176.9310  141.0640 C   0  0  0  0  0  3  0  0  0  0  0  0
  188.2420  178.3030  140.5460 C   0  0  0  0  0  3  0  0  0  0  0  0
  189.5470  176.8200  141.9490 C   0  0  0  0  0  3  0  0  0  0  0  0
  189.2110  179.1880  138.5560 F   0  0  0  0  0  0  0  0  0  0  0  0
  180.4200  180.4810  143.2020 O   0  0  0  0  0  1  0  0  0  0  0  0
  180.8580  178.6810  141.7920 C   0  0  0  0  0  0  0  0  0  0  0  0
  180.4650  177.8850  140.8370 C   0  0  0  0  0  0  0  0  0  0  0  0
  181.2620  179.4740  142.7490 C   0  0  0  0  0  0  0  0  0  0  0  0
  179.1730  177.1480  140.9800 C   0  0  0  0  0  2  0  0  0  0  0  0
  179.3680  175.6720  140.6850 C   0  0  0  0  0  1  0  0  0  0  0  0
  181.3300  177.7030  139.6340 C   0  0  0  0  0  2  0  0  0  0  0  0
  181.6950  179.0490  139.0350 C   0  0  0  0  0  1  0  0  0  0  0  0
  188.3310  177.8900  148.1860 C   0  0  0  0  0  0  0  0  0  0  0  0
  189.3180  178.5870  148.8690 O   0  0  0  0  0  1  0  0  0  0  0  0
  187.5310  177.1520  148.8210 O   0  0  0  0  0  0  0  0  0  0  0  0
  186.5420  179.7940  146.4390 O   0  0  0  0  0  0  0  0  0  0  0  0
  185.9790  180.0230  147.7060 C   0  0  0  0  0  1  0  0  0  0  0  0
  1 30  1  1  0  0  0
  2  5  1  0  0  0  0
  3 13  1  0  0  0  0
  5 33  1  0  0  0  0
  5  1  1  0  0  0  0
  6  4  1  0  0  0  0
  7  3  1  0  0  0  0
  7 12  1  0  0  0  0
  8 14  1  0  0  0  0
  8  2  1  0  0  0  0
  9  1  1  0  0  0  0
 10 11  1  0  0  0  0
 10  3  1  0  0  0  0
 11  8  1  0  0  0  0
 12  6  1  0  0  0  0
 13  2  1  0  0  0  0
 13  4  1  0  0  0  0
 14  9  1  0  0  0  0
 15 16  2  0  0  0  0
 15 19  1  0  0  0  0
 16 18  1  0  0  0  0
 17 20  1  0  0  0  0
 17 11  1  0  0  0  0
 18 20  2  0  0  0  0
 19 17  2  0  0  0  0
 21 15  1  0  0  0  0
 23 25  2  0  0  0  0
 24 26  1  0  0  0  0
 24 23  2  0  0  0  0
 25 22  1  0  0  0  0
 25 12  1  0  0  0  0
 27 26  1  0  0  0  0
 28 24  1  0  0  0  0
 29 28  1  0  0  0  0
 30 32  2  0  0  0  0
 30 31  1  0  0  0  0
 33 34  1  0  0  0  0
M  END
>  <MODEL>
6

>  <REMARK>
 VINA RESULT:      -7.2      2.205      3.243
  Name = 
  6 active torsions:
  status: ('A' for Active; 'I' for Inactive)
    1  A    between atoms: C_1  and  C_6
    2  A    between atoms: O_2  and  C_15
    3  A    between atoms: C_11  and  C_20
    4  A    between atoms: C_12  and  C_28
    5  A    between atoms: C_14  and  C_20
    6  A    between atoms: C_29  and  C_33
                            x       y       z     vdW  Elec       q    Type
                         _______ _______ _______ _____ _____    ______ ____

>  <TORSDO>
F 6

$$$$
=
 OpenBabel11052414243D

 34 37  0  0  1  0  0  0  0  0999 V2000
  192.2750  176.3210  139.3390 C   0  0  2  0  0  3  0  0  0  0  0  0
  190.1250  177.6280  139.9090 C   0  0  2  0  0  3  0  0  0  0  0  0
  187.8730  178.4410  140.7470 C   0  0  1  0  0  3  0  0  0  0  0  0
  188.2990  178.2240  138.2680 C   0  0  0  0  0  2  0  0  0  0  0  0
  190.8450  176.6850  138.9070 C   0  0  2  0  0  3  0  0  0  0  0  0
  186.9230  178.8920  138.1540 C   0  0  0  0  0  2  0  0  0  0  0  0
  186.3530  178.3500  140.5730 C   0  0  0  0  0  2  0  0  0  0  0  0
  190.5130  177.2630  141.2930 N   0  0  2  0  0  0  0  0  0  0  0  0
  192.8430  177.3800  140.2710 C   0  0  0  0  0  2  0  0  0  0  0  0
  188.2500  177.9000  142.1040 C   0  0  0  0  0  2  0  0  0  0  0  0
  189.7550  178.0340  142.3010 C   0  0  1  0  0  3  0  0  0  0  0  0
  185.9120  178.2490  139.1030 C   0  0  1  0  0  3  0  0  0  0  0  0
  188.6040  177.6510  139.6640 C   0  0  1  0  0  3  0  0  0  0  0  0
  191.9420  177.5910  141.4990 C   0  0  0  0  0  2  0  0  0  0  0  0
  189.3610  177.1280  145.9650 C   0  0  0  0  0  0  0  0  0  0  0  0
  190.6640  176.7580  146.3110 C   0  0  0  0  0  3  0  0  0  0  0  0
  190.0870  177.5910  143.6990 C   0  0  0  0  0  0  0  0  0  0  0  0
  191.6810  176.8020  145.3520 C   0  0  0  0  0  3  0  0  0  0  0  0
  189.0730  177.5420  144.6610 C   0  0  0  0  0  3  0  0  0  0  0  0
  191.3940  177.2150  144.0480 C   0  0  0  0  0  3  0  0  0  0  0  0
  188.3760  177.0800  146.8940 F   0  0  0  0  0  0  0  0  0  0  0  0
  184.3360  180.1780  139.0770 O   0  0  0  0  0  1  0  0  0  0  0  0
  183.5300  178.0500  138.5870 C   0  0  0  0  0  0  0  0  0  0  0  0
  182.5300  177.2770  138.2650 C   0  0  0  0  0  0  0  0  0  0  0  0
  184.5390  178.8160  138.9080 C   0  0  0  0  0  0  0  0  0  0  0  0
  181.2940  177.2880  139.1040 C   0  0  0  0  0  2  0  0  0  0  0  0
  180.6780  175.9020  139.1610 C   0  0  0  0  0  1  0  0  0  0  0  0
  182.6540  176.3750  137.0820 C   0  0  0  0  0  2  0  0  0  0  0  0
  183.2120  177.1330  135.8920 C   0  0  0  0  0  1  0  0  0  0  0  0
  193.1570  176.1340  138.1490 C   0  0  0  0  0  0  0  0  0  0  0  0
  193.5320  174.8530  137.7670 O   0  0  0  0  0  1  0  0  0  0  0  0
  193.5640  177.1280  137.4890 O   0  0  0  0  0  0  0  0  0  0  0  0
  190.0900  175.5540  138.5110 O   0  0  0  0  0  0  0  0  0  0  0  0
  190.1140  175.4510  137.1090 C   0  0  0  0  0  1  0  0  0  0  0  0
  1 30  1  6  0  0  0
  1  9  1  0  0  0  0
  2  8  1  0  0  0  0
  3 10  1  0  0  0  0
  4 13  1  0  0  0  0
  5  1  1  0  0  0  0
  5  2  1  0  0  0  0
  6  4  1  0  0  0  0
  6 12  1  0  0  0  0
  7  3  1  0  0  0  0
  8 14  1  0  0  0  0
  8 11  1  0  0  0  0
  9 14  1  0  0  0  0
 10 11  1  0  0  0  0
 11 17  1  0  0  0  0
 12  7  1  0  0  0  0
 13  2  1  0  0  0  0
 13  3  1  0  0  0  0
 15 16  1  0  0  0  0
 15 21  1  0  0  0  0
 17 20  2  0  0  0  0
 17 19  1  0  0  0  0
 18 16  2  0  0  0  0
 19 15  2  0  0  0  0
 20 18  1  0  0  0  0
 23 25  2  0  0  0  0
 24 23  2  0  0  0  0
 24 26  1  0  0  0  0
 25 22  1  0  0  0  0
 25 12  1  0  0  0  0
 26 27  1  0  0  0  0
 28 24  1  0  0  0  0
 29 28  1  0  0  0  0
 31 30  1  0  0  0  0
 32 30  2  0  0  0  0
 33  5  1  0  0  0  0
 34 33  1  0  0  0  0
M  END
>  <MODEL>
7

>  <REMARK>
 VINA RESULT:      -7.2      3.754      5.967
  Name = 
  6 active torsions:
  status: ('A' for Active; 'I' for Inactive)
    1  A    between atoms: C_1  and  C_6
    2  A    between atoms: O_2  and  C_15
    3  A    between atoms: C_11  and  C_20
    4  A    between atoms: C_12  and  C_28
    5  A    between atoms: C_14  and  C_20
    6  A    between atoms: C_29  and  C_33
                            x       y       z     vdW  Elec       q    Type
                         _______ _______ _______ _____ _____    ______ ____

>  <TORSDO>
F 6

$$$$
=
 OpenBabel11052414243D

 34 37  0  0  1  0  0  0  0  0999 V2000
  181.2930  179.4270  139.7210 C   0  0  2  0  0  3  0  0  0  0  0  0
  183.6490  179.2760  140.7600 C   0  0  2  0  0  3  0  0  0  0  0  0
  185.9490  178.5970  141.5880 C   0  0  1  0  0  3  0  0  0  0  0  0
  184.1580  179.2710  143.2350 C   0  0  0  0  0  2  0  0  0  0  0  0
  182.1200  179.1180  140.9800 C   0  0  2  0  0  3  0  0  0  0  0  0
  185.3000  179.1590  144.2520 C   0  0  0  0  0  2  0  0  0  0  0  0
  186.7280  177.8020  142.6420 C   0  0  0  0  0  2  0  0  0  0  0  0
  184.0000  178.8140  139.3960 N   0  0  2  0  0  0  0  0  0  0  0  0
  182.0590  180.3470  138.7840 C   0  0  0  0  0  2  0  0  0  0  0  0
  186.1940  177.9910  140.2280 C   0  0  0  0  0  2  0  0  0  0  0  0
  185.4610  178.8090  139.1720 C   0  0  1  0  0  3  0  0  0  0  0  0
  186.1040  177.8750  144.0450 C   0  0  1  0  0  3  0  0  0  0  0  0
  184.4510  178.5920  141.8850 C   0  0  1  0  0  3  0  0  0  0  0  0
  183.4250  179.7510  138.4040 C   0  0  0  0  0  2  0  0  0  0  0  0
  185.3080  176.7280  136.0010 C   0  0  0  0  0  0  0  0  0  0  0  0
  186.4210  177.1970  135.2970 C   0  0  0  0  0  3  0  0  0  0  0  0
  185.8100  178.2510  137.8200 C   0  0  0  0  0  0  0  0  0  0  0  0
  187.2290  178.1960  135.8500 C   0  0  0  0  0  3  0  0  0  0  0  0
  185.0030  177.2550  137.2600 C   0  0  0  0  0  3  0  0  0  0  0  0
  186.9240  178.7240  137.1080 C   0  0  0  0  0  3  0  0  0  0  0  0
  184.5230  175.7650  135.4620 F   0  0  0  0  0  0  0  0  0  0  0  0
  186.7790  177.8340  146.4440 O   0  0  0  0  0  1  0  0  0  0  0  0
  188.3850  177.4310  144.8070 C   0  0  0  0  0  0  0  0  0  0  0  0
  189.6220  177.1610  144.4940 C   0  0  0  0  0  0  0  0  0  0  0  0
  187.1430  177.7010  145.1110 C   0  0  0  0  0  0  0  0  0  0  0  0
  190.7190  178.0330  145.0140 C   0  0  0  0  0  2  0  0  0  0  0  0
  190.9580  179.2020  144.0750 C   0  0  0  0  0  1  0  0  0  0  0  0
  189.9130  176.0040  143.5980 C   0  0  0  0  0  2  0  0  0  0  0  0
  190.1210  176.4770  142.1710 C   0  0  0  0  0  1  0  0  0  0  0  0
  179.9730  180.0230  140.0870 C   0  0  0  0  0  0  0  0  0  0  0  0
  179.8700  180.8170  141.2210 O   0  0  0  0  0  1  0  0  0  0  0  0
  178.9550  179.8120  139.3760 O   0  0  0  0  0  0  0  0  0  0  0  0
  181.7330  177.9080  141.6050 O   0  0  0  0  0  0  0  0  0  0  0  0
  181.2310  177.0260  140.6320 C   0  0  0  0  0  1  0  0  0  0  0  0
  1 30  1  1  0  0  0
  1  5  1  0  0  0  0
  2  5  1  0  0  0  0
  2 13  1  0  0  0  0
  3 13  1  0  0  0  0
  3  7  1  0  0  0  0
  4  6  1  0  0  0  0
  5 33  1  0  0  0  0
  7 12  1  0  0  0  0
  8  2  1  0  0  0  0
  9  1  1  0  0  0  0
 10  3  1  0  0  0  0
 11  8  1  0  0  0  0
 11 10  1  0  0  0  0
 12  6  1  0  0  0  0
 12 25  1  0  0  0  0
 13  4  1  0  0  0  0
 14  9  1  0  0  0  0
 14  8  1  0  0  0  0
 15 19  1  0  0  0  0
 16 18  1  0  0  0  0
 16 15  2  0  0  0  0
 17 11  1  0  0  0  0
 18 20  2  0  0  0  0
 19 17  2  0  0  0  0
 20 17  1  0  0  0  0
 21 15  1  0  0  0  0
 23 25  2  0  0  0  0
 24 23  2  0  0  0  0
 24 26  1  0  0  0  0
 25 22  1  0  0  0  0
 27 26  1  0  0  0  0
 28 24  1  0  0  0  0
 29 28  1  0  0  0  0
 30 31  1  0  0  0  0
 32 30  2  0  0  0  0
 34 33  1  0  0  0  0
M  END
>  <MODEL>
8

>  <REMARK>
 VINA RESULT:      -7.2      2.996      8.259
  Name = 
  6 active torsions:
  status: ('A' for Active; 'I' for Inactive)
    1  A    between atoms: C_1  and  C_6
    2  A    between atoms: O_2  and  C_15
    3  A    between atoms: C_11  and  C_20
    4  A    between atoms: C_12  and  C_28
    5  A    between atoms: C_14  and  C_20
    6  A    between atoms: C_29  and  C_33
                            x       y       z     vdW  Elec       q    Type
                         _______ _______ _______ _____ _____    ______ ____

>  <TORSDO>
F 6

$$$$
=
 OpenBabel11052414243D

 34 37  0  0  1  0  0  0  0  0999 V2000
  191.2620  176.8400  139.8700 C   0  0  2  0  0  3  0  0  0  0  0  0
  189.4170  177.7600  141.4200 C   0  0  2  0  0  3  0  0  0  0  0  0
  187.5620  178.1270  143.1120 C   0  0  1  0  0  3  0  0  0  0  0  0
  187.1550  178.5940  140.6640 C   0  0  0  0  0  2  0  0  0  0  0  0
  189.7700  177.1740  140.0260 C   0  0  2  0  0  3  0  0  0  0  0  0
  185.8170  179.1440  141.1750 C   0  0  0  0  0  2  0  0  0  0  0  0
  186.0690  177.9500  143.4070 C   0  0  0  0  0  2  0  0  0  0  0  0
  190.2360  177.0880  142.4570 N   0  0  2  0  0  0  0  0  0  0  0  0
  192.1040  177.6700  140.8260 C   0  0  0  0  0  2  0  0  0  0  0  0
  188.3630  177.2910  144.0800 C   0  0  0  0  0  2  0  0  0  0  0  0
  189.8490  177.5030  143.8220 C   0  0  1  0  0  3  0  0  0  0  0  0
  185.1730  178.1910  142.1820 C   0  0  1  0  0  3  0  0  0  0  0  0
  187.8990  177.7100  141.6820 C   0  0  1  0  0  3  0  0  0  0  0  0
  191.6540  177.4770  142.2840 C   0  0  0  0  0  2  0  0  0  0  0  0
  192.1030  174.9180  145.4480 C   0  0  0  0  0  0  0  0  0  0  0  0
  192.0820  175.3210  146.7860 C   0  0  0  0  0  3  0  0  0  0  0  0
  190.6210  176.7470  144.8680 C   0  0  0  0  0  0  0  0  0  0  0  0
  191.3340  176.4380  147.1690 C   0  0  0  0  0  3  0  0  0  0  0  0
  191.3750  175.6310  144.4900 C   0  0  0  0  0  3  0  0  0  0  0  0
  190.6050  177.1520  146.2130 C   0  0  0  0  0  3  0  0  0  0  0  0
  192.8330  173.8390  145.0770 F   0  0  0  0  0  0  0  0  0  0  0  0
  183.6170  179.1440  143.8790 O   0  0  0  0  0  1  0  0  0  0  0  0
  182.8040  178.6290  141.7580 C   0  0  0  0  0  0  0  0  0  0  0  0
  181.8060  178.5910  140.9210 C   0  0  0  0  0  0  0  0  0  0  0  0
  183.8110  178.6640  142.5900 C   0  0  0  0  0  0  0  0  0  0  0  0
  180.5460  177.8870  141.3100 C   0  0  0  0  0  2  0  0  0  0  0  0
  179.6370  178.8180  142.0910 C   0  0  0  0  0  1  0  0  0  0  0  0
  181.9530  179.2250  139.5770 C   0  0  0  0  0  2  0  0  0  0  0  0
  183.2300  178.7530  138.9050 C   0  0  0  0  0  1  0  0  0  0  0  0
  191.7070  177.0450  138.4590 C   0  0  0  0  0  0  0  0  0  0  0  0
  190.8050  177.5210  137.5180 O   0  0  0  0  0  0  0  0  0  0  0  0
  192.8920  176.7890  138.1160 O   0  0  0  0  0  1  0  0  0  0  0  0
  188.9260  176.1210  139.5950 O   0  0  0  0  0  0  0  0  0  0  0  0
  188.3550  176.4640  138.3580 C   0  0  0  0  0  1  0  0  0  0  0  0
  1 30  1  6  0  0  0
  1  5  1  0  0  0  0
  1  9  1  0  0  0  0
  2 13  1  0  0  0  0
  2  8  1  0  0  0  0
  3  7  1  0  0  0  0
  3 10  1  0  0  0  0
  4  6  1  0  0  0  0
  4 13  1  0  0  0  0
  5  2  1  0  0  0  0
  6 12  1  0  0  0  0
  8 11  1  0  0  0  0
  9 14  1  0  0  0  0
 11 10  1  0  0  0  0
 11 17  1  0  0  0  0
 12 25  1  0  0  0  0
 12  7  1  0  0  0  0
 13  3  1  0  0  0  0
 14  8  1  0  0  0  0
 15 16  1  0  0  0  0
 16 18  2  0  0  0  0
 17 20  2  0  0  0  0
 19 17  1  0  0  0  0
 19 15  2  0  0  0  0
 20 18  1  0  0  0  0
 21 15  1  0  0  0  0
 23 25  2  0  0  0  0
 24 26  1  0  0  0  0
 24 23  2  0  0  0  0
 25 22  1  0  0  0  0
 26 27  1  0  0  0  0
 28 24  1  0  0  0  0
 29 28  1  0  0  0  0
 31 30  2  0  0  0  0
 32 30  1  0  0  0  0
 33  5  1  0  0  0  0
 34 33  1  0  0  0  0
M  END
>  <MODEL>
9

>  <REMARK>
 VINA RESULT:      -7.1      3.011      5.197
  Name = 
  6 active torsions:
  status: ('A' for Active; 'I' for Inactive)
    1  A    between atoms: C_1  and  C_6
    2  A    between atoms: O_2  and  C_15
    3  A    between atoms: C_11  and  C_20
    4  A    between atoms: C_12  and  C_28
    5  A    between atoms: C_14  and  C_20
    6  A    between atoms: C_29  and  C_33
                            x       y       z     vdW  Elec       q    Type
                         _______ _______ _______ _____ _____    ______ ____

>  <TORSDO>
F 6

$$$$
