=
 OpenBabel11052413573D

 34 39  0  0  1  0  0  0  0  0999 V2000
  190.2400  177.1350  145.3970 C   0  0  0  0  0  0  0  0  0  0  0  0
  188.0850  178.2900  145.8170 C   0  0  0  0  0  3  0  0  0  0  0  0
  188.9060  177.7340  143.4300 C   0  0  0  0  0  0  0  0  0  0  0  0
  187.5430  177.9720  141.4490 C   0  0  0  0  0  0  0  0  0  0  0  0
  189.5410  176.2740  147.6090 C   0  0  0  0  0  3  0  0  0  0  0  0
  188.2700  176.6590  147.7060 C   0  0  0  0  0  3  0  0  0  0  0  0
  186.4420  178.3040  143.4610 C   0  0  0  0  0  3  0  0  0  0  0  0
  189.1100  177.6980  144.9170 C   0  0  0  0  0  0  0  0  0  0  0  0
  185.9740  178.3050  140.9590 S   0  0  0  0  0  0  0  0  0  0  0  0
  190.5560  177.0690  146.8570 C   0  0  0  0  0  2  0  0  0  0  0  0
  189.9920  177.4120  142.5710 C   0  0  0  0  0  0  0  0  0  0  0  0
  191.1900  176.6150  144.5160 O   0  0  0  0  0  0  0  0  0  0  0  0
  187.7110  177.8360  147.0200 C   0  0  0  0  0  3  0  0  0  0  0  0
  188.5830  177.6860  140.6370 N   0  0  0  0  0  0  0  0  0  0  0  0
  189.8160  177.4170  141.1540 C   0  0  0  0  0  0  0  0  0  0  0  0
  185.4150  178.4990  142.5430 C   0  0  0  0  0  0  0  0  0  0  0  0
  187.6600  178.0090  142.8270 C   0  0  0  0  0  0  0  0  0  0  0  0
  191.3280  177.1040  143.1860 C   0  0  0  0  0  2  0  0  0  0  0  0
  191.7520  176.0940  138.1570 C   0  0  0  0  0  0  0  0  0  0  0  0
  193.0420  176.5340  138.4560 C   0  0  0  0  0  3  0  0  0  0  0  0
  190.9120  177.1270  140.1940 C   0  0  0  0  0  0  0  0  0  0  0  0
  193.2760  177.2630  139.6260 C   0  0  0  0  0  3  0  0  0  0  0  0
  190.6950  176.3830  139.0240 C   0  0  0  0  0  3  0  0  0  0  0  0
  192.2170  177.5530  140.4910 C   0  0  0  0  0  3  0  0  0  0  0  0
  191.5250  175.3810  137.0270 F   0  0  0  0  0  0  0  0  0  0  0  0
  183.1260  178.7320  142.0660 N   0  0  0  0  0  0  0  0  0  0  0  0
  184.0720  178.8120  142.9100 N   0  0  0  0  0  0  0  0  0  0  0  0
  180.8270  179.0360  140.1350 C   0  0  0  0  0  1  0  0  0  0  0  0
  181.7620  179.0540  142.4530 C   0  0  1  0  0  3  0  0  0  0  0  0
  180.7740  178.3770  141.4990 C   0  0  1  0  0  3  0  0  0  0  0  0
  179.2860  177.9040  143.3320 O   0  0  0  0  0  0  0  0  0  0  0  0
  180.0200  178.7240  144.2070 C   0  0  0  0  0  2  0  0  0  0  0  0
  181.5110  178.6070  143.8950 C   0  0  0  0  0  2  0  0  0  0  0  0
  179.3580  178.5050  142.0620 C   0  0  0  0  0  2  0  0  0  0  0  0
  1 10  1  0  0  0  0
  2 13  2  0  0  0  0
  3  8  1  0  0  0  0
  4 17  2  0  0  0  0
  5  6  2  0  0  0  0
  8  1  2  0  0  0  0
  8  2  1  0  0  0  0
  9  4  1  0  0  0  0
  9 16  1  0  0  0  0
 10  5  1  0  0  0  0
 11 18  1  0  0  0  0
 11  3  2  0  0  0  0
 12  1  1  0  0  0  0
 13  6  1  0  0  0  0
 14 15  2  0  0  0  0
 14  4  1  0  0  0  0
 15 11  1  0  0  0  0
 16 27  1  0  0  0  0
 16  7  2  0  0  0  0
 17  3  1  0  0  0  0
 17  7  1  0  0  0  0
 18 12  1  0  0  0  0
 19 20  2  0  0  0  0
 19 23  1  0  0  0  0
 20 22  1  0  0  0  0
 21 24  1  0  0  0  0
 21 15  1  0  0  0  0
 22 24  2  0  0  0  0
 23 21  2  0  0  0  0
 25 19  1  0  0  0  0
 26 27  2  0  0  0  0
 29 26  1  6  0  0  0
 29 33  1  0  0  0  0
 30 28  1  6  0  0  0
 30 34  1  0  0  0  0
 30 29  1  0  0  0  0
 31 32  1  0  0  0  0
 33 32  1  0  0  0  0
 34 31  1  0  0  0  0
M  END
>  <MODEL>
1

>  <REMARK>
 VINA RESULT:     -10.1      0.000      0.000
  Name = 
  3 active torsions:
  status: ('A' for Active; 'I' for Inactive)
    1  A    between atoms: N_3  and  C_13
    2  A    between atoms: C_12  and  C_28
    3  A    between atoms: N_17  and  C_29
                            x       y       z     vdW  Elec       q    Type
                         _______ _______ _______ _____ _____    ______ ____

>  <TORSDO>
F 3

$$$$
=
 OpenBabel11052413573D

 34 39  0  0  1  0  0  0  0  0999 V2000
  188.5860  177.1340  145.3720 C   0  0  0  0  0  0  0  0  0  0  0  0
  190.2050  176.3960  143.6450 C   0  0  0  0  0  3  0  0  0  0  0  0
  187.9240  177.4460  143.0330 C   0  0  0  0  0  0  0  0  0  0  0  0
  187.3040  178.1030  140.7910 C   0  0  0  0  0  0  0  0  0  0  0  0
  190.7820  177.4290  146.4720 C   0  0  0  0  0  3  0  0  0  0  0  0
  191.6510  177.3140  145.4700 C   0  0  0  0  0  3  0  0  0  0  0  0
  189.5060  177.4330  141.0590 C   0  0  0  0  0  3  0  0  0  0  0  0
  188.9120  176.9940  144.0690 C   0  0  0  0  0  0  0  0  0  0  0  0
  187.9310  178.2750  139.2460 S   0  0  0  0  0  0  0  0  0  0  0  0
  189.4830  176.6950  146.4850 C   0  0  0  0  0  2  0  0  0  0  0  0
  186.5980  177.7680  143.4300 C   0  0  0  0  0  0  0  0  0  0  0  0
  187.3490  177.6760  145.7280 O   0  0  0  0  0  0  0  0  0  0  0  0
  191.3950  176.5410  144.2420 C   0  0  0  0  0  3  0  0  0  0  0  0
  186.0390  178.3880  141.1710 N   0  0  0  0  0  0  0  0  0  0  0  0
  185.6470  178.2210  142.4660 C   0  0  0  0  0  0  0  0  0  0  0  0
  189.4700  177.7440  139.7040 C   0  0  0  0  0  0  0  0  0  0  0  0
  188.2600  177.6360  141.6750 C   0  0  0  0  0  0  0  0  0  0  0  0
  186.2150  177.5860  144.8710 C   0  0  0  0  0  2  0  0  0  0  0  0
  181.9130  178.8860  142.1580 C   0  0  0  0  0  0  0  0  0  0  0  0
  181.5950  179.2400  143.4710 C   0  0  0  0  0  3  0  0  0  0  0  0
  184.2350  178.5410  142.7990 C   0  0  0  0  0  0  0  0  0  0  0  0
  182.5920  179.2530  144.4490 C   0  0  0  0  0  3  0  0  0  0  0  0
  183.2260  178.5460  141.8230 C   0  0  0  0  0  3  0  0  0  0  0  0
  183.9050  178.9110  144.1140 C   0  0  0  0  0  3  0  0  0  0  0  0
  180.9480  178.8790  141.2060 F   0  0  0  0  0  0  0  0  0  0  0  0
  190.7590  176.6060  138.1020 N   0  0  0  0  0  0  0  0  0  0  0  0
  190.5940  177.6310  138.8330 N   0  0  0  0  0  0  0  0  0  0  0  0
  193.6310  176.5910  139.0300 C   0  0  0  0  0  1  0  0  0  0  0  0
  191.9090  176.5040  137.2200 C   0  0  1  0  0  3  0  0  0  0  0  0
  193.0400  175.7450  137.9190 C   0  0  1  0  0  3  0  0  0  0  0  0
  193.6090  174.6360  135.8590 O   0  0  0  0  0  0  0  0  0  0  0  0
  192.7640  175.4780  135.1130 C   0  0  0  0  0  2  0  0  0  0  0  0
  191.5080  175.7970  135.9220 C   0  0  0  0  0  2  0  0  0  0  0  0
  194.1360  175.4180  136.9030 C   0  0  0  0  0  2  0  0  0  0  0  0
  1 12  1  0  0  0  0
  1 10  1  0  0  0  0
  2  8  1  0  0  0  0
  2 13  2  0  0  0  0
  3 11  1  0  0  0  0
  3  8  1  0  0  0  0
  4 14  2  0  0  0  0
  4 17  1  0  0  0  0
  5 10  1  0  0  0  0
  6  5  2  0  0  0  0
  7 17  1  0  0  0  0
  8  1  2  0  0  0  0
  9 16  1  0  0  0  0
  9  4  1  0  0  0  0
 11 18  1  0  0  0  0
 13  6  1  0  0  0  0
 14 15  1  0  0  0  0
 15 21  1  0  0  0  0
 15 11  2  0  0  0  0
 16  7  2  0  0  0  0
 17  3  2  0  0  0  0
 18 12  1  0  0  0  0
 19 20  1  0  0  0  0
 20 22  2  0  0  0  0
 21 24  2  0  0  0  0
 23 19  2  0  0  0  0
 23 21  1  0  0  0  0
 24 22  1  0  0  0  0
 25 19  1  0  0  0  0
 26 27  2  0  0  0  0
 27 16  1  0  0  0  0
 29 30  1  0  0  0  0
 29 26  1  1  0  0  0
 30 28  1  1  0  0  0
 31 34  1  0  0  0  0
 32 31  1  0  0  0  0
 32 33  1  0  0  0  0
 33 29  1  0  0  0  0
 34 30  1  0  0  0  0
M  END
>  <MODEL>
2

>  <REMARK>
 VINA RESULT:      -9.6      3.107      8.648
  Name = 
  3 active torsions:
  status: ('A' for Active; 'I' for Inactive)
    1  A    between atoms: N_3  and  C_13
    2  A    between atoms: C_12  and  C_28
    3  A    between atoms: N_17  and  C_29
                            x       y       z     vdW  Elec       q    Type
                         _______ _______ _______ _____ _____    ______ ____

>  <TORSDO>
F 3

$$$$
=
 OpenBabel11052413573D

 34 39  0  0  1  0  0  0  0  0999 V2000
  184.3790  178.5180  142.2390 C   0  0  0  0  0  0  0  0  0  0  0  0
  185.5110  178.8220  140.0530 C   0  0  0  0  0  3  0  0  0  0  0  0
  186.8110  178.2130  142.2020 C   0  0  0  0  0  0  0  0  0  0  0  0
  189.1400  177.5670  142.2280 C   0  0  0  0  0  0  0  0  0  0  0  0
  182.6530  177.8560  140.5950 C   0  0  0  0  0  3  0  0  0  0  0  0
  183.3350  177.7390  139.4570 C   0  0  0  0  0  3  0  0  0  0  0  0
  188.1950  177.8010  140.1260 C   0  0  0  0  0  3  0  0  0  0  0  0
  185.5150  178.5170  141.5080 C   0  0  0  0  0  0  0  0  0  0  0  0
  190.4150  177.1880  141.2080 S   0  0  0  0  0  0  0  0  0  0  0  0
  183.0390  178.8320  141.6550 C   0  0  0  0  0  2  0  0  0  0  0  0
  186.8490  178.1840  143.6230 C   0  0  0  0  0  0  0  0  0  0  0  0
  184.4310  178.2540  143.6090 O   0  0  0  0  0  0  0  0  0  0  0  0
  184.5750  178.4770  139.1600 C   0  0  0  0  0  3  0  0  0  0  0  0
  189.1750  177.5610  143.5780 N   0  0  0  0  0  0  0  0  0  0  0  0
  188.0640  177.8750  144.3050 C   0  0  0  0  0  0  0  0  0  0  0  0
  189.4970  177.4280  139.8090 C   0  0  0  0  0  0  0  0  0  0  0  0
  187.9990  177.8840  141.5140 C   0  0  0  0  0  0  0  0  0  0  0  0
  185.5970  178.5190  144.3820 C   0  0  0  0  0  2  0  0  0  0  0  0
  189.5140  177.6570  147.8170 C   0  0  0  0  0  0  0  0  0  0  0  0
  188.3560  177.7540  148.5910 C   0  0  0  0  0  3  0  0  0  0  0  0
  188.1890  177.8610  145.7850 C   0  0  0  0  0  0  0  0  0  0  0  0
  187.1130  177.8960  147.9690 C   0  0  0  0  0  3  0  0  0  0  0  0
  189.4300  177.7030  146.4230 C   0  0  0  0  0  3  0  0  0  0  0  0
  187.0300  177.9440  146.5740 C   0  0  0  0  0  3  0  0  0  0  0  0
  190.7200  177.5130  148.4180 F   0  0  0  0  0  0  0  0  0  0  0  0
  190.5590  176.1990  138.1110 N   0  0  0  0  0  0  0  0  0  0  0  0
  189.9730  177.2660  138.4740 N   0  0  0  0  0  0  0  0  0  0  0  0
  193.4580  176.3790  137.2890 C   0  0  0  0  0  1  0  0  0  0  0  0
  191.0400  176.0470  136.7480 C   0  0  1  0  0  3  0  0  0  0  0  0
  192.4300  175.4030  136.7510 C   0  0  1  0  0  3  0  0  0  0  0  0
  191.8670  174.1100  134.8000 O   0  0  0  0  0  0  0  0  0  0  0  0
  190.6830  174.8410  134.5940 C   0  0  0  0  0  2  0  0  0  0  0  0
  190.0550  175.1980  135.9400 C   0  0  0  0  0  2  0  0  0  0  0  0
  192.8110  175.0130  135.3220 C   0  0  0  0  0  2  0  0  0  0  0  0
  1 12  1  0  0  0  0
  2  8  1  0  0  0  0
  3 11  1  0  0  0  0
  4 14  2  0  0  0  0
  5 10  1  0  0  0  0
  6  5  2  0  0  0  0
  7 17  1  0  0  0  0
  8  3  1  0  0  0  0
  8  1  2  0  0  0  0
  9  4  1  0  0  0  0
 10  1  1  0  0  0  0
 11 15  2  0  0  0  0
 11 18  1  0  0  0  0
 12 18  1  0  0  0  0
 13  6  1  0  0  0  0
 13  2  2  0  0  0  0
 14 15  1  0  0  0  0
 15 21  1  0  0  0  0
 16  7  2  0  0  0  0
 16  9  1  0  0  0  0
 17  3  2  0  0  0  0
 17  4  1  0  0  0  0
 19 25  1  0  0  0  0
 19 20  1  0  0  0  0
 21 23  1  0  0  0  0
 21 24  2  0  0  0  0
 22 20  2  0  0  0  0
 23 19  2  0  0  0  0
 24 22  1  0  0  0  0
 26 27  2  0  0  0  0
 27 16  1  0  0  0  0
 29 30  1  0  0  0  0
 29 26  1  1  0  0  0
 30 28  1  6  0  0  0
 31 34  1  0  0  0  0
 32 31  1  0  0  0  0
 32 33  1  0  0  0  0
 33 29  1  0  0  0  0
 34 30  1  0  0  0  0
M  END
>  <MODEL>
3

>  <REMARK>
 VINA RESULT:      -9.6      3.460      8.981
  Name = 
  3 active torsions:
  status: ('A' for Active; 'I' for Inactive)
    1  A    between atoms: N_3  and  C_13
    2  A    between atoms: C_12  and  C_28
    3  A    between atoms: N_17  and  C_29
                            x       y       z     vdW  Elec       q    Type
                         _______ _______ _______ _____ _____    ______ ____

>  <TORSDO>
F 3

$$$$
=
 OpenBabel11052413573D

 34 39  0  0  1  0  0  0  0  0999 V2000
  187.8260  177.9800  138.2700 C   0  0  0  0  0  0  0  0  0  0  0  0
  188.7740  178.2790  140.5430 C   0  0  0  0  0  3  0  0  0  0  0  0
  186.2420  178.4910  140.0700 C   0  0  0  0  0  0  0  0  0  0  0  0
  184.5600  178.6610  141.7970 C   0  0  0  0  0  0  0  0  0  0  0  0
  189.8290  176.5280  138.2590 C   0  0  0  0  0  3  0  0  0  0  0  0
  190.1710  176.4580  139.5450 C   0  0  0  0  0  3  0  0  0  0  0  0
  186.7110  178.2250  142.5410 C   0  0  0  0  0  3  0  0  0  0  0  0
  187.6390  178.2340  139.5840 C   0  0  0  0  0  0  0  0  0  0  0  0
  184.3610  178.5620  143.4590 S   0  0  0  0  0  0  0  0  0  0  0  0
  189.1760  177.7360  137.6760 C   0  0  0  0  0  2  0  0  0  0  0  0
  185.2050  178.7080  139.1220 C   0  0  0  0  0  0  0  0  0  0  0  0
  186.7360  177.9740  137.3980 O   0  0  0  0  0  0  0  0  0  0  0  0
  189.8660  177.5040  140.5360 C   0  0  0  0  0  3  0  0  0  0  0  0
  183.5830  178.8870  140.8930 N   0  0  0  0  0  0  0  0  0  0  0  0
  183.8650  178.9320  139.5590 C   0  0  0  0  0  0  0  0  0  0  0  0
  186.0010  178.2550  143.7360 C   0  0  0  0  0  0  0  0  0  0  0  0
  185.8800  178.4640  141.4340 C   0  0  0  0  0  0  0  0  0  0  0  0
  185.5590  178.7310  137.6620 C   0  0  0  0  0  2  0  0  0  0  0  0
  181.1800  180.7240  137.5430 C   0  0  0  0  0  0  0  0  0  0  0  0
  180.5410  179.6450  136.9310 C   0  0  0  0  0  3  0  0  0  0  0  0
  182.7370  179.2010  138.6310 C   0  0  0  0  0  0  0  0  0  0  0  0
  180.9890  178.3430  137.1690 C   0  0  0  0  0  3  0  0  0  0  0  0
  182.2670  180.5030  138.3940 C   0  0  0  0  0  3  0  0  0  0  0  0
  182.0770  178.1230  138.0190 C   0  0  0  0  0  3  0  0  0  0  0  0
  180.7430  181.9870  137.3180 F   0  0  0  0  0  0  0  0  0  0  0  0
  187.6660  177.3760  145.1420 N   0  0  0  0  0  0  0  0  0  0  0  0
  186.5930  178.0440  145.0170 N   0  0  0  0  0  0  0  0  0  0  0  0
  190.5800  176.7530  145.6230 C   0  0  0  0  0  1  0  0  0  0  0  0
  188.2580  177.1680  146.4530 C   0  0  1  0  0  3  0  0  0  0  0  0
  189.7060  177.6680  146.4590 C   0  0  1  0  0  3  0  0  0  0  0  0
  189.4310  178.5270  148.6910 O   0  0  0  0  0  0  0  0  0  0  0  0
  188.1920  177.8780  148.8440 C   0  0  0  0  0  2  0  0  0  0  0  0
  187.4330  177.8960  147.5180 C   0  0  0  0  0  2  0  0  0  0  0  0
  190.2310  177.6870  147.8950 C   0  0  0  0  0  2  0  0  0  0  0  0
  1  8  2  0  0  0  0
  3 17  1  0  0  0  0
  4  9  1  0  0  0  0
  5  6  2  0  0  0  0
  6 13  1  0  0  0  0
  7 16  2  0  0  0  0
  8  3  1  0  0  0  0
  8  2  1  0  0  0  0
  9 16  1  0  0  0  0
 10  5  1  0  0  0  0
 10  1  1  0  0  0  0
 11 15  1  0  0  0  0
 11  3  2  0  0  0  0
 12 18  1  0  0  0  0
 12  1  1  0  0  0  0
 13  2  2  0  0  0  0
 14  4  1  0  0  0  0
 15 14  2  0  0  0  0
 16 27  1  0  0  0  0
 17  4  2  0  0  0  0
 17  7  1  0  0  0  0
 18 11  1  0  0  0  0
 19 23  1  0  0  0  0
 20 22  1  0  0  0  0
 20 19  2  0  0  0  0
 21 15  1  0  0  0  0
 22 24  2  0  0  0  0
 23 21  2  0  0  0  0
 24 21  1  0  0  0  0
 25 19  1  0  0  0  0
 27 26  2  0  0  0  0
 29 26  1  6  0  0  0
 29 30  1  0  0  0  0
 29 33  1  0  0  0  0
 30 28  1  6  0  0  0
 30 34  1  0  0  0  0
 31 32  1  0  0  0  0
 33 32  1  0  0  0  0
 34 31  1  0  0  0  0
M  END
>  <MODEL>
4

>  <REMARK>
 VINA RESULT:      -9.6      3.699      8.313
  Name = 
  3 active torsions:
  status: ('A' for Active; 'I' for Inactive)
    1  A    between atoms: N_3  and  C_13
    2  A    between atoms: C_12  and  C_28
    3  A    between atoms: N_17  and  C_29
                            x       y       z     vdW  Elec       q    Type
                         _______ _______ _______ _____ _____    ______ ____

>  <TORSDO>
F 3

$$$$
=
 OpenBabel11052413573D

 34 39  0  0  1  0  0  0  0  0999 V2000
  185.8750  178.0180  146.0840 C   0  0  0  0  0  0  0  0  0  0  0  0
  187.6600  177.3430  144.5000 C   0  0  0  0  0  3  0  0  0  0  0  0
  185.3740  178.2410  143.6950 C   0  0  0  0  0  0  0  0  0  0  0  0
  184.8860  178.8130  141.3980 C   0  0  0  0  0  0  0  0  0  0  0  0
  187.9610  178.4670  147.3350 C   0  0  0  0  0  3  0  0  0  0  0  0
  188.9080  178.3840  146.4030 C   0  0  0  0  0  3  0  0  0  0  0  0
  187.0970  178.2820  141.8440 C   0  0  0  0  0  3  0  0  0  0  0  0
  186.3060  177.8710  144.8130 C   0  0  0  0  0  0  0  0  0  0  0  0
  185.6160  178.9900  139.8990 S   0  0  0  0  0  0  0  0  0  0  0  0
  186.7100  177.6570  147.2700 C   0  0  0  0  0  2  0  0  0  0  0  0
  184.0050  178.4900  143.9850 C   0  0  0  0  0  0  0  0  0  0  0  0
  184.5850  178.4910  146.3330 O   0  0  0  0  0  0  0  0  0  0  0  0
  188.7910  177.5720  145.1790 C   0  0  0  0  0  3  0  0  0  0  0  0
  183.5820  179.0280  141.6760 N   0  0  0  0  0  0  0  0  0  0  0  0
  183.1040  178.8650  142.9430 C   0  0  0  0  0  0  0  0  0  0  0  0
  187.1450  178.5620  140.4830 C   0  0  0  0  0  0  0  0  0  0  0  0
  185.7990  178.4220  142.3610 C   0  0  0  0  0  0  0  0  0  0  0  0
  183.5260  178.3150  145.3980 C   0  0  0  0  0  2  0  0  0  0  0  0
  179.5980  180.3270  142.7130 C   0  0  0  0  0  0  0  0  0  0  0  0
  178.9320  179.5770  143.6840 C   0  0  0  0  0  3  0  0  0  0  0  0
  181.6550  179.1060  143.1630 C   0  0  0  0  0  0  0  0  0  0  0  0
  179.6220  178.5970  144.4020 C   0  0  0  0  0  3  0  0  0  0  0  0
  180.9530  180.0980  142.4590 C   0  0  0  0  0  3  0  0  0  0  0  0
  180.9760  178.3670  144.1460 C   0  0  0  0  0  3  0  0  0  0  0  0
  178.9330  181.2830  142.0200 F   0  0  0  0  0  0  0  0  0  0  0  0
  188.9310  177.3960  139.4970 N   0  0  0  0  0  0  0  0  0  0  0  0
  188.3360  178.5000  139.7010 N   0  0  0  0  0  0  0  0  0  0  0  0
  191.7280  177.4960  140.6260 C   0  0  0  0  0  1  0  0  0  0  0  0
  190.1440  177.3460  138.6980 C   0  0  1  0  0  3  0  0  0  0  0  0
  191.2540  176.6310  139.4740 C   0  0  1  0  0  3  0  0  0  0  0  0
  192.0120  175.5580  137.4570 O   0  0  0  0  0  0  0  0  0  0  0  0
  191.1880  176.3680  136.6550 C   0  0  0  0  0  2  0  0  0  0  0  0
  189.8660  176.6310  137.3730 C   0  0  0  0  0  2  0  0  0  0  0  0
  192.4310  176.3560  138.5370 C   0  0  0  0  0  2  0  0  0  0  0  0
  1 12  1  0  0  0  0
  1 10  1  0  0  0  0
  2  8  1  0  0  0  0
  2 13  2  0  0  0  0
  3 11  1  0  0  0  0
  3  8  1  0  0  0  0
  4 14  2  0  0  0  0
  4 17  1  0  0  0  0
  6  5  2  0  0  0  0
  7 17  1  0  0  0  0
  8  1  2  0  0  0  0
  9 16  1  0  0  0  0
  9  4  1  0  0  0  0
 10  5  1  0  0  0  0
 11 18  1  0  0  0  0
 13  6  1  0  0  0  0
 14 15  1  0  0  0  0
 15 21  1  0  0  0  0
 15 11  2  0  0  0  0
 16  7  2  0  0  0  0
 17  3  2  0  0  0  0
 18 12  1  0  0  0  0
 19 20  1  0  0  0  0
 20 22  2  0  0  0  0
 21 24  2  0  0  0  0
 23 19  2  0  0  0  0
 23 21  1  0  0  0  0
 24 22  1  0  0  0  0
 25 19  1  0  0  0  0
 26 27  2  0  0  0  0
 27 16  1  0  0  0  0
 29 30  1  0  0  0  0
 29 26  1  1  0  0  0
 30 28  1  1  0  0  0
 31 34  1  0  0  0  0
 32 33  1  0  0  0  0
 32 31  1  0  0  0  0
 33 29  1  0  0  0  0
 34 30  1  0  0  0  0
M  END
>  <MODEL>
5

>  <REMARK>
 VINA RESULT:      -9.5      3.320      8.804
  Name = 
  3 active torsions:
  status: ('A' for Active; 'I' for Inactive)
    1  A    between atoms: N_3  and  C_13
    2  A    between atoms: C_12  and  C_28
    3  A    between atoms: N_17  and  C_29
                            x       y       z     vdW  Elec       q    Type
                         _______ _______ _______ _____ _____    ______ ____

>  <TORSDO>
F 3

$$$$
=
 OpenBabel11052413573D

 34 39  0  0  1  0  0  0  0  0999 V2000
  185.8740  178.4480  144.8040 C   0  0  0  0  0  0  0  0  0  0  0  0
  185.8110  179.1300  142.4200 C   0  0  0  0  0  3  0  0  0  0  0  0
  187.8610  177.9470  143.4580 C   0  0  0  0  0  0  0  0  0  0  0  0
  189.7270  177.1100  142.1700 C   0  0  0  0  0  0  0  0  0  0  0  0
  183.4720  178.3220  144.2280 C   0  0  0  0  0  3  0  0  0  0  0  0
  183.4650  178.4010  142.8990 C   0  0  0  0  0  3  0  0  0  0  0  0
  187.9300  177.8870  140.9310 C   0  0  0  0  0  3  0  0  0  0  0  0
  186.4760  178.5100  143.5960 C   0  0  0  0  0  0  0  0  0  0  0  0
  190.2320  176.8560  140.5920 S   0  0  0  0  0  0  0  0  0  0  0  0
  184.5080  179.0010  145.0590 C   0  0  0  0  0  2  0  0  0  0  0  0
  188.5900  177.5990  144.6280 C   0  0  0  0  0  0  0  0  0  0  0  0
  186.5460  177.8820  145.8900 O   0  0  0  0  0  0  0  0  0  0  0  0
  184.5100  179.0750  142.1080 C   0  0  0  0  0  3  0  0  0  0  0  0
  190.4230  176.8000  143.2860 N   0  0  0  0  0  0  0  0  0  0  0  0
  189.9000  177.0410  144.5220 C   0  0  0  0  0  0  0  0  0  0  0  0
  188.8060  177.4810  139.9310 C   0  0  0  0  0  0  0  0  0  0  0  0
  188.4650  177.6770  142.2120 C   0  0  0  0  0  0  0  0  0  0  0  0
  187.9670  177.8660  145.9690 C   0  0  0  0  0  2  0  0  0  0  0  0
  191.5530  177.1270  147.9480 C   0  0  0  0  0  0  0  0  0  0  0  0
  192.4030  176.0230  147.8620 C   0  0  0  0  0  3  0  0  0  0  0  0
  190.7350  176.6880  145.6980 C   0  0  0  0  0  0  0  0  0  0  0  0
  192.4300  175.2530  146.6960 C   0  0  0  0  0  3  0  0  0  0  0  0
  190.7300  177.4620  146.8700 C   0  0  0  0  0  3  0  0  0  0  0  0
  191.6040  175.5880  145.6190 C   0  0  0  0  0  3  0  0  0  0  0  0
  191.5310  177.8790  149.0760 F   0  0  0  0  0  0  0  0  0  0  0  0
  187.9680  176.6210  137.9100 N   0  0  0  0  0  0  0  0  0  0  0  0
  188.5200  177.5780  138.5360 N   0  0  0  0  0  0  0  0  0  0  0  0
  186.9750  174.3560  136.1800 C   0  0  0  0  0  1  0  0  0  0  0  0
  187.6810  176.7330  136.4900 C   0  0  1  0  0  3  0  0  0  0  0  0
  186.5250  175.8020  136.1130 C   0  0  1  0  0  3  0  0  0  0  0  0
  185.6470  177.4580  134.6010 O   0  0  0  0  0  0  0  0  0  0  0  0
  186.8060  178.2480  134.7120 C   0  0  0  0  0  2  0  0  0  0  0  0
  187.3400  178.1840  136.1420 C   0  0  0  0  0  2  0  0  0  0  0  0
  186.0650  176.1170  134.6890 C   0  0  0  0  0  2  0  0  0  0  0  0
  1 10  1  0  0  0  0
  1 12  1  0  0  0  0
  2  8  1  0  0  0  0
  3  8  1  0  0  0  0
  3 11  1  0  0  0  0
  4 17  1  0  0  0  0
  4 14  2  0  0  0  0
  5 10  1  0  0  0  0
  6  5  2  0  0  0  0
  7 17  1  0  0  0  0
  8  1  2  0  0  0  0
  9  4  1  0  0  0  0
 11 18  1  0  0  0  0
 12 18  1  0  0  0  0
 13  2  2  0  0  0  0
 13  6  1  0  0  0  0
 14 15  1  0  0  0  0
 15 11  2  0  0  0  0
 15 21  1  0  0  0  0
 16  9  1  0  0  0  0
 16  7  2  0  0  0  0
 17  3  2  0  0  0  0
 19 25  1  0  0  0  0
 20 19  1  0  0  0  0
 21 23  1  0  0  0  0
 22 20  2  0  0  0  0
 23 19  2  0  0  0  0
 24 21  2  0  0  0  0
 24 22  1  0  0  0  0
 26 27  2  0  0  0  0
 27 16  1  0  0  0  0
 29 26  1  1  0  0  0
 30 28  1  6  0  0  0
 30 29  1  0  0  0  0
 31 34  1  0  0  0  0
 31 32  1  0  0  0  0
 32 33  1  0  0  0  0
 33 29  1  0  0  0  0
 34 30  1  0  0  0  0
M  END
>  <MODEL>
6

>  <REMARK>
 VINA RESULT:      -9.3      4.025      6.932
  Name = 
  3 active torsions:
  status: ('A' for Active; 'I' for Inactive)
    1  A    between atoms: N_3  and  C_13
    2  A    between atoms: C_12  and  C_28
    3  A    between atoms: N_17  and  C_29
                            x       y       z     vdW  Elec       q    Type
                         _______ _______ _______ _____ _____    ______ ____

>  <TORSDO>
F 3

$$$$
=
 OpenBabel11052413573D

 34 39  0  0  1  0  0  0  0  0999 V2000
  185.0280  178.5880  140.2560 C   0  0  0  0  0  0  0  0  0  0  0  0
  186.9180  178.5700  138.6500 C   0  0  0  0  0  3  0  0  0  0  0  0
  187.2530  178.1200  141.1730 C   0  0  0  0  0  0  0  0  0  0  0  0
  189.3230  177.3270  142.1350 C   0  0  0  0  0  0  0  0  0  0  0  0
  183.9800  177.8630  138.1360 C   0  0  0  0  0  3  0  0  0  0  0  0
  185.0210  177.5750  137.3570 C   0  0  0  0  0  3  0  0  0  0  0  0
  189.2590  177.3870  139.8200 C   0  0  0  0  0  3  0  0  0  0  0  0
  186.3480  178.4300  140.0160 C   0  0  0  0  0  0  0  0  0  0  0  0
  190.8400  176.7520  141.7110 S   0  0  0  0  0  0  0  0  0  0  0  0
  184.0430  178.9240  139.1830 C   0  0  0  0  0  2  0  0  0  0  0  0
  186.7550  178.2470  142.4990 C   0  0  0  0  0  0  0  0  0  0  0  0
  184.5380  178.4760  141.5590 O   0  0  0  0  0  0  0  0  0  0  0  0
  186.3510  178.1900  137.4970 C   0  0  0  0  0  3  0  0  0  0  0  0
  188.8520  177.4700  143.3930 N   0  0  0  0  0  0  0  0  0  0  0  0
  187.5900  177.9360  143.6140 C   0  0  0  0  0  0  0  0  0  0  0  0
  190.5390  176.8950  140.0530 C   0  0  0  0  0  0  0  0  0  0  0  0
  188.5700  177.6380  141.0170 C   0  0  0  0  0  0  0  0  0  0  0  0
  185.3520  178.7470  142.6950 C   0  0  0  0  0  2  0  0  0  0  0  0
  187.5500  177.8760  147.4190 C   0  0  0  0  0  0  0  0  0  0  0  0
  186.2410  178.2850  147.6790 C   0  0  0  0  0  3  0  0  0  0  0  0
  187.1520  178.0790  145.0270 C   0  0  0  0  0  0  0  0  0  0  0  0
  185.3820  178.5860  146.6190 C   0  0  0  0  0  3  0  0  0  0  0  0
  188.0000  177.7660  146.1010 C   0  0  0  0  0  3  0  0  0  0  0  0
  185.8330  178.4780  145.3010 C   0  0  0  0  0  3  0  0  0  0  0  0
  188.3830  177.5770  148.4460 F   0  0  0  0  0  0  0  0  0  0  0  0
  191.3810  175.4410  138.4090 N   0  0  0  0  0  0  0  0  0  0  0  0
  191.4600  176.5530  139.0180 N   0  0  0  0  0  0  0  0  0  0  0  0
  190.7880  175.6320  135.4560 C   0  0  0  0  0  1  0  0  0  0  0  0
  192.3250  175.1060  137.3560 C   0  0  1  0  0  3  0  0  0  0  0  0
  192.0910  176.0030  136.1380 C   0  0  1  0  0  3  0  0  0  0  0  0
  194.4630  176.1590  135.7610 O   0  0  0  0  0  0  0  0  0  0  0  0
  194.7310  175.1490  136.7020 C   0  0  0  0  0  2  0  0  0  0  0  0
  193.7570  175.2630  137.8730 C   0  0  0  0  0  2  0  0  0  0  0  0
  193.2420  175.8240  135.1470 C   0  0  0  0  0  2  0  0  0  0  0  0
  1 12  1  0  0  0  0
  2  8  1  0  0  0  0
  3 11  1  0  0  0  0
  4 14  2  0  0  0  0
  5 10  1  0  0  0  0
  6 13  1  0  0  0  0
  6  5  2  0  0  0  0
  7 16  2  0  0  0  0
  7 17  1  0  0  0  0
  8  1  2  0  0  0  0
  8  3  1  0  0  0  0
  9  4  1  0  0  0  0
 10  1  1  0  0  0  0
 11 18  1  0  0  0  0
 11 15  2  0  0  0  0
 12 18  1  0  0  0  0
 13  2  2  0  0  0  0
 14 15  1  0  0  0  0
 15 21  1  0  0  0  0
 16  9  1  0  0  0  0
 17  3  2  0  0  0  0
 17  4  1  0  0  0  0
 19 20  1  0  0  0  0
 19 25  1  0  0  0  0
 21 24  2  0  0  0  0
 21 23  1  0  0  0  0
 22 20  2  0  0  0  0
 23 19  2  0  0  0  0
 24 22  1  0  0  0  0
 26 27  2  0  0  0  0
 27 16  1  0  0  0  0
 29 33  1  0  0  0  0
 29 26  1  1  0  0  0
 30 28  1  6  0  0  0
 30 29  1  0  0  0  0
 31 32  1  0  0  0  0
 32 33  1  0  0  0  0
 34 31  1  0  0  0  0
 34 30  1  0  0  0  0
M  END
>  <MODEL>
7

>  <REMARK>
 VINA RESULT:      -9.2      3.830      9.554
  Name = 
  3 active torsions:
  status: ('A' for Active; 'I' for Inactive)
    1  A    between atoms: N_3  and  C_13
    2  A    between atoms: C_12  and  C_28
    3  A    between atoms: N_17  and  C_29
                            x       y       z     vdW  Elec       q    Type
                         _______ _______ _______ _____ _____    ______ ____

>  <TORSDO>
F 3

$$$$
=
 OpenBabel11052413573D

 34 39  0  0  1  0  0  0  0  0999 V2000
  188.5770  177.7460  144.6210 C   0  0  0  0  0  0  0  0  0  0  0  0
  186.4180  178.9560  144.4540 C   0  0  0  0  0  3  0  0  0  0  0  0
  187.7220  178.1730  142.3640 C   0  0  0  0  0  0  0  0  0  0  0  0
  186.8310  178.2410  140.1180 C   0  0  0  0  0  0  0  0  0  0  0  0
  187.3880  177.1010  146.6920 C   0  0  0  0  0  3  0  0  0  0  0  0
  186.1380  177.5050  146.4730 C   0  0  0  0  0  3  0  0  0  0  0  0
  185.3290  178.7690  141.8020 C   0  0  0  0  0  3  0  0  0  0  0  0
  187.5960  178.2740  143.8570 C   0  0  0  0  0  0  0  0  0  0  0  0
  185.4170  178.5420  139.2690 S   0  0  0  0  0  0  0  0  0  0  0  0
  188.5650  177.8120  146.1150 C   0  0  0  0  0  2  0  0  0  0  0  0
  188.9590  177.7630  141.7970 C   0  0  0  0  0  0  0  0  0  0  0  0
  189.6800  177.1380  144.0190 O   0  0  0  0  0  0  0  0  0  0  0  0
  185.7770  178.6200  145.5800 C   0  0  0  0  0  3  0  0  0  0  0  0
  188.0140  177.8700  139.5840 N   0  0  0  0  0  0  0  0  0  0  0  0
  189.0960  177.6380  140.3810 C   0  0  0  0  0  0  0  0  0  0  0  0
  184.5330  178.8880  140.6680 C   0  0  0  0  0  0  0  0  0  0  0  0
  186.6460  178.4040  141.4800 C   0  0  0  0  0  0  0  0  0  0  0  0
  190.1190  177.5000  142.7140 C   0  0  0  0  0  2  0  0  0  0  0  0
  192.7970  177.1590  139.6340 C   0  0  0  0  0  0  0  0  0  0  0  0
  192.7400  176.5750  138.3680 C   0  0  0  0  0  3  0  0  0  0  0  0
  190.3660  177.2500  139.7140 C   0  0  0  0  0  0  0  0  0  0  0  0
  191.5020  176.3330  137.7670 C   0  0  0  0  0  3  0  0  0  0  0  0
  191.6170  177.5020  140.3000 C   0  0  0  0  0  3  0  0  0  0  0  0
  190.3230  176.6740  138.4340 C   0  0  0  0  0  3  0  0  0  0  0  0
  193.9970  177.4010  140.2160 F   0  0  0  0  0  0  0  0  0  0  0  0
  182.3340  178.6410  141.4610 N   0  0  0  0  0  0  0  0  0  0  0  0
  183.1520  179.2470  140.7020 N   0  0  0  0  0  0  0  0  0  0  0  0
  180.6010  178.6270  143.9320 C   0  0  0  0  0  1  0  0  0  0  0  0
  180.9300  179.0170  141.4850 C   0  0  1  0  0  3  0  0  0  0  0  0
  180.5850  179.6660  142.8280 C   0  0  1  0  0  3  0  0  0  0  0  0
  179.1500  181.2530  141.7240 O   0  0  0  0  0  0  0  0  0  0  0  0
  179.2260  180.5520  140.5070 C   0  0  0  0  0  2  0  0  0  0  0  0
  180.6290  179.9750  140.3300 C   0  0  0  0  0  2  0  0  0  0  0  0
  179.1900  180.2880  142.7470 C   0  0  0  0  0  2  0  0  0  0  0  0
  1 10  1  0  0  0  0
  2 13  2  0  0  0  0
  3  8  1  0  0  0  0
  4 17  1  0  0  0  0
  6  5  2  0  0  0  0
  8  2  1  0  0  0  0
  8  1  2  0  0  0  0
  9  4  1  0  0  0  0
  9 16  1  0  0  0  0
 10  5  1  0  0  0  0
 11  3  1  0  0  0  0
 11 18  1  0  0  0  0
 12  1  1  0  0  0  0
 13  6  1  0  0  0  0
 14  4  2  0  0  0  0
 14 15  1  0  0  0  0
 15 11  2  0  0  0  0
 16 27  1  0  0  0  0
 16  7  2  0  0  0  0
 17  7  1  0  0  0  0
 17  3  2  0  0  0  0
 18 12  1  0  0  0  0
 19 25  1  0  0  0  0
 19 23  1  0  0  0  0
 20 19  2  0  0  0  0
 21 23  2  0  0  0  0
 21 15  1  0  0  0  0
 22 20  1  0  0  0  0
 22 24  2  0  0  0  0
 24 21  1  0  0  0  0
 27 26  2  0  0  0  0
 29 26  1  1  0  0  0
 29 30  1  0  0  0  0
 30 28  1  1  0  0  0
 31 34  1  0  0  0  0
 32 31  1  0  0  0  0
 33 32  1  0  0  0  0
 33 29  1  0  0  0  0
 34 30  1  0  0  0  0
M  END
>  <MODEL>
8

>  <REMARK>
 VINA RESULT:      -9.0      1.563      2.354
  Name = 
  3 active torsions:
  status: ('A' for Active; 'I' for Inactive)
    1  A    between atoms: N_3  and  C_13
    2  A    between atoms: C_12  and  C_28
    3  A    between atoms: N_17  and  C_29
                            x       y       z     vdW  Elec       q    Type
                         _______ _______ _______ _____ _____    ______ ____

>  <TORSDO>
F 3

$$$$
=
 OpenBabel11052413573D

 34 39  0  0  1  0  0  0  0  0999 V2000
  184.9700  178.4380  145.8930 C   0  0  0  0  0  0  0  0  0  0  0  0
  187.0950  177.3850  145.1640 C   0  0  0  0  0  3  0  0  0  0  0  0
  185.3390  178.2510  143.4770 C   0  0  0  0  0  0  0  0  0  0  0  0
  185.7290  178.4240  141.0980 C   0  0  0  0  0  0  0  0  0  0  0  0
  186.5460  178.9860  147.7190 C   0  0  0  0  0  3  0  0  0  0  0  0
  187.7370  178.6810  147.2060 C   0  0  0  0  0  3  0  0  0  0  0  0
  187.5790  177.8570  142.3720 C   0  0  0  0  0  3  0  0  0  0  0  0
  185.7870  178.0380  144.8940 C   0  0  0  0  0  0  0  0  0  0  0  0
  186.9390  178.2830  139.9460 S   0  0  0  0  0  0  0  0  0  0  0  0
  185.3060  178.2510  147.3380 C   0  0  0  0  0  2  0  0  0  0  0  0
  183.9910  178.6280  143.2220 C   0  0  0  0  0  0  0  0  0  0  0  0
  183.7370  179.0220  145.5950 O   0  0  0  0  0  0  0  0  0  0  0  0
  187.9470  177.6680  146.1570 C   0  0  0  0  0  3  0  0  0  0  0  0
  184.4430  178.7610  140.8610 N   0  0  0  0  0  0  0  0  0  0  0  0
  183.5480  178.8580  141.8850 C   0  0  0  0  0  0  0  0  0  0  0  0
  188.1180  177.8820  141.0900 C   0  0  0  0  0  0  0  0  0  0  0  0
  186.2090  178.1630  142.3690 C   0  0  0  0  0  0  0  0  0  0  0  0
  183.0450  178.7400  144.3840 C   0  0  0  0  0  2  0  0  0  0  0  0
  179.8960  179.8880  142.1700 C   0  0  0  0  0  0  0  0  0  0  0  0
  179.4890  179.8030  140.8370 C   0  0  0  0  0  3  0  0  0  0  0  0
  182.1490  179.2180  141.5390 C   0  0  0  0  0  0  0  0  0  0  0  0
  180.4040  179.4190  139.8530 C   0  0  0  0  0  3  0  0  0  0  0  0
  181.2160  179.5910  142.5190 C   0  0  0  0  0  3  0  0  0  0  0  0
  181.7240  179.1230  140.2040 C   0  0  0  0  0  3  0  0  0  0  0  0
  179.0090  180.2550  143.1270 F   0  0  0  0  0  0  0  0  0  0  0  0
  189.8170  176.6850  139.9930 N   0  0  0  0  0  0  0  0  0  0  0  0
  189.4880  177.6090  140.7990 N   0  0  0  0  0  0  0  0  0  0  0  0
  190.8070  175.1350  137.5990 C   0  0  0  0  0  1  0  0  0  0  0  0
  191.2170  176.4190  139.7050 C   0  0  1  0  0  3  0  0  0  0  0  0
  191.4420  176.3790  138.1910 C   0  0  1  0  0  3  0  0  0  0  0  0
  193.5560  177.5020  138.4470 O   0  0  0  0  0  0  0  0  0  0  0  0
  193.5280  177.3470  139.8440 C   0  0  0  0  0  2  0  0  0  0  0  0
  192.0940  177.4930  140.3520 C   0  0  0  0  0  2  0  0  0  0  0  0
  192.9440  176.3590  137.9020 C   0  0  0  0  0  2  0  0  0  0  0  0
  1 10  1  0  0  0  0
  2 13  2  0  0  0  0
  3  8  1  0  0  0  0
  4 17  1  0  0  0  0
  6  5  2  0  0  0  0
  8  2  1  0  0  0  0
  8  1  2  0  0  0  0
  9 16  1  0  0  0  0
  9  4  1  0  0  0  0
 10  5  1  0  0  0  0
 11  3  1  0  0  0  0
 11 18  1  0  0  0  0
 12  1  1  0  0  0  0
 13  6  1  0  0  0  0
 14  4  2  0  0  0  0
 14 15  1  0  0  0  0
 15 11  2  0  0  0  0
 16  7  2  0  0  0  0
 17  7  1  0  0  0  0
 17  3  2  0  0  0  0
 18 12  1  0  0  0  0
 19 23  1  0  0  0  0
 19 25  1  0  0  0  0
 20 19  2  0  0  0  0
 21 15  1  0  0  0  0
 21 23  2  0  0  0  0
 22 24  2  0  0  0  0
 22 20  1  0  0  0  0
 24 21  1  0  0  0  0
 26 27  2  0  0  0  0
 27 16  1  0  0  0  0
 29 26  1  6  0  0  0
 29 33  1  0  0  0  0
 30 28  1  1  0  0  0
 30 29  1  0  0  0  0
 31 32  1  0  0  0  0
 32 33  1  0  0  0  0
 34 30  1  0  0  0  0
 34 31  1  0  0  0  0
M  END
>  <MODEL>
9

>  <REMARK>
 VINA RESULT:      -9.0      3.274      8.801
  Name = 
  3 active torsions:
  status: ('A' for Active; 'I' for Inactive)
    1  A    between atoms: N_3  and  C_13
    2  A    between atoms: C_12  and  C_28
    3  A    between atoms: N_17  and  C_29
                            x       y       z     vdW  Elec       q    Type
                         _______ _______ _______ _____ _____    ______ ____

>  <TORSDO>
F 3

$$$$
