=
 OpenBabel11052414413D

 32 37  0  0  1  0  0  0  0  0999 V2000
  185.9320  178.2600  143.7450 C   0  0  1  0  0  3  0  0  0  0  0  0
  185.7600  178.2530  141.2640 C   0  0  1  0  0  3  0  0  0  0  0  0
  185.3700  178.8770  145.0250 C   0  0  0  0  0  2  0  0  0  0  0  0
  185.2270  178.8860  142.5360 C   0  0  1  0  0  3  0  0  0  0  0  0
  184.9970  178.7970  140.0610 C   0  0  1  0  0  3  0  0  0  0  0  0
  189.5130  177.7200  138.0840 C   0  0  0  0  0  2  0  0  0  0  0  0
  187.2560  178.5270  141.1150 C   0  0  1  0  0  3  0  0  0  0  0  0
  187.3870  177.9520  137.3210 C   0  0  0  0  0  2  0  0  0  0  0  0
  186.8600  178.5030  138.6420 C   0  0  1  0  0  3  0  0  0  0  0  0
  183.7110  178.6380  142.6030 C   0  0  2  0  0  3  0  0  0  0  0  0
  185.4530  178.1440  138.8330 N   0  0  0  0  0  2  0  0  0  0  0  0
  183.0460  179.2250  141.4990 O   0  0  0  0  0  0  0  0  0  0  0  0
  183.1510  179.2170  143.9000 C   0  0  0  0  0  2  0  0  0  0  0  0
  187.9900  177.8950  142.2980 C   0  0  0  0  0  2  0  0  0  0  0  0
  187.4600  178.4480  143.6310 C   0  0  2  0  0  3  0  0  0  0  0  0
  187.7220  177.9370  139.7820 C   0  0  1  0  0  3  0  0  0  0  0  0
  183.4820  178.6340  140.2830 C   0  0  2  0  0  3  0  0  0  0  0  0
  183.8660  178.6170  145.1100 C   0  0  0  0  0  2  0  0  0  0  0  0
  188.7150  178.3830  137.1290 O   0  0  0  0  0  0  0  0  0  0  0  0
  189.1930  178.2280  139.4930 C   0  0  0  0  0  2  0  0  0  0  0  0
  190.4010  176.6590  145.5930 C   0  0  1  0  0  3  0  0  0  0  0  0
  189.4300  178.2210  148.8420 O   0  0  0  0  0  1  0  0  0  0  0  0
  191.6800  176.3430  145.1700 F   0  0  0  0  0  0  0  0  0  0  0  0
  188.0630  176.9540  147.1860 C   0  0  0  0  0  2  0  0  0  0  0  0
  188.2120  177.8270  144.7820 C   0  0  0  0  0  0  0  0  0  0  0  0
  190.4630  177.3670  146.9110 C   0  0  0  0  0  3  0  0  0  0  0  0
  187.5450  177.6180  145.9410 C   0  0  0  0  0  3  0  0  0  0  0  0
  189.6820  177.5060  144.5340 C   0  0  1  0  0  3  0  0  0  0  0  0
  190.4700  178.7690  144.2050 C   0  0  0  0  0  1  0  0  0  0  0  0
  189.3650  177.5300  147.6410 C   0  0  0  0  0  0  0  0  0  0  0  0
  182.9140  177.2260  140.0480 C   0  0  0  0  0  2  0  0  0  0  0  0
  181.5220  177.2110  140.1460 O   0  0  0  0  0  1  0  0  0  0  0  0
  1  3  1  1  0  0  0
  2  4  1  0  0  0  0
  3 18  1  0  0  0  0
  4 10  1  0  0  0  0
  4  1  1  0  0  0  0
  5 17  1  0  0  0  0
  5  2  1  0  0  0  0
  6 20  1  0  0  0  0
  7  2  1  0  0  0  0
  7 14  1  0  0  0  0
  8  9  1  0  0  0  0
  9 11  1  0  0  0  0
  9 16  1  0  0  0  0
 10 13  1  0  0  0  0
 11  5  1  0  0  0  0
 12 10  1  0  0  0  0
 13 18  1  0  0  0  0
 14 15  1  0  0  0  0
 15  1  1  0  0  0  0
 15 25  1  0  0  0  0
 16  7  1  0  0  0  0
 17 12  1  0  0  0  0
 19  8  1  0  0  0  0
 19  6  1  0  0  0  0
 20 16  1  0  0  0  0
 21 26  1  0  0  0  0
 23 21  1  0  0  0  0
 24 30  1  0  0  0  0
 25 27  2  0  0  0  0
 26 30  2  0  0  0  0
 27 24  1  0  0  0  0
 28 25  1  0  0  0  0
 28 21  1  0  0  0  0
 29 28  1  0  0  0  0
 30 22  1  0  0  0  0
 31 32  1  0  0  0  0
 31 17  1  0  0  0  0
M  END
>  <MODEL>
1

>  <REMARK>
 VINA RESULT:     -10.4      0.000      0.000
  Name = 
  2 active torsions:
  status: ('A' for Active; 'I' for Inactive)
    1  A    between atoms: C_13  and  C_29
    2  A    between atoms: C_16  and  C_27
                            x       y       z     vdW  Elec       q    Type
                         _______ _______ _______ _____ _____    ______ ____

>  <TORSDO>
F 2

$$$$
=
 OpenBabel11052414413D

 32 37  0  0  1  0  0  0  0  0999 V2000
  187.3860  178.0090  141.2700 C   0  0  1  0  0  3  0  0  0  0  0  0
  188.3400  177.4460  139.0440 C   0  0  1  0  0  3  0  0  0  0  0  0
  186.4270  178.9420  142.0090 C   0  0  0  0  0  2  0  0  0  0  0  0
  187.4130  178.3910  139.7850 C   0  0  1  0  0  3  0  0  0  0  0  0
  188.2990  177.7550  137.5510 C   0  0  1  0  0  3  0  0  0  0  0  0
  192.9630  175.9250  138.1540 C   0  0  0  0  0  2  0  0  0  0  0  0
  189.7670  177.5680  139.5740 C   0  0  1  0  0  3  0  0  0  0  0  0
  191.4760  176.1310  136.4510 C   0  0  0  0  0  2  0  0  0  0  0  0
  190.5180  177.0070  137.2520 C   0  0  1  0  0  3  0  0  0  0  0  0
  186.0080  178.2760  139.1700 C   0  0  2  0  0  3  0  0  0  0  0  0
  189.1350  176.8050  136.8140 N   0  0  0  0  0  2  0  0  0  0  0  0
  186.0170  178.6410  137.8020 O   0  0  0  0  0  0  0  0  0  0  0  0
  185.0380  179.1760  139.9310 C   0  0  0  0  0  2  0  0  0  0  0  0
  189.7760  177.1730  141.0520 C   0  0  0  0  0  2  0  0  0  0  0  0
  188.8110  178.0540  141.8620 C   0  0  2  0  0  3  0  0  0  0  0  0
  190.6700  176.6560  138.7410 C   0  0  1  0  0  3  0  0  0  0  0  0
  186.8410  177.7580  137.0560 C   0  0  2  0  0  3  0  0  0  0  0  0
  185.0240  178.8190  141.4170 C   0  0  0  0  0  2  0  0  0  0  0  0
  192.8010  176.4080  136.8390 O   0  0  0  0  0  0  0  0  0  0  0  0
  192.1410  176.7650  139.1360 C   0  0  0  0  0  2  0  0  0  0  0  0
  190.3310  177.1010  145.3950 C   0  0  1  0  0  3  0  0  0  0  0  0
  187.3530  178.4020  147.2320 O   0  0  0  0  0  1  0  0  0  0  0  0
  191.6460  177.1160  145.8230 F   0  0  0  0  0  0  0  0  0  0  0  0
  187.5030  176.8070  145.3210 C   0  0  0  0  0  2  0  0  0  0  0  0
  188.8530  177.6600  143.3170 C   0  0  0  0  0  0  0  0  0  0  0  0
  189.4660  177.8160  146.3850 C   0  0  0  0  0  3  0  0  0  0  0  0
  187.6920  177.3010  143.9130 C   0  0  0  0  0  3  0  0  0  0  0  0
  190.2170  177.7220  143.9950 C   0  0  1  0  0  3  0  0  0  0  0  0
  190.7760  179.1400  143.9720 C   0  0  0  0  0  1  0  0  0  0  0  0
  188.1430  177.7030  146.3310 C   0  0  0  0  0  0  0  0  0  0  0  0
  186.2050  176.3790  136.8220 C   0  0  0  0  0  2  0  0  0  0  0  0
  185.9800  176.1400  135.4650 O   0  0  0  0  0  1  0  0  0  0  0  0
  1 15  1  0  0  0  0
  1  3  1  1  0  0  0
  2  7  1  0  0  0  0
  2  4  1  0  0  0  0
  4  1  1  0  0  0  0
  5  2  1  0  0  0  0
  6 20  1  0  0  0  0
  7 14  1  0  0  0  0
  8 19  1  0  0  0  0
  8  9  1  0  0  0  0
  9 16  1  0  0  0  0
 10  4  1  0  0  0  0
 10 13  1  0  0  0  0
 11  9  1  0  0  0  0
 11  5  1  0  0  0  0
 12 10  1  0  0  0  0
 13 18  1  0  0  0  0
 14 15  1  0  0  0  0
 15 25  1  0  0  0  0
 16 20  1  0  0  0  0
 16  7  1  0  0  0  0
 17  5  1  0  0  0  0
 17 12  1  0  0  0  0
 18  3  1  0  0  0  0
 19  6  1  0  0  0  0
 21 23  1  0  0  0  0
 21 26  1  0  0  0  0
 24 30  1  0  0  0  0
 25 27  2  0  0  0  0
 25 28  1  0  0  0  0
 27 24  1  0  0  0  0
 28 21  1  0  0  0  0
 29 28  1  0  0  0  0
 30 26  2  0  0  0  0
 30 22  1  0  0  0  0
 31 17  1  0  0  0  0
 32 31  1  0  0  0  0
M  END
>  <MODEL>
2

>  <REMARK>
 VINA RESULT:     -10.0      2.196      3.463
  Name = 
  2 active torsions:
  status: ('A' for Active; 'I' for Inactive)
    1  A    between atoms: C_13  and  C_29
    2  A    between atoms: C_16  and  C_27
                            x       y       z     vdW  Elec       q    Type
                         _______ _______ _______ _____ _____    ______ ____

>  <TORSDO>
F 2

$$$$
=
 OpenBabel11052414413D

 32 37  0  0  1  0  0  0  0  0999 V2000
  186.9920  178.0130  141.9460 C   0  0  1  0  0  3  0  0  0  0  0  0
  188.5970  177.5900  143.7980 C   0  0  1  0  0  3  0  0  0  0  0  0
  186.8380  178.6270  140.5550 C   0  0  0  0  0  2  0  0  0  0  0  0
  188.4320  178.2260  142.4300 C   0  0  1  0  0  3  0  0  0  0  0  0
  190.0500  177.7090  144.2470 C   0  0  1  0  0  3  0  0  0  0  0  0
  187.5550  177.6820  148.6340 C   0  0  0  0  0  2  0  0  0  0  0  0
  187.6690  178.2530  144.8140 C   0  0  1  0  0  3  0  0  0  0  0  0
  189.6530  177.1830  147.9220 C   0  0  0  0  0  2  0  0  0  0  0  0
  189.4280  177.7500  146.5240 C   0  0  1  0  0  3  0  0  0  0  0  0
  189.4310  177.5680  141.4650 C   0  0  2  0  0  3  0  0  0  0  0  0
  190.2380  177.0380  145.5340 N   0  0  0  0  0  2  0  0  0  0  0  0
  190.7660  177.7700  141.8940 O   0  0  0  0  0  0  0  0  0  0  0  0
  189.2540  178.1500  140.0650 C   0  0  0  0  0  2  0  0  0  0  0  0
  186.2210  178.0390  144.3680 C   0  0  0  0  0  2  0  0  0  0  0  0
  185.9920  178.6100  142.9590 C   0  0  2  0  0  3  0  0  0  0  0  0
  187.9330  177.6290  146.1860 C   0  0  1  0  0  3  0  0  0  0  0  0
  190.9830  177.1550  143.1550 C   0  0  2  0  0  3  0  0  0  0  0  0
  187.8150  177.9650  139.5840 C   0  0  0  0  0  2  0  0  0  0  0  0
  188.9230  177.9410  148.8590 O   0  0  0  0  0  0  0  0  0  0  0  0
  187.1120  178.2820  147.2960 C   0  0  0  0  0  2  0  0  0  0  0  0
  182.0610  178.2500  143.3060 C   0  0  1  0  0  3  0  0  0  0  0  0
  181.4570  179.4940  139.8380 O   0  0  0  0  0  1  0  0  0  0  0  0
  181.2520  178.4400  144.4120 F   0  0  0  0  0  0  0  0  0  0  0  0
  182.9680  177.6930  140.6680 C   0  0  0  0  0  2  0  0  0  0  0  0
  184.5540  178.4070  142.5490 C   0  0  0  0  0  0  0  0  0  0  0  0
  181.5070  179.0030  142.1370 C   0  0  0  0  0  3  0  0  0  0  0  0
  184.3030  178.0220  141.2760 C   0  0  0  0  0  3  0  0  0  0  0  0
  183.5020  178.6790  143.6180 C   0  0  1  0  0  3  0  0  0  0  0  0
  183.5600  180.1280  144.0880 C   0  0  0  0  0  1  0  0  0  0  0  0
  181.9530  178.7630  140.9070 C   0  0  0  0  0  0  0  0  0  0  0  0
  191.0980  175.6250  143.0780 C   0  0  0  0  0  2  0  0  0  0  0  0
  192.0550  175.1370  143.9690 O   0  0  0  0  0  1  0  0  0  0  0  0
  1  3  1  6  0  0  0
  1  4  1  0  0  0  0
  1 15  1  0  0  0  0
  2  5  1  0  0  0  0
  2  7  1  0  0  0  0
  4  2  1  0  0  0  0
  5 11  1  0  0  0  0
  6 19  1  0  0  0  0
  7 16  1  0  0  0  0
  8 19  1  0  0  0  0
  9  8  1  0  0  0  0
 10 12  1  0  0  0  0
 10  4  1  0  0  0  0
 11  9  1  0  0  0  0
 12 17  1  0  0  0  0
 13 10  1  0  0  0  0
 14  7  1  0  0  0  0
 15 14  1  0  0  0  0
 16  9  1  0  0  0  0
 16 20  1  0  0  0  0
 17  5  1  0  0  0  0
 18 13  1  0  0  0  0
 18  3  1  0  0  0  0
 20  6  1  0  0  0  0
 21 28  1  0  0  0  0
 21 23  1  0  0  0  0
 22 30  1  0  0  0  0
 24 30  1  0  0  0  0
 24 27  1  0  0  0  0
 25 15  1  0  0  0  0
 25 28  1  0  0  0  0
 26 21  1  0  0  0  0
 27 25  2  0  0  0  0
 28 29  1  0  0  0  0
 30 26  2  0  0  0  0
 31 17  1  0  0  0  0
 31 32  1  0  0  0  0
M  END
>  <MODEL>
3

>  <REMARK>
 VINA RESULT:      -9.9      3.051      7.832
  Name = 
  2 active torsions:
  status: ('A' for Active; 'I' for Inactive)
    1  A    between atoms: C_13  and  C_29
    2  A    between atoms: C_16  and  C_27
                            x       y       z     vdW  Elec       q    Type
                         _______ _______ _______ _____ _____    ______ ____

>  <TORSDO>
F 2

$$$$
=
 OpenBabel11052414413D

 32 37  0  0  1  0  0  0  0  0999 V2000
  187.8240  178.1120  140.9830 C   0  0  1  0  0  3  0  0  0  0  0  0
  188.6120  177.1710  138.8200 C   0  0  1  0  0  3  0  0  0  0  0  0
  186.8830  179.1330  141.6220 C   0  0  0  0  0  2  0  0  0  0  0  0
  187.7020  178.2050  139.4570 C   0  0  1  0  0  3  0  0  0  0  0  0
  188.4260  177.1870  137.3060 C   0  0  1  0  0  3  0  0  0  0  0  0
  193.2180  175.6810  137.7960 C   0  0  0  0  0  2  0  0  0  0  0  0
  190.0710  177.4450  139.1810 C   0  0  1  0  0  3  0  0  0  0  0  0
  191.5800  175.5030  136.2320 C   0  0  0  0  0  2  0  0  0  0  0  0
  190.6490  176.4790  136.9430 C   0  0  1  0  0  3  0  0  0  0  0  0
  186.2590  177.9230  139.0100 C   0  0  2  0  0  3  0  0  0  0  0  0
  189.2460  176.1460  136.6840 N   0  0  0  0  0  2  0  0  0  0  0  0
  186.1300  178.0200  137.6030 O   0  0  0  0  0  0  0  0  0  0  0  0
  185.3100  178.9150  139.6770 C   0  0  0  0  0  2  0  0  0  0  0  0
  190.2290  177.3390  140.6980 C   0  0  0  0  0  2  0  0  0  0  0  0
  189.2910  178.3220  141.4170 C   0  0  2  0  0  3  0  0  0  0  0  0
  190.9470  176.4250  138.4510 C   0  0  1  0  0  3  0  0  0  0  0  0
  186.9330  177.0420  136.9600 C   0  0  2  0  0  3  0  0  0  0  0  0
  185.4430  178.8470  141.1980 C   0  0  0  0  0  2  0  0  0  0  0  0
  192.9180  175.8980  136.4350 O   0  0  0  0  0  0  0  0  0  0  0  0
  192.4390  176.6620  138.6770 C   0  0  0  0  0  2  0  0  0  0  0  0
  188.4020  177.6480  145.2190 C   0  0  1  0  0  3  0  0  0  0  0  0
  191.9260  176.7630  146.0770 O   0  0  0  0  0  1  0  0  0  0  0  0
  187.2510  177.1200  145.7760 F   0  0  0  0  0  0  0  0  0  0  0  0
  191.0010  178.7560  144.8980 C   0  0  0  0  0  2  0  0  0  0  0  0
  189.4790  178.2150  142.9100 C   0  0  0  0  0  0  0  0  0  0  0  0
  189.6020  176.9430  145.7700 C   0  0  0  0  0  3  0  0  0  0  0  0
  190.6280  178.6910  143.4430 C   0  0  0  0  0  3  0  0  0  0  0  0
  188.3470  177.5530  143.6880 C   0  0  1  0  0  3  0  0  0  0  0  0
  188.1360  176.1140  143.2300 C   0  0  0  0  0  1  0  0  0  0  0  0
  190.8200  177.4460  145.5930 C   0  0  0  0  0  0  0  0  0  0  0  0
  186.3560  175.6200  137.0490 C   0  0  0  0  0  2  0  0  0  0  0  0
  185.0300  175.5760  136.6140 O   0  0  0  0  0  1  0  0  0  0  0  0
  1 15  1  0  0  0  0
  1  3  1  1  0  0  0
  2  7  1  0  0  0  0
  2  4  1  0  0  0  0
  4  1  1  0  0  0  0
  5  2  1  0  0  0  0
  6 20  1  0  0  0  0
  7 14  1  0  0  0  0
  8 19  1  0  0  0  0
  8  9  1  0  0  0  0
  9 16  1  0  0  0  0
 10  4  1  0  0  0  0
 10 13  1  0  0  0  0
 11  9  1  0  0  0  0
 11  5  1  0  0  0  0
 12 10  1  0  0  0  0
 13 18  1  0  0  0  0
 14 15  1  0  0  0  0
 15 25  1  0  0  0  0
 16 20  1  0  0  0  0
 16  7  1  0  0  0  0
 17 31  1  0  0  0  0
 17  5  1  0  0  0  0
 17 12  1  0  0  0  0
 18  3  1  0  0  0  0
 19  6  1  0  0  0  0
 21 26  1  0  0  0  0
 21 23  1  0  0  0  0
 24 30  1  0  0  0  0
 25 27  2  0  0  0  0
 25 28  1  0  0  0  0
 27 24  1  0  0  0  0
 28 21  1  0  0  0  0
 29 28  1  0  0  0  0
 30 26  2  0  0  0  0
 30 22  1  0  0  0  0
 32 31  1  0  0  0  0
M  END
>  <MODEL>
4

>  <REMARK>
 VINA RESULT:      -9.4      2.573      4.013
  Name = 
  2 active torsions:
  status: ('A' for Active; 'I' for Inactive)
    1  A    between atoms: C_13  and  C_29
    2  A    between atoms: C_16  and  C_27
                            x       y       z     vdW  Elec       q    Type
                         _______ _______ _______ _____ _____    ______ ____

>  <TORSDO>
F 2

$$$$
=
 OpenBabel11052414413D

 32 37  0  0  1  0  0  0  0  0999 V2000
  186.9820  177.9630  144.1560 C   0  0  1  0  0  3  0  0  0  0  0  0
  189.0850  177.7020  142.8540 C   0  0  1  0  0  3  0  0  0  0  0  0
  186.2380  177.5130  145.4140 C   0  0  0  0  0  2  0  0  0  0  0  0
  188.3300  177.2350  144.0850 C   0  0  1  0  0  3  0  0  0  0  0  0
  190.4670  177.0590  142.8250 C   0  0  1  0  0  3  0  0  0  0  0  0
  189.4810  177.7340  137.9220 C   0  0  0  0  0  2  0  0  0  0  0  0
  188.3090  177.3550  141.5850 C   0  0  1  0  0  3  0  0  0  0  0  0
  191.3300  177.5030  139.2200 C   0  0  0  0  0  2  0  0  0  0  0  0
  190.5370  177.1220  140.4670 C   0  0  1  0  0  3  0  0  0  0  0  0
  189.1820  177.5490  145.3250 C   0  0  2  0  0  3  0  0  0  0  0  0
  191.2330  177.5550  141.6800 N   0  0  0  0  0  2  0  0  0  0  0  0
  190.4250  176.8710  145.2790 O   0  0  0  0  0  0  0  0  0  0  0  0
  188.4260  177.1390  146.5870 C   0  0  0  0  0  2  0  0  0  0  0  0
  186.9640  178.0850  141.6170 C   0  0  0  0  0  2  0  0  0  0  0  0
  186.1640  177.7030  142.8730 C   0  0  2  0  0  3  0  0  0  0  0  0
  189.1480  177.7760  140.3770 C   0  0  1  0  0  3  0  0  0  0  0  0
  191.1880  177.3060  144.1630 C   0  0  2  0  0  3  0  0  0  0  0  0
  187.0700  177.8400  146.6530 C   0  0  0  0  0  2  0  0  0  0  0  0
  190.6760  177.0020  138.0770 O   0  0  0  0  0  0  0  0  0  0  0  0
  188.4980  177.3970  139.0480 C   0  0  0  0  0  2  0  0  0  0  0  0
  182.9510  179.5400  141.4580 C   0  0  1  0  0  3  0  0  0  0  0  0
  180.8400  178.4650  144.3430 O   0  0  0  0  0  1  0  0  0  0  0  0
  182.5430  179.7210  140.1490 F   0  0  0  0  0  0  0  0  0  0  0  0
  183.0620  179.5950  144.2990 C   0  0  0  0  0  2  0  0  0  0  0  0
  184.8350  178.4170  142.8730 C   0  0  0  0  0  0  0  0  0  0  0  0
  181.8170  179.0030  142.2740 C   0  0  0  0  0  3  0  0  0  0  0  0
  184.3240  178.8120  144.0630 C   0  0  0  0  0  3  0  0  0  0  0  0
  184.1730  178.6120  141.5140 C   0  0  1  0  0  3  0  0  0  0  0  0
  183.8810  177.2720  140.8490 C   0  0  0  0  0  1  0  0  0  0  0  0
  181.8820  179.0010  143.6010 C   0  0  0  0  0  0  0  0  0  0  0  0
  191.8050  178.7010  144.3500 C   0  0  0  0  0  2  0  0  0  0  0  0
  190.9180  179.7090  143.9690 O   0  0  0  0  0  1  0  0  0  0  0  0
  1  3  1  1  0  0  0
  2  4  1  0  0  0  0
  3 18  1  0  0  0  0
  4  1  1  0  0  0  0
  4 10  1  0  0  0  0
  5  2  1  0  0  0  0
  5 17  1  0  0  0  0
  6 19  1  0  0  0  0
  6 20  1  0  0  0  0
  7 14  1  0  0  0  0
  7  2  1  0  0  0  0
  8  9  1  0  0  0  0
  9 11  1  0  0  0  0
 10 13  1  0  0  0  0
 11  5  1  0  0  0  0
 12 10  1  0  0  0  0
 13 18  1  0  0  0  0
 14 15  1  0  0  0  0
 15  1  1  0  0  0  0
 16  9  1  0  0  0  0
 16  7  1  0  0  0  0
 17 31  1  0  0  0  0
 17 12  1  0  0  0  0
 19  8  1  0  0  0  0
 20 16  1  0  0  0  0
 21 28  1  0  0  0  0
 21 26  1  0  0  0  0
 23 21  1  0  0  0  0
 25 15  1  0  0  0  0
 25 27  2  0  0  0  0
 26 30  2  0  0  0  0
 27 24  1  0  0  0  0
 28 25  1  0  0  0  0
 29 28  1  0  0  0  0
 30 24  1  0  0  0  0
 30 22  1  0  0  0  0
 32 31  1  0  0  0  0
M  END
>  <MODEL>
5

>  <REMARK>
 VINA RESULT:      -9.3      2.893      6.271
  Name = 
  2 active torsions:
  status: ('A' for Active; 'I' for Inactive)
    1  A    between atoms: C_13  and  C_29
    2  A    between atoms: C_16  and  C_27
                            x       y       z     vdW  Elec       q    Type
                         _______ _______ _______ _____ _____    ______ ____

>  <TORSDO>
F 2

$$$$
=
 OpenBabel11052414413D

 32 37  0  0  1  0  0  0  0  0999 V2000
  185.8750  178.0340  140.2560 C   0  0  1  0  0  3  0  0  0  0  0  0
  187.0230  177.8800  142.4570 C   0  0  1  0  0  3  0  0  0  0  0  0
  186.0150  178.5280  138.8170 C   0  0  0  0  0  2  0  0  0  0  0  0
  187.1460  178.3970  141.0350 C   0  0  1  0  0  3  0  0  0  0  0  0
  188.3200  178.1480  143.2130 C   0  0  1  0  0  3  0  0  0  0  0  0
  184.8740  178.2520  146.8980 C   0  0  0  0  0  2  0  0  0  0  0  0
  185.8440  178.5420  143.1690 C   0  0  1  0  0  3  0  0  0  0  0  0
  187.1060  177.8700  146.7330 C   0  0  0  0  0  2  0  0  0  0  0  0
  187.1810  178.3110  145.2740 C   0  0  1  0  0  3  0  0  0  0  0  0
  188.3810  177.7500  140.3880 C   0  0  2  0  0  3  0  0  0  0  0  0
  188.2420  177.5930  144.5650 N   0  0  0  0  0  2  0  0  0  0  0  0
  189.5640  178.0900  141.0900 O   0  0  0  0  0  0  0  0  0  0  0  0
  188.5020  178.2090  138.9370 C   0  0  0  0  0  2  0  0  0  0  0  0
  184.5570  178.1810  142.4250 C   0  0  0  0  0  2  0  0  0  0  0  0
  184.6310  178.6240  140.9550 C   0  0  2  0  0  3  0  0  0  0  0  0
  185.8170  178.0460  144.6160 C   0  0  1  0  0  3  0  0  0  0  0  0
  189.5160  177.5910  142.4180 C   0  0  2  0  0  3  0  0  0  0  0  0
  187.2300  177.8740  138.1590 C   0  0  0  0  0  2  0  0  0  0  0  0
  186.1330  178.6350  147.4050 O   0  0  0  0  0  0  0  0  0  0  0  0
  184.7210  178.7120  145.4450 C   0  0  0  0  0  2  0  0  0  0  0  0
  181.0510  179.1210  139.3300 C   0  0  1  0  0  3  0  0  0  0  0  0
  181.5460  176.3040  136.9310 O   0  0  0  0  0  1  0  0  0  0  0  0
  180.3350  180.2840  139.1130 F   0  0  0  0  0  0  0  0  0  0  0  0
  181.8320  176.3880  139.4070 C   0  0  0  0  0  2  0  0  0  0  0  0
  183.3440  178.2770  140.2480 C   0  0  0  0  0  0  0  0  0  0  0  0
  181.0880  178.3060  138.0760 C   0  0  0  0  0  3  0  0  0  0  0  0
  183.0740  176.9700  140.0240 C   0  0  0  0  0  3  0  0  0  0  0  0
  182.4660  179.4500  139.8290 C   0  0  1  0  0  3  0  0  0  0  0  0
  183.1990  180.3620  138.8510 C   0  0  0  0  0  1  0  0  0  0  0  0
  181.4820  177.0360  138.1070 C   0  0  0  0  0  0  0  0  0  0  0  0
  189.7370  176.0730  142.5110 C   0  0  0  0  0  2  0  0  0  0  0  0
  190.8810  175.7650  143.2480 O   0  0  0  0  0  1  0  0  0  0  0  0
  1  3  1  6  0  0  0
  1 15  1  0  0  0  0
  1  4  1  0  0  0  0
  2  7  1  0  0  0  0
  2  5  1  0  0  0  0
  4  2  1  0  0  0  0
  5 11  1  0  0  0  0
  6 19  1  0  0  0  0
  7 16  1  0  0  0  0
  8 19  1  0  0  0  0
  9  8  1  0  0  0  0
 10  4  1  0  0  0  0
 10 12  1  0  0  0  0
 11  9  1  0  0  0  0
 12 17  1  0  0  0  0
 13 10  1  0  0  0  0
 14  7  1  0  0  0  0
 15 14  1  0  0  0  0
 16  9  1  0  0  0  0
 16 20  1  0  0  0  0
 17 31  1  0  0  0  0
 17  5  1  0  0  0  0
 18  3  1  0  0  0  0
 18 13  1  0  0  0  0
 20  6  1  0  0  0  0
 21 28  1  0  0  0  0
 22 30  1  0  0  0  0
 23 21  1  0  0  0  0
 24 27  1  0  0  0  0
 25 15  1  0  0  0  0
 26 30  2  0  0  0  0
 26 21  1  0  0  0  0
 27 25  2  0  0  0  0
 28 25  1  0  0  0  0
 29 28  1  0  0  0  0
 30 24  1  0  0  0  0
 31 32  1  0  0  0  0
M  END
>  <MODEL>
6

>  <REMARK>
 VINA RESULT:      -9.3      3.343      8.231
  Name = 
  2 active torsions:
  status: ('A' for Active; 'I' for Inactive)
    1  A    between atoms: C_13  and  C_29
    2  A    between atoms: C_16  and  C_27
                            x       y       z     vdW  Elec       q    Type
                         _______ _______ _______ _____ _____    ______ ____

>  <TORSDO>
F 2

$$$$
=
 OpenBabel11052414413D

 32 37  0  0  1  0  0  0  0  0999 V2000
  186.0770  178.4900  142.4150 C   0  0  1  0  0  3  0  0  0  0  0  0
  183.7710  178.8730  141.5660 C   0  0  1  0  0  3  0  0  0  0  0  0
  187.4330  177.8680  142.0830 C   0  0  0  0  0  2  0  0  0  0  0  0
  185.1090  178.2300  141.2540 C   0  0  1  0  0  3  0  0  0  0  0  0
  182.8310  178.7050  140.3770 C   0  0  1  0  0  3  0  0  0  0  0  0
  179.6300  178.8650  144.2750 C   0  0  0  0  0  2  0  0  0  0  0  0
  183.1580  178.2540  142.8220 C   0  0  1  0  0  3  0  0  0  0  0  0
  179.5410  179.2810  142.0440 C   0  0  0  0  0  2  0  0  0  0  0  0
  180.9290  178.7080  141.7740 C   0  0  1  0  0  3  0  0  0  0  0  0
  185.6490  178.8410  139.9510 C   0  0  2  0  0  3  0  0  0  0  0  0
  181.5590  179.3820  140.6370 N   0  0  0  0  0  2  0  0  0  0  0  0
  184.7710  178.5940  138.8670 O   0  0  0  0  0  0  0  0  0  0  0  0
  187.0220  178.2530  139.6370 C   0  0  0  0  0  2  0  0  0  0  0  0
  184.0920  178.5150  144.0040 C   0  0  0  0  0  2  0  0  0  0  0  0
  185.4920  177.9390  143.7340 C   0  0  2  0  0  3  0  0  0  0  0  0
  181.7800  178.8800  143.0440 C   0  0  1  0  0  3  0  0  0  0  0  0
  183.5140  179.2130  139.0940 C   0  0  2  0  0  3  0  0  0  0  0  0
  187.9860  178.4850  140.7990 C   0  0  0  0  0  2  0  0  0  0  0  0
  178.9310  178.5590  143.0900 O   0  0  0  0  0  0  0  0  0  0  0  0
  181.0410  178.2690  144.2320 C   0  0  0  0  0  2  0  0  0  0  0  0
  186.7330  179.4500  147.1810 C   0  0  1  0  0  3  0  0  0  0  0  0
  188.8210  176.4530  147.9530 O   0  0  0  0  0  1  0  0  0  0  0  0
  186.0610  180.2520  148.0850 F   0  0  0  0  0  0  0  0  0  0  0  0
  188.7330  177.8780  145.9080 C   0  0  0  0  0  2  0  0  0  0  0  0
  186.3890  178.1900  144.9200 C   0  0  0  0  0  0  0  0  0  0  0  0
  187.3610  178.2950  147.8960 C   0  0  0  0  0  3  0  0  0  0  0  0
  187.6480  177.6940  144.8830 C   0  0  0  0  0  3  0  0  0  0  0  0
  185.7780  178.9740  146.0760 C   0  0  1  0  0  3  0  0  0  0  0  0
  184.5760  178.2410  146.6600 C   0  0  0  0  0  1  0  0  0  0  0  0
  188.2740  177.5430  147.2900 C   0  0  0  0  0  0  0  0  0  0  0  0
  183.5380  180.7380  138.9020 C   0  0  0  0  0  2  0  0  0  0  0  0
  182.3470  181.2040  138.3440 O   0  0  0  0  0  1  0  0  0  0  0  0
  1  3  1  6  0  0  0
  1 15  1  0  0  0  0
  2  7  1  0  0  0  0
  4  2  1  0  0  0  0
  4  1  1  0  0  0  0
  5 11  1  0  0  0  0
  5  2  1  0  0  0  0
  7 16  1  0  0  0  0
  7 14  1  0  0  0  0
  8 19  1  0  0  0  0
  9  8  1  0  0  0  0
  9 16  1  0  0  0  0
 10  4  1  0  0  0  0
 11  9  1  0  0  0  0
 12 17  1  0  0  0  0
 12 10  1  0  0  0  0
 13 10  1  0  0  0  0
 13 18  1  0  0  0  0
 15 14  1  0  0  0  0
 15 25  1  0  0  0  0
 16 20  1  0  0  0  0
 17  5  1  0  0  0  0
 18  3  1  0  0  0  0
 19  6  1  0  0  0  0
 20  6  1  0  0  0  0
 21 26  1  0  0  0  0
 21 23  1  0  0  0  0
 24 30  1  0  0  0  0
 25 28  1  0  0  0  0
 27 25  2  0  0  0  0
 27 24  1  0  0  0  0
 28 29  1  0  0  0  0
 28 21  1  0  0  0  0
 30 26  2  0  0  0  0
 30 22  1  0  0  0  0
 31 17  1  0  0  0  0
 32 31  1  0  0  0  0
M  END
>  <MODEL>
7

>  <REMARK>
 VINA RESULT:      -8.8      2.492      5.349
  Name = 
  2 active torsions:
  status: ('A' for Active; 'I' for Inactive)
    1  A    between atoms: C_13  and  C_29
    2  A    between atoms: C_16  and  C_27
                            x       y       z     vdW  Elec       q    Type
                         _______ _______ _______ _____ _____    ______ ____

>  <TORSDO>
F 2

$$$$
=
 OpenBabel11052414413D

 32 37  0  0  1  0  0  0  0  0999 V2000
  186.7060  178.0170  140.3930 C   0  0  1  0  0  3  0  0  0  0  0  0
  187.6320  177.7270  142.6830 C   0  0  1  0  0  3  0  0  0  0  0  0
  187.0140  178.5270  138.9860 C   0  0  0  0  0  2  0  0  0  0  0  0
  187.9240  178.2610  141.2930 C   0  0  1  0  0  3  0  0  0  0  0  0
  188.8720  177.8750  143.5590 C   0  0  1  0  0  3  0  0  0  0  0  0
  185.1210  178.1780  146.9220 C   0  0  0  0  0  2  0  0  0  0  0  0
  186.4480  178.4660  143.3050 C   0  0  1  0  0  3  0  0  0  0  0  0
  187.3230  177.6220  146.9470 C   0  0  0  0  0  2  0  0  0  0  0  0
  187.5650  178.0860  145.5140 C   0  0  1  0  0  3  0  0  0  0  0  0
  189.1600  177.5320  140.7420 C   0  0  2  0  0  3  0  0  0  0  0  0
  188.6270  177.3000  144.8830 N   0  0  0  0  0  2  0  0  0  0  0  0
  190.2960  177.7610  141.5560 O   0  0  0  0  0  0  0  0  0  0  0  0
  189.4480  178.0090  139.3200 C   0  0  0  0  0  2  0  0  0  0  0  0
  185.2110  178.2240  142.4390 C   0  0  0  0  0  2  0  0  0  0  0  0
  185.4530  178.6900  140.9940 C   0  0  2  0  0  3  0  0  0  0  0  0
  186.2500  177.9440  144.7290 C   0  0  1  0  0  3  0  0  0  0  0  0
  190.0880  177.2400  142.8600 C   0  0  2  0  0  3  0  0  0  0  0  0
  188.2300  177.7930  138.4230 C   0  0  0  0  0  2  0  0  0  0  0  0
  186.3540  178.4490  147.5500 O   0  0  0  0  0  0  0  0  0  0  0  0
  185.1380  178.6790  145.4750 C   0  0  0  0  0  2  0  0  0  0  0  0
  181.8150  177.4380  140.0460 C   0  0  1  0  0  3  0  0  0  0  0  0
  181.3060  180.2000  137.5860 O   0  0  0  0  0  1  0  0  0  0  0  0
  180.8520  176.8420  140.8400 F   0  0  0  0  0  0  0  0  0  0  0  0
  183.1790  178.5720  137.8240 C   0  0  0  0  0  2  0  0  0  0  0  0
  184.2130  178.4620  140.1650 C   0  0  0  0  0  0  0  0  0  0  0  0
  181.2100  178.5740  139.2820 C   0  0  0  0  0  3  0  0  0  0  0  0
  184.2590  178.7780  138.8500 C   0  0  0  0  0  3  0  0  0  0  0  0
  183.0010  177.9050  140.9030 C   0  0  1  0  0  3  0  0  0  0  0  0
  182.5470  178.8540  142.0060 C   0  0  0  0  0  1  0  0  0  0  0  0
  181.8620  179.1240  138.2620 C   0  0  0  0  0  0  0  0  0  0  0  0
  190.1810  175.7080  142.9290 C   0  0  0  0  0  2  0  0  0  0  0  0
  191.3120  175.2940  143.6350 O   0  0  0  0  0  1  0  0  0  0  0  0
  1  3  1  6  0  0  0
  1 15  1  0  0  0  0
  1  4  1  0  0  0  0
  2  7  1  0  0  0  0
  2  5  1  0  0  0  0
  4  2  1  0  0  0  0
  5 11  1  0  0  0  0
  6 19  1  0  0  0  0
  7 16  1  0  0  0  0
  8 19  1  0  0  0  0
  9  8  1  0  0  0  0
 10  4  1  0  0  0  0
 10 12  1  0  0  0  0
 11  9  1  0  0  0  0
 12 17  1  0  0  0  0
 13 10  1  0  0  0  0
 14  7  1  0  0  0  0
 15 14  1  0  0  0  0
 16 20  1  0  0  0  0
 16  9  1  0  0  0  0
 17 31  1  0  0  0  0
 17  5  1  0  0  0  0
 18  3  1  0  0  0  0
 18 13  1  0  0  0  0
 20  6  1  0  0  0  0
 21 23  1  0  0  0  0
 21 28  1  0  0  0  0
 22 30  1  0  0  0  0
 24 30  1  0  0  0  0
 24 27  1  0  0  0  0
 25 28  1  0  0  0  0
 25 15  1  0  0  0  0
 26 21  1  0  0  0  0
 27 25  2  0  0  0  0
 28 29  1  0  0  0  0
 30 26  2  0  0  0  0
 31 32  1  0  0  0  0
M  END
>  <MODEL>
8

>  <REMARK>
 VINA RESULT:      -8.7      3.174      8.121
  Name = 
  2 active torsions:
  status: ('A' for Active; 'I' for Inactive)
    1  A    between atoms: C_13  and  C_29
    2  A    between atoms: C_16  and  C_27
                            x       y       z     vdW  Elec       q    Type
                         _______ _______ _______ _____ _____    ______ ____

>  <TORSDO>
F 2

$$$$
=
 OpenBabel11052414413D

 32 37  0  0  1  0  0  0  0  0999 V2000
  185.9220  178.5050  143.2710 C   0  0  1  0  0  3  0  0  0  0  0  0
  187.3520  178.1150  145.2680 C   0  0  1  0  0  3  0  0  0  0  0  0
  184.4890  178.4550  142.7430 C   0  0  0  0  0  2  0  0  0  0  0  0
  185.9340  178.0370  144.7310 C   0  0  1  0  0  3  0  0  0  0  0  0
  187.3600  177.7460  146.7480 C   0  0  1  0  0  3  0  0  0  0  0  0
  191.9640  176.3230  145.2460 C   0  0  0  0  0  2  0  0  0  0  0  0
  188.2760  177.1870  144.4810 C   0  0  1  0  0  3  0  0  0  0  0  0
  190.9710  176.9130  147.2020 C   0  0  0  0  0  2  0  0  0  0  0  0
  189.5650  176.9130  146.6110 C   0  0  1  0  0  3  0  0  0  0  0  0
  185.0370  178.9370  145.5960 C   0  0  2  0  0  3  0  0  0  0  0  0
  188.7110  177.8850  147.2960 N   0  0  0  0  0  2  0  0  0  0  0  0
  185.0280  178.5060  146.9460 O   0  0  0  0  0  0  0  0  0  0  0  0
  183.6120  178.9220  145.0490 C   0  0  0  0  0  2  0  0  0  0  0  0
  188.3000  177.6420  143.0210 C   0  0  0  0  0  2  0  0  0  0  0  0
  186.8840  177.6430  142.4240 C   0  0  2  0  0  3  0  0  0  0  0  0
  189.6680  177.2460  145.1130 C   0  0  1  0  0  3  0  0  0  0  0  0
  186.3290  178.6000  147.5070 C   0  0  2  0  0  3  0  0  0  0  0  0
  183.5930  179.3620  143.5850 C   0  0  0  0  0  2  0  0  0  0  0  0
  191.7430  175.9130  146.5770 O   0  0  0  0  0  0  0  0  0  0  0  0
  190.6540  176.2860  144.4510 C   0  0  0  0  0  2  0  0  0  0  0  0
  188.4220  178.8000  138.9600 C   0  0  1  0  0  3  0  0  0  0  0  0
  185.6130  177.3100  137.0050 O   0  0  0  0  0  1  0  0  0  0  0  0
  189.7460  178.9000  138.5720 F   0  0  0  0  0  0  0  0  0  0  0  0
  185.5790  178.8650  138.9540 C   0  0  0  0  0  2  0  0  0  0  0  0
  186.9350  178.0750  140.9790 C   0  0  0  0  0  0  0  0  0  0  0  0
  187.6470  178.0420  137.9290 C   0  0  0  0  0  3  0  0  0  0  0  0
  185.7660  178.3540  140.3550 C   0  0  0  0  0  3  0  0  0  0  0  0
  188.3180  178.1380  140.3410 C   0  0  1  0  0  3  0  0  0  0  0  0
  188.9890  176.7680  140.3510 C   0  0  0  0  0  1  0  0  0  0  0  0
  186.3180  178.0480  137.9440 C   0  0  0  0  0  0  0  0  0  0  0  0
  186.7530  180.0410  147.8300 C   0  0  0  0  0  2  0  0  0  0  0  0
  185.7560  180.7270  148.5250 O   0  0  0  0  0  1  0  0  0  0  0  0
  1  3  1  6  0  0  0
  1  4  1  0  0  0  0
  2  5  1  0  0  0  0
  3 18  1  0  0  0  0
  4  2  1  0  0  0  0
  4 10  1  0  0  0  0
  5 11  1  0  0  0  0
  5 17  1  0  0  0  0
  6 19  1  0  0  0  0
  7 16  1  0  0  0  0
  7  2  1  0  0  0  0
  9  8  1  0  0  0  0
  9 11  1  0  0  0  0
 10 12  1  0  0  0  0
 12 17  1  0  0  0  0
 13 10  1  0  0  0  0
 14  7  1  0  0  0  0
 15 14  1  0  0  0  0
 15  1  1  0  0  0  0
 16  9  1  0  0  0  0
 17 31  1  0  0  0  0
 18 13  1  0  0  0  0
 19  8  1  0  0  0  0
 20 16  1  0  0  0  0
 20  6  1  0  0  0  0
 21 28  1  0  0  0  0
 22 30  1  0  0  0  0
 23 21  1  0  0  0  0
 24 27  1  0  0  0  0
 25 15  1  0  0  0  0
 26 30  2  0  0  0  0
 26 21  1  0  0  0  0
 27 25  2  0  0  0  0
 28 29  1  0  0  0  0
 28 25  1  0  0  0  0
 30 24  1  0  0  0  0
 31 32  1  0  0  0  0
M  END
>  <MODEL>
9

>  <REMARK>
 VINA RESULT:      -8.5      2.839      6.873
  Name = 
  2 active torsions:
  status: ('A' for Active; 'I' for Inactive)
    1  A    between atoms: C_13  and  C_29
    2  A    between atoms: C_16  and  C_27
                            x       y       z     vdW  Elec       q    Type
                         _______ _______ _______ _____ _____    ______ ____

>  <TORSDO>
F 2

$$$$
