=
 OpenBabel11052413133D

 31 35  0  0  1  0  0  0  0  0999 V2000
  179.6980  176.3290  138.3000 C   0  0  2  0  0  3  0  0  0  0  0  0
  183.2780  176.9980  138.0390 C   0  0  1  0  0  3  0  0  0  0  0  0
  184.1680  175.8520  137.5700 C   0  0  0  0  0  0  0  0  0  0  0  0
  183.7860  173.5600  136.7070 C   0  0  0  0  0  3  0  0  0  0  0  0
  182.0470  176.5190  138.6790 N   0  0  2  0  0  0  0  0  0  0  0  0
  179.0560  178.4700  139.3830 C   0  0  0  0  0  1  0  0  0  0  0  0
  183.7940  174.4400  137.9110 C   0  0  0  0  0  2  0  0  0  0  0  0
  183.5700  178.3350  140.3380 C   0  0  2  0  0  3  0  0  0  0  0  0
  179.1370  175.0080  138.7920 C   0  0  0  0  0  1  0  0  0  0  0  0
  185.8770  177.8810  136.9220 S   0  0  0  0  0  0  0  0  0  0  0  0
  184.8850  173.3020  136.0010 C   0  0  0  0  0  3  0  0  0  0  0  0
  182.1080  177.9400  140.6180 C   0  0  0  0  0  2  0  0  0  0  0  0
  184.0900  177.8940  138.9780 C   0  0  0  0  0  0  0  0  0  0  0  0
  181.0720  176.1010  137.6830 C   0  0  0  0  0  2  0  0  0  0  0  0
  186.2030  173.9110  136.2550 C   0  0  0  0  0  3  0  0  0  0  0  0
  181.3890  177.6410  139.3190 C   0  0  2  0  0  3  0  0  0  0  0  0
  179.9440  177.2450  139.4840 C   0  0  2  0  0  3  0  0  0  0  0  0
  185.3070  178.2960  138.5810 C   0  0  0  0  0  3  0  0  0  0  0  0
  185.3940  176.1500  137.0830 C   0  0  0  0  0  0  0  0  0  0  0  0
  186.4200  175.1420  136.7320 C   0  0  0  0  0  3  0  0  0  0  0  0
  185.6210  179.7810  141.6870 O   0  0  0  0  0  0  0  0  0  0  0  0
  185.4200  178.5920  142.0580 C   0  0  0  0  0  0  0  0  0  0  0  0
  184.4280  177.8060  141.3900 N   0  0  0  0  0  2  0  0  0  0  0  0
  188.1550  177.0290  145.1190 C   0  0  2  0  0  3  0  0  0  0  0  0
  187.5700  177.4090  142.7160 C   0  0  0  0  0  2  0  0  0  0  0  0
  184.7230  178.8390  144.9420 C   0  0  0  0  0  1  0  0  0  0  0  0
  189.1110  178.2080  145.1980 C   0  0  0  0  0  1  0  0  0  0  0  0
  188.1310  176.4140  143.7280 C   0  0  0  0  0  2  0  0  0  0  0  0
  185.9410  178.1210  144.4620 C   0  0  0  0  0  0  0  0  0  0  0  0
  186.2550  178.0160  143.1440 C   0  0  0  0  0  0  0  0  0  0  0  0
  186.7450  177.4360  145.5400 C   0  0  0  0  0  2  0  0  0  0  0  0
  1  9  1  1  0  0  0
  1 17  1  0  0  0  0
  2  3  1  1  0  0  0
  2  5  1  0  0  0  0
  2 13  1  0  0  0  0
  3  7  1  0  0  0  0
  4  7  1  0  0  0  0
  5 14  1  6  0  0  0
  5 16  1  0  0  0  0
  8 12  1  0  0  0  0
  8 23  1  1  0  0  0
 10 19  1  0  0  0  0
 10 18  1  0  0  0  0
 11 15  1  0  0  0  0
 11  4  2  0  0  0  0
 13  8  1  0  0  0  0
 14  1  1  0  0  0  0
 15 20  2  0  0  0  0
 16 17  1  0  0  0  0
 16 12  1  1  0  0  0
 17  6  1  6  0  0  0
 18 13  2  0  0  0  0
 19  3  2  0  0  0  0
 20 19  1  0  0  0  0
 21 22  2  0  0  0  0
 22 30  1  0  0  0  0
 23 22  1  0  0  0  0
 24 27  1  6  0  0  0
 24 31  1  0  0  0  0
 25 30  1  0  0  0  0
 25 28  1  0  0  0  0
 28 24  1  0  0  0  0
 29 26  1  0  0  0  0
 29 31  1  0  0  0  0
 30 29  2  0  0  0  0
M  END
>  <MODEL>
1

>  <REMARK>
 VINA RESULT:      -8.1      0.000      0.000
  Name = 
  2 active torsions:
  status: ('A' for Active; 'I' for Inactive)
    1  A    between atoms: C_9  and  C_22
    2  A    between atoms: C_15  and  N_23
                            x       y       z     vdW  Elec       q    Type
                         _______ _______ _______ _____ _____    ______ ____

>  <TORSDO>
F 2

$$$$
=
 OpenBabel11052413133D

 31 35  0  0  1  0  0  0  0  0999 V2000
  180.2510  178.5800  137.1660 C   0  0  2  0  0  3  0  0  0  0  0  0
  183.7140  177.4540  137.4390 C   0  0  1  0  0  3  0  0  0  0  0  0
  183.9680  175.9550  137.3370 C   0  0  0  0  0  0  0  0  0  0  0  0
  182.5880  173.9620  136.8190 C   0  0  0  0  0  3  0  0  0  0  0  0
  182.3600  177.7570  137.9210 N   0  0  2  0  0  0  0  0  0  0  0  0
  180.6490  180.9640  137.7390 C   0  0  0  0  0  1  0  0  0  0  0  0
  182.9310  174.9940  137.8390 C   0  0  0  0  0  2  0  0  0  0  0  0
  184.4420  179.0040  139.4940 C   0  0  2  0  0  3  0  0  0  0  0  0
  179.0840  177.8190  137.7650 C   0  0  0  0  0  1  0  0  0  0  0  0
  186.4910  176.7610  136.6710 S   0  0  0  0  0  0  0  0  0  0  0  0
  183.4730  173.0720  136.3740 C   0  0  0  0  0  3  0  0  0  0  0  0
  182.9560  179.4000  139.5720 C   0  0  0  0  0  2  0  0  0  0  0  0
  184.7850  178.0710  138.3430 C   0  0  0  0  0  0  0  0  0  0  0  0
  181.3830  177.6120  136.8510 C   0  0  0  0  0  2  0  0  0  0  0  0
  184.8980  173.0510  136.7530 C   0  0  0  0  0  3  0  0  0  0  0  0
  182.2830  179.1700  138.2340 C   0  0  2  0  0  3  0  0  0  0  0  0
  180.8200  179.5300  138.2030 C   0  0  2  0  0  3  0  0  0  0  0  0
  186.0700  177.7660  138.1080 C   0  0  0  0  0  3  0  0  0  0  0  0
  185.2180  175.5350  137.0340 C   0  0  0  0  0  0  0  0  0  0  0  0
  185.6480  174.1190  137.0460 C   0  0  0  0  0  3  0  0  0  0  0  0
  186.7100  179.7760  141.0370 O   0  0  0  0  0  0  0  0  0  0  0  0
  185.9840  178.8570  141.5060 C   0  0  0  0  0  0  0  0  0  0  0  0
  184.8520  178.4040  140.7560 N   0  0  0  0  0  2  0  0  0  0  0  0
  187.3840  177.0820  145.2720 C   0  0  2  0  0  3  0  0  0  0  0  0
  187.5920  177.3730  142.7950 C   0  0  0  0  0  2  0  0  0  0  0  0
  184.5530  179.4440  144.0510 C   0  0  0  0  0  1  0  0  0  0  0  0
  188.4830  178.0790  145.6020 C   0  0  0  0  0  1  0  0  0  0  0  0
  187.6430  176.3760  143.9490 C   0  0  0  0  0  2  0  0  0  0  0  0
  185.6980  178.4900  143.9670 C   0  0  0  0  0  0  0  0  0  0  0  0
  186.3500  178.2300  142.8030 C   0  0  0  0  0  0  0  0  0  0  0  0
  186.0170  177.7600  145.2490 C   0  0  0  0  0  2  0  0  0  0  0  0
  1  9  1  1  0  0  0
  1 17  1  0  0  0  0
  2  3  1  1  0  0  0
  2  5  1  0  0  0  0
  2 13  1  0  0  0  0
  3  7  1  0  0  0  0
  4  7  1  0  0  0  0
  5 14  1  6  0  0  0
  5 16  1  0  0  0  0
  8 12  1  0  0  0  0
  8 23  1  1  0  0  0
 10 19  1  0  0  0  0
 10 18  1  0  0  0  0
 11 15  1  0  0  0  0
 11  4  2  0  0  0  0
 13  8  1  0  0  0  0
 14  1  1  0  0  0  0
 15 20  2  0  0  0  0
 16 12  1  1  0  0  0
 17  6  1  6  0  0  0
 17 16  1  0  0  0  0
 18 13  2  0  0  0  0
 19 20  1  0  0  0  0
 19  3  2  0  0  0  0
 21 22  2  0  0  0  0
 22 30  1  0  0  0  0
 23 22  1  0  0  0  0
 24 27  1  6  0  0  0
 25 30  1  0  0  0  0
 25 28  1  0  0  0  0
 28 24  1  0  0  0  0
 29 26  1  0  0  0  0
 29 31  1  0  0  0  0
 30 29  2  0  0  0  0
 31 24  1  0  0  0  0
M  END
>  <MODEL>
2

>  <REMARK>
 VINA RESULT:      -7.6      1.339      1.521
  Name = 
  2 active torsions:
  status: ('A' for Active; 'I' for Inactive)
    1  A    between atoms: C_9  and  C_22
    2  A    between atoms: C_15  and  N_23
                            x       y       z     vdW  Elec       q    Type
                         _______ _______ _______ _____ _____    ______ ____

>  <TORSDO>
F 2

$$$$
=
 OpenBabel11052413133D

 31 35  0  0  1  0  0  0  0  0999 V2000
  181.6420  176.9730  137.7030 C   0  0  2  0  0  3  0  0  0  0  0  0
  185.0490  176.1800  136.6560 C   0  0  1  0  0  3  0  0  0  0  0  0
  185.4350  174.7060  136.6020 C   0  0  0  0  0  0  0  0  0  0  0  0
  184.2330  172.5550  136.8780 C   0  0  0  0  0  3  0  0  0  0  0  0
  183.9660  176.4360  137.6130 N   0  0  2  0  0  0  0  0  0  0  0  0
  181.9210  179.4380  137.8380 C   0  0  0  0  0  1  0  0  0  0  0  0
  184.8120  173.7430  137.5690 C   0  0  0  0  0  2  0  0  0  0  0  0
  186.3170  178.0530  138.0830 C   0  0  2  0  0  3  0  0  0  0  0  0
  180.9130  176.2110  138.7930 C   0  0  0  0  0  1  0  0  0  0  0  0
  187.3680  175.6130  134.8980 S   0  0  0  0  0  0  0  0  0  0  0  0
  184.9810  171.6870  136.1990 C   0  0  0  0  0  3  0  0  0  0  0  0
  184.9430  178.3350  138.7180 C   0  0  0  0  0  2  0  0  0  0  0  0
  186.2990  177.0000  136.9860 C   0  0  0  0  0  0  0  0  0  0  0  0
  182.6760  176.0650  137.0500 C   0  0  0  0  0  2  0  0  0  0  0  0
  186.4290  171.8340  135.9690 C   0  0  0  0  0  3  0  0  0  0  0  0
  183.8350  177.8680  137.7950 C   0  0  2  0  0  3  0  0  0  0  0  0
  182.4430  178.1000  138.3260 C   0  0  2  0  0  3  0  0  0  0  0  0
  187.4170  176.7700  136.2810 C   0  0  0  0  0  3  0  0  0  0  0  0
  186.5090  174.3500  135.8590 C   0  0  0  0  0  0  0  0  0  0  0  0
  187.0890  172.9890  135.8310 C   0  0  0  0  0  3  0  0  0  0  0  0
  188.8460  179.2770  138.5560 O   0  0  0  0  0  0  0  0  0  0  0  0
  188.5070  178.3440  139.3350 C   0  0  0  0  0  0  0  0  0  0  0  0
  187.2630  177.6690  139.1220 N   0  0  0  0  0  2  0  0  0  0  0  0
  190.9690  176.9960  142.7130 C   0  0  2  0  0  3  0  0  0  0  0  0
  188.9250  178.1400  141.8320 C   0  0  0  0  0  2  0  0  0  0  0  0
  191.0810  176.9350  138.8310 C   0  0  0  0  0  1  0  0  0  0  0  0
  190.2550  175.6880  143.0120 C   0  0  0  0  0  1  0  0  0  0  0  0
  190.0430  178.1930  142.8700 C   0  0  0  0  0  2  0  0  0  0  0  0
  190.6090  177.2930  140.2020 C   0  0  0  0  0  0  0  0  0  0  0  0
  189.4300  177.9320  140.4250 C   0  0  0  0  0  0  0  0  0  0  0  0
  191.5790  176.9810  141.3140 C   0  0  0  0  0  2  0  0  0  0  0  0
  1 17  1  0  0  0  0
  1  9  1  1  0  0  0
  2  3  1  1  0  0  0
  2 13  1  0  0  0  0
  2  5  1  0  0  0  0
  3  7  1  0  0  0  0
  4  7  1  0  0  0  0
  5 14  1  6  0  0  0
  5 16  1  0  0  0  0
  8 12  1  0  0  0  0
  8 23  1  1  0  0  0
 10 19  1  0  0  0  0
 10 18  1  0  0  0  0
 11  4  2  0  0  0  0
 13  8  1  0  0  0  0
 14  1  1  0  0  0  0
 15 11  1  0  0  0  0
 16 17  1  0  0  0  0
 16 12  1  1  0  0  0
 17  6  1  6  0  0  0
 18 13  2  0  0  0  0
 19  3  2  0  0  0  0
 20 19  1  0  0  0  0
 20 15  2  0  0  0  0
 21 22  2  0  0  0  0
 22 30  1  0  0  0  0
 23 22  1  0  0  0  0
 24 28  1  0  0  0  0
 24 27  1  6  0  0  0
 25 28  1  0  0  0  0
 26 29  1  0  0  0  0
 29 30  2  0  0  0  0
 29 31  1  0  0  0  0
 30 25  1  0  0  0  0
 31 24  1  0  0  0  0
M  END
>  <MODEL>
3

>  <REMARK>
 VINA RESULT:      -7.2      2.534      3.604
  Name = 
  2 active torsions:
  status: ('A' for Active; 'I' for Inactive)
    1  A    between atoms: C_9  and  C_22
    2  A    between atoms: C_15  and  N_23
                            x       y       z     vdW  Elec       q    Type
                         _______ _______ _______ _____ _____    ______ ____

>  <TORSDO>
F 2

$$$$
=
 OpenBabel11052413133D

 31 35  0  0  1  0  0  0  0  0999 V2000
  188.4030  178.6550  140.6240 C   0  0  2  0  0  3  0  0  0  0  0  0
  184.8670  178.8540  139.7320 C   0  0  1  0  0  3  0  0  0  0  0  0
  183.8560  178.7330  140.8670 C   0  0  0  0  0  0  0  0  0  0  0  0
  183.9830  178.6120  143.3400 C   0  0  0  0  0  3  0  0  0  0  0  0
  186.1350  178.1840  140.0450 N   0  0  2  0  0  0  0  0  0  0  0  0
  189.3070  178.6040  138.3110 C   0  0  0  0  0  1  0  0  0  0  0  0
  184.1790  177.8780  142.0570 C   0  0  0  0  0  2  0  0  0  0  0  0
  184.9470  177.2870  137.5650 C   0  0  2  0  0  3  0  0  0  0  0  0
  188.9350  177.7170  141.6890 C   0  0  0  0  0  1  0  0  0  0  0  0
  182.2110  180.0030  139.0950 S   0  0  0  0  0  0  0  0  0  0  0  0
  182.7900  179.0510  143.7380 C   0  0  0  0  0  3  0  0  0  0  0  0
  186.4040  176.9990  137.9700 C   0  0  0  0  0  2  0  0  0  0  0  0
  184.2360  178.2970  138.4530 C   0  0  0  0  0  0  0  0  0  0  0  0
  186.9510  179.0030  140.9300 C   0  0  0  0  0  2  0  0  0  0  0  0
  181.5560  178.9550  142.9400 C   0  0  0  0  0  3  0  0  0  0  0  0
  186.9370  178.1200  138.8390 C   0  0  2  0  0  3  0  0  0  0  0  0
  188.3640  177.9330  139.2900 C   0  0  2  0  0  3  0  0  0  0  0  0
  183.0070  178.7150  138.1150 C   0  0  0  0  0  3  0  0  0  0  0  0
  182.6000  179.1900  140.6580 C   0  0  0  0  0  0  0  0  0  0  0  0
  181.4770  179.0070  141.6050 C   0  0  0  0  0  3  0  0  0  0  0  0
  184.7450  175.5300  135.3310 O   0  0  0  0  0  0  0  0  0  0  0  0
  184.1570  175.1790  136.3910 C   0  0  0  0  0  0  0  0  0  0  0  0
  184.1940  176.0410  137.5330 N   0  0  0  0  0  2  0  0  0  0  0  0
  181.8410  171.4560  136.1330 C   0  0  2  0  0  3  0  0  0  0  0  0
  182.0860  173.9010  135.6620 C   0  0  0  0  0  2  0  0  0  0  0  0
  185.2290  172.6730  137.5900 C   0  0  0  0  0  1  0  0  0  0  0  0
  182.2550  171.0230  134.7360 C   0  0  0  0  0  1  0  0  0  0  0  0
  181.1320  172.8020  136.1190 C   0  0  0  0  0  2  0  0  0  0  0  0
  183.8760  172.7560  136.9640 C   0  0  0  0  0  0  0  0  0  0  0  0
  183.3960  173.9030  136.4140 C   0  0  0  0  0  0  0  0  0  0  0  0
  183.0440  171.5030  137.0720 C   0  0  0  0  0  2  0  0  0  0  0  0
  1 14  1  0  0  0  0
  1  9  1  1  0  0  0
  2 13  1  6  0  0  0
  2  5  1  0  0  0  0
  2  3  1  0  0  0  0
  3  7  1  0  0  0  0
  4 11  2  0  0  0  0
  5 14  1  1  0  0  0
  7  4  1  0  0  0  0
  8 23  1  1  0  0  0
  8 12  1  0  0  0  0
  8 13  1  0  0  0  0
 10 19  1  0  0  0  0
 15 11  1  0  0  0  0
 16 12  1  6  0  0  0
 16 17  1  0  0  0  0
 16  5  1  0  0  0  0
 17  6  1  6  0  0  0
 17  1  1  0  0  0  0
 18 13  2  0  0  0  0
 18 10  1  0  0  0  0
 19  3  2  0  0  0  0
 19 20  1  0  0  0  0
 20 15  2  0  0  0  0
 21 22  2  0  0  0  0
 22 30  1  0  0  0  0
 22 23  1  0  0  0  0
 24 27  1  6  0  0  0
 24 31  1  0  0  0  0
 25 28  1  0  0  0  0
 25 30  1  0  0  0  0
 28 24  1  0  0  0  0
 29 31  1  0  0  0  0
 29 26  1  0  0  0  0
 30 29  2  0  0  0  0
M  END
>  <MODEL>
4

>  <REMARK>
 VINA RESULT:      -6.7      2.848      8.080
  Name = 
  2 active torsions:
  status: ('A' for Active; 'I' for Inactive)
    1  A    between atoms: C_9  and  C_22
    2  A    between atoms: C_15  and  N_23
                            x       y       z     vdW  Elec       q    Type
                         _______ _______ _______ _____ _____    ______ ____

>  <TORSDO>
F 2

$$$$
=
 OpenBabel11052413133D

 31 35  0  0  1  0  0  0  0  0999 V2000
  183.9660  178.6120  143.0760 C   0  0  2  0  0  3  0  0  0  0  0  0
  182.6380  177.5020  139.8610 C   0  0  1  0  0  3  0  0  0  0  0  0
  183.5790  177.5570  138.6630 C   0  0  0  0  0  0  0  0  0  0  0  0
  185.9840  178.0590  138.3290 C   0  0  0  0  0  3  0  0  0  0  0  0
  183.0000  178.4760  140.8970 N   0  0  2  0  0  0  0  0  0  0  0  0
  181.8310  178.5290  144.3440 C   0  0  0  0  0  1  0  0  0  0  0  0
  184.6310  178.6250  138.5980 C   0  0  0  0  0  2  0  0  0  0  0  0
  180.2590  178.7160  140.0080 C   0  0  2  0  0  3  0  0  0  0  0  0
  184.9110  179.7900  143.2180 C   0  0  0  0  0  1  0  0  0  0  0  0
  181.8500  175.7080  137.6370 S   0  0  0  0  0  0  0  0  0  0  0  0
  186.2840  177.4260  137.1960 C   0  0  0  0  0  3  0  0  0  0  0  0
  180.8060  179.3790  141.2860 C   0  0  0  0  0  2  0  0  0  0  0  0
  181.2040  177.7130  139.3660 C   0  0  0  0  0  0  0  0  0  0  0  0
  184.1230  177.9970  141.6910 C   0  0  0  0  0  2  0  0  0  0  0  0
  185.3150  177.1280  136.1250 C   0  0  0  0  0  3  0  0  0  0  0  0
  181.9270  178.5430  141.8690 C   0  0  2  0  0  3  0  0  0  0  0  0
  182.5330  179.1060  143.1290 C   0  0  2  0  0  3  0  0  0  0  0  0
  180.7780  176.9860  138.3220 C   0  0  0  0  0  3  0  0  0  0  0  0
  183.2820  176.8050  137.5780 C   0  0  0  0  0  0  0  0  0  0  0  0
  184.0140  176.8680  136.2940 C   0  0  0  0  0  3  0  0  0  0  0  0
  181.9970  180.7520  139.0300 O   0  0  0  0  0  0  0  0  0  0  0  0
  180.8270  180.7230  138.5590 C   0  0  0  0  0  0  0  0  0  0  0  0
  179.9000  179.7450  139.0410 N   0  0  0  0  0  2  0  0  0  0  0  0
  179.8250  183.9430  135.7450 C   0  0  2  0  0  3  0  0  0  0  0  0
  180.1230  183.1180  138.0880 C   0  0  0  0  0  2  0  0  0  0  0  0
  180.8550  180.2000  135.6280 C   0  0  0  0  0  1  0  0  0  0  0  0
  181.1800  184.6280  135.6850 C   0  0  0  0  0  1  0  0  0  0  0  0
  179.2510  183.9510  137.1540 C   0  0  0  0  0  2  0  0  0  0  0  0
  180.4270  181.5050  136.2140 C   0  0  0  0  0  0  0  0  0  0  0  0
  180.4210  181.7380  137.5530 C   0  0  0  0  0  0  0  0  0  0  0  0
  179.9090  182.5130  135.2170 C   0  0  0  0  0  2  0  0  0  0  0  0
  1 17  1  0  0  0  0
  1  9  1  6  0  0  0
  2  3  1  6  0  0  0
  2  5  1  0  0  0  0
  4  7  1  0  0  0  0
  5 14  1  1  0  0  0
  5 16  1  0  0  0  0
  7  3  1  0  0  0  0
  8 23  1  6  0  0  0
  8 12  1  0  0  0  0
 10 18  1  0  0  0  0
 11  4  2  0  0  0  0
 13  2  1  0  0  0  0
 13  8  1  0  0  0  0
 14  1  1  0  0  0  0
 15 20  2  0  0  0  0
 15 11  1  0  0  0  0
 16 12  1  6  0  0  0
 16 17  1  0  0  0  0
 17  6  1  1  0  0  0
 18 13  2  0  0  0  0
 19 10  1  0  0  0  0
 19  3  2  0  0  0  0
 20 19  1  0  0  0  0
 22 21  2  0  0  0  0
 22 23  1  0  0  0  0
 24 27  1  1  0  0  0
 24 28  1  0  0  0  0
 26 29  1  0  0  0  0
 28 25  1  0  0  0  0
 29 30  2  0  0  0  0
 30 25  1  0  0  0  0
 30 22  1  0  0  0  0
 31 24  1  0  0  0  0
 31 29  1  0  0  0  0
M  END
>  <MODEL>
5

>  <REMARK>
 VINA RESULT:      -6.7      3.430      7.275
  Name = 
  2 active torsions:
  status: ('A' for Active; 'I' for Inactive)
    1  A    between atoms: C_9  and  C_22
    2  A    between atoms: C_15  and  N_23
                            x       y       z     vdW  Elec       q    Type
                         _______ _______ _______ _____ _____    ______ ____

>  <TORSDO>
F 2

$$$$
=
 OpenBabel11052413133D

 31 35  0  0  1  0  0  0  0  0999 V2000
  182.6720  176.9850  137.6640 C   0  0  2  0  0  3  0  0  0  0  0  0
  186.1590  176.4530  136.7220 C   0  0  1  0  0  3  0  0  0  0  0  0
  186.5960  175.0170  136.4530 C   0  0  0  0  0  0  0  0  0  0  0  0
  185.4520  172.8240  136.2950 C   0  0  0  0  0  3  0  0  0  0  0  0
  185.0140  176.5230  137.6370 N   0  0  2  0  0  0  0  0  0  0  0  0
  182.8610  179.3990  138.2180 C   0  0  0  0  0  1  0  0  0  0  0  0
  185.9480  173.8940  137.2070 C   0  0  0  0  0  2  0  0  0  0  0  0
  187.2780  178.0930  138.5150 C   0  0  2  0  0  3  0  0  0  0  0  0
  181.9050  176.0370  138.5650 C   0  0  0  0  0  1  0  0  0  0  0  0
  188.5960  176.2370  135.0480 S   0  0  0  0  0  0  0  0  0  0  0  0
  186.2660  172.0970  135.5330 C   0  0  0  0  0  3  0  0  0  0  0  0
  185.8600  178.2350  139.0980 C   0  0  0  0  0  2  0  0  0  0  0  0
  187.3600  177.2360  137.2610 C   0  0  0  0  0  0  0  0  0  0  0  0
  183.7720  176.2210  136.9390 C   0  0  0  0  0  2  0  0  0  0  0  0
  187.7200  172.3130  135.4230 C   0  0  0  0  0  3  0  0  0  0  0  0
  184.8250  177.9010  138.0420 C   0  0  2  0  0  3  0  0  0  0  0  0
  183.3970  178.0120  138.5130 C   0  0  2  0  0  3  0  0  0  0  0  0
  188.5240  177.1500  136.6010 C   0  0  0  0  0  3  0  0  0  0  0  0
  187.7230  174.8140  135.7330 C   0  0  0  0  0  0  0  0  0  0  0  0
  188.3490  173.4900  135.5190 C   0  0  0  0  0  3  0  0  0  0  0  0
  187.9370  179.3790  140.9710 O   0  0  0  0  0  0  0  0  0  0  0  0
  188.4400  178.2400  140.7680 C   0  0  0  0  0  0  0  0  0  0  0  0
  188.1730  177.5640  139.5350 N   0  0  0  0  0  2  0  0  0  0  0  0
  191.2940  176.7660  143.7640 C   0  0  2  0  0  3  0  0  0  0  0  0
  190.8220  177.7980  141.5330 C   0  0  0  0  0  2  0  0  0  0  0  0
  187.4480  177.0690  143.3200 C   0  0  0  0  0  1  0  0  0  0  0  0
  191.6220  178.0870  144.4400 C   0  0  0  0  0  1  0  0  0  0  0  0
  191.6700  176.7790  142.2890 C   0  0  0  0  0  2  0  0  0  0  0  0
  188.8950  177.1080  142.9550 C   0  0  0  0  0  0  0  0  0  0  0  0
  189.3420  177.6480  141.7910 C   0  0  0  0  0  0  0  0  0  0  0  0
  189.8180  176.4170  143.9290 C   0  0  0  0  0  2  0  0  0  0  0  0
  1 17  1  0  0  0  0
  1  9  1  1  0  0  0
  2  3  1  1  0  0  0
  2 13  1  0  0  0  0
  2  5  1  0  0  0  0
  3  7  1  0  0  0  0
  4  7  1  0  0  0  0
  5 14  1  6  0  0  0
  5 16  1  0  0  0  0
  8 12  1  0  0  0  0
  8 23  1  1  0  0  0
 10 19  1  0  0  0  0
 10 18  1  0  0  0  0
 11  4  2  0  0  0  0
 13  8  1  0  0  0  0
 14  1  1  0  0  0  0
 15 20  2  0  0  0  0
 15 11  1  0  0  0  0
 16 17  1  0  0  0  0
 16 12  1  1  0  0  0
 17  6  1  6  0  0  0
 18 13  2  0  0  0  0
 19  3  2  0  0  0  0
 20 19  1  0  0  0  0
 22 21  2  0  0  0  0
 22 30  1  0  0  0  0
 23 22  1  0  0  0  0
 24 31  1  0  0  0  0
 24 27  1  6  0  0  0
 25 30  1  0  0  0  0
 25 28  1  0  0  0  0
 28 24  1  0  0  0  0
 29 26  1  0  0  0  0
 29 31  1  0  0  0  0
 30 29  2  0  0  0  0
M  END
>  <MODEL>
6

>  <REMARK>
 VINA RESULT:      -6.4      2.213      3.310
  Name = 
  2 active torsions:
  status: ('A' for Active; 'I' for Inactive)
    1  A    between atoms: C_9  and  C_22
    2  A    between atoms: C_15  and  N_23
                            x       y       z     vdW  Elec       q    Type
                         _______ _______ _______ _____ _____    ______ ____

>  <TORSDO>
F 2

$$$$
=
 OpenBabel11052413133D

 31 35  0  0  1  0  0  0  0  0999 V2000
  188.2050  178.6280  140.6140 C   0  0  2  0  0  3  0  0  0  0  0  0
  184.6930  178.9210  139.6580 C   0  0  1  0  0  3  0  0  0  0  0  0
  183.6560  178.7790  140.7670 C   0  0  0  0  0  0  0  0  0  0  0  0
  183.7290  178.5700  143.2360 C   0  0  0  0  0  3  0  0  0  0  0  0
  185.9420  178.2180  139.9730 N   0  0  2  0  0  0  0  0  0  0  0  0
  189.1570  178.6410  138.3190 C   0  0  0  0  0  1  0  0  0  0  0  0
  183.9390  177.8780  141.9320 C   0  0  0  0  0  2  0  0  0  0  0  0
  184.7910  177.4300  137.4400 C   0  0  2  0  0  3  0  0  0  0  0  0
  188.6990  177.6440  141.6560 C   0  0  0  0  0  1  0  0  0  0  0  0
  182.0700  180.1390  139.0080 S   0  0  0  0  0  0  0  0  0  0  0  0
  182.5370  179.0170  143.6260 C   0  0  0  0  0  3  0  0  0  0  0  0
  186.2340  177.1010  137.8640 C   0  0  0  0  0  2  0  0  0  0  0  0
  184.0790  178.4200  138.3480 C   0  0  0  0  0  0  0  0  0  0  0  0
  186.7540  178.9910  140.9020 C   0  0  0  0  0  2  0  0  0  0  0  0
  181.3170  178.9710  142.7990 C   0  0  0  0  0  3  0  0  0  0  0  0
  186.7680  178.1810  138.7820 C   0  0  2  0  0  3  0  0  0  0  0  0
  188.1810  177.9540  139.2550 C   0  0  2  0  0  3  0  0  0  0  0  0
  182.8650  178.8720  138.0000 C   0  0  0  0  0  3  0  0  0  0  0  0
  182.4130  179.2650  140.5490 C   0  0  0  0  0  0  0  0  0  0  0  0
  181.2680  179.0700  141.4660 C   0  0  0  0  0  3  0  0  0  0  0  0
  184.9420  175.5290  135.3220 O   0  0  0  0  0  0  0  0  0  0  0  0
  184.1610  175.2620  136.2760 C   0  0  0  0  0  0  0  0  0  0  0  0
  184.0170  176.1980  137.3490 N   0  0  0  0  0  2  0  0  0  0  0  0
  181.8240  171.5500  136.5020 C   0  0  2  0  0  3  0  0  0  0  0  0
  183.7820  172.9340  137.2190 C   0  0  0  0  0  2  0  0  0  0  0  0
  181.7270  174.9320  134.5940 C   0  0  0  0  0  1  0  0  0  0  0  0
  180.9900  171.8770  137.7310 C   0  0  0  0  0  1  0  0  0  0  0  0
  183.3120  171.5390  136.8180 C   0  0  0  0  0  2  0  0  0  0  0  0
  182.2590  173.8460  135.4700 C   0  0  0  0  0  0  0  0  0  0  0  0
  183.3680  174.0060  136.2390 C   0  0  0  0  0  0  0  0  0  0  0  0
  181.5320  172.5280  135.3660 C   0  0  0  0  0  2  0  0  0  0  0  0
  1 14  1  0  0  0  0
  1  9  1  1  0  0  0
  2 13  1  6  0  0  0
  2  5  1  0  0  0  0
  2  3  1  0  0  0  0
  3  7  1  0  0  0  0
  4 11  2  0  0  0  0
  5 14  1  1  0  0  0
  7  4  1  0  0  0  0
  8 23  1  1  0  0  0
  8 12  1  0  0  0  0
  8 13  1  0  0  0  0
 10 19  1  0  0  0  0
 15 11  1  0  0  0  0
 16 12  1  6  0  0  0
 16 17  1  0  0  0  0
 16  5  1  0  0  0  0
 17  6  1  6  0  0  0
 17  1  1  0  0  0  0
 18 13  2  0  0  0  0
 18 10  1  0  0  0  0
 19  3  2  0  0  0  0
 19 20  1  0  0  0  0
 20 15  2  0  0  0  0
 21 22  2  0  0  0  0
 22 23  1  0  0  0  0
 24 28  1  0  0  0  0
 24 27  1  1  0  0  0
 26 29  1  0  0  0  0
 28 25  1  0  0  0  0
 29 30  2  0  0  0  0
 30 22  1  0  0  0  0
 30 25  1  0  0  0  0
 31 29  1  0  0  0  0
 31 24  1  0  0  0  0
M  END
>  <MODEL>
7

>  <REMARK>
 VINA RESULT:      -6.3      2.880      8.024
  Name = 
  2 active torsions:
  status: ('A' for Active; 'I' for Inactive)
    1  A    between atoms: C_9  and  C_22
    2  A    between atoms: C_15  and  N_23
                            x       y       z     vdW  Elec       q    Type
                         _______ _______ _______ _____ _____    ______ ____

>  <TORSDO>
F 2

$$$$
=
 OpenBabel11052413133D

 31 35  0  0  1  0  0  0  0  0999 V2000
  193.9880  175.4750  137.0880 C   0  0  2  0  0  3  0  0  0  0  0  0
  190.7470  177.1530  137.1980 C   0  0  1  0  0  3  0  0  0  0  0  0
  190.0770  177.2860  138.5610 C   0  0  0  0  0  0  0  0  0  0  0  0
  190.7290  176.7960  140.9030 C   0  0  0  0  0  3  0  0  0  0  0  0
  191.6610  176.0070  137.1370 N   0  0  2  0  0  0  0  0  0  0  0  0
  194.2110  175.3850  134.6160 C   0  0  0  0  0  1  0  0  0  0  0  0
  190.2940  176.2220  139.5970 C   0  0  0  0  0  2  0  0  0  0  0  0
  189.6560  175.9840  135.0530 C   0  0  2  0  0  3  0  0  0  0  0  0
  194.3240  174.2710  137.9450 C   0  0  0  0  0  1  0  0  0  0  0  0
  188.7300  179.3210  137.3360 S   0  0  0  0  0  0  0  0  0  0  0  0
  189.9560  177.6080  141.6220 C   0  0  0  0  0  3  0  0  0  0  0  0
  190.9160  175.0990  135.0390 C   0  0  0  0  0  2  0  0  0  0  0  0
  189.6570  177.0630  136.1260 C   0  0  0  0  0  0  0  0  0  0  0  0
  192.9270  176.3170  137.7860 C   0  0  0  0  0  2  0  0  0  0  0  0
  188.6390  178.1090  141.1870 C   0  0  0  0  0  3  0  0  0  0  0  0
  192.0520  175.7970  135.7570 C   0  0  2  0  0  3  0  0  0  0  0  0
  193.3380  175.0110  135.7980 C   0  0  2  0  0  3  0  0  0  0  0  0
  188.6670  177.9680  136.1450 C   0  0  0  0  0  3  0  0  0  0  0  0
  189.1110  178.2200  138.7140 C   0  0  0  0  0  0  0  0  0  0  0  0
  188.2740  178.3640  139.9260 C   0  0  0  0  0  3  0  0  0  0  0  0
  189.2860  173.9640  137.0290 O   0  0  0  0  0  0  0  0  0  0  0  0
  188.3280  174.1690  136.2330 C   0  0  0  0  0  0  0  0  0  0  0  0
  188.4730  175.1460  135.1970 N   0  0  0  0  0  2  0  0  0  0  0  0
  184.4980  172.0470  136.5770 C   0  0  2  0  0  3  0  0  0  0  0  0
  186.0220  173.9080  137.2660 C   0  0  0  0  0  2  0  0  0  0  0  0
  187.8230  171.7350  134.5940 C   0  0  0  0  0  1  0  0  0  0  0  0
  183.6700  172.9110  135.6390 C   0  0  0  0  0  1  0  0  0  0  0  0
  185.0380  172.8490  137.7520 C   0  0  0  0  0  2  0  0  0  0  0  0
  186.8560  172.2400  135.6140 C   0  0  0  0  0  0  0  0  0  0  0  0
  187.0910  173.3540  136.3550 C   0  0  0  0  0  0  0  0  0  0  0  0
  185.6430  171.3680  135.8310 C   0  0  0  0  0  2  0  0  0  0  0  0
  1 14  1  0  0  0  0
  1  9  1  1  0  0  0
  2 13  1  6  0  0  0
  2  3  1  0  0  0  0
  3 19  2  0  0  0  0
  3  7  1  0  0  0  0
  4 11  2  0  0  0  0
  5  2  1  0  0  0  0
  5 14  1  1  0  0  0
  7  4  1  0  0  0  0
  8 23  1  1  0  0  0
  8 13  1  0  0  0  0
 10 19  1  0  0  0  0
 12  8  1  0  0  0  0
 13 18  2  0  0  0  0
 15 11  1  0  0  0  0
 16 12  1  6  0  0  0
 16 17  1  0  0  0  0
 16  5  1  0  0  0  0
 17  6  1  6  0  0  0
 17  1  1  0  0  0  0
 18 10  1  0  0  0  0
 19 20  1  0  0  0  0
 20 15  2  0  0  0  0
 22 30  1  0  0  0  0
 22 21  2  0  0  0  0
 23 22  1  0  0  0  0
 24 27  1  6  0  0  0
 24 28  1  0  0  0  0
 25 28  1  0  0  0  0
 26 29  1  0  0  0  0
 29 31  1  0  0  0  0
 29 30  2  0  0  0  0
 30 25  1  0  0  0  0
 31 24  1  0  0  0  0
M  END
>  <MODEL>
8

>  <REMARK>
 VINA RESULT:      -6.2      4.853      9.743
  Name = 
  2 active torsions:
  status: ('A' for Active; 'I' for Inactive)
    1  A    between atoms: C_9  and  C_22
    2  A    between atoms: C_15  and  N_23
                            x       y       z     vdW  Elec       q    Type
                         _______ _______ _______ _____ _____    ______ ____

>  <TORSDO>
F 2

$$$$
=
 OpenBabel11052413133D

 31 35  0  0  1  0  0  0  0  0999 V2000
  189.2910  177.9550  139.4110 C   0  0  2  0  0  3  0  0  0  0  0  0
  186.5470  178.7570  141.6830 C   0  0  1  0  0  3  0  0  0  0  0  0
  186.5740  178.1100  143.0630 C   0  0  0  0  0  0  0  0  0  0  0  0
  188.1860  176.7110  144.3250 C   0  0  0  0  0  3  0  0  0  0  0  0
  187.2710  177.9630  140.6820 N   0  0  2  0  0  0  0  0  0  0  0  0
  188.3680  179.0750  137.3950 C   0  0  0  0  0  1  0  0  0  0  0  0
  187.1770  176.7460  143.2280 C   0  0  0  0  0  2  0  0  0  0  0  0
  184.5420  178.5490  139.9240 C   0  0  2  0  0  3  0  0  0  0  0  0
  189.9120  176.5750  139.3190 C   0  0  0  0  0  1  0  0  0  0  0  0
  184.9330  180.1950  143.7110 S   0  0  0  0  0  0  0  0  0  0  0  0
  187.8670  176.9340  145.5990 C   0  0  0  0  0  3  0  0  0  0  0  0
  185.6090  178.0230  138.9460 C   0  0  0  0  0  2  0  0  0  0  0  0
  185.0870  178.9800  141.2770 C   0  0  0  0  0  0  0  0  0  0  0  0
  188.7080  178.1600  140.8030 C   0  0  0  0  0  2  0  0  0  0  0  0
  186.5260  177.3280  146.0670 C   0  0  0  0  0  3  0  0  0  0  0  0
  186.9840  178.4990  139.3670 C   0  0  2  0  0  3  0  0  0  0  0  0
  188.1040  178.0380  138.4690 C   0  0  2  0  0  3  0  0  0  0  0  0
  184.2650  179.5710  142.1570 C   0  0  0  0  0  3  0  0  0  0  0  0
  185.8340  178.6680  144.0480 C   0  0  0  0  0  0  0  0  0  0  0  0
  185.6440  178.0710  145.3890 C   0  0  0  0  0  3  0  0  0  0  0  0
  181.8050  178.8280  139.1820 O   0  0  0  0  0  0  0  0  0  0  0  0
  182.1540  177.7220  139.6810 C   0  0  0  0  0  0  0  0  0  0  0  0
  183.5080  177.5400  140.1060 N   0  0  0  0  0  2  0  0  0  0  0  0
  179.4050  174.3490  140.2830 C   0  0  2  0  0  3  0  0  0  0  0  0
  181.4620  175.3180  139.2380 C   0  0  0  0  0  2  0  0  0  0  0  0
  179.7470  178.0530  141.4040 C   0  0  0  0  0  1  0  0  0  0  0  0
  180.1600  173.6310  141.3900 C   0  0  0  0  0  1  0  0  0  0  0  0
  180.2310  174.4470  139.0090 C   0  0  0  0  0  2  0  0  0  0  0  0
  180.0350  176.7980  140.6460 C   0  0  0  0  0  0  0  0  0  0  0  0
  181.1380  176.6530  139.8650 C   0  0  0  0  0  0  0  0  0  0  0  0
  178.9630  175.7400  140.7330 C   0  0  0  0  0  2  0  0  0  0  0  0
  1  9  1  1  0  0  0
  1 14  1  0  0  0  0
  2 13  1  6  0  0  0
  2  3  1  0  0  0  0
  3  7  1  0  0  0  0
  3 19  2  0  0  0  0
  4 11  2  0  0  0  0
  5 14  1  1  0  0  0
  5  2  1  0  0  0  0
  7  4  1  0  0  0  0
  8 23  1  1  0  0  0
  8 13  1  0  0  0  0
 10 19  1  0  0  0  0
 11 15  1  0  0  0  0
 12  8  1  0  0  0  0
 13 18  2  0  0  0  0
 16 12  1  6  0  0  0
 16  5  1  0  0  0  0
 17  6  1  6  0  0  0
 17 16  1  0  0  0  0
 17  1  1  0  0  0  0
 18 10  1  0  0  0  0
 19 20  1  0  0  0  0
 20 15  2  0  0  0  0
 21 22  2  0  0  0  0
 22 30  1  0  0  0  0
 22 23  1  0  0  0  0
 24 31  1  0  0  0  0
 24 27  1  1  0  0  0
 25 30  1  0  0  0  0
 28 25  1  0  0  0  0
 28 24  1  0  0  0  0
 29 31  1  0  0  0  0
 29 26  1  0  0  0  0
 30 29  2  0  0  0  0
M  END
>  <MODEL>
9

>  <REMARK>
 VINA RESULT:      -6.2      2.651      7.590
  Name = 
  2 active torsions:
  status: ('A' for Active; 'I' for Inactive)
    1  A    between atoms: C_9  and  C_22
    2  A    between atoms: C_15  and  N_23
                            x       y       z     vdW  Elec       q    Type
                         _______ _______ _______ _____ _____    ______ ____

>  <TORSDO>
F 2

$$$$
