=
 OpenBabel11052412473D

 25 28  0  0  1  0  0  0  0  0999 V2000
  187.2680  178.2010  146.0140 C   0  0  0  0  0  0  0  0  0  0  0  0
  188.5310  177.6640  145.7580 C   0  0  0  0  0  0  0  0  0  0  0  0
  187.7060  178.3480  148.3840 C   0  0  0  0  0  3  0  0  0  0  0  0
  186.0400  178.3000  145.1840 C   0  0  1  0  0  3  0  0  0  0  0  0
  183.5360  178.6140  144.1550 C   0  0  0  0  0  2  0  0  0  0  0  0
  189.0040  177.8570  148.1570 C   0  0  0  0  0  3  0  0  0  0  0  0
  185.1350  179.1540  145.9560 N   0  0  1  0  0  0  0  0  0  0  0  0
  183.7790  178.6940  145.6870 C   0  0  0  0  0  2  0  0  0  0  0  0
  190.7100  176.9900  146.6240 C   0  0  0  0  0  0  0  0  0  0  0  0
  191.6100  176.8320  147.6720 O   0  0  0  0  0  1  0  0  0  0  0  0
  188.9240  177.2810  144.4720 C   0  0  0  0  0  3  0  0  0  0  0  0
  184.6820  179.2420  143.3120 C   0  0  0  0  0  2  0  0  0  0  0  0
  186.8650  178.5010  147.2860 C   0  0  0  0  0  0  0  0  0  0  0  0
  185.5170  178.9380  147.2930 N   0  0  0  0  0  2  0  0  0  0  0  0
  191.0910  176.6190  145.3310 C   0  0  0  0  0  3  0  0  0  0  0  0
  186.1030  178.8120  143.7550 C   0  0  0  0  0  2  0  0  0  0  0  0
  190.2030  176.7630  144.2600 C   0  0  0  0  0  0  0  0  0  0  0  0
  189.4260  177.5110  146.8530 C   0  0  0  0  0  0  0  0  0  0  0  0
  190.7030  176.2720  142.6160 S   0  0  0  0  0  0  0  0  0  0  0  0
  189.0760  176.6830  141.9120 C   0  0  0  0  0  2  0  0  0  0  0  0
  189.2100  177.7940  140.8820 C   0  0  0  0  0  2  0  0  0  0  0  0
  187.8510  178.3690  140.5180 C   0  0  0  0  0  2  0  0  0  0  0  0
  187.7360  178.5050  139.0760 N   0  0  0  0  0  2  0  0  0  0  0  0
  189.0880  178.5260  138.5490 C   0  0  0  0  0  2  0  0  0  0  0  0
  189.0500  178.8930  137.0810 C   0  0  0  0  0  1  0  0  0  0  0  0
  1 13  1  0  0  0  0
  2  1  2  0  0  0  0
  2 18  1  0  0  0  0
  4 16  1  6  0  0  0
  4  7  1  0  0  0  0
  4  1  1  0  0  0  0
  5  8  1  0  0  0  0
  6  3  1  0  0  0  0
  7  8  1  1  0  0  0
  7 14  1  0  0  0  0
  9 18  1  0  0  0  0
  9 10  1  0  0  0  0
 11  2  1  0  0  0  0
 12 16  1  0  0  0  0
 12  5  1  0  0  0  0
 13 14  1  0  0  0  0
 13  3  2  0  0  0  0
 15  9  2  0  0  0  0
 17 11  2  0  0  0  0
 17 15  1  0  0  0  0
 18  6  2  0  0  0  0
 19 17  1  0  0  0  0
 20 19  1  0  0  0  0
 21 20  1  0  0  0  0
 22 21  1  0  0  0  0
 23 22  1  0  0  0  0
 24 23  1  0  0  0  0
 25 24  1  0  0  0  0
M  END
>  <MODEL>
1

>  <REMARK>
 VINA RESULT:      -9.1      0.000      0.000
  Name = 
  6 active torsions:
  status: ('A' for Active; 'I' for Inactive)
    1  A    between atoms: C_2  and  N_12
    2  A    between atoms: S_6  and  C_15
    3  A    between atoms: S_6  and  C_23
    4  A    between atoms: N_12  and  C_25
    5  A    between atoms: C_15  and  C_21
    6  A    between atoms: C_21  and  C_25
                            x       y       z     vdW  Elec       q    Type
                         _______ _______ _______ _____ _____    ______ ____

>  <TORSDO>
F 6

$$$$
=
 OpenBabel11052412473D

 25 28  0  0  1  0  0  0  0  0999 V2000
  185.7810  178.3520  144.7540 C   0  0  0  0  0  0  0  0  0  0  0  0
  185.7230  178.4780  143.3640 C   0  0  0  0  0  0  0  0  0  0  0  0
  183.4420  178.9030  144.9960 C   0  0  0  0  0  3  0  0  0  0  0  0
  186.9230  178.2610  145.7000 C   0  0  1  0  0  3  0  0  0  0  0  0
  188.6200  178.1920  147.8310 C   0  0  0  0  0  2  0  0  0  0  0  0
  183.3350  178.9880  143.5970 C   0  0  0  0  0  3  0  0  0  0  0  0
  186.3130  177.9350  146.9910 N   0  0  1  0  0  0  0  0  0  0  0  0
  187.1260  178.5710  148.0200 C   0  0  0  0  0  2  0  0  0  0  0  0
  184.3720  178.8960  141.3770 C   0  0  0  0  0  0  0  0  0  0  0  0
  183.1560  179.1860  140.7670 O   0  0  0  0  0  1  0  0  0  0  0  0
  186.8550  178.3160  142.5610 C   0  0  0  0  0  3  0  0  0  0  0  0
  188.8490  177.0820  146.7660 C   0  0  0  0  0  2  0  0  0  0  0  0
  184.6860  178.5880  145.5380 C   0  0  0  0  0  0  0  0  0  0  0  0
  185.0230  178.4900  146.9100 N   0  0  0  0  0  2  0  0  0  0  0  0
  185.5110  178.7230  140.5850 C   0  0  0  0  0  3  0  0  0  0  0  0
  188.0750  177.3050  145.4430 C   0  0  0  0  0  2  0  0  0  0  0  0
  186.7480  178.4350  141.1730 C   0  0  0  0  0  0  0  0  0  0  0  0
  184.4660  178.7800  142.7740 C   0  0  0  0  0  0  0  0  0  0  0  0
  188.1970  178.2300  140.1470 S   0  0  0  0  0  0  0  0  0  0  0  0
  189.0880  177.3220  141.4480 C   0  0  0  0  0  2  0  0  0  0  0  0
  190.4980  176.9880  140.9890 C   0  0  0  0  0  2  0  0  0  0  0  0
  191.5260  177.4170  142.0240 C   0  0  0  0  0  2  0  0  0  0  0  0
  191.2430  176.7830  143.3010 N   0  0  0  0  0  2  0  0  0  0  0  0
  191.6280  177.7290  144.3310 C   0  0  0  0  0  2  0  0  0  0  0  0
  191.1570  179.1150  143.9440 C   0  0  0  0  0  1  0  0  0  0  0  0
  1 13  1  0  0  0  0
  1  4  1  0  0  0  0
  2  1  2  0  0  0  0
  3 13  2  0  0  0  0
  4 16  1  6  0  0  0
  4  7  1  0  0  0  0
  5  8  1  0  0  0  0
  6  3  1  0  0  0  0
  7  8  1  1  0  0  0
  9 18  1  0  0  0  0
 10  9  1  0  0  0  0
 11  2  1  0  0  0  0
 12  5  1  0  0  0  0
 13 14  1  0  0  0  0
 14  7  1  0  0  0  0
 15 17  1  0  0  0  0
 15  9  2  0  0  0  0
 16 12  1  0  0  0  0
 17 11  2  0  0  0  0
 18  2  1  0  0  0  0
 18  6  2  0  0  0  0
 19 17  1  0  0  0  0
 19 20  1  0  0  0  0
 21 20  1  0  0  0  0
 21 22  1  0  0  0  0
 22 23  1  0  0  0  0
 23 24  1  0  0  0  0
 25 24  1  0  0  0  0
M  END
>  <MODEL>
2

>  <REMARK>
 VINA RESULT:      -8.9      3.002      5.315
  Name = 
  6 active torsions:
  status: ('A' for Active; 'I' for Inactive)
    1  A    between atoms: C_2  and  N_12
    2  A    between atoms: S_6  and  C_15
    3  A    between atoms: S_6  and  C_23
    4  A    between atoms: N_12  and  C_25
    5  A    between atoms: C_15  and  C_21
    6  A    between atoms: C_21  and  C_25
                            x       y       z     vdW  Elec       q    Type
                         _______ _______ _______ _____ _____    ______ ____

>  <TORSDO>
F 6

$$$$
=
 OpenBabel11052412473D

 25 28  0  0  1  0  0  0  0  0999 V2000
  185.9610  178.3350  144.8000 C   0  0  0  0  0  0  0  0  0  0  0  0
  187.2360  177.7960  144.9820 C   0  0  0  0  0  0  0  0  0  0  0  0
  185.6940  178.7500  147.1630 C   0  0  0  0  0  3  0  0  0  0  0  0
  185.0290  178.3200  143.6430 C   0  0  1  0  0  3  0  0  0  0  0  0
  182.9360  178.4730  141.9030 C   0  0  0  0  0  2  0  0  0  0  0  0
  186.9940  178.2610  147.3780 C   0  0  0  0  0  3  0  0  0  0  0  0
  183.9510  179.2370  144.0200 N   0  0  1  0  0  0  0  0  0  0  0  0
  182.7250  178.7250  143.4210 C   0  0  0  0  0  2  0  0  0  0  0  0
  189.0590  177.2610  146.5130 C   0  0  0  0  0  0  0  0  0  0  0  0
  189.6140  177.2360  147.7880 O   0  0  0  0  0  1  0  0  0  0  0  0
  187.9800  177.2810  143.9170 C   0  0  0  0  0  3  0  0  0  0  0  0
  184.2870  179.0240  141.3650 C   0  0  0  0  0  2  0  0  0  0  0  0
  185.2100  178.7650  145.8580 C   0  0  0  0  0  0  0  0  0  0  0  0
  183.9250  179.1760  145.4250 N   0  0  0  0  0  2  0  0  0  0  0  0
  189.7940  176.7580  145.4360 C   0  0  0  0  0  3  0  0  0  0  0  0
  185.5110  178.6720  142.2470 C   0  0  0  0  0  2  0  0  0  0  0  0
  189.2580  176.7660  144.1440 C   0  0  0  0  0  0  0  0  0  0  0  0
  187.7720  177.7810  146.2990 C   0  0  0  0  0  0  0  0  0  0  0  0
  190.2070  176.1070  142.7800 S   0  0  0  0  0  0  0  0  0  0  0  0
  189.9810  177.6150  141.7880 C   0  0  0  0  0  2  0  0  0  0  0  0
  189.3910  177.2720  140.4290 C   0  0  0  0  0  2  0  0  0  0  0  0
  188.4350  178.3570  139.9590 C   0  0  0  0  0  2  0  0  0  0  0  0
  188.9480  178.9840  138.7520 N   0  0  0  0  0  2  0  0  0  0  0  0
  189.5560  177.9310  137.9590 C   0  0  0  0  0  2  0  0  0  0  0  0
  189.0660  178.0310  136.5300 C   0  0  0  0  0  1  0  0  0  0  0  0
  1  2  2  0  0  0  0
  1 13  1  0  0  0  0
  2 18  1  0  0  0  0
  3  6  1  0  0  0  0
  4 16  1  6  0  0  0
  4  7  1  0  0  0  0
  4  1  1  0  0  0  0
  5  8  1  0  0  0  0
  7  8  1  6  0  0  0
  7 14  1  0  0  0  0
  9 10  1  0  0  0  0
 11 17  2  0  0  0  0
 11  2  1  0  0  0  0
 12  5  1  0  0  0  0
 12 16  1  0  0  0  0
 13  3  2  0  0  0  0
 14 13  1  0  0  0  0
 15  9  2  0  0  0  0
 17 15  1  0  0  0  0
 18  9  1  0  0  0  0
 18  6  2  0  0  0  0
 19 17  1  0  0  0  0
 20 19  1  0  0  0  0
 21 20  1  0  0  0  0
 22 21  1  0  0  0  0
 23 22  1  0  0  0  0
 24 23  1  0  0  0  0
 25 24  1  0  0  0  0
M  END
>  <MODEL>
3

>  <REMARK>
 VINA RESULT:      -8.9      1.264      1.728
  Name = 
  6 active torsions:
  status: ('A' for Active; 'I' for Inactive)
    1  A    between atoms: C_2  and  N_12
    2  A    between atoms: S_6  and  C_15
    3  A    between atoms: S_6  and  C_23
    4  A    between atoms: N_12  and  C_25
    5  A    between atoms: C_15  and  C_21
    6  A    between atoms: C_21  and  C_25
                            x       y       z     vdW  Elec       q    Type
                         _______ _______ _______ _____ _____    ______ ____

>  <TORSDO>
F 6

$$$$
=
 OpenBabel11052412473D

 25 28  0  0  1  0  0  0  0  0999 V2000
  187.0510  178.1930  145.8280 C   0  0  0  0  0  0  0  0  0  0  0  0
  188.3140  177.6520  145.5810 C   0  0  0  0  0  0  0  0  0  0  0  0
  187.4630  178.3170  148.2040 C   0  0  0  0  0  3  0  0  0  0  0  0
  185.8330  178.3060  144.9850 C   0  0  1  0  0  3  0  0  0  0  0  0
  183.3420  178.6410  143.9300 C   0  0  0  0  0  2  0  0  0  0  0  0
  188.7610  177.8220  147.9870 C   0  0  0  0  0  3  0  0  0  0  0  0
  184.9230  179.1570  145.7540 N   0  0  1  0  0  0  0  0  0  0  0  0
  183.5680  178.7050  145.4650 C   0  0  0  0  0  2  0  0  0  0  0  0
  190.4800  176.9600  146.4660 C   0  0  0  0  0  0  0  0  0  0  0  0
  191.3670  176.7890  147.5220 O   0  0  0  0  0  1  0  0  0  0  0  0
  188.7190  177.2790  144.2960 C   0  0  0  0  0  3  0  0  0  0  0  0
  184.5000  179.2700  143.1060 C   0  0  0  0  0  2  0  0  0  0  0  0
  186.6350  178.4840  147.0970 C   0  0  0  0  0  0  0  0  0  0  0  0
  185.2890  178.9270  147.0930 N   0  0  0  0  0  2  0  0  0  0  0  0
  190.8740  176.6000  145.1740 C   0  0  0  0  0  3  0  0  0  0  0  0
  185.9140  178.8300  143.5620 C   0  0  0  0  0  2  0  0  0  0  0  0
  189.9990  176.7570  144.0940 C   0  0  0  0  0  0  0  0  0  0  0  0
  189.1950  177.4850  146.6840 C   0  0  0  0  0  0  0  0  0  0  0  0
  190.5150  176.2780  142.4510 S   0  0  0  0  0  0  0  0  0  0  0  0
  189.2430  177.3140  141.6630 C   0  0  0  0  0  2  0  0  0  0  0  0
  189.3620  177.2380  140.1490 C   0  0  0  0  0  2  0  0  0  0  0  0
  190.7800  176.8840  139.7290 C   0  0  0  0  0  2  0  0  0  0  0  0
  190.7590  175.7880  138.7750 N   0  0  0  0  0  2  0  0  0  0  0  0
  191.5980  176.1880  137.6600 C   0  0  0  0  0  2  0  0  0  0  0  0
  192.9970  176.4770  138.1620 C   0  0  0  0  0  1  0  0  0  0  0  0
  1 13  1  0  0  0  0
  2  1  2  0  0  0  0
  2 18  1  0  0  0  0
  4 16  1  6  0  0  0
  4  7  1  0  0  0  0
  4  1  1  0  0  0  0
  5  8  1  0  0  0  0
  6  3  1  0  0  0  0
  7  8  1  1  0  0  0
  7 14  1  0  0  0  0
  9 18  1  0  0  0  0
  9 10  1  0  0  0  0
 11  2  1  0  0  0  0
 12 16  1  0  0  0  0
 12  5  1  0  0  0  0
 13  3  2  0  0  0  0
 14 13  1  0  0  0  0
 15  9  2  0  0  0  0
 17 11  2  0  0  0  0
 17 15  1  0  0  0  0
 18  6  2  0  0  0  0
 19 17  1  0  0  0  0
 20 19  1  0  0  0  0
 21 20  1  0  0  0  0
 22 21  1  0  0  0  0
 23 22  1  0  0  0  0
 24 25  1  0  0  0  0
 24 23  1  0  0  0  0
M  END
>  <MODEL>
4

>  <REMARK>
 VINA RESULT:      -8.7      1.501      1.625
  Name = 
  6 active torsions:
  status: ('A' for Active; 'I' for Inactive)
    1  A    between atoms: C_2  and  N_12
    2  A    between atoms: S_6  and  C_15
    3  A    between atoms: S_6  and  C_23
    4  A    between atoms: N_12  and  C_25
    5  A    between atoms: C_15  and  C_21
    6  A    between atoms: C_21  and  C_25
                            x       y       z     vdW  Elec       q    Type
                         _______ _______ _______ _____ _____    ______ ____

>  <TORSDO>
F 6

$$$$
=
 OpenBabel11052412473D

 25 28  0  0  1  0  0  0  0  0999 V2000
  189.5590  177.2050  144.4430 C   0  0  0  0  0  0  0  0  0  0  0  0
  188.5110  177.5670  145.2930 C   0  0  0  0  0  0  0  0  0  0  0  0
  191.0490  176.7980  146.2990 C   0  0  0  0  0  3  0  0  0  0  0  0
  189.7530  177.3590  142.9790 C   0  0  1  0  0  3  0  0  0  0  0  0
  190.6500  177.5090  140.4090 C   0  0  0  0  0  2  0  0  0  0  0  0
  190.0030  177.1070  147.1850 C   0  0  0  0  0  3  0  0  0  0  0  0
  190.9620  176.5890  142.6790 N   0  0  1  0  0  0  0  0  0  0  0  0
  191.6400  177.2680  141.5820 C   0  0  0  0  0  2  0  0  0  0  0  0
  187.6940  177.8340  147.5760 C   0  0  0  0  0  0  0  0  0  0  0  0
  187.8770  177.7680  148.9530 O   0  0  0  0  0  1  0  0  0  0  0  0
  187.2740  177.9920  144.8000 C   0  0  0  0  0  3  0  0  0  0  0  0
  189.2840  176.7890  140.5930 C   0  0  0  0  0  2  0  0  0  0  0  0
  190.7890  176.8650  144.9330 C   0  0  0  0  0  0  0  0  0  0  0  0
  191.7020  176.6340  143.8740 N   0  0  0  0  0  2  0  0  0  0  0  0
  186.4590  178.2490  147.0680 C   0  0  0  0  0  3  0  0  0  0  0  0
  188.6600  176.9640  142.0000 C   0  0  0  0  0  2  0  0  0  0  0  0
  186.2490  178.3290  145.6870 C   0  0  0  0  0  0  0  0  0  0  0  0
  188.7340  177.4930  146.6950 C   0  0  0  0  0  0  0  0  0  0  0  0
  184.6690  178.8740  145.0550 S   0  0  0  0  0  0  0  0  0  0  0  0
  185.0330  178.2540  143.3840 C   0  0  0  0  0  2  0  0  0  0  0  0
  185.3000  179.4120  142.4360 C   0  0  0  0  0  2  0  0  0  0  0  0
  185.6280  178.9110  141.0390 C   0  0  0  0  0  2  0  0  0  0  0  0
  184.9150  179.6970  140.0460 N   0  0  0  0  0  2  0  0  0  0  0  0
  184.5690  178.7920  138.9660 C   0  0  0  0  0  2  0  0  0  0  0  0
  185.8360  178.2490  138.3390 C   0  0  0  0  0  1  0  0  0  0  0  0
  1 13  2  0  0  0  0
  1  2  1  0  0  0  0
  2 18  1  0  0  0  0
  3  6  2  0  0  0  0
  4 16  1  6  0  0  0
  4  1  1  0  0  0  0
  5 12  1  0  0  0  0
  5  8  1  0  0  0  0
  7  8  1  6  0  0  0
  7  4  1  0  0  0  0
  7 14  1  0  0  0  0
  9 10  1  0  0  0  0
 11  2  2  0  0  0  0
 11 17  1  0  0  0  0
 12 16  1  0  0  0  0
 13  3  1  0  0  0  0
 14 13  1  0  0  0  0
 15  9  1  0  0  0  0
 17 15  2  0  0  0  0
 18  6  1  0  0  0  0
 18  9  2  0  0  0  0
 19 17  1  0  0  0  0
 20 19  1  0  0  0  0
 21 20  1  0  0  0  0
 22 21  1  0  0  0  0
 23 22  1  0  0  0  0
 24 23  1  0  0  0  0
 25 24  1  0  0  0  0
M  END
>  <MODEL>
5

>  <REMARK>
 VINA RESULT:      -8.6      2.890      4.861
  Name = 
  6 active torsions:
  status: ('A' for Active; 'I' for Inactive)
    1  A    between atoms: C_2  and  N_12
    2  A    between atoms: S_6  and  C_15
    3  A    between atoms: S_6  and  C_23
    4  A    between atoms: N_12  and  C_25
    5  A    between atoms: C_15  and  C_21
    6  A    between atoms: C_21  and  C_25
                            x       y       z     vdW  Elec       q    Type
                         _______ _______ _______ _____ _____    ______ ____

>  <TORSDO>
F 6

$$$$
=
 OpenBabel11052412473D

 25 28  0  0  1  0  0  0  0  0999 V2000
  188.4210  177.5570  144.4420 C   0  0  0  0  0  0  0  0  0  0  0  0
  187.0660  177.8790  144.5370 C   0  0  0  0  0  0  0  0  0  0  0  0
  188.7030  177.6260  146.8390 C   0  0  0  0  0  3  0  0  0  0  0  0
  189.3620  177.5350  143.2930 C   0  0  1  0  0  3  0  0  0  0  0  0
  191.4880  177.4570  141.5890 C   0  0  0  0  0  2  0  0  0  0  0  0
  187.3310  177.9010  146.9750 C   0  0  0  0  0  3  0  0  0  0  0  0
  190.5790  176.9110  143.8180 N   0  0  1  0  0  0  0  0  0  0  0  0
  191.7060  177.5220  143.1250 C   0  0  0  0  0  2  0  0  0  0  0  0
  185.1410  178.3380  145.9640 C   0  0  0  0  0  0  0  0  0  0  0  0
  184.5610  178.4890  147.2190 O   0  0  0  0  0  1  0  0  0  0  0  0
  186.2670  178.0520  143.4030 C   0  0  0  0  0  3  0  0  0  0  0  0
  190.2720  176.5820  141.1720 C   0  0  0  0  0  2  0  0  0  0  0  0
  189.2120  177.4660  145.5530 C   0  0  0  0  0  0  0  0  0  0  0  0
  190.5600  177.2250  145.1890 N   0  0  0  0  0  2  0  0  0  0  0  0
  184.3520  178.4990  144.8210 C   0  0  0  0  0  3  0  0  0  0  0  0
  188.9840  176.8570  141.9870 C   0  0  0  0  0  2  0  0  0  0  0  0
  184.9120  178.3580  143.5460 C   0  0  0  0  0  0  0  0  0  0  0  0
  186.5060  178.0310  145.8350 C   0  0  0  0  0  0  0  0  0  0  0  0
  183.8920  178.5800  142.0950 S   0  0  0  0  0  0  0  0  0  0  0  0
  185.3290  178.9460  141.0420 C   0  0  0  0  0  2  0  0  0  0  0  0
  184.8830  179.2250  139.6150 C   0  0  0  0  0  2  0  0  0  0  0  0
  185.4500  178.1920  138.6540 C   0  0  0  0  0  2  0  0  0  0  0  0
  186.6570  178.7030  138.0270 N   0  0  0  0  0  2  0  0  0  0  0  0
  187.7500  177.8600  138.4770 C   0  0  0  0  0  2  0  0  0  0  0  0
  189.0590  178.6000  138.3050 C   0  0  0  0  0  1  0  0  0  0  0  0
  1  2  2  0  0  0  0
  1 13  1  0  0  0  0
  2 18  1  0  0  0  0
  3  6  1  0  0  0  0
  4 16  1  6  0  0  0
  4  7  1  0  0  0  0
  4  1  1  0  0  0  0
  5  8  1  0  0  0  0
  7  8  1  6  0  0  0
  7 14  1  0  0  0  0
  9 10  1  0  0  0  0
 11 17  2  0  0  0  0
 11  2  1  0  0  0  0
 12  5  1  0  0  0  0
 12 16  1  0  0  0  0
 13  3  2  0  0  0  0
 14 13  1  0  0  0  0
 15  9  2  0  0  0  0
 17 15  1  0  0  0  0
 18  9  1  0  0  0  0
 18  6  2  0  0  0  0
 19 17  1  0  0  0  0
 20 19  1  0  0  0  0
 21 20  1  0  0  0  0
 22 21  1  0  0  0  0
 23 24  1  0  0  0  0
 23 22  1  0  0  0  0
 25 24  1  0  0  0  0
M  END
>  <MODEL>
6

>  <REMARK>
 VINA RESULT:      -8.6      2.984      4.929
  Name = 
  6 active torsions:
  status: ('A' for Active; 'I' for Inactive)
    1  A    between atoms: C_2  and  N_12
    2  A    between atoms: S_6  and  C_15
    3  A    between atoms: S_6  and  C_23
    4  A    between atoms: N_12  and  C_25
    5  A    between atoms: C_15  and  C_21
    6  A    between atoms: C_21  and  C_25
                            x       y       z     vdW  Elec       q    Type
                         _______ _______ _______ _____ _____    ______ ____

>  <TORSDO>
F 6

$$$$
=
 OpenBabel11052412473D

 25 28  0  0  1  0  0  0  0  0999 V2000
  187.7800  177.5430  144.7350 C   0  0  0  0  0  0  0  0  0  0  0  0
  186.5050  177.9150  144.3060 C   0  0  0  0  0  0  0  0  0  0  0  0
  187.2310  177.9700  147.0480 C   0  0  0  0  0  3  0  0  0  0  0  0
  189.0520  177.3190  144.0020 C   0  0  1  0  0  3  0  0  0  0  0  0
  191.6190  176.9200  143.1750 C   0  0  0  0  0  2  0  0  0  0  0  0
  185.9220  178.3020  146.6570 C   0  0  0  0  0  3  0  0  0  0  0  0
  189.9620  176.7480  144.9970 N   0  0  1  0  0  0  0  0  0  0  0  0
  191.3030  177.2130  144.6670 C   0  0  0  0  0  2  0  0  0  0  0  0
  184.2510  178.6420  144.8950 C   0  0  0  0  0  0  0  0  0  0  0  0
  183.2920  178.9990  145.8360 O   0  0  0  0  0  1  0  0  0  0  0  0
  186.1570  177.9350  142.9530 C   0  0  0  0  0  3  0  0  0  0  0  0
  190.5520  176.0260  142.4800 C   0  0  0  0  0  2  0  0  0  0  0  0
  188.1340  177.6010  146.0540 C   0  0  0  0  0  0  0  0  0  0  0  0
  189.5010  177.2680  146.2200 N   0  0  0  0  0  2  0  0  0  0  0  0
  183.9160  178.6490  143.5380 C   0  0  0  0  0  3  0  0  0  0  0  0
  189.0900  176.4610  142.7490 C   0  0  0  0  0  2  0  0  0  0  0  0
  184.8640  178.2980  142.5700 C   0  0  0  0  0  0  0  0  0  0  0  0
  185.5490  178.2800  145.2940 C   0  0  0  0  0  0  0  0  0  0  0  0
  184.4220  178.3250  140.8390 S   0  0  0  0  0  0  0  0  0  0  0  0
  186.1470  178.5840  140.3200 C   0  0  0  0  0  2  0  0  0  0  0  0
  186.2570  178.5370  138.8040 C   0  0  0  0  0  2  0  0  0  0  0  0
  187.5990  177.9690  138.3710 C   0  0  0  0  0  2  0  0  0  0  0  0
  188.6760  178.8380  138.8140 N   0  0  0  0  0  2  0  0  0  0  0  0
  189.7350  177.9750  139.3020 C   0  0  0  0  0  2  0  0  0  0  0  0
  189.5280  176.5730  138.7700 C   0  0  0  0  0  1  0  0  0  0  0  0
  1 13  1  0  0  0  0
  2  1  2  0  0  0  0
  2 18  1  0  0  0  0
  4 16  1  6  0  0  0
  4  1  1  0  0  0  0
  4  7  1  0  0  0  0
  5  8  1  0  0  0  0
  6  3  1  0  0  0  0
  7  8  1  6  0  0  0
  7 14  1  0  0  0  0
  9 18  1  0  0  0  0
  9 10  1  0  0  0  0
 11  2  1  0  0  0  0
 12 16  1  0  0  0  0
 12  5  1  0  0  0  0
 13 14  1  0  0  0  0
 13  3  2  0  0  0  0
 15  9  2  0  0  0  0
 17 11  2  0  0  0  0
 17 15  1  0  0  0  0
 18  6  2  0  0  0  0
 19 17  1  0  0  0  0
 20 19  1  0  0  0  0
 21 20  1  0  0  0  0
 22 21  1  0  0  0  0
 22 23  1  0  0  0  0
 23 24  1  0  0  0  0
 25 24  1  0  0  0  0
M  END
>  <MODEL>
7

>  <REMARK>
 VINA RESULT:      -8.3      2.887      4.957
  Name = 
  6 active torsions:
  status: ('A' for Active; 'I' for Inactive)
    1  A    between atoms: C_2  and  N_12
    2  A    between atoms: S_6  and  C_15
    3  A    between atoms: S_6  and  C_23
    4  A    between atoms: N_12  and  C_25
    5  A    between atoms: C_15  and  C_21
    6  A    between atoms: C_21  and  C_25
                            x       y       z     vdW  Elec       q    Type
                         _______ _______ _______ _____ _____    ______ ____

>  <TORSDO>
F 6

$$$$
=
 OpenBabel11052412473D

 25 28  0  0  1  0  0  0  0  0999 V2000
  187.4980  177.6210  144.8730 C   0  0  0  0  0  0  0  0  0  0  0  0
  186.2590  178.0190  144.3670 C   0  0  0  0  0  0  0  0  0  0  0  0
  186.8900  178.2530  147.1230 C   0  0  0  0  0  3  0  0  0  0  0  0
  188.7820  177.2780  144.2100 C   0  0  1  0  0  3  0  0  0  0  0  0
  191.3530  176.6910  143.5180 C   0  0  0  0  0  2  0  0  0  0  0  0
  185.6140  178.6170  146.6570 C   0  0  0  0  0  3  0  0  0  0  0  0
  189.6250  176.7430  145.2810 N   0  0  1  0  0  0  0  0  0  0  0  0
  191.0000  177.1160  144.9700 C   0  0  0  0  0  2  0  0  0  0  0  0
  184.0270  178.8970  144.8100 C   0  0  0  0  0  0  0  0  0  0  0  0
  183.0540  179.3740  145.6820 O   0  0  0  0  0  1  0  0  0  0  0  0
  185.9620  177.9490  143.0040 C   0  0  0  0  0  3  0  0  0  0  0  0
  190.2670  175.7990  142.8520 C   0  0  0  0  0  2  0  0  0  0  0  0
  187.8080  177.7640  146.1970 C   0  0  0  0  0  0  0  0  0  0  0  0
  189.1490  177.3800  146.4420 N   0  0  0  0  0  2  0  0  0  0  0  0
  183.7410  178.8140  143.4440 C   0  0  0  0  0  3  0  0  0  0  0  0
  188.8200  176.3230  143.0290 C   0  0  0  0  0  2  0  0  0  0  0  0
  184.7030  178.3430  142.5440 C   0  0  0  0  0  0  0  0  0  0  0  0
  185.2890  178.5060  145.2860 C   0  0  0  0  0  0  0  0  0  0  0  0
  184.3250  178.2550  140.8000 S   0  0  0  0  0  0  0  0  0  0  0  0
  182.5820  178.7030  141.0730 C   0  0  0  0  0  2  0  0  0  0  0  0
  181.6650  177.7040  140.3840 C   0  0  0  0  0  2  0  0  0  0  0  0
  180.2050  178.0900  140.5630 C   0  0  0  0  0  2  0  0  0  0  0  0
  179.6910  177.5360  141.8040 N   0  0  0  0  0  2  0  0  0  0  0  0
  179.3120  178.6620  142.6380 C   0  0  0  0  0  2  0  0  0  0  0  0
  180.0230  178.5620  143.9710 C   0  0  0  0  0  1  0  0  0  0  0  0
  1 13  1  0  0  0  0
  2  1  2  0  0  0  0
  2 18  1  0  0  0  0
  4 16  1  6  0  0  0
  4  1  1  0  0  0  0
  4  7  1  0  0  0  0
  5  8  1  0  0  0  0
  6  3  1  0  0  0  0
  7  8  1  6  0  0  0
  7 14  1  0  0  0  0
  9 18  1  0  0  0  0
  9 10  1  0  0  0  0
 11  2  1  0  0  0  0
 12 16  1  0  0  0  0
 12  5  1  0  0  0  0
 13 14  1  0  0  0  0
 13  3  2  0  0  0  0
 15  9  2  0  0  0  0
 17 11  2  0  0  0  0
 17 15  1  0  0  0  0
 18  6  2  0  0  0  0
 19 20  1  0  0  0  0
 19 17  1  0  0  0  0
 21 22  1  0  0  0  0
 21 20  1  0  0  0  0
 22 23  1  0  0  0  0
 23 24  1  0  0  0  0
 24 25  1  0  0  0  0
M  END
>  <MODEL>
8

>  <REMARK>
 VINA RESULT:      -8.3      3.603      6.476
  Name = 
  6 active torsions:
  status: ('A' for Active; 'I' for Inactive)
    1  A    between atoms: C_2  and  N_12
    2  A    between atoms: S_6  and  C_15
    3  A    between atoms: S_6  and  C_23
    4  A    between atoms: N_12  and  C_25
    5  A    between atoms: C_15  and  C_21
    6  A    between atoms: C_21  and  C_25
                            x       y       z     vdW  Elec       q    Type
                         _______ _______ _______ _____ _____    ______ ____

>  <TORSDO>
F 6

$$$$
=
 OpenBabel11052412473D

 25 28  0  0  1  0  0  0  0  0999 V2000
  189.5580  177.1960  144.5760 C   0  0  0  0  0  0  0  0  0  0  0  0
  188.5640  177.5810  145.4780 C   0  0  0  0  0  0  0  0  0  0  0  0
  191.1270  176.7390  146.3540 C   0  0  0  0  0  3  0  0  0  0  0  0
  189.6830  177.3530  143.1050 C   0  0  1  0  0  3  0  0  0  0  0  0
  190.4560  177.4940  140.4940 C   0  0  0  0  0  2  0  0  0  0  0  0
  190.1340  177.0700  147.2920 C   0  0  0  0  0  3  0  0  0  0  0  0
  190.8550  176.5530  142.7420 N   0  0  1  0  0  0  0  0  0  0  0  0
  191.4960  177.2200  141.6150 C   0  0  0  0  0  2  0  0  0  0  0  0
  187.8680  177.8560  147.8000 C   0  0  0  0  0  0  0  0  0  0  0  0
  188.1170  177.7780  149.1660 O   0  0  0  0  0  1  0  0  0  0  0  0
  187.3160  178.0410  145.0490 C   0  0  0  0  0  3  0  0  0  0  0  0
  189.0820  176.8100  140.7420 C   0  0  0  0  0  2  0  0  0  0  0  0
  190.8010  176.8200  145.0020 C   0  0  0  0  0  0  0  0  0  0  0  0
  191.6540  176.5720  143.8990 N   0  0  0  0  0  2  0  0  0  0  0  0
  186.6210  178.3070  147.3560 C   0  0  0  0  0  3  0  0  0  0  0  0
  188.5340  176.9930  142.1800 C   0  0  0  0  0  2  0  0  0  0  0  0
  186.3450  178.4000  145.9880 C   0  0  0  0  0  0  0  0  0  0  0  0
  188.8530  177.4930  146.8670 C   0  0  0  0  0  0  0  0  0  0  0  0
  184.7510  178.9910  145.4370 S   0  0  0  0  0  0  0  0  0  0  0  0
  184.9680  178.2740  143.7790 C   0  0  0  0  0  2  0  0  0  0  0  0
  183.8410  178.7170  142.8590 C   0  0  0  0  0  2  0  0  0  0  0  0
  182.7310  179.3990  143.6430 C   0  0  0  0  0  2  0  0  0  0  0  0
  181.4560  179.2050  142.9740 N   0  0  0  0  0  2  0  0  0  0  0  0
  180.6860  178.2920  143.7980 C   0  0  0  0  0  2  0  0  0  0  0  0
  179.3760  178.9450  144.1850 C   0  0  0  0  0  1  0  0  0  0  0  0
  1 13  2  0  0  0  0
  1  2  1  0  0  0  0
  2 18  1  0  0  0  0
  3  6  2  0  0  0  0
  4 16  1  6  0  0  0
  4  1  1  0  0  0  0
  5 12  1  0  0  0  0
  5  8  1  0  0  0  0
  7  8  1  6  0  0  0
  7  4  1  0  0  0  0
  7 14  1  0  0  0  0
  9 10  1  0  0  0  0
 11  2  2  0  0  0  0
 11 17  1  0  0  0  0
 12 16  1  0  0  0  0
 13  3  1  0  0  0  0
 14 13  1  0  0  0  0
 15  9  1  0  0  0  0
 17 15  2  0  0  0  0
 18  6  1  0  0  0  0
 18  9  2  0  0  0  0
 19 17  1  0  0  0  0
 20 19  1  0  0  0  0
 21 22  1  0  0  0  0
 21 20  1  0  0  0  0
 23 22  1  0  0  0  0
 23 24  1  0  0  0  0
 24 25  1  0  0  0  0
M  END
>  <MODEL>
9

>  <REMARK>
 VINA RESULT:      -8.1      2.853      5.930
  Name = 
  6 active torsions:
  status: ('A' for Active; 'I' for Inactive)
    1  A    between atoms: C_2  and  N_12
    2  A    between atoms: S_6  and  C_15
    3  A    between atoms: S_6  and  C_23
    4  A    between atoms: N_12  and  C_25
    5  A    between atoms: C_15  and  C_21
    6  A    between atoms: C_21  and  C_25
                            x       y       z     vdW  Elec       q    Type
                         _______ _______ _______ _____ _____    ______ ____

>  <TORSDO>
F 6

$$$$
