=
 OpenBabel11052413473D

 27 29  0  0  1  0  0  0  0  0999 V2000
  188.6090  178.0730  143.6860 N   0  0  0  0  0  0  0  0  0  0  0  0
  191.7430  176.4720  146.1600 C   0  0  0  0  0  2  0  0  0  0  0  0
  189.5160  177.2900  144.5460 C   0  0  1  0  0  3  0  0  0  0  0  0
  190.8580  177.2690  143.9850 N   0  0  0  0  0  2  0  0  0  0  0  0
  191.6130  176.2030  144.6520 C   0  0  0  0  0  2  0  0  0  0  0  0
  190.3710  176.7680  146.7940 C   0  0  0  0  0  2  0  0  0  0  0  0
  189.6090  177.8060  145.9860 C   0  0  0  0  0  2  0  0  0  0  0  0
  187.3490  177.3320  143.4230 C   0  0  0  0  0  2  0  0  0  0  0  0
  183.9240  178.8640  144.1260 C   0  0  0  0  0  3  0  0  0  0  0  0
  183.9170  178.8890  145.5250 C   0  0  0  0  0  3  0  0  0  0  0  0
  186.1420  177.8810  144.1430 C   0  0  0  0  0  0  0  0  0  0  0  0
  184.9890  178.3610  141.9390 C   0  0  0  0  0  1  0  0  0  0  0  0
  185.0270  178.4170  146.2360 C   0  0  0  0  0  3  0  0  0  0  0  0
  186.1340  177.9200  145.5430 C   0  0  0  0  0  3  0  0  0  0  0  0
  185.0300  178.3690  143.4330 C   0  0  0  0  0  0  0  0  0  0  0  0
  189.2700  178.2800  142.4570 N   0  0  0  0  0  2  0  0  0  0  0  0
  188.4120  177.7850  141.3920 C   0  0  0  0  0  2  0  0  0  0  0  0
  191.1550  176.4450  139.1620 C   0  0  0  0  0  3  0  0  0  0  0  0
  191.4770  176.4850  136.7830 O   0  0  0  0  0  1  0  0  0  0  0  0
  189.5540  177.6060  137.7570 C   0  0  0  0  0  0  0  0  0  0  0  0
  189.1440  177.9760  136.4790 O   0  0  0  0  0  1  0  0  0  0  0  0
  188.7870  177.9370  138.9020 C   0  0  0  0  0  0  0  0  0  0  0  0
  190.7390  176.8650  137.9010 C   0  0  0  0  0  0  0  0  0  0  0  0
  189.2410  177.5310  140.1690 C   0  0  0  0  0  0  0  0  0  0  0  0
  190.4050  176.7690  140.2890 C   0  0  0  0  0  3  0  0  0  0  0  0
  186.3550  178.1000  138.2950 C   0  0  0  0  0  1  0  0  0  0  0  0
  187.5580  178.6240  138.8380 O   0  0  0  0  0  0  0  0  0  0  0  0
  2  6  1  0  0  0  0
  3  1  1  6  0  0  0
  3  7  1  0  0  0  0
  4  3  1  0  0  0  0
  4  5  1  0  0  0  0
  5  2  1  0  0  0  0
  7  6  1  0  0  0  0
  8  1  1  0  0  0  0
  8 11  1  0  0  0  0
  9 10  1  0  0  0  0
 10 13  2  0  0  0  0
 11 14  2  0  0  0  0
 12 15  1  0  0  0  0
 14 13  1  0  0  0  0
 15  9  2  0  0  0  0
 15 11  1  0  0  0  0
 16  1  1  0  0  0  0
 17 16  1  0  0  0  0
 18 25  1  0  0  0  0
 19 23  1  0  0  0  0
 20 23  1  0  0  0  0
 20 22  2  0  0  0  0
 21 20  1  0  0  0  0
 22 24  1  0  0  0  0
 23 18  2  0  0  0  0
 24 25  2  0  0  0  0
 24 17  1  0  0  0  0
 26 27  1  0  0  0  0
 27 22  1  0  0  0  0
M  END
>  <MODEL>
1

>  <REMARK>
 VINA RESULT:      -8.7      0.000      0.000
  Name = 
  7 active torsions:
  status: ('A' for Active; 'I' for Inactive)
    1  A    between atoms: C_1  and  N_15
    2  A    between atoms: C_1  and  C_18
    3  A    between atoms: N_2  and  C_6
    4  A    between atoms: N_2  and  N_15
    5  A    between atoms: C_6  and  C_17
    6  A    between atoms: C_9  and  N_15
    7  A    between atoms: C_14  and  O_19
                            x       y       z     vdW  Elec       q    Type
                         _______ _______ _______ _____ _____    ______ ____

>  <TORSDO>
F 7

$$$$
=
 OpenBabel11052413473D

 27 29  0  0  1  0  0  0  0  0999 V2000
  188.1680  177.8400  143.8360 N   0  0  0  0  0  0  0  0  0  0  0  0
  191.1280  176.6710  146.7310 C   0  0  0  0  0  2  0  0  0  0  0  0
  189.2620  177.7160  144.8170 C   0  0  1  0  0  3  0  0  0  0  0  0
  188.7830  177.0840  146.0370 N   0  0  0  0  0  2  0  0  0  0  0  0
  189.7780  177.3130  147.0900 C   0  0  0  0  0  2  0  0  0  0  0  0
  191.5880  177.0900  145.3230 C   0  0  0  0  0  2  0  0  0  0  0  0
  190.4680  176.9180  144.3090 C   0  0  0  0  0  2  0  0  0  0  0  0
  186.9560  177.1130  144.2930 C   0  0  0  0  0  2  0  0  0  0  0  0
  183.8420  179.1760  145.0830 C   0  0  0  0  0  3  0  0  0  0  0  0
  183.2820  179.3250  143.8100 C   0  0  0  0  0  3  0  0  0  0  0  0
  185.6700  177.8890  144.1410 C   0  0  0  0  0  0  0  0  0  0  0  0
  185.5870  178.3280  146.6350 C   0  0  0  0  0  1  0  0  0  0  0  0
  183.9110  178.7480  142.7000 C   0  0  0  0  0  3  0  0  0  0  0  0
  185.0980  178.0300  142.8710 C   0  0  0  0  0  3  0  0  0  0  0  0
  185.0270  178.4580  145.2550 C   0  0  0  0  0  0  0  0  0  0  0  0
  188.6140  177.2540  142.6340 N   0  0  0  0  0  2  0  0  0  0  0  0
  188.3420  178.1830  141.5490 C   0  0  0  0  0  2  0  0  0  0  0  0
  191.1610  176.7100  139.5060 C   0  0  0  0  0  3  0  0  0  0  0  0
  191.5130  176.4990  137.1390 O   0  0  0  0  0  1  0  0  0  0  0  0
  189.5380  177.6480  137.9660 C   0  0  0  0  0  0  0  0  0  0  0  0
  189.1310  177.8580  136.6510 O   0  0  0  0  0  1  0  0  0  0  0  0
  188.7440  178.0740  139.0600 C   0  0  0  0  0  0  0  0  0  0  0  0
  190.7470  176.9710  138.2020 C   0  0  0  0  0  0  0  0  0  0  0  0
  189.1960  177.8270  140.3690 C   0  0  0  0  0  0  0  0  0  0  0  0
  190.3860  177.1280  140.5830 C   0  0  0  0  0  3  0  0  0  0  0  0
  186.3370  178.1010  138.3440 C   0  0  0  0  0  1  0  0  0  0  0  0
  187.4920  178.7020  138.9100 O   0  0  0  0  0  0  0  0  0  0  0  0
  1  8  1  0  0  0  0
  2  5  1  0  0  0  0
  3  1  1  6  0  0  0
  3  4  1  0  0  0  0
  4  5  1  0  0  0  0
  6  2  1  0  0  0  0
  7  3  1  0  0  0  0
  7  6  1  0  0  0  0
  9 15  1  0  0  0  0
 10  9  2  0  0  0  0
 11  8  1  0  0  0  0
 11 15  2  0  0  0  0
 13 14  2  0  0  0  0
 13 10  1  0  0  0  0
 14 11  1  0  0  0  0
 15 12  1  0  0  0  0
 16  1  1  0  0  0  0
 17 16  1  0  0  0  0
 18 25  1  0  0  0  0
 19 23  1  0  0  0  0
 20 23  1  0  0  0  0
 20 22  2  0  0  0  0
 21 20  1  0  0  0  0
 22 24  1  0  0  0  0
 23 18  2  0  0  0  0
 24 25  2  0  0  0  0
 24 17  1  0  0  0  0
 26 27  1  0  0  0  0
 27 22  1  0  0  0  0
M  END
>  <MODEL>
2

>  <REMARK>
 VINA RESULT:      -8.6      0.857      1.771
  Name = 
  7 active torsions:
  status: ('A' for Active; 'I' for Inactive)
    1  A    between atoms: C_1  and  N_15
    2  A    between atoms: C_1  and  C_18
    3  A    between atoms: N_2  and  C_6
    4  A    between atoms: N_2  and  N_15
    5  A    between atoms: C_6  and  C_17
    6  A    between atoms: C_9  and  N_15
    7  A    between atoms: C_14  and  O_19
                            x       y       z     vdW  Elec       q    Type
                         _______ _______ _______ _____ _____    ______ ____

>  <TORSDO>
F 7

$$$$
=
 OpenBabel11052413473D

 27 29  0  0  1  0  0  0  0  0999 V2000
  187.9300  177.2810  144.0820 N   0  0  0  0  0  0  0  0  0  0  0  0
  184.0920  178.7490  145.3560 C   0  0  0  0  0  2  0  0  0  0  0  0
  186.7540  178.0330  144.5580 C   0  0  1  0  0  3  0  0  0  0  0  0
  185.6470  177.8910  143.6250 N   0  0  0  0  0  2  0  0  0  0  0  0
  184.6540  178.9250  143.9360 C   0  0  0  0  0  2  0  0  0  0  0  0
  185.2240  178.6260  146.3920 C   0  0  0  0  0  2  0  0  0  0  0  0
  186.2640  177.6100  145.9480 C   0  0  0  0  0  2  0  0  0  0  0  0
  189.1870  178.0180  144.3680 C   0  0  0  0  0  2  0  0  0  0  0  0
  191.9910  175.9880  145.9760 C   0  0  0  0  0  3  0  0  0  0  0  0
  191.7060  176.1560  147.3350 C   0  0  0  0  0  3  0  0  0  0  0  0
  190.0770  177.3590  145.3930 C   0  0  0  0  0  0  0  0  0  0  0  0
  191.5280  176.3730  143.5660 C   0  0  0  0  0  1  0  0  0  0  0  0
  190.6000  176.9190  147.7260 C   0  0  0  0  0  3  0  0  0  0  0  0
  189.7890  177.5130  146.7540 C   0  0  0  0  0  3  0  0  0  0  0  0
  191.1810  176.5800  145.0050 C   0  0  0  0  0  0  0  0  0  0  0  0
  187.8010  177.1410  142.6850 N   0  0  0  0  0  2  0  0  0  0  0  0
  188.6200  178.1630  142.0500 C   0  0  0  0  0  2  0  0  0  0  0  0
  190.0270  176.5820  138.9180 C   0  0  0  0  0  3  0  0  0  0  0  0
  189.2590  176.5240  136.6430 O   0  0  0  0  0  1  0  0  0  0  0  0
  188.0190  177.7940  138.3020 C   0  0  0  0  0  0  0  0  0  0  0  0
  187.0980  178.1470  137.3180 O   0  0  0  0  0  1  0  0  0  0  0  0
  187.8540  178.2100  139.6470 C   0  0  0  0  0  0  0  0  0  0  0  0
  189.1120  176.9850  137.9490 C   0  0  0  0  0  0  0  0  0  0  0  0
  188.8070  177.8180  140.6040 C   0  0  0  0  0  0  0  0  0  0  0  0
  189.8710  176.9890  140.2400 C   0  0  0  0  0  3  0  0  0  0  0  0
  185.4000  178.5480  140.0550 C   0  0  0  0  0  1  0  0  0  0  0  0
  186.7550  178.9690  140.0940 O   0  0  0  0  0  0  0  0  0  0  0  0
  1  8  1  0  0  0  0
  2  6  1  0  0  0  0
  3  1  1  6  0  0  0
  3  7  1  0  0  0  0
  4  5  1  0  0  0  0
  4  3  1  0  0  0  0
  5  2  1  0  0  0  0
  7  6  1  0  0  0  0
  8 11  1  0  0  0  0
  9 10  1  0  0  0  0
 10 13  2  0  0  0  0
 11 14  2  0  0  0  0
 12 15  1  0  0  0  0
 14 13  1  0  0  0  0
 15 11  1  0  0  0  0
 15  9  2  0  0  0  0
 16  1  1  0  0  0  0
 17 16  1  0  0  0  0
 18 25  1  0  0  0  0
 19 23  1  0  0  0  0
 20 22  2  0  0  0  0
 21 20  1  0  0  0  0
 22 27  1  0  0  0  0
 22 24  1  0  0  0  0
 23 20  1  0  0  0  0
 23 18  2  0  0  0  0
 24 17  1  0  0  0  0
 25 24  2  0  0  0  0
 26 27  1  0  0  0  0
M  END
>  <MODEL>
3

>  <REMARK>
 VINA RESULT:      -8.5      1.260      4.482
  Name = 
  7 active torsions:
  status: ('A' for Active; 'I' for Inactive)
    1  A    between atoms: C_1  and  N_15
    2  A    between atoms: C_1  and  C_18
    3  A    between atoms: N_2  and  C_6
    4  A    between atoms: N_2  and  N_15
    5  A    between atoms: C_6  and  C_17
    6  A    between atoms: C_9  and  N_15
    7  A    between atoms: C_14  and  O_19
                            x       y       z     vdW  Elec       q    Type
                         _______ _______ _______ _____ _____    ______ ____

>  <TORSDO>
F 7

$$$$
=
 OpenBabel11052413473D

 27 29  0  0  1  0  0  0  0  0999 V2000
  188.1440  177.9750  143.0400 N   0  0  0  0  0  0  0  0  0  0  0  0
  191.2410  177.1180  140.1800 C   0  0  0  0  0  2  0  0  0  0  0  0
  189.2250  177.9680  142.0370 C   0  0  1  0  0  3  0  0  0  0  0  0
  190.3320  177.1370  142.4870 N   0  0  0  0  0  2  0  0  0  0  0  0
  191.5010  177.4490  141.6580 C   0  0  0  0  0  2  0  0  0  0  0  0
  189.9290  177.7560  139.6880 C   0  0  0  0  0  2  0  0  0  0  0  0
  188.7890  177.4730  140.6530 C   0  0  0  0  0  2  0  0  0  0  0  0
  188.3520  176.9130  144.0570 C   0  0  0  0  0  2  0  0  0  0  0  0
  189.1200  177.8360  147.6810 C   0  0  0  0  0  3  0  0  0  0  0  0
  187.8630  178.2550  148.1290 C   0  0  0  0  0  3  0  0  0  0  0  0
  188.1970  177.3780  145.4840 C   0  0  0  0  0  0  0  0  0  0  0  0
  190.6540  176.9580  145.9350 C   0  0  0  0  0  1  0  0  0  0  0  0
  186.7680  178.2280  147.2580 C   0  0  0  0  0  3  0  0  0  0  0  0
  186.9390  177.7870  145.9420 C   0  0  0  0  0  3  0  0  0  0  0  0
  189.2910  177.3940  146.3680 C   0  0  0  0  0  0  0  0  0  0  0  0
  186.9380  177.7120  142.3590 N   0  0  0  0  0  2  0  0  0  0  0  0
  186.2680  178.9810  142.1180 C   0  0  0  0  0  2  0  0  0  0  0  0
  183.2030  179.1420  144.3260 C   0  0  0  0  0  3  0  0  0  0  0  0
  180.8560  178.9260  143.8640 O   0  0  0  0  0  1  0  0  0  0  0  0
  182.4700  178.6300  142.0710 C   0  0  0  0  0  0  0  0  0  0  0  0
  181.4180  178.4090  141.1850 O   0  0  0  0  0  1  0  0  0  0  0  0
  183.8160  178.6380  141.6290 C   0  0  0  0  0  0  0  0  0  0  0  0
  182.1770  178.8780  143.4230 C   0  0  0  0  0  0  0  0  0  0  0  0
  184.8400  178.8760  142.5630 C   0  0  0  0  0  0  0  0  0  0  0  0
  184.5270  179.1500  143.8960 C   0  0  0  0  0  3  0  0  0  0  0  0
  184.1120  179.4550  139.2730 C   0  0  0  0  0  1  0  0  0  0  0  0
  184.1900  178.4600  140.2830 O   0  0  0  0  0  0  0  0  0  0  0  0
  1  8  1  0  0  0  0
  2  5  1  0  0  0  0
  3  4  1  0  0  0  0
  3  1  1  1  0  0  0
  5  4  1  0  0  0  0
  6  2  1  0  0  0  0
  6  7  1  0  0  0  0
  7  3  1  0  0  0  0
  8 11  1  0  0  0  0
  9 10  1  0  0  0  0
 11 14  2  0  0  0  0
 11 15  1  0  0  0  0
 12 15  1  0  0  0  0
 13 10  2  0  0  0  0
 14 13  1  0  0  0  0
 15  9  2  0  0  0  0
 16  1  1  0  0  0  0
 17 16  1  0  0  0  0
 17 24  1  0  0  0  0
 20 23  1  0  0  0  0
 21 20  1  0  0  0  0
 22 20  2  0  0  0  0
 22 24  1  0  0  0  0
 23 19  1  0  0  0  0
 23 18  2  0  0  0  0
 24 25  2  0  0  0  0
 25 18  1  0  0  0  0
 26 27  1  0  0  0  0
 27 22  1  0  0  0  0
M  END
>  <MODEL>
4

>  <REMARK>
 VINA RESULT:      -8.5      2.618      5.975
  Name = 
  7 active torsions:
  status: ('A' for Active; 'I' for Inactive)
    1  A    between atoms: C_1  and  N_15
    2  A    between atoms: C_1  and  C_18
    3  A    between atoms: N_2  and  C_6
    4  A    between atoms: N_2  and  N_15
    5  A    between atoms: C_6  and  C_17
    6  A    between atoms: C_9  and  N_15
    7  A    between atoms: C_14  and  O_19
                            x       y       z     vdW  Elec       q    Type
                         _______ _______ _______ _____ _____    ______ ____

>  <TORSDO>
F 7

$$$$
=
 OpenBabel11052413473D

 27 29  0  0  1  0  0  0  0  0999 V2000
  188.3300  177.8380  144.1220 N   0  0  0  0  0  0  0  0  0  0  0  0
  191.1900  176.4610  147.0260 C   0  0  0  0  0  2  0  0  0  0  0  0
  189.4110  177.6350  145.1040 C   0  0  1  0  0  3  0  0  0  0  0  0
  188.8850  177.0540  146.3290 N   0  0  0  0  0  2  0  0  0  0  0  0
  189.8960  177.2130  147.3800 C   0  0  0  0  0  2  0  0  0  0  0  0
  191.6800  176.8300  145.6140 C   0  0  0  0  0  2  0  0  0  0  0  0
  190.5500  176.7400  144.6020 C   0  0  0  0  0  2  0  0  0  0  0  0
  187.0910  177.1330  144.5390 C   0  0  0  0  0  2  0  0  0  0  0  0
  183.9110  179.2050  144.9470 C   0  0  0  0  0  3  0  0  0  0  0  0
  183.4520  179.2650  143.6260 C   0  0  0  0  0  3  0  0  0  0  0  0
  185.8160  177.8820  144.2370 C   0  0  0  0  0  0  0  0  0  0  0  0
  185.5330  178.4790  146.6820 C   0  0  0  0  0  1  0  0  0  0  0  0
  184.1710  178.6270  142.6090 C   0  0  0  0  0  3  0  0  0  0  0  0
  185.3460  177.9350  142.9190 C   0  0  0  0  0  3  0  0  0  0  0  0
  185.0830  178.5140  145.2570 C   0  0  0  0  0  0  0  0  0  0  0  0
  188.7660  177.2890  142.8980 N   0  0  0  0  0  2  0  0  0  0  0  0
  188.9250  178.3770  141.9460 C   0  0  0  0  0  2  0  0  0  0  0  0
  187.3430  177.8620  138.5510 C   0  0  0  0  0  3  0  0  0  0  0  0
  188.0840  176.7240  136.5700 O   0  0  0  0  0  1  0  0  0  0  0  0
  189.4580  176.6760  138.5730 C   0  0  0  0  0  0  0  0  0  0  0  0
  190.4030  175.9170  137.8860 O   0  0  0  0  0  1  0  0  0  0  0  0
  189.6740  177.0810  139.9140 C   0  0  0  0  0  0  0  0  0  0  0  0
  188.2870  177.0680  137.9040 C   0  0  0  0  0  0  0  0  0  0  0  0
  188.6930  177.8560  140.5590 C   0  0  0  0  0  0  0  0  0  0  0  0
  187.5490  178.2600  139.8680 C   0  0  0  0  0  3  0  0  0  0  0  0
  192.0660  177.5040  140.5480 C   0  0  0  0  0  1  0  0  0  0  0  0
  190.8470  176.7830  140.6350 O   0  0  0  0  0  0  0  0  0  0  0  0
  1  8  1  0  0  0  0
  2  5  1  0  0  0  0
  3  1  1  6  0  0  0
  3  4  1  0  0  0  0
  4  5  1  0  0  0  0
  6  2  1  0  0  0  0
  7  3  1  0  0  0  0
  7  6  1  0  0  0  0
  9 15  1  0  0  0  0
 10  9  2  0  0  0  0
 11  8  1  0  0  0  0
 11 15  2  0  0  0  0
 13 14  2  0  0  0  0
 13 10  1  0  0  0  0
 14 11  1  0  0  0  0
 15 12  1  0  0  0  0
 16  1  1  0  0  0  0
 17 16  1  0  0  0  0
 18 25  1  0  0  0  0
 19 23  1  0  0  0  0
 20 22  2  0  0  0  0
 21 20  1  0  0  0  0
 22 24  1  0  0  0  0
 22 27  1  0  0  0  0
 23 18  2  0  0  0  0
 23 20  1  0  0  0  0
 24 17  1  0  0  0  0
 25 24  2  0  0  0  0
 26 27  1  0  0  0  0
M  END
>  <MODEL>
5

>  <REMARK>
 VINA RESULT:      -8.4      1.393      2.714
  Name = 
  7 active torsions:
  status: ('A' for Active; 'I' for Inactive)
    1  A    between atoms: C_1  and  N_15
    2  A    between atoms: C_1  and  C_18
    3  A    between atoms: N_2  and  C_6
    4  A    between atoms: N_2  and  N_15
    5  A    between atoms: C_6  and  C_17
    6  A    between atoms: C_9  and  N_15
    7  A    between atoms: C_14  and  O_19
                            x       y       z     vdW  Elec       q    Type
                         _______ _______ _______ _____ _____    ______ ____

>  <TORSDO>
F 7

$$$$
=
 OpenBabel11052413473D

 27 29  0  0  1  0  0  0  0  0999 V2000
  187.8970  177.2740  144.5180 N   0  0  0  0  0  0  0  0  0  0  0  0
  183.9530  178.7390  145.4150 C   0  0  0  0  0  2  0  0  0  0  0  0
  186.6800  178.0250  144.8770 C   0  0  1  0  0  3  0  0  0  0  0  0
  185.6670  177.8770  143.8430 N   0  0  0  0  0  2  0  0  0  0  0  0
  184.6470  178.9100  144.0540 C   0  0  0  0  0  2  0  0  0  0  0  0
  184.9810  178.6230  146.5550 C   0  0  0  0  0  2  0  0  0  0  0  0
  186.0600  177.6070  146.2160 C   0  0  0  0  0  2  0  0  0  0  0  0
  189.1200  178.0170  144.9160 C   0  0  0  0  0  2  0  0  0  0  0  0
  191.1040  176.3460  147.7170 C   0  0  0  0  0  3  0  0  0  0  0  0
  192.0560  175.6260  146.9860 C   0  0  0  0  0  3  0  0  0  0  0  0
  190.1410  177.1860  145.6550 C   0  0  0  0  0  0  0  0  0  0  0  0
  189.1550  177.8770  147.8840 C   0  0  0  0  0  1  0  0  0  0  0  0
  192.0570  175.6920  145.5880 C   0  0  0  0  0  3  0  0  0  0  0  0
  191.1030  176.4740  144.9300 C   0  0  0  0  0  3  0  0  0  0  0  0
  190.1520  177.1280  147.0600 C   0  0  0  0  0  0  0  0  0  0  0  0
  187.9000  177.1250  143.1160 N   0  0  0  0  0  2  0  0  0  0  0  0
  188.7480  178.1650  142.5530 C   0  0  0  0  0  2  0  0  0  0  0  0
  190.2620  176.7240  139.4020 C   0  0  0  0  0  3  0  0  0  0  0  0
  189.5590  176.7470  137.1060 O   0  0  0  0  0  1  0  0  0  0  0  0
  188.2570  177.9360  138.7770 C   0  0  0  0  0  0  0  0  0  0  0  0
  187.3600  178.3170  137.7820 O   0  0  0  0  0  1  0  0  0  0  0  0
  188.0490  178.2970  140.1320 C   0  0  0  0  0  0  0  0  0  0  0  0
  189.3700  177.1540  138.4240 C   0  0  0  0  0  0  0  0  0  0  0  0
  188.9800  177.8780  141.0990 C   0  0  0  0  0  0  0  0  0  0  0  0
  190.0640  177.0770  140.7340 C   0  0  0  0  0  3  0  0  0  0  0  0
  185.5760  178.6280  140.4110 C   0  0  0  0  0  1  0  0  0  0  0  0
  186.9290  179.0250  140.5770 O   0  0  0  0  0  0  0  0  0  0  0  0
  1  8  1  0  0  0  0
  2  6  1  0  0  0  0
  3  1  1  6  0  0  0
  3  7  1  0  0  0  0
  4  5  1  0  0  0  0
  4  3  1  0  0  0  0
  5  2  1  0  0  0  0
  7  6  1  0  0  0  0
  8 11  1  0  0  0  0
 10  9  2  0  0  0  0
 11 15  2  0  0  0  0
 13 10  1  0  0  0  0
 14 13  2  0  0  0  0
 14 11  1  0  0  0  0
 15  9  1  0  0  0  0
 15 12  1  0  0  0  0
 16  1  1  0  0  0  0
 17 16  1  0  0  0  0
 18 25  1  0  0  0  0
 19 23  1  0  0  0  0
 20 22  2  0  0  0  0
 21 20  1  0  0  0  0
 22 27  1  0  0  0  0
 22 24  1  0  0  0  0
 23 20  1  0  0  0  0
 23 18  2  0  0  0  0
 24 17  1  0  0  0  0
 25 24  2  0  0  0  0
 26 27  1  0  0  0  0
M  END
>  <MODEL>
6

>  <REMARK>
 VINA RESULT:      -8.4      1.270      4.679
  Name = 
  7 active torsions:
  status: ('A' for Active; 'I' for Inactive)
    1  A    between atoms: C_1  and  N_15
    2  A    between atoms: C_1  and  C_18
    3  A    between atoms: N_2  and  C_6
    4  A    between atoms: N_2  and  N_15
    5  A    between atoms: C_6  and  C_17
    6  A    between atoms: C_9  and  N_15
    7  A    between atoms: C_14  and  O_19
                            x       y       z     vdW  Elec       q    Type
                         _______ _______ _______ _____ _____    ______ ____

>  <TORSDO>
F 7

$$$$
=
 OpenBabel11052413473D

 27 29  0  0  1  0  0  0  0  0999 V2000
  187.0070  177.9870  141.5070 N   0  0  0  0  0  0  0  0  0  0  0  0
  189.0160  178.4440  137.7310 C   0  0  0  0  0  2  0  0  0  0  0  0
  187.7020  177.8560  140.2130 C   0  0  1  0  0  3  0  0  0  0  0  0
  187.0180  178.6290  139.1880 N   0  0  0  0  0  2  0  0  0  0  0  0
  187.5080  178.1850  137.8790 C   0  0  0  0  0  2  0  0  0  0  0  0
  189.8010  177.8750  138.9280 C   0  0  0  0  0  2  0  0  0  0  0  0
  189.1690  178.2970  140.2450 C   0  0  0  0  0  2  0  0  0  0  0  0
  186.1930  179.2280  141.5530 C   0  0  0  0  0  2  0  0  0  0  0  0
  182.5790  178.5680  142.5900 C   0  0  0  0  0  3  0  0  0  0  0  0
  182.6140  178.9220  143.9430 C   0  0  0  0  0  3  0  0  0  0  0  0
  184.9320  179.1160  142.3750 C   0  0  0  0  0  0  0  0  0  0  0  0
  183.6410  178.2770  140.3630 C   0  0  0  0  0  1  0  0  0  0  0  0
  183.8060  179.3810  144.5140 C   0  0  0  0  0  3  0  0  0  0  0  0
  184.9580  179.4800  143.7270 C   0  0  0  0  0  3  0  0  0  0  0  0
  183.7280  178.6680  141.8040 C   0  0  0  0  0  0  0  0  0  0  0  0
  187.9980  178.0640  142.5090 N   0  0  0  0  0  2  0  0  0  0  0  0
  187.9280  176.8510  143.3090 C   0  0  0  0  0  2  0  0  0  0  0  0
  187.0080  177.7640  146.8600 C   0  0  0  0  0  3  0  0  0  0  0  0
  188.2940  177.9140  148.8830 O   0  0  0  0  0  1  0  0  0  0  0  0
  189.4010  177.3760  146.7880 C   0  0  0  0  0  0  0  0  0  0  0  0
  190.6120  177.2850  147.4710 O   0  0  0  0  0  1  0  0  0  0  0  0
  189.3190  177.1130  145.3980 C   0  0  0  0  0  0  0  0  0  0  0  0
  188.2400  177.7050  147.5070 C   0  0  0  0  0  0  0  0  0  0  0  0
  188.0700  177.2080  144.7580 C   0  0  0  0  0  0  0  0  0  0  0  0
  186.9230  177.5080  145.4950 C   0  0  0  0  0  3  0  0  0  0  0  0
  191.4160  177.5920  144.1020 C   0  0  0  0  0  1  0  0  0  0  0  0
  190.4230  176.7170  144.6170 O   0  0  0  0  0  0  0  0  0  0  0  0
  1  8  1  0  0  0  0
  1 16  1  0  0  0  0
  2  5  1  0  0  0  0
  2  6  1  0  0  0  0
  3  7  1  0  0  0  0
  3  1  1  1  0  0  0
  4  3  1  0  0  0  0
  5  4  1  0  0  0  0
  6  7  1  0  0  0  0
  8 11  1  0  0  0  0
  9 10  1  0  0  0  0
 10 13  2  0  0  0  0
 11 14  2  0  0  0  0
 12 15  1  0  0  0  0
 14 13  1  0  0  0  0
 15 11  1  0  0  0  0
 15  9  2  0  0  0  0
 16 17  1  0  0  0  0
 17 24  1  0  0  0  0
 18 23  1  0  0  0  0
 20 21  1  0  0  0  0
 20 23  2  0  0  0  0
 22 20  1  0  0  0  0
 23 19  1  0  0  0  0
 24 22  2  0  0  0  0
 24 25  1  0  0  0  0
 25 18  2  0  0  0  0
 26 27  1  0  0  0  0
 27 22  1  0  0  0  0
M  END
>  <MODEL>
7

>  <REMARK>
 VINA RESULT:      -8.3      3.297      6.433
  Name = 
  7 active torsions:
  status: ('A' for Active; 'I' for Inactive)
    1  A    between atoms: C_1  and  N_15
    2  A    between atoms: C_1  and  C_18
    3  A    between atoms: N_2  and  C_6
    4  A    between atoms: N_2  and  N_15
    5  A    between atoms: C_6  and  C_17
    6  A    between atoms: C_9  and  N_15
    7  A    between atoms: C_14  and  O_19
                            x       y       z     vdW  Elec       q    Type
                         _______ _______ _______ _____ _____    ______ ____

>  <TORSDO>
F 7

$$$$
=
 OpenBabel11052413473D

 27 29  0  0  1  0  0  0  0  0999 V2000
  187.9820  177.2510  143.9280 N   0  0  0  0  0  0  0  0  0  0  0  0
  184.1440  178.8590  145.0190 C   0  0  0  0  0  2  0  0  0  0  0  0
  186.8140  178.0440  144.3550 C   0  0  1  0  0  3  0  0  0  0  0  0
  185.7560  177.9690  143.3590 N   0  0  0  0  0  2  0  0  0  0  0  0
  184.7910  179.0380  143.6370 C   0  0  0  0  0  2  0  0  0  0  0  0
  185.2100  178.6660  146.1140 C   0  0  0  0  0  2  0  0  0  0  0  0
  186.2290  177.6150  145.7050 C   0  0  0  0  0  2  0  0  0  0  0  0
  189.2490  177.9720  144.2110 C   0  0  0  0  0  2  0  0  0  0  0  0
  191.8970  176.0570  146.1840 C   0  0  0  0  0  3  0  0  0  0  0  0
  191.5210  176.3460  147.5000 C   0  0  0  0  0  3  0  0  0  0  0  0
  190.0530  177.3950  145.3500 C   0  0  0  0  0  0  0  0  0  0  0  0
  191.6100  176.2350  143.7230 C   0  0  0  0  0  1  0  0  0  0  0  0
  190.4040  177.1540  147.7440 C   0  0  0  0  0  3  0  0  0  0  0  0
  189.6740  177.6700  146.6690 C   0  0  0  0  0  3  0  0  0  0  0  0
  191.1680  176.5710  145.1100 C   0  0  0  0  0  0  0  0  0  0  0  0
  187.8760  177.0650  142.5340 N   0  0  0  0  0  2  0  0  0  0  0  0
  188.8960  177.8770  141.8900 C   0  0  0  0  0  2  0  0  0  0  0  0
  187.5410  178.1700  138.3730 C   0  0  0  0  0  3  0  0  0  0  0  0
  188.4760  177.6450  136.2240 O   0  0  0  0  0  1  0  0  0  0  0  0
  189.7430  177.1630  138.2400 C   0  0  0  0  0  0  0  0  0  0  0  0
  190.7810  176.6760  137.4490 O   0  0  0  0  0  1  0  0  0  0  0  0
  189.8540  177.2140  139.6520 C   0  0  0  0  0  0  0  0  0  0  0  0
  188.5790  177.6390  137.6120 C   0  0  0  0  0  0  0  0  0  0  0  0
  188.7810  177.7250  140.4020 C   0  0  0  0  0  0  0  0  0  0  0  0
  187.6440  178.2200  139.7590 C   0  0  0  0  0  3  0  0  0  0  0  0
  192.2300  177.5390  140.3970 C   0  0  0  0  0  1  0  0  0  0  0  0
  191.0090  176.8150  140.3530 O   0  0  0  0  0  0  0  0  0  0  0  0
  1  8  1  0  0  0  0
  2  6  1  0  0  0  0
  3  1  1  6  0  0  0
  3  7  1  0  0  0  0
  4  5  1  0  0  0  0
  4  3  1  0  0  0  0
  5  2  1  0  0  0  0
  7  6  1  0  0  0  0
  8 11  1  0  0  0  0
  9 10  1  0  0  0  0
 10 13  2  0  0  0  0
 11 14  2  0  0  0  0
 12 15  1  0  0  0  0
 14 13  1  0  0  0  0
 15 11  1  0  0  0  0
 15  9  2  0  0  0  0
 16  1  1  0  0  0  0
 17 16  1  0  0  0  0
 18 25  1  0  0  0  0
 19 23  1  0  0  0  0
 20 22  2  0  0  0  0
 21 20  1  0  0  0  0
 22 27  1  0  0  0  0
 22 24  1  0  0  0  0
 23 20  1  0  0  0  0
 23 18  2  0  0  0  0
 24 17  1  0  0  0  0
 25 24  2  0  0  0  0
 27 26  1  0  0  0  0
M  END
>  <MODEL>
8

>  <REMARK>
 VINA RESULT:      -8.3      1.296      4.782
  Name = 
  7 active torsions:
  status: ('A' for Active; 'I' for Inactive)
    1  A    between atoms: C_1  and  N_15
    2  A    between atoms: C_1  and  C_18
    3  A    between atoms: N_2  and  C_6
    4  A    between atoms: N_2  and  N_15
    5  A    between atoms: C_6  and  C_17
    6  A    between atoms: C_9  and  N_15
    7  A    between atoms: C_14  and  O_19
                            x       y       z     vdW  Elec       q    Type
                         _______ _______ _______ _____ _____    ______ ____

>  <TORSDO>
F 7

$$$$
=
 OpenBabel11052413473D

 27 29  0  0  1  0  0  0  0  0999 V2000
  187.9560  177.8200  142.8800 N   0  0  0  0  0  0  0  0  0  0  0  0
  191.7610  177.4210  140.9130 C   0  0  0  0  0  2  0  0  0  0  0  0
  189.2500  177.4120  142.3020 C   0  0  1  0  0  3  0  0  0  0  0  0
  189.3030  177.7450  140.8860 N   0  0  0  0  0  2  0  0  0  0  0  0
  190.4200  177.0070  140.2860 C   0  0  0  0  0  2  0  0  0  0  0  0
  191.7050  177.3460  142.4500 C   0  0  0  0  0  2  0  0  0  0  0  0
  190.4670  178.0440  142.9860 C   0  0  0  0  0  2  0  0  0  0  0  0
  187.5130  176.8630  143.9260 C   0  0  0  0  0  2  0  0  0  0  0  0
  187.4860  178.1890  147.5060 C   0  0  0  0  0  3  0  0  0  0  0  0
  186.1980  178.7280  147.5880 C   0  0  0  0  0  3  0  0  0  0  0  0
  187.0680  177.5110  145.2150 C   0  0  0  0  0  0  0  0  0  0  0  0
  189.3090  177.0190  146.2890 C   0  0  0  0  0  1  0  0  0  0  0  0
  185.3380  178.6520  146.4860 C   0  0  0  0  0  3  0  0  0  0  0  0
  185.7750  178.0400  145.3070 C   0  0  0  0  0  3  0  0  0  0  0  0
  187.9230  177.5780  146.3290 C   0  0  0  0  0  0  0  0  0  0  0  0
  187.0080  177.8110  141.8360 N   0  0  0  0  0  2  0  0  0  0  0  0
  186.3210  179.0930  141.8370 C   0  0  0  0  0  2  0  0  0  0  0  0
  182.5800  178.6530  142.1590 C   0  0  0  0  0  3  0  0  0  0  0  0
  180.8050  178.6080  140.5420 O   0  0  0  0  0  1  0  0  0  0  0  0
  183.1090  178.8170  139.7980 C   0  0  0  0  0  0  0  0  0  0  0  0
  182.6600  178.8730  138.4810 O   0  0  0  0  0  1  0  0  0  0  0  0
  184.4860  178.9360  140.1130 C   0  0  0  0  0  0  0  0  0  0  0  0
  182.1660  178.6710  140.8300 C   0  0  0  0  0  0  0  0  0  0  0  0
  184.8850  178.8830  141.4600 C   0  0  0  0  0  0  0  0  0  0  0  0
  183.9310  178.7670  142.4730 C   0  0  0  0  0  3  0  0  0  0  0  0
  185.9720  178.1610  138.2420 C   0  0  0  0  0  1  0  0  0  0  0  0
  185.4860  179.1460  139.1430 O   0  0  0  0  0  0  0  0  0  0  0  0
  1  8  1  0  0  0  0
  2  6  1  0  0  0  0
  3  1  1  1  0  0  0
  3  7  1  0  0  0  0
  4  3  1  0  0  0  0
  5  4  1  0  0  0  0
  5  2  1  0  0  0  0
  6  7  1  0  0  0  0
  8 11  1  0  0  0  0
  9 10  1  0  0  0  0
 11 14  2  0  0  0  0
 11 15  1  0  0  0  0
 12 15  1  0  0  0  0
 13 10  2  0  0  0  0
 14 13  1  0  0  0  0
 15  9  2  0  0  0  0
 16 17  1  0  0  0  0
 16  1  1  0  0  0  0
 18 25  1  0  0  0  0
 19 23  1  0  0  0  0
 20 22  2  0  0  0  0
 20 23  1  0  0  0  0
 21 20  1  0  0  0  0
 22 24  1  0  0  0  0
 23 18  2  0  0  0  0
 24 17  1  0  0  0  0
 24 25  2  0  0  0  0
 26 27  1  0  0  0  0
 27 22  1  0  0  0  0
M  END
>  <MODEL>
9

>  <REMARK>
 VINA RESULT:      -8.3      2.342      5.102
  Name = 
  7 active torsions:
  status: ('A' for Active; 'I' for Inactive)
    1  A    between atoms: C_1  and  N_15
    2  A    between atoms: C_1  and  C_18
    3  A    between atoms: N_2  and  C_6
    4  A    between atoms: N_2  and  N_15
    5  A    between atoms: C_6  and  C_17
    6  A    between atoms: C_9  and  N_15
    7  A    between atoms: C_14  and  O_19
                            x       y       z     vdW  Elec       q    Type
                         _______ _______ _______ _____ _____    ______ ____

>  <TORSDO>
F 7

$$$$
