=
 OpenBabel11052413463D

 27 30  0  0  1  0  0  0  0  0999 V2000
  190.8190  178.2920  142.5300 C   0  0  0  0  0  2  0  0  0  0  0  0
  188.3200  177.9200  142.3760 C   0  0  0  0  0  0  0  0  0  0  0  0
  188.4810  176.8030  144.5000 O   0  0  0  0  0  0  0  0  0  0  0  0
  184.5190  179.6800  143.2370 C   0  0  0  0  0  2  0  0  0  0  0  0
  183.4580  178.7890  143.8310 C   0  0  0  0  0  2  0  0  0  0  0  0
  187.6790  178.7630  141.5260 N   0  0  0  0  0  0  0  0  0  0  0  0
  185.8470  177.6030  145.2040 C   0  0  0  0  0  3  0  0  0  0  0  0
  191.2020  177.3090  146.1220 C   0  0  2  0  0  3  0  0  0  0  0  0
  184.6720  177.8680  145.7840 C   0  0  0  0  0  3  0  0  0  0  0  0
  192.2680  176.7730  146.8440 O   0  0  0  0  0  1  0  0  0  0  0  0
  186.4610  178.1120  143.9480 C   0  0  0  0  0  0  0  0  0  0  0  0
  189.6890  177.3900  142.0260 C   0  0  1  0  0  3  0  0  0  0  0  0
  183.6380  178.8370  145.3260 C   0  0  0  0  0  2  0  0  0  0  0  0
  185.8190  178.9730  143.0150 C   0  0  0  0  0  0  0  0  0  0  0  0
  190.7550  178.4090  143.9840 N   0  0  0  0  0  2  0  0  0  0  0  0
  187.7460  177.6080  143.6200 C   0  0  0  0  0  0  0  0  0  0  0  0
  189.9470  176.4690  146.3820 C   0  0  0  0  0  2  0  0  0  0  0  0
  186.4660  179.2880  141.8220 C   0  0  0  0  0  3  0  0  0  0  0  0
  191.4800  176.1440  144.0340 O   0  0  0  0  0  1  0  0  0  0  0  0
  191.5890  177.4010  144.6440 C   0  0  2  0  0  3  0  0  0  0  0  0
  188.6820  177.1400  145.8670 C   0  0  0  0  0  2  0  0  0  0  0  0
  190.1690  176.3540  137.8790 C   0  0  0  0  0  3  0  0  0  0  0  0
  189.8390  177.0460  140.5740 C   0  0  0  0  0  0  0  0  0  0  0  0
  191.1000  176.6800  140.0910 C   0  0  0  0  0  3  0  0  0  0  0  0
  191.2660  176.3360  138.7450 C   0  0  0  0  0  3  0  0  0  0  0  0
  188.9060  176.7140  138.3570 C   0  0  0  0  0  3  0  0  0  0  0  0
  188.7400  177.0570  139.7020 C   0  0  0  0  0  3  0  0  0  0  0  0
  1 15  1  0  0  0  0
  2 16  1  0  0  0  0
  3 21  1  0  0  0  0
  4  5  1  0  0  0  0
  5 13  1  0  0  0  0
  6 18  1  0  0  0  0
  6  2  2  0  0  0  0
  7  9  2  0  0  0  0
  8 17  1  0  0  0  0
  8 10  1  1  0  0  0
 11  7  1  0  0  0  0
 12 23  1  6  0  0  0
 12  2  1  0  0  0  0
 12  1  1  0  0  0  0
 13  9  1  0  0  0  0
 14  4  1  0  0  0  0
 14 11  1  0  0  0  0
 15 20  1  0  0  0  0
 16 11  2  0  0  0  0
 16  3  1  0  0  0  0
 18 14  2  0  0  0  0
 20 19  1  6  0  0  0
 20  8  1  0  0  0  0
 21 17  1  0  0  0  0
 22 26  2  0  0  0  0
 22 25  1  0  0  0  0
 24 23  1  0  0  0  0
 25 24  2  0  0  0  0
 26 27  1  0  0  0  0
 27 23  2  0  0  0  0
M  END
>  <MODEL>
1

>  <REMARK>
 VINA RESULT:      -8.9      0.000      0.000
  Name = 
  1 active torsions:
  status: ('A' for Active; 'I' for Inactive)
    1  A    between atoms: C_9  and  C_15
                            x       y       z     vdW  Elec       q    Type
                         _______ _______ _______ _____ _____    ______ ____

>  <TORSDO>
F 1

$$$$
=
 OpenBabel11052413463D

 27 30  0  0  1  0  0  0  0  0999 V2000
  186.1170  179.3480  141.0990 C   0  0  0  0  0  2  0  0  0  0  0  0
  185.8600  178.3280  143.4010 C   0  0  0  0  0  0  0  0  0  0  0  0
  187.8140  177.0170  142.9010 O   0  0  0  0  0  0  0  0  0  0  0  0
  186.8760  178.8370  147.5240 C   0  0  0  0  0  2  0  0  0  0  0  0
  187.3200  177.6160  148.2880 C   0  0  0  0  0  2  0  0  0  0  0  0
  185.1220  179.0710  144.2650 N   0  0  0  0  0  0  0  0  0  0  0  0
  188.5670  176.9560  145.6400 C   0  0  0  0  0  3  0  0  0  0  0  0
  189.5470  178.0250  140.3960 C   0  0  2  0  0  3  0  0  0  0  0  0
  189.1530  176.8050  146.8320 C   0  0  0  0  0  3  0  0  0  0  0  0
  190.2100  177.7090  139.2110 O   0  0  0  0  0  1  0  0  0  0  0  0
  187.4050  177.7820  145.2130 C   0  0  0  0  0  0  0  0  0  0  0  0
  185.4700  178.2490  141.9460 C   0  0  1  0  0  3  0  0  0  0  0  0
  188.8110  177.5050  148.1020 C   0  0  0  0  0  2  0  0  0  0  0  0
  186.5860  178.5530  146.0840 C   0  0  0  0  0  0  0  0  0  0  0  0
  187.5710  179.2420  141.1670 N   0  0  0  0  0  2  0  0  0  0  0  0
  187.0380  177.7020  143.8450 C   0  0  0  0  0  0  0  0  0  0  0  0
  189.6630  176.8430  141.3660 C   0  0  0  0  0  2  0  0  0  0  0  0
  185.4610  179.1960  145.5700 C   0  0  0  0  0  3  0  0  0  0  0  0
  187.3250  177.2800  139.8450 O   0  0  0  0  0  1  0  0  0  0  0  0
  188.1040  178.4230  140.0760 C   0  0  2  0  0  3  0  0  0  0  0  0
  189.2190  177.2050  142.7760 C   0  0  0  0  0  2  0  0  0  0  0  0
  181.2130  178.0660  141.3610 C   0  0  0  0  0  3  0  0  0  0  0  0
  183.9880  178.1620  141.7330 C   0  0  0  0  0  0  0  0  0  0  0  0
  183.1330  178.7860  142.6480 C   0  0  0  0  0  3  0  0  0  0  0  0
  181.7480  178.7370  142.4640 C   0  0  0  0  0  3  0  0  0  0  0  0
  182.0620  177.4440  140.4410 C   0  0  0  0  0  3  0  0  0  0  0  0
  183.4470  177.4940  140.6240 C   0  0  0  0  0  3  0  0  0  0  0  0
  1 15  1  0  0  0  0
  1 12  1  0  0  0  0
  2 16  2  0  0  0  0
  2  6  1  0  0  0  0
  3 16  1  0  0  0  0
  4  5  1  0  0  0  0
  6 18  2  0  0  0  0
  7  9  2  0  0  0  0
  8 10  1  6  0  0  0
  8 17  1  0  0  0  0
  9 13  1  0  0  0  0
 11  7  1  0  0  0  0
 11 14  2  0  0  0  0
 12 23  1  1  0  0  0
 12  2  1  0  0  0  0
 13  5  1  0  0  0  0
 14  4  1  0  0  0  0
 16 11  1  0  0  0  0
 17 21  1  0  0  0  0
 18 14  1  0  0  0  0
 20 19  1  1  0  0  0
 20  8  1  0  0  0  0
 20 15  1  0  0  0  0
 21  3  1  0  0  0  0
 22 25  1  0  0  0  0
 23 24  1  0  0  0  0
 25 24  2  0  0  0  0
 26 27  1  0  0  0  0
 26 22  2  0  0  0  0
 27 23  2  0  0  0  0
M  END
>  <MODEL>
2

>  <REMARK>
 VINA RESULT:      -8.2      2.403      5.595
  Name = 
  1 active torsions:
  status: ('A' for Active; 'I' for Inactive)
    1  A    between atoms: C_9  and  C_15
                            x       y       z     vdW  Elec       q    Type
                         _______ _______ _______ _____ _____    ______ ____

>  <TORSDO>
F 1

$$$$
=
 OpenBabel11052413463D

 27 30  0  0  1  0  0  0  0  0999 V2000
  185.4710  179.2530  140.4900 C   0  0  0  0  0  2  0  0  0  0  0  0
  185.1980  178.3120  142.8240 C   0  0  0  0  0  0  0  0  0  0  0  0
  187.2790  177.1600  142.4680 O   0  0  0  0  0  0  0  0  0  0  0  0
  185.9740  179.0850  146.9580 C   0  0  0  0  0  2  0  0  0  0  0  0
  186.4870  177.9410  147.7960 C   0  0  0  0  0  2  0  0  0  0  0  0
  184.3590  179.0230  143.6200 N   0  0  0  0  0  0  0  0  0  0  0  0
  187.9070  177.2830  145.2370 C   0  0  0  0  0  3  0  0  0  0  0  0
  189.0320  178.2100  139.9940 C   0  0  2  0  0  3  0  0  0  0  0  0
  188.4480  177.2350  146.4580 C   0  0  0  0  0  3  0  0  0  0  0  0
  189.7740  177.9040  138.8550 O   0  0  0  0  0  1  0  0  0  0  0  0
  186.6990  177.9840  144.7230 C   0  0  0  0  0  0  0  0  0  0  0  0
  184.8840  178.1370  141.3590 C   0  0  1  0  0  3  0  0  0  0  0  0
  187.9890  177.9560  147.6780 C   0  0  0  0  0  2  0  0  0  0  0  0
  185.7770  178.7150  145.5220 C   0  0  0  0  0  0  0  0  0  0  0  0
  186.9240  179.2790  140.6240 N   0  0  0  0  0  2  0  0  0  0  0  0
  186.4040  177.8130  143.3460 C   0  0  0  0  0  0  0  0  0  0  0  0
  189.2050  177.0860  141.0230 C   0  0  0  0  0  2  0  0  0  0  0  0
  184.6250  179.2330  144.9320 C   0  0  0  0  0  3  0  0  0  0  0  0
  186.9110  177.2480  139.3850 O   0  0  0  0  0  1  0  0  0  0  0  0
  187.5760  178.4640  139.5960 C   0  0  2  0  0  3  0  0  0  0  0  0
  188.6670  177.4660  142.3940 C   0  0  0  0  0  2  0  0  0  0  0  0
  180.7170  177.4190  140.5700 C   0  0  0  0  0  3  0  0  0  0  0  0
  183.4260  177.9110  141.0880 C   0  0  0  0  0  0  0  0  0  0  0  0
  183.0530  176.9430  140.1480 C   0  0  0  0  0  3  0  0  0  0  0  0
  181.7010  176.6990  139.8880 C   0  0  0  0  0  3  0  0  0  0  0  0
  181.0830  178.3840  141.5130 C   0  0  0  0  0  3  0  0  0  0  0  0
  182.4340  178.6280  141.7740 C   0  0  0  0  0  3  0  0  0  0  0  0
  1 15  1  0  0  0  0
  1 12  1  0  0  0  0
  2 16  2  0  0  0  0
  2  6  1  0  0  0  0
  3 16  1  0  0  0  0
  4  5  1  0  0  0  0
  6 18  2  0  0  0  0
  7  9  2  0  0  0  0
  8 10  1  6  0  0  0
  8 17  1  0  0  0  0
  9 13  1  0  0  0  0
 11  7  1  0  0  0  0
 11 14  2  0  0  0  0
 12 23  1  1  0  0  0
 12  2  1  0  0  0  0
 13  5  1  0  0  0  0
 14  4  1  0  0  0  0
 16 11  1  0  0  0  0
 17 21  1  0  0  0  0
 18 14  1  0  0  0  0
 20 19  1  1  0  0  0
 20  8  1  0  0  0  0
 20 15  1  0  0  0  0
 21  3  1  0  0  0  0
 22 26  1  0  0  0  0
 23 27  1  0  0  0  0
 24 23  2  0  0  0  0
 25 24  1  0  0  0  0
 25 22  2  0  0  0  0
 26 27  2  0  0  0  0
M  END
>  <MODEL>
3

>  <REMARK>
 VINA RESULT:      -7.9      2.751      5.726
  Name = 
  1 active torsions:
  status: ('A' for Active; 'I' for Inactive)
    1  A    between atoms: C_9  and  C_15
                            x       y       z     vdW  Elec       q    Type
                         _______ _______ _______ _____ _____    ______ ____

>  <TORSDO>
F 1

$$$$
=
 OpenBabel11052413463D

 27 30  0  0  1  0  0  0  0  0999 V2000
  189.0550  178.5490  138.5700 C   0  0  0  0  0  2  0  0  0  0  0  0
  187.0630  178.0500  140.0500 C   0  0  0  0  0  0  0  0  0  0  0  0
  188.5910  176.8930  141.5030 O   0  0  0  0  0  0  0  0  0  0  0  0
  184.6870  179.5870  143.2560 C   0  0  0  0  0  2  0  0  0  0  0  0
  184.2870  178.6280  144.3490 C   0  0  0  0  0  2  0  0  0  0  0  0
  186.0040  178.8790  139.8620 N   0  0  0  0  0  0  0  0  0  0  0  0
  187.0240  177.5360  143.7850 C   0  0  0  0  0  3  0  0  0  0  0  0
  191.7010  177.5030  141.0030 C   0  0  2  0  0  3  0  0  0  0  0  0
  186.5000  177.7260  145.0000 C   0  0  0  0  0  3  0  0  0  0  0  0
  192.9920  177.0060  140.8340 O   0  0  0  0  0  1  0  0  0  0  0  0
  186.6640  178.1070  142.4590 C   0  0  0  0  0  0  0  0  0  0  0  0
  187.8900  177.6020  138.8700 C   0  0  1  0  0  3  0  0  0  0  0  0
  185.3930  178.6500  145.3720 C   0  0  0  0  0  2  0  0  0  0  0  0
  185.5490  178.9550  142.2100 C   0  0  0  0  0  0  0  0  0  0  0  0
  189.9460  178.6280  139.7230 N   0  0  0  0  0  2  0  0  0  0  0  0
  187.4410  177.6790  141.3520 C   0  0  0  0  0  0  0  0  0  0  0  0
  190.9340  176.5910  141.9690 C   0  0  0  0  0  2  0  0  0  0  0  0
  185.2600  179.3330  140.8990 C   0  0  0  0  0  3  0  0  0  0  0  0
  190.5860  176.4040  139.1740 O   0  0  0  0  0  1  0  0  0  0  0  0
  191.0340  177.6500  139.6330 C   0  0  2  0  0  3  0  0  0  0  0  0
  189.6220  177.2070  142.4310 C   0  0  0  0  0  2  0  0  0  0  0  0
  185.5940  176.7620  135.3320 C   0  0  0  0  0  3  0  0  0  0  0  0
  187.0710  177.3010  137.6510 C   0  0  0  0  0  0  0  0  0  0  0  0
  187.1730  178.1450  136.5400 C   0  0  0  0  0  3  0  0  0  0  0  0
  186.4340  177.8780  135.3830 C   0  0  0  0  0  3  0  0  0  0  0  0
  185.4920  175.9120  136.4370 C   0  0  0  0  0  3  0  0  0  0  0  0
  186.2300  176.1780  137.5930 C   0  0  0  0  0  3  0  0  0  0  0  0
  1 12  1  0  0  0  0
  1 15  1  0  0  0  0
  2 16  1  0  0  0  0
  3 21  1  0  0  0  0
  4  5  1  0  0  0  0
  5 13  1  0  0  0  0
  6  2  2  0  0  0  0
  6 18  1  0  0  0  0
  7  9  2  0  0  0  0
  8 10  1  6  0  0  0
  8 17  1  0  0  0  0
  9 13  1  0  0  0  0
 11  7  1  0  0  0  0
 12 23  1  6  0  0  0
 12  2  1  0  0  0  0
 14 11  1  0  0  0  0
 14  4  1  0  0  0  0
 16  3  1  0  0  0  0
 16 11  2  0  0  0  0
 17 21  1  0  0  0  0
 18 14  2  0  0  0  0
 20 19  1  1  0  0  0
 20 15  1  0  0  0  0
 20  8  1  0  0  0  0
 22 25  2  0  0  0  0
 22 26  1  0  0  0  0
 24 23  2  0  0  0  0
 25 24  1  0  0  0  0
 26 27  2  0  0  0  0
 27 23  1  0  0  0  0
M  END
>  <MODEL>
4

>  <REMARK>
 VINA RESULT:      -7.7      2.421      3.749
  Name = 
  1 active torsions:
  status: ('A' for Active; 'I' for Inactive)
    1  A    between atoms: C_9  and  C_15
                            x       y       z     vdW  Elec       q    Type
                         _______ _______ _______ _____ _____    ______ ____

>  <TORSDO>
F 1

$$$$
=
 OpenBabel11052413463D

 27 30  0  0  1  0  0  0  0  0999 V2000
  187.9440  176.5320  143.7130 C   0  0  0  0  0  2  0  0  0  0  0  0
  186.0490  178.1020  143.1200 C   0  0  0  0  0  0  0  0  0  0  0  0
  187.3950  178.8230  141.2600 O   0  0  0  0  0  0  0  0  0  0  0  0
  182.3650  178.3910  140.9690 C   0  0  0  0  0  2  0  0  0  0  0  0
  182.1270  179.6400  140.1580 C   0  0  0  0  0  2  0  0  0  0  0  0
  184.8480  177.7560  143.6490 N   0  0  0  0  0  0  0  0  0  0  0  0
  185.0810  179.3780  139.7060 C   0  0  0  0  0  3  0  0  0  0  0  0
  189.8630  176.9120  140.5200 C   0  0  2  0  0  3  0  0  0  0  0  0
  184.1780  179.6840  138.7690 C   0  0  0  0  0  3  0  0  0  0  0  0
  191.2180  176.7920  140.2160 O   0  0  0  0  0  1  0  0  0  0  0  0
  184.9360  178.7320  141.0390 C   0  0  0  0  0  0  0  0  0  0  0  0
  187.3120  177.9110  143.9230 C   0  0  1  0  0  3  0  0  0  0  0  0
  182.7170  179.3920  138.7950 C   0  0  0  0  0  2  0  0  0  0  0  0
  183.6990  178.3770  141.6450 C   0  0  0  0  0  0  0  0  0  0  0  0
  188.2890  176.3490  142.3060 N   0  0  0  0  0  2  0  0  0  0  0  0
  186.1260  178.5580  141.7930 C   0  0  0  0  0  0  0  0  0  0  0  0
  189.3380  178.2400  139.9630 C   0  0  0  0  0  2  0  0  0  0  0  0
  183.6970  177.8780  142.9460 C   0  0  0  0  0  3  0  0  0  0  0  0
  190.0090  177.9460  142.6890 O   0  0  0  0  0  1  0  0  0  0  0  0
  189.6690  176.7560  142.0310 C   0  0  2  0  0  3  0  0  0  0  0  0
  187.8190  178.3250  139.9980 C   0  0  0  0  0  2  0  0  0  0  0  0
  186.9170  178.8860  148.0930 C   0  0  0  0  0  3  0  0  0  0  0  0
  187.1500  178.2490  145.3740 C   0  0  0  0  0  0  0  0  0  0  0  0
  188.1260  177.8250  146.2830 C   0  0  0  0  0  3  0  0  0  0  0  0
  188.0090  178.1420  147.6400 C   0  0  0  0  0  3  0  0  0  0  0  0
  185.9410  179.3160  147.1890 C   0  0  0  0  0  3  0  0  0  0  0  0
  186.0570  179.0010  145.8330 C   0  0  0  0  0  3  0  0  0  0  0  0
  1 12  1  0  0  0  0
  2  6  1  0  0  0  0
  2 12  1  0  0  0  0
  3 16  1  0  0  0  0
  4 14  1  0  0  0  0
  5  4  1  0  0  0  0
  7 11  1  0  0  0  0
  8 10  1  1  0  0  0
  8 20  1  0  0  0  0
  9 13  1  0  0  0  0
  9  7  2  0  0  0  0
 11 14  2  0  0  0  0
 11 16  1  0  0  0  0
 12 23  1  1  0  0  0
 13  5  1  0  0  0  0
 14 18  1  0  0  0  0
 15  1  1  0  0  0  0
 16  2  2  0  0  0  0
 17 21  1  0  0  0  0
 17  8  1  0  0  0  0
 18  6  2  0  0  0  0
 20 15  1  0  0  0  0
 20 19  1  1  0  0  0
 21  3  1  0  0  0  0
 23 27  2  0  0  0  0
 23 24  1  0  0  0  0
 24 25  2  0  0  0  0
 25 22  1  0  0  0  0
 26 22  2  0  0  0  0
 27 26  1  0  0  0  0
M  END
>  <MODEL>
5

>  <REMARK>
 VINA RESULT:      -7.7      2.521      5.704
  Name = 
  1 active torsions:
  status: ('A' for Active; 'I' for Inactive)
    1  A    between atoms: C_9  and  C_15
                            x       y       z     vdW  Elec       q    Type
                         _______ _______ _______ _____ _____    ______ ____

>  <TORSDO>
F 1

$$$$
=
 OpenBabel11052413463D

 27 30  0  0  1  0  0  0  0  0999 V2000
  187.5490  179.3170  141.7180 C   0  0  0  0  0  2  0  0  0  0  0  0
  188.0550  177.7930  143.6740 C   0  0  0  0  0  0  0  0  0  0  0  0
  189.2830  176.4200  142.1260 O   0  0  0  0  0  0  0  0  0  0  0  0
  190.7760  177.1270  146.9050 C   0  0  0  0  0  2  0  0  0  0  0  0
  191.2160  175.7090  147.1640 C   0  0  0  0  0  2  0  0  0  0  0  0
  187.9250  178.3810  144.8910 N   0  0  0  0  0  0  0  0  0  0  0  0
  191.0710  175.5850  144.1700 C   0  0  0  0  0  3  0  0  0  0  0  0
  189.9930  177.8030  139.3190 C   0  0  2  0  0  3  0  0  0  0  0  0
  192.0510  175.0710  144.9210 C   0  0  0  0  0  3  0  0  0  0  0  0
  190.0170  177.7150  137.9280 O   0  0  0  0  0  1  0  0  0  0  0  0
  190.0500  176.6270  144.4640 C   0  0  0  0  0  0  0  0  0  0  0  0
  187.0880  178.1280  142.5650 C   0  0  1  0  0  3  0  0  0  0  0  0
  192.4310  175.4680  146.3050 C   0  0  0  0  0  2  0  0  0  0  0  0
  189.8590  177.2500  145.7290 C   0  0  0  0  0  0  0  0  0  0  0  0
  188.8380  179.0210  141.0980 N   0  0  0  0  0  2  0  0  0  0  0  0
  189.1410  176.9370  143.4210 C   0  0  0  0  0  0  0  0  0  0  0  0
  190.2390  176.4120  139.9150 C   0  0  0  0  0  2  0  0  0  0  0  0
  188.7940  178.1330  145.8990 C   0  0  0  0  0  3  0  0  0  0  0  0
  187.6390  177.4970  139.7200 O   0  0  0  0  0  1  0  0  0  0  0  0
  188.6740  178.4410  139.7630 C   0  0  2  0  0  3  0  0  0  0  0  0
  190.5120  176.4610  141.4110 C   0  0  0  0  0  2  0  0  0  0  0  0
  183.0500  178.6060  143.9670 C   0  0  0  0  0  3  0  0  0  0  0  0
  185.6730  178.2790  143.0360 C   0  0  0  0  0  0  0  0  0  0  0  0
  185.4280  178.4660  144.4010 C   0  0  0  0  0  3  0  0  0  0  0  0
  184.1190  178.6270  144.8660 C   0  0  0  0  0  3  0  0  0  0  0  0
  183.2890  178.4240  142.6010 C   0  0  0  0  0  3  0  0  0  0  0  0
  184.5960  178.2630  142.1360 C   0  0  0  0  0  3  0  0  0  0  0  0
  1 12  1  0  0  0  0
  2  6  1  0  0  0  0
  3 16  1  0  0  0  0
  4  5  1  0  0  0  0
  6 18  2  0  0  0  0
  7 11  1  0  0  0  0
  7  9  2  0  0  0  0
  8 10  1  6  0  0  0
  8 20  1  0  0  0  0
  8 17  1  0  0  0  0
  9 13  1  0  0  0  0
 11 14  2  0  0  0  0
 12 23  1  1  0  0  0
 12  2  1  0  0  0  0
 13  5  1  0  0  0  0
 14 18  1  0  0  0  0
 14  4  1  0  0  0  0
 15  1  1  0  0  0  0
 16  2  2  0  0  0  0
 16 11  1  0  0  0  0
 17 21  1  0  0  0  0
 20 19  1  1  0  0  0
 20 15  1  0  0  0  0
 21  3  1  0  0  0  0
 22 25  1  0  0  0  0
 23 24  1  0  0  0  0
 24 25  2  0  0  0  0
 26 22  2  0  0  0  0
 27 26  1  0  0  0  0
 27 23  2  0  0  0  0
M  END
>  <MODEL>
6

>  <REMARK>
 VINA RESULT:      -7.6      2.149      6.251
  Name = 
  1 active torsions:
  status: ('A' for Active; 'I' for Inactive)
    1  A    between atoms: C_9  and  C_15
                            x       y       z     vdW  Elec       q    Type
                         _______ _______ _______ _____ _____    ______ ____

>  <TORSDO>
F 1

$$$$
=
 OpenBabel11052413463D

 27 30  0  0  1  0  0  0  0  0999 V2000
  186.6470  179.2490  140.1160 C   0  0  0  0  0  2  0  0  0  0  0  0
  185.7160  178.4990  142.3470 C   0  0  0  0  0  0  0  0  0  0  0  0
  187.6040  177.0160  142.4950 O   0  0  0  0  0  0  0  0  0  0  0  0
  185.6800  179.3780  146.5320 C   0  0  0  0  0  2  0  0  0  0  0  0
  185.8000  178.2190  147.4880 C   0  0  0  0  0  2  0  0  0  0  0  0
  184.8510  179.3770  142.9170 N   0  0  0  0  0  0  0  0  0  0  0  0
  187.6190  177.1990  145.3310 C   0  0  0  0  0  3  0  0  0  0  0  0
  190.0070  177.6340  140.4610 C   0  0  2  0  0  3  0  0  0  0  0  0
  187.8630  177.1380  146.6440 C   0  0  0  0  0  3  0  0  0  0  0  0
  190.9200  177.1500  139.5260 O   0  0  0  0  0  1  0  0  0  0  0  0
  186.6860  178.0500  144.5420 C   0  0  0  0  0  0  0  0  0  0  0  0
  185.7060  178.2910  140.8530 C   0  0  1  0  0  3  0  0  0  0  0  0
  187.2720  177.9910  147.7130 C   0  0  0  0  0  2  0  0  0  0  0  0
  185.7450  178.9620  145.0960 C   0  0  0  0  0  0  0  0  0  0  0  0
  188.0190  179.0540  140.5750 N   0  0  0  0  0  2  0  0  0  0  0  0
  186.6770  177.8480  143.1380 C   0  0  0  0  0  0  0  0  0  0  0  0
  189.7600  176.5580  141.5260 C   0  0  0  0  0  2  0  0  0  0  0  0
  184.8540  179.6180  144.2500 C   0  0  0  0  0  3  0  0  0  0  0  0
  187.9420  176.9830  139.4080 O   0  0  0  0  0  1  0  0  0  0  0  0
  188.7370  178.0900  139.7380 C   0  0  2  0  0  3  0  0  0  0  0  0
  189.0040  177.0970  142.7310 C   0  0  0  0  0  2  0  0  0  0  0  0
  181.7770  178.2900  139.1020 C   0  0  0  0  0  3  0  0  0  0  0  0
  184.3280  178.2800  140.2630 C   0  0  0  0  0  0  0  0  0  0  0  0
  183.9420  179.3280  139.4200 C   0  0  0  0  0  3  0  0  0  0  0  0
  182.6680  179.3340  138.8430 C   0  0  0  0  0  3  0  0  0  0  0  0
  182.1590  177.2370  139.9400 C   0  0  0  0  0  3  0  0  0  0  0  0
  183.4320  177.2300  140.5170 C   0  0  0  0  0  3  0  0  0  0  0  0
  1 15  1  0  0  0  0
  1 12  1  0  0  0  0
  2  6  2  0  0  0  0
  2 16  1  0  0  0  0
  3 21  1  0  0  0  0
  3 16  1  0  0  0  0
  4  5  1  0  0  0  0
  5 13  1  0  0  0  0
  6 18  1  0  0  0  0
  7  9  2  0  0  0  0
  8 10  1  6  0  0  0
  8 17  1  0  0  0  0
  9 13  1  0  0  0  0
 11 14  1  0  0  0  0
 11  7  1  0  0  0  0
 12 23  1  6  0  0  0
 12  2  1  0  0  0  0
 14  4  1  0  0  0  0
 16 11  2  0  0  0  0
 17 21  1  0  0  0  0
 18 14  2  0  0  0  0
 20 19  1  1  0  0  0
 20  8  1  0  0  0  0
 20 15  1  0  0  0  0
 22 26  1  0  0  0  0
 23 27  1  0  0  0  0
 24 23  2  0  0  0  0
 25 22  2  0  0  0  0
 25 24  1  0  0  0  0
 26 27  2  0  0  0  0
M  END
>  <MODEL>
7

>  <REMARK>
 VINA RESULT:      -7.4      2.694      5.022
  Name = 
  1 active torsions:
  status: ('A' for Active; 'I' for Inactive)
    1  A    between atoms: C_9  and  C_15
                            x       y       z     vdW  Elec       q    Type
                         _______ _______ _______ _____ _____    ______ ____

>  <TORSDO>
F 1

$$$$
=
 OpenBabel11052413463D

 27 30  0  0  1  0  0  0  0  0999 V2000
  188.9960  176.0030  138.3810 C   0  0  0  0  0  2  0  0  0  0  0  0
  188.8410  177.2040  140.6030 C   0  0  0  0  0  0  0  0  0  0  0  0
  187.1520  178.5890  139.5950 O   0  0  0  0  0  0  0  0  0  0  0  0
  186.9360  177.1280  144.4310 C   0  0  0  0  0  2  0  0  0  0  0  0
  186.4420  178.4380  144.9890 C   0  0  0  0  0  2  0  0  0  0  0  0
  189.3160  176.4940  141.6590 N   0  0  0  0  0  0  0  0  0  0  0  0
  185.8440  178.9400  142.0930 C   0  0  0  0  0  3  0  0  0  0  0  0
  185.9130  177.4780  136.8520 C   0  0  2  0  0  3  0  0  0  0  0  0
  185.0330  179.2340  143.1150 C   0  0  0  0  0  3  0  0  0  0  0  0
  185.5450  177.7310  135.5320 O   0  0  0  0  0  1  0  0  0  0  0  0
  186.9980  178.0060  141.9900 C   0  0  0  0  0  0  0  0  0  0  0  0
  189.5360  177.1290  139.2670 C   0  0  1  0  0  3  0  0  0  0  0  0
  185.0390  178.6280  144.4750 C   0  0  0  0  0  2  0  0  0  0  0  0
  187.5470  177.2640  143.0730 C   0  0  0  0  0  0  0  0  0  0  0  0
  187.5740  176.2090  138.1220 N   0  0  0  0  0  2  0  0  0  0  0  0
  187.6520  177.9410  140.7330 C   0  0  0  0  0  0  0  0  0  0  0  0
  185.6920  178.7460  137.6860 C   0  0  0  0  0  2  0  0  0  0  0  0
  188.6990  176.5070  142.8640 C   0  0  0  0  0  3  0  0  0  0  0  0
  188.2550  178.0260  136.7470 O   0  0  0  0  0  1  0  0  0  0  0  0
  187.3540  176.9610  136.8840 C   0  0  2  0  0  3  0  0  0  0  0  0
  185.7960  178.4820  139.1810 C   0  0  0  0  0  2  0  0  0  0  0  0
  193.8300  177.0630  139.5110 C   0  0  0  0  0  3  0  0  0  0  0  0
  191.0310  177.1000  139.3760 C   0  0  0  0  0  0  0  0  0  0  0  0
  191.7840  176.6650  138.2790 C   0  0  0  0  0  3  0  0  0  0  0  0
  193.1800  176.6450  138.3470 C   0  0  0  0  0  3  0  0  0  0  0  0
  193.0840  177.5030  140.6090 C   0  0  0  0  0  3  0  0  0  0  0  0
  191.6880  177.5240  140.5410 C   0  0  0  0  0  3  0  0  0  0  0  0
  1 12  1  0  0  0  0
  2 16  2  0  0  0  0
  2  6  1  0  0  0  0
  3 16  1  0  0  0  0
  4  5  1  0  0  0  0
  6 18  2  0  0  0  0
  7  9  2  0  0  0  0
  8 10  1  6  0  0  0
  8 20  1  0  0  0  0
  8 17  1  0  0  0  0
  9 13  1  0  0  0  0
 11  7  1  0  0  0  0
 11 14  2  0  0  0  0
 12 23  1  1  0  0  0
 12  2  1  0  0  0  0
 13  5  1  0  0  0  0
 14  4  1  0  0  0  0
 15  1  1  0  0  0  0
 16 11  1  0  0  0  0
 17 21  1  0  0  0  0
 18 14  1  0  0  0  0
 20 19  1  1  0  0  0
 20 15  1  0  0  0  0
 21  3  1  0  0  0  0
 22 26  1  0  0  0  0
 23 27  1  0  0  0  0
 24 25  1  0  0  0  0
 24 23  2  0  0  0  0
 25 22  2  0  0  0  0
 27 26  2  0  0  0  0
M  END
>  <MODEL>
8

>  <REMARK>
 VINA RESULT:      -7.2      3.225      5.612
  Name = 
  1 active torsions:
  status: ('A' for Active; 'I' for Inactive)
    1  A    between atoms: C_9  and  C_15
                            x       y       z     vdW  Elec       q    Type
                         _______ _______ _______ _____ _____    ______ ____

>  <TORSDO>
F 1

$$$$
=
 OpenBabel11052413463D

 27 30  0  0  1  0  0  0  0  0999 V2000
  183.6880  179.7680  143.7320 C   0  0  0  0  0  2  0  0  0  0  0  0
  184.7410  178.3740  141.9010 C   0  0  0  0  0  0  0  0  0  0  0  0
  182.5330  177.5380  141.4400 O   0  0  0  0  0  0  0  0  0  0  0  0
  185.9220  178.4160  137.7910 C   0  0  0  0  0  2  0  0  0  0  0  0
  185.6120  177.1940  136.9640 C   0  0  0  0  0  2  0  0  0  0  0  0
  185.9490  178.8260  141.4760 N   0  0  0  0  0  0  0  0  0  0  0  0
  183.1570  177.1930  138.6890 C   0  0  0  0  0  3  0  0  0  0  0  0
  180.1240  179.2230  142.7240 C   0  0  2  0  0  3  0  0  0  0  0  0
  183.1790  176.9690  137.3710 C   0  0  0  0  0  3  0  0  0  0  0  0
  178.9310  179.2210  143.4450 O   0  0  0  0  0  1  0  0  0  0  0  0
  184.1430  177.8470  139.5920 C   0  0  0  0  0  0  0  0  0  0  0  0
  184.3750  178.4510  143.3620 C   0  0  1  0  0  3  0  0  0  0  0  0
  184.2290  177.3890  136.4010 C   0  0  0  0  0  2  0  0  0  0  0  0
  185.4290  178.3100  139.1990 C   0  0  0  0  0  0  0  0  0  0  0  0
  182.4550  179.9220  142.9650 N   0  0  0  0  0  2  0  0  0  0  0  0
  183.7970  177.9140  140.9660 C   0  0  0  0  0  0  0  0  0  0  0  0
  180.2000  177.9470  141.8770 C   0  0  0  0  0  2  0  0  0  0  0  0
  186.2990  178.8070  140.1680 C   0  0  0  0  0  3  0  0  0  0  0  0
  181.5840  178.1770  144.3270 O   0  0  0  0  0  1  0  0  0  0  0  0
  181.2980  179.3930  143.6920 C   0  0  2  0  0  3  0  0  0  0  0  0
  181.3220  177.9980  140.8510 C   0  0  0  0  0  2  0  0  0  0  0  0
  187.6070  177.5160  146.0430 C   0  0  0  0  0  3  0  0  0  0  0  0
  185.5180  178.1280  144.2780 C   0  0  0  0  0  0  0  0  0  0  0  0
  185.4510  178.5320  145.6160 C   0  0  0  0  0  3  0  0  0  0  0  0
  186.4940  178.2290  146.4960 C   0  0  0  0  0  3  0  0  0  0  0  0
  187.6780  177.1050  144.7080 C   0  0  0  0  0  3  0  0  0  0  0  0
  186.6350  177.4070  143.8280 C   0  0  0  0  0  3  0  0  0  0  0  0
  2 12  1  0  0  0  0
  4 14  1  0  0  0  0
  5  4  1  0  0  0  0
  6  2  1  0  0  0  0
  7 11  1  0  0  0  0
  8 10  1  1  0  0  0
  8 20  1  0  0  0  0
  9  7  2  0  0  0  0
 11 16  1  0  0  0  0
 12  1  1  0  0  0  0
 12 23  1  1  0  0  0
 13  5  1  0  0  0  0
 13  9  1  0  0  0  0
 14 11  2  0  0  0  0
 14 18  1  0  0  0  0
 15 20  1  0  0  0  0
 15  1  1  0  0  0  0
 16  3  1  0  0  0  0
 16  2  2  0  0  0  0
 17  8  1  0  0  0  0
 18  6  2  0  0  0  0
 20 19  1  6  0  0  0
 21  3  1  0  0  0  0
 21 17  1  0  0  0  0
 22 25  1  0  0  0  0
 23 24  1  0  0  0  0
 24 25  2  0  0  0  0
 26 22  2  0  0  0  0
 27 23  2  0  0  0  0
 27 26  1  0  0  0  0
M  END
>  <MODEL>
9

>  <REMARK>
 VINA RESULT:      -7.2      4.272      7.807
  Name = 
  1 active torsions:
  status: ('A' for Active; 'I' for Inactive)
    1  A    between atoms: C_9  and  C_15
                            x       y       z     vdW  Elec       q    Type
                         _______ _______ _______ _____ _____    ______ ____

>  <TORSDO>
F 1

$$$$
