=
 OpenBabel11052412413D

 25 27  0  0  1  0  0  0  0  0999 V2000
  187.5730  177.2540  145.1760 C   0  0  0  0  0  0  0  0  0  0  0  0
  185.6800  178.1640  146.3910 C   0  0  0  0  0  0  0  0  0  0  0  0
  185.0590  178.5070  147.5470 F   0  0  0  0  0  0  0  0  0  0  0  0
  186.8770  177.5000  143.9830 C   0  0  0  0  0  3  0  0  0  0  0  0
  185.0390  178.3760  145.2120 N   0  0  0  0  0  0  0  0  0  0  0  0
  185.6050  178.0590  144.0220 C   0  0  0  0  0  0  0  0  0  0  0  0
  186.9700  177.6020  146.4150 C   0  0  0  0  0  0  0  0  0  0  0  0
  189.0660  177.7720  147.8350 C   0  0  0  0  0  2  0  0  0  0  0  0
  187.5950  177.4080  147.7850 C   0  0  0  0  0  3  0  0  0  0  0  0
  188.0310  178.7040  148.4410 C   0  0  0  0  0  2  0  0  0  0  0  0
  184.8920  178.3020  142.8000 C   0  0  0  0  0  0  0  0  0  0  0  0
  184.2930  178.5070  141.7740 C   0  0  0  0  0  0  0  0  0  0  0  0
  183.5650  178.7560  140.5260 C   0  0  2  0  0  3  0  0  0  0  0  0
  183.0490  177.5680  140.0430 F   0  0  0  0  0  0  0  0  0  0  0  0
  184.4710  179.3750  139.5160 C   0  0  0  0  0  0  0  0  0  0  0  0
  184.1950  180.4960  139.0110 O   0  0  0  0  0  0  0  0  0  0  0  0
  185.6110  178.6980  139.1060 O   0  0  0  0  0  1  0  0  0  0  0  0
  188.8670  176.7110  145.1310 O   0  0  0  0  0  0  0  0  0  0  0  0
  189.9000  177.1500  144.2910 C   0  0  0  0  0  0  0  0  0  0  0  0
  191.9980  178.0900  142.6830 C   0  0  0  0  0  3  0  0  0  0  0  0
  190.3660  176.3780  143.2080 C   0  0  0  0  0  0  0  0  0  0  0  0
  191.4090  176.8530  142.4070 C   0  0  0  0  0  3  0  0  0  0  0  0
  191.5530  178.8500  143.7680 C   0  0  0  0  0  3  0  0  0  0  0  0
  189.8550  175.1470  142.9580 F   0  0  0  0  0  0  0  0  0  0  0  0
  190.5120  178.3770  144.5700 C   0  0  0  0  0  3  0  0  0  0  0  0
  1  7  1  0  0  0  0
  2  7  2  0  0  0  0
  2  3  1  0  0  0  0
  4  6  1  0  0  0  0
  4  1  2  0  0  0  0
  5  2  1  0  0  0  0
  6  5  2  0  0  0  0
  7  9  1  0  0  0  0
  8 10  1  0  0  0  0
  9  8  1  0  0  0  0
  9 10  1  0  0  0  0
 11  6  1  0  0  0  0
 12 11  3  0  0  0  0
 13 14  1  6  0  0  0
 13 12  1  0  0  0  0
 15 13  1  0  0  0  0
 16 15  2  0  0  0  0
 17 15  1  0  0  0  0
 18  1  1  0  0  0  0
 19 25  1  0  0  0  0
 19 18  1  0  0  0  0
 20 23  1  0  0  0  0
 21 19  2  0  0  0  0
 22 20  2  0  0  0  0
 22 21  1  0  0  0  0
 23 25  2  0  0  0  0
 24 21  1  0  0  0  0
M  END
>  <MODEL>
1

>  <REMARK>
 VINA RESULT:      -8.6      0.000      0.000
  Name = 
  6 active torsions:
  status: ('A' for Active; 'I' for Inactive)
    1  A    between atoms: O_1  and  C_3
    2  A    between atoms: O_1  and  C_5
    3  A    between atoms: C_2  and  C_21
    4  A    between atoms: C_6  and  C_23
    5  A    between atoms: C_9  and  C_24
    6  A    between atoms: C_15  and  C_21
                            x       y       z     vdW  Elec       q    Type
                         _______ _______ _______ _____ _____    ______ ____

>  <TORSDO>
F 6

$$$$
=
 OpenBabel11052412413D

 25 27  0  0  1  0  0  0  0  0999 V2000
  187.4910  177.2700  145.0870 C   0  0  0  0  0  0  0  0  0  0  0  0
  185.6650  178.2460  146.3530 C   0  0  0  0  0  0  0  0  0  0  0  0
  185.0900  178.6120  147.5260 F   0  0  0  0  0  0  0  0  0  0  0  0
  186.7690  177.5350  143.9140 C   0  0  0  0  0  3  0  0  0  0  0  0
  184.9970  178.4740  145.1930 N   0  0  0  0  0  0  0  0  0  0  0  0
  185.5170  178.1350  143.9870 C   0  0  0  0  0  0  0  0  0  0  0  0
  186.9360  177.6420  146.3410 C   0  0  0  0  0  0  0  0  0  0  0  0
  189.0980  177.2470  147.6120 C   0  0  0  0  0  2  0  0  0  0  0  0
  187.5950  177.4330  147.6940 C   0  0  0  0  0  3  0  0  0  0  0  0
  188.5190  178.5650  148.0990 C   0  0  0  0  0  2  0  0  0  0  0  0
  184.7760  178.3970  142.7870 C   0  0  0  0  0  0  0  0  0  0  0  0
  184.1540  178.6180  141.7770 C   0  0  0  0  0  0  0  0  0  0  0  0
  183.3980  178.8860  140.5500 C   0  0  2  0  0  3  0  0  0  0  0  0
  182.6870  177.7570  140.1860 F   0  0  0  0  0  0  0  0  0  0  0  0
  184.3240  179.2900  139.4530 C   0  0  0  0  0  0  0  0  0  0  0  0
  184.2950  180.4630  138.9930 O   0  0  0  0  0  1  0  0  0  0  0  0
  185.2010  178.3590  138.9140 O   0  0  0  0  0  0  0  0  0  0  0  0
  188.7650  176.6870  145.0060 O   0  0  0  0  0  0  0  0  0  0  0  0
  189.7250  176.9700  144.0250 C   0  0  0  0  0  0  0  0  0  0  0  0
  191.5990  177.4760  141.9990 C   0  0  0  0  0  3  0  0  0  0  0  0
  190.5050  178.1440  144.0560 C   0  0  0  0  0  0  0  0  0  0  0  0
  191.4400  178.3890  143.0460 C   0  0  0  0  0  3  0  0  0  0  0  0
  190.8140  176.3210  141.9550 C   0  0  0  0  0  3  0  0  0  0  0  0
  190.3250  179.0760  145.0240 F   0  0  0  0  0  0  0  0  0  0  0  0
  189.8780  176.0740  142.9610 C   0  0  0  0  0  3  0  0  0  0  0  0
  1  7  1  0  0  0  0
  2  3  1  0  0  0  0
  4  6  1  0  0  0  0
  4  1  2  0  0  0  0
  5  2  1  0  0  0  0
  6  5  2  0  0  0  0
  7  2  2  0  0  0  0
  7  9  1  0  0  0  0
  8  9  1  0  0  0  0
  8 10  1  0  0  0  0
  9 10  1  0  0  0  0
 11  6  1  0  0  0  0
 12 11  3  0  0  0  0
 13 14  1  6  0  0  0
 13 12  1  0  0  0  0
 15 13  1  0  0  0  0
 16 15  1  0  0  0  0
 17 15  2  0  0  0  0
 18  1  1  0  0  0  0
 19 21  1  0  0  0  0
 19 18  1  0  0  0  0
 20 22  1  0  0  0  0
 21 24  1  0  0  0  0
 22 21  2  0  0  0  0
 23 20  2  0  0  0  0
 23 25  1  0  0  0  0
 25 19  2  0  0  0  0
M  END
>  <MODEL>
2

>  <REMARK>
 VINA RESULT:      -8.3      0.984      1.381
  Name = 
  6 active torsions:
  status: ('A' for Active; 'I' for Inactive)
    1  A    between atoms: O_1  and  C_3
    2  A    between atoms: O_1  and  C_5
    3  A    between atoms: C_2  and  C_21
    4  A    between atoms: C_6  and  C_23
    5  A    between atoms: C_9  and  C_24
    6  A    between atoms: C_15  and  C_21
                            x       y       z     vdW  Elec       q    Type
                         _______ _______ _______ _____ _____    ______ ____

>  <TORSDO>
F 6

$$$$
=
 OpenBabel11052412413D

 25 27  0  0  1  0  0  0  0  0999 V2000
  188.5670  177.2700  143.9590 C   0  0  0  0  0  0  0  0  0  0  0  0
  190.8650  178.0500  143.9480 C   0  0  0  0  0  0  0  0  0  0  0  0
  191.9740  178.5020  144.5860 F   0  0  0  0  0  0  0  0  0  0  0  0
  188.6490  177.1290  142.5660 C   0  0  0  0  0  3  0  0  0  0  0  0
  190.8960  177.9080  142.5980 N   0  0  0  0  0  0  0  0  0  0  0  0
  189.8240  177.4590  141.9000 C   0  0  0  0  0  0  0  0  0  0  0  0
  189.7040  177.7320  144.6760 C   0  0  0  0  0  0  0  0  0  0  0  0
  189.2310  176.7540  146.9710 C   0  0  0  0  0  2  0  0  0  0  0  0
  189.7770  177.9280  146.1810 C   0  0  0  0  0  3  0  0  0  0  0  0
  190.7320  176.9730  146.8700 C   0  0  0  0  0  2  0  0  0  0  0  0
  189.9020  177.3210  140.4740 C   0  0  0  0  0  0  0  0  0  0  0  0
  189.9670  177.2060  139.2750 C   0  0  0  0  0  0  0  0  0  0  0  0
  190.0470  177.0650  137.8180 C   0  0  2  0  0  3  0  0  0  0  0  0
  191.3720  177.0660  137.4220 F   0  0  0  0  0  0  0  0  0  0  0  0
  189.3080  178.1770  137.1520 C   0  0  0  0  0  0  0  0  0  0  0  0
  188.9570  178.0780  135.9460 O   0  0  0  0  0  0  0  0  0  0  0  0
  189.0340  179.3400  137.8570 O   0  0  0  0  0  1  0  0  0  0  0  0
  187.3870  176.9130  144.6300 O   0  0  0  0  0  0  0  0  0  0  0  0
  186.2140  177.6790  144.6680 C   0  0  0  0  0  0  0  0  0  0  0  0
  183.8420  179.1770  144.6570 C   0  0  0  0  0  3  0  0  0  0  0  0
  185.6680  178.1540  145.8780 C   0  0  0  0  0  0  0  0  0  0  0  0
  184.4870  178.9030  145.8660 C   0  0  0  0  0  3  0  0  0  0  0  0
  184.3690  178.6910  143.4570 C   0  0  0  0  0  3  0  0  0  0  0  0
  186.2390  177.8480  147.0690 F   0  0  0  0  0  0  0  0  0  0  0  0
  185.5480  177.9410  143.4660 C   0  0  0  0  0  3  0  0  0  0  0  0
  1 18  1  0  0  0  0
  1  7  1  0  0  0  0
  2  3  1  0  0  0  0
  2  7  2  0  0  0  0
  4  1  2  0  0  0  0
  5  2  1  0  0  0  0
  6  4  1  0  0  0  0
  6  5  2  0  0  0  0
  7  9  1  0  0  0  0
  9 10  1  0  0  0  0
  9  8  1  0  0  0  0
 10  8  1  0  0  0  0
 11  6  1  0  0  0  0
 12 11  3  0  0  0  0
 13 14  1  6  0  0  0
 13 12  1  0  0  0  0
 15 13  1  0  0  0  0
 15 17  1  0  0  0  0
 16 15  2  0  0  0  0
 18 19  1  0  0  0  0
 19 21  1  0  0  0  0
 20 22  1  0  0  0  0
 21 24  1  0  0  0  0
 22 21  2  0  0  0  0
 23 25  1  0  0  0  0
 23 20  2  0  0  0  0
 25 19  2  0  0  0  0
M  END
>  <MODEL>
3

>  <REMARK>
 VINA RESULT:      -8.2      3.077      5.570
  Name = 
  6 active torsions:
  status: ('A' for Active; 'I' for Inactive)
    1  A    between atoms: O_1  and  C_3
    2  A    between atoms: O_1  and  C_5
    3  A    between atoms: C_2  and  C_21
    4  A    between atoms: C_6  and  C_23
    5  A    between atoms: C_9  and  C_24
    6  A    between atoms: C_15  and  C_21
                            x       y       z     vdW  Elec       q    Type
                         _______ _______ _______ _____ _____    ______ ____

>  <TORSDO>
F 6

$$$$
=
 OpenBabel11052412413D

 25 27  0  0  1  0  0  0  0  0999 V2000
  188.7190  177.1370  143.9680 C   0  0  0  0  0  0  0  0  0  0  0  0
  190.9610  178.0640  143.9340 C   0  0  0  0  0  0  0  0  0  0  0  0
  192.0450  178.5860  144.5620 F   0  0  0  0  0  0  0  0  0  0  0  0
  188.7950  177.0030  142.5740 C   0  0  0  0  0  3  0  0  0  0  0  0
  190.9870  177.9260  142.5830 N   0  0  0  0  0  0  0  0  0  0  0  0
  189.9390  177.4090  141.8960 C   0  0  0  0  0  0  0  0  0  0  0  0
  189.8310  177.6710  144.6740 C   0  0  0  0  0  0  0  0  0  0  0  0
  189.3880  176.6870  146.9720 C   0  0  0  0  0  2  0  0  0  0  0  0
  189.9080  177.8700  146.1780 C   0  0  0  0  0  3  0  0  0  0  0  0
  190.8830  176.9340  146.8640 C   0  0  0  0  0  2  0  0  0  0  0  0
  190.0100  177.2780  140.4690 C   0  0  0  0  0  0  0  0  0  0  0  0
  190.0710  177.1680  139.2700 C   0  0  0  0  0  0  0  0  0  0  0  0
  190.1450  177.0340  137.8120 C   0  0  2  0  0  3  0  0  0  0  0  0
  191.4670  177.0600  137.4080 F   0  0  0  0  0  0  0  0  0  0  0  0
  189.3810  178.1340  137.1550 C   0  0  0  0  0  0  0  0  0  0  0  0
  189.0710  178.0570  135.9360 O   0  0  0  0  0  0  0  0  0  0  0  0
  189.0370  179.2630  137.8830 O   0  0  0  0  0  1  0  0  0  0  0  0
  187.5710  176.7040  144.6510 O   0  0  0  0  0  0  0  0  0  0  0  0
  186.4220  177.4750  144.8720 C   0  0  0  0  0  0  0  0  0  0  0  0
  184.1580  179.0440  145.4050 C   0  0  0  0  0  3  0  0  0  0  0  0
  185.6120  177.9360  143.8140 C   0  0  0  0  0  0  0  0  0  0  0  0
  184.4830  178.7140  144.0860 C   0  0  0  0  0  3  0  0  0  0  0  0
  184.9680  178.6050  146.4550 C   0  0  0  0  0  3  0  0  0  0  0  0
  185.9420  177.6850  142.5240 F   0  0  0  0  0  0  0  0  0  0  0  0
  186.0990  177.8290  146.1870 C   0  0  0  0  0  3  0  0  0  0  0  0
  1 18  1  0  0  0  0
  1  7  1  0  0  0  0
  2  3  1  0  0  0  0
  2  7  2  0  0  0  0
  4  1  2  0  0  0  0
  5  2  1  0  0  0  0
  6  4  1  0  0  0  0
  6  5  2  0  0  0  0
  7  9  1  0  0  0  0
  9 10  1  0  0  0  0
  9  8  1  0  0  0  0
 10  8  1  0  0  0  0
 11  6  1  0  0  0  0
 12 11  3  0  0  0  0
 13 14  1  6  0  0  0
 13 12  1  0  0  0  0
 15 13  1  0  0  0  0
 15 17  1  0  0  0  0
 16 15  2  0  0  0  0
 18 19  1  0  0  0  0
 19 25  1  0  0  0  0
 20 23  1  0  0  0  0
 21 22  1  0  0  0  0
 21 19  2  0  0  0  0
 22 20  2  0  0  0  0
 24 21  1  0  0  0  0
 25 23  2  0  0  0  0
M  END
>  <MODEL>
4

>  <REMARK>
 VINA RESULT:      -8.2      3.159      5.478
  Name = 
  6 active torsions:
  status: ('A' for Active; 'I' for Inactive)
    1  A    between atoms: O_1  and  C_3
    2  A    between atoms: O_1  and  C_5
    3  A    between atoms: C_2  and  C_21
    4  A    between atoms: C_6  and  C_23
    5  A    between atoms: C_9  and  C_24
    6  A    between atoms: C_15  and  C_21
                            x       y       z     vdW  Elec       q    Type
                         _______ _______ _______ _____ _____    ______ ____

>  <TORSDO>
F 6

$$$$
=
 OpenBabel11052412413D

 25 27  0  0  1  0  0  0  0  0999 V2000
  188.0630  177.1320  145.2410 C   0  0  0  0  0  0  0  0  0  0  0  0
  190.4260  177.1180  145.7950 C   0  0  0  0  0  0  0  0  0  0  0  0
  191.4390  177.1210  146.6980 F   0  0  0  0  0  0  0  0  0  0  0  0
  188.4200  177.1040  143.8850 C   0  0  0  0  0  3  0  0  0  0  0  0
  190.7260  177.1010  144.4700 N   0  0  0  0  0  0  0  0  0  0  0  0
  189.7610  177.0940  143.5170 C   0  0  0  0  0  0  0  0  0  0  0  0
  189.0870  177.1280  146.2270 C   0  0  0  0  0  0  0  0  0  0  0  0
  189.4300  178.3790  148.4090 C   0  0  0  0  0  2  0  0  0  0  0  0
  188.8640  177.1470  147.7290 C   0  0  0  0  0  3  0  0  0  0  0  0
  187.9320  178.2510  148.1900 C   0  0  0  0  0  2  0  0  0  0  0  0
  190.1230  177.0740  142.1290 C   0  0  0  0  0  0  0  0  0  0  0  0
  190.4280  177.0560  140.9620 C   0  0  0  0  0  0  0  0  0  0  0  0
  190.7980  177.0350  139.5440 C   0  0  2  0  0  3  0  0  0  0  0  0
  192.0900  177.5030  139.3930 F   0  0  0  0  0  0  0  0  0  0  0  0
  189.8490  177.8700  138.7520 C   0  0  0  0  0  0  0  0  0  0  0  0
  189.7870  177.7520  137.4990 O   0  0  0  0  0  0  0  0  0  0  0  0
  189.0520  178.8050  139.3970 O   0  0  0  0  0  1  0  0  0  0  0  0
  186.7080  177.1180  145.6080 O   0  0  0  0  0  0  0  0  0  0  0  0
  185.6980  177.8780  145.0030 C   0  0  0  0  0  0  0  0  0  0  0  0
  183.6960  179.3530  143.7050 C   0  0  0  0  0  3  0  0  0  0  0  0
  184.6500  178.4590  145.7450 C   0  0  0  0  0  0  0  0  0  0  0  0
  183.6570  179.1970  145.0930 C   0  0  0  0  0  3  0  0  0  0  0  0
  184.7220  178.7620  142.9630 C   0  0  0  0  0  3  0  0  0  0  0  0
  184.5540  178.2690  147.0830 F   0  0  0  0  0  0  0  0  0  0  0  0
  185.7150  178.0230  143.6110 C   0  0  0  0  0  3  0  0  0  0  0  0
  1 18  1  0  0  0  0
  1  7  1  0  0  0  0
  2  7  2  0  0  0  0
  2  3  1  0  0  0  0
  4  1  2  0  0  0  0
  5  2  1  0  0  0  0
  6  4  1  0  0  0  0
  6  5  2  0  0  0  0
  7  9  1  0  0  0  0
  9 10  1  0  0  0  0
  9  8  1  0  0  0  0
 10  8  1  0  0  0  0
 11  6  1  0  0  0  0
 12 11  3  0  0  0  0
 13 14  1  1  0  0  0
 13 12  1  0  0  0  0
 15 17  1  0  0  0  0
 15 13  1  0  0  0  0
 16 15  2  0  0  0  0
 19 18  1  0  0  0  0
 19 21  1  0  0  0  0
 20 22  1  0  0  0  0
 21 24  1  0  0  0  0
 22 21  2  0  0  0  0
 23 25  1  0  0  0  0
 23 20  2  0  0  0  0
 25 19  2  0  0  0  0
M  END
>  <MODEL>
5

>  <REMARK>
 VINA RESULT:      -8.1      2.820      5.518
  Name = 
  6 active torsions:
  status: ('A' for Active; 'I' for Inactive)
    1  A    between atoms: O_1  and  C_3
    2  A    between atoms: O_1  and  C_5
    3  A    between atoms: C_2  and  C_21
    4  A    between atoms: C_6  and  C_23
    5  A    between atoms: C_9  and  C_24
    6  A    between atoms: C_15  and  C_21
                            x       y       z     vdW  Elec       q    Type
                         _______ _______ _______ _____ _____    ______ ____

>  <TORSDO>
F 6

$$$$
=
 OpenBabel11052412413D

 25 27  0  0  1  0  0  0  0  0999 V2000
  187.5110  177.3840  143.3960 C   0  0  0  0  0  0  0  0  0  0  0  0
  187.8410  178.5340  141.2850 C   0  0  0  0  0  0  0  0  0  0  0  0
  188.6430  179.0190  140.3040 F   0  0  0  0  0  0  0  0  0  0  0  0
  186.1300  177.5710  143.2390 C   0  0  0  0  0  3  0  0  0  0  0  0
  186.4970  178.7030  141.1790 N   0  0  0  0  0  0  0  0  0  0  0  0
  185.6400  178.2400  142.1230 C   0  0  0  0  0  0  0  0  0  0  0  0
  188.3950  177.8660  142.3930 C   0  0  0  0  0  0  0  0  0  0  0  0
  190.3870  176.3060  142.5940 C   0  0  0  0  0  2  0  0  0  0  0  0
  189.9080  177.7330  142.4120 C   0  0  0  0  0  3  0  0  0  0  0  0
  190.4640  176.9660  141.2280 C   0  0  0  0  0  2  0  0  0  0  0  0
  184.2280  178.4370  141.9680 C   0  0  0  0  0  0  0  0  0  0  0  0
  183.0400  178.6040  141.8390 C   0  0  0  0  0  0  0  0  0  0  0  0
  181.5970  178.8060  141.6810 C   0  0  2  0  0  3  0  0  0  0  0  0
  181.3600  179.6680  140.6260 F   0  0  0  0  0  0  0  0  0  0  0  0
  181.0130  179.3550  142.9390 C   0  0  0  0  0  0  0  0  0  0  0  0
  180.3730  180.4400  142.9260 O   0  0  0  0  0  0  0  0  0  0  0  0
  181.2050  178.6820  144.1380 O   0  0  0  0  0  1  0  0  0  0  0  0
  187.9990  176.6880  144.5130 O   0  0  0  0  0  0  0  0  0  0  0  0
  188.1530  177.2250  145.7980 C   0  0  0  0  0  0  0  0  0  0  0  0
  188.3640  178.2900  148.3850 C   0  0  0  0  0  3  0  0  0  0  0  0
  189.3930  177.2190  146.4700 C   0  0  0  0  0  0  0  0  0  0  0  0
  189.4920  177.7550  147.7580 C   0  0  0  0  0  3  0  0  0  0  0  0
  187.1300  178.2790  147.7310 C   0  0  0  0  0  3  0  0  0  0  0  0
  190.4870  176.6490  145.9100 F   0  0  0  0  0  0  0  0  0  0  0  0
  187.0260  177.7440  146.4450 C   0  0  0  0  0  3  0  0  0  0  0  0
  1 18  1  0  0  0  0
  2  7  1  0  0  0  0
  3  2  1  0  0  0  0
  4  1  1  0  0  0  0
  5  2  2  0  0  0  0
  5  6  1  0  0  0  0
  6  4  2  0  0  0  0
  7  9  1  0  0  0  0
  7  1  2  0  0  0  0
  9  8  1  0  0  0  0
 10  9  1  0  0  0  0
 10  8  1  0  0  0  0
 11  6  1  0  0  0  0
 12 11  3  0  0  0  0
 13 14  1  6  0  0  0
 13 12  1  0  0  0  0
 13 15  1  0  0  0  0
 15 17  1  0  0  0  0
 16 15  2  0  0  0  0
 18 19  1  0  0  0  0
 19 25  2  0  0  0  0
 19 21  1  0  0  0  0
 21 22  2  0  0  0  0
 22 20  1  0  0  0  0
 23 20  2  0  0  0  0
 24 21  1  0  0  0  0
 25 23  1  0  0  0  0
M  END
>  <MODEL>
6

>  <REMARK>
 VINA RESULT:      -8.0      2.688      4.658
  Name = 
  6 active torsions:
  status: ('A' for Active; 'I' for Inactive)
    1  A    between atoms: O_1  and  C_3
    2  A    between atoms: O_1  and  C_5
    3  A    between atoms: C_2  and  C_21
    4  A    between atoms: C_6  and  C_23
    5  A    between atoms: C_9  and  C_24
    6  A    between atoms: C_15  and  C_21
                            x       y       z     vdW  Elec       q    Type
                         _______ _______ _______ _____ _____    ______ ____

>  <TORSDO>
F 6

$$$$
=
 OpenBabel11052412413D

 25 27  0  0  1  0  0  0  0  0999 V2000
  186.9770  177.5980  145.2920 C   0  0  0  0  0  0  0  0  0  0  0  0
  186.0830  179.1750  146.9070 C   0  0  0  0  0  0  0  0  0  0  0  0
  186.1750  179.8790  148.0620 F   0  0  0  0  0  0  0  0  0  0  0  0
  185.8130  177.7790  144.5300 C   0  0  0  0  0  3  0  0  0  0  0  0
  184.9690  179.3100  146.1410 N   0  0  0  0  0  0  0  0  0  0  0  0
  184.8140  178.6370  144.9740 C   0  0  0  0  0  0  0  0  0  0  0  0
  187.1270  178.3200  146.5070 C   0  0  0  0  0  0  0  0  0  0  0  0
  187.9700  177.8180  148.8480 C   0  0  0  0  0  2  0  0  0  0  0  0
  188.3260  178.2420  147.4360 C   0  0  0  0  0  3  0  0  0  0  0  0
  188.6400  176.8340  147.9040 C   0  0  0  0  0  2  0  0  0  0  0  0
  183.6220  178.8130  144.1960 C   0  0  0  0  0  0  0  0  0  0  0  0
  182.6190  178.9610  143.5420 C   0  0  0  0  0  0  0  0  0  0  0  0
  181.4010  179.1410  142.7470 C   0  0  2  0  0  3  0  0  0  0  0  0
  180.3430  178.4990  143.3650 F   0  0  0  0  0  0  0  0  0  0  0  0
  181.6000  178.6020  141.3710 C   0  0  0  0  0  0  0  0  0  0  0  0
  182.6740  178.8210  140.7480 O   0  0  0  0  0  0  0  0  0  0  0  0
  180.5840  177.8810  140.7600 O   0  0  0  0  0  1  0  0  0  0  0  0
  187.9930  176.7490  144.8270 O   0  0  0  0  0  0  0  0  0  0  0  0
  189.1010  177.1510  144.0700 C   0  0  0  0  0  0  0  0  0  0  0  0
  191.3790  177.9200  142.6250 C   0  0  0  0  0  3  0  0  0  0  0  0
  189.0190  177.3740  142.6800 C   0  0  0  0  0  0  0  0  0  0  0  0
  190.1570  177.7610  141.9660 C   0  0  0  0  0  3  0  0  0  0  0  0
  191.4690  177.6810  143.9980 C   0  0  0  0  0  3  0  0  0  0  0  0
  187.8610  177.1640  142.0070 F   0  0  0  0  0  0  0  0  0  0  0  0
  190.3340  177.2930  144.7150 C   0  0  0  0  0  3  0  0  0  0  0  0
  1  7  1  0  0  0  0
  2  3  1  0  0  0  0
  4  6  1  0  0  0  0
  4  1  2  0  0  0  0
  5  2  1  0  0  0  0
  6  5  2  0  0  0  0
  7  2  2  0  0  0  0
  7  9  1  0  0  0  0
  9 10  1  0  0  0  0
  9  8  1  0  0  0  0
 10  8  1  0  0  0  0
 11  6  1  0  0  0  0
 12 11  3  0  0  0  0
 13 14  1  1  0  0  0
 13 12  1  0  0  0  0
 15 13  1  0  0  0  0
 16 15  2  0  0  0  0
 17 15  1  0  0  0  0
 18  1  1  0  0  0  0
 19 25  1  0  0  0  0
 19 18  1  0  0  0  0
 20 23  1  0  0  0  0
 21 19  2  0  0  0  0
 22 20  2  0  0  0  0
 22 21  1  0  0  0  0
 23 25  2  0  0  0  0
 24 21  1  0  0  0  0
M  END
>  <MODEL>
7

>  <REMARK>
 VINA RESULT:      -8.0      2.057      2.245
  Name = 
  6 active torsions:
  status: ('A' for Active; 'I' for Inactive)
    1  A    between atoms: O_1  and  C_3
    2  A    between atoms: O_1  and  C_5
    3  A    between atoms: C_2  and  C_21
    4  A    between atoms: C_6  and  C_23
    5  A    between atoms: C_9  and  C_24
    6  A    between atoms: C_15  and  C_21
                            x       y       z     vdW  Elec       q    Type
                         _______ _______ _______ _____ _____    ______ ____

>  <TORSDO>
F 6

$$$$
=
 OpenBabel11052412413D

 25 27  0  0  1  0  0  0  0  0999 V2000
  187.4040  177.5250  145.1970 C   0  0  0  0  0  0  0  0  0  0  0  0
  186.1530  179.0680  146.5900 C   0  0  0  0  0  0  0  0  0  0  0  0
  186.0040  179.8010  147.7230 F   0  0  0  0  0  0  0  0  0  0  0  0
  186.3760  177.6100  144.2470 C   0  0  0  0  0  3  0  0  0  0  0  0
  185.1760  179.1120  145.6470 N   0  0  0  0  0  0  0  0  0  0  0  0
  185.2640  178.4060  144.4920 C   0  0  0  0  0  0  0  0  0  0  0  0
  187.3020  178.2800  146.3970 C   0  0  0  0  0  0  0  0  0  0  0  0
  187.9280  177.4820  148.7240 C   0  0  0  0  0  2  0  0  0  0  0  0
  188.3300  178.3030  147.5150 C   0  0  0  0  0  3  0  0  0  0  0  0
  188.9840  176.9580  147.7650 C   0  0  0  0  0  2  0  0  0  0  0  0
  184.2100  178.4840  143.5220 C   0  0  0  0  0  0  0  0  0  0  0  0
  183.3240  178.5490  142.7060 C   0  0  0  0  0  0  0  0  0  0  0  0
  182.2470  178.6290  141.7150 C   0  0  2  0  0  3  0  0  0  0  0  0
  182.6670  179.3760  140.6300 F   0  0  0  0  0  0  0  0  0  0  0  0
  181.0300  179.2400  142.3240 C   0  0  0  0  0  0  0  0  0  0  0  0
  180.7250  178.9960  143.5220 O   0  0  0  0  0  1  0  0  0  0  0  0
  180.2130  180.0570  141.5570 O   0  0  0  0  0  0  0  0  0  0  0  0
  188.5360  176.7380  144.9340 O   0  0  0  0  0  0  0  0  0  0  0  0
  189.5010  177.0090  143.9550 C   0  0  0  0  0  0  0  0  0  0  0  0
  191.3790  177.4990  141.9290 C   0  0  0  0  0  3  0  0  0  0  0  0
  190.3830  178.1050  144.0540 C   0  0  0  0  0  0  0  0  0  0  0  0
  191.3200  178.3420  143.0430 C   0  0  0  0  0  3  0  0  0  0  0  0
  190.4940  176.4240  141.8180 C   0  0  0  0  0  3  0  0  0  0  0  0
  190.3030  178.9730  145.0910 F   0  0  0  0  0  0  0  0  0  0  0  0
  189.5560  176.1860  142.8250 C   0  0  0  0  0  3  0  0  0  0  0  0
  1  7  1  0  0  0  0
  2  3  1  0  0  0  0
  4  6  1  0  0  0  0
  4  1  2  0  0  0  0
  5  2  1  0  0  0  0
  6  5  2  0  0  0  0
  7  2  2  0  0  0  0
  7  9  1  0  0  0  0
  9 10  1  0  0  0  0
  9  8  1  0  0  0  0
 10  8  1  0  0  0  0
 11  6  1  0  0  0  0
 12 11  3  0  0  0  0
 13 14  1  6  0  0  0
 13 15  1  0  0  0  0
 13 12  1  0  0  0  0
 15 16  1  0  0  0  0
 17 15  2  0  0  0  0
 18  1  1  0  0  0  0
 19 21  1  0  0  0  0
 19 18  1  0  0  0  0
 20 22  1  0  0  0  0
 21 24  1  0  0  0  0
 22 21  2  0  0  0  0
 23 20  2  0  0  0  0
 23 25  1  0  0  0  0
 25 19  2  0  0  0  0
M  END
>  <MODEL>
8

>  <REMARK>
 VINA RESULT:      -7.9      2.112      2.546
  Name = 
  6 active torsions:
  status: ('A' for Active; 'I' for Inactive)
    1  A    between atoms: O_1  and  C_3
    2  A    between atoms: O_1  and  C_5
    3  A    between atoms: C_2  and  C_21
    4  A    between atoms: C_6  and  C_23
    5  A    between atoms: C_9  and  C_24
    6  A    between atoms: C_15  and  C_21
                            x       y       z     vdW  Elec       q    Type
                         _______ _______ _______ _____ _____    ______ ____

>  <TORSDO>
F 6

$$$$
=
 OpenBabel11052412413D

 25 27  0  0  1  0  0  0  0  0999 V2000
  186.5930  177.6030  144.3530 C   0  0  0  0  0  0  0  0  0  0  0  0
  184.5120  178.7930  144.7320 C   0  0  0  0  0  0  0  0  0  0  0  0
  183.5640  179.3050  145.5570 F   0  0  0  0  0  0  0  0  0  0  0  0
  186.3990  177.7820  142.9750 C   0  0  0  0  0  3  0  0  0  0  0  0
  184.3600  178.9330  143.3890 N   0  0  0  0  0  0  0  0  0  0  0  0
  185.2710  178.4470  142.5100 C   0  0  0  0  0  0  0  0  0  0  0  0
  185.6340  178.1290  145.2610 C   0  0  0  0  0  0  0  0  0  0  0  0
  187.1110  178.1580  147.3240 C   0  0  0  0  0  2  0  0  0  0  0  0
  185.7040  178.0270  146.7750 C   0  0  0  0  0  3  0  0  0  0  0  0
  186.1340  179.3160  147.4490 C   0  0  0  0  0  2  0  0  0  0  0  0
  185.0720  178.6210  141.1000 C   0  0  0  0  0  0  0  0  0  0  0  0
  184.9050  178.7670  139.9150 C   0  0  0  0  0  0  0  0  0  0  0  0
  184.7020  178.9440  138.4740 C   0  0  2  0  0  3  0  0  0  0  0  0
  183.4670  178.4380  138.1120 F   0  0  0  0  0  0  0  0  0  0  0  0
  185.7850  178.2580  137.7130 C   0  0  0  0  0  0  0  0  0  0  0  0
  186.9680  178.6900  137.7560 O   0  0  0  0  0  1  0  0  0  0  0  0
  185.4830  177.1550  136.9270 O   0  0  0  0  0  0  0  0  0  0  0  0
  187.7450  176.9520  144.8190 O   0  0  0  0  0  0  0  0  0  0  0  0
  188.9980  176.9770  144.1920 C   0  0  0  0  0  0  0  0  0  0  0  0
  191.4670  176.9770  142.8590 C   0  0  0  0  0  3  0  0  0  0  0  0
  189.9890  177.9200  144.5320 C   0  0  0  0  0  0  0  0  0  0  0  0
  191.2190  177.9130  143.8670 C   0  0  0  0  0  3  0  0  0  0  0  0
  190.4810  176.0530  142.5050 C   0  0  0  0  0  3  0  0  0  0  0  0
  189.7500  178.8780  145.4600 F   0  0  0  0  0  0  0  0  0  0  0  0
  189.2500  176.0580  143.1660 C   0  0  0  0  0  3  0  0  0  0  0  0
  1 18  1  0  0  0  0
  1  7  1  0  0  0  0
  2  7  2  0  0  0  0
  2  3  1  0  0  0  0
  4  1  2  0  0  0  0
  5  2  1  0  0  0  0
  6  4  1  0  0  0  0
  6  5  2  0  0  0  0
  7  9  1  0  0  0  0
  8 10  1  0  0  0  0
  9  8  1  0  0  0  0
  9 10  1  0  0  0  0
 11  6  1  0  0  0  0
 12 11  3  0  0  0  0
 13 14  1  6  0  0  0
 13 12  1  0  0  0  0
 15 16  1  0  0  0  0
 15 13  1  0  0  0  0
 17 15  2  0  0  0  0
 19 21  1  0  0  0  0
 19 18  1  0  0  0  0
 20 22  1  0  0  0  0
 21 24  1  0  0  0  0
 22 21  2  0  0  0  0
 23 20  2  0  0  0  0
 23 25  1  0  0  0  0
 25 19  2  0  0  0  0
M  END
>  <MODEL>
9

>  <REMARK>
 VINA RESULT:      -7.6      1.725      2.304
  Name = 
  6 active torsions:
  status: ('A' for Active; 'I' for Inactive)
    1  A    between atoms: O_1  and  C_3
    2  A    between atoms: O_1  and  C_5
    3  A    between atoms: C_2  and  C_21
    4  A    between atoms: C_6  and  C_23
    5  A    between atoms: C_9  and  C_24
    6  A    between atoms: C_15  and  C_21
                            x       y       z     vdW  Elec       q    Type
                         _______ _______ _______ _____ _____    ______ ____

>  <TORSDO>
F 6

$$$$
