=
 OpenBabel11052412373D

 30 32  0  0  1  0  0  0  0  0999 V2000
  183.7670  178.9600  139.0010 C   0  0  1  0  0  3  0  0  0  0  0  0
  185.1030  179.3380  141.9330 C   0  0  0  0  0  2  0  0  0  0  0  0
  180.2320  179.6560  142.3300 C   0  0  0  0  0  1  0  0  0  0  0  0
  182.7490  178.1020  138.2080 C   0  0  2  0  0  3  0  0  0  0  0  0
  183.0740  180.0890  139.6400 N   0  0  0  0  0  2  0  0  0  0  0  0
  181.4410  180.2640  137.9940 C   0  0  2  0  0  3  0  0  0  0  0  0
  180.8860  176.3770  138.0710 C   0  0  0  0  0  2  0  0  0  0  0  0
  179.9090  177.5890  140.3160 O   0  0  0  0  0  0  0  0  0  0  0  0
  182.5730  180.9350  138.6330 N   0  0  0  0  0  2  0  0  0  0  0  0
  181.9550  179.0230  137.2550 C   0  0  2  0  0  3  0  0  0  0  0  0
  184.5530  178.1500  142.7170 C   0  0  0  0  0  2  0  0  0  0  0  0
  180.0210  177.3860  137.3280 C   0  0  2  0  0  3  0  0  0  0  0  0
  185.4720  178.9250  140.5100 C   0  0  0  0  0  2  0  0  0  0  0  0
  181.9250  178.2130  141.3050 N   0  0  0  0  0  2  0  0  0  0  0  0
  183.6150  178.5980  143.8340 C   0  0  0  0  0  2  0  0  0  0  0  0
  184.4340  178.1670  139.9500 O   0  0  0  0  0  0  0  0  0  0  0  0
  182.7890  175.9450  139.5030 C   0  0  0  0  0  1  0  0  0  0  0  0
  181.1670  177.6480  140.2270 C   0  0  0  0  0  0  0  0  0  0  0  0
  181.8840  177.0660  139.0160 C   0  0  1  0  0  0  0  0  0  0  0  0
  178.9310  176.6810  136.5420 C   0  0  0  0  0  1  0  0  0  0  0  0
  181.3860  178.6970  142.5740 C   0  0  1  0  0  3  0  0  0  0  0  0
  182.4640  179.4690  143.3300 C   0  0  0  0  0  2  0  0  0  0  0  0
  180.8760  178.2970  136.4420 C   0  0  2  0  0  3  0  0  0  0  0  0
  182.4710  178.1810  134.5950 C   0  0  0  0  0  2  0  0  0  0  0  0
  181.0160  176.3580  134.8450 O   0  0  0  0  0  1  0  0  0  0  0  0
  181.4790  177.6030  135.2540 C   0  0  0  0  0  0  0  0  0  0  0  0
  180.7390  181.2370  137.0500 C   0  0  0  0  0  2  0  0  0  0  0  0
  180.6990  182.5230  137.6020 O   0  0  0  0  0  0  0  0  0  0  0  0
  181.0870  183.3210  136.6270 O   0  0  0  0  0  0  0  0  0  0  0  0
  181.5530  184.4690  137.2700 C   0  0  0  0  0  1  0  0  0  0  0  0
  1  5  1  1  0  0  0
  1 16  1  0  0  0  0
  2 11  1  0  0  0  0
  3 21  1  0  0  0  0
  4  1  1  0  0  0  0
  4 19  1  0  0  0  0
  6  9  1  0  0  0  0
  7 19  1  0  0  0  0
  9  5  1  0  0  0  0
 10  6  1  0  0  0  0
 10  4  1  0  0  0  0
 11 15  1  0  0  0  0
 12  7  1  0  0  0  0
 13  2  1  0  0  0  0
 14 21  1  0  0  0  0
 16 13  1  0  0  0  0
 18  8  2  0  0  0  0
 18 14  1  0  0  0  0
 19 17  1  0  0  0  0
 19 18  1  0  0  0  0
 20 12  1  0  0  0  0
 21 22  1  0  0  0  0
 22 15  1  0  0  0  0
 23 10  1  0  0  0  0
 23 12  1  0  0  0  0
 24 26  2  0  0  0  0
 25 26  1  0  0  0  0
 26 23  1  0  0  0  0
 27 28  1  0  0  0  0
 27  6  1  0  0  0  0
 29 30  1  0  0  0  0
 29 28  1  0  0  0  0
M  END
>  <MODEL>
1

>  <REMARK>
 VINA RESULT:      -5.3      0.000      0.000
  Name = 
  4 active torsions:
  status: ('A' for Active; 'I' for Inactive)
    1  A    between atoms: C_6  and  C_8
    2  A    between atoms: C_6  and  O_21
    3  A    between atoms: O_9  and  O_21
    4  A    between atoms: C_27  and  C_30
                            x       y       z     vdW  Elec       q    Type
                         _______ _______ _______ _____ _____    ______ ____

>  <TORSDO>
F 4

$$$$
=
 OpenBabel11052412373D

 30 32  0  0  1  0  0  0  0  0999 V2000
  182.0290  177.2740  136.7800 C   0  0  1  0  0  3  0  0  0  0  0  0
  181.6620  174.1630  135.9340 C   0  0  0  0  0  2  0  0  0  0  0  0
  179.9930  174.7990  140.4940 C   0  0  0  0  0  1  0  0  0  0  0  0
  181.2530  178.5180  137.2820 C   0  0  2  0  0  3  0  0  0  0  0  0
  182.4700  176.4670  137.9280 N   0  0  0  0  0  2  0  0  0  0  0  0
  182.6800  178.2840  139.3650 C   0  0  2  0  0  3  0  0  0  0  0  0
  179.1780  179.6460  138.2220 C   0  0  0  0  0  2  0  0  0  0  0  0
  178.9430  177.4080  139.7720 O   0  0  0  0  0  0  0  0  0  0  0  0
  183.4010  177.2170  138.6710 N   0  0  0  0  0  2  0  0  0  0  0  0
  182.1190  179.2600  138.3240 C   0  0  2  0  0  3  0  0  0  0  0  0
  180.1490  173.9710  135.9800 C   0  0  0  0  0  2  0  0  0  0  0  0
  180.0080  180.1820  139.3810 C   0  0  2  0  0  3  0  0  0  0  0  0
  182.0180  175.5190  135.3290 C   0  0  0  0  0  2  0  0  0  0  0  0
  179.8070  175.8370  138.2840 N   0  0  0  0  0  2  0  0  0  0  0  0
  179.7360  173.0120  137.0920 C   0  0  0  0  0  2  0  0  0  0  0  0
  181.2260  176.5220  135.9060 O   0  0  0  0  0  0  0  0  0  0  0  0
  178.9370  178.0500  136.4180 C   0  0  0  0  0  1  0  0  0  0  0  0
  179.4870  177.1840  138.6550 C   0  0  0  0  0  0  0  0  0  0  0  0
  179.7440  178.3240  137.6770 C   0  0  1  0  0  0  0  0  0  0  0  0
  179.3320  181.3850  140.0130 C   0  0  0  0  0  1  0  0  0  0  0  0
  179.5110  174.6360  139.0620 C   0  0  1  0  0  3  0  0  0  0  0  0
  180.2500  173.4410  138.4670 C   0  0  0  0  0  2  0  0  0  0  0  0
  181.4400  180.4920  138.9350 C   0  0  2  0  0  3  0  0  0  0  0  0
  182.3350  182.6890  138.3480 C   0  0  0  0  0  2  0  0  0  0  0  0
  180.8540  181.7110  136.8150 O   0  0  0  0  0  1  0  0  0  0  0  0
  181.5520  181.6740  138.0160 C   0  0  0  0  0  0  0  0  0  0  0  0
  183.6200  178.9780  140.3470 C   0  0  0  0  0  2  0  0  0  0  0  0
  184.6290  179.6660  139.6660 O   0  0  0  0  0  0  0  0  0  0  0  0
  185.7400  179.0250  139.9700 O   0  0  0  0  0  0  0  0  0  0  0  0
  185.8290  179.1040  141.3610 C   0  0  0  0  0  1  0  0  0  0  0  0
  1 16  1  6  0  0  0
  1  4  1  0  0  0  0
  1  5  1  0  0  0  0
  2 11  1  0  0  0  0
  4 19  1  0  0  0  0
  4 10  1  0  0  0  0
  5  9  1  0  0  0  0
  6 27  1  0  0  0  0
  7 12  1  0  0  0  0
  9  6  1  0  0  0  0
 10 23  1  0  0  0  0
 10  6  1  0  0  0  0
 11 15  1  0  0  0  0
 12 20  1  0  0  0  0
 13 16  1  0  0  0  0
 13  2  1  0  0  0  0
 14 18  1  0  0  0  0
 14 21  1  0  0  0  0
 15 22  1  0  0  0  0
 17 19  1  0  0  0  0
 18  8  2  0  0  0  0
 19  7  1  0  0  0  0
 19 18  1  0  0  0  0
 21  3  1  0  0  0  0
 22 21  1  0  0  0  0
 23 12  1  0  0  0  0
 25 26  1  0  0  0  0
 26 24  2  0  0  0  0
 26 23  1  0  0  0  0
 28 29  1  0  0  0  0
 28 27  1  0  0  0  0
 29 30  1  0  0  0  0
M  END
>  <MODEL>
2

>  <REMARK>
 VINA RESULT:      -4.7      2.263      5.473
  Name = 
  4 active torsions:
  status: ('A' for Active; 'I' for Inactive)
    1  A    between atoms: C_6  and  C_8
    2  A    between atoms: C_6  and  O_21
    3  A    between atoms: O_9  and  O_21
    4  A    between atoms: C_27  and  C_30
                            x       y       z     vdW  Elec       q    Type
                         _______ _______ _______ _____ _____    ______ ____

>  <TORSDO>
F 4

$$$$
=
 OpenBabel11052412373D

 30 32  0  0  1  0  0  0  0  0999 V2000
  183.0760  176.9320  139.2700 C   0  0  1  0  0  3  0  0  0  0  0  0
  180.8560  179.0270  140.3700 C   0  0  0  0  0  2  0  0  0  0  0  0
  181.1290  179.3830  135.4940 C   0  0  0  0  0  1  0  0  0  0  0  0
  183.2780  175.7430  138.2980 C   0  0  2  0  0  3  0  0  0  0  0  0
  183.2990  178.1990  138.5580 N   0  0  0  0  0  2  0  0  0  0  0  0
  184.8500  177.3090  137.0710 C   0  0  2  0  0  3  0  0  0  0  0  0
  182.5070  174.2270  136.4080 C   0  0  0  0  0  2  0  0  0  0  0  0
  181.5240  176.5140  135.2820 O   0  0  0  0  0  0  0  0  0  0  0  0
  184.6490  178.2600  138.1640 N   0  0  0  0  0  2  0  0  0  0  0  0
  184.6540  175.8870  137.6110 C   0  0  2  0  0  3  0  0  0  0  0  0
  179.5650  178.5300  139.7260 C   0  0  0  0  0  2  0  0  0  0  0  0
  183.7740  174.5660  135.6340 C   0  0  2  0  0  3  0  0  0  0  0  0
  181.7120  177.8550  140.8430 C   0  0  0  0  0  2  0  0  0  0  0  0
  180.9440  177.6620  137.2260 N   0  0  0  0  0  2  0  0  0  0  0  0
  179.0200  179.5300  138.7120 C   0  0  0  0  0  2  0  0  0  0  0  0
  181.7910  176.8840  139.8350 O   0  0  0  0  0  0  0  0  0  0  0  0
  180.9510  174.7920  138.1740 C   0  0  0  0  0  1  0  0  0  0  0  0
  181.5260  176.5430  136.5440 C   0  0  0  0  0  0  0  0  0  0  0  0
  182.0850  175.3720  137.3430 C   0  0  1  0  0  0  0  0  0  0  0  0
  184.0680  173.5010  134.5940 C   0  0  0  0  0  1  0  0  0  0  0  0
  180.2660  178.7940  136.5980 C   0  0  1  0  0  3  0  0  0  0  0  0
  180.0370  179.8940  137.6290 C   0  0  0  0  0  2  0  0  0  0  0  0
  184.9560  174.7890  136.5830 C   0  0  2  0  0  3  0  0  0  0  0  0
  186.7200  173.2160  137.2010 C   0  0  0  0  0  2  0  0  0  0  0  0
  184.5570  172.7260  137.9660 O   0  0  0  0  0  1  0  0  0  0  0  0
  185.4370  173.5400  137.2630 C   0  0  0  0  0  0  0  0  0  0  0  0
  186.2420  177.5040  136.4760 C   0  0  0  0  0  2  0  0  0  0  0  0
  187.1770  177.7790  137.4790 O   0  0  0  0  0  0  0  0  0  0  0  0
  187.6020  178.9990  137.2200 O   0  0  0  0  0  0  0  0  0  0  0  0
  188.9940  178.9030  137.2300 C   0  0  0  0  0  1  0  0  0  0  0  0
  1  5  1  6  0  0  0
  1 16  1  0  0  0  0
  2 13  1  0  0  0  0
  3 21  1  0  0  0  0
  4  1  1  0  0  0  0
  6 10  1  0  0  0  0
  6  9  1  0  0  0  0
  7 19  1  0  0  0  0
  8 18  2  0  0  0  0
  9  5  1  0  0  0  0
 10  4  1  0  0  0  0
 11  2  1  0  0  0  0
 12  7  1  0  0  0  0
 12 23  1  0  0  0  0
 15 11  1  0  0  0  0
 16 13  1  0  0  0  0
 18 14  1  0  0  0  0
 18 19  1  0  0  0  0
 19 17  1  0  0  0  0
 19  4  1  0  0  0  0
 20 12  1  0  0  0  0
 21 14  1  0  0  0  0
 21 22  1  0  0  0  0
 22 15  1  0  0  0  0
 23 26  1  0  0  0  0
 23 10  1  0  0  0  0
 24 26  2  0  0  0  0
 26 25  1  0  0  0  0
 27  6  1  0  0  0  0
 27 28  1  0  0  0  0
 29 30  1  0  0  0  0
 29 28  1  0  0  0  0
M  END
>  <MODEL>
3

>  <REMARK>
 VINA RESULT:      -4.6      3.099      5.391
  Name = 
  4 active torsions:
  status: ('A' for Active; 'I' for Inactive)
    1  A    between atoms: C_6  and  C_8
    2  A    between atoms: C_6  and  O_21
    3  A    between atoms: O_9  and  O_21
    4  A    between atoms: C_27  and  C_30
                            x       y       z     vdW  Elec       q    Type
                         _______ _______ _______ _____ _____    ______ ____

>  <TORSDO>
F 4

$$$$
=
 OpenBabel11052412373D

 30 32  0  0  1  0  0  0  0  0999 V2000
  181.6600  178.9240  137.4740 C   0  0  1  0  0  3  0  0  0  0  0  0
  182.2300  177.4920  134.6190 C   0  0  0  0  0  2  0  0  0  0  0  0
  183.3460  174.3810  138.2330 C   0  0  0  0  0  1  0  0  0  0  0  0
  180.8680  178.7720  138.7970 C   0  0  2  0  0  3  0  0  0  0  0  0
  182.9600  178.2460  137.5920 N   0  0  0  0  0  2  0  0  0  0  0  0
  183.1550  178.6100  139.8800 C   0  0  2  0  0  3  0  0  0  0  0  0
  179.4480  177.4330  140.4260 C   0  0  0  0  0  2  0  0  0  0  0  0
  181.0950  175.3470  139.7930 O   0  0  0  0  0  0  0  0  0  0  0  0
  183.7250  178.9120  138.5680 N   0  0  0  0  0  2  0  0  0  0  0  0
  181.7590  179.2380  139.9690 C   0  0  2  0  0  3  0  0  0  0  0  0
  181.2610  176.3140  134.6260 C   0  0  0  0  0  2  0  0  0  0  0  0
  180.4660  177.7110  141.5250 C   0  0  2  0  0  3  0  0  0  0  0  0
  181.5720  178.7390  135.2060 C   0  0  0  0  0  2  0  0  0  0  0  0
  181.5320  175.8860  137.5670 N   0  0  0  0  0  2  0  0  0  0  0  0
  181.9980  174.9790  134.6750 C   0  0  0  0  0  2  0  0  0  0  0  0
  180.9130  178.4130  136.4000 O   0  0  0  0  0  0  0  0  0  0  0  0
  178.9310  177.3430  138.0630 C   0  0  0  0  0  1  0  0  0  0  0  0
  180.9470  176.1680  138.8450 C   0  0  0  0  0  0  0  0  0  0  0  0
  180.0990  177.4200  139.0330 C   0  0  1  0  0  0  0  0  0  0  0  0
  179.8350  177.5410  142.8950 C   0  0  0  0  0  1  0  0  0  0  0  0
  182.2650  174.6740  137.2060 C   0  0  1  0  0  3  0  0  0  0  0  0
  182.9580  174.8730  135.8610 C   0  0  0  0  0  2  0  0  0  0  0  0
  181.1030  179.0920  141.3480 C   0  0  2  0  0  3  0  0  0  0  0  0
  179.5120  180.7950  140.6110 C   0  0  0  0  0  2  0  0  0  0  0  0
  179.9690  180.7060  142.9100 O   0  0  0  0  0  1  0  0  0  0  0  0
  180.1670  180.2350  141.6170 C   0  0  0  0  0  0  0  0  0  0  0  0
  184.0850  179.1340  140.9720 C   0  0  0  0  0  2  0  0  0  0  0  0
  185.2720  179.6250  140.4190 O   0  0  0  0  0  0  0  0  0  0  0  0
  186.2100  179.2960  141.2850 O   0  0  0  0  0  0  0  0  0  0  0  0
  185.5190  178.7470  142.3670 C   0  0  0  0  0  1  0  0  0  0  0  0
  1 16  1  6  0  0  0
  1  5  1  0  0  0  0
  1  4  1  0  0  0  0
  2 11  1  0  0  0  0
  2 13  1  0  0  0  0
  4 19  1  0  0  0  0
  4 10  1  0  0  0  0
  5  9  1  0  0  0  0
  6 10  1  0  0  0  0
  6 27  1  0  0  0  0
  7 12  1  0  0  0  0
  9  6  1  0  0  0  0
 10 23  1  0  0  0  0
 11 15  1  0  0  0  0
 12 20  1  0  0  0  0
 13 16  1  0  0  0  0
 14 18  1  0  0  0  0
 15 22  1  0  0  0  0
 17 19  1  0  0  0  0
 18 19  1  0  0  0  0
 18  8  2  0  0  0  0
 19  7  1  0  0  0  0
 21 14  1  0  0  0  0
 21  3  1  0  0  0  0
 22 21  1  0  0  0  0
 23 12  1  0  0  0  0
 23 26  1  0  0  0  0
 24 26  2  0  0  0  0
 26 25  1  0  0  0  0
 28 27  1  0  0  0  0
 28 29  1  0  0  0  0
 29 30  1  0  0  0  0
M  END
>  <MODEL>
4

>  <REMARK>
 VINA RESULT:      -4.4      2.271      5.971
  Name = 
  4 active torsions:
  status: ('A' for Active; 'I' for Inactive)
    1  A    between atoms: C_6  and  C_8
    2  A    between atoms: C_6  and  O_21
    3  A    between atoms: O_9  and  O_21
    4  A    between atoms: C_27  and  C_30
                            x       y       z     vdW  Elec       q    Type
                         _______ _______ _______ _____ _____    ______ ____

>  <TORSDO>
F 4

$$$$
=
 OpenBabel11052412373D

 30 32  0  0  1  0  0  0  0  0999 V2000
  183.6280  177.0390  138.0460 C   0  0  1  0  0  3  0  0  0  0  0  0
  184.4880  174.0410  137.1520 C   0  0  0  0  0  2  0  0  0  0  0  0
  179.6860  174.1210  138.1070 C   0  0  0  0  0  1  0  0  0  0  0  0
  182.6680  178.2050  137.6990 C   0  0  2  0  0  3  0  0  0  0  0  0
  182.9680  176.1130  138.9780 N   0  0  0  0  0  2  0  0  0  0  0  0
  181.6640  177.7550  139.9840 C   0  0  2  0  0  3  0  0  0  0  0  0
  180.6740  179.1840  136.4620 C   0  0  0  0  0  2  0  0  0  0  0  0
  179.4760  176.7790  136.9580 O   0  0  0  0  0  0  0  0  0  0  0  0
  182.7400  176.7870  140.1930 N   0  0  0  0  0  2  0  0  0  0  0  0
  182.1530  178.8350  139.0120 C   0  0  2  0  0  3  0  0  0  0  0  0
  183.6860  173.8210  135.8720 C   0  0  0  0  0  2  0  0  0  0  0  0
  180.0630  179.5960  137.7950 C   0  0  2  0  0  3  0  0  0  0  0  0
  185.0410  175.4630  137.2060 C   0  0  0  0  0  2  0  0  0  0  0  0
  181.3550  175.4040  136.8560 N   0  0  0  0  0  2  0  0  0  0  0  0
  182.6300  172.7340  136.0490 C   0  0  0  0  0  2  0  0  0  0  0  0
  184.0340  176.3800  136.8740 O   0  0  0  0  0  0  0  0  0  0  0  0
  182.2500  177.8030  135.2510 C   0  0  0  0  0  1  0  0  0  0  0  0
  180.7300  176.6940  136.8360 C   0  0  0  0  0  0  0  0  0  0  0  0
  181.5710  177.9430  136.6030 C   0  0  1  0  0  0  0  0  0  0  0  0
  179.0480  180.7080  137.5980 C   0  0  0  0  0  1  0  0  0  0  0  0
  180.6690  174.1170  136.9480 C   0  0  1  0  0  3  0  0  0  0  0  0
  181.6840  173.0100  137.2180 C   0  0  0  0  0  2  0  0  0  0  0  0
  181.1500  179.9780  138.8040 C   0  0  2  0  0  3  0  0  0  0  0  0
  181.1810  182.2740  137.9690 C   0  0  0  0  0  2  0  0  0  0  0  0
  183.2240  181.3990  138.7180 O   0  0  0  0  0  1  0  0  0  0  0  0
  181.8630  181.2590  138.4790 C   0  0  0  0  0  0  0  0  0  0  0  0
  181.2430  178.3460  141.3270 C   0  0  0  0  0  2  0  0  0  0  0  0
  182.3550  178.8220  142.0300 O   0  0  0  0  0  0  0  0  0  0  0  0
  181.9100  179.0530  143.2490 O   0  0  0  0  0  0  0  0  0  0  0  0
  183.0450  179.0030  144.0590 C   0  0  0  0  0  1  0  0  0  0  0  0
  1 16  1  6  0  0  0
  1  5  1  0  0  0  0
  2 13  1  0  0  0  0
  4  1  1  0  0  0  0
  4 10  1  0  0  0  0
  5  9  1  0  0  0  0
  6  9  1  0  0  0  0
  6 27  1  0  0  0  0
  7 19  1  0  0  0  0
  7 12  1  0  0  0  0
 10  6  1  0  0  0  0
 11 15  1  0  0  0  0
 11  2  1  0  0  0  0
 12 23  1  0  0  0  0
 14 21  1  0  0  0  0
 15 22  1  0  0  0  0
 16 13  1  0  0  0  0
 17 19  1  0  0  0  0
 18 14  1  0  0  0  0
 18  8  2  0  0  0  0
 19 18  1  0  0  0  0
 19  4  1  0  0  0  0
 20 12  1  0  0  0  0
 21 22  1  0  0  0  0
 21  3  1  0  0  0  0
 23 10  1  0  0  0  0
 24 26  2  0  0  0  0
 26 25  1  0  0  0  0
 26 23  1  0  0  0  0
 27 28  1  0  0  0  0
 28 29  1  0  0  0  0
 29 30  1  0  0  0  0
M  END
>  <MODEL>
5

>  <REMARK>
 VINA RESULT:      -4.3      2.597      5.510
  Name = 
  4 active torsions:
  status: ('A' for Active; 'I' for Inactive)
    1  A    between atoms: C_6  and  C_8
    2  A    between atoms: C_6  and  O_21
    3  A    between atoms: O_9  and  O_21
    4  A    between atoms: C_27  and  C_30
                            x       y       z     vdW  Elec       q    Type
                         _______ _______ _______ _____ _____    ______ ____

>  <TORSDO>
F 4

$$$$
=
 OpenBabel11052412373D

 30 32  0  0  1  0  0  0  0  0999 V2000
  180.1290  177.5640  137.3270 C   0  0  1  0  0  3  0  0  0  0  0  0
  180.8780  175.6410  134.8230 C   0  0  0  0  0  2  0  0  0  0  0  0
  185.0050  177.3420  136.8370 C   0  0  0  0  0  1  0  0  0  0  0  0
  180.3650  177.7640  138.8460 C   0  0  2  0  0  3  0  0  0  0  0  0
  181.1840  178.2500  136.5660 N   0  0  0  0  0  2  0  0  0  0  0  0
  181.5040  179.9210  138.1520 C   0  0  2  0  0  3  0  0  0  0  0  0
  181.5700  177.2410  141.0220 C   0  0  0  0  0  2  0  0  0  0  0  0
  183.8260  177.1400  139.4830 O   0  0  0  0  0  0  0  0  0  0  0  0
  181.0650  179.6350  136.7860 N   0  0  0  0  0  2  0  0  0  0  0  0
  180.5180  179.2730  139.1330 C   0  0  2  0  0  3  0  0  0  0  0  0
  181.6570  174.5070  135.4820 C   0  0  0  0  0  2  0  0  0  0  0  0
  181.9160  178.7160  141.1720 C   0  0  2  0  0  3  0  0  0  0  0  0
  179.6850  176.0510  135.6840 C   0  0  0  0  0  2  0  0  0  0  0  0
  182.8930  176.3050  137.5170 N   0  0  0  0  0  2  0  0  0  0  0  0
  183.1200  174.5010  135.0480 C   0  0  0  0  0  2  0  0  0  0  0  0
  180.0870  176.1940  137.0190 O   0  0  0  0  0  0  0  0  0  0  0  0
  180.8810  175.4160  139.5890 C   0  0  0  0  0  1  0  0  0  0  0  0
  182.7840  176.7950  138.8600 C   0  0  0  0  0  0  0  0  0  0  0  0
  181.4240  176.8350  139.5470 C   0  0  1  0  0  0  0  0  0  0  0  0
  182.2300  179.0480  142.6200 C   0  0  0  0  0  1  0  0  0  0  0  0
  184.1350  176.0970  136.7770 C   0  0  1  0  0  3  0  0  0  0  0  0
  183.8210  175.8350  135.3070 C   0  0  0  0  0  2  0  0  0  0  0  0
  180.8050  179.6030  140.6030 C   0  0  2  0  0  3  0  0  0  0  0  0
  178.9870  180.7330  141.7810 C   0  0  0  0  0  2  0  0  0  0  0  0
  178.9310  178.3880  141.7610 O   0  0  0  0  0  1  0  0  0  0  0  0
  179.5380  179.5880  141.4100 C   0  0  0  0  0  0  0  0  0  0  0  0
  181.5960  181.4310  138.3530 C   0  0  0  0  0  2  0  0  0  0  0  0
  181.0620  182.1110  137.2530 O   0  0  0  0  0  0  0  0  0  0  0  0
  180.5360  183.2090  137.7570 O   0  0  0  0  0  0  0  0  0  0  0  0
  181.2200  184.2530  137.1320 C   0  0  0  0  0  1  0  0  0  0  0  0
  1  5  1  6  0  0  0
  1  4  1  0  0  0  0
  2 11  1  0  0  0  0
  2 13  1  0  0  0  0
  4 10  1  0  0  0  0
  4 19  1  0  0  0  0
  5  9  1  0  0  0  0
  6 27  1  0  0  0  0
  6 10  1  0  0  0  0
  7 12  1  0  0  0  0
  9  6  1  0  0  0  0
 10 23  1  0  0  0  0
 12 20  1  0  0  0  0
 13 16  1  0  0  0  0
 14 18  1  0  0  0  0
 15 22  1  0  0  0  0
 15 11  1  0  0  0  0
 16  1  1  0  0  0  0
 18  8  2  0  0  0  0
 18 19  1  0  0  0  0
 19 17  1  0  0  0  0
 19  7  1  0  0  0  0
 21  3  1  0  0  0  0
 21 14  1  0  0  0  0
 22 21  1  0  0  0  0
 23 12  1  0  0  0  0
 23 26  1  0  0  0  0
 26 25  1  0  0  0  0
 26 24  2  0  0  0  0
 28 29  1  0  0  0  0
 28 27  1  0  0  0  0
 30 29  1  0  0  0  0
M  END
>  <MODEL>
6

>  <REMARK>
 VINA RESULT:      -4.2      2.057      5.509
  Name = 
  4 active torsions:
  status: ('A' for Active; 'I' for Inactive)
    1  A    between atoms: C_6  and  C_8
    2  A    between atoms: C_6  and  O_21
    3  A    between atoms: O_9  and  O_21
    4  A    between atoms: C_27  and  C_30
                            x       y       z     vdW  Elec       q    Type
                         _______ _______ _______ _____ _____    ______ ____

>  <TORSDO>
F 4

$$$$
=
 OpenBabel11052412373D

 30 32  0  0  1  0  0  0  0  0999 V2000
  183.7930  176.4850  137.8110 C   0  0  1  0  0  3  0  0  0  0  0  0
  185.1040  173.5960  137.1310 C   0  0  0  0  0  2  0  0  0  0  0  0
  180.2390  173.1260  137.4230 C   0  0  0  0  0  1  0  0  0  0  0  0
  182.7630  177.5250  137.3020 C   0  0  2  0  0  3  0  0  0  0  0  0
  183.1200  175.5010  138.6720 N   0  0  0  0  0  2  0  0  0  0  0  0
  181.5100  176.9920  139.4420 C   0  0  2  0  0  3  0  0  0  0  0  0
  180.8610  178.2470  135.7770 C   0  0  0  0  0  2  0  0  0  0  0  0
  179.8880  175.7250  136.1770 O   0  0  0  0  0  0  0  0  0  0  0  0
  182.6510  176.1600  139.8240 N   0  0  0  0  0  2  0  0  0  0  0  0
  182.0030  178.1090  138.5130 C   0  0  2  0  0  3  0  0  0  0  0  0
  184.5180  173.2670  135.7620 C   0  0  0  0  0  2  0  0  0  0  0  0
  180.0290  178.6030  137.0020 C   0  0  2  0  0  3  0  0  0  0  0  0
  185.4790  175.0740  137.2180 C   0  0  0  0  0  2  0  0  0  0  0  0
  181.9080  174.5780  136.3720 N   0  0  0  0  0  2  0  0  0  0  0  0
  183.5790  172.0660  135.8260 C   0  0  0  0  0  2  0  0  0  0  0  0
  184.4300  175.8620  136.7250 O   0  0  0  0  0  0  0  0  0  0  0  0
  182.7370  177.0430  134.8330 C   0  0  0  0  0  1  0  0  0  0  0  0
  181.1480  175.7860  136.2290 C   0  0  0  0  0  0  0  0  0  0  0  0
  181.8650  177.1220  136.0760 C   0  0  1  0  0  0  0  0  0  0  0  0
  178.9310  179.5850  136.6360 C   0  0  0  0  0  1  0  0  0  0  0  0
  181.3670  173.2210  136.4090 C   0  0  1  0  0  3  0  0  0  0  0  0
  182.4540  172.2450  136.8470 C   0  0  0  0  0  2  0  0  0  0  0  0
  180.9150  179.1230  138.1370 C   0  0  2  0  0  3  0  0  0  0  0  0
  182.4070  180.9690  138.7180 C   0  0  0  0  0  2  0  0  0  0  0  0
  181.1530  181.2080  136.7500 O   0  0  0  0  0  1  0  0  0  0  0  0
  181.5140  180.4750  137.8740 C   0  0  0  0  0  0  0  0  0  0  0  0
  180.8430  177.5490  140.6970 C   0  0  0  0  0  2  0  0  0  0  0  0
  181.7410  178.3300  141.4320 O   0  0  0  0  0  0  0  0  0  0  0  0
  181.0210  178.8460  142.4070 O   0  0  0  0  0  0  0  0  0  0  0  0
  180.0640  179.6350  141.7660 C   0  0  0  0  0  1  0  0  0  0  0  0
  1 16  1  6  0  0  0
  1  5  1  0  0  0  0
  2 13  1  0  0  0  0
  4  1  1  0  0  0  0
  4 10  1  0  0  0  0
  5  9  1  0  0  0  0
  6  9  1  0  0  0  0
  6 27  1  0  0  0  0
  7 19  1  0  0  0  0
  7 12  1  0  0  0  0
  8 18  2  0  0  0  0
 10  6  1  0  0  0  0
 11 15  1  0  0  0  0
 11  2  1  0  0  0  0
 12 23  1  0  0  0  0
 14 21  1  0  0  0  0
 15 22  1  0  0  0  0
 16 13  1  0  0  0  0
 17 19  1  0  0  0  0
 18 14  1  0  0  0  0
 19 18  1  0  0  0  0
 19  4  1  0  0  0  0
 20 12  1  0  0  0  0
 21 22  1  0  0  0  0
 21  3  1  0  0  0  0
 23 10  1  0  0  0  0
 25 26  1  0  0  0  0
 26 23  1  0  0  0  0
 26 24  2  0  0  0  0
 27 28  1  0  0  0  0
 28 29  1  0  0  0  0
 30 29  1  0  0  0  0
M  END
>  <MODEL>
7

>  <REMARK>
 VINA RESULT:      -4.1      2.864      5.579
  Name = 
  4 active torsions:
  status: ('A' for Active; 'I' for Inactive)
    1  A    between atoms: C_6  and  C_8
    2  A    between atoms: C_6  and  O_21
    3  A    between atoms: O_9  and  O_21
    4  A    between atoms: C_27  and  C_30
                            x       y       z     vdW  Elec       q    Type
                         _______ _______ _______ _____ _____    ______ ____

>  <TORSDO>
F 4

$$$$
=
 OpenBabel11052412373D

 30 32  0  0  1  0  0  0  0  0999 V2000
  179.9310  175.8750  137.2360 C   0  0  1  0  0  3  0  0  0  0  0  0
  179.6810  172.7120  136.5560 C   0  0  0  0  0  2  0  0  0  0  0  0
  184.1720  174.2630  135.3700 C   0  0  0  0  0  1  0  0  0  0  0  0
  180.7630  176.9030  138.0440 C   0  0  2  0  0  3  0  0  0  0  0  0
  180.5370  175.6770  135.9110 N   0  0  0  0  0  2  0  0  0  0  0  0
  181.3930  177.8350  135.7710 C   0  0  2  0  0  3  0  0  0  0  0  0
  182.7870  177.5640  139.4320 C   0  0  0  0  0  2  0  0  0  0  0  0
  184.2060  176.0140  137.6860 O   0  0  0  0  0  0  0  0  0  0  0  0
  180.4450  176.8830  135.1920 N   0  0  0  0  0  2  0  0  0  0  0  0
  180.9380  178.1810  137.1940 C   0  0  2  0  0  3  0  0  0  0  0  0
  180.7230  172.0800  137.4740 C   0  0  0  0  0  2  0  0  0  0  0  0
  183.0830  178.6870  138.4470 C   0  0  2  0  0  3  0  0  0  0  0  0
  178.9310  173.8290  137.2770 C   0  0  0  0  0  2  0  0  0  0  0  0
  182.5910  174.3950  137.2350 N   0  0  0  0  0  2  0  0  0  0  0  0
  181.8730  171.4660  136.6810 C   0  0  0  0  0  2  0  0  0  0  0  0
  179.8410  174.6630  137.9420 O   0  0  0  0  0  0  0  0  0  0  0  0
  181.6670  175.4710  139.9050 C   0  0  0  0  0  1  0  0  0  0  0  0
  183.0200  175.6150  137.8540 C   0  0  0  0  0  0  0  0  0  0  0  0
  182.0650  176.3860  138.7580 C   0  0  1  0  0  0  0  0  0  0  0  0
  183.9490  179.7530  139.0930 C   0  0  0  0  0  1  0  0  0  0  0  0
  183.4240  173.4920  136.4450 C   0  0  1  0  0  3  0  0  0  0  0  0
  182.5450  172.4650  135.7380 C   0  0  0  0  0  2  0  0  0  0  0  0
  181.7890  179.2650  137.8670 C   0  0  2  0  0  3  0  0  0  0  0  0
  180.7260  181.3290  138.6310 C   0  0  0  0  0  2  0  0  0  0  0  0
  180.4620  179.4400  139.9970 O   0  0  0  0  0  1  0  0  0  0  0  0
  180.9730  180.0470  138.8560 C   0  0  0  0  0  0  0  0  0  0  0  0
  181.4770  179.0740  134.8840 C   0  0  0  0  0  2  0  0  0  0  0  0
  180.2050  179.6160  134.6660 O   0  0  0  0  0  0  0  0  0  0  0  0
  180.3160  180.8840  135.0060 O   0  0  0  0  0  0  0  0  0  0  0  0
  179.0270  181.2670  135.3800 C   0  0  0  0  0  1  0  0  0  0  0  0
  1  5  1  6  0  0  0
  1 16  1  0  0  0  0
  1  4  1  0  0  0  0
  2 13  1  0  0  0  0
  2 11  1  0  0  0  0
  3 21  1  0  0  0  0
  4 19  1  0  0  0  0
  6 10  1  0  0  0  0
  8 18  2  0  0  0  0
  9  6  1  0  0  0  0
  9  5  1  0  0  0  0
 10 23  1  0  0  0  0
 10  4  1  0  0  0  0
 12 20  1  0  0  0  0
 12  7  1  0  0  0  0
 13 16  1  0  0  0  0
 14 18  1  0  0  0  0
 15 11  1  0  0  0  0
 18 19  1  0  0  0  0
 19  7  1  0  0  0  0
 19 17  1  0  0  0  0
 21 14  1  0  0  0  0
 22 21  1  0  0  0  0
 22 15  1  0  0  0  0
 23 12  1  0  0  0  0
 23 26  1  0  0  0  0
 24 26  2  0  0  0  0
 26 25  1  0  0  0  0
 27  6  1  0  0  0  0
 28 27  1  0  0  0  0
 28 29  1  0  0  0  0
 29 30  1  0  0  0  0
M  END
>  <MODEL>
8

>  <REMARK>
 VINA RESULT:      -4.0      3.162      5.971
  Name = 
  4 active torsions:
  status: ('A' for Active; 'I' for Inactive)
    1  A    between atoms: C_6  and  C_8
    2  A    between atoms: C_6  and  O_21
    3  A    between atoms: O_9  and  O_21
    4  A    between atoms: C_27  and  C_30
                            x       y       z     vdW  Elec       q    Type
                         _______ _______ _______ _____ _____    ______ ____

>  <TORSDO>
F 4

$$$$
=
 OpenBabel11052412373D

 30 32  0  0  1  0  0  0  0  0999 V2000
  184.4000  177.8710  137.7090 C   0  0  1  0  0  3  0  0  0  0  0  0
  187.3200  176.4660  137.5450 C   0  0  0  0  0  2  0  0  0  0  0  0
  183.8590  173.0050  137.4200 C   0  0  0  0  0  1  0  0  0  0  0  0
  183.0440  177.9910  136.9700 C   0  0  2  0  0  3  0  0  0  0  0  0
  184.3680  176.7190  138.6210 N   0  0  0  0  0  2  0  0  0  0  0  0
  182.0830  176.8640  139.0280 C   0  0  2  0  0  3  0  0  0  0  0  0
  181.3840  177.2700  135.1850 C   0  0  0  0  0  2  0  0  0  0  0  0
  182.1600  174.7270  135.8150 O   0  0  0  0  0  0  0  0  0  0  0  0
  183.4140  176.9700  139.6250 N   0  0  0  0  0  2  0  0  0  0  0  0
  181.9050  178.0000  138.0130 C   0  0  2  0  0  3  0  0  0  0  0  0
  187.2980  175.7850  136.1800 C   0  0  0  0  0  2  0  0  0  0  0  0
  180.3310  177.0580  136.2650 C   0  0  2  0  0  3  0  0  0  0  0  0
  186.6650  177.8440  137.4730 C   0  0  0  0  0  2  0  0  0  0  0  0
  184.3880  175.1460  136.3550 N   0  0  0  0  0  2  0  0  0  0  0  0
  187.3250  174.2650  136.3100 C   0  0  0  0  0  2  0  0  0  0  0  0
  185.4490  177.7580  136.7810 O   0  0  0  0  0  0  0  0  0  0  0  0
  183.7180  177.5090  134.5940 C   0  0  0  0  0  1  0  0  0  0  0  0
  183.0740  175.5810  135.9810 C   0  0  0  0  0  0  0  0  0  0  0  0
  182.8070  177.0600  135.7250 C   0  0  1  0  0  0  0  0  0  0  0  0
  178.9350  177.0960  135.6680 C   0  0  0  0  0  1  0  0  0  0  0  0
  184.8210  173.7600  136.5170 C   0  0  1  0  0  3  0  0  0  0  0  0
  186.1930  173.7230  137.1830 C   0  0  0  0  0  2  0  0  0  0  0  0
  180.5000  178.0690  137.4030 C   0  0  2  0  0  3  0  0  0  0  0  0
  179.1790  180.1070  137.6700 C   0  0  0  0  0  2  0  0  0  0  0  0
  180.8410  180.1390  136.0150 O   0  0  0  0  0  1  0  0  0  0  0  0
  180.1500  179.4790  137.0250 C   0  0  0  0  0  0  0  0  0  0  0  0
  181.0250  176.9130  140.1280 C   0  0  0  0  0  2  0  0  0  0  0  0
  181.3920  177.8200  141.1290 O   0  0  0  0  0  0  0  0  0  0  0  0
  180.4920  178.7800  141.0610 O   0  0  0  0  0  0  0  0  0  0  0  0
  180.1950  179.0850  142.3900 C   0  0  0  0  0  1  0  0  0  0  0  0
  1 16  1  6  0  0  0
  1  5  1  0  0  0  0
  4  1  1  0  0  0  0
  4 10  1  0  0  0  0
  5  9  1  0  0  0  0
  6  9  1  0  0  0  0
  6 27  1  0  0  0  0
  7 19  1  0  0  0  0
  7 12  1  0  0  0  0
  8 18  2  0  0  0  0
 10  6  1  0  0  0  0
 11 15  1  0  0  0  0
 11  2  1  0  0  0  0
 12 23  1  0  0  0  0
 13  2  1  0  0  0  0
 14 21  1  0  0  0  0
 15 22  1  0  0  0  0
 16 13  1  0  0  0  0
 17 19  1  0  0  0  0
 18 14  1  0  0  0  0
 19 18  1  0  0  0  0
 19  4  1  0  0  0  0
 20 12  1  0  0  0  0
 21 22  1  0  0  0  0
 21  3  1  0  0  0  0
 23 10  1  0  0  0  0
 25 26  1  0  0  0  0
 26 23  1  0  0  0  0
 26 24  2  0  0  0  0
 27 28  1  0  0  0  0
 29 28  1  0  0  0  0
 29 30  1  0  0  0  0
M  END
>  <MODEL>
9

>  <REMARK>
 VINA RESULT:      -3.5      2.956      5.326
  Name = 
  4 active torsions:
  status: ('A' for Active; 'I' for Inactive)
    1  A    between atoms: C_6  and  C_8
    2  A    between atoms: C_6  and  O_21
    3  A    between atoms: O_9  and  O_21
    4  A    between atoms: C_27  and  C_30
                            x       y       z     vdW  Elec       q    Type
                         _______ _______ _______ _____ _____    ______ ____

>  <TORSDO>
F 4

$$$$
