=
 OpenBabel11052414053D

 34 39  0  0  1  0  0  0  0  0999 V2000
  185.9220  178.3940  145.9010 C   0  0  0  0  0  0  0  0  0  0  0  0
  187.5480  177.2880  144.4730 C   0  0  0  0  0  0  0  0  0  0  0  0
  185.4530  178.3030  143.5130 C   0  0  0  0  0  0  0  0  0  0  0  0
  184.9440  178.8450  141.1120 C   0  0  1  0  0  3  0  0  0  0  0  0
  188.0370  177.6650  146.8200 C   0  0  0  0  0  3  0  0  0  0  0  0
  188.4040  177.1630  145.5720 C   0  0  0  0  0  3  0  0  0  0  0  0
  187.2500  178.6210  141.7050 C   0  0  0  0  0  2  0  0  0  0  0  0
  186.3310  178.0070  144.5970 C   0  0  0  0  0  0  0  0  0  0  0  0
  185.5980  178.3190  139.5150 S   0  0  0  0  0  0  0  0  0  0  0  0
  186.7880  178.2550  146.9880 C   0  0  0  0  0  3  0  0  0  0  0  0
  184.1100  178.6420  143.8020 C   0  0  0  0  0  0  0  0  0  0  0  0
  184.6720  178.8710  146.1160 N   0  0  0  0  0  0  0  0  0  0  0  0
  187.8860  176.6060  143.3130 O   0  0  0  0  0  1  0  0  0  0  0  0
  183.5560  178.3040  141.3820 C   0  0  0  0  0  2  0  0  0  0  0  0
  183.1380  178.7100  142.7250 N   0  0  0  0  0  0  0  0  0  0  0  0
  187.2880  178.5520  140.1780 C   0  0  2  0  0  3  0  0  0  0  0  0
  185.8790  178.3980  142.1300 N   0  0  0  0  0  0  0  0  0  0  0  0
  183.7630  178.9680  145.1170 C   0  0  0  0  0  3  0  0  0  0  0  0
  179.7400  180.2690  142.3430 C   0  0  0  0  0  0  0  0  0  0  0  0
  179.0460  179.6540  143.3870 C   0  0  0  0  0  3  0  0  0  0  0  0
  181.7450  179.0180  142.9260 C   0  0  0  0  0  0  0  0  0  0  0  0
  179.6960  178.7290  144.2070 C   0  0  0  0  0  3  0  0  0  0  0  0
  181.0830  179.9550  142.1170 C   0  0  0  0  0  3  0  0  0  0  0  0
  181.0390  178.4160  143.9810 C   0  0  0  0  0  3  0  0  0  0  0  0
  178.9310  181.4350  141.3200 Cl  0  0  0  0  0  0  0  0  0  0  0  0
  188.1980  177.5100  139.7060 N   0  0  0  0  0  2  0  0  0  0  0  0
  189.4620  178.0790  139.4740 N   0  0  0  0  0  2  0  0  0  0  0  0
  192.1050  177.1060  139.5480 C   0  0  0  0  0  1  0  0  0  0  0  0
  189.9560  177.5360  138.2160 C   0  0  1  0  0  3  0  0  0  0  0  0
  191.1790  176.6240  138.4440 C   0  0  2  0  0  3  0  0  0  0  0  0
  190.4120  174.7660  137.4220 C   0  0  0  0  0  2  0  0  0  0  0  0
  189.3440  175.5980  136.6820 C   0  0  0  0  0  2  0  0  0  0  0  0
  188.8220  176.7510  137.5410 C   0  0  0  0  0  2  0  0  0  0  0  0
  190.7620  175.3060  138.6800 O   0  0  0  0  0  0  0  0  0  0  0  0
  1 12  1  0  0  0  0
  1 10  2  0  0  0  0
  2  8  2  0  0  0  0
  2  6  1  0  0  0  0
  3 11  2  0  0  0  0
  3  8  1  0  0  0  0
  4 14  1  1  0  0  0
  4 17  1  0  0  0  0
  5 10  1  0  0  0  0
  6  5  2  0  0  0  0
  7 17  1  0  0  0  0
  8  1  1  0  0  0  0
  9 16  1  0  0  0  0
  9  4  1  0  0  0  0
 11 18  1  0  0  0  0
 13  2  1  0  0  0  0
 14 15  1  0  0  0  0
 15 21  1  0  0  0  0
 15 11  1  0  0  0  0
 16 26  1  1  0  0  0
 16  7  1  0  0  0  0
 17  3  1  0  0  0  0
 18 12  2  0  0  0  0
 19 20  1  0  0  0  0
 20 22  2  0  0  0  0
 21 24  2  0  0  0  0
 23 19  2  0  0  0  0
 23 21  1  0  0  0  0
 24 22  1  0  0  0  0
 25 19  1  0  0  0  0
 27 26  1  0  0  0  0
 29 30  1  0  0  0  0
 29 27  1  1  0  0  0
 30 34  1  0  0  0  0
 30 28  1  1  0  0  0
 31 34  1  0  0  0  0
 32 31  1  0  0  0  0
 32 33  1  0  0  0  0
 33 29  1  0  0  0  0
M  END
>  <MODEL>
1

>  <REMARK>
 VINA RESULT:      -9.8      0.000      0.000
  Name = 
  4 active torsions:
  status: ('A' for Active; 'I' for Inactive)
    1  A    between atoms: N_3  and  C_13
    2  A    between atoms: N_3  and  N_17
    3  A    between atoms: C_12  and  N_28
    4  A    between atoms: N_17  and  C_29
                            x       y       z     vdW  Elec       q    Type
                         _______ _______ _______ _____ _____    ______ ____

>  <TORSDO>
F 4

$$$$
=
 OpenBabel11052414053D

 34 39  0  0  1  0  0  0  0  0999 V2000
  189.6500  177.1770  146.3540 C   0  0  0  0  0  0  0  0  0  0  0  0
  191.1680  176.1430  144.7620 C   0  0  0  0  0  0  0  0  0  0  0  0
  189.0910  177.3390  143.9900 C   0  0  0  0  0  0  0  0  0  0  0  0
  188.5220  178.1340  141.6740 C   0  0  1  0  0  3  0  0  0  0  0  0
  191.7590  176.2680  147.1130 C   0  0  0  0  0  3  0  0  0  0  0  0
  192.0560  175.8740  145.8090 C   0  0  0  0  0  3  0  0  0  0  0  0
  190.8350  177.7510  142.1490 C   0  0  0  0  0  2  0  0  0  0  0  0
  189.9930  176.9000  145.0040 C   0  0  0  0  0  0  0  0  0  0  0  0
  189.0910  177.7370  140.0090 S   0  0  0  0  0  0  0  0  0  0  0  0
  190.5460  176.8940  147.3880 C   0  0  0  0  0  3  0  0  0  0  0  0
  187.7770  177.7070  144.3640 C   0  0  0  0  0  0  0  0  0  0  0  0
  188.4320  177.6840  146.6650 N   0  0  0  0  0  0  0  0  0  0  0  0
  191.4310  175.5630  143.5300 O   0  0  0  0  0  1  0  0  0  0  0  0
  187.1200  177.6310  141.9470 C   0  0  0  0  0  2  0  0  0  0  0  0
  186.7710  177.9230  143.3390 N   0  0  0  0  0  0  0  0  0  0  0  0
  190.8140  177.8300  140.6230 C   0  0  2  0  0  3  0  0  0  0  0  0
  189.4700  177.5490  142.6060 N   0  0  0  0  0  0  0  0  0  0  0  0
  187.4940  177.9190  145.7170 C   0  0  0  0  0  3  0  0  0  0  0  0
  183.1260  178.7170  142.8890 C   0  0  0  0  0  0  0  0  0  0  0  0
  182.7560  179.0230  144.1990 C   0  0  0  0  0  3  0  0  0  0  0  0
  185.4020  178.2710  143.6260 C   0  0  0  0  0  0  0  0  0  0  0  0
  183.7040  178.9640  145.2240 C   0  0  0  0  0  3  0  0  0  0  0  0
  184.4430  178.3470  142.6030 C   0  0  0  0  0  3  0  0  0  0  0  0
  185.0200  178.5940  144.9370 C   0  0  0  0  0  3  0  0  0  0  0  0
  181.9430  178.8000  141.6020 Cl  0  0  0  0  0  0  0  0  0  0  0  0
  191.6550  176.7990  140.0160 N   0  0  0  0  0  2  0  0  0  0  0  0
  190.8860  176.0700  139.0920 N   0  0  0  0  0  2  0  0  0  0  0  0
  189.6880  174.4390  137.1320 C   0  0  0  0  0  1  0  0  0  0  0  0
  191.8160  175.4010  138.1910 C   0  0  1  0  0  3  0  0  0  0  0  0
  191.1070  174.9330  136.9040 C   0  0  2  0  0  3  0  0  0  0  0  0
  192.4380  175.9490  135.3940 C   0  0  0  0  0  2  0  0  0  0  0  0
  193.5410  176.1190  136.4600 C   0  0  0  0  0  2  0  0  0  0  0  0
  192.9560  176.3720  137.8510 C   0  0  0  0  0  2  0  0  0  0  0  0
  191.1340  175.9510  135.9390 O   0  0  0  0  0  0  0  0  0  0  0  0
  1 12  1  0  0  0  0
  1 10  2  0  0  0  0
  2  8  2  0  0  0  0
  2  6  1  0  0  0  0
  3 11  2  0  0  0  0
  3  8  1  0  0  0  0
  4 14  1  1  0  0  0
  4 17  1  0  0  0  0
  5 10  1  0  0  0  0
  6  5  2  0  0  0  0
  7 17  1  0  0  0  0
  8  1  1  0  0  0  0
  9 16  1  0  0  0  0
  9  4  1  0  0  0  0
 11 18  1  0  0  0  0
 13  2  1  0  0  0  0
 14 15  1  0  0  0  0
 15 21  1  0  0  0  0
 15 11  1  0  0  0  0
 16 26  1  6  0  0  0
 16  7  1  0  0  0  0
 17  3  1  0  0  0  0
 18 12  2  0  0  0  0
 19 20  1  0  0  0  0
 20 22  2  0  0  0  0
 21 24  2  0  0  0  0
 23 19  2  0  0  0  0
 23 21  1  0  0  0  0
 24 22  1  0  0  0  0
 25 19  1  0  0  0  0
 27 26  1  0  0  0  0
 29 27  1  1  0  0  0
 30 28  1  1  0  0  0
 30 29  1  0  0  0  0
 31 34  1  0  0  0  0
 31 32  1  0  0  0  0
 32 33  1  0  0  0  0
 33 29  1  0  0  0  0
 34 30  1  0  0  0  0
M  END
>  <MODEL>
2

>  <REMARK>
 VINA RESULT:      -9.8      2.401      3.727
  Name = 
  4 active torsions:
  status: ('A' for Active; 'I' for Inactive)
    1  A    between atoms: N_3  and  C_13
    2  A    between atoms: N_3  and  N_17
    3  A    between atoms: C_12  and  N_28
    4  A    between atoms: N_17  and  C_29
                            x       y       z     vdW  Elec       q    Type
                         _______ _______ _______ _____ _____    ______ ____

>  <TORSDO>
F 4

$$$$
=
 OpenBabel11052414053D

 34 39  0  0  1  0  0  0  0  0999 V2000
  185.6130  178.5240  145.8990 C   0  0  0  0  0  0  0  0  0  0  0  0
  187.5080  177.4110  144.8610 C   0  0  0  0  0  0  0  0  0  0  0  0
  185.6140  178.3210  143.4730 C   0  0  0  0  0  0  0  0  0  0  0  0
  185.5640  178.7480  140.9960 C   0  0  1  0  0  3  0  0  0  0  0  0
  187.5290  177.8980  147.2380 C   0  0  0  0  0  3  0  0  0  0  0  0
  188.1390  177.3570  146.1080 C   0  0  0  0  0  3  0  0  0  0  0  0
  187.7180  178.6200  142.0290 C   0  0  0  0  0  2  0  0  0  0  0  0
  186.2740  178.0970  144.7170 C   0  0  0  0  0  0  0  0  0  0  0  0
  186.5250  178.1780  139.5790 S   0  0  0  0  0  0  0  0  0  0  0  0
  186.2570  178.4560  147.1370 C   0  0  0  0  0  3  0  0  0  0  0  0
  184.2330  178.6300  143.4830 C   0  0  0  0  0  0  0  0  0  0  0  0
  184.3350  178.9700  145.8500 N   0  0  0  0  0  0  0  0  0  0  0  0
  188.0780  176.6930  143.8200 O   0  0  0  0  0  1  0  0  0  0  0  0
  184.1630  178.1770  141.0200 C   0  0  0  0  0  2  0  0  0  0  0  0
  183.4860  178.6250  142.2390 N   0  0  0  0  0  0  0  0  0  0  0  0
  188.0500  178.4900  140.5420 C   0  0  2  0  0  3  0  0  0  0  0  0
  186.2960  178.3730  142.1930 N   0  0  0  0  0  0  0  0  0  0  0  0
  183.6330  178.9980  144.6920 C   0  0  0  0  0  3  0  0  0  0  0  0
  179.9040  179.2030  143.2160 C   0  0  0  0  0  0  0  0  0  0  0  0
  179.3070  179.3560  141.9630 C   0  0  0  0  0  3  0  0  0  0  0  0
  182.0730  178.8970  142.1560 C   0  0  0  0  0  0  0  0  0  0  0  0
  180.0840  179.2730  140.8050 C   0  0  0  0  0  3  0  0  0  0  0  0
  181.2780  178.9700  143.3120 C   0  0  0  0  0  3  0  0  0  0  0  0
  181.4590  179.0400  140.9020 C   0  0  0  0  0  3  0  0  0  0  0  0
  178.9310  179.2980  144.6670 Cl  0  0  0  0  0  0  0  0  0  0  0  0
  189.0570  177.4580  140.3010 N   0  0  0  0  0  2  0  0  0  0  0  0
  189.4910  177.5490  138.9670 N   0  0  0  0  0  2  0  0  0  0  0  0
  188.3350  175.8860  137.0090 C   0  0  0  0  0  1  0  0  0  0  0  0
  190.2350  176.3320  138.6720 C   0  0  1  0  0  3  0  0  0  0  0  0
  189.8170  175.7370  137.3120 C   0  0  2  0  0  3  0  0  0  0  0  0
  191.8500  175.6400  136.3430 C   0  0  0  0  0  2  0  0  0  0  0  0
  192.5290  175.7610  137.7240 C   0  0  0  0  0  2  0  0  0  0  0  0
  191.7360  176.6600  138.6730 C   0  0  0  0  0  2  0  0  0  0  0  0
  190.5960  176.2870  136.2830 O   0  0  0  0  0  0  0  0  0  0  0  0
  1 10  2  0  0  0  0
  2  6  1  0  0  0  0
  3 11  2  0  0  0  0
  3  8  1  0  0  0  0
  4 14  1  1  0  0  0
  4 17  1  0  0  0  0
  6  5  2  0  0  0  0
  7 17  1  0  0  0  0
  8  2  2  0  0  0  0
  8  1  1  0  0  0  0
  9 16  1  0  0  0  0
  9  4  1  0  0  0  0
 10  5  1  0  0  0  0
 11 18  1  0  0  0  0
 12  1  1  0  0  0  0
 13  2  1  0  0  0  0
 14 15  1  0  0  0  0
 15 11  1  0  0  0  0
 16 26  1  1  0  0  0
 16  7  1  0  0  0  0
 17  3  1  0  0  0  0
 18 12  2  0  0  0  0
 19 23  1  0  0  0  0
 19 25  1  0  0  0  0
 20 19  2  0  0  0  0
 21 15  1  0  0  0  0
 21 23  2  0  0  0  0
 22 24  2  0  0  0  0
 22 20  1  0  0  0  0
 24 21  1  0  0  0  0
 27 26  1  0  0  0  0
 29 33  1  0  0  0  0
 29 27  1  6  0  0  0
 30 28  1  6  0  0  0
 30 29  1  0  0  0  0
 31 32  1  0  0  0  0
 32 33  1  0  0  0  0
 34 31  1  0  0  0  0
 34 30  1  0  0  0  0
M  END
>  <MODEL>
3

>  <REMARK>
 VINA RESULT:      -9.4      1.202      1.816
  Name = 
  4 active torsions:
  status: ('A' for Active; 'I' for Inactive)
    1  A    between atoms: N_3  and  C_13
    2  A    between atoms: N_3  and  N_17
    3  A    between atoms: C_12  and  N_28
    4  A    between atoms: N_17  and  C_29
                            x       y       z     vdW  Elec       q    Type
                         _______ _______ _______ _____ _____    ______ ____

>  <TORSDO>
F 4

$$$$
=
 OpenBabel11052414053D

 34 39  0  0  1  0  0  0  0  0999 V2000
  183.5760  178.8340  143.7050 C   0  0  0  0  0  0  0  0  0  0  0  0
  185.8120  177.9210  143.9810 C   0  0  0  0  0  0  0  0  0  0  0  0
  184.8710  178.3860  141.6920 C   0  0  0  0  0  0  0  0  0  0  0  0
  186.1010  178.5460  139.5050 C   0  0  1  0  0  3  0  0  0  0  0  0
  184.5400  178.6460  145.9160 C   0  0  0  0  0  3  0  0  0  0  0  0
  185.6930  178.0920  145.3640 C   0  0  0  0  0  3  0  0  0  0  0  0
  187.3890  178.8520  141.4970 C   0  0  0  0  0  2  0  0  0  0  0  0
  184.7910  178.3930  143.1160 C   0  0  0  0  0  0  0  0  0  0  0  0
  187.7040  177.9860  138.8950 S   0  0  0  0  0  0  0  0  0  0  0  0
  183.4740  178.9910  145.0890 C   0  0  0  0  0  3  0  0  0  0  0  0
  183.6730  178.4800  140.9450 C   0  0  0  0  0  0  0  0  0  0  0  0
  182.4860  179.0720  142.9370 N   0  0  0  0  0  0  0  0  0  0  0  0
  186.8980  177.1960  143.5130 O   0  0  0  0  0  1  0  0  0  0  0  0
  184.9450  177.7720  138.9060 C   0  0  0  0  0  2  0  0  0  0  0  0
  183.6960  178.2340  139.5140 N   0  0  0  0  0  0  0  0  0  0  0  0
  188.4640  178.6240  140.4340 C   0  0  2  0  0  3  0  0  0  0  0  0
  186.1180  178.4100  140.9510 N   0  0  0  0  0  0  0  0  0  0  0  0
  182.5000  178.8750  141.5970 C   0  0  0  0  0  3  0  0  0  0  0  0
  180.9720  179.5040  137.2590 C   0  0  0  0  0  0  0  0  0  0  0  0
  180.1900  178.3570  137.1130 C   0  0  0  0  0  3  0  0  0  0  0  0
  182.5230  178.2780  138.6780 C   0  0  0  0  0  0  0  0  0  0  0  0
  180.5640  177.1720  137.7510 C   0  0  0  0  0  3  0  0  0  0  0  0
  182.1290  179.4660  138.0410 C   0  0  0  0  0  3  0  0  0  0  0  0
  181.7210  177.1350  138.5330 C   0  0  0  0  0  3  0  0  0  0  0  0
  180.5000  180.9920  136.4680 Cl  0  0  0  0  0  0  0  0  0  0  0  0
  189.5220  177.7380  140.9150 N   0  0  0  0  0  2  0  0  0  0  0  0
  189.5970  177.8360  142.3160 N   0  0  0  0  0  2  0  0  0  0  0  0
  191.1610  179.5430  143.9210 C   0  0  0  0  0  1  0  0  0  0  0  0
  190.8880  177.2950  142.7180 C   0  0  1  0  0  3  0  0  0  0  0  0
  191.4570  178.0520  143.9350 C   0  0  2  0  0  3  0  0  0  0  0  0
  191.7760  176.2950  145.3100 C   0  0  0  0  0  2  0  0  0  0  0  0
  191.7050  175.3260  144.1110 C   0  0  0  0  0  2  0  0  0  0  0  0
  190.7160  175.8050  143.0480 C   0  0  0  0  0  2  0  0  0  0  0  0
  191.0040  177.4640  145.1260 O   0  0  0  0  0  0  0  0  0  0  0  0
  1 10  2  0  0  0  0
  2  6  1  0  0  0  0
  3  8  1  0  0  0  0
  4 14  1  6  0  0  0
  4 17  1  0  0  0  0
  6  5  2  0  0  0  0
  8  1  1  0  0  0  0
  8  2  2  0  0  0  0
  9  4  1  0  0  0  0
  9 16  1  0  0  0  0
 10  5  1  0  0  0  0
 11 18  1  0  0  0  0
 11  3  2  0  0  0  0
 12  1  1  0  0  0  0
 13  2  1  0  0  0  0
 14 15  1  0  0  0  0
 15 11  1  0  0  0  0
 16 26  1  1  0  0  0
 16  7  1  0  0  0  0
 17  7  1  0  0  0  0
 17  3  1  0  0  0  0
 18 12  2  0  0  0  0
 19 23  1  0  0  0  0
 20 19  2  0  0  0  0
 20 22  1  0  0  0  0
 21 15  1  0  0  0  0
 22 24  2  0  0  0  0
 23 21  2  0  0  0  0
 24 21  1  0  0  0  0
 25 19  1  0  0  0  0
 26 27  1  0  0  0  0
 29 27  1  1  0  0  0
 29 33  1  0  0  0  0
 29 30  1  0  0  0  0
 30 28  1  6  0  0  0
 30 34  1  0  0  0  0
 32 31  1  0  0  0  0
 33 32  1  0  0  0  0
 34 31  1  0  0  0  0
M  END
>  <MODEL>
4

>  <REMARK>
 VINA RESULT:      -9.1      2.861      4.336
  Name = 
  4 active torsions:
  status: ('A' for Active; 'I' for Inactive)
    1  A    between atoms: N_3  and  C_13
    2  A    between atoms: N_3  and  N_17
    3  A    between atoms: C_12  and  N_28
    4  A    between atoms: N_17  and  C_29
                            x       y       z     vdW  Elec       q    Type
                         _______ _______ _______ _____ _____    ______ ____

>  <TORSDO>
F 4

$$$$
=
 OpenBabel11052414053D

 34 39  0  0  1  0  0  0  0  0999 V2000
  187.8410  177.7710  138.6950 C   0  0  0  0  0  0  0  0  0  0  0  0
  188.8620  178.2430  140.8500 C   0  0  0  0  0  0  0  0  0  0  0  0
  186.3630  178.3280  140.5480 C   0  0  0  0  0  0  0  0  0  0  0  0
  184.5800  178.3350  142.3200 C   0  0  1  0  0  3  0  0  0  0  0  0
  190.2150  177.4260  139.0080 C   0  0  0  0  0  3  0  0  0  0  0  0
  190.1020  177.8660  140.3260 C   0  0  0  0  0  3  0  0  0  0  0  0
  186.7290  177.4920  142.9490 C   0  0  0  0  0  2  0  0  0  0  0  0
  187.6860  178.0970  140.0690 C   0  0  0  0  0  0  0  0  0  0  0  0
  184.5290  178.7150  144.0830 S   0  0  0  0  0  0  0  0  0  0  0  0
  189.0900  177.4040  138.1880 C   0  0  0  0  0  3  0  0  0  0  0  0
  185.3310  178.5580  139.6080 C   0  0  0  0  0  0  0  0  0  0  0  0
  186.7870  177.8470  137.8460 N   0  0  0  0  0  0  0  0  0  0  0  0
  188.8470  178.8470  142.0980 O   0  0  0  0  0  1  0  0  0  0  0  0
  183.8770  179.3770  141.4770 C   0  0  0  0  0  2  0  0  0  0  0  0
  184.0370  179.0320  140.0620 N   0  0  0  0  0  0  0  0  0  0  0  0
  186.0460  177.7140  144.2990 C   0  0  2  0  0  3  0  0  0  0  0  0
  185.9780  178.2220  141.9430 N   0  0  0  0  0  0  0  0  0  0  0  0
  185.5650  178.2600  138.2620 C   0  0  0  0  0  3  0  0  0  0  0  0
  181.5210  180.9140  138.0010 C   0  0  0  0  0  0  0  0  0  0  0  0
  180.7430  179.8650  137.5060 C   0  0  0  0  0  3  0  0  0  0  0  0
  182.9370  179.3220  139.1770 C   0  0  0  0  0  0  0  0  0  0  0  0
  181.0510  178.5460  137.8490 C   0  0  0  0  0  3  0  0  0  0  0  0
  182.6090  180.6440  138.8350 C   0  0  0  0  0  3  0  0  0  0  0  0
  182.1400  178.2770  138.6830 C   0  0  0  0  0  3  0  0  0  0  0  0
  181.1310  182.5670  137.5800 Cl  0  0  0  0  0  0  0  0  0  0  0  0
  186.9550  178.3210  145.2710 N   0  0  0  0  0  2  0  0  0  0  0  0
  187.7430  177.3110  145.8500 N   0  0  0  0  0  2  0  0  0  0  0  0
  188.6310  177.8900  148.4600 C   0  0  0  0  0  1  0  0  0  0  0  0
  189.1030  177.8250  145.9400 C   0  0  1  0  0  3  0  0  0  0  0  0
  189.6650  177.6690  147.3690 C   0  0  2  0  0  3  0  0  0  0  0  0
  191.5410  176.5210  146.8730 C   0  0  0  0  0  2  0  0  0  0  0  0
  191.4370  176.9610  145.3980 C   0  0  0  0  0  2  0  0  0  0  0  0
  189.9830  177.0670  144.9350 C   0  0  0  0  0  2  0  0  0  0  0  0
  190.2840  176.4190  147.5120 O   0  0  0  0  0  0  0  0  0  0  0  0
  1  8  1  0  0  0  0
  2 13  1  0  0  0  0
  3 17  1  0  0  0  0
  4 14  1  6  0  0  0
  4  9  1  0  0  0  0
  5  6  2  0  0  0  0
  6  2  1  0  0  0  0
  7 16  1  0  0  0  0
  8  3  1  0  0  0  0
  8  2  2  0  0  0  0
  9 16  1  0  0  0  0
 10  1  2  0  0  0  0
 10  5  1  0  0  0  0
 11 15  1  0  0  0  0
 11  3  2  0  0  0  0
 12 18  2  0  0  0  0
 12  1  1  0  0  0  0
 15 14  1  0  0  0  0
 16 26  1  1  0  0  0
 17  4  1  0  0  0  0
 17  7  1  0  0  0  0
 18 11  1  0  0  0  0
 19 23  1  0  0  0  0
 20 22  1  0  0  0  0
 20 19  2  0  0  0  0
 21 15  1  0  0  0  0
 22 24  2  0  0  0  0
 23 21  2  0  0  0  0
 24 21  1  0  0  0  0
 25 19  1  0  0  0  0
 26 27  1  0  0  0  0
 29 27  1  1  0  0  0
 29 30  1  0  0  0  0
 30 34  1  0  0  0  0
 30 28  1  1  0  0  0
 31 34  1  0  0  0  0
 32 31  1  0  0  0  0
 33 32  1  0  0  0  0
 33 29  1  0  0  0  0
M  END
>  <MODEL>
5

>  <REMARK>
 VINA RESULT:      -9.0      2.779      6.174
  Name = 
  4 active torsions:
  status: ('A' for Active; 'I' for Inactive)
    1  A    between atoms: N_3  and  C_13
    2  A    between atoms: N_3  and  N_17
    3  A    between atoms: C_12  and  N_28
    4  A    between atoms: N_17  and  C_29
                            x       y       z     vdW  Elec       q    Type
                         _______ _______ _______ _____ _____    ______ ____

>  <TORSDO>
F 4

$$$$
=
 OpenBabel11052414053D

 34 39  0  0  1  0  0  0  0  0999 V2000
  185.9020  177.9060  142.9450 C   0  0  0  0  0  0  0  0  0  0  0  0
  186.5050  178.6280  140.7030 C   0  0  0  0  0  0  0  0  0  0  0  0
  188.2180  177.6170  142.2490 C   0  0  0  0  0  0  0  0  0  0  0  0
  190.4890  176.7070  141.6750 C   0  0  1  0  0  3  0  0  0  0  0  0
  184.1820  178.6280  141.4040 C   0  0  0  0  0  3  0  0  0  0  0  0
  185.1550  178.8780  140.4390 C   0  0  0  0  0  3  0  0  0  0  0  0
  188.9020  176.8620  139.8920 C   0  0  0  0  0  2  0  0  0  0  0  0
  186.8900  178.0320  141.9320 C   0  0  0  0  0  0  0  0  0  0  0  0
  191.6330  176.9000  140.2930 S   0  0  0  0  0  0  0  0  0  0  0  0
  184.5590  178.1680  142.6640 C   0  0  0  0  0  3  0  0  0  0  0  0
  188.5640  177.4330  143.6090 C   0  0  0  0  0  0  0  0  0  0  0  0
  186.2520  177.5670  144.2100 N   0  0  0  0  0  0  0  0  0  0  0  0
  187.4360  179.0720  139.7770 O   0  0  0  0  0  1  0  0  0  0  0  0
  190.9780  177.3870  142.9370 C   0  0  0  0  0  2  0  0  0  0  0  0
  189.9560  177.2500  143.9770 N   0  0  0  0  0  0  0  0  0  0  0  0
  190.2240  176.6620  139.1490 C   0  0  2  0  0  3  0  0  0  0  0  0
  189.2100  177.2540  141.2560 N   0  0  0  0  0  0  0  0  0  0  0  0
  187.5440  177.3650  144.5630 C   0  0  0  0  0  3  0  0  0  0  0  0
  190.1750  177.5270  147.7180 C   0  0  0  0  0  0  0  0  0  0  0  0
  191.3460  176.8100  147.9710 C   0  0  0  0  0  3  0  0  0  0  0  0
  190.4070  177.0850  145.3360 C   0  0  0  0  0  0  0  0  0  0  0  0
  192.0560  176.2370  146.9120 C   0  0  0  0  0  3  0  0  0  0  0  0
  189.7100  177.6670  146.4080 C   0  0  0  0  0  3  0  0  0  0  0  0
  191.5900  176.3780  145.6020 C   0  0  0  0  0  3  0  0  0  0  0  0
  189.2910  178.2530  149.0420 Cl  0  0  0  0  0  0  0  0  0  0  0  0
  190.3270  177.5380  137.9830 N   0  0  0  0  0  2  0  0  0  0  0  0
  190.3640  176.7470  136.8210 N   0  0  0  0  0  2  0  0  0  0  0  0
  188.6410  174.6330  136.1170 C   0  0  0  0  0  1  0  0  0  0  0  0
  189.2210  177.1280  136.0030 C   0  0  1  0  0  3  0  0  0  0  0  0
  188.1130  176.0570  136.0580 C   0  0  2  0  0  3  0  0  0  0  0  0
  186.4030  177.3700  136.7170 C   0  0  0  0  0  2  0  0  0  0  0  0
  187.1810  178.6280  136.2760 C   0  0  0  0  0  2  0  0  0  0  0  0
  188.6850  178.4770  136.5050 C   0  0  0  0  0  2  0  0  0  0  0  0
  187.2450  176.3130  137.1300 O   0  0  0  0  0  0  0  0  0  0  0  0
  1 12  1  0  0  0  0
  2  8  1  0  0  0  0
  3 11  2  0  0  0  0
  4 14  1  1  0  0  0
  5 10  2  0  0  0  0
  6  2  2  0  0  0  0
  6  5  1  0  0  0  0
  7 17  1  0  0  0  0
  8  3  1  0  0  0  0
  8  1  2  0  0  0  0
  9  4  1  0  0  0  0
 10  1  1  0  0  0  0
 11 15  1  0  0  0  0
 11 18  1  0  0  0  0
 12 18  2  0  0  0  0
 13  2  1  0  0  0  0
 14 15  1  0  0  0  0
 15 21  1  0  0  0  0
 16 26  1  6  0  0  0
 16  7  1  0  0  0  0
 16  9  1  0  0  0  0
 17  4  1  0  0  0  0
 17  3  1  0  0  0  0
 19 20  1  0  0  0  0
 19 25  1  0  0  0  0
 21 24  2  0  0  0  0
 21 23  1  0  0  0  0
 22 20  2  0  0  0  0
 23 19  2  0  0  0  0
 24 22  1  0  0  0  0
 27 26  1  0  0  0  0
 29 30  1  0  0  0  0
 29 33  1  0  0  0  0
 29 27  1  1  0  0  0
 30 28  1  1  0  0  0
 30 34  1  0  0  0  0
 31 34  1  0  0  0  0
 32 33  1  0  0  0  0
 32 31  1  0  0  0  0
M  END
>  <MODEL>
6

>  <REMARK>
 VINA RESULT:      -9.0      3.626      6.710
  Name = 
  4 active torsions:
  status: ('A' for Active; 'I' for Inactive)
    1  A    between atoms: N_3  and  C_13
    2  A    between atoms: N_3  and  N_17
    3  A    between atoms: C_12  and  N_28
    4  A    between atoms: N_17  and  C_29
                            x       y       z     vdW  Elec       q    Type
                         _______ _______ _______ _____ _____    ______ ____

>  <TORSDO>
F 4

$$$$
=
 OpenBabel11052414053D

 34 39  0  0  1  0  0  0  0  0999 V2000
  184.8560  179.0020  142.0910 C   0  0  0  0  0  0  0  0  0  0  0  0
  186.2210  177.8960  143.7710 C   0  0  0  0  0  0  0  0  0  0  0  0
  187.0220  178.1330  141.3950 C   0  0  0  0  0  0  0  0  0  0  0  0
  189.3530  177.8420  140.5020 C   0  0  1  0  0  3  0  0  0  0  0  0
  184.1700  179.0250  144.4110 C   0  0  0  0  0  3  0  0  0  0  0  0
  185.2940  178.2730  144.7480 C   0  0  0  0  0  3  0  0  0  0  0  0
  189.1380  178.2830  142.8430 C   0  0  0  0  0  2  0  0  0  0  0  0
  186.0700  178.3500  142.4360 C   0  0  0  0  0  0  0  0  0  0  0  0
  190.8540  177.0270  141.0830 S   0  0  0  0  0  0  0  0  0  0  0  0
  183.9390  179.3650  143.0800 C   0  0  0  0  0  3  0  0  0  0  0  0
  186.5960  178.2520  140.0510 C   0  0  0  0  0  0  0  0  0  0  0  0
  184.5520  179.2490  140.7940 N   0  0  0  0  0  0  0  0  0  0  0  0
  187.2100  176.9950  144.1360 O   0  0  0  0  0  1  0  0  0  0  0  0
  188.7150  177.1250  139.3320 C   0  0  0  0  0  2  0  0  0  0  0  0
  187.4670  177.8040  138.9790 N   0  0  0  0  0  0  0  0  0  0  0  0
  190.5800  177.7880  142.7260 C   0  0  2  0  0  3  0  0  0  0  0  0
  188.4370  177.9120  141.6270 N   0  0  0  0  0  0  0  0  0  0  0  0
  185.3670  178.8630  139.7840 C   0  0  0  0  0  3  0  0  0  0  0  0
  185.7120  177.1490  135.7220 C   0  0  0  0  0  0  0  0  0  0  0  0
  186.4730  177.9270  134.8470 C   0  0  0  0  0  3  0  0  0  0  0  0
  187.1070  177.8590  137.5850 C   0  0  0  0  0  0  0  0  0  0  0  0
  187.5550  178.6650  135.3320 C   0  0  0  0  0  3  0  0  0  0  0  0
  186.0300  177.1120  137.0820 C   0  0  0  0  0  3  0  0  0  0  0  0
  187.8730  178.6280  136.6930 C   0  0  0  0  0  3  0  0  0  0  0  0
  184.3620  176.2160  135.1150 Cl  0  0  0  0  0  0  0  0  0  0  0  0
  190.9250  176.8670  143.8080 N   0  0  0  0  0  2  0  0  0  0  0  0
  191.0480  177.5950  145.0040 N   0  0  0  0  0  2  0  0  0  0  0  0
  192.0560  176.0030  147.0980 C   0  0  0  0  0  1  0  0  0  0  0  0
  190.0450  177.0800  145.9260 C   0  0  1  0  0  3  0  0  0  0  0  0
  190.6850  176.6400  147.2590 C   0  0  2  0  0  3  0  0  0  0  0  0
  189.4310  177.8780  148.6640 C   0  0  0  0  0  2  0  0  0  0  0  0
  188.3660  178.0740  147.5640 C   0  0  0  0  0  2  0  0  0  0  0  0
  188.9950  178.1740  146.1730 C   0  0  0  0  0  2  0  0  0  0  0  0
  190.7370  177.7210  148.1510 O   0  0  0  0  0  0  0  0  0  0  0  0
  1  8  1  0  0  0  0
  1 10  2  0  0  0  0
  2 13  1  0  0  0  0
  2  6  1  0  0  0  0
  3 17  1  0  0  0  0
  3  8  1  0  0  0  0
  4 14  1  6  0  0  0
  4  9  1  0  0  0  0
  4 17  1  0  0  0  0
  5  6  2  0  0  0  0
  8  2  2  0  0  0  0
  9 16  1  0  0  0  0
 10  5  1  0  0  0  0
 11  3  2  0  0  0  0
 12  1  1  0  0  0  0
 15 14  1  0  0  0  0
 15 11  1  0  0  0  0
 16  7  1  0  0  0  0
 16 26  1  1  0  0  0
 17  7  1  0  0  0  0
 18 11  1  0  0  0  0
 18 12  2  0  0  0  0
 19 23  1  0  0  0  0
 20 22  1  0  0  0  0
 20 19  2  0  0  0  0
 21 15  1  0  0  0  0
 22 24  2  0  0  0  0
 23 21  2  0  0  0  0
 24 21  1  0  0  0  0
 25 19  1  0  0  0  0
 26 27  1  0  0  0  0
 29 27  1  6  0  0  0
 29 33  1  0  0  0  0
 29 30  1  0  0  0  0
 30 28  1  6  0  0  0
 30 34  1  0  0  0  0
 32 31  1  0  0  0  0
 33 32  1  0  0  0  0
 34 31  1  0  0  0  0
M  END
>  <MODEL>
7

>  <REMARK>
 VINA RESULT:      -8.9      3.283      7.029
  Name = 
  4 active torsions:
  status: ('A' for Active; 'I' for Inactive)
    1  A    between atoms: N_3  and  C_13
    2  A    between atoms: N_3  and  N_17
    3  A    between atoms: C_12  and  N_28
    4  A    between atoms: N_17  and  C_29
                            x       y       z     vdW  Elec       q    Type
                         _______ _______ _______ _____ _____    ______ ____

>  <TORSDO>
F 4

$$$$
=
 OpenBabel11052414053D

 34 39  0  0  1  0  0  0  0  0999 V2000
  191.2530  177.3540  140.9160 C   0  0  0  0  0  0  0  0  0  0  0  0
  189.5860  176.9140  139.2030 C   0  0  0  0  0  0  0  0  0  0  0  0
  188.9100  177.5980  141.5300 C   0  0  0  0  0  0  0  0  0  0  0  0
  186.6770  178.4410  142.3180 C   0  0  1  0  0  3  0  0  0  0  0  0
  191.9440  176.9550  138.6320 C   0  0  0  0  0  3  0  0  0  0  0  0
  190.6120  176.7830  138.2610 C   0  0  0  0  0  3  0  0  0  0  0  0
  187.1400  178.6280  139.9790 C   0  0  0  0  0  2  0  0  0  0  0  0
  189.8860  177.3110  140.5310 C   0  0  0  0  0  0  0  0  0  0  0  0
  184.9880  178.3730  141.6880 S   0  0  0  0  0  0  0  0  0  0  0  0
  192.2640  177.2140  139.9620 C   0  0  0  0  0  3  0  0  0  0  0  0
  189.3020  177.5730  142.8900 C   0  0  0  0  0  0  0  0  0  0  0  0
  191.5980  177.4950  142.2190 N   0  0  0  0  0  0  0  0  0  0  0  0
  188.3060  176.5460  138.8150 O   0  0  0  0  0  1  0  0  0  0  0  0
  186.8810  177.5670  143.5370 C   0  0  0  0  0  2  0  0  0  0  0  0
  188.2910  177.6200  143.9300 N   0  0  0  0  0  0  0  0  0  0  0  0
  185.6290  178.8490  140.0410 C   0  0  2  0  0  3  0  0  0  0  0  0
  187.5580  178.0350  141.2370 N   0  0  0  0  0  0  0  0  0  0  0  0
  190.6650  177.5690  143.1990 C   0  0  0  0  0  3  0  0  0  0  0  0
  190.1140  177.0520  147.1670 C   0  0  0  0  0  0  0  0  0  0  0  0
  189.1320  177.4110  148.0930 C   0  0  0  0  0  3  0  0  0  0  0  0
  188.5930  177.5700  145.3390 C   0  0  0  0  0  0  0  0  0  0  0  0
  187.8790  177.8400  147.6490 C   0  0  0  0  0  3  0  0  0  0  0  0
  189.8450  177.1270  145.7980 C   0  0  0  0  0  3  0  0  0  0  0  0
  187.6100  177.9150  146.2800 C   0  0  0  0  0  3  0  0  0  0  0  0
  191.6810  176.5050  147.7200 Cl  0  0  0  0  0  0  0  0  0  0  0  0
  184.9340  178.1380  138.9690 N   0  0  0  0  0  2  0  0  0  0  0  0
  185.6650  178.2830  137.7770 N   0  0  0  0  0  2  0  0  0  0  0  0
  187.2750  177.6310  135.5590 C   0  0  0  0  0  1  0  0  0  0  0  0
  185.0240  177.4440  136.7730 C   0  0  1  0  0  3  0  0  0  0  0  0
  186.0680  176.7600  135.8680 C   0  0  2  0  0  3  0  0  0  0  0  0
  185.4220  174.6200  136.1600 C   0  0  0  0  0  2  0  0  0  0  0  0
  184.0510  175.0920  136.6890 C   0  0  0  0  0  2  0  0  0  0  0  0
  184.1640  176.3910  137.4880 C   0  0  0  0  0  2  0  0  0  0  0  0
  186.4640  175.5350  136.4260 O   0  0  0  0  0  0  0  0  0  0  0  0
  1 12  1  0  0  0  0
  2  8  1  0  0  0  0
  3 11  2  0  0  0  0
  4 14  1  1  0  0  0
  5 10  2  0  0  0  0
  6  5  1  0  0  0  0
  6  2  2  0  0  0  0
  7 16  1  0  0  0  0
  7 17  1  0  0  0  0
  8  1  2  0  0  0  0
  8  3  1  0  0  0  0
  9  4  1  0  0  0  0
 10  1  1  0  0  0  0
 11 18  1  0  0  0  0
 11 15  1  0  0  0  0
 12 18  2  0  0  0  0
 13  2  1  0  0  0  0
 14 15  1  0  0  0  0
 15 21  1  0  0  0  0
 16 26  1  6  0  0  0
 16  9  1  0  0  0  0
 17  3  1  0  0  0  0
 17  4  1  0  0  0  0
 19 25  1  0  0  0  0
 19 20  1  0  0  0  0
 21 23  1  0  0  0  0
 21 24  2  0  0  0  0
 22 20  2  0  0  0  0
 23 19  2  0  0  0  0
 24 22  1  0  0  0  0
 27 26  1  0  0  0  0
 29 33  1  0  0  0  0
 29 27  1  1  0  0  0
 30 28  1  1  0  0  0
 30 34  1  0  0  0  0
 30 29  1  0  0  0  0
 31 34  1  0  0  0  0
 31 32  1  0  0  0  0
 32 33  1  0  0  0  0
M  END
>  <MODEL>
8

>  <REMARK>
 VINA RESULT:      -8.7      4.212      6.847
  Name = 
  4 active torsions:
  status: ('A' for Active; 'I' for Inactive)
    1  A    between atoms: N_3  and  C_13
    2  A    between atoms: N_3  and  N_17
    3  A    between atoms: C_12  and  N_28
    4  A    between atoms: N_17  and  C_29
                            x       y       z     vdW  Elec       q    Type
                         _______ _______ _______ _____ _____    ______ ____

>  <TORSDO>
F 4

$$$$
=
 OpenBabel11052414053D

 34 39  0  0  1  0  0  0  0  0999 V2000
  191.0370  177.0880  139.9860 C   0  0  0  0  0  0  0  0  0  0  0  0
  189.0240  176.8160  138.6500 C   0  0  0  0  0  0  0  0  0  0  0  0
  188.8930  177.4340  141.0880 C   0  0  0  0  0  0  0  0  0  0  0  0
  186.9310  178.3640  142.3550 C   0  0  1  0  0  3  0  0  0  0  0  0
  191.2100  176.7530  137.5960 C   0  0  0  0  0  3  0  0  0  0  0  0
  189.8210  176.6700  137.5100 C   0  0  0  0  0  3  0  0  0  0  0  0
  186.9080  178.6280  139.9780 C   0  0  0  0  0  2  0  0  0  0  0  0
  189.6200  177.1370  139.8970 C   0  0  0  0  0  0  0  0  0  0  0  0
  185.1470  178.4170  142.0930 S   0  0  0  0  0  0  0  0  0  0  0  0
  191.8160  176.9340  138.8370 C   0  0  0  0  0  3  0  0  0  0  0  0
  189.5570  177.3260  142.3320 C   0  0  0  0  0  0  0  0  0  0  0  0
  191.6530  177.1510  141.1910 N   0  0  0  0  0  0  0  0  0  0  0  0
  187.6710  176.5380  138.5290 O   0  0  0  0  0  1  0  0  0  0  0  0
  187.3300  177.4260  143.4750 C   0  0  0  0  0  2  0  0  0  0  0  0
  188.7910  177.3840  143.5640 N   0  0  0  0  0  0  0  0  0  0  0  0
  185.4600  178.9290  140.3630 C   0  0  2  0  0  3  0  0  0  0  0  0
  187.5400  177.9570  141.1000 N   0  0  0  0  0  0  0  0  0  0  0  0
  190.9530  177.2340  142.3470 C   0  0  0  0  0  3  0  0  0  0  0  0
  189.2370  177.4780  147.2940 C   0  0  0  0  0  0  0  0  0  0  0  0
  190.5650  177.0640  147.4150 C   0  0  0  0  0  3  0  0  0  0  0  0
  189.3760  177.2540  144.8750 C   0  0  0  0  0  0  0  0  0  0  0  0
  191.3050  176.7530  146.2710 C   0  0  0  0  0  3  0  0  0  0  0  0
  188.6470  177.5770  146.0310 C   0  0  0  0  0  3  0  0  0  0  0  0
  190.7150  176.8520  145.0090 C   0  0  0  0  0  3  0  0  0  0  0  0
  188.3110  177.8780  148.7240 Cl  0  0  0  0  0  0  0  0  0  0  0  0
  184.5130  178.3050  139.4400 N   0  0  0  0  0  2  0  0  0  0  0  0
  183.4740  177.7170  140.1820 N   0  0  0  0  0  2  0  0  0  0  0  0
  181.2670  178.8680  141.5010 C   0  0  0  0  0  1  0  0  0  0  0  0
  182.2610  177.8200  139.3820 C   0  0  1  0  0  3  0  0  0  0  0  0
  181.2830  178.8510  139.9810 C   0  0  2  0  0  3  0  0  0  0  0  0
  181.0130  180.1580  138.1640 C   0  0  0  0  0  2  0  0  0  0  0  0
  181.5550  179.0340  137.2570 C   0  0  0  0  0  2  0  0  0  0  0  0
  182.6490  178.2190  137.9510 C   0  0  0  0  0  2  0  0  0  0  0  0
  181.5540  180.1290  139.4690 O   0  0  0  0  0  0  0  0  0  0  0  0
  1 12  1  0  0  0  0
  2  8  1  0  0  0  0
  3 17  1  0  0  0  0
  3 11  2  0  0  0  0
  4 14  1  1  0  0  0
  5 10  2  0  0  0  0
  6  5  1  0  0  0  0
  6  2  2  0  0  0  0
  7 16  1  0  0  0  0
  7 17  1  0  0  0  0
  8  1  2  0  0  0  0
  8  3  1  0  0  0  0
  9  4  1  0  0  0  0
 10  1  1  0  0  0  0
 11 18  1  0  0  0  0
 11 15  1  0  0  0  0
 12 18  2  0  0  0  0
 13  2  1  0  0  0  0
 14 15  1  0  0  0  0
 15 21  1  0  0  0  0
 16 26  1  6  0  0  0
 16  9  1  0  0  0  0
 17  4  1  0  0  0  0
 19 20  1  0  0  0  0
 19 25  1  0  0  0  0
 21 24  2  0  0  0  0
 21 23  1  0  0  0  0
 22 20  2  0  0  0  0
 23 19  2  0  0  0  0
 24 22  1  0  0  0  0
 26 27  1  0  0  0  0
 29 30  1  0  0  0  0
 29 27  1  1  0  0  0
 30 28  1  1  0  0  0
 31 34  1  0  0  0  0
 32 33  1  0  0  0  0
 32 31  1  0  0  0  0
 33 29  1  0  0  0  0
 34 30  1  0  0  0  0
M  END
>  <MODEL>
9

>  <REMARK>
 VINA RESULT:      -8.6      3.432      8.003
  Name = 
  4 active torsions:
  status: ('A' for Active; 'I' for Inactive)
    1  A    between atoms: N_3  and  C_13
    2  A    between atoms: N_3  and  N_17
    3  A    between atoms: C_12  and  N_28
    4  A    between atoms: N_17  and  C_29
                            x       y       z     vdW  Elec       q    Type
                         _______ _______ _______ _____ _____    ______ ____

>  <TORSDO>
F 4

$$$$
