=
 OpenBabel11052416573D

 32 36  0  0  1  0  0  0  0  0999 V2000
  181.1840  180.1170  140.6410 C   0  0  0  0  0  2  0  0  0  0  0  0
  185.6090  178.2630  142.0880 C   0  0  0  0  0  0  0  0  0  0  0  0
  184.9660  178.5540  146.9640 C   0  0  0  0  0  3  0  0  0  0  0  0
  186.2900  178.4460  147.0850 C   0  0  0  0  0  3  0  0  0  0  0  0
  183.7500  178.5710  140.5420 C   0  0  0  0  0  0  0  0  0  0  0  0
  183.3610  178.5760  142.9410 C   0  0  0  0  0  3  0  0  0  0  0  0
  181.4060  178.8800  141.4760 C   0  0  0  0  0  2  0  0  0  0  0  0
  184.2530  178.3880  145.6490 C   0  0  0  0  0  3  0  0  0  0  0  0
  184.7270  178.3770  143.1930 C   0  0  0  0  0  0  0  0  0  0  0  0
  185.1880  178.3070  144.4600 C   0  0  0  0  0  0  0  0  0  0  0  0
  187.4710  177.9230  143.5240 N   0  0  0  0  0  0  0  0  0  0  0  0
  181.8790  178.5540  136.9860 S   0  0  0  0  0  0  0  0  0  0  0  0
  182.0790  178.9760  138.5590 C   0  0  0  0  0  0  0  0  0  0  0  0
  182.8660  178.6690  141.6380 C   0  0  0  0  0  0  0  0  0  0  0  0
  183.3320  178.6220  139.1690 N   0  0  0  0  0  2  0  0  0  0  0  0
  181.0610  179.7420  139.2450 N   0  0  0  0  0  0  0  0  0  0  0  0
  187.1470  178.1910  145.9170 C   0  0  0  0  0  3  0  0  0  0  0  0
  186.6370  178.1080  144.6830 C   0  0  1  0  0  3  0  0  0  0  0  0
  185.1090  178.3600  140.7880 C   0  0  0  0  0  3  0  0  0  0  0  0
  186.8840  178.0530  142.2510 N   0  0  0  0  0  0  0  0  0  0  0  0
  191.1420  178.5060  143.8770 C   0  0  0  0  0  0  0  0  0  0  0  0
  191.6480  177.2130  143.7280 C   0  0  0  0  0  3  0  0  0  0  0  0
  189.3960  176.3630  143.4370 C   0  0  0  0  0  0  0  0  0  0  0  0
  191.2780  174.8930  143.3450 F   0  0  0  0  0  0  0  0  0  0  0  0
  190.7770  176.1430  143.5060 C   0  0  0  0  0  0  0  0  0  0  0  0
  189.7650  178.7300  143.8120 C   0  0  0  0  0  3  0  0  0  0  0  0
  191.9890  179.5440  144.0840 F   0  0  0  0  0  0  0  0  0  0  0  0
  188.5680  175.3230  143.1670 F   0  0  0  0  0  0  0  0  0  0  0  0
  188.8810  177.6630  143.6080 C   0  0  0  0  0  0  0  0  0  0  0  0
  179.8110  180.1140  138.5900 C   0  0  0  0  0  2  0  0  0  0  0  0
  179.6430  181.6260  138.5600 C   0  0  0  0  0  2  0  0  0  0  0  0
  180.6210  182.2160  137.6630 N   0  0  0  0  0  1  0  0  0  0  0  0
  1  7  1  0  0  0  0
  2 20  2  0  0  0  0
  2  9  1  0  0  0  0
  3  4  1  0  0  0  0
  5 19  2  0  0  0  0
  5 14  1  0  0  0  0
  6  9  1  0  0  0  0
  7 14  1  0  0  0  0
  8  3  2  0  0  0  0
  9 10  2  0  0  0  0
 10 18  1  0  0  0  0
 10  8  1  0  0  0  0
 11 29  1  0  0  0  0
 11 18  1  0  0  0  0
 12 13  2  0  0  0  0
 13 15  1  0  0  0  0
 13 16  1  0  0  0  0
 14  6  2  0  0  0  0
 15  5  1  0  0  0  0
 16  1  1  0  0  0  0
 17  4  2  0  0  0  0
 18 17  1  6  0  0  0
 19  2  1  0  0  0  0
 20 11  1  0  0  0  0
 21 27  1  0  0  0  0
 22 21  2  0  0  0  0
 23 25  2  0  0  0  0
 23 29  1  0  0  0  0
 24 25  1  0  0  0  0
 25 22  1  0  0  0  0
 26 21  1  0  0  0  0
 28 23  1  0  0  0  0
 29 26  2  0  0  0  0
 30 16  1  0  0  0  0
 31 30  1  0  0  0  0
 32 31  1  0  0  0  0
M  END
>  <MODEL>
1

>  <REMARK>
 VINA RESULT:      -9.3      0.000      0.000
  Name = 
  3 active torsions:
  status: ('A' for Active; 'I' for Inactive)
    1  A    between atoms: C_1  and  C_10
    2  A    between atoms: C_10  and  N_24
    3  A    between atoms: N_16  and  C_32
                            x       y       z     vdW  Elec       q    Type
                         _______ _______ _______ _____ _____    ______ ____

>  <TORSDO>
F 3

$$$$
=
 OpenBabel11052416573D

 32 36  0  0  0  0  0  0  0  0999 V2000
  182.1650  177.9940  140.2710 C   0  0  0  0  0  2  0  0  0  0  0  0
  186.0030  178.1950  143.4880 C   0  0  0  0  0  0  0  0  0  0  0  0
  189.6890  177.6580  140.2620 C   0  0  0  0  0  3  0  0  0  0  0  0
  190.4650  177.3270  141.2960 C   0  0  0  0  0  3  0  0  0  0  0  0
  183.7250  178.6440  142.7470 C   0  0  0  0  0  0  0  0  0  0  0  0
  185.5380  178.5340  141.1320 C   0  0  0  0  0  3  0  0  0  0  0  0
  183.2800  179.0100  140.2710 C   0  0  0  0  0  2  0  0  0  0  0  0
  188.2830  178.1680  140.4320 C   0  0  0  0  0  2  0  0  0  0  0  0
  186.4660  178.2620  142.1480 C   0  0  0  0  0  0  0  0  0  0  0  0
  187.7680  178.0600  141.8520 C   0  0  0  0  0  0  0  0  0  0  0  0
  188.1990  177.7850  144.2960 N   0  0  0  0  0  0  0  0  0  0  0  0
  179.8420  179.5960  143.1560 S   0  0  0  0  0  0  0  0  0  0  0  0
  181.1490  178.9830  142.3750 C   0  0  0  0  0  0  0  0  0  0  0  0
  184.1830  178.7280  141.4140 C   0  0  0  0  0  0  0  0  0  0  0  0
  182.3600  178.8600  143.1400 N   0  0  0  0  0  2  0  0  0  0  0  0
  181.0320  178.5200  141.0090 N   0  0  0  0  0  0  0  0  0  0  0  0
  189.9730  177.4060  142.6790 C   0  0  0  0  0  3  0  0  0  0  0  0
  188.7130  177.7650  142.9510 C   0  0  0  0  0  0  0  0  0  0  0  0
  184.6480  178.3870  143.7630 C   0  0  0  0  0  3  0  0  0  0  0  0
  186.8160  177.9710  144.4800 N   0  0  0  0  0  0  0  0  0  0  0  0
  191.1020  176.7560  146.4070 C   0  0  0  0  0  0  0  0  0  0  0  0
  190.6520  177.0910  147.6860 C   0  0  0  0  0  3  0  0  0  0  0  0
  188.5650  177.8910  146.7460 C   0  0  0  0  0  0  0  0  0  0  0  0
  188.9490  177.9630  149.1030 F   0  0  0  0  0  0  0  0  0  0  0  0
  189.3850  177.6560  147.8560 C   0  0  0  0  0  0  0  0  0  0  0  0
  190.2890  176.9900  145.2960 C   0  0  0  0  0  3  0  0  0  0  0  0
  192.3270  176.2000  146.2450 F   0  0  0  0  0  0  0  0  0  0  0  0
  187.3170  178.3890  146.9320 F   0  0  0  0  0  0  0  0  0  0  0  0
  189.0240  177.5730  145.4520 C   0  0  0  0  0  0  0  0  0  0  0  0
  179.7800  178.6300  140.2670 C   0  0  0  0  0  2  0  0  0  0  0  0
  179.2640  177.2550  139.8670 C   0  0  0  0  0  2  0  0  0  0  0  0
  178.9310  176.4860  141.0530 N   0  0  0  0  0  1  0  0  0  0  0  0
  1 16  1  0  0  0  0
  2 19  1  0  0  0  0
  2 20  2  0  0  0  0
  3  8  1  0  0  0  0
  3  4  2  0  0  0  0
  4 17  1  0  0  0  0
  5 15  1  0  0  0  0
  5 19  2  0  0  0  0
  6 14  2  0  0  0  0
  6  9  1  0  0  0  0
  7  1  1  0  0  0  0
  7 14  1  0  0  0  0
  8 10  1  0  0  0  0
  9  2  1  0  0  0  0
 10  9  2  0  0  0  0
 10 18  1  0  0  0  0
 11 20  1  0  0  0  0
 11 29  1  0  0  0  0
 13 15  1  0  0  0  0
 13 12  2  0  0  0  0
 14  5  1  0  0  0  0
 16 13  1  0  0  0  0
 17 18  2  0  0  0  0
 18 11  1  0  0  0  0
 21 22  1  0  0  0  0
 22 25  2  0  0  0  0
 23 28  1  0  0  0  0
 23 25  1  0  0  0  0
 25 24  1  0  0  0  0
 26 29  1  0  0  0  0
 26 21  2  0  0  0  0
 27 21  1  0  0  0  0
 29 23  2  0  0  0  0
 30 16  1  0  0  0  0
 31 30  1  0  0  0  0
 31 32  1  0  0  0  0
M  END
>  <MODEL>
2

>  <REMARK>
 VINA RESULT:      -9.3      2.851      4.202
  Name = 
  3 active torsions:
  status: ('A' for Active; 'I' for Inactive)
    1  A    between atoms: C_1  and  C_10
    2  A    between atoms: C_10  and  N_24
    3  A    between atoms: N_16  and  C_32
                            x       y       z     vdW  Elec       q    Type
                         _______ _______ _______ _____ _____    ______ ____

>  <TORSDO>
F 3

$$$$
=
 OpenBabel11052416573D

 32 36  0  0  0  0  0  0  0  0999 V2000
  191.9430  175.6080  138.1130 C   0  0  0  0  0  2  0  0  0  0  0  0
  188.6120  177.5360  141.3230 C   0  0  0  0  0  0  0  0  0  0  0  0
  191.2660  177.1440  145.4550 C   0  0  0  0  0  3  0  0  0  0  0  0
  190.1240  177.2800  146.1310 C   0  0  0  0  0  3  0  0  0  0  0  0
  189.6250  177.2130  139.1290 C   0  0  0  0  0  0  0  0  0  0  0  0
  190.9990  177.1570  141.1330 C   0  0  0  0  0  3  0  0  0  0  0  0
  192.1330  176.8350  138.9700 C   0  0  0  0  0  2  0  0  0  0  0  0
  191.3540  177.3170  143.9630 C   0  0  0  0  0  2  0  0  0  0  0  0
  189.8780  177.3820  141.9450 C   0  0  0  0  0  0  0  0  0  0  0  0
  190.0040  177.4400  143.2880 C   0  0  0  0  0  0  0  0  0  0  0  0
  187.5510  177.8920  143.4190 N   0  0  0  0  0  0  0  0  0  0  0  0
  189.7980  177.2500  135.1150 S   0  0  0  0  0  0  0  0  0  0  0  0
  190.2760  176.8050  136.6200 C   0  0  0  0  0  0  0  0  0  0  0  0
  190.8880  177.0750  139.7420 C   0  0  0  0  0  0  0  0  0  0  0  0
  189.4140  177.1760  137.7090 N   0  0  0  0  0  2  0  0  0  0  0  0
  191.4680  176.0050  136.8000 N   0  0  0  0  0  0  0  0  0  0  0  0
  188.8580  177.5750  145.4430 C   0  0  0  0  0  3  0  0  0  0  0  0
  188.7950  177.6670  144.1100 C   0  0  0  0  0  0  0  0  0  0  0  0
  188.5070  177.4500  139.9330 C   0  0  0  0  0  3  0  0  0  0  0  0
  187.5350  177.7710  142.0170 N   0  0  0  0  0  0  0  0  0  0  0  0
  185.1280  178.5570  146.1810 C   0  0  0  0  0  0  0  0  0  0  0  0
  183.9300  178.6970  145.4760 C   0  0  0  0  0  3  0  0  0  0  0  0
  185.1070  178.3020  143.3930 C   0  0  0  0  0  0  0  0  0  0  0  0
  182.7480  178.6870  143.4100 F   0  0  0  0  0  0  0  0  0  0  0  0
  183.9190  178.5680  144.0850 C   0  0  0  0  0  0  0  0  0  0  0  0
  186.3160  178.2960  145.4950 C   0  0  0  0  0  3  0  0  0  0  0  0
  185.1360  178.6750  147.5310 F   0  0  0  0  0  0  0  0  0  0  0  0
  185.0700  178.1260  142.0490 F   0  0  0  0  0  0  0  0  0  0  0  0
  186.3200  178.1820  144.0990 C   0  0  0  0  0  0  0  0  0  0  0  0
  192.3090  175.6160  135.6720 C   0  0  0  0  0  2  0  0  0  0  0  0
  193.7570  175.4440  136.1080 C   0  0  0  0  0  2  0  0  0  0  0  0
  194.4550  176.7150  136.0210 N   0  0  0  0  0  1  0  0  0  0  0  0
  1  7  1  0  0  0  0
  2  9  1  0  0  0  0
  2 20  2  0  0  0  0
  3  4  2  0  0  0  0
  5 14  1  0  0  0  0
  5 19  2  0  0  0  0
  6  9  1  0  0  0  0
  7 14  1  0  0  0  0
  8  3  1  0  0  0  0
  9 10  2  0  0  0  0
 10  8  1  0  0  0  0
 10 18  1  0  0  0  0
 11 29  1  0  0  0  0
 11 18  1  0  0  0  0
 12 13  2  0  0  0  0
 13 16  1  0  0  0  0
 13 15  1  0  0  0  0
 14  6  2  0  0  0  0
 15  5  1  0  0  0  0
 16  1  1  0  0  0  0
 17  4  1  0  0  0  0
 18 17  2  0  0  0  0
 19  2  1  0  0  0  0
 20 11  1  0  0  0  0
 21 27  1  0  0  0  0
 22 21  2  0  0  0  0
 23 25  2  0  0  0  0
 23 29  1  0  0  0  0
 24 25  1  0  0  0  0
 25 22  1  0  0  0  0
 26 21  1  0  0  0  0
 28 23  1  0  0  0  0
 29 26  2  0  0  0  0
 30 31  1  0  0  0  0
 30 16  1  0  0  0  0
 32 31  1  0  0  0  0
M  END
>  <MODEL>
3

>  <REMARK>
 VINA RESULT:      -9.0      4.571      7.867
  Name = 
  3 active torsions:
  status: ('A' for Active; 'I' for Inactive)
    1  A    between atoms: C_1  and  C_10
    2  A    between atoms: C_10  and  N_24
    3  A    between atoms: N_16  and  C_32
                            x       y       z     vdW  Elec       q    Type
                         _______ _______ _______ _____ _____    ______ ____

>  <TORSDO>
F 3

$$$$
=
 OpenBabel11052416573D

 32 36  0  0  1  0  0  0  0  0999 V2000
  186.9440  177.1640  145.6740 C   0  0  0  0  0  2  0  0  0  0  0  0
  184.3080  178.4620  141.6140 C   0  0  0  0  0  0  0  0  0  0  0  0
  179.8770  178.8910  143.7250 C   0  0  0  0  0  3  0  0  0  0  0  0
  179.3520  178.8030  142.5020 C   0  0  0  0  0  3  0  0  0  0  0  0
  186.3360  178.2600  142.9510 C   0  0  0  0  0  0  0  0  0  0  0  0
  184.1890  178.6180  144.0310 C   0  0  0  0  0  3  0  0  0  0  0  0
  186.1720  178.4460  145.4810 C   0  0  0  0  0  2  0  0  0  0  0  0
  181.3580  179.0020  143.9690 C   0  0  0  0  0  3  0  0  0  0  0  0
  183.5330  178.6280  142.7910 C   0  0  0  0  0  0  0  0  0  0  0  0
  182.1930  178.7830  142.7240 C   0  0  0  0  0  0  0  0  0  0  0  0
  182.3850  178.6800  140.2360 N   0  0  0  0  0  0  0  0  0  0  0  0
  190.2930  178.1250  143.6370 S   0  0  0  0  0  0  0  0  0  0  0  0
  188.7120  177.8780  143.9990 C   0  0  0  0  0  0  0  0  0  0  0  0
  185.5710  178.4410  144.1230 C   0  0  0  0  0  0  0  0  0  0  0  0
  187.7640  178.1030  142.9420 N   0  0  0  0  0  2  0  0  0  0  0  0
  188.3310  177.3760  145.3020 N   0  0  0  0  0  0  0  0  0  0  0  0
  180.2040  178.7700  141.3040 C   0  0  0  0  0  3  0  0  0  0  0  0
  181.5390  178.7760  141.3970 C   0  0  1  0  0  3  0  0  0  0  0  0
  185.6890  178.2820  141.7130 C   0  0  0  0  0  3  0  0  0  0  0  0
  183.7650  178.4850  140.4300 N   0  0  0  0  0  0  0  0  0  0  0  0
  181.1760  177.5360  136.8940 C   0  0  0  0  0  0  0  0  0  0  0  0
  180.9380  178.7520  136.2500 C   0  0  0  0  0  3  0  0  0  0  0  0
  181.6580  179.9460  138.2330 C   0  0  0  0  0  0  0  0  0  0  0  0
  180.9640  181.1320  136.2780 F   0  0  0  0  0  0  0  0  0  0  0  0
  181.1810  179.9560  136.9170 C   0  0  0  0  0  0  0  0  0  0  0  0
  181.6490  177.5220  138.2080 C   0  0  0  0  0  3  0  0  0  0  0  0
  180.9480  176.3690  136.2430 F   0  0  0  0  0  0  0  0  0  0  0  0
  181.9400  181.1230  138.8480 F   0  0  0  0  0  0  0  0  0  0  0  0
  181.8790  178.7220  138.8930 C   0  0  0  0  0  0  0  0  0  0  0  0
  189.3190  177.1270  146.3460 C   0  0  0  0  0  2  0  0  0  0  0  0
  188.6590  177.0780  147.7170 C   0  0  0  0  0  2  0  0  0  0  0  0
  189.0300  178.2530  148.4870 N   0  0  0  0  0  1  0  0  0  0  0  0
  2 19  1  0  0  0  0
  2  9  1  0  0  0  0
  3  8  2  0  0  0  0
  4  3  1  0  0  0  0
  5 14  1  0  0  0  0
  6 14  2  0  0  0  0
  7  1  1  0  0  0  0
  9  6  1  0  0  0  0
 10  9  2  0  0  0  0
 10  8  1  0  0  0  0
 11 20  1  0  0  0  0
 11 18  1  0  0  0  0
 12 13  2  0  0  0  0
 13 16  1  0  0  0  0
 14  7  1  0  0  0  0
 15  5  1  0  0  0  0
 15 13  1  0  0  0  0
 16  1  1  0  0  0  0
 16 30  1  0  0  0  0
 17  4  2  0  0  0  0
 18 17  1  1  0  0  0
 18 10  1  0  0  0  0
 19  5  2  0  0  0  0
 20  2  2  0  0  0  0
 21 26  1  0  0  0  0
 22 21  2  0  0  0  0
 22 25  1  0  0  0  0
 23 28  1  0  0  0  0
 23 29  1  0  0  0  0
 24 25  1  0  0  0  0
 25 23  2  0  0  0  0
 26 29  2  0  0  0  0
 27 21  1  0  0  0  0
 29 11  1  0  0  0  0
 30 31  1  0  0  0  0
 31 32  1  0  0  0  0
M  END
>  <MODEL>
4

>  <REMARK>
 VINA RESULT:      -8.8      4.245      8.878
  Name = 
  3 active torsions:
  status: ('A' for Active; 'I' for Inactive)
    1  A    between atoms: C_1  and  C_10
    2  A    between atoms: C_10  and  N_24
    3  A    between atoms: N_16  and  C_32
                            x       y       z     vdW  Elec       q    Type
                         _______ _______ _______ _____ _____    ______ ____

>  <TORSDO>
F 3

$$$$
=
 OpenBabel11052416573D

 32 36  0  0  1  0  0  0  0  0999 V2000
  187.0040  177.1480  145.6970 C   0  0  0  0  0  2  0  0  0  0  0  0
  184.3280  178.4720  141.6730 C   0  0  0  0  0  0  0  0  0  0  0  0
  179.9160  178.8760  143.8290 C   0  0  0  0  0  3  0  0  0  0  0  0
  179.3800  178.7970  142.6100 C   0  0  0  0  0  3  0  0  0  0  0  0
  186.3690  178.2640  142.9890 C   0  0  0  0  0  0  0  0  0  0  0  0
  184.2310  178.6100  144.0920 C   0  0  0  0  0  3  0  0  0  0  0  0
  186.2270  178.4290  145.5220 C   0  0  0  0  0  2  0  0  0  0  0  0
  181.3990  178.9880  144.0590 C   0  0  0  0  0  3  0  0  0  0  0  0
  183.5640  178.6280  142.8580 C   0  0  0  0  0  0  0  0  0  0  0  0
  182.2230  178.7810  142.8050 C   0  0  0  0  0  0  0  0  0  0  0  0
  182.3910  178.6980  140.3150 N   0  0  0  0  0  0  0  0  0  0  0  0
  190.3320  178.1320  143.6370 S   0  0  0  0  0  0  0  0  0  0  0  0
  188.7550  177.8780  144.0120 C   0  0  0  0  0  0  0  0  0  0  0  0
  185.6150  178.4340  144.1700 C   0  0  0  0  0  0  0  0  0  0  0  0
  187.7970  178.1100  142.9660 N   0  0  0  0  0  2  0  0  0  0  0  0
  188.3870  177.3650  145.3140 N   0  0  0  0  0  0  0  0  0  0  0  0
  180.2200  178.7750  141.4030 C   0  0  0  0  0  3  0  0  0  0  0  0
  181.5560  178.7830  141.4840 C   0  0  1  0  0  3  0  0  0  0  0  0
  185.7100  178.2950  141.7580 C   0  0  0  0  0  3  0  0  0  0  0  0
  183.7740  178.5050  140.4950 N   0  0  0  0  0  0  0  0  0  0  0  0
  181.1820  180.0700  137.0600 C   0  0  0  0  0  0  0  0  0  0  0  0
  180.8140  178.9050  136.3830 C   0  0  0  0  0  3  0  0  0  0  0  0
  181.4820  177.5780  138.2990 C   0  0  0  0  0  0  0  0  0  0  0  0
  180.5870  176.5360  136.3440 F   0  0  0  0  0  0  0  0  0  0  0  0
  180.9620  177.6610  137.0020 C   0  0  0  0  0  0  0  0  0  0  0  0
  181.7030  179.9930  138.3530 C   0  0  0  0  0  3  0  0  0  0  0  0
  181.0300  181.2770  136.4610 F   0  0  0  0  0  0  0  0  0  0  0  0
  181.5680  176.3680  138.9070 F   0  0  0  0  0  0  0  0  0  0  0  0
  181.8720  178.7500  138.9770 C   0  0  0  0  0  0  0  0  0  0  0  0
  189.3860  177.1100  146.3470 C   0  0  0  0  0  2  0  0  0  0  0  0
  188.7390  177.0490  147.7230 C   0  0  0  0  0  2  0  0  0  0  0  0
  189.0530  178.2530  148.4730 N   0  0  0  0  0  1  0  0  0  0  0  0
  2 19  1  0  0  0  0
  2  9  1  0  0  0  0
  3  8  2  0  0  0  0
  4  3  1  0  0  0  0
  5 14  1  0  0  0  0
  6 14  2  0  0  0  0
  7  1  1  0  0  0  0
  9  6  1  0  0  0  0
 10  9  2  0  0  0  0
 10  8  1  0  0  0  0
 11 20  1  0  0  0  0
 11 18  1  0  0  0  0
 12 13  2  0  0  0  0
 13 16  1  0  0  0  0
 14  7  1  0  0  0  0
 15  5  1  0  0  0  0
 15 13  1  0  0  0  0
 16  1  1  0  0  0  0
 16 30  1  0  0  0  0
 17  4  2  0  0  0  0
 18 17  1  1  0  0  0
 18 10  1  0  0  0  0
 19  5  2  0  0  0  0
 20  2  2  0  0  0  0
 21 26  1  0  0  0  0
 22 25  1  0  0  0  0
 22 21  2  0  0  0  0
 23 28  1  0  0  0  0
 23 29  1  0  0  0  0
 24 25  1  0  0  0  0
 25 23  2  0  0  0  0
 26 29  2  0  0  0  0
 27 21  1  0  0  0  0
 29 11  1  0  0  0  0
 30 31  1  0  0  0  0
 31 32  1  0  0  0  0
M  END
>  <MODEL>
5

>  <REMARK>
 VINA RESULT:      -8.7      4.085      8.722
  Name = 
  3 active torsions:
  status: ('A' for Active; 'I' for Inactive)
    1  A    between atoms: C_1  and  C_10
    2  A    between atoms: C_10  and  N_24
    3  A    between atoms: N_16  and  C_32
                            x       y       z     vdW  Elec       q    Type
                         _______ _______ _______ _____ _____    ______ ____

>  <TORSDO>
F 3

$$$$
=
 OpenBabel11052416573D

 32 36  0  0  1  0  0  0  0  0999 V2000
  188.8580  176.2180  143.5970 C   0  0  0  0  0  2  0  0  0  0  0  0
  185.4440  178.5470  140.7620 C   0  0  0  0  0  0  0  0  0  0  0  0
  181.7370  178.6360  144.0070 C   0  0  0  0  0  3  0  0  0  0  0  0
  180.9200  178.8630  142.9770 C   0  0  0  0  0  3  0  0  0  0  0  0
  187.7090  177.9530  141.4400 C   0  0  0  0  0  0  0  0  0  0  0  0
  185.9410  178.1290  143.0990 C   0  0  0  0  0  3  0  0  0  0  0  0
  188.1930  177.5370  143.9010 C   0  0  0  0  0  2  0  0  0  0  0  0
  183.2360  178.6280  143.8700 C   0  0  0  0  0  3  0  0  0  0  0  0
  185.0040  178.4590  142.1080 C   0  0  0  0  0  0  0  0  0  0  0  0
  183.7110  178.6780  142.4330 C   0  0  0  0  0  0  0  0  0  0  0  0
  183.2720  179.1640  140.0230 N   0  0  0  0  0  0  0  0  0  0  0  0
  191.6790  177.5030  141.0130 S   0  0  0  0  0  0  0  0  0  0  0  0
  190.2190  177.2390  141.7150 C   0  0  0  0  0  0  0  0  0  0  0  0
  187.2790  177.8800  142.7830 C   0  0  0  0  0  0  0  0  0  0  0  0
  189.0670  177.7470  141.0210 N   0  0  0  0  0  2  0  0  0  0  0  0
  190.1230  176.4570  142.9280 N   0  0  0  0  0  0  0  0  0  0  0  0
  181.4420  179.0830  141.6200 C   0  0  0  0  0  3  0  0  0  0  0  0
  182.7520  179.0140  141.3580 C   0  0  1  0  0  3  0  0  0  0  0  0
  186.7820  178.2950  140.4520 C   0  0  0  0  0  3  0  0  0  0  0  0
  184.6310  178.8740  139.7990 N   0  0  0  0  0  0  0  0  0  0  0  0
  181.3220  181.2870  137.6490 C   0  0  0  0  0  0  0  0  0  0  0  0
  180.8240  180.3310  136.7620 C   0  0  0  0  0  3  0  0  0  0  0  0
  181.9350  178.5800  138.0180 C   0  0  0  0  0  0  0  0  0  0  0  0
  180.6260  178.0550  136.0890 F   0  0  0  0  0  0  0  0  0  0  0  0
  181.1280  178.9790  136.9460 C   0  0  0  0  0  0  0  0  0  0  0  0
  182.1300  180.8940  138.7190 C   0  0  0  0  0  3  0  0  0  0  0  0
  181.0190  182.5960  137.4740 F   0  0  0  0  0  0  0  0  0  0  0  0
  182.1760  177.2600  138.2160 F   0  0  0  0  0  0  0  0  0  0  0  0
  182.4560  179.5440  138.9040 C   0  0  0  0  0  0  0  0  0  0  0  0
  191.3090  175.9270  143.5950 C   0  0  0  0  0  2  0  0  0  0  0  0
  191.4550  176.5160  144.9900 C   0  0  0  0  0  2  0  0  0  0  0  0
  191.6820  177.9480  144.9030 N   0  0  0  0  0  1  0  0  0  0  0  0
  1  7  1  0  0  0  0
  2  9  1  0  0  0  0
  4  3  1  0  0  0  0
  5 14  1  0  0  0  0
  8  3  2  0  0  0  0
  9 10  2  0  0  0  0
  9  6  1  0  0  0  0
 10  8  1  0  0  0  0
 11 18  1  0  0  0  0
 12 13  2  0  0  0  0
 13 16  1  0  0  0  0
 14  6  2  0  0  0  0
 14  7  1  0  0  0  0
 15  5  1  0  0  0  0
 15 13  1  0  0  0  0
 16 30  1  0  0  0  0
 16  1  1  0  0  0  0
 17  4  2  0  0  0  0
 18 17  1  6  0  0  0
 18 10  1  0  0  0  0
 19  2  1  0  0  0  0
 19  5  2  0  0  0  0
 20 11  1  0  0  0  0
 20  2  2  0  0  0  0
 21 26  1  0  0  0  0
 22 25  1  0  0  0  0
 22 21  2  0  0  0  0
 23 28  1  0  0  0  0
 23 29  1  0  0  0  0
 24 25  1  0  0  0  0
 25 23  2  0  0  0  0
 26 29  2  0  0  0  0
 27 21  1  0  0  0  0
 29 11  1  0  0  0  0
 30 31  1  0  0  0  0
 32 31  1  0  0  0  0
M  END
>  <MODEL>
6

>  <REMARK>
 VINA RESULT:      -8.6      4.134      8.702
  Name = 
  3 active torsions:
  status: ('A' for Active; 'I' for Inactive)
    1  A    between atoms: C_1  and  C_10
    2  A    between atoms: C_10  and  N_24
    3  A    between atoms: N_16  and  C_32
                            x       y       z     vdW  Elec       q    Type
                         _______ _______ _______ _____ _____    ______ ____

>  <TORSDO>
F 3

$$$$
=
 OpenBabel11052416573D

 32 36  0  0  1  0  0  0  0  0999 V2000
  186.6040  177.5990  143.5490 C   0  0  0  0  0  2  0  0  0  0  0  0
  190.1650  176.7230  140.1340 C   0  0  0  0  0  0  0  0  0  0  0  0
  187.6990  178.1670  136.1190 C   0  0  0  0  0  3  0  0  0  0  0  0
  188.5920  177.4860  135.4000 C   0  0  0  0  0  3  0  0  0  0  0  0
  189.3320  177.2020  142.3740 C   0  0  0  0  0  0  0  0  0  0  0  0
  188.1620  178.0600  140.4240 C   0  0  0  0  0  3  0  0  0  0  0  0
  187.2390  178.6200  142.6370 C   0  0  0  0  0  2  0  0  0  0  0  0
  187.8400  178.3760  137.6030 C   0  0  0  0  0  3  0  0  0  0  0  0
  189.0910  177.4560  139.5640 C   0  0  0  0  0  0  0  0  0  0  0  0
  188.9580  177.5640  138.2250 C   0  0  0  0  0  0  0  0  0  0  0  0
  191.0610  176.2390  137.9870 N   0  0  0  0  0  0  0  0  0  0  0  0
  189.4690  177.4050  146.3850 S   0  0  0  0  0  0  0  0  0  0  0  0
  188.7270  177.3780  144.9210 C   0  0  0  0  0  0  0  0  0  0  0  0
  188.2720  177.9450  141.8120 C   0  0  0  0  0  0  0  0  0  0  0  0
  189.5470  177.0540  143.7870 N   0  0  0  0  0  2  0  0  0  0  0  0
  187.2990  177.5910  144.8230 N   0  0  0  0  0  0  0  0  0  0  0  0
  189.7640  176.8580  136.0280 C   0  0  0  0  0  3  0  0  0  0  0  0
  189.9520  176.9030  137.3520 C   0  0  1  0  0  3  0  0  0  0  0  0
  190.2670  176.6100  141.5210 C   0  0  0  0  0  3  0  0  0  0  0  0
  191.0750  176.1590  139.3920 N   0  0  0  0  0  0  0  0  0  0  0  0
  194.2550  175.7950  136.1060 C   0  0  0  0  0  0  0  0  0  0  0  0
  194.1980  174.4400  135.7700 C   0  0  0  0  0  3  0  0  0  0  0  0
  192.0580  174.2500  136.8930 C   0  0  0  0  0  0  0  0  0  0  0  0
  193.0430  172.3590  135.8150 F   0  0  0  0  0  0  0  0  0  0  0  0
  193.1000  173.6690  136.1610 C   0  0  0  0  0  0  0  0  0  0  0  0
  193.2190  176.3780  136.8390 C   0  0  0  0  0  3  0  0  0  0  0  0
  195.3170  176.5430  135.7180 F   0  0  0  0  0  0  0  0  0  0  0  0
  190.9740  173.5020  137.2180 F   0  0  0  0  0  0  0  0  0  0  0  0
  192.1230  175.6100  137.2520 C   0  0  0  0  0  0  0  0  0  0  0  0
  186.4850  177.8890  145.9980 C   0  0  0  0  0  2  0  0  0  0  0  0
  185.4910  179.0020  145.7010 C   0  0  0  0  0  2  0  0  0  0  0  0
  184.1810  178.6470  146.2180 N   0  0  0  0  0  1  0  0  0  0  0  0
  1 16  1  0  0  0  0
  2 19  1  0  0  0  0
  3  8  2  0  0  0  0
  4 17  2  0  0  0  0
  4  3  1  0  0  0  0
  5 15  1  0  0  0  0
  6 14  2  0  0  0  0
  7  1  1  0  0  0  0
  8 10  1  0  0  0  0
  9  2  1  0  0  0  0
  9  6  1  0  0  0  0
 10  9  2  0  0  0  0
 11 20  1  0  0  0  0
 13 12  2  0  0  0  0
 14  5  1  0  0  0  0
 14  7  1  0  0  0  0
 15 13  1  0  0  0  0
 16 13  1  0  0  0  0
 16 30  1  0  0  0  0
 18 17  1  1  0  0  0
 18 11  1  0  0  0  0
 18 10  1  0  0  0  0
 19  5  2  0  0  0  0
 20  2  2  0  0  0  0
 21 26  1  0  0  0  0
 22 21  2  0  0  0  0
 22 25  1  0  0  0  0
 23 28  1  0  0  0  0
 23 29  1  0  0  0  0
 24 25  1  0  0  0  0
 25 23  2  0  0  0  0
 26 29  2  0  0  0  0
 27 21  1  0  0  0  0
 29 11  1  0  0  0  0
 31 30  1  0  0  0  0
 31 32  1  0  0  0  0
M  END
>  <MODEL>
7

>  <REMARK>
 VINA RESULT:      -8.5      5.650      8.247
  Name = 
  3 active torsions:
  status: ('A' for Active; 'I' for Inactive)
    1  A    between atoms: C_1  and  C_10
    2  A    between atoms: C_10  and  N_24
    3  A    between atoms: N_16  and  C_32
                            x       y       z     vdW  Elec       q    Type
                         _______ _______ _______ _____ _____    ______ ____

>  <TORSDO>
F 3

$$$$
=
 OpenBabel11052416573D

 32 36  0  0  0  0  0  0  0  0999 V2000
  190.8180  177.8920  144.7250 C   0  0  0  0  0  2  0  0  0  0  0  0
  186.8750  178.0180  141.6350 C   0  0  0  0  0  0  0  0  0  0  0  0
  189.3050  178.0180  137.3480 C   0  0  0  0  0  3  0  0  0  0  0  0
  188.1830  178.4630  136.7810 C   0  0  0  0  0  3  0  0  0  0  0  0
  188.0110  177.5350  143.7370 C   0  0  0  0  0  0  0  0  0  0  0  0
  189.2150  177.3800  141.6310 C   0  0  0  0  0  3  0  0  0  0  0  0
  190.4600  176.8550  143.6900 C   0  0  0  0  0  2  0  0  0  0  0  0
  189.3690  177.5740  138.7850 C   0  0  0  0  0  2  0  0  0  0  0  0
  188.0700  177.7600  140.9150 C   0  0  0  0  0  0  0  0  0  0  0  0
  188.1120  177.8850  139.5710 C   0  0  0  0  0  0  0  0  0  0  0  0
  185.6860  178.4720  139.6290 N   0  0  0  0  0  0  0  0  0  0  0  0
  188.3020  176.7530  147.6670 S   0  0  0  0  0  0  0  0  0  0  0  0
  188.8650  177.2200  146.1980 C   0  0  0  0  0  0  0  0  0  0  0  0
  189.1980  177.2620  143.0230 C   0  0  0  0  0  0  0  0  0  0  0  0
  187.8870  177.4110  145.1630 N   0  0  0  0  0  2  0  0  0  0  0  0
  190.2720  177.4990  146.0110 N   0  0  0  0  0  0  0  0  0  0  0  0
  186.9330  178.5830  137.5460 C   0  0  0  0  0  3  0  0  0  0  0  0
  186.8860  178.2980  138.8530 C   0  0  0  0  0  0  0  0  0  0  0  0
  186.8650  177.9010  143.0260 C   0  0  0  0  0  3  0  0  0  0  0  0
  185.7720  178.3500  141.0280 N   0  0  0  0  0  0  0  0  0  0  0  0
  182.7060  180.4810  138.6130 C   0  0  0  0  0  0  0  0  0  0  0  0
  181.9270  179.5200  137.9650 C   0  0  0  0  0  3  0  0  0  0  0  0
  183.6220  177.8430  138.4080 C   0  0  0  0  0  0  0  0  0  0  0  0
  181.6120  177.2720  137.2480 F   0  0  0  0  0  0  0  0  0  0  0  0
  182.3830  178.2020  137.8640 C   0  0  0  0  0  0  0  0  0  0  0  0
  183.9440  180.1270  139.1560 C   0  0  0  0  0  3  0  0  0  0  0  0
  182.2590  181.7560  138.7180 F   0  0  0  0  0  0  0  0  0  0  0  0
  184.0250  176.5490  138.3500 F   0  0  0  0  0  0  0  0  0  0  0  0
  184.4190  178.8140  139.0450 C   0  0  0  0  0  0  0  0  0  0  0  0
  191.2380  177.3260  147.0910 C   0  0  0  0  0  2  0  0  0  0  0  0
  191.9800  176.0040  146.9480 C   0  0  0  0  0  2  0  0  0  0  0  0
  192.8450  175.7940  148.0960 N   0  0  0  0  0  1  0  0  0  0  0  0
  1 16  1  0  0  0  0
  2 19  1  0  0  0  0
  3  8  1  0  0  0  0
  4  3  2  0  0  0  0
  4 17  1  0  0  0  0
  5 15  1  0  0  0  0
  6 14  2  0  0  0  0
  7  1  1  0  0  0  0
  8 10  1  0  0  0  0
  9  6  1  0  0  0  0
  9  2  1  0  0  0  0
 10  9  2  0  0  0  0
 11 20  1  0  0  0  0
 13 12  2  0  0  0  0
 14  7  1  0  0  0  0
 14  5  1  0  0  0  0
 15 13  1  0  0  0  0
 16 13  1  0  0  0  0
 16 30  1  0  0  0  0
 17 18  2  0  0  0  0
 18 10  1  0  0  0  0
 18 11  1  0  0  0  0
 19  5  2  0  0  0  0
 20  2  2  0  0  0  0
 21 27  1  0  0  0  0
 21 26  1  0  0  0  0
 22 21  2  0  0  0  0
 23 29  1  0  0  0  0
 24 25  1  0  0  0  0
 25 22  1  0  0  0  0
 25 23  2  0  0  0  0
 28 23  1  0  0  0  0
 29 26  2  0  0  0  0
 29 11  1  0  0  0  0
 31 30  1  0  0  0  0
 31 32  1  0  0  0  0
M  END
>  <MODEL>
8

>  <REMARK>
 VINA RESULT:      -7.9      4.486      9.410
  Name = 
  3 active torsions:
  status: ('A' for Active; 'I' for Inactive)
    1  A    between atoms: C_1  and  C_10
    2  A    between atoms: C_10  and  N_24
    3  A    between atoms: N_16  and  C_32
                            x       y       z     vdW  Elec       q    Type
                         _______ _______ _______ _____ _____    ______ ____

>  <TORSDO>
F 3

$$$$
=
 OpenBabel11052416573D

 32 36  0  0  0  0  0  0  0  0999 V2000
  182.5130  178.1470  140.0360 C   0  0  0  0  0  2  0  0  0  0  0  0
  186.3480  178.1000  143.2630 C   0  0  0  0  0  0  0  0  0  0  0  0
  190.0390  177.8440  140.0090 C   0  0  0  0  0  3  0  0  0  0  0  0
  190.8150  177.4330  141.0130 C   0  0  0  0  0  3  0  0  0  0  0  0
  184.0680  178.5990  142.5590 C   0  0  0  0  0  0  0  0  0  0  0  0
  185.8830  178.6290  140.9420 C   0  0  0  0  0  3  0  0  0  0  0  0
  183.6240  179.1640  140.1200 C   0  0  0  0  0  2  0  0  0  0  0  0
  188.6310  178.3330  140.2180 C   0  0  0  0  0  2  0  0  0  0  0  0
  186.8110  178.2790  141.9340 C   0  0  0  0  0  0  0  0  0  0  0  0
  188.1140  178.1070  141.6240 C   0  0  0  0  0  0  0  0  0  0  0  0
  188.5450  177.6350  144.0380 N   0  0  0  0  0  0  0  0  0  0  0  0
  180.1810  179.4980  143.0400 S   0  0  0  0  0  0  0  0  0  0  0  0
  181.4910  178.9570  142.2130 C   0  0  0  0  0  0  0  0  0  0  0  0
  184.5280  178.7930  141.2380 C   0  0  0  0  0  0  0  0  0  0  0  0
  182.7020  178.7770  142.9660 N   0  0  0  0  0  2  0  0  0  0  0  0
  181.3770  178.6060  140.8140 N   0  0  0  0  0  0  0  0  0  0  0  0
  190.3220  177.3970  142.3980 C   0  0  0  0  0  3  0  0  0  0  0  0
  189.0600  177.7270  142.6960 C   0  0  0  0  0  0  0  0  0  0  0  0
  184.9910  178.2640  143.5520 C   0  0  0  0  0  3  0  0  0  0  0  0
  187.1610  177.7990  144.2350 N   0  0  0  0  0  0  0  0  0  0  0  0
  189.9280  177.7200  147.5050 C   0  0  0  0  0  0  0  0  0  0  0  0
  190.9860  176.8140  147.4080 C   0  0  0  0  0  3  0  0  0  0  0  0
  190.4510  176.4350  145.0740 C   0  0  0  0  0  0  0  0  0  0  0  0
  192.2890  175.3080  146.1040 F   0  0  0  0  0  0  0  0  0  0  0  0
  191.2490  176.1730  146.1940 C   0  0  0  0  0  0  0  0  0  0  0  0
  189.1270  177.9820  146.3910 C   0  0  0  0  0  3  0  0  0  0  0  0
  189.6790  178.3460  148.6810 F   0  0  0  0  0  0  0  0  0  0  0  0
  190.7520  175.8470  143.8890 F   0  0  0  0  0  0  0  0  0  0  0  0
  189.3700  177.3330  145.1740 C   0  0  0  0  0  0  0  0  0  0  0  0
  180.1250  178.7710  140.0810 C   0  0  0  0  0  2  0  0  0  0  0  0
  180.2650  179.8350  139.0020 C   0  0  0  0  0  2  0  0  0  0  0  0
  180.3030  181.1540  139.6080 N   0  0  0  0  0  1  0  0  0  0  0  0
  1  7  1  0  0  0  0
  1 16  1  0  0  0  0
  2 19  1  0  0  0  0
  2 20  2  0  0  0  0
  3  8  1  0  0  0  0
  3  4  2  0  0  0  0
  4 17  1  0  0  0  0
  5 15  1  0  0  0  0
  5 19  2  0  0  0  0
  6 14  2  0  0  0  0
  6  9  1  0  0  0  0
  7 14  1  0  0  0  0
  8 10  1  0  0  0  0
  9  2  1  0  0  0  0
 10  9  2  0  0  0  0
 10 18  1  0  0  0  0
 11 20  1  0  0  0  0
 11 29  1  0  0  0  0
 13 15  1  0  0  0  0
 13 12  2  0  0  0  0
 14  5  1  0  0  0  0
 16 13  1  0  0  0  0
 17 18  2  0  0  0  0
 18 11  1  0  0  0  0
 21 27  1  0  0  0  0
 22 21  1  0  0  0  0
 23 29  2  0  0  0  0
 23 25  1  0  0  0  0
 24 25  1  0  0  0  0
 25 22  2  0  0  0  0
 26 21  2  0  0  0  0
 28 23  1  0  0  0  0
 29 26  1  0  0  0  0
 30 16  1  0  0  0  0
 31 32  1  0  0  0  0
 31 30  1  0  0  0  0
M  END
>  <MODEL>
9

>  <REMARK>
 VINA RESULT:      -7.9      2.494      3.799
  Name = 
  3 active torsions:
  status: ('A' for Active; 'I' for Inactive)
    1  A    between atoms: C_1  and  C_10
    2  A    between atoms: C_10  and  N_24
    3  A    between atoms: N_16  and  C_32
                            x       y       z     vdW  Elec       q    Type
                         _______ _______ _______ _____ _____    ______ ____

>  <TORSDO>
F 3

$$$$
