=
 OpenBabel11052413333D

 28 31  0  0  1  0  0  0  0  0999 V2000
  184.6460  178.4120  143.0420 C   0  0  0  0  0  0  0  0  0  0  0  0
  186.2160  178.5360  147.5550 O   0  0  0  0  0  0  0  0  0  0  0  0
  187.8150  177.0070  144.5790 C   0  0  2  0  0  3  0  0  0  0  0  0
  185.3730  178.4340  145.3510 C   0  0  0  0  0  0  0  0  0  0  0  0
  186.9000  177.6250  143.6190 N   0  0  0  0  0  2  0  0  0  0  0  0
  183.1820  179.1760  144.8110 C   0  0  0  0  0  3  0  0  0  0  0  0
  186.4360  178.2350  146.3490 C   0  0  0  0  0  0  0  0  0  0  0  0
  184.1620  178.9320  145.7220 N   0  0  0  0  0  0  0  0  0  0  0  0
  187.8150  177.7730  145.9260 C   0  0  1  0  0  3  0  0  0  0  0  0
  183.4080  178.9240  143.4580 C   0  0  0  0  0  3  0  0  0  0  0  0
  185.6310  178.1530  144.0050 C   0  0  0  0  0  0  0  0  0  0  0  0
  189.8950  178.2960  143.9410 C   0  0  0  0  0  2  0  0  0  0  0  0
  189.1640  176.4010  142.6330 O   0  0  0  0  0  0  0  0  0  0  0  0
  191.1960  177.4530  141.9740 C   0  0  0  0  0  0  0  0  0  0  0  0
  189.2170  176.9250  143.9620 C   0  0  2  0  0  3  0  0  0  0  0  0
  190.1940  176.6120  141.7080 C   0  0  0  0  0  3  0  0  0  0  0  0
  192.1900  177.6180  141.0700 F   0  0  0  0  0  0  0  0  0  0  0  0
  191.2740  178.1600  143.2980 C   0  0  0  0  0  2  0  0  0  0  0  0
  188.4990  176.9720  147.0410 C   0  0  0  0  0  2  0  0  0  0  0  0
  189.5780  177.7770  147.7510 C   0  0  0  0  0  1  0  0  0  0  0  0
  184.9210  178.1470  141.6910 O   0  0  0  0  0  0  0  0  0  0  0  0
  183.9980  178.3260  140.6140 C   0  0  2  0  0  3  0  0  0  0  0  0
  183.9580  178.0770  138.2600 C   0  0  1  0  0  3  0  0  0  0  0  0
  183.3020  177.1390  140.3440 O   0  0  0  0  0  0  0  0  0  0  0  0
  184.5470  180.1640  139.2110 O   0  0  0  0  0  1  0  0  0  0  0  0
  184.6980  178.7860  139.3540 C   0  0  1  0  0  3  0  0  0  0  0  0
  184.9170  177.1810  137.5010 C   0  0  0  0  0  1  0  0  0  0  0  0
  182.9390  177.2270  138.9910 C   0  0  0  0  0  2  0  0  0  0  0  0
  1 10  2  0  0  0  0
  1 11  1  0  0  0  0
  3  5  1  6  0  0  0
  3  9  1  0  0  0  0
  4  8  1  0  0  0  0
  4  7  1  0  0  0  0
  5 11  1  0  0  0  0
  6  8  2  0  0  0  0
  7  2  2  0  0  0  0
  9  7  1  0  0  0  0
  9 19  1  1  0  0  0
 10  6  1  0  0  0  0
 11  4  2  0  0  0  0
 13 15  1  0  0  0  0
 14 18  1  0  0  0  0
 15 12  1  6  0  0  0
 15  3  1  0  0  0  0
 16 14  2  0  0  0  0
 16 13  1  0  0  0  0
 17 14  1  0  0  0  0
 18 12  1  0  0  0  0
 19 20  1  0  0  0  0
 21  1  1  0  0  0  0
 22 21  1  1  0  0  0
 23 27  1  1  0  0  0
 23 28  1  0  0  0  0
 23 26  1  0  0  0  0
 24 22  1  0  0  0  0
 26 25  1  6  0  0  0
 26 22  1  0  0  0  0
 28 24  1  0  0  0  0
M  END
>  <MODEL>
1

>  <REMARK>
 VINA RESULT:      -9.8      0.000      0.000
  Name = 
  4 active torsions:
  status: ('A' for Active; 'I' for Inactive)
    1  A    between atoms: C_1  and  O_2
    2  A    between atoms: O_2  and  C_3
    3  A    between atoms: C_10  and  C_13
    4  A    between atoms: C_14  and  C_25
                            x       y       z     vdW  Elec       q    Type
                         _______ _______ _______ _____ _____    ______ ____

>  <TORSDO>
F 4

$$$$
=
 OpenBabel11052413333D

 28 31  0  0  1  0  0  0  0  0999 V2000
  186.1960  178.5200  140.4190 C   0  0  0  0  0  0  0  0  0  0  0  0
  183.5550  178.8460  144.3900 O   0  0  0  0  0  0  0  0  0  0  0  0
  187.0740  177.7380  144.0240 C   0  0  2  0  0  3  0  0  0  0  0  0
  184.8050  178.6310  142.3980 C   0  0  0  0  0  0  0  0  0  0  0  0
  187.1990  178.1850  142.6360 N   0  0  0  0  0  2  0  0  0  0  0  0
  183.8170  178.9340  140.2590 C   0  0  0  0  0  3  0  0  0  0  0  0
  184.6800  178.6230  143.8630 C   0  0  0  0  0  0  0  0  0  0  0  0
  183.7180  178.8700  141.6130 N   0  0  0  0  0  0  0  0  0  0  0  0
  185.9040  178.4560  144.7400 C   0  0  1  0  0  3  0  0  0  0  0  0
  185.0560  178.7660  139.6390 C   0  0  0  0  0  3  0  0  0  0  0  0
  186.0610  178.4390  141.8110 C   0  0  0  0  0  0  0  0  0  0  0  0
  189.5920  177.7750  143.7900 C   0  0  0  0  0  2  0  0  0  0  0  0
  188.5510  177.0480  145.8450 O   0  0  0  0  0  0  0  0  0  0  0  0
  190.9310  177.1290  145.8050 C   0  0  0  0  0  0  0  0  0  0  0  0
  188.4110  177.9510  144.7460 C   0  0  2  0  0  3  0  0  0  0  0  0
  189.8000  176.7320  146.3940 C   0  0  0  0  0  3  0  0  0  0  0  0
  192.1230  176.8290  146.3730 F   0  0  0  0  0  0  0  0  0  0  0  0
  190.8940  177.9750  144.5640 C   0  0  0  0  0  2  0  0  0  0  0  0
  185.5450  177.7810  146.0700 C   0  0  0  0  0  2  0  0  0  0  0  0
  185.7550  178.7050  147.2610 C   0  0  0  0  0  1  0  0  0  0  0  0
  187.4630  178.3470  139.8410 O   0  0  0  0  0  0  0  0  0  0  0  0
  187.7070  178.0710  138.4600 C   0  0  2  0  0  3  0  0  0  0  0  0
  189.5320  177.4940  137.0670 C   0  0  1  0  0  3  0  0  0  0  0  0
  187.5970  176.6980  138.1950 O   0  0  0  0  0  0  0  0  0  0  0  0
  188.9600  179.7720  137.3730 O   0  0  0  0  0  1  0  0  0  0  0  0
  189.0770  178.5480  138.0310 C   0  0  1  0  0  3  0  0  0  0  0  0
  190.8050  176.8540  137.5850 C   0  0  0  0  0  1  0  0  0  0  0  0
  188.4120  176.4750  137.0740 C   0  0  0  0  0  2  0  0  0  0  0  0
  1 11  1  0  0  0  0
  3  5  1  6  0  0  0
  3  9  1  0  0  0  0
  3 15  1  0  0  0  0
  4  7  1  0  0  0  0
  6  8  2  0  0  0  0
  7  2  2  0  0  0  0
  7  9  1  0  0  0  0
  8  4  1  0  0  0  0
  9 19  1  1  0  0  0
 10  6  1  0  0  0  0
 10  1  2  0  0  0  0
 11  4  2  0  0  0  0
 11  5  1  0  0  0  0
 12 18  1  0  0  0  0
 13 16  1  0  0  0  0
 14 17  1  0  0  0  0
 14 16  2  0  0  0  0
 15 12  1  6  0  0  0
 15 13  1  0  0  0  0
 18 14  1  0  0  0  0
 19 20  1  0  0  0  0
 21  1  1  0  0  0  0
 22 21  1  1  0  0  0
 23 28  1  0  0  0  0
 23 27  1  1  0  0  0
 23 26  1  0  0  0  0
 24 22  1  0  0  0  0
 26 25  1  6  0  0  0
 26 22  1  0  0  0  0
 28 24  1  0  0  0  0
M  END
>  <MODEL>
2

>  <REMARK>
 VINA RESULT:      -8.4      2.835      3.867
  Name = 
  4 active torsions:
  status: ('A' for Active; 'I' for Inactive)
    1  A    between atoms: C_1  and  O_2
    2  A    between atoms: O_2  and  C_3
    3  A    between atoms: C_10  and  C_13
    4  A    between atoms: C_14  and  C_25
                            x       y       z     vdW  Elec       q    Type
                         _______ _______ _______ _____ _____    ______ ____

>  <TORSDO>
F 4

$$$$
=
 OpenBabel11052413333D

 28 31  0  0  1  0  0  0  0  0999 V2000
  185.9490  178.9430  141.2340 C   0  0  0  0  0  0  0  0  0  0  0  0
  188.1820  177.1500  137.4070 O   0  0  0  0  0  0  0  0  0  0  0  0
  189.5790  177.9640  140.7440 C   0  0  2  0  0  3  0  0  0  0  0  0
  187.0590  178.1020  139.2530 C   0  0  0  0  0  0  0  0  0  0  0  0
  188.2750  178.1670  141.3750 N   0  0  0  0  0  2  0  0  0  0  0  0
  184.8170  178.8710  139.0970 C   0  0  0  0  0  3  0  0  0  0  0  0
  188.2320  177.4730  138.6260 C   0  0  0  0  0  0  0  0  0  0  0  0
  185.9320  178.3400  138.5280 N   0  0  0  0  0  0  0  0  0  0  0  0
  189.4510  177.1180  139.4520 C   0  0  1  0  0  3  0  0  0  0  0  0
  184.8050  179.1770  140.4580 C   0  0  0  0  0  3  0  0  0  0  0  0
  187.0900  178.4130  140.6180 C   0  0  0  0  0  0  0  0  0  0  0  0
  189.8750  176.1630  142.4950 C   0  0  0  0  0  2  0  0  0  0  0  0
  190.9970  178.2920  142.7080 O   0  0  0  0  0  0  0  0  0  0  0  0
  191.4500  176.6560  144.3780 C   0  0  0  0  0  0  0  0  0  0  0  0
  190.5390  177.3270  141.7570 C   0  0  2  0  0  3  0  0  0  0  0  0
  191.5160  177.9200  143.9550 C   0  0  0  0  0  3  0  0  0  0  0  0
  191.9830  176.3220  145.5770 F   0  0  0  0  0  0  0  0  0  0  0  0
  190.8640  175.5830  143.5030 C   0  0  0  0  0  2  0  0  0  0  0  0
  190.7290  177.1670  138.6050 C   0  0  0  0  0  2  0  0  0  0  0  0
  191.2680  175.7780  138.2930 C   0  0  0  0  0  1  0  0  0  0  0  0
  185.9830  179.2310  142.6070 O   0  0  0  0  0  0  0  0  0  0  0  0
  185.3070  178.4840  143.6210 C   0  0  2  0  0  3  0  0  0  0  0  0
  185.3570  178.2500  145.9760 C   0  0  1  0  0  3  0  0  0  0  0  0
  184.2070  179.1960  144.1220 O   0  0  0  0  0  0  0  0  0  0  0  0
  186.6760  176.8210  144.6250 O   0  0  0  0  0  1  0  0  0  0  0  0
  186.2330  178.1350  144.7650 C   0  0  1  0  0  3  0  0  0  0  0  0
  185.9190  179.3080  146.9060 C   0  0  0  0  0  1  0  0  0  0  0  0
  184.0230  178.7130  145.4280 C   0  0  0  0  0  2  0  0  0  0  0  0
  1 21  1  0  0  0  0
  2  7  2  0  0  0  0
  3  5  1  1  0  0  0
  3 15  1  0  0  0  0
  4 11  2  0  0  0  0
  6 10  1  0  0  0  0
  7  4  1  0  0  0  0
  7  9  1  0  0  0  0
  8  6  2  0  0  0  0
  8  4  1  0  0  0  0
  9 19  1  6  0  0  0
  9  3  1  0  0  0  0
 10  1  2  0  0  0  0
 11  1  1  0  0  0  0
 11  5  1  0  0  0  0
 12 18  1  0  0  0  0
 13 16  1  0  0  0  0
 14 17  1  0  0  0  0
 15 12  1  1  0  0  0
 15 13  1  0  0  0  0
 16 14  2  0  0  0  0
 18 14  1  0  0  0  0
 20 19  1  0  0  0  0
 22 21  1  6  0  0  0
 22 24  1  0  0  0  0
 22 26  1  0  0  0  0
 23 27  1  1  0  0  0
 24 28  1  0  0  0  0
 26 25  1  6  0  0  0
 26 23  1  0  0  0  0
 28 23  1  0  0  0  0
M  END
>  <MODEL>
3

>  <REMARK>
 VINA RESULT:      -8.4      2.603      5.829
  Name = 
  4 active torsions:
  status: ('A' for Active; 'I' for Inactive)
    1  A    between atoms: C_1  and  O_2
    2  A    between atoms: O_2  and  C_3
    3  A    between atoms: C_10  and  C_13
    4  A    between atoms: C_14  and  C_25
                            x       y       z     vdW  Elec       q    Type
                         _______ _______ _______ _____ _____    ______ ____

>  <TORSDO>
F 4

$$$$
=
 OpenBabel11052413333D

 28 31  0  0  1  0  0  0  0  0999 V2000
  189.2380  177.8580  141.9870 C   0  0  0  0  0  0  0  0  0  0  0  0
  188.3670  177.0000  146.6080 O   0  0  0  0  0  0  0  0  0  0  0  0
  186.0750  178.3430  144.0210 C   0  0  2  0  0  3  0  0  0  0  0  0
  188.8560  177.4770  144.3470 C   0  0  0  0  0  0  0  0  0  0  0  0
  186.9650  178.0390  142.9000 N   0  0  0  0  0  2  0  0  0  0  0  0
  191.0630  177.3210  143.4820 C   0  0  0  0  0  3  0  0  0  0  0  0
  187.9230  177.3370  145.4750 C   0  0  0  0  0  0  0  0  0  0  0  0
  190.1870  177.2500  144.5200 N   0  0  0  0  0  0  0  0  0  0  0  0
  186.4310  177.4920  145.2650 C   0  0  1  0  0  3  0  0  0  0  0  0
  190.6040  177.6200  142.1990 C   0  0  0  0  0  3  0  0  0  0  0  0
  188.3610  177.7970  143.0780 C   0  0  0  0  0  0  0  0  0  0  0  0
  184.4430  178.4470  142.0920 C   0  0  0  0  0  2  0  0  0  0  0  0
  183.7330  178.9640  144.3430 O   0  0  0  0  0  0  0  0  0  0  0  0
  182.0640  179.0030  142.6450 C   0  0  0  0  0  0  0  0  0  0  0  0
  184.6190  178.1410  143.5800 C   0  0  2  0  0  3  0  0  0  0  0  0
  182.4510  179.2980  143.8880 C   0  0  0  0  0  3  0  0  0  0  0  0
  180.8110  179.3170  142.2410 F   0  0  0  0  0  0  0  0  0  0  0  0
  182.9760  178.2530  141.7140 C   0  0  0  0  0  2  0  0  0  0  0  0
  185.7430  178.0150  146.5330 C   0  0  0  0  0  2  0  0  0  0  0  0
  186.0550  179.4820  146.7950 C   0  0  0  0  0  1  0  0  0  0  0  0
  188.7290  178.1590  140.7140 O   0  0  0  0  0  0  0  0  0  0  0  0
  189.4770  178.1070  139.4960 C   0  0  2  0  0  3  0  0  0  0  0  0
  189.3310  177.0680  137.3740 C   0  0  1  0  0  3  0  0  0  0  0  0
  189.0370  179.0870  138.5940 O   0  0  0  0  0  0  0  0  0  0  0  0
  190.5160  176.0030  139.1260 O   0  0  0  0  0  1  0  0  0  0  0  0
  189.3740  176.7490  138.8380 C   0  0  1  0  0  3  0  0  0  0  0  0
  188.0310  176.5560  136.7850 C   0  0  0  0  0  1  0  0  0  0  0  0
  189.3510  178.5820  137.3220 C   0  0  0  0  0  2  0  0  0  0  0  0
  1 10  2  0  0  0  0
  1 11  1  0  0  0  0
  3  5  1  6  0  0  0
  3  9  1  0  0  0  0
  4  8  1  0  0  0  0
  4  7  1  0  0  0  0
  5 11  1  0  0  0  0
  6  8  2  0  0  0  0
  7  2  2  0  0  0  0
  9  7  1  0  0  0  0
  9 19  1  1  0  0  0
 10  6  1  0  0  0  0
 11  4  2  0  0  0  0
 14 16  2  0  0  0  0
 15 12  1  6  0  0  0
 15  3  1  0  0  0  0
 15 13  1  0  0  0  0
 16 13  1  0  0  0  0
 17 14  1  0  0  0  0
 18 12  1  0  0  0  0
 18 14  1  0  0  0  0
 19 20  1  0  0  0  0
 21  1  1  0  0  0  0
 22 21  1  1  0  0  0
 23 27  1  1  0  0  0
 23 26  1  0  0  0  0
 24 22  1  0  0  0  0
 26 25  1  6  0  0  0
 26 22  1  0  0  0  0
 28 23  1  0  0  0  0
 28 24  1  0  0  0  0
M  END
>  <MODEL>
4

>  <REMARK>
 VINA RESULT:      -8.2      3.236      5.868
  Name = 
  4 active torsions:
  status: ('A' for Active; 'I' for Inactive)
    1  A    between atoms: C_1  and  O_2
    2  A    between atoms: O_2  and  C_3
    3  A    between atoms: C_10  and  C_13
    4  A    between atoms: C_14  and  C_25
                            x       y       z     vdW  Elec       q    Type
                         _______ _______ _______ _____ _____    ______ ____

>  <TORSDO>
F 4

$$$$
=
 OpenBabel11052413333D

 28 31  0  0  1  0  0  0  0  0999 V2000
  186.0020  177.8790  143.8840 C   0  0  0  0  0  0  0  0  0  0  0  0
  190.3320  177.9910  145.9050 O   0  0  0  0  0  0  0  0  0  0  0  0
  189.4240  177.1970  142.3990 C   0  0  2  0  0  3  0  0  0  0  0  0
  188.1710  177.8770  144.9600 C   0  0  0  0  0  0  0  0  0  0  0  0
  188.0370  177.6460  142.5280 N   0  0  0  0  0  2  0  0  0  0  0  0
  186.2100  178.0800  146.2860 C   0  0  0  0  0  3  0  0  0  0  0  0
  189.6380  177.8660  144.8590 C   0  0  0  0  0  0  0  0  0  0  0  0
  187.5630  178.0140  146.1710 N   0  0  0  0  0  0  0  0  0  0  0  0
  190.3170  177.8130  143.5050 C   0  0  1  0  0  3  0  0  0  0  0  0
  185.4080  178.0180  145.1460 C   0  0  0  0  0  3  0  0  0  0  0  0
  187.3980  177.7940  143.7960 C   0  0  0  0  0  0  0  0  0  0  0  0
  188.8060  178.0550  140.1010 C   0  0  0  0  0  2  0  0  0  0  0  0
  190.5340  176.3880  140.3770 O   0  0  0  0  0  0  0  0  0  0  0  0
  190.1320  177.1770  138.1660 C   0  0  0  0  0  0  0  0  0  0  0  0
  189.9350  177.5320  140.9920 C   0  0  2  0  0  3  0  0  0  0  0  0
  190.6890  176.2850  138.9890 C   0  0  0  0  0  3  0  0  0  0  0  0
  190.3200  177.0650  136.8300 F   0  0  0  0  0  0  0  0  0  0  0  0
  189.3650  178.3500  138.7110 C   0  0  0  0  0  2  0  0  0  0  0  0
  191.6800  177.1150  143.5950 C   0  0  0  0  0  2  0  0  0  0  0  0
  191.5480  175.6120  143.7880 C   0  0  0  0  0  1  0  0  0  0  0  0
  185.2360  177.8160  142.7090 O   0  0  0  0  0  0  0  0  0  0  0  0
  184.2200  178.7510  142.3390 C   0  0  2  0  0  3  0  0  0  0  0  0
  182.4540  178.9150  140.7720 C   0  0  1  0  0  3  0  0  0  0  0  0
  183.0310  178.5050  143.0410 O   0  0  0  0  0  0  0  0  0  0  0  0
  184.5990  179.7530  140.2180 O   0  0  0  0  0  1  0  0  0  0  0  0
  183.9360  178.7040  140.8540 C   0  0  1  0  0  3  0  0  0  0  0  0
  181.8100  177.7110  140.1140 C   0  0  0  0  0  1  0  0  0  0  0  0
  182.0090  179.0030  142.2160 C   0  0  0  0  0  2  0  0  0  0  0  0
  1 10  1  0  0  0  0
  3  5  1  6  0  0  0
  3  9  1  0  0  0  0
  4  8  2  0  0  0  0
  5 11  1  0  0  0  0
  7  4  1  0  0  0  0
  7  2  2  0  0  0  0
  8  6  1  0  0  0  0
  9 19  1  1  0  0  0
  9  7  1  0  0  0  0
 10  6  2  0  0  0  0
 11  1  2  0  0  0  0
 11  4  1  0  0  0  0
 13 15  1  0  0  0  0
 14 18  1  0  0  0  0
 14 16  2  0  0  0  0
 15 12  1  6  0  0  0
 15  3  1  0  0  0  0
 16 13  1  0  0  0  0
 17 14  1  0  0  0  0
 18 12  1  0  0  0  0
 19 20  1  0  0  0  0
 21  1  1  0  0  0  0
 22 21  1  6  0  0  0
 22 24  1  0  0  0  0
 23 27  1  1  0  0  0
 23 26  1  0  0  0  0
 23 28  1  0  0  0  0
 26 25  1  6  0  0  0
 26 22  1  0  0  0  0
 28 24  1  0  0  0  0
M  END
>  <MODEL>
5

>  <REMARK>
 VINA RESULT:      -8.2      2.197      3.321
  Name = 
  4 active torsions:
  status: ('A' for Active; 'I' for Inactive)
    1  A    between atoms: C_1  and  O_2
    2  A    between atoms: O_2  and  C_3
    3  A    between atoms: C_10  and  C_13
    4  A    between atoms: C_14  and  C_25
                            x       y       z     vdW  Elec       q    Type
                         _______ _______ _______ _____ _____    ______ ____

>  <TORSDO>
F 4

$$$$
=
 OpenBabel11052413333D

 28 31  0  0  1  0  0  0  0  0999 V2000
  189.1940  176.8460  141.1960 C   0  0  0  0  0  0  0  0  0  0  0  0
  185.4070  179.7540  140.9610 O   0  0  0  0  0  0  0  0  0  0  0  0
  186.3840  177.4240  143.6750 C   0  0  2  0  0  3  0  0  0  0  0  0
  187.2510  178.2790  141.0090 C   0  0  0  0  0  0  0  0  0  0  0  0
  187.7170  177.1580  143.1330 N   0  0  0  0  0  2  0  0  0  0  0  0
  188.6570  177.9690  139.1200 C   0  0  0  0  0  3  0  0  0  0  0  0
  186.0990  178.9440  141.6380 C   0  0  0  0  0  0  0  0  0  0  0  0
  187.5680  178.5290  139.7090 N   0  0  0  0  0  0  0  0  0  0  0  0
  185.8030  178.7440  143.1100 C   0  0  1  0  0  3  0  0  0  0  0  0
  189.4900  177.1230  139.8530 C   0  0  0  0  0  3  0  0  0  0  0  0
  188.0530  177.4220  141.7710 C   0  0  0  0  0  0  0  0  0  0  0  0
  186.0210  178.7880  145.7740 C   0  0  0  0  0  2  0  0  0  0  0  0
  187.7740  177.1280  145.6650 O   0  0  0  0  0  0  0  0  0  0  0  0
  187.4830  178.2620  147.7380 C   0  0  0  0  0  0  0  0  0  0  0  0
  186.4530  177.4340  145.2080 C   0  0  2  0  0  3  0  0  0  0  0  0
  188.2180  177.4780  146.9460 C   0  0  0  0  0  3  0  0  0  0  0  0
  187.9280  178.5630  148.9810 F   0  0  0  0  0  0  0  0  0  0  0  0
  186.1310  178.7500  147.2970 C   0  0  0  0  0  2  0  0  0  0  0  0
  184.3010  178.8790  143.3970 C   0  0  0  0  0  2  0  0  0  0  0  0
  183.4480  178.2050  142.3330 C   0  0  0  0  0  1  0  0  0  0  0  0
  190.0040  176.0050  141.9740 O   0  0  0  0  0  0  0  0  0  0  0  0
  191.0760  176.4410  142.8120 C   0  0  2  0  0  3  0  0  0  0  0  0
  191.8320  178.4470  143.8170 C   0  0  1  0  0  3  0  0  0  0  0  0
  190.7140  176.3780  144.1660 O   0  0  0  0  0  0  0  0  0  0  0  0
  192.6430  177.8240  141.6820 O   0  0  0  0  0  1  0  0  0  0  0  0
  191.5010  177.8540  142.4810 C   0  0  1  0  0  3  0  0  0  0  0  0
  190.9310  179.6390  144.0760 C   0  0  0  0  0  1  0  0  0  0  0  0
  191.5090  177.3440  144.8030 C   0  0  0  0  0  2  0  0  0  0  0  0
  1 11  1  0  0  0  0
  1 21  1  0  0  0  0
  2  7  2  0  0  0  0
  3  5  1  6  0  0  0
  3 15  1  0  0  0  0
  4  7  1  0  0  0  0
  4 11  2  0  0  0  0
  6  8  2  0  0  0  0
  6 10  1  0  0  0  0
  7  9  1  0  0  0  0
  8  4  1  0  0  0  0
  9 19  1  6  0  0  0
  9  3  1  0  0  0  0
 10  1  2  0  0  0  0
 11  5  1  0  0  0  0
 12 18  1  0  0  0  0
 13 16  1  0  0  0  0
 14 17  1  0  0  0  0
 15 13  1  0  0  0  0
 15 12  1  6  0  0  0
 16 14  2  0  0  0  0
 18 14  1  0  0  0  0
 20 19  1  0  0  0  0
 22 21  1  6  0  0  0
 22 24  1  0  0  0  0
 23 27  1  1  0  0  0
 23 28  1  0  0  0  0
 24 28  1  0  0  0  0
 26 25  1  6  0  0  0
 26 22  1  0  0  0  0
 26 23  1  0  0  0  0
M  END
>  <MODEL>
6

>  <REMARK>
 VINA RESULT:      -8.2      2.769      6.642
  Name = 
  4 active torsions:
  status: ('A' for Active; 'I' for Inactive)
    1  A    between atoms: C_1  and  O_2
    2  A    between atoms: O_2  and  C_3
    3  A    between atoms: C_10  and  C_13
    4  A    between atoms: C_14  and  C_25
                            x       y       z     vdW  Elec       q    Type
                         _______ _______ _______ _____ _____    ______ ____

>  <TORSDO>
F 4

$$$$
=
 OpenBabel11052413333D

 28 31  0  0  1  0  0  0  0  0999 V2000
  189.8970  177.6940  140.6920 C   0  0  0  0  0  0  0  0  0  0  0  0
  191.5140  176.7660  145.0930 O   0  0  0  0  0  0  0  0  0  0  0  0
  188.2300  178.1470  144.0670 C   0  0  2  0  0  3  0  0  0  0  0  0
  190.7780  177.2770  142.9090 C   0  0  0  0  0  0  0  0  0  0  0  0
  188.4160  177.8600  142.6450 N   0  0  0  0  0  2  0  0  0  0  0  0
  192.2260  177.1350  141.0320 C   0  0  0  0  0  3  0  0  0  0  0  0
  190.5550  177.1200  144.3540 C   0  0  0  0  0  0  0  0  0  0  0  0
  192.0070  177.0490  142.3700 N   0  0  0  0  0  0  0  0  0  0  0  0
  189.1670  177.2770  144.9420 C   0  0  1  0  0  3  0  0  0  0  0  0
  191.1760  177.4540  140.1700 C   0  0  0  0  0  3  0  0  0  0  0  0
  189.7040  177.6160  142.0780 C   0  0  0  0  0  0  0  0  0  0  0  0
  185.8330  178.4500  143.3180 C   0  0  0  0  0  2  0  0  0  0  0  0
  186.4310  178.6260  145.6530 O   0  0  0  0  0  0  0  0  0  0  0  0
  184.1230  178.8330  145.1070 C   0  0  0  0  0  0  0  0  0  0  0  0
  186.7520  177.9510  144.4340 C   0  0  2  0  0  3  0  0  0  0  0  0
  185.1160  178.9700  145.9880 C   0  0  0  0  0  3  0  0  0  0  0  0
  182.8570  179.1500  145.4690 F   0  0  0  0  0  0  0  0  0  0  0  0
  184.3800  178.2520  143.7440 C   0  0  0  0  0  2  0  0  0  0  0  0
  189.2320  177.7810  146.3900 C   0  0  0  0  0  2  0  0  0  0  0  0
  188.7060  176.7530  147.3820 C   0  0  0  0  0  1  0  0  0  0  0  0
  188.8090  178.0140  139.8650 O   0  0  0  0  0  0  0  0  0  0  0  0
  188.8170  177.9570  138.4370 C   0  0  2  0  0  3  0  0  0  0  0  0
  187.5140  177.0200  136.6960 C   0  0  1  0  0  3  0  0  0  0  0  0
  188.0620  179.0030  137.8870 O   0  0  0  0  0  0  0  0  0  0  0  0
  189.3350  175.7970  137.5900 O   0  0  0  0  0  1  0  0  0  0  0  0
  188.2760  176.6380  137.9300 C   0  0  1  0  0  3  0  0  0  0  0  0
  186.0580  176.6310  136.8630 C   0  0  0  0  0  1  0  0  0  0  0  0
  187.6330  178.5280  136.6370 C   0  0  0  0  0  2  0  0  0  0  0  0
  1 11  1  0  0  0  0
  3  5  1  6  0  0  0
  3 15  1  0  0  0  0
  3  9  1  0  0  0  0
  4  7  1  0  0  0  0
  6  8  2  0  0  0  0
  7  9  1  0  0  0  0
  7  2  2  0  0  0  0
  8  4  1  0  0  0  0
  9 19  1  1  0  0  0
 10  1  2  0  0  0  0
 10  6  1  0  0  0  0
 11  5  1  0  0  0  0
 11  4  2  0  0  0  0
 12 18  1  0  0  0  0
 13 16  1  0  0  0  0
 14 17  1  0  0  0  0
 14 16  2  0  0  0  0
 15 12  1  6  0  0  0
 15 13  1  0  0  0  0
 18 14  1  0  0  0  0
 19 20  1  0  0  0  0
 21  1  1  0  0  0  0
 22 21  1  1  0  0  0
 23 27  1  1  0  0  0
 23 26  1  0  0  0  0
 24 22  1  0  0  0  0
 26 25  1  6  0  0  0
 26 22  1  0  0  0  0
 28 23  1  0  0  0  0
 28 24  1  0  0  0  0
M  END
>  <MODEL>
7

>  <REMARK>
 VINA RESULT:      -8.1      3.203      5.719
  Name = 
  4 active torsions:
  status: ('A' for Active; 'I' for Inactive)
    1  A    between atoms: C_1  and  O_2
    2  A    between atoms: O_2  and  C_3
    3  A    between atoms: C_10  and  C_13
    4  A    between atoms: C_14  and  C_25
                            x       y       z     vdW  Elec       q    Type
                         _______ _______ _______ _____ _____    ______ ____

>  <TORSDO>
F 4

$$$$
=
 OpenBabel11052413333D

 28 31  0  0  1  0  0  0  0  0999 V2000
  190.1650  177.2720  138.8300 C   0  0  0  0  0  0  0  0  0  0  0  0
  186.2410  179.1360  140.8250 O   0  0  0  0  0  0  0  0  0  0  0  0
  188.6030  176.6460  142.2280 C   0  0  2  0  0  3  0  0  0  0  0  0
  188.1330  178.1860  139.7790 C   0  0  0  0  0  0  0  0  0  0  0  0
  189.6080  176.8290  141.1810 N   0  0  0  0  0  2  0  0  0  0  0  0
  188.6460  178.6030  137.4980 C   0  0  0  0  0  3  0  0  0  0  0  0
  187.2660  178.4090  140.9460 C   0  0  0  0  0  0  0  0  0  0  0  0
  187.8340  178.7510  138.5770 N   0  0  0  0  0  0  0  0  0  0  0  0
  187.6480  177.8630  142.3060 C   0  0  1  0  0  3  0  0  0  0  0  0
  189.8260  177.8670  137.6060 C   0  0  0  0  0  3  0  0  0  0  0  0
  189.2990  177.4250  139.9210 C   0  0  0  0  0  0  0  0  0  0  0  0
  189.5160  177.6740  144.3510 C   0  0  0  0  0  2  0  0  0  0  0  0
  190.5680  175.7370  143.3620 O   0  0  0  0  0  0  0  0  0  0  0  0
  191.4750  176.5330  145.4160 C   0  0  0  0  0  0  0  0  0  0  0  0
  189.3070  176.3780  143.5650 C   0  0  2  0  0  3  0  0  0  0  0  0
  191.5810  175.7630  144.3300 C   0  0  0  0  0  3  0  0  0  0  0  0
  192.4590  176.5190  146.3450 F   0  0  0  0  0  0  0  0  0  0  0  0
  190.2380  177.3530  145.6580 C   0  0  0  0  0  2  0  0  0  0  0  0
  186.4040  177.5630  143.1530 C   0  0  0  0  0  2  0  0  0  0  0  0
  186.1510  178.6330  144.2060 C   0  0  0  0  0  1  0  0  0  0  0  0
  191.3420  176.5250  138.9890 O   0  0  0  0  0  0  0  0  0  0  0  0
  192.0410  175.8580  137.9350 C   0  0  2  0  0  3  0  0  0  0  0  0
  194.1210  174.7780  137.5980 C   0  0  1  0  0  3  0  0  0  0  0  0
  191.7900  174.4780  137.9600 O   0  0  0  0  0  0  0  0  0  0  0  0
  193.9050  177.0890  137.1240 O   0  0  0  0  0  1  0  0  0  0  0  0
  193.5330  176.0900  138.0230 C   0  0  1  0  0  3  0  0  0  0  0  0
  194.9580  174.2120  138.7280 C   0  0  0  0  0  1  0  0  0  0  0  0
  192.9170  173.8900  137.3630 C   0  0  0  0  0  2  0  0  0  0  0  0
  1 21  1  0  0  0  0
  1 11  1  0  0  0  0
  2  7  2  0  0  0  0
  3  5  1  6  0  0  0
  3  9  1  0  0  0  0
  3 15  1  0  0  0  0
  4 11  2  0  0  0  0
  4  7  1  0  0  0  0
  6 10  1  0  0  0  0
  6  8  2  0  0  0  0
  7  9  1  0  0  0  0
  8  4  1  0  0  0  0
  9 19  1  6  0  0  0
 10  1  2  0  0  0  0
 11  5  1  0  0  0  0
 12 18  1  0  0  0  0
 13 15  1  0  0  0  0
 13 16  1  0  0  0  0
 14 18  1  0  0  0  0
 14 17  1  0  0  0  0
 15 12  1  6  0  0  0
 16 14  2  0  0  0  0
 19 20  1  0  0  0  0
 22 24  1  0  0  0  0
 22 26  1  0  0  0  0
 22 21  1  1  0  0  0
 23 26  1  0  0  0  0
 23 27  1  1  0  0  0
 26 25  1  6  0  0  0
 28 23  1  0  0  0  0
 28 24  1  0  0  0  0
M  END
>  <MODEL>
8

>  <REMARK>
 VINA RESULT:      -8.1      3.888      6.818
  Name = 
  4 active torsions:
  status: ('A' for Active; 'I' for Inactive)
    1  A    between atoms: C_1  and  O_2
    2  A    between atoms: O_2  and  C_3
    3  A    between atoms: C_10  and  C_13
    4  A    between atoms: C_14  and  C_25
                            x       y       z     vdW  Elec       q    Type
                         _______ _______ _______ _____ _____    ______ ____

>  <TORSDO>
F 4

$$$$
=
 OpenBabel11052413333D

 28 31  0  0  1  0  0  0  0  0999 V2000
  189.1610  177.3920  141.2460 C   0  0  0  0  0  0  0  0  0  0  0  0
  186.8990  177.3730  145.4560 O   0  0  0  0  0  0  0  0  0  0  0  0
  185.9100  179.0380  142.2950 C   0  0  2  0  0  3  0  0  0  0  0  0
  188.0810  177.4170  143.4130 C   0  0  0  0  0  0  0  0  0  0  0  0
  186.9120  178.3530  141.4780 N   0  0  0  0  0  2  0  0  0  0  0  0
  190.2650  176.5050  143.2080 C   0  0  0  0  0  3  0  0  0  0  0  0
  186.8950  177.6960  144.2370 C   0  0  0  0  0  0  0  0  0  0  0  0
  189.1770  176.8210  143.9590 N   0  0  0  0  0  0  0  0  0  0  0  0
  185.6390  178.2680  143.6110 C   0  0  1  0  0  3  0  0  0  0  0  0
  190.2740  176.7800  141.8400 C   0  0  0  0  0  3  0  0  0  0  0  0
  188.0610  177.7240  142.0480 C   0  0  0  0  0  0  0  0  0  0  0  0
  183.8570  177.9240  141.3240 C   0  0  0  0  0  2  0  0  0  0  0  0
  184.9350  179.7530  140.1700 O   0  0  0  0  0  0  0  0  0  0  0  0
  182.9520  178.8700  139.1890 C   0  0  0  0  0  0  0  0  0  0  0  0
  184.6320  179.2350  141.4680 C   0  0  2  0  0  3  0  0  0  0  0  0
  184.0470  179.6280  139.0940 C   0  0  0  0  0  3  0  0  0  0  0  0
  182.1010  178.7880  138.1400 F   0  0  0  0  0  0  0  0  0  0  0  0
  182.6120  178.1720  140.4760 C   0  0  0  0  0  2  0  0  0  0  0  0
  184.8540  179.1160  144.6200 C   0  0  0  0  0  2  0  0  0  0  0  0
  183.4230  178.6280  144.7930 C   0  0  0  0  0  1  0  0  0  0  0  0
  189.1230  177.6840  139.8730 O   0  0  0  0  0  0  0  0  0  0  0  0
  188.6590  176.7940  138.8560 C   0  0  2  0  0  3  0  0  0  0  0  0
  188.3360  176.8020  136.5110 C   0  0  1  0  0  3  0  0  0  0  0  0
  189.7220  176.0700  138.2970 O   0  0  0  0  0  0  0  0  0  0  0  0
  186.5580  177.4290  137.9450 O   0  0  0  0  0  1  0  0  0  0  0  0
  187.9350  177.5370  137.7550 C   0  0  1  0  0  3  0  0  0  0  0  0
  189.0560  177.7530  135.5750 C   0  0  0  0  0  1  0  0  0  0  0  0
  189.3010  175.7420  136.9990 C   0  0  0  0  0  2  0  0  0  0  0  0
  1 10  2  0  0  0  0
  1 11  1  0  0  0  0
  3  5  1  6  0  0  0
  3  9  1  0  0  0  0
  4  8  1  0  0  0  0
  4  7  1  0  0  0  0
  5 11  1  0  0  0  0
  6  8  2  0  0  0  0
  7  2  2  0  0  0  0
  9  7  1  0  0  0  0
  9 19  1  1  0  0  0
 10  6  1  0  0  0  0
 11  4  2  0  0  0  0
 13 15  1  0  0  0  0
 14 18  1  0  0  0  0
 15 12  1  6  0  0  0
 15  3  1  0  0  0  0
 16 14  2  0  0  0  0
 16 13  1  0  0  0  0
 17 14  1  0  0  0  0
 18 12  1  0  0  0  0
 19 20  1  0  0  0  0
 21  1  1  0  0  0  0
 22 21  1  1  0  0  0
 23 27  1  6  0  0  0
 23 28  1  0  0  0  0
 23 26  1  0  0  0  0
 24 22  1  0  0  0  0
 26 25  1  1  0  0  0
 26 22  1  0  0  0  0
 28 24  1  0  0  0  0
M  END
>  <MODEL>
9

>  <REMARK>
 VINA RESULT:      -8.0      3.119      5.843
  Name = 
  4 active torsions:
  status: ('A' for Active; 'I' for Inactive)
    1  A    between atoms: C_1  and  O_2
    2  A    between atoms: O_2  and  C_3
    3  A    between atoms: C_10  and  C_13
    4  A    between atoms: C_14  and  C_25
                            x       y       z     vdW  Elec       q    Type
                         _______ _______ _______ _____ _____    ______ ____

>  <TORSDO>
F 4

$$$$
