=
 OpenBabel11052413333D

 28 31  0  0  1  0  0  0  0  0999 V2000
  181.0560  180.3600  137.2740 C   0  0  2  0  0  3  0  0  0  0  0  0
  183.6670  178.2320  141.6980 C   0  0  0  0  0  3  0  0  0  0  0  0
  180.3320  175.5010  138.2880 C   0  0  0  0  0  1  0  0  0  0  0  0
  181.3610  178.4100  142.4420 C   0  0  0  0  0  0  0  0  0  0  0  0
  181.8430  177.6920  140.0580 C   0  0  2  0  0  3  0  0  0  0  0  0
  183.1750  178.9570  143.9540 C   0  0  0  0  0  0  0  0  0  0  0  0
  182.2980  178.1010  141.4340 C   0  0  0  0  0  0  0  0  0  0  0  0
  179.5510  178.1340  140.7400 C   0  0  0  0  0  2  0  0  0  0  0  0
  181.8070  178.8260  143.6990 C   0  0  0  0  0  3  0  0  0  0  0  0
  180.2810  177.9200  137.6410 C   0  0  1  0  0  3  0  0  0  0  0  0
  182.1250  178.8140  139.0380 C   0  0  2  0  0  3  0  0  0  0  0  0
  179.8920  178.2030  142.2250 C   0  0  0  0  0  2  0  0  0  0  0  0
  179.4680  179.2030  135.6820 C   0  0  0  0  0  2  0  0  0  0  0  0
  179.9110  176.8920  138.7250 C   0  0  2  0  0  3  0  0  0  0  0  0
  179.0750  178.2080  136.7600 C   0  0  0  0  0  2  0  0  0  0  0  0
  183.6210  179.3860  145.2350 N   0  0  0  0  0  1  0  0  0  0  0  0
  184.1040  178.6580  142.9550 C   0  0  0  0  0  3  0  0  0  0  0  0
  180.4460  177.1880  140.0670 N   0  0  1  0  0  0  0  0  0  0  0  0
  179.8540  180.5200  136.3390 C   0  0  0  0  0  2  0  0  0  0  0  0
  180.8520  179.1970  138.2680 C   0  0  1  0  0  3  0  0  0  0  0  0
  181.2580  181.9070  138.1580 S   0  0  0  0  0  0  0  0  0  0  0  0
  180.3770  181.8930  139.3770 O   0  0  0  0  0  0  0  0  0  0  0  0
  182.6920  182.0450  138.5900 O   0  0  0  0  0  0  0  0  0  0  0  0
  181.7340  184.4780  137.4500 C   0  0  0  0  0  1  0  0  0  0  0  0
  180.8180  183.3090  137.1500 C   0  0  0  0  0  2  0  0  0  0  0  0
  183.2410  178.3310  138.1130 C   0  0  0  0  0  2  0  0  0  0  0  0
  184.5770  178.9310  138.5020 C   0  0  0  0  0  2  0  0  0  0  0  0
  185.6940  178.0370  138.0050 C   0  0  0  0  0  1  0  0  0  0  0  0
  1 21  1  1  0  0  0
  1 20  1  0  0  0  0
  2 17  1  0  0  0  0
  4  9  2  0  0  0  0
  5 18  1  0  0  0  0
  5  7  1  1  0  0  0
  6 16  1  0  0  0  0
  7  2  2  0  0  0  0
  7  4  1  0  0  0  0
  8 12  1  0  0  0  0
  9  6  1  0  0  0  0
 10 15  1  1  0  0  0
 10 20  1  0  0  0  0
 10 14  1  0  0  0  0
 11 26  1  6  0  0  0
 11  5  1  0  0  0  0
 12  4  1  0  0  0  0
 13 19  1  0  0  0  0
 13 15  1  0  0  0  0
 14  3  1  6  0  0  0
 14 18  1  0  0  0  0
 17  6  2  0  0  0  0
 18  8  1  6  0  0  0
 19  1  1  0  0  0  0
 20 11  1  0  0  0  0
 21 23  2  0  0  0  0
 21 22  2  0  0  0  0
 25 24  1  0  0  0  0
 25 21  1  0  0  0  0
 26 27  1  0  0  0  0
 28 27  1  0  0  0  0
M  END
>  <MODEL>
1

>  <REMARK>
 VINA RESULT:      -5.9      0.000      0.000
  Name = 
  4 active torsions:
  status: ('A' for Active; 'I' for Inactive)
    1  A    between atoms: C_1  and  S_2
    2  A    between atoms: S_2  and  C_11
    3  A    between atoms: C_6  and  C_28
    4  A    between atoms: C_17  and  C_28
                            x       y       z     vdW  Elec       q    Type
                         _______ _______ _______ _____ _____    ______ ____

>  <TORSDO>
F 4

$$$$
=
 OpenBabel11052413333D

 28 31  0  0  1  0  0  0  0  0999 V2000
  179.8070  176.8050  138.8870 C   0  0  2  0  0  3  0  0  0  0  0  0
  182.7840  179.1070  142.9810 C   0  0  0  0  0  3  0  0  0  0  0  0
  181.4680  181.4880  138.2050 C   0  0  0  0  0  1  0  0  0  0  0  0
  184.4540  178.6010  141.2910 C   0  0  0  0  0  0  0  0  0  0  0  0
  182.1790  179.4570  140.5680 C   0  0  2  0  0  3  0  0  0  0  0  0
  184.9490  178.2470  143.6370 C   0  0  0  0  0  0  0  0  0  0  0  0
  183.1670  179.0650  141.6350 C   0  0  0  0  0  0  0  0  0  0  0  0
  183.7650  178.6940  138.8900 C   0  0  0  0  0  2  0  0  0  0  0  0
  185.3400  178.2060  142.2970 C   0  0  0  0  0  3  0  0  0  0  0  0
  180.6970  179.1070  138.1160 C   0  0  1  0  0  3  0  0  0  0  0  0
  181.0440  178.4170  140.4720 C   0  0  2  0  0  3  0  0  0  0  0  0
  184.9320  178.6200  139.8690 C   0  0  0  0  0  2  0  0  0  0  0  0
  179.1960  177.7950  136.6430 C   0  0  0  0  0  2  0  0  0  0  0  0
  181.9200  180.0400  138.1720 C   0  0  2  0  0  3  0  0  0  0  0  0
  180.4210  178.6930  136.6780 C   0  0  0  0  0  2  0  0  0  0  0  0
  185.8540  177.8370  144.6550 N   0  0  0  0  0  1  0  0  0  0  0  0
  183.6720  178.7000  143.9800 C   0  0  0  0  0  3  0  0  0  0  0  0
  182.8530  179.7710  139.2820 N   0  0  1  0  0  0  0  0  0  0  0  0
  179.4920  176.5200  137.4160 C   0  0  0  0  0  2  0  0  0  0  0  0
  180.8880  177.8970  139.0360 C   0  0  1  0  0  3  0  0  0  0  0  0
  180.3670  175.2680  139.6240 S   0  0  0  0  0  0  0  0  0  0  0  0
  180.0600  174.1350  138.6840 O   0  0  0  0  0  0  0  0  0  0  0  0
  181.8530  175.3380  139.8410 O   0  0  0  0  0  0  0  0  0  0  0  0
  179.5450  173.4630  141.4690 C   0  0  0  0  0  1  0  0  0  0  0  0
  179.5660  174.9510  141.1840 C   0  0  0  0  0  2  0  0  0  0  0  0
  179.7670  179.0740  140.9950 C   0  0  0  0  0  2  0  0  0  0  0  0
  179.3120  178.4390  142.2920 C   0  0  0  0  0  2  0  0  0  0  0  0
  179.1640  179.5100  143.3520 C   0  0  0  0  0  1  0  0  0  0  0  0
  1 20  1  0  0  0  0
  1 21  1  6  0  0  0
  2 17  1  0  0  0  0
  4  7  1  0  0  0  0
  4  9  2  0  0  0  0
  5  7  1  1  0  0  0
  6 17  2  0  0  0  0
  6 16  1  0  0  0  0
  7  2  2  0  0  0  0
  8 12  1  0  0  0  0
  9  6  1  0  0  0  0
 10 15  1  6  0  0  0
 10 14  1  0  0  0  0
 10 20  1  0  0  0  0
 11  5  1  0  0  0  0
 11 26  1  6  0  0  0
 12  4  1  0  0  0  0
 13 15  1  0  0  0  0
 13 19  1  0  0  0  0
 14  3  1  1  0  0  0
 14 18  1  0  0  0  0
 18  8  1  6  0  0  0
 18  5  1  0  0  0  0
 19  1  1  0  0  0  0
 20 11  1  0  0  0  0
 21 23  2  0  0  0  0
 21 25  1  0  0  0  0
 22 21  2  0  0  0  0
 25 24  1  0  0  0  0
 26 27  1  0  0  0  0
 27 28  1  0  0  0  0
M  END
>  <MODEL>
2

>  <REMARK>
 VINA RESULT:      -5.5      2.845      5.114
  Name = 
  4 active torsions:
  status: ('A' for Active; 'I' for Inactive)
    1  A    between atoms: C_1  and  S_2
    2  A    between atoms: S_2  and  C_11
    3  A    between atoms: C_6  and  C_28
    4  A    between atoms: C_17  and  C_28
                            x       y       z     vdW  Elec       q    Type
                         _______ _______ _______ _____ _____    ______ ____

>  <TORSDO>
F 4

$$$$
=
 OpenBabel11052413333D

 28 31  0  0  1  0  0  0  0  0999 V2000
  183.1530  177.7540  138.8960 C   0  0  2  0  0  3  0  0  0  0  0  0
  179.3360  181.7900  138.6480 C   0  0  0  0  0  3  0  0  0  0  0  0
  178.9310  176.8110  136.3570 C   0  0  0  0  0  1  0  0  0  0  0  0
  180.3060  181.7980  136.4200 C   0  0  0  0  0  0  0  0  0  0  0  0
  179.9210  179.5850  137.5960 C   0  0  2  0  0  3  0  0  0  0  0  0
  179.7550  183.8890  137.5170 C   0  0  0  0  0  0  0  0  0  0  0  0
  179.8350  181.0880  137.5440 C   0  0  0  0  0  0  0  0  0  0  0  0
  181.1300  179.6310  135.4870 C   0  0  0  0  0  2  0  0  0  0  0  0
  180.2510  183.1950  136.4100 C   0  0  0  0  0  3  0  0  0  0  0  0
  181.2300  177.0260  137.3270 C   0  0  1  0  0  3  0  0  0  0  0  0
  180.9990  179.1390  138.6050 C   0  0  2  0  0  3  0  0  0  0  0  0
  180.7690  181.0820  135.1860 C   0  0  0  0  0  2  0  0  0  0  0  0
  183.0810  175.4590  137.8360 C   0  0  0  0  0  2  0  0  0  0  0  0
  180.2600  177.5340  136.2450 C   0  0  2  0  0  3  0  0  0  0  0  0
  182.1520  175.9650  136.7470 C   0  0  0  0  0  2  0  0  0  0  0  0
  179.7090  185.3100  137.5030 N   0  0  0  0  0  1  0  0  0  0  0  0
  179.2960  183.1870  138.6340 C   0  0  0  0  0  3  0  0  0  0  0  0
  180.0470  178.9930  136.2400 N   0  0  1  0  0  0  0  0  0  0  0  0
  183.9690  176.6020  138.3020 C   0  0  0  0  0  2  0  0  0  0  0  0
  182.0110  178.1870  137.9510 C   0  0  1  0  0  3  0  0  0  0  0  0
  184.2790  179.1200  139.1810 S   0  0  0  0  0  0  0  0  0  0  0  0
  185.4050  179.0400  138.1880 O   0  0  0  0  0  0  0  0  0  0  0  0
  183.5420  180.4160  138.9860 O   0  0  0  0  0  0  0  0  0  0  0  0
  184.0680  178.2760  141.7470 C   0  0  0  0  0  1  0  0  0  0  0  0
  184.9620  179.0830  140.8260 C   0  0  0  0  0  2  0  0  0  0  0  0
  180.2840  178.4990  139.7950 C   0  0  0  0  0  2  0  0  0  0  0  0
  180.3740  179.3750  141.0270 C   0  0  0  0  0  2  0  0  0  0  0  0
  180.4090  178.5020  142.2640 C   0  0  0  0  0  1  0  0  0  0  0  0
  1 21  1  6  0  0  0
  4  7  1  0  0  0  0
  5  7  1  6  0  0  0
  5 11  1  0  0  0  0
  6 17  2  0  0  0  0
  7  2  2  0  0  0  0
  9  4  2  0  0  0  0
  9  6  1  0  0  0  0
 10 15  1  6  0  0  0
 10 20  1  0  0  0  0
 11 26  1  1  0  0  0
 12  8  1  0  0  0  0
 12  4  1  0  0  0  0
 13 19  1  0  0  0  0
 14  3  1  1  0  0  0
 14 10  1  0  0  0  0
 15 13  1  0  0  0  0
 16  6  1  0  0  0  0
 17  2  1  0  0  0  0
 18  8  1  1  0  0  0
 18 14  1  0  0  0  0
 18  5  1  0  0  0  0
 19  1  1  0  0  0  0
 20 11  1  0  0  0  0
 20  1  1  0  0  0  0
 21 25  1  0  0  0  0
 22 21  2  0  0  0  0
 23 21  2  0  0  0  0
 25 24  1  0  0  0  0
 26 27  1  0  0  0  0
 27 28  1  0  0  0  0
M  END
>  <MODEL>
3

>  <REMARK>
 VINA RESULT:      -4.8      2.685      5.770
  Name = 
  4 active torsions:
  status: ('A' for Active; 'I' for Inactive)
    1  A    between atoms: C_1  and  S_2
    2  A    between atoms: S_2  and  C_11
    3  A    between atoms: C_6  and  C_28
    4  A    between atoms: C_17  and  C_28
                            x       y       z     vdW  Elec       q    Type
                         _______ _______ _______ _____ _____    ______ ____

>  <TORSDO>
F 4

$$$$
=
 OpenBabel11052413333D

 28 31  0  0  1  0  0  0  0  0999 V2000
  185.1780  176.1650  137.6040 C   0  0  2  0  0  3  0  0  0  0  0  0
  181.6520  180.3170  138.7230 C   0  0  0  0  0  3  0  0  0  0  0  0
  180.4500  174.9540  138.7610 C   0  0  0  0  0  1  0  0  0  0  0  0
  180.9690  179.5840  136.5100 C   0  0  0  0  0  0  0  0  0  0  0  0
  181.6780  177.8550  138.2240 C   0  0  2  0  0  3  0  0  0  0  0  0
  181.0110  181.9460  137.0520 C   0  0  0  0  0  0  0  0  0  0  0  0
  181.4080  179.2790  137.8150 C   0  0  0  0  0  0  0  0  0  0  0  0
  181.2500  177.1690  135.9310 C   0  0  0  0  0  2  0  0  0  0  0  0
  180.7630  180.9160  136.1410 C   0  0  0  0  0  3  0  0  0  0  0  0
  182.7950  175.2110  137.9210 C   0  0  1  0  0  3  0  0  0  0  0  0
  183.1930  177.6150  138.3820 C   0  0  2  0  0  3  0  0  0  0  0  0
  180.6170  178.4990  135.5360 C   0  0  0  0  0  2  0  0  0  0  0  0
  184.7090  173.6810  137.5450 C   0  0  0  0  0  2  0  0  0  0  0  0
  181.3090  175.4770  137.6250 C   0  0  2  0  0  3  0  0  0  0  0  0
  183.2490  173.9400  137.2180 C   0  0  0  0  0  2  0  0  0  0  0  0
  180.8060  183.3000  136.6670 N   0  0  0  0  0  1  0  0  0  0  0  0
  181.4530  181.6470  138.3430 C   0  0  0  0  0  3  0  0  0  0  0  0
  180.9770  176.8870  137.3430 N   0  0  1  0  0  0  0  0  0  0  0  0
  185.5530  174.8160  136.9850 C   0  0  0  0  0  2  0  0  0  0  0  0
  183.6570  176.4190  137.5370 C   0  0  1  0  0  3  0  0  0  0  0  0
  186.0620  177.4360  136.7000 S   0  0  0  0  0  0  0  0  0  0  0  0
  185.2450  177.8450  135.5060 O   0  0  0  0  0  0  0  0  0  0  0  0
  186.2600  178.6300  137.5920 O   0  0  0  0  0  0  0  0  0  0  0  0
  188.7260  177.8760  136.4810 C   0  0  0  0  0  1  0  0  0  0  0  0
  187.6520  176.8640  136.1360 C   0  0  0  0  0  2  0  0  0  0  0  0
  183.4800  177.4210  139.8710 C   0  0  0  0  0  2  0  0  0  0  0  0
  184.2740  178.5810  140.4340 C   0  0  0  0  0  2  0  0  0  0  0  0
  184.3440  178.4590  141.9410 C   0  0  0  0  0  1  0  0  0  0  0  0
  1 21  1  6  0  0  0
  4  7  1  0  0  0  0
  5  7  1  6  0  0  0
  5 11  1  0  0  0  0
  6 17  2  0  0  0  0
  7  2  2  0  0  0  0
  9  4  2  0  0  0  0
  9  6  1  0  0  0  0
 10 15  1  6  0  0  0
 11 26  1  1  0  0  0
 12  8  1  0  0  0  0
 12  4  1  0  0  0  0
 14 10  1  0  0  0  0
 14  3  1  1  0  0  0
 15 13  1  0  0  0  0
 16  6  1  0  0  0  0
 17  2  1  0  0  0  0
 18  8  1  6  0  0  0
 18 14  1  0  0  0  0
 18  5  1  0  0  0  0
 19 13  1  0  0  0  0
 19  1  1  0  0  0  0
 20  1  1  0  0  0  0
 20 10  1  0  0  0  0
 20 11  1  0  0  0  0
 21 23  2  0  0  0  0
 22 21  2  0  0  0  0
 25 24  1  0  0  0  0
 25 21  1  0  0  0  0
 26 27  1  0  0  0  0
 27 28  1  0  0  0  0
M  END
>  <MODEL>
4

>  <REMARK>
 VINA RESULT:      -4.7      3.273      5.917
  Name = 
  4 active torsions:
  status: ('A' for Active; 'I' for Inactive)
    1  A    between atoms: C_1  and  S_2
    2  A    between atoms: S_2  and  C_11
    3  A    between atoms: C_6  and  C_28
    4  A    between atoms: C_17  and  C_28
                            x       y       z     vdW  Elec       q    Type
                         _______ _______ _______ _____ _____    ______ ____

>  <TORSDO>
F 4

$$$$
=
 OpenBabel11052413333D

 28 31  0  0  1  0  0  0  0  0999 V2000
  182.6380  179.2460  142.0840 C   0  0  2  0  0  3  0  0  0  0  0  0
  184.0540  177.8760  136.8840 C   0  0  0  0  0  3  0  0  0  0  0  0
  178.9480  178.0250  138.9140 C   0  0  0  0  0  1  0  0  0  0  0  0
  183.4760  175.7400  137.8890 C   0  0  0  0  0  0  0  0  0  0  0  0
  182.1040  177.7930  138.4670 C   0  0  2  0  0  3  0  0  0  0  0  0
  185.3710  175.9070  136.3860 C   0  0  0  0  0  0  0  0  0  0  0  0
  183.2210  177.1170  137.7160 C   0  0  0  0  0  0  0  0  0  0  0  0
  181.7120  175.7120  139.6600 C   0  0  0  0  0  2  0  0  0  0  0  0
  184.5430  175.1430  137.2120 C   0  0  0  0  0  3  0  0  0  0  0  0
  180.5390  178.4500  140.8010 C   0  0  1  0  0  3  0  0  0  0  0  0
  182.6700  178.7210  139.5610 C   0  0  2  0  0  3  0  0  0  0  0  0
  182.5590  174.8780  138.7040 C   0  0  0  0  0  2  0  0  0  0  0  0
  180.3340  179.2950  143.1220 C   0  0  0  0  0  2  0  0  0  0  0  0
  180.0350  177.4160  139.7800 C   0  0  2  0  0  3  0  0  0  0  0  0
  179.8420  178.2480  142.1380 C   0  0  0  0  0  2  0  0  0  0  0  0
  186.4590  175.2940  135.7060 N   0  0  0  0  0  1  0  0  0  0  0  0
  185.1250  177.2730  136.2200 C   0  0  0  0  0  3  0  0  0  0  0  0
  181.0850  176.8190  138.9330 N   0  0  1  0  0  0  0  0  0  0  0  0
  181.8200  179.0870  143.3680 C   0  0  0  0  0  2  0  0  0  0  0  0
  182.0640  178.3920  140.9340 C   0  0  1  0  0  3  0  0  0  0  0  0
  184.3200  178.7470  142.4530 S   0  0  0  0  0  0  0  0  0  0  0  0
  184.5800  177.4040  141.8290 O   0  0  0  0  0  0  0  0  0  0  0  0
  185.2740  179.7530  141.8690 O   0  0  0  0  0  0  0  0  0  0  0  0
  185.9530  177.9850  144.4770 C   0  0  0  0  0  1  0  0  0  0  0  0
  184.6070  178.6270  144.2080 C   0  0  0  0  0  2  0  0  0  0  0  0
  182.3950  180.1630  139.1350 C   0  0  0  0  0  2  0  0  0  0  0  0
  181.5550  180.2140  137.8760 C   0  0  0  0  0  2  0  0  0  0  0  0
  180.8070  181.5300  137.8230 C   0  0  0  0  0  1  0  0  0  0  0  0
  1 21  1  1  0  0  0
  1 19  1  0  0  0  0
  2  7  1  0  0  0  0
  4 12  1  0  0  0  0
  5  7  1  1  0  0  0
  5 18  1  0  0  0  0
  5 11  1  0  0  0  0
  6  9  2  0  0  0  0
  7  4  2  0  0  0  0
  9  4  1  0  0  0  0
 10 20  1  0  0  0  0
 10 15  1  1  0  0  0
 11 26  1  6  0  0  0
 11 20  1  0  0  0  0
 12  8  1  0  0  0  0
 13 19  1  0  0  0  0
 14  3  1  6  0  0  0
 14 10  1  0  0  0  0
 15 13  1  0  0  0  0
 16  6  1  0  0  0  0
 17  6  1  0  0  0  0
 17  2  2  0  0  0  0
 18  8  1  1  0  0  0
 18 14  1  0  0  0  0
 20  1  1  0  0  0  0
 21 25  1  0  0  0  0
 22 21  2  0  0  0  0
 23 21  2  0  0  0  0
 25 24  1  0  0  0  0
 27 26  1  0  0  0  0
 28 27  1  0  0  0  0
M  END
>  <MODEL>
5

>  <REMARK>
 VINA RESULT:      -4.7      2.817      5.876
  Name = 
  4 active torsions:
  status: ('A' for Active; 'I' for Inactive)
    1  A    between atoms: C_1  and  S_2
    2  A    between atoms: S_2  and  C_11
    3  A    between atoms: C_6  and  C_28
    4  A    between atoms: C_17  and  C_28
                            x       y       z     vdW  Elec       q    Type
                         _______ _______ _______ _____ _____    ______ ____

>  <TORSDO>
F 4

$$$$
=
 OpenBabel11052413333D

 28 31  0  0  1  0  0  0  0  0999 V2000
  183.9480  177.6470  138.3740 C   0  0  2  0  0  3  0  0  0  0  0  0
  179.8290  177.6550  142.1100 C   0  0  0  0  0  3  0  0  0  0  0  0
  179.2820  176.8950  136.6940 C   0  0  0  0  0  1  0  0  0  0  0  0
  179.5600  179.7870  140.9750 C   0  0  0  0  0  0  0  0  0  0  0  0
  180.2200  177.7410  139.6300 C   0  0  2  0  0  3  0  0  0  0  0  0
  179.2430  179.6340  143.3740 C   0  0  0  0  0  0  0  0  0  0  0  0
  179.8420  178.4060  140.9270 C   0  0  0  0  0  0  0  0  0  0  0  0
  180.2060  179.9270  138.5650 C   0  0  0  0  0  2  0  0  0  0  0  0
  179.2510  180.3890  142.1980 C   0  0  0  0  0  3  0  0  0  0  0  0
  181.6760  177.4720  137.1510 C   0  0  1  0  0  3  0  0  0  0  0  0
  181.7150  177.3630  139.6290 C   0  0  2  0  0  3  0  0  0  0  0  0
  179.4820  180.6070  139.7220 C   0  0  0  0  0  2  0  0  0  0  0  0
  183.7920  177.3590  135.8660 C   0  0  0  0  0  2  0  0  0  0  0  0
  180.2250  177.9870  137.1620 C   0  0  2  0  0  3  0  0  0  0  0  0
  182.3730  177.8990  135.8680 C   0  0  0  0  0  2  0  0  0  0  0  0
  178.9340  180.2550  144.6160 N   0  0  0  0  0  1  0  0  0  0  0  0
  179.5300  178.2670  143.3290 C   0  0  0  0  0  3  0  0  0  0  0  0
  179.7710  178.5330  138.4550 N   0  0  1  0  0  0  0  0  0  0  0  0
  184.5650  177.9890  137.0140 C   0  0  0  0  0  2  0  0  0  0  0  0
  182.4320  177.9390  138.3990 C   0  0  1  0  0  3  0  0  0  0  0  0
  184.7940  178.6310  139.6110 S   0  0  0  0  0  0  0  0  0  0  0  0
  186.2740  178.5750  139.3520 O   0  0  0  0  0  0  0  0  0  0  0  0
  184.3320  180.0590  139.5080 O   0  0  0  0  0  0  0  0  0  0  0  0
  185.2190  178.8860  142.2740 C   0  0  0  0  0  1  0  0  0  0  0  0
  184.4790  178.0370  141.2600 C   0  0  0  0  0  2  0  0  0  0  0  0
  181.8080  175.8390  139.6950 C   0  0  0  0  0  2  0  0  0  0  0  0
  180.4340  175.2020  139.6850 C   0  0  0  0  0  2  0  0  0  0  0  0
  180.4140  174.0610  138.6900 C   0  0  0  0  0  1  0  0  0  0  0  0
  1 20  1  0  0  0  0
  1 21  1  1  0  0  0
  2 17  1  0  0  0  0
  4  9  2  0  0  0  0
  5  7  1  1  0  0  0
  6 16  1  0  0  0  0
  7  4  1  0  0  0  0
  7  2  2  0  0  0  0
  8 12  1  0  0  0  0
  9  6  1  0  0  0  0
 10 15  1  6  0  0  0
 10 14  1  0  0  0  0
 10 20  1  0  0  0  0
 11  5  1  0  0  0  0
 11 26  1  6  0  0  0
 12  4  1  0  0  0  0
 13 15  1  0  0  0  0
 13 19  1  0  0  0  0
 14  3  1  1  0  0  0
 14 18  1  0  0  0  0
 17  6  2  0  0  0  0
 18  8  1  1  0  0  0
 18  5  1  0  0  0  0
 19  1  1  0  0  0  0
 20 11  1  0  0  0  0
 21 25  1  0  0  0  0
 22 21  2  0  0  0  0
 23 21  2  0  0  0  0
 25 24  1  0  0  0  0
 27 26  1  0  0  0  0
 28 27  1  0  0  0  0
M  END
>  <MODEL>
6

>  <REMARK>
 VINA RESULT:      -4.5      2.438      4.301
  Name = 
  4 active torsions:
  status: ('A' for Active; 'I' for Inactive)
    1  A    between atoms: C_1  and  S_2
    2  A    between atoms: S_2  and  C_11
    3  A    between atoms: C_6  and  C_28
    4  A    between atoms: C_17  and  C_28
                            x       y       z     vdW  Elec       q    Type
                         _______ _______ _______ _____ _____    ______ ____

>  <TORSDO>
F 4

$$$$
=
 OpenBabel11052413333D

 28 31  0  0  1  0  0  0  0  0999 V2000
  180.4140  179.8340  137.1600 C   0  0  2  0  0  3  0  0  0  0  0  0
  180.6820  174.4070  138.3440 C   0  0  0  0  0  3  0  0  0  0  0  0
  183.1770  178.4490  141.1090 C   0  0  0  0  0  1  0  0  0  0  0  0
  182.8610  174.8780  137.3780 C   0  0  0  0  0  0  0  0  0  0  0  0
  181.7890  176.5900  138.9110 C   0  0  2  0  0  3  0  0  0  0  0  0
  181.7110  172.8130  136.8420 C   0  0  0  0  0  0  0  0  0  0  0  0
  181.7880  175.2560  138.2120 C   0  0  0  0  0  0  0  0  0  0  0  0
  183.8370  177.1520  137.7280 C   0  0  0  0  0  2  0  0  0  0  0  0
  182.8190  173.6520  136.7080 C   0  0  0  0  0  3  0  0  0  0  0  0
  182.0960  179.4550  139.0870 C   0  0  1  0  0  3  0  0  0  0  0  0
  180.7490  177.5360  138.2770 C   0  0  2  0  0  3  0  0  0  0  0  0
  184.0980  175.7190  137.2760 C   0  0  0  0  0  2  0  0  0  0  0  0
  181.5620  181.7550  138.3350 C   0  0  0  0  0  2  0  0  0  0  0  0
  183.2010  178.5110  139.5930 C   0  0  2  0  0  3  0  0  0  0  0  0
  182.6730  180.8340  138.8070 C   0  0  0  0  0  2  0  0  0  0  0  0
  181.6720  171.5700  136.1510 N   0  0  0  0  0  1  0  0  0  0  0  0
  180.6430  173.1890  137.6620 C   0  0  0  0  0  3  0  0  0  0  0  0
  183.1600  177.1500  139.0270 N   0  0  1  0  0  0  0  0  0  0  0  0
  181.0130  181.2360  137.0160 C   0  0  0  0  0  2  0  0  0  0  0  0
  181.3920  178.8670  137.8590 C   0  0  1  0  0  3  0  0  0  0  0  0
  180.0250  179.2440  135.5120 S   0  0  0  0  0  0  0  0  0  0  0  0
  178.9310  178.2170  135.6060 O   0  0  0  0  0  0  0  0  0  0  0  0
  179.5440  180.3980  134.6750 O   0  0  0  0  0  0  0  0  0  0  0  0
  181.2860  176.9960  134.6780 C   0  0  0  0  0  1  0  0  0  0  0  0
  181.4390  178.5040  134.7210 C   0  0  0  0  0  2  0  0  0  0  0  0
  179.6190  177.7280  139.2880 C   0  0  0  0  0  2  0  0  0  0  0  0
  179.9220  177.0230  140.5930 C   0  0  0  0  0  2  0  0  0  0  0  0
  179.6400  177.9590  141.7490 C   0  0  0  0  0  1  0  0  0  0  0  0
  1 21  1  6  0  0  0
  1 20  1  0  0  0  0
  4  7  2  0  0  0  0
  5  7  1  6  0  0  0
  5 18  1  0  0  0  0
  6 17  1  0  0  0  0
  7  2  1  0  0  0  0
  9  6  2  0  0  0  0
  9  4  1  0  0  0  0
 10 15  1  6  0  0  0
 10 14  1  0  0  0  0
 11  5  1  0  0  0  0
 11 26  1  1  0  0  0
 12  4  1  0  0  0  0
 12  8  1  0  0  0  0
 13 15  1  0  0  0  0
 14  3  1  1  0  0  0
 16  6  1  0  0  0  0
 17  2  2  0  0  0  0
 18  8  1  6  0  0  0
 18 14  1  0  0  0  0
 19  1  1  0  0  0  0
 19 13  1  0  0  0  0
 20 11  1  0  0  0  0
 20 10  1  0  0  0  0
 21 22  2  0  0  0  0
 23 21  2  0  0  0  0
 24 25  1  0  0  0  0
 25 21  1  0  0  0  0
 26 27  1  0  0  0  0
 27 28  1  0  0  0  0
M  END
>  <MODEL>
7

>  <REMARK>
 VINA RESULT:      -4.3      2.744      5.745
  Name = 
  4 active torsions:
  status: ('A' for Active; 'I' for Inactive)
    1  A    between atoms: C_1  and  S_2
    2  A    between atoms: S_2  and  C_11
    3  A    between atoms: C_6  and  C_28
    4  A    between atoms: C_17  and  C_28
                            x       y       z     vdW  Elec       q    Type
                         _______ _______ _______ _____ _____    ______ ____

>  <TORSDO>
F 4

$$$$
=
 OpenBabel11052413333D

 28 31  0  0  1  0  0  0  0  0999 V2000
  180.6610  175.4140  138.1630 C   0  0  2  0  0  3  0  0  0  0  0  0
  185.2910  176.5290  135.2930 C   0  0  0  0  0  3  0  0  0  0  0  0
  182.1980  172.0110  134.8150 C   0  0  0  0  0  1  0  0  0  0  0  0
  186.0100  174.8350  136.8800 C   0  0  0  0  0  0  0  0  0  0  0  0
  183.7190  174.6390  135.8120 C   0  0  2  0  0  3  0  0  0  0  0  0
  187.4540  176.7120  136.3620 C   0  0  0  0  0  0  0  0  0  0  0  0
  185.0420  175.3370  135.9850 C   0  0  0  0  0  0  0  0  0  0  0  0
  184.3480  173.1100  137.5940 C   0  0  0  0  0  2  0  0  0  0  0  0
  187.2150  175.5210  137.0540 C   0  0  0  0  0  3  0  0  0  0  0  0
  181.2910  173.3660  136.7160 C   0  0  1  0  0  3  0  0  0  0  0  0
  182.5830  175.4660  136.4470 C   0  0  2  0  0  3  0  0  0  0  0  0
  185.8170  173.5200  137.5750 C   0  0  0  0  0  2  0  0  0  0  0  0
  179.2040  173.3510  138.0530 C   0  0  0  0  0  2  0  0  0  0  0  0
  182.4800  172.5290  136.2130 C   0  0  2  0  0  3  0  0  0  0  0  0
  180.3830  172.5140  137.5900 C   0  0  0  0  0  2  0  0  0  0  0  0
  188.6800  177.4090  136.5500 N   0  0  0  0  0  1  0  0  0  0  0  0
  186.4940  177.2140  135.4810 C   0  0  0  0  0  3  0  0  0  0  0  0
  183.7830  173.2200  136.2470 N   0  0  1  0  0  0  0  0  0  0  0  0
  179.7130  174.4850  138.9280 C   0  0  0  0  0  2  0  0  0  0  0  0
  181.7750  174.6240  137.4450 C   0  0  1  0  0  3  0  0  0  0  0  0
  181.3700  176.5540  139.3520 S   0  0  0  0  0  0  0  0  0  0  0  0
  180.4290  176.6950  140.5160 O   0  0  0  0  0  0  0  0  0  0  0  0
  182.6810  176.0030  139.8430 O   0  0  0  0  0  0  0  0  0  0  0  0
  183.1340  178.4390  138.5310 C   0  0  0  0  0  1  0  0  0  0  0  0
  181.6480  178.1650  138.6420 C   0  0  0  0  0  2  0  0  0  0  0  0
  181.7160  176.0130  135.3130 C   0  0  0  0  0  2  0  0  0  0  0  0
  181.9390  177.4980  135.1170 C   0  0  0  0  0  2  0  0  0  0  0  0
  180.6020  178.2080  135.0790 C   0  0  0  0  0  1  0  0  0  0  0  0
  1 19  1  0  0  0  0
  1 21  1  1  0  0  0
  2 17  2  0  0  0  0
  2  7  1  0  0  0  0
  4  9  1  0  0  0  0
  4 12  1  0  0  0  0
  5  7  1  1  0  0  0
  5 18  1  0  0  0  0
  5 11  1  0  0  0  0
  6 16  1  0  0  0  0
  6  9  2  0  0  0  0
  7  4  2  0  0  0  0
 10 20  1  0  0  0  0
 10 15  1  1  0  0  0
 11 26  1  6  0  0  0
 11 20  1  0  0  0  0
 12  8  1  0  0  0  0
 13 19  1  0  0  0  0
 14  3  1  6  0  0  0
 14 18  1  0  0  0  0
 14 10  1  0  0  0  0
 15 13  1  0  0  0  0
 17  6  1  0  0  0  0
 18  8  1  1  0  0  0
 20  1  1  0  0  0  0
 21 23  2  0  0  0  0
 21 22  2  0  0  0  0
 24 25  1  0  0  0  0
 25 21  1  0  0  0  0
 27 26  1  0  0  0  0
 28 27  1  0  0  0  0
M  END
>  <MODEL>
8

>  <REMARK>
 VINA RESULT:      -4.2      4.176      6.552
  Name = 
  4 active torsions:
  status: ('A' for Active; 'I' for Inactive)
    1  A    between atoms: C_1  and  S_2
    2  A    between atoms: S_2  and  C_11
    3  A    between atoms: C_6  and  C_28
    4  A    between atoms: C_17  and  C_28
                            x       y       z     vdW  Elec       q    Type
                         _______ _______ _______ _____ _____    ______ ____

>  <TORSDO>
F 4

$$$$
=
 OpenBabel11052413333D

 28 31  0  0  1  0  0  0  0  0999 V2000
  183.7620  179.3380  140.8930 C   0  0  2  0  0  3  0  0  0  0  0  0
  179.5230  178.9450  137.3160 C   0  0  0  0  0  3  0  0  0  0  0  0
  179.1280  179.0940  142.7960 C   0  0  0  0  0  1  0  0  0  0  0  0
  179.6850  176.7040  138.2400 C   0  0  0  0  0  0  0  0  0  0  0  0
  180.0480  178.7010  139.7600 C   0  0  2  0  0  3  0  0  0  0  0  0
  179.2240  177.0190  135.8810 C   0  0  0  0  0  0  0  0  0  0  0  0
  179.7260  178.1030  138.4160 C   0  0  0  0  0  0  0  0  0  0  0  0
  180.4670  176.4590  140.6020 C   0  0  0  0  0  2  0  0  0  0  0  0
  179.4230  176.1720  136.9750 C   0  0  0  0  0  3  0  0  0  0  0  0
  181.5590  178.9940  142.2020 C   0  0  1  0  0  3  0  0  0  0  0  0
  181.4530  179.3370  139.7480 C   0  0  2  0  0  3  0  0  0  0  0  0
  179.8140  175.7710  139.4080 C   0  0  0  0  0  2  0  0  0  0  0  0
  183.6860  179.3610  143.4200 C   0  0  0  0  0  2  0  0  0  0  0  0
  180.2210  178.2330  142.1890 C   0  0  2  0  0  3  0  0  0  0  0  0
  182.3840  178.5810  143.4120 C   0  0  0  0  0  2  0  0  0  0  0  0
  178.9650  176.4700  134.5950 N   0  0  0  0  0  1  0  0  0  0  0  0
  179.2720  178.4050  136.0520 C   0  0  0  0  0  3  0  0  0  0  0  0
  179.8030  177.7380  140.8650 N   0  0  1  0  0  0  0  0  0  0  0  0
  184.4980  178.9870  142.1890 C   0  0  0  0  0  2  0  0  0  0  0  0
  182.3210  178.7860  140.8890 C   0  0  1  0  0  3  0  0  0  0  0  0
  184.7020  178.6380  139.5350 S   0  0  0  0  0  0  0  0  0  0  0  0
  184.7500  179.6340  138.4100 O   0  0  0  0  0  0  0  0  0  0  0  0
  186.1040  178.3540  140.0010 O   0  0  0  0  0  0  0  0  0  0  0  0
  183.3950  177.3410  137.5490 C   0  0  0  0  0  1  0  0  0  0  0  0
  183.9730  177.1280  138.9340 C   0  0  0  0  0  2  0  0  0  0  0  0
  181.2770  180.8530  139.8320 C   0  0  0  0  0  2  0  0  0  0  0  0
  181.6780  181.5250  138.5350 C   0  0  0  0  0  2  0  0  0  0  0  0
  180.5520  182.4210  138.0630 C   0  0  0  0  0  1  0  0  0  0  0  0
  1 21  1  6  0  0  0
  1 19  1  0  0  0  0
  2  7  1  0  0  0  0
  4  7  2  0  0  0  0
  4 12  1  0  0  0  0
  5  7  1  6  0  0  0
  5 18  1  0  0  0  0
  6 17  1  0  0  0  0
  6  9  2  0  0  0  0
  9  4  1  0  0  0  0
 10 15  1  1  0  0  0
 11  5  1  0  0  0  0
 11 26  1  1  0  0  0
 11 20  1  0  0  0  0
 12  8  1  0  0  0  0
 14 10  1  0  0  0  0
 14  3  1  6  0  0  0
 15 13  1  0  0  0  0
 16  6  1  0  0  0  0
 17  2  2  0  0  0  0
 18  8  1  6  0  0  0
 18 14  1  0  0  0  0
 19 13  1  0  0  0  0
 20  1  1  0  0  0  0
 20 10  1  0  0  0  0
 21 23  2  0  0  0  0
 22 21  2  0  0  0  0
 24 25  1  0  0  0  0
 25 21  1  0  0  0  0
 27 26  1  0  0  0  0
 28 27  1  0  0  0  0
M  END
>  <MODEL>
9

>  <REMARK>
 VINA RESULT:      -4.1      2.222      5.998
  Name = 
  4 active torsions:
  status: ('A' for Active; 'I' for Inactive)
    1  A    between atoms: C_1  and  S_2
    2  A    between atoms: S_2  and  C_11
    3  A    between atoms: C_6  and  C_28
    4  A    between atoms: C_17  and  C_28
                            x       y       z     vdW  Elec       q    Type
                         _______ _______ _______ _____ _____    ______ ____

>  <TORSDO>
F 4

$$$$
