=
 OpenBabel11052416513D

 32 37  0  0  1  0  0  0  0  0999 V2000
  183.5410  179.3040  144.4380 C   0  0  0  0  0  2  0  0  0  0  0  0
  188.2550  177.6250  143.3030 C   0  0  0  0  0  0  0  0  0  0  0  0
  190.2360  177.0230  147.6990 C   0  0  0  0  0  3  0  0  0  0  0  0
  191.4540  176.7100  147.0950 C   0  0  0  0  0  3  0  0  0  0  0  0
  189.5410  177.3240  141.2420 C   0  0  0  0  0  0  0  0  0  0  0  0
  188.3950  177.6410  140.4870 C   0  0  0  0  0  0  0  0  0  0  0  0
  185.8960  178.2430  143.1430 C   0  0  0  0  0  0  0  0  0  0  0  0
  186.9260  177.9460  145.2820 N   0  0  0  0  0  0  0  0  0  0  0  0
  190.7690  177.0420  139.1480 C   0  0  0  0  0  0  0  0  0  0  0  0
  184.5330  178.5090  145.2760 C   0  0  0  0  0  2  0  0  0  0  0  0
  189.1260  177.3320  146.9100 C   0  0  0  0  0  3  0  0  0  0  0  0
  188.1230  177.6380  144.7100 C   0  0  0  0  0  0  0  0  0  0  0  0
  189.2250  177.3310  145.5090 C   0  0  0  0  0  0  0  0  0  0  0  0
  190.5560  177.0130  143.4970 C   0  0  0  0  0  0  0  0  0  0  0  0
  189.6230  177.3590  138.4190 C   0  0  0  0  0  3  0  0  0  0  0  0
  185.8270  178.2600  144.5510 C   0  0  0  0  0  0  0  0  0  0  0  0
  188.4360  177.6580  139.0900 C   0  0  0  0  0  3  0  0  0  0  0  0
  184.7180  178.6440  142.2910 C   0  0  0  0  0  2  0  0  0  0  0  0
  183.3950  178.6430  143.0680 C   0  0  2  0  0  3  0  0  0  0  0  0
  191.5630  176.7050  145.7020 C   0  0  0  0  0  3  0  0  0  0  0  0
  190.4520  177.0150  144.8980 C   0  0  0  0  0  0  0  0  0  0  0  0
  191.6730  176.7250  142.9810 O   0  0  0  0  0  0  0  0  0  0  0  0
  187.1170  177.9360  142.5280 C   0  0  0  0  0  0  0  0  0  0  0  0
  187.2030  177.9430  141.1350 O   0  0  0  0  0  0  0  0  0  0  0  0
  192.0350  176.7210  138.4390 C   0  0  0  0  0  1  0  0  0  0  0  0
  189.4630  177.3160  142.7050 N   0  0  0  0  0  0  0  0  0  0  0  0
  190.7270  177.0250  140.5430 C   0  0  0  0  0  3  0  0  0  0  0  0
  182.3140  179.1510  142.3150 O   0  0  0  0  0  0  0  0  0  0  0  0
  181.2300  179.4010  143.1740 C   0  0  0  0  0  2  0  0  0  0  0  0
  180.2300  178.3080  143.0480 C   0  0  0  0  0  0  0  0  0  0  0  0
  179.8750  177.8320  141.7930 O   0  0  0  0  0  0  0  0  0  0  0  0
  179.7340  177.7880  144.0810 O   0  0  0  0  0  1  0  0  0  0  0  0
  1 10  1  0  0  0  0
  2 12  1  0  0  0  0
  4  3  1  0  0  0  0
  5 26  1  0  0  0  0
  6 24  1  0  0  0  0
  6  5  2  0  0  0  0
  7 16  2  0  0  0  0
  9 27  2  0  0  0  0
 11  3  2  0  0  0  0
 12  8  2  0  0  0  0
 12 13  1  0  0  0  0
 13 11  1  0  0  0  0
 14 21  1  0  0  0  0
 15 17  2  0  0  0  0
 15  9  1  0  0  0  0
 16 10  1  0  0  0  0
 16  8  1  0  0  0  0
 17  6  1  0  0  0  0
 18 19  1  0  0  0  0
 18  7  1  0  0  0  0
 19 28  1  6  0  0  0
 19  1  1  0  0  0  0
 20  4  2  0  0  0  0
 21 13  2  0  0  0  0
 21 20  1  0  0  0  0
 22 14  2  0  0  0  0
 23  7  1  0  0  0  0
 23  2  2  0  0  0  0
 24 23  1  0  0  0  0
 25  9  1  0  0  0  0
 26  2  1  0  0  0  0
 26 14  1  0  0  0  0
 27  5  1  0  0  0  0
 28 29  1  0  0  0  0
 30 29  1  0  0  0  0
 30 32  1  0  0  0  0
 31 30  2  0  0  0  0
M  END
>  <MODEL>
1

>  <REMARK>
 VINA RESULT:     -11.4      0.000      0.000
  Name = 
  3 active torsions:
  status: ('A' for Active; 'I' for Inactive)
    1  A    between atoms: C_1  and  C_10
    2  A    between atoms: C_10  and  O_19
    3  A    between atoms: O_19  and  C_24
                            x       y       z     vdW  Elec       q    Type
                         _______ _______ _______ _____ _____    ______ ____

>  <TORSDO>
F 3

$$$$
=
 OpenBabel11052416513D

 32 37  0  0  1  0  0  0  0  0999 V2000
  190.7880  177.0060  140.0740 C   0  0  0  0  0  2  0  0  0  0  0  0
  187.1680  177.9980  143.5730 C   0  0  0  0  0  0  0  0  0  0  0  0
  189.5950  177.5110  147.7540 C   0  0  0  0  0  3  0  0  0  0  0  0
  188.4040  177.7010  148.4550 C   0  0  0  0  0  3  0  0  0  0  0  0
  184.7560  178.4050  143.5070 C   0  0  0  0  0  0  0  0  0  0  0  0
  184.8020  178.4220  142.0990 C   0  0  0  0  0  0  0  0  0  0  0  0
  188.3960  177.8370  141.4670 C   0  0  0  0  0  0  0  0  0  0  0  0
  189.5390  177.5930  143.5540 N   0  0  0  0  0  0  0  0  0  0  0  0
  182.3490  178.8090  143.3720 C   0  0  0  0  0  0  0  0  0  0  0  0
  190.9140  177.4650  141.5210 C   0  0  0  0  0  2  0  0  0  0  0  0
  189.5930  177.5350  146.3580 C   0  0  0  0  0  3  0  0  0  0  0  0
  188.3860  177.7760  144.2550 C   0  0  0  0  0  0  0  0  0  0  0  0
  188.4000  177.7500  145.6500 C   0  0  0  0  0  0  0  0  0  0  0  0
  186.0010  178.1580  145.6510 C   0  0  0  0  0  0  0  0  0  0  0  0
  182.4170  178.8220  141.9790 C   0  0  0  0  0  3  0  0  0  0  0  0
  189.5780  177.6010  142.1980 C   0  0  0  0  0  0  0  0  0  0  0  0
  183.6450  178.6290  141.3430 C   0  0  0  0  0  3  0  0  0  0  0  0
  188.3800  177.7940  139.9590 C   0  0  0  0  0  2  0  0  0  0  0  0
  189.7830  177.8980  139.3470 C   0  0  2  0  0  3  0  0  0  0  0  0
  187.2110  177.9160  147.7610 C   0  0  0  0  0  3  0  0  0  0  0  0
  187.1980  177.9430  146.3550 C   0  0  0  0  0  0  0  0  0  0  0  0
  184.9390  178.3260  146.3150 O   0  0  0  0  0  0  0  0  0  0  0  0
  187.1940  178.0230  142.1620 C   0  0  0  0  0  0  0  0  0  0  0  0
  186.0150  178.2310  141.4460 O   0  0  0  0  0  0  0  0  0  0  0  0
  181.0440  179.0160  144.0530 C   0  0  0  0  0  1  0  0  0  0  0  0
  185.9870  178.1850  144.2680 N   0  0  0  0  0  0  0  0  0  0  0  0
  183.5050  178.6030  144.1250 C   0  0  0  0  0  3  0  0  0  0  0  0
  189.7890  177.7190  137.9460 O   0  0  0  0  0  0  0  0  0  0  0  0
  188.5150  177.2980  137.5290 C   0  0  0  0  0  2  0  0  0  0  0  0
  187.9950  178.2290  136.4930 C   0  0  0  0  0  0  0  0  0  0  0  0
  187.9360  177.8270  135.1650 O   0  0  0  0  0  0  0  0  0  0  0  0
  187.5710  179.3660  136.8250 O   0  0  0  0  0  1  0  0  0  0  0  0
  1 10  1  0  0  0  0
  2 12  1  0  0  0  0
  2 26  1  0  0  0  0
  3  4  1  0  0  0  0
  5 27  1  0  0  0  0
  5 26  1  0  0  0  0
  6  5  2  0  0  0  0
  7 23  1  0  0  0  0
  7 16  2  0  0  0  0
  8 12  2  0  0  0  0
  9 25  1  0  0  0  0
  9 27  2  0  0  0  0
 10 16  1  0  0  0  0
 11  3  2  0  0  0  0
 12 13  1  0  0  0  0
 13 21  2  0  0  0  0
 13 11  1  0  0  0  0
 14 22  2  0  0  0  0
 14 21  1  0  0  0  0
 15  9  1  0  0  0  0
 16  8  1  0  0  0  0
 17 15  2  0  0  0  0
 17  6  1  0  0  0  0
 18  7  1  0  0  0  0
 19 28  1  6  0  0  0
 19 18  1  0  0  0  0
 19  1  1  0  0  0  0
 20  4  2  0  0  0  0
 21 20  1  0  0  0  0
 23  2  2  0  0  0  0
 24  6  1  0  0  0  0
 24 23  1  0  0  0  0
 26 14  1  0  0  0  0
 29 28  1  0  0  0  0
 30 32  1  0  0  0  0
 30 29  1  0  0  0  0
 31 30  2  0  0  0  0
M  END
>  <MODEL>
2

>  <REMARK>
 VINA RESULT:     -11.3      2.220      6.511
  Name = 
  3 active torsions:
  status: ('A' for Active; 'I' for Inactive)
    1  A    between atoms: C_1  and  C_10
    2  A    between atoms: C_10  and  O_19
    3  A    between atoms: O_19  and  C_24
                            x       y       z     vdW  Elec       q    Type
                         _______ _______ _______ _____ _____    ______ ____

>  <TORSDO>
F 3

$$$$
=
 OpenBabel11052416513D

 32 37  0  0  1  0  0  0  0  0999 V2000
  188.1690  177.1030  147.8730 C   0  0  0  0  0  2  0  0  0  0  0  0
  186.4600  178.1680  143.1530 C   0  0  0  0  0  0  0  0  0  0  0  0
  181.7190  178.9230  143.9030 C   0  0  0  0  0  3  0  0  0  0  0  0
  181.5330  179.0520  142.5270 C   0  0  0  0  0  3  0  0  0  0  0  0
  187.4380  178.1550  140.9090 C   0  0  0  0  0  0  0  0  0  0  0  0
  188.7060  177.8990  141.4680 C   0  0  0  0  0  0  0  0  0  0  0  0
  187.9180  177.7930  145.0780 C   0  0  0  0  0  0  0  0  0  0  0  0
  185.5740  178.1580  145.3890 N   0  0  0  0  0  0  0  0  0  0  0  0
  188.4760  178.1260  138.6960 C   0  0  0  0  0  0  0  0  0  0  0  0
  186.9240  177.8550  147.4200 C   0  0  0  0  0  2  0  0  0  0  0  0
  182.9950  178.6690  144.4130 C   0  0  0  0  0  3  0  0  0  0  0  0
  185.3740  178.2870  144.0480 C   0  0  0  0  0  0  0  0  0  0  0  0
  184.0950  178.5410  143.5500 C   0  0  0  0  0  0  0  0  0  0  0  0
  185.0070  178.5450  141.2950 C   0  0  0  0  0  0  0  0  0  0  0  0
  189.7220  177.8730  139.2710 C   0  0  0  0  0  3  0  0  0  0  0  0
  186.7950  177.9030  145.9220 C   0  0  0  0  0  0  0  0  0  0  0  0
  189.8360  177.7600  140.6570 C   0  0  0  0  0  3  0  0  0  0  0  0
  189.2830  177.4500  145.6210 C   0  0  0  0  0  2  0  0  0  0  0  0
  189.3880  177.6580  147.1370 C   0  0  2  0  0  3  0  0  0  0  0  0
  182.6210  178.9280  141.6590 C   0  0  0  0  0  3  0  0  0  0  0  0
  183.9090  178.6720  142.1620 C   0  0  0  0  0  0  0  0  0  0  0  0
  184.8060  178.6660  140.0530 O   0  0  0  0  0  0  0  0  0  0  0  0
  187.7390  177.9150  143.6930 C   0  0  0  0  0  0  0  0  0  0  0  0
  188.8410  177.7820  142.8470 O   0  0  0  0  0  0  0  0  0  0  0  0
  188.3500  178.2490  137.2200 C   0  0  0  0  0  1  0  0  0  0  0  0
  186.2750  178.2940  141.7880 N   0  0  0  0  0  0  0  0  0  0  0  0
  187.3490  178.2650  139.5070 C   0  0  0  0  0  3  0  0  0  0  0  0
  190.6150  177.2070  147.6720 O   0  0  0  0  0  0  0  0  0  0  0  0
  191.4500  176.7870  146.6230 C   0  0  0  0  0  2  0  0  0  0  0  0
  192.3190  175.6750  147.0890 C   0  0  0  0  0  0  0  0  0  0  0  0
  192.7930  175.6640  148.3940 O   0  0  0  0  0  1  0  0  0  0  0  0
  192.5920  174.7230  146.3130 O   0  0  0  0  0  0  0  0  0  0  0  0
  2 23  2  0  0  0  0
  2 12  1  0  0  0  0
  3 11  1  0  0  0  0
  4  3  2  0  0  0  0
  5  6  1  0  0  0  0
  5 26  1  0  0  0  0
  6 24  1  0  0  0  0
  7 18  1  0  0  0  0
  7 16  2  0  0  0  0
  8 16  1  0  0  0  0
  9 15  2  0  0  0  0
  9 27  1  0  0  0  0
 10  1  1  0  0  0  0
 12  8  2  0  0  0  0
 13 12  1  0  0  0  0
 13 11  2  0  0  0  0
 14 26  1  0  0  0  0
 14 21  1  0  0  0  0
 15 17  1  0  0  0  0
 16 10  1  0  0  0  0
 17  6  2  0  0  0  0
 18 19  1  0  0  0  0
 19 28  1  1  0  0  0
 19  1  1  0  0  0  0
 20 21  2  0  0  0  0
 20  4  1  0  0  0  0
 21 13  1  0  0  0  0
 22 14  2  0  0  0  0
 23  7  1  0  0  0  0
 24 23  1  0  0  0  0
 25  9  1  0  0  0  0
 26  2  1  0  0  0  0
 27  5  2  0  0  0  0
 29 30  1  0  0  0  0
 29 28  1  0  0  0  0
 30 31  1  0  0  0  0
 32 30  2  0  0  0  0
M  END
>  <MODEL>
3

>  <REMARK>
 VINA RESULT:     -11.2      2.134      6.988
  Name = 
  3 active torsions:
  status: ('A' for Active; 'I' for Inactive)
    1  A    between atoms: C_1  and  C_10
    2  A    between atoms: C_10  and  O_19
    3  A    between atoms: O_19  and  C_24
                            x       y       z     vdW  Elec       q    Type
                         _______ _______ _______ _____ _____    ______ ____

>  <TORSDO>
F 3

$$$$
=
 OpenBabel11052416513D

 32 37  0  0  1  0  0  0  0  0999 V2000
  182.4550  179.3270  143.2540 C   0  0  0  0  0  2  0  0  0  0  0  0
  187.3940  177.9780  143.6050 C   0  0  0  0  0  0  0  0  0  0  0  0
  188.0580  177.6810  148.4090 C   0  0  0  0  0  3  0  0  0  0  0  0
  189.4150  177.4430  148.1960 C   0  0  0  0  0  3  0  0  0  0  0  0
  189.2350  177.7060  142.0160 C   0  0  0  0  0  0  0  0  0  0  0  0
  188.3380  177.9080  140.9490 C   0  0  0  0  0  0  0  0  0  0  0  0
  185.1470  178.4070  142.7450 C   0  0  0  0  0  0  0  0  0  0  0  0
  185.5330  178.2630  145.1010 N   0  0  0  0  0  0  0  0  0  0  0  0
  191.0310  177.4470  140.3770 C   0  0  0  0  0  0  0  0  0  0  0  0
  183.2130  178.6400  144.3830 C   0  0  0  0  0  2  0  0  0  0  0  0
  187.2050  177.8770  147.3200 C   0  0  0  0  0  3  0  0  0  0  0  0
  186.8610  178.0290  144.9120 C   0  0  0  0  0  0  0  0  0  0  0  0
  187.7040  177.8350  146.0080 C   0  0  0  0  0  0  0  0  0  0  0  0
  189.5750  177.5510  144.4800 C   0  0  0  0  0  0  0  0  0  0  0  0
  190.1250  177.6490  139.3360 C   0  0  0  0  0  3  0  0  0  0  0  0
  184.6740  178.4660  144.0710 C   0  0  0  0  0  0  0  0  0  0  0  0
  188.7790  177.8800  139.6220 C   0  0  0  0  0  3  0  0  0  0  0  0
  184.2420  178.6860  141.5710 C   0  0  0  0  0  2  0  0  0  0  0  0
  182.7540  178.6100  141.9380 C   0  0  2  0  0  3  0  0  0  0  0  0
  189.9220  177.3990  146.8940 C   0  0  0  0  0  3  0  0  0  0  0  0
  189.0720  177.5940  145.7910 C   0  0  0  0  0  0  0  0  0  0  0  0
  190.8090  177.3330  144.3200 O   0  0  0  0  0  0  0  0  0  0  0  0
  186.5100  178.1740  142.5210 C   0  0  0  0  0  0  0  0  0  0  0  0
  186.9930  178.1390  141.2130 O   0  0  0  0  0  0  0  0  0  0  0  0
  192.4650  177.2000  140.0770 C   0  0  0  0  0  1  0  0  0  0  0  0
  188.7400  177.7430  143.3930 N   0  0  0  0  0  0  0  0  0  0  0  0
  190.5890  177.4750  141.7010 C   0  0  0  0  0  3  0  0  0  0  0  0
  181.9050  179.0070  140.8820 O   0  0  0  0  0  0  0  0  0  0  0  0
  182.5330  178.7350  139.6550 C   0  0  0  0  0  2  0  0  0  0  0  0
  182.7290  180.0000  138.9010 C   0  0  0  0  0  0  0  0  0  0  0  0
  183.9720  180.6170  138.8890 O   0  0  0  0  0  1  0  0  0  0  0  0
  181.7770  180.4920  138.2410 O   0  0  0  0  0  0  0  0  0  0  0  0
  1 10  1  0  0  0  0
  2 12  1  0  0  0  0
  4  3  1  0  0  0  0
  5 26  1  0  0  0  0
  6 24  1  0  0  0  0
  6  5  2  0  0  0  0
  7 16  2  0  0  0  0
  9 27  2  0  0  0  0
 11  3  2  0  0  0  0
 12  8  2  0  0  0  0
 12 13  1  0  0  0  0
 13 11  1  0  0  0  0
 14 21  1  0  0  0  0
 15 17  2  0  0  0  0
 15  9  1  0  0  0  0
 16 10  1  0  0  0  0
 16  8  1  0  0  0  0
 17  6  1  0  0  0  0
 18 19  1  0  0  0  0
 18  7  1  0  0  0  0
 19 28  1  6  0  0  0
 19  1  1  0  0  0  0
 20  4  2  0  0  0  0
 21 13  2  0  0  0  0
 21 20  1  0  0  0  0
 22 14  2  0  0  0  0
 23  7  1  0  0  0  0
 23  2  2  0  0  0  0
 24 23  1  0  0  0  0
 25  9  1  0  0  0  0
 26  2  1  0  0  0  0
 26 14  1  0  0  0  0
 27  5  1  0  0  0  0
 29 28  1  0  0  0  0
 30 29  1  0  0  0  0
 31 30  1  0  0  0  0
 32 30  2  0  0  0  0
M  END
>  <MODEL>
4

>  <REMARK>
 VINA RESULT:     -11.0      1.782      2.362
  Name = 
  3 active torsions:
  status: ('A' for Active; 'I' for Inactive)
    1  A    between atoms: C_1  and  C_10
    2  A    between atoms: C_10  and  O_19
    3  A    between atoms: O_19  and  C_24
                            x       y       z     vdW  Elec       q    Type
                         _______ _______ _______ _____ _____    ______ ____

>  <TORSDO>
F 3

$$$$
=
 OpenBabel11052416513D

 32 37  0  0  1  0  0  0  0  0999 V2000
  182.3690  179.3580  143.2280 C   0  0  0  0  0  2  0  0  0  0  0  0
  187.3050  177.9890  143.5230 C   0  0  0  0  0  0  0  0  0  0  0  0
  188.0310  177.7180  148.3190 C   0  0  0  0  0  3  0  0  0  0  0  0
  189.3840  177.4720  148.0900 C   0  0  0  0  0  3  0  0  0  0  0  0
  189.1250  177.7010  141.9110 C   0  0  0  0  0  0  0  0  0  0  0  0
  188.2150  177.9010  140.8550 C   0  0  0  0  0  0  0  0  0  0  0  0
  185.0490  178.4230  142.6900 C   0  0  0  0  0  0  0  0  0  0  0  0
  185.4650  178.2920  145.0410 N   0  0  0  0  0  0  0  0  0  0  0  0
  190.8980  177.4250  140.2510 C   0  0  0  0  0  0  0  0  0  0  0  0
  183.1380  178.6750  144.3510 C   0  0  0  0  0  2  0  0  0  0  0  0
  187.1640  177.9110  147.2400 C   0  0  0  0  0  3  0  0  0  0  0  0
  186.7900  178.0510  144.8360 C   0  0  0  0  0  0  0  0  0  0  0  0
  187.6460  177.8600  145.9220 C   0  0  0  0  0  0  0  0  0  0  0  0
  189.4960  177.5590  144.3720 C   0  0  0  0  0  0  0  0  0  0  0  0
  189.9800  177.6250  139.2200 C   0  0  0  0  0  3  0  0  0  0  0  0
  184.5940  178.4920  144.0210 C   0  0  0  0  0  0  0  0  0  0  0  0
  188.6380  177.8630  139.5230 C   0  0  0  0  0  3  0  0  0  0  0  0
  184.1300  178.7000  141.5260 C   0  0  0  0  0  2  0  0  0  0  0  0
  182.6470  178.6330  141.9120 C   0  0  2  0  0  3  0  0  0  0  0  0
  189.8730  177.4180  146.7820 C   0  0  0  0  0  3  0  0  0  0  0  0
  189.0110  177.6110  145.6890 C   0  0  0  0  0  0  0  0  0  0  0  0
  190.7270  177.3350  144.1970 O   0  0  0  0  0  0  0  0  0  0  0  0
  186.4090  178.1830  142.4490 C   0  0  0  0  0  0  0  0  0  0  0  0
  186.8740  178.1390  141.1350 O   0  0  0  0  0  0  0  0  0  0  0  0
  192.3280  177.1700  139.9340 C   0  0  0  0  0  1  0  0  0  0  0  0
  188.6480  177.7470  143.2950 N   0  0  0  0  0  0  0  0  0  0  0  0
  190.4740  177.4620  141.5800 C   0  0  0  0  0  3  0  0  0  0  0  0
  181.7860  179.0270  140.8650 O   0  0  0  0  0  0  0  0  0  0  0  0
  180.4610  179.0320  141.3320 C   0  0  0  0  0  2  0  0  0  0  0  0
  179.8420  177.7020  141.0960 C   0  0  0  0  0  0  0  0  0  0  0  0
  179.8850  177.1300  139.8310 O   0  0  0  0  0  0  0  0  0  0  0  0
  179.3120  177.0750  142.0500 O   0  0  0  0  0  1  0  0  0  0  0  0
  1 10  1  0  0  0  0
  2 12  1  0  0  0  0
  4  3  1  0  0  0  0
  5 26  1  0  0  0  0
  6 24  1  0  0  0  0
  6  5  2  0  0  0  0
  7 16  2  0  0  0  0
  9 27  2  0  0  0  0
 11  3  2  0  0  0  0
 12  8  2  0  0  0  0
 12 13  1  0  0  0  0
 13 11  1  0  0  0  0
 14 21  1  0  0  0  0
 15 17  2  0  0  0  0
 15  9  1  0  0  0  0
 16 10  1  0  0  0  0
 16  8  1  0  0  0  0
 17  6  1  0  0  0  0
 18 19  1  0  0  0  0
 18  7  1  0  0  0  0
 19 28  1  6  0  0  0
 19  1  1  0  0  0  0
 20  4  2  0  0  0  0
 21 13  2  0  0  0  0
 21 20  1  0  0  0  0
 22 14  2  0  0  0  0
 23  7  1  0  0  0  0
 23  2  2  0  0  0  0
 24 23  1  0  0  0  0
 25  9  1  0  0  0  0
 26  2  1  0  0  0  0
 26 14  1  0  0  0  0
 27  5  1  0  0  0  0
 28 29  1  0  0  0  0
 30 29  1  0  0  0  0
 30 32  1  0  0  0  0
 31 30  2  0  0  0  0
M  END
>  <MODEL>
5

>  <REMARK>
 VINA RESULT:     -10.9      1.246      1.554
  Name = 
  3 active torsions:
  status: ('A' for Active; 'I' for Inactive)
    1  A    between atoms: C_1  and  C_10
    2  A    between atoms: C_10  and  O_19
    3  A    between atoms: O_19  and  C_24
                            x       y       z     vdW  Elec       q    Type
                         _______ _______ _______ _____ _____    ______ ____

>  <TORSDO>
F 3

$$$$
=
 OpenBabel11052416513D

 32 37  0  0  1  0  0  0  0  0999 V2000
  191.2010  176.7600  138.6170 C   0  0  0  0  0  2  0  0  0  0  0  0
  188.5750  177.5710  142.9500 C   0  0  0  0  0  0  0  0  0  0  0  0
  191.8320  176.4360  146.3730 C   0  0  0  0  0  3  0  0  0  0  0  0
  190.8530  176.6210  147.3500 C   0  0  0  0  0  3  0  0  0  0  0  0
  186.2580  178.1410  143.4950 C   0  0  0  0  0  0  0  0  0  0  0  0
  185.9850  178.3200  142.1240 C   0  0  0  0  0  0  0  0  0  0  0  0
  189.2730  177.5780  140.6090 C   0  0  0  0  0  0  0  0  0  0  0  0
  190.8320  177.0150  142.3330 N   0  0  0  0  0  0  0  0  0  0  0  0
  183.9300  178.7160  143.9710 C   0  0  0  0  0  0  0  0  0  0  0  0
  191.6930  177.0370  140.0310 C   0  0  0  0  0  2  0  0  0  0  0  0
  191.5160  176.6240  145.0260 C   0  0  0  0  0  3  0  0  0  0  0  0
  189.8900  177.1900  143.3010 C   0  0  0  0  0  0  0  0  0  0  0  0
  190.2170  176.9990  144.6440 C   0  0  0  0  0  0  0  0  0  0  0  0
  187.9290  177.5610  145.2500 C   0  0  0  0  0  0  0  0  0  0  0  0
  183.6820  178.8890  142.6090 C   0  0  0  0  0  3  0  0  0  0  0  0
  190.5630  177.1800  141.0140 C   0  0  0  0  0  0  0  0  0  0  0  0
  184.7100  178.6900  141.6860 C   0  0  0  0  0  3  0  0  0  0  0  0
  188.9120  177.7140  139.1510 C   0  0  0  0  0  2  0  0  0  0  0  0
  190.1430  177.7970  138.2390 C   0  0  2  0  0  3  0  0  0  0  0  0
  189.5580  176.9940  146.9810 C   0  0  0  0  0  3  0  0  0  0  0  0
  189.2290  177.1870  145.6280 C   0  0  0  0  0  0  0  0  0  0  0  0
  187.0650  177.7200  146.1590 O   0  0  0  0  0  0  0  0  0  0  0  0
  188.2820  177.7590  141.5820 C   0  0  0  0  0  0  0  0  0  0  0  0
  186.9950  178.1280  141.1890 O   0  0  0  0  0  0  0  0  0  0  0  0
  182.8390  178.9270  144.9580 C   0  0  0  0  0  1  0  0  0  0  0  0
  187.6040  177.7520  143.9190 N   0  0  0  0  0  0  0  0  0  0  0  0
  185.2040  178.3470  144.4070 C   0  0  0  0  0  3  0  0  0  0  0  0
  189.8140  177.7830  136.8660 O   0  0  0  0  0  0  0  0  0  0  0  0
  188.8590  176.7810  136.6280 C   0  0  0  0  0  2  0  0  0  0  0  0
  189.3210  175.9010  135.5230 C   0  0  0  0  0  0  0  0  0  0  0  0
  190.4790  176.2130  134.8240 O   0  0  0  0  0  0  0  0  0  0  0  0
  188.6850  174.8510  135.2470 O   0  0  0  0  0  1  0  0  0  0  0  0
  1 10  1  0  0  0  0
  2 12  1  0  0  0  0
  2 26  1  0  0  0  0
  3  4  1  0  0  0  0
  5 26  1  0  0  0  0
  5 27  1  0  0  0  0
  6  5  2  0  0  0  0
  7 16  2  0  0  0  0
  7 23  1  0  0  0  0
  8 12  2  0  0  0  0
  9 27  2  0  0  0  0
  9 25  1  0  0  0  0
 10 16  1  0  0  0  0
 11  3  2  0  0  0  0
 12 13  1  0  0  0  0
 13 11  1  0  0  0  0
 13 21  2  0  0  0  0
 14 21  1  0  0  0  0
 14 22  2  0  0  0  0
 15  9  1  0  0  0  0
 16  8  1  0  0  0  0
 17  6  1  0  0  0  0
 17 15  2  0  0  0  0
 18  7  1  0  0  0  0
 19 28  1  6  0  0  0
 19  1  1  0  0  0  0
 19 18  1  0  0  0  0
 20  4  2  0  0  0  0
 21 20  1  0  0  0  0
 23  2  2  0  0  0  0
 24 23  1  0  0  0  0
 24  6  1  0  0  0  0
 26 14  1  0  0  0  0
 29 28  1  0  0  0  0
 30 29  1  0  0  0  0
 31 30  2  0  0  0  0
 32 30  1  0  0  0  0
M  END
>  <MODEL>
6

>  <REMARK>
 VINA RESULT:     -10.8      2.459      6.761
  Name = 
  3 active torsions:
  status: ('A' for Active; 'I' for Inactive)
    1  A    between atoms: C_1  and  C_10
    2  A    between atoms: C_10  and  O_19
    3  A    between atoms: O_19  and  C_24
                            x       y       z     vdW  Elec       q    Type
                         _______ _______ _______ _____ _____    ______ ____

>  <TORSDO>
F 3

$$$$
=
 OpenBabel11052416513D

 32 37  0  0  1  0  0  0  0  0999 V2000
  183.1400  178.5880  141.9680 C   0  0  0  0  0  2  0  0  0  0  0  0
  188.1090  177.7300  142.9200 C   0  0  0  0  0  0  0  0  0  0  0  0
  190.0250  177.6230  138.4570 C   0  0  0  0  0  3  0  0  0  0  0  0
  191.2580  177.2730  139.0060 C   0  0  0  0  0  3  0  0  0  0  0  0
  189.4320  177.2350  144.9190 C   0  0  0  0  0  0  0  0  0  0  0  0
  188.2940  177.4500  145.7200 C   0  0  0  0  0  0  0  0  0  0  0  0
  185.7470  178.3020  143.1810 C   0  0  0  0  0  0  0  0  0  0  0  0
  186.7390  178.2230  141.0060 N   0  0  0  0  0  0  0  0  0  0  0  0
  190.6970  176.7480  146.9530 C   0  0  0  0  0  0  0  0  0  0  0  0
  184.3710  178.8700  141.1170 C   0  0  0  0  0  2  0  0  0  0  0  0
  188.9220  177.8260  139.2900 C   0  0  0  0  0  3  0  0  0  0  0  0
  187.9510  177.8810  141.5240 C   0  0  0  0  0  0  0  0  0  0  0  0
  189.0450  177.6800  140.6820 C   0  0  0  0  0  0  0  0  0  0  0  0
  190.4150  177.1820  142.6290 C   0  0  0  0  0  0  0  0  0  0  0  0
  189.5580  176.9660  147.7270 C   0  0  0  0  0  3  0  0  0  0  0  0
  185.6430  178.4200  141.7810 C   0  0  0  0  0  0  0  0  0  0  0  0
  188.3570  177.3170  147.1100 C   0  0  0  0  0  3  0  0  0  0  0  0
  184.5430  178.4530  144.0770 C   0  0  0  0  0  2  0  0  0  0  0  0
  183.3640  179.1400  143.3760 C   0  0  2  0  0  3  0  0  0  0  0  0
  191.3910  177.1270  140.3890 C   0  0  0  0  0  3  0  0  0  0  0  0
  190.2890  177.3290  141.2380 C   0  0  0  0  0  0  0  0  0  0  0  0
  191.5460  176.8650  143.0960 O   0  0  0  0  0  0  0  0  0  0  0  0
  186.9810  177.9450  143.7420 C   0  0  0  0  0  0  0  0  0  0  0  0
  187.0870  177.8000  145.1250 O   0  0  0  0  0  0  0  0  0  0  0  0
  191.9800  176.3750  147.6050 C   0  0  0  0  0  1  0  0  0  0  0  0
  189.3310  177.3820  143.4650 N   0  0  0  0  0  0  0  0  0  0  0  0
  190.6330  176.8810  145.5650 C   0  0  0  0  0  3  0  0  0  0  0  0
  182.1900  179.1580  144.1610 O   0  0  0  0  0  0  0  0  0  0  0  0
  181.0800  179.3800  143.3290 C   0  0  0  0  0  2  0  0  0  0  0  0
  179.8520  178.8530  143.9810 C   0  0  0  0  0  0  0  0  0  0  0  0
  179.7380  177.4970  144.2540 O   0  0  0  0  0  0  0  0  0  0  0  0
  178.9340  179.6430  144.3220 O   0  0  0  0  0  1  0  0  0  0  0  0
  1 19  1  0  0  0  0
  2 26  1  0  0  0  0
  2 23  1  0  0  0  0
  3  4  2  0  0  0  0
  3 11  1  0  0  0  0
  4 20  1  0  0  0  0
  5 27  2  0  0  0  0
  5  6  1  0  0  0  0
  6 17  2  0  0  0  0
  7 23  2  0  0  0  0
  7 18  1  0  0  0  0
  8 12  1  0  0  0  0
  8 16  2  0  0  0  0
  9 25  1  0  0  0  0
  9 15  2  0  0  0  0
 10 16  1  0  0  0  0
 10  1  1  0  0  0  0
 11 13  2  0  0  0  0
 12  2  2  0  0  0  0
 13 21  1  0  0  0  0
 13 12  1  0  0  0  0
 14 22  2  0  0  0  0
 14 26  1  0  0  0  0
 16  7  1  0  0  0  0
 17 15  1  0  0  0  0
 19 18  1  0  0  0  0
 19 28  1  1  0  0  0
 20 21  2  0  0  0  0
 21 14  1  0  0  0  0
 23 24  1  0  0  0  0
 24  6  1  0  0  0  0
 26  5  1  0  0  0  0
 27  9  1  0  0  0  0
 29 30  1  0  0  0  0
 29 28  1  0  0  0  0
 30 31  2  0  0  0  0
 30 32  1  0  0  0  0
M  END
>  <MODEL>
7

>  <REMARK>
 VINA RESULT:     -10.7      1.292      4.797
  Name = 
  3 active torsions:
  status: ('A' for Active; 'I' for Inactive)
    1  A    between atoms: C_1  and  C_10
    2  A    between atoms: C_10  and  O_19
    3  A    between atoms: O_19  and  C_24
                            x       y       z     vdW  Elec       q    Type
                         _______ _______ _______ _____ _____    ______ ____

>  <TORSDO>
F 3

$$$$
=
 OpenBabel11052416513D

 32 37  0  0  1  0  0  0  0  0999 V2000
  188.0520  178.5780  137.5660 C   0  0  0  0  0  2  0  0  0  0  0  0
  187.5610  177.9470  142.6350 C   0  0  0  0  0  0  0  0  0  0  0  0
  182.9090  179.1290  143.3890 C   0  0  0  0  0  3  0  0  0  0  0  0
  183.1080  178.9920  144.7630 C   0  0  0  0  0  3  0  0  0  0  0  0
  189.0900  177.4340  144.4760 C   0  0  0  0  0  0  0  0  0  0  0  0
  190.1280  177.2180  143.5480 C   0  0  0  0  0  0  0  0  0  0  0  0
  188.4020  177.8560  140.3420 C   0  0  0  0  0  0  0  0  0  0  0  0
  186.1240  178.4440  140.7720 N   0  0  0  0  0  0  0  0  0  0  0  0
  190.6680  176.9150  146.2690 C   0  0  0  0  0  0  0  0  0  0  0  0
  186.8110  178.3360  138.4140 C   0  0  0  0  0  2  0  0  0  0  0  0
  183.9670  178.9050  142.5050 C   0  0  0  0  0  3  0  0  0  0  0  0
  186.2990  178.3150  142.1160 C   0  0  0  0  0  0  0  0  0  0  0  0
  185.2350  178.5420  142.9890 C   0  0  0  0  0  0  0  0  0  0  0  0
  186.7030  178.0380  144.8620 C   0  0  0  0  0  0  0  0  0  0  0  0
  191.6810  176.7050  145.3330 C   0  0  0  0  0  3  0  0  0  0  0  0
  187.1280  178.2430  139.8820 C   0  0  0  0  0  0  0  0  0  0  0  0
  191.4100  176.8570  143.9720 C   0  0  0  0  0  3  0  0  0  0  0  0
  189.5630  177.6810  139.3950 C   0  0  0  0  0  2  0  0  0  0  0  0
  189.1210  177.5490  137.9320 C   0  0  2  0  0  3  0  0  0  0  0  0
  184.3650  178.6300  145.2540 C   0  0  0  0  0  3  0  0  0  0  0  0
  185.4370  178.4020  144.3740 C   0  0  0  0  0  0  0  0  0  0  0  0
  186.8510  177.9220  146.1120 O   0  0  0  0  0  0  0  0  0  0  0  0
  188.6130  177.7220  141.7210 C   0  0  0  0  0  0  0  0  0  0  0  0
  189.8780  177.3640  142.1880 O   0  0  0  0  0  0  0  0  0  0  0  0
  190.9520  176.7530  147.7190 C   0  0  0  0  0  1  0  0  0  0  0  0
  187.7590  177.8130  143.9970 N   0  0  0  0  0  0  0  0  0  0  0  0
  189.3880  177.2750  145.8440 C   0  0  0  0  0  3  0  0  0  0  0  0
  190.2060  177.5260  137.0280 O   0  0  0  0  0  0  0  0  0  0  0  0
  190.4530  176.2000  136.6350 C   0  0  0  0  0  2  0  0  0  0  0  0
  191.5760  175.6420  137.4330 C   0  0  0  0  0  0  0  0  0  0  0  0
  192.7310  176.3880  137.6230 O   0  0  0  0  0  0  0  0  0  0  0  0
  191.4640  174.5090  137.9690 O   0  0  0  0  0  1  0  0  0  0  0  0
  1 19  1  0  0  0  0
  1 10  1  0  0  0  0
  2 26  1  0  0  0  0
  3  4  1  0  0  0  0
  4 20  2  0  0  0  0
  5 27  1  0  0  0  0
  6 17  1  0  0  0  0
  6  5  2  0  0  0  0
  7 23  1  0  0  0  0
  8 12  2  0  0  0  0
  9 25  1  0  0  0  0
 10 16  1  0  0  0  0
 11 13  1  0  0  0  0
 11  3  2  0  0  0  0
 12  2  1  0  0  0  0
 12 13  1  0  0  0  0
 13 21  2  0  0  0  0
 14 22  2  0  0  0  0
 15  9  1  0  0  0  0
 16  7  2  0  0  0  0
 16  8  1  0  0  0  0
 17 15  2  0  0  0  0
 18  7  1  0  0  0  0
 19 28  1  6  0  0  0
 19 18  1  0  0  0  0
 21 14  1  0  0  0  0
 21 20  1  0  0  0  0
 23 24  1  0  0  0  0
 23  2  2  0  0  0  0
 24  6  1  0  0  0  0
 26  5  1  0  0  0  0
 26 14  1  0  0  0  0
 27  9  2  0  0  0  0
 29 28  1  0  0  0  0
 29 30  1  0  0  0  0
 30 31  2  0  0  0  0
 30 32  1  0  0  0  0
M  END
>  <MODEL>
8

>  <REMARK>
 VINA RESULT:     -10.7      2.560      7.312
  Name = 
  3 active torsions:
  status: ('A' for Active; 'I' for Inactive)
    1  A    between atoms: C_1  and  C_10
    2  A    between atoms: C_10  and  O_19
    3  A    between atoms: O_19  and  C_24
                            x       y       z     vdW  Elec       q    Type
                         _______ _______ _______ _____ _____    ______ ____

>  <TORSDO>
F 3

$$$$
=
 OpenBabel11052416513D

 32 37  0  0  1  0  0  0  0  0999 V2000
  188.8480  178.4970  138.0390 C   0  0  0  0  0  2  0  0  0  0  0  0
  186.8720  178.1550  142.7620 C   0  0  0  0  0  0  0  0  0  0  0  0
  182.1550  179.0240  141.9870 C   0  0  0  0  0  3  0  0  0  0  0  0
  181.9340  178.9900  143.3640 C   0  0  0  0  0  3  0  0  0  0  0  0
  187.7940  177.8790  145.0130 C   0  0  0  0  0  0  0  0  0  0  0  0
  189.0740  177.6840  144.4590 C   0  0  0  0  0  0  0  0  0  0  0  0
  188.3750  177.9820  140.8420 C   0  0  0  0  0  0  0  0  0  0  0  0
  186.0460  178.4210  140.5190 N   0  0  0  0  0  0  0  0  0  0  0  0
  188.7770  177.5970  147.2330 C   0  0  0  0  0  0  0  0  0  0  0  0
  187.4220  178.2160  138.4940 C   0  0  0  0  0  2  0  0  0  0  0  0
  183.4420  178.8260  141.4830 C   0  0  0  0  0  3  0  0  0  0  0  0
  185.8110  178.3920  141.8600 C   0  0  0  0  0  0  0  0  0  0  0  0
  184.5200  178.5920  142.3530 C   0  0  0  0  0  0  0  0  0  0  0  0
  185.3740  178.3230  144.6150 C   0  0  0  0  0  0  0  0  0  0  0  0
  190.0360  177.4060  146.6640 C   0  0  0  0  0  3  0  0  0  0  0  0
  187.2820  178.2410  139.9910 C   0  0  0  0  0  0  0  0  0  0  0  0
  190.1840  177.4500  145.2770 C   0  0  0  0  0  3  0  0  0  0  0  0
  189.7760  177.8370  140.3050 C   0  0  0  0  0  2  0  0  0  0  0  0
  189.8080  177.5780  138.7930 C   0  0  2  0  0  3  0  0  0  0  0  0
  182.9990  178.7580  144.2380 C   0  0  0  0  0  3  0  0  0  0  0  0
  184.2980  178.5560  143.7410 C   0  0  0  0  0  0  0  0  0  0  0  0
  185.1410  178.2980  145.8560 O   0  0  0  0  0  0  0  0  0  0  0  0
  188.1630  177.9530  142.2270 C   0  0  0  0  0  0  0  0  0  0  0  0
  189.2430  177.7230  143.0800 O   0  0  0  0  0  0  0  0  0  0  0  0
  188.6140  177.5510  148.7100 C   0  0  0  0  0  1  0  0  0  0  0  0
  186.6530  178.1230  144.1270 N   0  0  0  0  0  0  0  0  0  0  0  0
  187.6700  177.8310  146.4150 C   0  0  0  0  0  3  0  0  0  0  0  0
  191.1170  177.5810  138.2610 O   0  0  0  0  0  0  0  0  0  0  0  0
  191.7200  176.3370  138.5100 C   0  0  0  0  0  2  0  0  0  0  0  0
  193.1840  176.5180  138.6940 C   0  0  0  0  0  0  0  0  0  0  0  0
  194.0760  175.8550  137.8630 O   0  0  0  0  0  0  0  0  0  0  0  0
  193.6140  177.3040  139.5790 O   0  0  0  0  0  1  0  0  0  0  0  0
  1 10  1  0  0  0  0
  1 19  1  0  0  0  0
  2 26  1  0  0  0  0
  3  4  1  0  0  0  0
  4 20  2  0  0  0  0
  5 27  1  0  0  0  0
  6  5  2  0  0  0  0
  6 17  1  0  0  0  0
  7 23  2  0  0  0  0
  8 12  1  0  0  0  0
  9 25  1  0  0  0  0
 10 16  1  0  0  0  0
 11  3  2  0  0  0  0
 11 13  1  0  0  0  0
 12 13  1  0  0  0  0
 12  2  2  0  0  0  0
 13 21  2  0  0  0  0
 14 22  2  0  0  0  0
 15  9  1  0  0  0  0
 16  8  2  0  0  0  0
 16  7  1  0  0  0  0
 17 15  2  0  0  0  0
 18  7  1  0  0  0  0
 19 28  1  6  0  0  0
 19 18  1  0  0  0  0
 21 20  1  0  0  0  0
 21 14  1  0  0  0  0
 23  2  1  0  0  0  0
 23 24  1  0  0  0  0
 24  6  1  0  0  0  0
 26 14  1  0  0  0  0
 26  5  1  0  0  0  0
 27  9  2  0  0  0  0
 28 29  1  0  0  0  0
 29 30  1  0  0  0  0
 30 32  1  0  0  0  0
 31 30  2  0  0  0  0
M  END
>  <MODEL>
9

>  <REMARK>
 VINA RESULT:     -10.6      2.193      8.024
  Name = 
  3 active torsions:
  status: ('A' for Active; 'I' for Inactive)
    1  A    between atoms: C_1  and  C_10
    2  A    between atoms: C_10  and  O_19
    3  A    between atoms: O_19  and  C_24
                            x       y       z     vdW  Elec       q    Type
                         _______ _______ _______ _____ _____    ______ ____

>  <TORSDO>
F 3

$$$$
