=
 OpenBabel11052416543D

 32 37  0  0  1  0  0  0  0  0999 V2000
  188.5410  177.4510  146.9750 C   0  0  0  0  0  0  0  0  0  0  0  0
  190.9740  177.6690  144.6660 C   0  0  0  0  0  3  0  0  0  0  0  0
  189.2380  176.9800  139.8310 C   0  0  0  0  0  0  0  0  0  0  0  0
  193.4630  176.3860  137.5580 C   0  0  0  0  0  3  0  0  0  0  0  0
  192.7830  176.1250  136.4100 N   0  0  0  0  0  0  0  0  0  0  0  0
  189.1310  177.5230  142.1410 C   0  0  0  0  0  0  0  0  0  0  0  0
  191.2530  177.2510  141.0680 N   0  0  0  0  0  0  0  0  0  0  0  0
  189.5970  176.9210  146.4780 N   0  0  0  0  0  0  0  0  0  0  0  0
  191.3370  177.8760  143.4020 C   0  0  0  0  0  3  0  0  0  0  0  0
  192.7710  176.6720  138.7350 C   0  0  0  0  0  3  0  0  0  0  0  0
  190.6390  176.9720  139.8890 C   0  0  0  0  0  0  0  0  0  0  0  0
  191.3710  176.6870  138.7260 C   0  0  0  0  0  0  0  0  0  0  0  0
  189.2730  176.4270  137.5170 C   0  0  0  0  0  0  0  0  0  0  0  0
  187.3780  178.1840  145.8310 S   0  0  0  0  0  0  0  0  0  0  0  0
  188.5260  177.7040  144.5560 C   0  0  0  0  0  0  0  0  0  0  0  0
  188.3130  177.4780  148.4460 C   0  0  0  0  0  1  0  0  0  0  0  0
  190.5510  177.5160  142.2040 C   0  0  0  0  0  0  0  0  0  0  0  0
  188.2490  177.8880  143.2680 C   0  0  0  0  0  3  0  0  0  0  0  0
  189.7180  176.9620  145.0470 C   0  0  1  0  0  3  0  0  0  0  0  0
  191.4230  176.1320  136.3690 C   0  0  0  0  0  3  0  0  0  0  0  0
  190.6820  176.4100  137.5240 C   0  0  0  0  0  0  0  0  0  0  0  0
  188.5260  177.2650  140.9500 N   0  0  0  0  0  0  0  0  0  0  0  0
  188.5970  176.7130  138.6630 N   0  0  0  0  0  0  0  0  0  0  0  0
  188.4940  176.1230  136.2740 C   0  0  0  0  0  2  0  0  0  0  0  0
  186.0400  175.7450  136.7250 N   0  0  0  0  0  0  0  0  0  0  0  0
  187.2830  173.9360  136.8750 C   0  0  0  0  0  0  0  0  0  0  0  0
  185.9650  173.6180  137.1540 C   0  0  0  0  0  3  0  0  0  0  0  0
  185.2310  174.7470  137.0490 N   0  0  0  0  0  0  0  0  0  0  0  0
  188.4360  172.9970  136.8750 C   0  0  0  0  0  1  0  0  0  0  0  0
  187.2970  175.2850  136.5980 C   0  0  0  0  0  0  0  0  0  0  0  0
  185.5880  177.1090  136.5000 C   0  0  0  0  0  2  0  0  0  0  0  0
  185.2300  177.7590  137.8230 C   0  0  0  0  0  1  0  0  0  0  0  0
  1 16  1  0  0  0  0
  3 11  1  0  0  0  0
  3 22  2  0  0  0  0
  4 10  1  0  0  0  0
  5  4  2  0  0  0  0
  6 17  2  0  0  0  0
  6 18  1  0  0  0  0
  7 17  1  0  0  0  0
  8  1  2  0  0  0  0
  9  2  2  0  0  0  0
 11  7  2  0  0  0  0
 12 10  2  0  0  0  0
 12 11  1  0  0  0  0
 13 21  1  0  0  0  0
 13 23  2  0  0  0  0
 14  1  1  0  0  0  0
 15 19  1  0  0  0  0
 15 14  1  0  0  0  0
 17  9  1  0  0  0  0
 18 15  2  0  0  0  0
 19  2  1  1  0  0  0
 19  8  1  0  0  0  0
 20  5  1  0  0  0  0
 20 21  2  0  0  0  0
 21 12  1  0  0  0  0
 22  6  1  0  0  0  0
 23  3  1  0  0  0  0
 24 30  1  0  0  0  0
 24 13  1  0  0  0  0
 25 28  1  0  0  0  0
 26 29  1  0  0  0  0
 26 27  1  0  0  0  0
 28 27  2  0  0  0  0
 30 25  1  0  0  0  0
 30 26  2  0  0  0  0
 31 25  1  0  0  0  0
 31 32  1  0  0  0  0
M  END
>  <MODEL>
1

>  <REMARK>
 VINA RESULT:      -8.6      0.000      0.000
  Name = 
  3 active torsions:
  status: ('A' for Active; 'I' for Inactive)
    1  A    between atoms: C_6  and  N_7
    2  A    between atoms: C_16  and  C_27
    3  A    between atoms: C_27  and  C_32
                            x       y       z     vdW  Elec       q    Type
                         _______ _______ _______ _____ _____    ______ ____

>  <TORSDO>
F 3

$$$$
=
 OpenBabel11052416543D

 32 37  0  0  1  0  0  0  0  0999 V2000
  191.4040  176.4000  146.3140 C   0  0  0  0  0  0  0  0  0  0  0  0
  191.9510  176.9480  143.0420 C   0  0  0  0  0  3  0  0  0  0  0  0
  187.6320  178.1670  140.4470 C   0  0  0  0  0  0  0  0  0  0  0  0
  189.2620  177.6490  135.9250 C   0  0  0  0  0  3  0  0  0  0  0  0
  188.0040  177.8920  135.4690 N   0  0  0  0  0  0  0  0  0  0  0  0
  189.0710  177.9390  142.3250 C   0  0  0  0  0  0  0  0  0  0  0  0
  189.9380  177.6820  140.1090 N   0  0  0  0  0  0  0  0  0  0  0  0
  191.7240  175.8920  145.1810 N   0  0  0  0  0  0  0  0  0  0  0  0
  191.5590  177.4900  141.8920 C   0  0  0  0  0  3  0  0  0  0  0  0
  189.5240  177.6480  137.2950 C   0  0  0  0  0  3  0  0  0  0  0  0
  188.7050  177.9080  139.5830 C   0  0  0  0  0  0  0  0  0  0  0  0
  188.4820  177.8980  138.1970 C   0  0  0  0  0  0  0  0  0  0  0  0
  186.1350  178.3990  138.6130 C   0  0  0  0  0  0  0  0  0  0  0  0
  190.1220  177.6480  146.3170 S   0  0  0  0  0  0  0  0  0  0  0  0
  190.0780  177.4240  144.5490 C   0  0  0  0  0  0  0  0  0  0  0  0
  192.0940  175.9850  147.5650 C   0  0  0  0  0  1  0  0  0  0  0  0
  190.1610  177.6760  141.4510 C   0  0  0  0  0  0  0  0  0  0  0  0
  189.1890  178.0610  143.7920 C   0  0  0  0  0  3  0  0  0  0  0  0
  191.0000  176.3760  144.0370 C   0  0  1  0  0  3  0  0  0  0  0  0
  186.9720  178.1380  136.3190 C   0  0  0  0  0  3  0  0  0  0  0  0
  187.1810  178.1460  137.7040 C   0  0  0  0  0  0  0  0  0  0  0  0
  187.8460  178.1880  141.7870 N   0  0  0  0  0  0  0  0  0  0  0  0
  186.3900  178.4050  139.9500 N   0  0  0  0  0  0  0  0  0  0  0  0
  184.7350  178.6480  138.1430 C   0  0  0  0  0  2  0  0  0  0  0  0
  183.0300  177.6200  139.6940 N   0  0  0  0  0  0  0  0  0  0  0  0
  183.6820  176.3050  138.0560 C   0  0  0  0  0  0  0  0  0  0  0  0
  182.7640  175.6380  138.8480 C   0  0  0  0  0  3  0  0  0  0  0  0
  182.3830  176.4740  139.8390 N   0  0  0  0  0  0  0  0  0  0  0  0
  184.3650  175.7630  136.8510 C   0  0  0  0  0  1  0  0  0  0  0  0
  183.8230  177.5580  138.6100 C   0  0  0  0  0  0  0  0  0  0  0  0
  182.8460  178.7670  140.5700 C   0  0  0  0  0  2  0  0  0  0  0  0
  183.5610  178.5320  141.8870 C   0  0  0  0  0  1  0  0  0  0  0  0
  1 14  1  0  0  0  0
  1 16  1  0  0  0  0
  3 22  2  0  0  0  0
  4 10  1  0  0  0  0
  5  4  2  0  0  0  0
  5 20  1  0  0  0  0
  6 18  1  0  0  0  0
  7 17  1  0  0  0  0
  8  1  2  0  0  0  0
  9  2  2  0  0  0  0
 10 12  2  0  0  0  0
 11  7  2  0  0  0  0
 11  3  1  0  0  0  0
 12 11  1  0  0  0  0
 13 23  2  0  0  0  0
 15 14  1  0  0  0  0
 17  9  1  0  0  0  0
 17  6  2  0  0  0  0
 18 15  2  0  0  0  0
 19  2  1  6  0  0  0
 19 15  1  0  0  0  0
 19  8  1  0  0  0  0
 20 21  2  0  0  0  0
 21 12  1  0  0  0  0
 21 13  1  0  0  0  0
 22  6  1  0  0  0  0
 23  3  1  0  0  0  0
 24 30  1  0  0  0  0
 24 13  1  0  0  0  0
 25 28  1  0  0  0  0
 25 31  1  0  0  0  0
 26 30  2  0  0  0  0
 26 27  1  0  0  0  0
 27 28  2  0  0  0  0
 29 26  1  0  0  0  0
 30 25  1  0  0  0  0
 31 32  1  0  0  0  0
M  END
>  <MODEL>
2

>  <REMARK>
 VINA RESULT:      -8.5      2.602      3.536
  Name = 
  3 active torsions:
  status: ('A' for Active; 'I' for Inactive)
    1  A    between atoms: C_6  and  N_7
    2  A    between atoms: C_16  and  C_27
    3  A    between atoms: C_27  and  C_32
                            x       y       z     vdW  Elec       q    Type
                         _______ _______ _______ _____ _____    ______ ____

>  <TORSDO>
F 3

$$$$
=
 OpenBabel11052416543D

 32 37  0  0  1  0  0  0  0  0999 V2000
  192.3210  176.1650  136.5460 C   0  0  0  0  0  0  0  0  0  0  0  0
  189.7100  178.0160  137.5720 C   0  0  0  0  0  3  0  0  0  0  0  0
  188.4830  177.2000  142.5420 C   0  0  0  0  0  0  0  0  0  0  0  0
  184.1600  179.3640  142.6470 C   0  0  0  0  0  3  0  0  0  0  0  0
  184.0070  178.9420  143.9310 N   0  0  0  0  0  0  0  0  0  0  0  0
  189.8550  177.2520  140.6030 C   0  0  0  0  0  0  0  0  0  0  0  0
  187.7290  178.3500  140.5980 N   0  0  0  0  0  0  0  0  0  0  0  0
  191.0600  176.3810  136.4580 N   0  0  0  0  0  0  0  0  0  0  0  0
  189.0200  178.5700  138.5670 C   0  0  0  0  0  3  0  0  0  0  0  0
  185.3190  179.0470  141.9380 C   0  0  0  0  0  3  0  0  0  0  0  0
  187.5040  177.9550  141.8790 C   0  0  0  0  0  0  0  0  0  0  0  0
  186.3230  178.2920  142.5580 C   0  0  0  0  0  0  0  0  0  0  0  0
  187.1540  177.1020  144.5130 C   0  0  0  0  0  0  0  0  0  0  0  0
  193.0620  176.2950  138.1680 S   0  0  0  0  0  0  0  0  0  0  0  0
  191.4280  176.7170  138.7400 C   0  0  0  0  0  0  0  0  0  0  0  0
  193.1320  175.8470  135.3380 C   0  0  0  0  0  1  0  0  0  0  0  0
  188.8650  178.0170  139.9280 C   0  0  0  0  0  0  0  0  0  0  0  0
  191.1720  176.9040  140.0320 C   0  0  0  0  0  3  0  0  0  0  0  0
  190.3800  176.6900  137.6860 C   0  0  1  0  0  3  0  0  0  0  0  0
  184.9620  178.2070  144.5600 C   0  0  0  0  0  3  0  0  0  0  0  0
  186.1430  177.8610  143.8910 C   0  0  0  0  0  0  0  0  0  0  0  0
  189.6300  176.8820  141.8920 N   0  0  0  0  0  0  0  0  0  0  0  0
  188.2890  176.7980  143.8250 N   0  0  0  0  0  0  0  0  0  0  0  0
  187.0060  176.6040  145.9180 C   0  0  0  0  0  2  0  0  0  0  0  0
  189.0820  177.3000  147.1750 N   0  0  0  0  0  0  0  0  0  0  0  0
  187.3020  178.5170  147.6100 C   0  0  0  0  0  0  0  0  0  0  0  0
  188.3710  178.9750  148.3600 C   0  0  0  0  0  3  0  0  0  0  0  0
  189.4450  178.2090  148.0650 N   0  0  0  0  0  0  0  0  0  0  0  0
  185.9190  179.0660  147.6180 C   0  0  0  0  0  1  0  0  0  0  0  0
  187.7840  177.4650  146.8640 C   0  0  0  0  0  0  0  0  0  0  0  0
  189.9920  176.3190  146.6050 C   0  0  0  0  0  2  0  0  0  0  0  0
  191.3230  176.3670  147.3320 C   0  0  0  0  0  1  0  0  0  0  0  0
  1 14  1  0  0  0  0
  2  9  2  0  0  0  0
  3 23  1  0  0  0  0
  4  5  1  0  0  0  0
  5 20  2  0  0  0  0
  6 22  1  0  0  0  0
  7 11  2  0  0  0  0
  8  1  2  0  0  0  0
  8 19  1  0  0  0  0
  9 17  1  0  0  0  0
 10 12  1  0  0  0  0
 10  4  2  0  0  0  0
 11  3  1  0  0  0  0
 11 12  1  0  0  0  0
 12 21  2  0  0  0  0
 13 24  1  0  0  0  0
 14 15  1  0  0  0  0
 15 18  2  0  0  0  0
 16  1  1  0  0  0  0
 17  7  1  0  0  0  0
 17  6  2  0  0  0  0
 18  6  1  0  0  0  0
 19  2  1  6  0  0  0
 19 15  1  0  0  0  0
 21 13  1  0  0  0  0
 21 20  1  0  0  0  0
 22  3  2  0  0  0  0
 23 13  2  0  0  0  0
 24 30  1  0  0  0  0
 25 28  1  0  0  0  0
 26 29  1  0  0  0  0
 26 27  1  0  0  0  0
 28 27  2  0  0  0  0
 30 25  1  0  0  0  0
 30 26  2  0  0  0  0
 31 25  1  0  0  0  0
 31 32  1  0  0  0  0
M  END
>  <MODEL>
3

>  <REMARK>
 VINA RESULT:      -8.3      3.170      8.992
  Name = 
  3 active torsions:
  status: ('A' for Active; 'I' for Inactive)
    1  A    between atoms: C_6  and  N_7
    2  A    between atoms: C_16  and  C_27
    3  A    between atoms: C_27  and  C_32
                            x       y       z     vdW  Elec       q    Type
                         _______ _______ _______ _____ _____    ______ ____

>  <TORSDO>
F 3

$$$$
=
 OpenBabel11052416543D

 32 37  0  0  1  0  0  0  0  0999 V2000
  191.0380  177.2120  147.4420 C   0  0  0  0  0  0  0  0  0  0  0  0
  187.6920  177.2960  147.1330 C   0  0  0  0  0  3  0  0  0  0  0  0
  186.1330  178.1600  142.2650 C   0  0  0  0  0  0  0  0  0  0  0  0
  181.4790  179.1680  143.0990 C   0  0  0  0  0  3  0  0  0  0  0  0
  181.3280  179.4520  141.7780 N   0  0  0  0  0  0  0  0  0  0  0  0
  187.5920  177.4720  144.0100 C   0  0  0  0  0  0  0  0  0  0  0  0
  185.2940  177.9480  144.4830 N   0  0  0  0  0  0  0  0  0  0  0  0
  189.9530  177.8410  147.7090 N   0  0  0  0  0  0  0  0  0  0  0  0
  186.6110  177.1910  146.3630 C   0  0  0  0  0  3  0  0  0  0  0  0
  182.7200  178.7660  143.5930 C   0  0  0  0  0  3  0  0  0  0  0  0
  185.0730  178.2560  143.1780 C   0  0  0  0  0  0  0  0  0  0  0  0
  183.8090  178.6590  142.7200 C   0  0  0  0  0  0  0  0  0  0  0  0
  184.7290  178.8520  140.4730 C   0  0  0  0  0  0  0  0  0  0  0  0
  191.1780  176.4740  145.8180 S   0  0  0  0  0  0  0  0  0  0  0  0
  189.5370  177.1060  145.5300 C   0  0  0  0  0  0  0  0  0  0  0  0
  192.1200  177.0820  148.4560 C   0  0  0  0  0  1  0  0  0  0  0  0
  186.5190  177.5700  144.9380 C   0  0  0  0  0  0  0  0  0  0  0  0
  188.9440  176.9810  144.3460 C   0  0  0  0  0  3  0  0  0  0  0  0
  188.9730  177.8940  146.6590 C   0  0  1  0  0  3  0  0  0  0  0  0
  182.3650  179.3580  140.9050 C   0  0  0  0  0  3  0  0  0  0  0  0
  183.6330  178.9620  141.3510 C   0  0  0  0  0  0  0  0  0  0  0  0
  187.3540  177.7600  142.7020 N   0  0  0  0  0  0  0  0  0  0  0  0
  185.9390  178.4540  140.9530 N   0  0  0  0  0  0  0  0  0  0  0  0
  184.6000  179.1790  139.0170 C   0  0  0  0  0  2  0  0  0  0  0  0
  183.9770  176.9820  137.9410 N   0  0  0  0  0  0  0  0  0  0  0  0
  186.0500  177.6200  137.5760 C   0  0  0  0  0  0  0  0  0  0  0  0
  185.8230  176.4040  136.9560 C   0  0  0  0  0  3  0  0  0  0  0  0
  184.5430  176.0450  137.1970 N   0  0  0  0  0  0  0  0  0  0  0  0
  187.3250  178.3870  137.5740 C   0  0  0  0  0  1  0  0  0  0  0  0
  184.8630  177.9650  138.1820 C   0  0  0  0  0  0  0  0  0  0  0  0
  182.5880  176.9420  138.3710 C   0  0  0  0  0  2  0  0  0  0  0  0
  182.4240  175.9360  139.4940 C   0  0  0  0  0  1  0  0  0  0  0  0
  1  8  2  0  0  0  0
  1 16  1  0  0  0  0
  3 22  2  0  0  0  0
  3 11  1  0  0  0  0
  4 10  1  0  0  0  0
  5  4  2  0  0  0  0
  6 18  1  0  0  0  0
  6 17  2  0  0  0  0
  7 17  1  0  0  0  0
  9  2  2  0  0  0  0
 11  7  2  0  0  0  0
 12 11  1  0  0  0  0
 12 10  2  0  0  0  0
 13 23  2  0  0  0  0
 13 21  1  0  0  0  0
 14  1  1  0  0  0  0
 15 14  1  0  0  0  0
 15 19  1  0  0  0  0
 17  9  1  0  0  0  0
 18 15  2  0  0  0  0
 19  2  1  1  0  0  0
 19  8  1  0  0  0  0
 20 21  2  0  0  0  0
 20  5  1  0  0  0  0
 21 12  1  0  0  0  0
 22  6  1  0  0  0  0
 23  3  1  0  0  0  0
 24 13  1  0  0  0  0
 25 30  1  0  0  0  0
 25 31  1  0  0  0  0
 26 30  2  0  0  0  0
 27 28  2  0  0  0  0
 27 26  1  0  0  0  0
 28 25  1  0  0  0  0
 29 26  1  0  0  0  0
 30 24  1  0  0  0  0
 31 32  1  0  0  0  0
M  END
>  <MODEL>
4

>  <REMARK>
 VINA RESULT:      -8.1      3.435      6.052
  Name = 
  3 active torsions:
  status: ('A' for Active; 'I' for Inactive)
    1  A    between atoms: C_6  and  N_7
    2  A    between atoms: C_16  and  C_27
    3  A    between atoms: C_27  and  C_32
                            x       y       z     vdW  Elec       q    Type
                         _______ _______ _______ _____ _____    ______ ____

>  <TORSDO>
F 3

$$$$
=
 OpenBabel11052416543D

 32 37  0  0  1  0  0  0  0  0999 V2000
  191.0750  177.2080  147.4620 C   0  0  0  0  0  0  0  0  0  0  0  0
  187.7270  177.2310  147.1700 C   0  0  0  0  0  3  0  0  0  0  0  0
  186.1260  178.2100  142.3380 C   0  0  0  0  0  0  0  0  0  0  0  0
  181.4560  179.0930  143.2230 C   0  0  0  0  0  3  0  0  0  0  0  0
  181.2920  179.4140  141.9120 N   0  0  0  0  0  0  0  0  0  0  0  0
  187.6070  177.5000  144.0550 C   0  0  0  0  0  0  0  0  0  0  0  0
  185.3030  177.9120  144.5520 N   0  0  0  0  0  0  0  0  0  0  0  0
  189.9780  177.8050  147.7530 N   0  0  0  0  0  0  0  0  0  0  0  0
  186.6440  177.1260  146.4030 C   0  0  0  0  0  3  0  0  0  0  0  0
  182.7070  178.7030  143.6990 C   0  0  0  0  0  3  0  0  0  0  0  0
  185.0690  178.2560  143.2580 C   0  0  0  0  0  0  0  0  0  0  0  0
  183.7940  178.6450  142.8180 C   0  0  0  0  0  0  0  0  0  0  0  0
  184.6990  178.9270  140.5750 C   0  0  0  0  0  0  0  0  0  0  0  0
  191.2230  176.5240  145.8170 S   0  0  0  0  0  0  0  0  0  0  0  0
  189.5670  177.1290  145.5550 C   0  0  0  0  0  0  0  0  0  0  0  0
  192.1650  177.0700  148.4670 C   0  0  0  0  0  1  0  0  0  0  0  0
  186.5380  177.5460  144.9900 C   0  0  0  0  0  0  0  0  0  0  0  0
  188.9710  177.0280  144.3710 C   0  0  0  0  0  3  0  0  0  0  0  0
  188.9920  177.8700  146.7100 C   0  0  1  0  0  3  0  0  0  0  0  0
  182.3270  179.3690  141.0310 C   0  0  0  0  0  3  0  0  0  0  0  0
  183.6050  178.9860  141.4600 C   0  0  0  0  0  0  0  0  0  0  0  0
  187.3570  177.8230  142.7570 N   0  0  0  0  0  0  0  0  0  0  0  0
  185.9190  178.5390  141.0360 N   0  0  0  0  0  0  0  0  0  0  0  0
  184.5560  179.2950  139.1300 C   0  0  0  0  0  2  0  0  0  0  0  0
  185.8920  177.7990  137.5970 N   0  0  0  0  0  0  0  0  0  0  0  0
  183.8240  177.1340  137.9450 C   0  0  0  0  0  0  0  0  0  0  0  0
  184.4560  176.2530  137.0850 C   0  0  0  0  0  3  0  0  0  0  0  0
  185.7210  176.6890  136.8960 N   0  0  0  0  0  0  0  0  0  0  0  0
  182.4200  177.0420  138.4270 C   0  0  0  0  0  1  0  0  0  0  0  0
  184.7600  178.0940  138.2600 C   0  0  0  0  0  0  0  0  0  0  0  0
  187.1470  178.5320  137.6540 C   0  0  0  0  0  2  0  0  0  0  0  0
  188.2050  177.6900  138.3410 C   0  0  0  0  0  1  0  0  0  0  0  0
  1  8  2  0  0  0  0
  1 16  1  0  0  0  0
  3 22  2  0  0  0  0
  3 11  1  0  0  0  0
  4 10  1  0  0  0  0
  5  4  2  0  0  0  0
  6 18  1  0  0  0  0
  6 17  2  0  0  0  0
  7 17  1  0  0  0  0
  9  2  2  0  0  0  0
 11  7  2  0  0  0  0
 12 11  1  0  0  0  0
 12 10  2  0  0  0  0
 13 23  2  0  0  0  0
 13 21  1  0  0  0  0
 14  1  1  0  0  0  0
 15 14  1  0  0  0  0
 15 19  1  0  0  0  0
 17  9  1  0  0  0  0
 18 15  2  0  0  0  0
 19  2  1  1  0  0  0
 19  8  1  0  0  0  0
 20 21  2  0  0  0  0
 20  5  1  0  0  0  0
 21 12  1  0  0  0  0
 22  6  1  0  0  0  0
 23  3  1  0  0  0  0
 24 13  1  0  0  0  0
 25 31  1  0  0  0  0
 25 30  1  0  0  0  0
 26 30  2  0  0  0  0
 26 29  1  0  0  0  0
 27 26  1  0  0  0  0
 28 27  2  0  0  0  0
 28 25  1  0  0  0  0
 30 24  1  0  0  0  0
 31 32  1  0  0  0  0
M  END
>  <MODEL>
5

>  <REMARK>
 VINA RESULT:      -7.9      3.264      6.151
  Name = 
  3 active torsions:
  status: ('A' for Active; 'I' for Inactive)
    1  A    between atoms: C_6  and  N_7
    2  A    between atoms: C_16  and  C_27
    3  A    between atoms: C_27  and  C_32
                            x       y       z     vdW  Elec       q    Type
                         _______ _______ _______ _____ _____    ______ ____

>  <TORSDO>
F 3

$$$$
=
 OpenBabel11052416543D

 32 37  0  0  1  0  0  0  0  0999 V2000
  188.6900  178.2280  147.8410 C   0  0  0  0  0  0  0  0  0  0  0  0
  185.4220  178.4470  147.0880 C   0  0  0  0  0  3  0  0  0  0  0  0
  184.5090  178.3150  141.9870 C   0  0  0  0  0  0  0  0  0  0  0  0
  179.8970  179.7660  141.9780 C   0  0  0  0  0  3  0  0  0  0  0  0
  179.9230  179.7620  140.6180 N   0  0  0  0  0  0  0  0  0  0  0  0
  185.6940  177.9390  144.0120 C   0  0  0  0  0  0  0  0  0  0  0  0
  183.4080  178.6470  144.0720 N   0  0  0  0  0  0  0  0  0  0  0  0
  187.6410  178.9650  147.8270 N   0  0  0  0  0  0  0  0  0  0  0  0
  184.4300  178.2420  146.2240 C   0  0  0  0  0  3  0  0  0  0  0  0
  181.0340  179.4070  142.7030 C   0  0  0  0  0  3  0  0  0  0  0  0
  183.3650  178.6750  142.7130 C   0  0  0  0  0  0  0  0  0  0  0  0
  182.2020  179.0440  142.0200 C   0  0  0  0  0  0  0  0  0  0  0  0
  183.3850  178.6820  139.9230 C   0  0  0  0  0  0  0  0  0  0  0  0
  188.9490  177.1450  146.4410 S   0  0  0  0  0  0  0  0  0  0  0  0
  187.4130  177.7970  145.8160 C   0  0  0  0  0  0  0  0  0  0  0  0
  189.6340  178.2570  148.9920 C   0  0  0  0  0  1  0  0  0  0  0  0
  184.5350  178.3040  144.7520 C   0  0  0  0  0  0  0  0  0  0  0  0
  186.9500  177.4520  144.6180 C   0  0  0  0  0  3  0  0  0  0  0  0
  186.7950  178.8460  146.6700 C   0  0  1  0  0  3  0  0  0  0  0  0
  181.0420  179.4150  139.9270 C   0  0  0  0  0  3  0  0  0  0  0  0
  182.2100  179.0490  140.6070 C   0  0  0  0  0  0  0  0  0  0  0  0
  185.6320  177.9470  142.6530 N   0  0  0  0  0  0  0  0  0  0  0  0
  184.4930  178.3250  140.6290 N   0  0  0  0  0  0  0  0  0  0  0  0
  183.4520  178.6890  138.4270 C   0  0  0  0  0  2  0  0  0  0  0  0
  185.2720  177.2440  137.4390 N   0  0  0  0  0  0  0  0  0  0  0  0
  183.3750  176.1950  137.8100 C   0  0  0  0  0  0  0  0  0  0  0  0
  184.2910  175.3160  137.2590 C   0  0  0  0  0  3  0  0  0  0  0  0
  185.4420  175.9910  137.0480 N   0  0  0  0  0  0  0  0  0  0  0  0
  181.9750  175.8790  138.2020 C   0  0  0  0  0  1  0  0  0  0  0  0
  184.0260  177.4020  137.9220 C   0  0  0  0  0  0  0  0  0  0  0  0
  186.3160  178.2550  137.3860 C   0  0  0  0  0  2  0  0  0  0  0  0
  187.4010  177.9310  138.3960 C   0  0  0  0  0  1  0  0  0  0  0  0
  1 16  1  0  0  0  0
  3 22  2  0  0  0  0
  3 11  1  0  0  0  0
  4 10  1  0  0  0  0
  5  4  2  0  0  0  0
  6 18  1  0  0  0  0
  6 17  2  0  0  0  0
  7 17  1  0  0  0  0
  8  1  2  0  0  0  0
  9  2  2  0  0  0  0
 11  7  2  0  0  0  0
 12 10  2  0  0  0  0
 12 11  1  0  0  0  0
 13 21  1  0  0  0  0
 13 23  2  0  0  0  0
 14  1  1  0  0  0  0
 15 14  1  0  0  0  0
 15 19  1  0  0  0  0
 17  9  1  0  0  0  0
 18 15  2  0  0  0  0
 19  2  1  1  0  0  0
 19  8  1  0  0  0  0
 20 21  2  0  0  0  0
 20  5  1  0  0  0  0
 21 12  1  0  0  0  0
 22  6  1  0  0  0  0
 23  3  1  0  0  0  0
 24 13  1  0  0  0  0
 25 30  1  0  0  0  0
 26 30  2  0  0  0  0
 26 29  1  0  0  0  0
 27 26  1  0  0  0  0
 28 27  2  0  0  0  0
 28 25  1  0  0  0  0
 30 24  1  0  0  0  0
 31 25  1  0  0  0  0
 31 32  1  0  0  0  0
M  END
>  <MODEL>
6

>  <REMARK>
 VINA RESULT:      -7.7      3.833      6.787
  Name = 
  3 active torsions:
  status: ('A' for Active; 'I' for Inactive)
    1  A    between atoms: C_6  and  N_7
    2  A    between atoms: C_16  and  C_27
    3  A    between atoms: C_27  and  C_32
                            x       y       z     vdW  Elec       q    Type
                         _______ _______ _______ _____ _____    ______ ____

>  <TORSDO>
F 3

$$$$
=
 OpenBabel11052416543D

 32 37  0  0  1  0  0  0  0  0999 V2000
  188.4730  178.2380  147.7110 C   0  0  0  0  0  0  0  0  0  0  0  0
  185.1960  178.4480  146.9950 C   0  0  0  0  0  3  0  0  0  0  0  0
  184.2330  178.4080  141.9020 C   0  0  0  0  0  0  0  0  0  0  0  0
  179.6110  179.8240  141.9660 C   0  0  0  0  0  3  0  0  0  0  0  0
  179.6230  179.8460  140.6070 N   0  0  0  0  0  0  0  0  0  0  0  0
  185.4400  178.0010  143.9080 C   0  0  0  0  0  0  0  0  0  0  0  0
  183.1500  178.6910  144.0030 N   0  0  0  0  0  0  0  0  0  0  0  0
  187.4180  178.9680  147.7210 N   0  0  0  0  0  0  0  0  0  0  0  0
  184.1970  178.2520  146.1370 C   0  0  0  0  0  3  0  0  0  0  0  0
  180.7570  179.4600  142.6730 C   0  0  0  0  0  3  0  0  0  0  0  0
  183.0930  178.7450  142.6460 C   0  0  0  0  0  0  0  0  0  0  0  0
  181.9210  179.1190  141.9720 C   0  0  0  0  0  0  0  0  0  0  0  0
  183.0860  178.8060  139.8560 C   0  0  0  0  0  0  0  0  0  0  0  0
  188.7250  177.1840  146.2880 S   0  0  0  0  0  0  0  0  0  0  0  0
  187.1780  177.8370  145.6910 C   0  0  0  0  0  0  0  0  0  0  0  0
  189.4280  178.2530  148.8530 C   0  0  0  0  0  1  0  0  0  0  0  0
  184.2870  178.3430  144.6650 C   0  0  0  0  0  0  0  0  0  0  0  0
  186.7060  177.5120  144.4910 C   0  0  0  0  0  3  0  0  0  0  0  0
  186.5620  178.8650  146.5710 C   0  0  1  0  0  3  0  0  0  0  0  0
  180.7370  179.5210  139.8970 C   0  0  0  0  0  3  0  0  0  0  0  0
  181.9150  179.1510  140.5590 C   0  0  0  0  0  0  0  0  0  0  0  0
  185.3650  178.0350  142.5500 N   0  0  0  0  0  0  0  0  0  0  0  0
  184.2030  178.4440  140.5440 N   0  0  0  0  0  0  0  0  0  0  0  0
  183.1380  178.8420  138.3600 C   0  0  0  0  0  2  0  0  0  0  0  0
  182.7480  176.4400  137.6910 N   0  0  0  0  0  0  0  0  0  0  0  0
  184.8160  177.1380  137.4180 C   0  0  0  0  0  0  0  0  0  0  0  0
  184.7200  175.8120  137.0350 C   0  0  0  0  0  3  0  0  0  0  0  0
  183.4400  175.4180  137.2110 N   0  0  0  0  0  0  0  0  0  0  0  0
  186.0440  177.9780  137.3900 C   0  0  0  0  0  1  0  0  0  0  0  0
  183.5520  177.5100  137.8170 C   0  0  0  0  0  0  0  0  0  0  0  0
  181.3230  176.3870  137.9760 C   0  0  0  0  0  2  0  0  0  0  0  0
  181.0790  175.5810  139.2380 C   0  0  0  0  0  1  0  0  0  0  0  0
  1  8  2  0  0  0  0
  1 16  1  0  0  0  0
  3 22  2  0  0  0  0
  3 11  1  0  0  0  0
  4 10  1  0  0  0  0
  5  4  2  0  0  0  0
  6 18  1  0  0  0  0
  6 17  2  0  0  0  0
  7 17  1  0  0  0  0
  9  2  2  0  0  0  0
 11  7  2  0  0  0  0
 12 11  1  0  0  0  0
 12 10  2  0  0  0  0
 13 23  2  0  0  0  0
 13 21  1  0  0  0  0
 14  1  1  0  0  0  0
 15 14  1  0  0  0  0
 15 19  1  0  0  0  0
 17  9  1  0  0  0  0
 18 15  2  0  0  0  0
 19  2  1  1  0  0  0
 19  8  1  0  0  0  0
 20 21  2  0  0  0  0
 20  5  1  0  0  0  0
 21 12  1  0  0  0  0
 22  6  1  0  0  0  0
 23  3  1  0  0  0  0
 24 13  1  0  0  0  0
 25 30  1  0  0  0  0
 25 31  1  0  0  0  0
 26 30  2  0  0  0  0
 27 28  2  0  0  0  0
 27 26  1  0  0  0  0
 28 25  1  0  0  0  0
 29 26  1  0  0  0  0
 30 24  1  0  0  0  0
 31 32  1  0  0  0  0
M  END
>  <MODEL>
7

>  <REMARK>
 VINA RESULT:      -7.6      4.286      7.011
  Name = 
  3 active torsions:
  status: ('A' for Active; 'I' for Inactive)
    1  A    between atoms: C_6  and  N_7
    2  A    between atoms: C_16  and  C_27
    3  A    between atoms: C_27  and  C_32
                            x       y       z     vdW  Elec       q    Type
                         _______ _______ _______ _____ _____    ______ ____

>  <TORSDO>
F 3

$$$$
=
 OpenBabel11052416543D

 32 37  0  0  1  0  0  0  0  0999 V2000
  189.5210  177.7080  147.0140 C   0  0  0  0  0  0  0  0  0  0  0  0
  187.6910  177.7870  144.1950 C   0  0  0  0  0  3  0  0  0  0  0  0
  190.4620  176.6870  139.9550 C   0  0  0  0  0  0  0  0  0  0  0  0
  187.3200  178.1190  136.5710 C   0  0  0  0  0  3  0  0  0  0  0  0
  188.2570  177.8560  135.6220 N   0  0  0  0  0  0  0  0  0  0  0  0
  189.9010  176.7010  142.2640 C   0  0  0  0  0  0  0  0  0  0  0  0
  188.2990  177.4120  140.6340 N   0  0  0  0  0  0  0  0  0  0  0  0
  188.8690  178.4310  146.1790 N   0  0  0  0  0  0  0  0  0  0  0  0
  187.5300  177.4230  142.9250 C   0  0  0  0  0  3  0  0  0  0  0  0
  187.6050  177.9020  137.9190 C   0  0  0  0  0  3  0  0  0  0  0  0
  189.1900  177.1810  139.6340 C   0  0  0  0  0  0  0  0  0  0  0  0
  188.8650  177.4130  138.2880 C   0  0  0  0  0  0  0  0  0  0  0  0
  191.0930  176.6560  137.6610 C   0  0  0  0  0  0  0  0  0  0  0  0
  190.5110  176.3780  146.3440 S   0  0  0  0  0  0  0  0  0  0  0  0
  189.9080  176.9020  144.7510 C   0  0  0  0  0  0  0  0  0  0  0  0
  189.4310  177.9550  148.4790 C   0  0  0  0  0  1  0  0  0  0  0  0
  188.6100  177.2030  141.9420 C   0  0  0  0  0  0  0  0  0  0  0  0
  190.3370  176.3360  143.6270 C   0  0  0  0  0  3  0  0  0  0  0  0
  189.0220  178.0960  144.7900 C   0  0  1  0  0  3  0  0  0  0  0  0
  189.4890  177.3810  135.9480 C   0  0  0  0  0  3  0  0  0  0  0  0
  189.8270  177.1490  137.2880 C   0  0  0  0  0  0  0  0  0  0  0  0
  190.7770  176.4510  141.2530 N   0  0  0  0  0  0  0  0  0  0  0  0
  191.3710  176.4380  138.9760 N   0  0  0  0  0  0  0  0  0  0  0  0
  192.1540  176.3780  136.6420 C   0  0  0  0  0  2  0  0  0  0  0  0
  193.4960  174.2960  137.1290 N   0  0  0  0  0  0  0  0  0  0  0  0
  191.7160  173.9620  135.8800 C   0  0  0  0  0  0  0  0  0  0  0  0
  192.3800  172.7630  136.0720 C   0  0  0  0  0  3  0  0  0  0  0  0
  193.4620  173.0030  136.8440 N   0  0  0  0  0  0  0  0  0  0  0  0
  190.4710  174.1650  135.0920 C   0  0  0  0  0  1  0  0  0  0  0  0
  192.4390  174.9100  136.5690 C   0  0  0  0  0  0  0  0  0  0  0  0
  194.5120  174.9110  137.9690 C   0  0  0  0  0  2  0  0  0  0  0  0
  195.8920  174.5020  137.4910 C   0  0  0  0  0  1  0  0  0  0  0  0
  1 16  1  0  0  0  0
  3 22  2  0  0  0  0
  4 10  1  0  0  0  0
  5 20  1  0  0  0  0
  5  4  2  0  0  0  0
  6 18  1  0  0  0  0
  7 17  1  0  0  0  0
  8  1  2  0  0  0  0
  9  2  2  0  0  0  0
 10 12  2  0  0  0  0
 11  3  1  0  0  0  0
 11  7  2  0  0  0  0
 12 11  1  0  0  0  0
 13 23  2  0  0  0  0
 14  1  1  0  0  0  0
 15 19  1  0  0  0  0
 15 14  1  0  0  0  0
 17  6  2  0  0  0  0
 17  9  1  0  0  0  0
 18 15  2  0  0  0  0
 19  2  1  1  0  0  0
 19  8  1  0  0  0  0
 20 21  2  0  0  0  0
 21 13  1  0  0  0  0
 21 12  1  0  0  0  0
 22  6  1  0  0  0  0
 23  3  1  0  0  0  0
 24 13  1  0  0  0  0
 25 31  1  0  0  0  0
 26 27  1  0  0  0  0
 26 30  2  0  0  0  0
 27 28  2  0  0  0  0
 28 25  1  0  0  0  0
 29 26  1  0  0  0  0
 30 24  1  0  0  0  0
 30 25  1  0  0  0  0
 32 31  1  0  0  0  0
M  END
>  <MODEL>
8

>  <REMARK>
 VINA RESULT:      -7.5      2.107      4.513
  Name = 
  3 active torsions:
  status: ('A' for Active; 'I' for Inactive)
    1  A    between atoms: C_6  and  N_7
    2  A    between atoms: C_16  and  C_27
    3  A    between atoms: C_27  and  C_32
                            x       y       z     vdW  Elec       q    Type
                         _______ _______ _______ _____ _____    ______ ____

>  <TORSDO>
F 3

$$$$
=
 OpenBabel11052416543D

 32 37  0  0  1  0  0  0  0  0999 V2000
  180.3880  179.0790  141.3910 C   0  0  0  0  0  0  0  0  0  0  0  0
  183.4120  179.1740  142.8570 C   0  0  0  0  0  3  0  0  0  0  0  0
  187.2930  178.2610  139.5450 C   0  0  0  0  0  0  0  0  0  0  0  0
  190.8740  177.5380  142.7130 C   0  0  0  0  0  3  0  0  0  0  0  0
  191.6960  177.2260  141.6760 N   0  0  0  0  0  0  0  0  0  0  0  0
  185.1200  178.9150  140.2480 C   0  0  0  0  0  0  0  0  0  0  0  0
  186.8550  178.5820  141.8630 N   0  0  0  0  0  0  0  0  0  0  0  0
  181.1990  178.5200  142.2130 N   0  0  0  0  0  0  0  0  0  0  0  0
  184.7310  179.3180  142.7510 C   0  0  0  0  0  3  0  0  0  0  0  0
  189.5430  177.8840  142.4740 C   0  0  0  0  0  3  0  0  0  0  0  0
  187.7300  178.2490  140.8770 C   0  0  0  0  0  0  0  0  0  0  0  0
  189.0610  177.9050  141.1590 C   0  0  0  0  0  0  0  0  0  0  0  0
  189.4440  177.5970  138.7740 C   0  0  0  0  0  0  0  0  0  0  0  0
  181.0850  179.7610  139.8920 S   0  0  0  0  0  0  0  0  0  0  0  0
  182.6580  179.2150  140.5260 C   0  0  0  0  0  0  0  0  0  0  0  0
  178.9340  179.1770  141.6940 C   0  0  0  0  0  1  0  0  0  0  0  0
  185.5590  178.9040  141.6000 C   0  0  0  0  0  0  0  0  0  0  0  0
  183.7740  179.3380  139.8130 C   0  0  0  0  0  3  0  0  0  0  0  0
  182.5820  178.4920  141.8240 C   0  0  1  0  0  3  0  0  0  0  0  0
  191.2580  177.2370  140.3890 C   0  0  0  0  0  3  0  0  0  0  0  0
  189.9300  177.5740  140.0960 C   0  0  0  0  0  0  0  0  0  0  0  0
  186.0100  178.6030  139.2680 N   0  0  0  0  0  0  0  0  0  0  0  0
  188.1480  177.9410  138.5390 N   0  0  0  0  0  0  0  0  0  0  0  0
  190.3180  177.2370  137.6130 C   0  0  0  0  0  2  0  0  0  0  0  0
  191.4230  174.9690  137.5080 N   0  0  0  0  0  0  0  0  0  0  0  0
  189.2750  174.9590  137.0360 C   0  0  0  0  0  0  0  0  0  0  0  0
  189.7780  173.6740  136.9350 C   0  0  0  0  0  3  0  0  0  0  0  0
  191.0950  173.7160  137.2340 N   0  0  0  0  0  0  0  0  0  0  0  0
  187.8680  175.3770  136.7920 C   0  0  0  0  0  1  0  0  0  0  0  0
  190.3350  175.7540  137.4100 C   0  0  0  0  0  0  0  0  0  0  0  0
  192.7600  175.3860  137.9010 C   0  0  0  0  0  2  0  0  0  0  0  0
  193.5730  175.7420  136.6710 C   0  0  0  0  0  1  0  0  0  0  0  0
  1 16  1  0  0  0  0
  1  8  2  0  0  0  0
  3 11  1  0  0  0  0
  5  4  2  0  0  0  0
  6 17  2  0  0  0  0
  9  2  2  0  0  0  0
 10  4  1  0  0  0  0
 11 12  1  0  0  0  0
 11  7  2  0  0  0  0
 12 10  2  0  0  0  0
 13 21  1  0  0  0  0
 14 15  1  0  0  0  0
 14  1  1  0  0  0  0
 15 19  1  0  0  0  0
 17  7  1  0  0  0  0
 17  9  1  0  0  0  0
 18  6  1  0  0  0  0
 18 15  2  0  0  0  0
 19  8  1  0  0  0  0
 19  2  1  1  0  0  0
 20  5  1  0  0  0  0
 21 20  2  0  0  0  0
 21 12  1  0  0  0  0
 22  3  2  0  0  0  0
 22  6  1  0  0  0  0
 23 13  2  0  0  0  0
 23  3  1  0  0  0  0
 24 13  1  0  0  0  0
 25 31  1  0  0  0  0
 26 30  2  0  0  0  0
 27 26  1  0  0  0  0
 27 28  2  0  0  0  0
 28 25  1  0  0  0  0
 29 26  1  0  0  0  0
 30 25  1  0  0  0  0
 30 24  1  0  0  0  0
 32 31  1  0  0  0  0
M  END
>  <MODEL>
9

>  <REMARK>
 VINA RESULT:      -7.5      3.496      5.959
  Name = 
  3 active torsions:
  status: ('A' for Active; 'I' for Inactive)
    1  A    between atoms: C_6  and  N_7
    2  A    between atoms: C_16  and  C_27
    3  A    between atoms: C_27  and  C_32
                            x       y       z     vdW  Elec       q    Type
                         _______ _______ _______ _____ _____    ______ ____

>  <TORSDO>
F 3

$$$$
