=
 OpenBabel11052416023D

 34 37  0  0  1  0  0  0  0  0999 V2000
  191.0750  177.0970  140.5510 C   0  0  0  0  0  0  0  0  0  0  0  0
  192.1770  177.5840  140.9130 O   0  0  0  0  0  0  0  0  0  0  0  0
  190.6840  176.8770  138.0090 C   0  0  1  0  0  3  0  0  0  0  0  0
  189.3850  176.6590  138.7590 C   0  0  1  0  0  3  0  0  0  0  0  0
  190.4010  177.6450  139.3150 C   0  0  1  0  0  3  0  0  0  0  0  0
  193.0750  176.0430  137.9790 C   0  0  2  0  0  3  0  0  0  0  0  0
  192.2810  173.7330  136.5140 C   0  0  2  0  0  0  0  0  0  0  0  0
  192.0300  172.7300  135.4580 C   0  0  0  0  0  2  0  0  0  0  0  0
  191.1850  174.5260  137.1760 C   0  0  0  0  0  0  0  0  0  0  0  0
  189.9590  174.0040  137.2470 C   0  0  0  0  0  2  0  0  0  0  0  0
  193.2610  176.8200  136.8330 O   0  0  0  0  0  1  0  0  0  0  0  0
  192.3970  174.0580  135.1520 O   0  0  0  0  0  0  0  0  0  0  0  0
  193.5560  173.7300  137.1450 O   0  0  0  0  0  0  0  0  0  0  0  0
  193.9570  174.8330  137.8990 C   0  0  0  0  0  0  0  0  0  0  0  0
  191.5900  175.6390  138.1320 C   0  0  2  0  0  3  0  0  0  0  0  0
  195.0740  174.8270  138.4790 O   0  0  0  0  0  0  0  0  0  0  0  0
  187.3540  176.7270  137.5100 O   0  0  0  0  0  0  0  0  0  0  0  0
  188.2820  177.3790  138.0570 C   0  0  0  0  0  0  0  0  0  0  0  0
  188.2470  178.7680  138.0400 O   0  0  0  0  0  1  0  0  0  0  0  0
  190.4930  176.1020  141.3440 O   0  0  0  0  0  0  0  0  0  0  0  0
  190.0720  176.3240  142.6830 C   0  0  2  0  0  3  0  0  0  0  0  0
  189.7040  177.7910  142.8540 C   0  0  0  0  0  2  0  0  0  0  0  0
  185.4470  178.3700  142.7690 C   0  0  0  0  0  0  0  0  0  0  0  0
  186.2180  178.6290  141.6230 C   0  0  0  0  0  3  0  0  0  0  0  0
  187.6020  178.4360  141.6490 C   0  0  0  0  0  3  0  0  0  0  0  0
  187.4590  177.7230  143.9580 C   0  0  0  0  0  3  0  0  0  0  0  0
  188.2250  177.9810  142.8170 C   0  0  0  0  0  0  0  0  0  0  0  0
  186.0760  177.9170  143.9330 C   0  0  0  0  0  3  0  0  0  0  0  0
  183.9900  178.5640  142.7810 C   0  0  0  0  0  3  0  0  0  0  0  0
  181.8240  178.9120  143.8440 C   0  0  0  0  0  1  0  0  0  0  0  0
  183.2960  178.7210  143.9030 C   0  0  0  0  0  3  0  0  0  0  0  0
  191.1950  175.9510  143.6400 C   0  0  0  0  0  2  0  0  0  0  0  0
  191.5650  176.6980  145.9350 N   0  0  0  0  0  1  0  0  0  0  0  0
  191.5470  177.1210  144.5460 C   0  0  0  0  0  2  0  0  0  0  0  0
  1  2  2  0  0  0  0
  1 20  1  0  0  0  0
  3 15  1  1  0  0  0
  3  4  1  0  0  0  0
  3  5  1  0  0  0  0
  4 18  1  6  0  0  0
  4  5  1  0  0  0  0
  5  1  1  1  0  0  0
  6 11  1  6  0  0  0
  6 15  1  0  0  0  0
  7  8  1  1  0  0  0
  7 13  1  0  0  0  0
  7  9  1  0  0  0  0
  9 10  2  0  0  0  0
 12  8  1  0  0  0  0
 12  7  1  0  0  0  0
 13 14  1  0  0  0  0
 14  6  1  0  0  0  0
 14 16  2  0  0  0  0
 15  9  1  6  0  0  0
 17 18  2  0  0  0  0
 19 18  1  0  0  0  0
 20 21  1  0  0  0  0
 21 22  1  6  0  0  0
 21 32  1  0  0  0  0
 23 29  1  0  0  0  0
 23 28  1  0  0  0  0
 24 25  1  0  0  0  0
 24 23  2  0  0  0  0
 25 27  2  0  0  0  0
 27 22  1  0  0  0  0
 27 26  1  0  0  0  0
 28 26  2  0  0  0  0
 29 31  2  0  0  0  0
 30 31  1  0  0  0  0
 32 34  1  0  0  0  0
 34 33  1  0  0  0  0
M  END
>  <MODEL>
1

>  <REMARK>
 VINA RESULT:      -7.9      0.000      0.000
  Name = 
  10 active torsions:
  status: ('A' for Active; 'I' for Inactive)
    1  A    between atoms: C_1  and  O_8
    2  A    between atoms: C_1  and  C_34
    3  A    between atoms: C_5  and  C_32
    4  A    between atoms: C_6  and  C_18
    5  A    between atoms: C_6  and  C_28
    6  A    between atoms: C_7  and  C_11
    7  A    between atoms: O_8  and  C_18
    8  A    between atoms: C_12  and  C_20
    9  A    between atoms: C_18  and  C_30
   10  A    between atoms: C_30  and  C_31
                            x       y       z     vdW  Elec       q    Type
                         _______ _______ _______ _____ _____    ______ ____

>  <TORSDO>
F 10

$$$$
=
 OpenBabel11052416023D

 34 37  0  0  1  0  0  0  0  0999 V2000
  190.6170  177.3460  139.8140 C   0  0  0  0  0  0  0  0  0  0  0  0
  191.7740  177.5420  140.2690 O   0  0  0  0  0  0  0  0  0  0  0  0
  191.0270  176.7910  137.3270 C   0  0  1  0  0  3  0  0  0  0  0  0
  189.5710  176.5630  137.6800 C   0  0  1  0  0  3  0  0  0  0  0  0
  190.3310  177.6870  138.3700 C   0  0  1  0  0  3  0  0  0  0  0  0
  193.3770  176.1010  137.9680 C   0  0  2  0  0  3  0  0  0  0  0  0
  192.9500  173.5110  136.8630 C   0  0  2  0  0  0  0  0  0  0  0  0
  192.9460  172.3100  136.0010 C   0  0  0  0  0  2  0  0  0  0  0  0
  191.7260  174.3550  137.1070 C   0  0  0  0  0  0  0  0  0  0  0  0
  190.5210  173.7900  137.0210 C   0  0  0  0  0  2  0  0  0  0  0  0
  193.7990  176.6510  136.7550 O   0  0  0  0  0  1  0  0  0  0  0  0
  193.3550  173.5720  135.5190 O   0  0  0  0  0  0  0  0  0  0  0  0
  194.0560  173.7010  137.7360 O   0  0  0  0  0  0  0  0  0  0  0  0
  194.2700  174.9490  138.3200 C   0  0  0  0  0  0  0  0  0  0  0  0
  191.9000  175.6520  137.8840 C   0  0  2  0  0  3  0  0  0  0  0  0
  195.2340  175.1170  139.1120 O   0  0  0  0  0  0  0  0  0  0  0  0
  188.1910  176.3210  135.7500 O   0  0  0  0  0  0  0  0  0  0  0  0
  188.7070  177.1040  136.5900 C   0  0  0  0  0  0  0  0  0  0  0  0
  188.4310  178.4650  136.5200 O   0  0  0  0  0  1  0  0  0  0  0  0
  189.6290  176.8720  140.6820 O   0  0  0  0  0  0  0  0  0  0  0  0
  188.8700  177.7210  141.5330 C   0  0  2  0  0  3  0  0  0  0  0  0
  188.2200  176.8800  142.6240 C   0  0  0  0  0  2  0  0  0  0  0  0
  190.6630  176.8470  146.1590 C   0  0  0  0  0  0  0  0  0  0  0  0
  189.2890  177.1260  146.2520 C   0  0  0  0  0  3  0  0  0  0  0  0
  188.4930  177.1320  145.1030 C   0  0  0  0  0  3  0  0  0  0  0  0
  190.4290  176.5790  143.7600 C   0  0  0  0  0  3  0  0  0  0  0  0
  189.0620  176.8570  143.8550 C   0  0  0  0  0  0  0  0  0  0  0  0
  191.2250  176.5730  144.9070 C   0  0  0  0  0  3  0  0  0  0  0  0
  191.5320  176.8340  147.3440 C   0  0  0  0  0  3  0  0  0  0  0  0
  193.1340  175.8390  148.8890 C   0  0  0  0  0  1  0  0  0  0  0  0
  192.2760  175.7850  147.6770 C   0  0  0  0  0  3  0  0  0  0  0  0
  187.8020  178.4370  140.7190 C   0  0  0  0  0  2  0  0  0  0  0  0
  185.5650  179.4130  140.7840 N   0  0  0  0  0  1  0  0  0  0  0  0
  186.5540  178.6810  141.5540 C   0  0  0  0  0  2  0  0  0  0  0  0
  1  2  2  0  0  0  0
  1 20  1  0  0  0  0
  3  4  1  0  0  0  0
  3 15  1  1  0  0  0
  3  5  1  0  0  0  0
  4 18  1  6  0  0  0
  4  5  1  0  0  0  0
  5  1  1  1  0  0  0
  6 11  1  6  0  0  0
  6 14  1  0  0  0  0
  7  8  1  1  0  0  0
  7  9  1  0  0  0  0
  7 13  1  0  0  0  0
 10  9  2  0  0  0  0
 12  8  1  0  0  0  0
 12  7  1  0  0  0  0
 13 14  1  0  0  0  0
 14 16  2  0  0  0  0
 15  9  1  6  0  0  0
 15  6  1  0  0  0  0
 17 18  2  0  0  0  0
 19 18  1  0  0  0  0
 20 21  1  0  0  0  0
 21 32  1  6  0  0  0
 21 22  1  0  0  0  0
 22 27  1  0  0  0  0
 23 24  1  0  0  0  0
 23 29  1  0  0  0  0
 25 24  2  0  0  0  0
 26 27  2  0  0  0  0
 26 28  1  0  0  0  0
 27 25  1  0  0  0  0
 28 23  2  0  0  0  0
 29 31  2  0  0  0  0
 31 30  1  0  0  0  0
 32 34  1  0  0  0  0
 33 34  1  0  0  0  0
M  END
>  <MODEL>
2

>  <REMARK>
 VINA RESULT:      -7.4      2.178      4.335
  Name = 
  10 active torsions:
  status: ('A' for Active; 'I' for Inactive)
    1  A    between atoms: C_1  and  O_8
    2  A    between atoms: C_1  and  C_34
    3  A    between atoms: C_5  and  C_32
    4  A    between atoms: C_6  and  C_18
    5  A    between atoms: C_6  and  C_28
    6  A    between atoms: C_7  and  C_11
    7  A    between atoms: O_8  and  C_18
    8  A    between atoms: C_12  and  C_20
    9  A    between atoms: C_18  and  C_30
   10  A    between atoms: C_30  and  C_31
                            x       y       z     vdW  Elec       q    Type
                         _______ _______ _______ _____ _____    ______ ____

>  <TORSDO>
F 10

$$$$
=
 OpenBabel11052416023D

 34 37  0  0  1  0  0  0  0  0999 V2000
  184.9230  179.0640  140.1560 C   0  0  0  0  0  0  0  0  0  0  0  0
  186.1160  178.7850  139.8670 O   0  0  0  0  0  0  0  0  0  0  0  0
  183.3160  178.7180  138.1660 C   0  0  1  0  0  3  0  0  0  0  0  0
  182.5800  179.3550  139.3280 C   0  0  1  0  0  3  0  0  0  0  0  0
  184.0440  179.7000  139.1040 C   0  0  1  0  0  3  0  0  0  0  0  0
  184.5140  176.6320  137.3780 C   0  0  2  0  0  3  0  0  0  0  0  0
  182.2070  175.0590  137.9380 C   0  0  2  0  0  0  0  0  0  0  0  0
  180.9690  174.2560  137.8420 C   0  0  0  0  0  2  0  0  0  0  0  0
  182.2510  176.4390  138.5410 C   0  0  0  0  0  0  0  0  0  0  0  0
  181.3530  176.7690  139.4720 C   0  0  0  0  0  2  0  0  0  0  0  0
  184.0930  176.9580  136.0860 O   0  0  0  0  0  1  0  0  0  0  0  0
  181.4360  175.0380  136.7630 O   0  0  0  0  0  0  0  0  0  0  0  0
  183.4490  174.3940  137.7430 O   0  0  0  0  0  0  0  0  0  0  0  0
  184.6030  175.1400  137.5020 C   0  0  0  0  0  0  0  0  0  0  0  0
  183.5520  177.2210  138.4340 C   0  0  2  0  0  3  0  0  0  0  0  0
  185.7090  174.5590  137.3510 O   0  0  0  0  0  0  0  0  0  0  0  0
  182.1630  181.6030  138.6510 O   0  0  0  0  0  1  0  0  0  0  0  0
  181.6980  180.4450  138.8180 C   0  0  0  0  0  0  0  0  0  0  0  0
  180.3750  180.1830  138.4840 O   0  0  0  0  0  0  0  0  0  0  0  0
  184.4780  178.8230  141.4590 O   0  0  0  0  0  0  0  0  0  0  0  0
  185.3200  178.9230  142.6000 C   0  0  2  0  0  3  0  0  0  0  0  0
  185.5520  177.5320  143.1720 C   0  0  0  0  0  2  0  0  0  0  0  0
  189.3010  177.2850  145.2580 C   0  0  0  0  0  0  0  0  0  0  0  0
  189.2610  177.1650  143.8590 C   0  0  0  0  0  3  0  0  0  0  0  0
  188.0430  177.2500  143.1790 C   0  0  0  0  0  3  0  0  0  0  0  0
  186.8930  177.5780  145.2840 C   0  0  0  0  0  3  0  0  0  0  0  0
  186.8570  177.4590  143.8910 C   0  0  0  0  0  0  0  0  0  0  0  0
  188.1100  177.4930  145.9630 C   0  0  0  0  0  3  0  0  0  0  0  0
  190.5620  177.1980  146.0070 C   0  0  0  0  0  3  0  0  0  0  0  0
  192.0730  176.2560  147.6710 C   0  0  0  0  0  1  0  0  0  0  0  0
  190.7740  176.2880  146.9510 C   0  0  0  0  0  3  0  0  0  0  0  0
  184.6630  179.8150  143.6430 C   0  0  0  0  0  2  0  0  0  0  0  0
  183.7360  179.0610  145.7720 N   0  0  0  0  0  1  0  0  0  0  0  0
  183.5200  179.0900  144.3370 C   0  0  0  0  0  2  0  0  0  0  0  0
  1 20  1  0  0  0  0
  2  1  2  0  0  0  0
  3 15  1  1  0  0  0
  3  5  1  0  0  0  0
  3  4  1  0  0  0  0
  4 18  1  6  0  0  0
  5  4  1  0  0  0  0
  5  1  1  1  0  0  0
  6 11  1  6  0  0  0
  6 14  1  0  0  0  0
  6 15  1  0  0  0  0
  7  8  1  1  0  0  0
  7  9  1  0  0  0  0
  9 10  2  0  0  0  0
 12  8  1  0  0  0  0
 12  7  1  0  0  0  0
 13  7  1  0  0  0  0
 14 13  1  0  0  0  0
 15  9  1  6  0  0  0
 16 14  2  0  0  0  0
 17 18  1  0  0  0  0
 19 18  2  0  0  0  0
 20 21  1  0  0  0  0
 21 22  1  1  0  0  0
 21 32  1  0  0  0  0
 22 27  1  0  0  0  0
 23 28  1  0  0  0  0
 23 29  1  0  0  0  0
 24 23  2  0  0  0  0
 25 24  1  0  0  0  0
 25 27  2  0  0  0  0
 26 28  2  0  0  0  0
 27 26  1  0  0  0  0
 29 31  2  0  0  0  0
 31 30  1  0  0  0  0
 32 34  1  0  0  0  0
 34 33  1  0  0  0  0
M  END
>  <MODEL>
3

>  <REMARK>
 VINA RESULT:      -7.3      5.146      7.740
  Name = 
  10 active torsions:
  status: ('A' for Active; 'I' for Inactive)
    1  A    between atoms: C_1  and  O_8
    2  A    between atoms: C_1  and  C_34
    3  A    between atoms: C_5  and  C_32
    4  A    between atoms: C_6  and  C_18
    5  A    between atoms: C_6  and  C_28
    6  A    between atoms: C_7  and  C_11
    7  A    between atoms: O_8  and  C_18
    8  A    between atoms: C_12  and  C_20
    9  A    between atoms: C_18  and  C_30
   10  A    between atoms: C_30  and  C_31
                            x       y       z     vdW  Elec       q    Type
                         _______ _______ _______ _____ _____    ______ ____

>  <TORSDO>
F 10

$$$$
=
 OpenBabel11052416023D

 34 37  0  0  1  0  0  0  0  0999 V2000
  184.5020  178.6370  140.8790 C   0  0  0  0  0  0  0  0  0  0  0  0
  183.8200  177.6400  141.2320 O   0  0  0  0  0  0  0  0  0  0  0  0
  184.4820  179.0250  138.3270 C   0  0  1  0  0  3  0  0  0  0  0  0
  183.0860  178.6930  138.8160 C   0  0  1  0  0  3  0  0  0  0  0  0
  184.0180  179.4820  139.7230 C   0  0  1  0  0  3  0  0  0  0  0  0
  186.8480  178.1320  138.1860 C   0  0  2  0  0  3  0  0  0  0  0  0
  185.9940  176.0650  136.4220 C   0  0  2  0  0  0  0  0  0  0  0  0
  185.7190  175.2210  135.2400 C   0  0  0  0  0  2  0  0  0  0  0  0
  184.9190  176.7940  137.1840 C   0  0  0  0  0  0  0  0  0  0  0  0
  183.6780  176.3030  137.1840 C   0  0  0  0  0  2  0  0  0  0  0  0
  187.0620  179.0510  137.1550 O   0  0  0  0  0  1  0  0  0  0  0  0
  186.1260  176.5670  135.1160 O   0  0  0  0  0  0  0  0  0  0  0  0
  187.2650  175.9400  137.0480 O   0  0  0  0  0  0  0  0  0  0  0  0
  187.6950  176.9190  137.9440 C   0  0  0  0  0  0  0  0  0  0  0  0
  185.3510  177.7550  138.2820 C   0  0  2  0  0  3  0  0  0  0  0  0
  188.8080  176.8020  138.5190 O   0  0  0  0  0  0  0  0  0  0  0  0
  181.3090  179.1440  137.2910 O   0  0  0  0  0  0  0  0  0  0  0  0
  182.1020  179.6000  138.1560 C   0  0  0  0  0  0  0  0  0  0  0  0
  182.0250  180.9390  138.5190 O   0  0  0  0  0  1  0  0  0  0  0  0
  185.7090  178.8870  141.5370 O   0  0  0  0  0  0  0  0  0  0  0  0
  185.8260  178.9420  142.9530 C   0  0  2  0  0  3  0  0  0  0  0  0
  185.9480  177.5260  143.4990 C   0  0  0  0  0  2  0  0  0  0  0  0
  189.7080  177.0060  145.5120 C   0  0  0  0  0  0  0  0  0  0  0  0
  188.5650  177.3800  146.2370 C   0  0  0  0  0  3  0  0  0  0  0  0
  187.3400  177.5450  145.5830 C   0  0  0  0  0  3  0  0  0  0  0  0
  188.3850  176.9610  143.4790 C   0  0  0  0  0  3  0  0  0  0  0  0
  187.2480  177.3340  144.2030 C   0  0  0  0  0  0  0  0  0  0  0  0
  189.6090  176.7970  144.1310 C   0  0  0  0  0  3  0  0  0  0  0  0
  191.0140  176.8260  146.1630 C   0  0  0  0  0  3  0  0  0  0  0  0
  192.5200  175.9650  147.8740 C   0  0  0  0  0  1  0  0  0  0  0  0
  191.1710  176.1050  147.2670 C   0  0  0  0  0  3  0  0  0  0  0  0
  184.5990  179.6250  143.5410 C   0  0  0  0  0  2  0  0  0  0  0  0
  183.9600  179.0860  145.8350 N   0  0  0  0  0  1  0  0  0  0  0  0
  183.8310  178.6760  144.4480 C   0  0  0  0  0  2  0  0  0  0  0  0
  1  2  2  0  0  0  0
  1 20  1  0  0  0  0
  3 15  1  1  0  0  0
  3  4  1  0  0  0  0
  3  5  1  0  0  0  0
  4 18  1  6  0  0  0
  4  5  1  0  0  0  0
  5  1  1  1  0  0  0
  6 11  1  6  0  0  0
  6 15  1  0  0  0  0
  7  8  1  6  0  0  0
  7 13  1  0  0  0  0
  7  9  1  0  0  0  0
  9 10  2  0  0  0  0
 12  8  1  0  0  0  0
 12  7  1  0  0  0  0
 13 14  1  0  0  0  0
 14  6  1  0  0  0  0
 14 16  2  0  0  0  0
 15  9  1  6  0  0  0
 17 18  2  0  0  0  0
 18 19  1  0  0  0  0
 20 21  1  0  0  0  0
 21 22  1  1  0  0  0
 21 32  1  0  0  0  0
 22 27  1  0  0  0  0
 23 29  1  0  0  0  0
 23 24  1  0  0  0  0
 25 24  2  0  0  0  0
 26 28  1  0  0  0  0
 26 27  2  0  0  0  0
 27 25  1  0  0  0  0
 28 23  2  0  0  0  0
 29 31  2  0  0  0  0
 31 30  1  0  0  0  0
 32 34  1  0  0  0  0
 34 33  1  0  0  0  0
M  END
>  <MODEL>
4

>  <REMARK>
 VINA RESULT:      -7.3      3.804      6.621
  Name = 
  10 active torsions:
  status: ('A' for Active; 'I' for Inactive)
    1  A    between atoms: C_1  and  O_8
    2  A    between atoms: C_1  and  C_34
    3  A    between atoms: C_5  and  C_32
    4  A    between atoms: C_6  and  C_18
    5  A    between atoms: C_6  and  C_28
    6  A    between atoms: C_7  and  C_11
    7  A    between atoms: O_8  and  C_18
    8  A    between atoms: C_12  and  C_20
    9  A    between atoms: C_18  and  C_30
   10  A    between atoms: C_30  and  C_31
                            x       y       z     vdW  Elec       q    Type
                         _______ _______ _______ _____ _____    ______ ____

>  <TORSDO>
F 10

$$$$
=
 OpenBabel11052416023D

 34 37  0  0  1  0  0  0  0  0999 V2000
  189.5160  177.8570  139.5420 C   0  0  0  0  0  0  0  0  0  0  0  0
  190.6810  177.8140  140.0160 O   0  0  0  0  0  0  0  0  0  0  0  0
  189.6270  177.4490  136.9960 C   0  0  1  0  0  3  0  0  0  0  0  0
  188.1920  177.6840  137.4250 C   0  0  1  0  0  3  0  0  0  0  0  0
  189.3100  178.4160  138.1530 C   0  0  1  0  0  3  0  0  0  0  0  0
  191.5930  175.8570  137.1110 C   0  0  2  0  0  3  0  0  0  0  0  0
  189.9300  173.6980  136.2810 C   0  0  2  0  0  0  0  0  0  0  0  0
  189.2500  172.6340  135.5120 C   0  0  0  0  0  2  0  0  0  0  0  0
  189.2350  174.9470  136.7560 C   0  0  0  0  0  0  0  0  0  0  0  0
  187.9200  174.9100  136.9850 C   0  0  0  0  0  2  0  0  0  0  0  0
  191.8990  176.2460  135.8040 O   0  0  0  0  0  1  0  0  0  0  0  0
  189.9980  173.6500  134.8790 O   0  0  0  0  0  0  0  0  0  0  0  0
  191.1930  173.3960  136.8610 O   0  0  0  0  0  0  0  0  0  0  0  0
  192.0140  174.4320  137.3090 C   0  0  0  0  0  0  0  0  0  0  0  0
  190.0840  176.0350  137.3970 C   0  0  2  0  0  3  0  0  0  0  0  0
  193.1230  174.1700  137.8440 O   0  0  0  0  0  0  0  0  0  0  0  0
  187.3490  179.8020  136.7270 O   0  0  0  0  0  1  0  0  0  0  0  0
  187.5240  178.5880  136.4440 C   0  0  0  0  0  0  0  0  0  0  0  0
  187.1290  178.1090  135.2010 O   0  0  0  0  0  0  0  0  0  0  0  0
  188.4530  177.4340  140.3450 O   0  0  0  0  0  0  0  0  0  0  0  0
  188.2030  177.9560  141.6430 C   0  0  2  0  0  3  0  0  0  0  0  0
  187.9290  176.8040  142.6000 C   0  0  0  0  0  2  0  0  0  0  0  0
  190.6660  176.8110  145.9120 C   0  0  0  0  0  0  0  0  0  0  0  0
  191.0970  176.3970  144.6400 C   0  0  0  0  0  3  0  0  0  0  0  0
  190.2080  176.4000  143.5610 C   0  0  0  0  0  3  0  0  0  0  0  0
  188.4550  177.2300  145.0090 C   0  0  0  0  0  3  0  0  0  0  0  0
  188.8850  176.8180  143.7440 C   0  0  0  0  0  0  0  0  0  0  0  0
  189.3420  177.2270  146.0870 C   0  0  0  0  0  3  0  0  0  0  0  0
  191.5710  176.8200  147.0700 C   0  0  0  0  0  3  0  0  0  0  0  0
  193.1320  175.8190  148.6520 C   0  0  0  0  0  1  0  0  0  0  0  0
  192.2340  175.7410  147.4720 C   0  0  0  0  0  3  0  0  0  0  0  0
  187.0050  178.8940  141.5960 C   0  0  0  0  0  2  0  0  0  0  0  0
  184.9960  179.4980  140.3480 N   0  0  0  0  0  1  0  0  0  0  0  0
  186.1850  178.6640  140.3360 C   0  0  0  0  0  2  0  0  0  0  0  0
  1  2  2  0  0  0  0
  1 20  1  0  0  0  0
  3 15  1  1  0  0  0
  3  4  1  0  0  0  0
  3  5  1  0  0  0  0
  4 18  1  6  0  0  0
  4  5  1  0  0  0  0
  5  1  1  1  0  0  0
  6 11  1  6  0  0  0
  6 14  1  0  0  0  0
  6 15  1  0  0  0  0
  7  8  1  1  0  0  0
  7  9  1  0  0  0  0
  7 13  1  0  0  0  0
  9 10  2  0  0  0  0
 12  8  1  0  0  0  0
 12  7  1  0  0  0  0
 13 14  1  0  0  0  0
 14 16  2  0  0  0  0
 15  9  1  6  0  0  0
 18 17  1  0  0  0  0
 19 18  2  0  0  0  0
 20 21  1  0  0  0  0
 21 32  1  6  0  0  0
 21 22  1  0  0  0  0
 22 27  1  0  0  0  0
 23 28  1  0  0  0  0
 23 29  1  0  0  0  0
 24 23  2  0  0  0  0
 25 27  2  0  0  0  0
 25 24  1  0  0  0  0
 26 28  2  0  0  0  0
 27 26  1  0  0  0  0
 29 31  2  0  0  0  0
 31 30  1  0  0  0  0
 34 33  1  0  0  0  0
 34 32  1  0  0  0  0
M  END
>  <MODEL>
5

>  <REMARK>
 VINA RESULT:      -7.2      2.558      4.625
  Name = 
  10 active torsions:
  status: ('A' for Active; 'I' for Inactive)
    1  A    between atoms: C_1  and  O_8
    2  A    between atoms: C_1  and  C_34
    3  A    between atoms: C_5  and  C_32
    4  A    between atoms: C_6  and  C_18
    5  A    between atoms: C_6  and  C_28
    6  A    between atoms: C_7  and  C_11
    7  A    between atoms: O_8  and  C_18
    8  A    between atoms: C_12  and  C_20
    9  A    between atoms: C_18  and  C_30
   10  A    between atoms: C_30  and  C_31
                            x       y       z     vdW  Elec       q    Type
                         _______ _______ _______ _____ _____    ______ ____

>  <TORSDO>
F 10

$$$$
=
 OpenBabel11052416023D

 34 37  0  0  1  0  0  0  0  0999 V2000
  186.7750  178.2360  142.1190 C   0  0  0  0  0  0  0  0  0  0  0  0
  186.8190  177.1040  142.6660 O   0  0  0  0  0  0  0  0  0  0  0  0
  184.4380  179.3040  141.8670 C   0  0  1  0  0  3  0  0  0  0  0  0
  184.5420  178.5810  143.1960 C   0  0  1  0  0  3  0  0  0  0  0  0
  185.7800  179.2560  142.6240 C   0  0  1  0  0  3  0  0  0  0  0  0
  184.9590  178.8190  139.4370 C   0  0  2  0  0  3  0  0  0  0  0  0
  182.3510  177.7390  139.0630 C   0  0  2  0  0  0  0  0  0  0  0  0
  180.9360  177.5200  138.6930 C   0  0  0  0  0  2  0  0  0  0  0  0
  182.8130  177.9180  140.4850 C   0  0  0  0  0  0  0  0  0  0  0  0
  182.1060  177.3630  141.4720 C   0  0  0  0  0  2  0  0  0  0  0  0
  184.5580  180.1290  139.1590 O   0  0  0  0  0  1  0  0  0  0  0  0
  181.5270  178.8010  138.6550 O   0  0  0  0  0  0  0  0  0  0  0  0
  183.3450  177.4630  138.0850 O   0  0  0  0  0  0  0  0  0  0  0  0
  184.6410  177.9490  138.2590 C   0  0  0  0  0  0  0  0  0  0  0  0
  184.2700  178.2940  140.7180 C   0  0  2  0  0  3  0  0  0  0  0  0
  185.5310  177.6890  137.4080 O   0  0  0  0  0  0  0  0  0  0  0  0
  183.3540  180.5000  143.9660 O   0  0  0  0  0  0  0  0  0  0  0  0
  183.9320  179.4220  144.2670 C   0  0  0  0  0  0  0  0  0  0  0  0
  183.9590  179.0050  145.5920 O   0  0  0  0  0  1  0  0  0  0  0  0
  187.6130  178.4830  141.0280 O   0  0  0  0  0  0  0  0  0  0  0  0
  188.5310  177.5240  140.5200 C   0  0  2  0  0  3  0  0  0  0  0  0
  189.9500  177.9710  140.8450 C   0  0  0  0  0  2  0  0  0  0  0  0
  190.9380  177.0350  144.9200 C   0  0  0  0  0  0  0  0  0  0  0  0
  190.8110  176.0080  143.9700 C   0  0  0  0  0  3  0  0  0  0  0  0
  190.4950  176.3120  142.6430 C   0  0  0  0  0  3  0  0  0  0  0  0
  190.4310  178.6670  143.1990 C   0  0  0  0  0  3  0  0  0  0  0  0
  190.3060  177.6430  142.2550 C   0  0  0  0  0  0  0  0  0  0  0  0
  190.7460  178.3640  144.5250 C   0  0  0  0  0  3  0  0  0  0  0  0
  191.2660  176.7540  146.3250 C   0  0  0  0  0  3  0  0  0  0  0  0
  192.4500  175.6120  148.1230 C   0  0  0  0  0  1  0  0  0  0  0  0
  192.1670  175.8460  146.6840 C   0  0  0  0  0  3  0  0  0  0  0  0
  188.3560  177.3950  139.0140 C   0  0  0  0  0  2  0  0  0  0  0  0
  188.7220  179.3840  137.6480 N   0  0  0  0  0  1  0  0  0  0  0  0
  189.3740  178.2470  138.2730 C   0  0  0  0  0  2  0  0  0  0  0  0
  1  2  2  0  0  0  0
  3 15  1  6  0  0  0
  3  5  1  0  0  0  0
  3  4  1  0  0  0  0
  4 18  1  1  0  0  0
  5  1  1  6  0  0  0
  5  4  1  0  0  0  0
  6 11  1  6  0  0  0
  6 15  1  0  0  0  0
  7  8  1  1  0  0  0
  7  9  1  0  0  0  0
  9 10  2  0  0  0  0
 12  8  1  0  0  0  0
 12  7  1  0  0  0  0
 13 14  1  0  0  0  0
 13  7  1  0  0  0  0
 14  6  1  0  0  0  0
 15  9  1  6  0  0  0
 16 14  2  0  0  0  0
 17 18  2  0  0  0  0
 18 19  1  0  0  0  0
 20  1  1  0  0  0  0
 21 32  1  6  0  0  0
 21 22  1  0  0  0  0
 21 20  1  0  0  0  0
 22 27  1  0  0  0  0
 23 29  1  0  0  0  0
 24 23  2  0  0  0  0
 25 24  1  0  0  0  0
 26 28  2  0  0  0  0
 27 25  2  0  0  0  0
 27 26  1  0  0  0  0
 28 23  1  0  0  0  0
 29 31  2  0  0  0  0
 31 30  1  0  0  0  0
 33 34  1  0  0  0  0
 34 32  1  0  0  0  0
M  END
>  <MODEL>
6

>  <REMARK>
 VINA RESULT:      -6.8      4.225      8.015
  Name = 
  10 active torsions:
  status: ('A' for Active; 'I' for Inactive)
    1  A    between atoms: C_1  and  O_8
    2  A    between atoms: C_1  and  C_34
    3  A    between atoms: C_5  and  C_32
    4  A    between atoms: C_6  and  C_18
    5  A    between atoms: C_6  and  C_28
    6  A    between atoms: C_7  and  C_11
    7  A    between atoms: O_8  and  C_18
    8  A    between atoms: C_12  and  C_20
    9  A    between atoms: C_18  and  C_30
   10  A    between atoms: C_30  and  C_31
                            x       y       z     vdW  Elec       q    Type
                         _______ _______ _______ _____ _____    ______ ____

>  <TORSDO>
F 10

$$$$
=
 OpenBabel11052416023D

 34 37  0  0  1  0  0  0  0  0999 V2000
  187.7520  177.6310  142.7650 C   0  0  0  0  0  0  0  0  0  0  0  0
  187.5340  176.3930  142.8100 O   0  0  0  0  0  0  0  0  0  0  0  0
  190.2820  177.7700  143.2560 C   0  0  1  0  0  3  0  0  0  0  0  0
  190.0370  176.9560  142.0000 C   0  0  1  0  0  3  0  0  0  0  0  0
  189.1110  178.1200  142.3180 C   0  0  1  0  0  3  0  0  0  0  0  0
  189.2060  177.8340  145.5460 C   0  0  2  0  0  3  0  0  0  0  0  0
  191.2580  176.1580  146.5910 C   0  0  2  0  0  0  0  0  0  0  0  0
  192.4500  175.6240  147.2840 C   0  0  0  0  0  2  0  0  0  0  0  0
  191.1380  176.2300  145.0910 C   0  0  0  0  0  0  0  0  0  0  0  0
  191.8150  175.3560  144.3440 C   0  0  0  0  0  2  0  0  0  0  0  0
  189.9220  179.0120  145.7760 O   0  0  0  0  0  1  0  0  0  0  0  0
  192.2720  177.0080  147.0650 O   0  0  0  0  0  0  0  0  0  0  0  0
  190.0650  176.3210  147.3480 O   0  0  0  0  0  0  0  0  0  0  0  0
  189.0280  177.1080  146.8460 C   0  0  0  0  0  0  0  0  0  0  0  0
  189.9290  176.9470  144.5080 C   0  0  2  0  0  3  0  0  0  0  0  0
  187.9610  177.2370  147.5000 O   0  0  0  0  0  0  0  0  0  0  0  0
  192.2410  177.4970  141.2680 O   0  0  0  0  0  1  0  0  0  0  0  0
  191.0310  177.3440  140.9570 C   0  0  0  0  0  0  0  0  0  0  0  0
  190.6380  177.4970  139.6330 O   0  0  0  0  0  0  0  0  0  0  0  0
  186.7430  178.5030  143.1840 O   0  0  0  0  0  0  0  0  0  0  0  0
  185.5120  178.0570  143.7400 C   0  0  2  0  0  3  0  0  0  0  0  0
  184.4440  179.1160  143.5010 C   0  0  0  0  0  2  0  0  0  0  0  0
  181.6800  177.8220  140.4760 C   0  0  0  0  0  0  0  0  0  0  0  0
  181.2260  178.5710  141.5750 C   0  0  0  0  0  3  0  0  0  0  0  0
  182.1260  178.9960  142.5560 C   0  0  0  0  0  3  0  0  0  0  0  0
  183.9380  177.9350  141.3550 C   0  0  0  0  0  3  0  0  0  0  0  0
  183.4840  178.6800  142.4470 C   0  0  0  0  0  0  0  0  0  0  0  0
  183.0400  177.5080  140.3740 C   0  0  0  0  0  3  0  0  0  0  0  0
  180.7650  177.3550  139.4260 C   0  0  0  0  0  3  0  0  0  0  0  0
  179.1750  175.8040  138.4210 C   0  0  0  0  0  1  0  0  0  0  0  0
  180.0840  176.2170  139.5210 C   0  0  0  0  0  3  0  0  0  0  0  0
  185.6840  177.8150  145.2330 C   0  0  0  0  0  2  0  0  0  0  0  0
  185.6780  179.3790  147.1070 N   0  0  0  0  0  1  0  0  0  0  0  0
  184.8690  178.8120  146.0420 C   0  0  0  0  0  2  0  0  0  0  0  0
  1  2  2  0  0  0  0
  1 20  1  0  0  0  0
  3 15  1  1  0  0  0
  4 18  1  6  0  0  0
  4  5  1  0  0  0  0
  4  3  1  0  0  0  0
  5  1  1  1  0  0  0
  5  3  1  0  0  0  0
  6 11  1  1  0  0  0
  6 14  1  0  0  0  0
  7 12  1  0  0  0  0
  7  8  1  1  0  0  0
  7 13  1  0  0  0  0
  9  7  1  0  0  0  0
 10  9  2  0  0  0  0
 12  8  1  0  0  0  0
 14 13  1  0  0  0  0
 14 16  2  0  0  0  0
 15  9  1  1  0  0  0
 15  6  1  0  0  0  0
 18 17  1  0  0  0  0
 19 18  2  0  0  0  0
 20 21  1  0  0  0  0
 21 22  1  1  0  0  0
 21 32  1  0  0  0  0
 23 24  1  0  0  0  0
 24 25  2  0  0  0  0
 26 27  2  0  0  0  0
 27 25  1  0  0  0  0
 27 22  1  0  0  0  0
 28 23  2  0  0  0  0
 28 26  1  0  0  0  0
 29 31  2  0  0  0  0
 29 23  1  0  0  0  0
 30 31  1  0  0  0  0
 32 34  1  0  0  0  0
 34 33  1  0  0  0  0
M  END
>  <MODEL>
7

>  <REMARK>
 VINA RESULT:      -6.8      3.495      7.124
  Name = 
  10 active torsions:
  status: ('A' for Active; 'I' for Inactive)
    1  A    between atoms: C_1  and  O_8
    2  A    between atoms: C_1  and  C_34
    3  A    between atoms: C_5  and  C_32
    4  A    between atoms: C_6  and  C_18
    5  A    between atoms: C_6  and  C_28
    6  A    between atoms: C_7  and  C_11
    7  A    between atoms: O_8  and  C_18
    8  A    between atoms: C_12  and  C_20
    9  A    between atoms: C_18  and  C_30
   10  A    between atoms: C_30  and  C_31
                            x       y       z     vdW  Elec       q    Type
                         _______ _______ _______ _____ _____    ______ ____

>  <TORSDO>
F 10

$$$$
=
 OpenBabel11052416023D

 34 37  0  0  1  0  0  0  0  0999 V2000
  187.6610  178.5770  137.9000 C   0  0  0  0  0  0  0  0  0  0  0  0
  188.7560  179.1980  137.8920 O   0  0  0  0  0  0  0  0  0  0  0  0
  187.1590  176.8020  136.0960 C   0  0  1  0  0  3  0  0  0  0  0  0
  185.8740  177.2390  136.7720 C   0  0  1  0  0  3  0  0  0  0  0  0
  186.9920  178.2540  136.5850 C   0  0  1  0  0  3  0  0  0  0  0  0
  189.4750  176.0630  136.8040 C   0  0  2  0  0  3  0  0  0  0  0  0
  188.6070  173.3530  136.9200 C   0  0  2  0  0  0  0  0  0  0  0  0
  188.3520  171.9230  136.6430 C   0  0  0  0  0  2  0  0  0  0  0  0
  187.5330  174.4070  136.8710 C   0  0  0  0  0  0  0  0  0  0  0  0
  186.2690  174.0570  137.1150 C   0  0  0  0  0  2  0  0  0  0  0  0
  189.7970  175.9990  135.4450 O   0  0  0  0  0  1  0  0  0  0  0  0
  188.8390  172.7980  135.6490 O   0  0  0  0  0  0  0  0  0  0  0  0
  189.8320  173.6990  137.5530 O   0  0  0  0  0  0  0  0  0  0  0  0
  190.2650  175.0250  137.5430 C   0  0  0  0  0  0  0  0  0  0  0  0
  187.9570  175.8620  137.0180 C   0  0  2  0  0  3  0  0  0  0  0  0
  191.3370  175.3430  138.1220 O   0  0  0  0  0  0  0  0  0  0  0  0
  185.1180  177.8590  134.5960 O   0  0  0  0  0  0  0  0  0  0  0  0
  184.8130  177.4300  135.7400 C   0  0  0  0  0  0  0  0  0  0  0  0
  183.4920  177.0980  136.0180 O   0  0  0  0  0  1  0  0  0  0  0  0
  187.0830  178.2620  139.1340 O   0  0  0  0  0  0  0  0  0  0  0  0
  187.6620  178.6260  140.3800 C   0  0  2  0  0  3  0  0  0  0  0  0
  188.5950  177.5150  140.8400 C   0  0  0  0  0  2  0  0  0  0  0  0
  188.9390  177.5130  145.1230 C   0  0  0  0  0  0  0  0  0  0  0  0
  187.9420  176.7480  144.4940 C   0  0  0  0  0  3  0  0  0  0  0  0
  187.8340  176.7440  143.1010 C   0  0  0  0  0  3  0  0  0  0  0  0
  189.7120  178.2630  142.9500 C   0  0  0  0  0  3  0  0  0  0  0  0
  188.7190  177.5010  142.3260 C   0  0  0  0  0  0  0  0  0  0  0  0
  189.8210  178.2680  144.3420 C   0  0  0  0  0  3  0  0  0  0  0  0
  189.0830  177.5450  146.5860 C   0  0  0  0  0  3  0  0  0  0  0  0
  188.2950  177.8700  148.8690 C   0  0  0  0  0  1  0  0  0  0  0  0
  188.0800  177.8570  147.3990 C   0  0  0  0  0  3  0  0  0  0  0  0
  186.5630  178.8460  141.4090 C   0  0  0  0  0  2  0  0  0  0  0  0
  184.2470  178.0730  141.3880 N   0  0  0  0  0  1  0  0  0  0  0  0
  185.2020  178.9530  140.7380 C   0  0  0  0  0  2  0  0  0  0  0  0
  1 20  1  0  0  0  0
  2  1  2  0  0  0  0
  3  5  1  0  0  0  0
  3  4  1  0  0  0  0
  3 15  1  1  0  0  0
  4 18  1  6  0  0  0
  5  4  1  0  0  0  0
  5  1  1  1  0  0  0
  6 11  1  6  0  0  0
  6 15  1  0  0  0  0
  6 14  1  0  0  0  0
  7  8  1  1  0  0  0
  7 13  1  0  0  0  0
  9  7  1  0  0  0  0
  9 10  2  0  0  0  0
 12  8  1  0  0  0  0
 12  7  1  0  0  0  0
 14 13  1  0  0  0  0
 14 16  2  0  0  0  0
 15  9  1  6  0  0  0
 17 18  2  0  0  0  0
 18 19  1  0  0  0  0
 20 21  1  0  0  0  0
 21 22  1  1  0  0  0
 21 32  1  0  0  0  0
 22 27  1  0  0  0  0
 23 29  1  0  0  0  0
 24 23  1  0  0  0  0
 25 24  2  0  0  0  0
 26 28  1  0  0  0  0
 27 26  2  0  0  0  0
 27 25  1  0  0  0  0
 28 23  2  0  0  0  0
 29 31  2  0  0  0  0
 31 30  1  0  0  0  0
 34 33  1  0  0  0  0
 34 32  1  0  0  0  0
M  END
>  <MODEL>
8

>  <REMARK>
 VINA RESULT:      -6.7      2.942      4.640
  Name = 
  10 active torsions:
  status: ('A' for Active; 'I' for Inactive)
    1  A    between atoms: C_1  and  O_8
    2  A    between atoms: C_1  and  C_34
    3  A    between atoms: C_5  and  C_32
    4  A    between atoms: C_6  and  C_18
    5  A    between atoms: C_6  and  C_28
    6  A    between atoms: C_7  and  C_11
    7  A    between atoms: O_8  and  C_18
    8  A    between atoms: C_12  and  C_20
    9  A    between atoms: C_18  and  C_30
   10  A    between atoms: C_30  and  C_31
                            x       y       z     vdW  Elec       q    Type
                         _______ _______ _______ _____ _____    ______ ____

>  <TORSDO>
F 10

$$$$
=
 OpenBabel11052416023D

 34 37  0  0  1  0  0  0  0  0999 V2000
  188.0140  178.3040  140.0010 C   0  0  0  0  0  0  0  0  0  0  0  0
  188.6640  179.3170  139.6320 O   0  0  0  0  0  0  0  0  0  0  0  0
  189.7520  176.4150  139.7320 C   0  0  1  0  0  3  0  0  0  0  0  0
  190.2450  177.4390  140.7340 C   0  0  1  0  0  3  0  0  0  0  0  0
  188.7530  177.1540  140.6440 C   0  0  1  0  0  3  0  0  0  0  0  0
  188.6180  176.6380  137.4790 C   0  0  2  0  0  3  0  0  0  0  0  0
  191.0840  176.1160  136.1530 C   0  0  2  0  0  0  0  0  0  0  0  0
  192.2010  175.4950  135.4100 C   0  0  0  0  0  2  0  0  0  0  0  0
  191.1610  176.4710  137.6150 C   0  0  0  0  0  0  0  0  0  0  0  0
  192.3510  176.7490  138.1520 C   0  0  0  0  0  2  0  0  0  0  0  0
  188.2830  175.2860  137.5880 O   0  0  0  0  0  1  0  0  0  0  0  0
  191.1530  174.7250  135.9590 O   0  0  0  0  0  0  0  0  0  0  0  0
  190.0170  176.6800  135.4010 O   0  0  0  0  0  0  0  0  0  0  0  0
  188.8090  176.9800  136.0310 C   0  0  0  0  0  0  0  0  0  0  0  0
  189.8900  176.9560  138.2970 C   0  0  2  0  0  3  0  0  0  0  0  0
  187.8690  177.5010  135.3770 O   0  0  0  0  0  0  0  0  0  0  0  0
  191.9460  177.1280  142.3760 O   0  0  0  0  0  0  0  0  0  0  0  0
  190.8450  176.7370  141.9060 C   0  0  0  0  0  0  0  0  0  0  0  0
  190.1780  175.6780  142.5100 O   0  0  0  0  0  1  0  0  0  0  0  0
  186.6390  178.2650  139.7490 O   0  0  0  0  0  0  0  0  0  0  0  0
  185.6800  178.9150  140.5720 C   0  0  2  0  0  3  0  0  0  0  0  0
  184.9960  177.8800  141.4550 C   0  0  0  0  0  2  0  0  0  0  0  0
  186.3000  178.2790  145.5290 C   0  0  0  0  0  0  0  0  0  0  0  0
  185.0540  178.7920  145.1330 C   0  0  0  0  0  3  0  0  0  0  0  0
  184.6270  178.6580  143.8090 C   0  0  0  0  0  3  0  0  0  0  0  0
  186.6800  177.4980  143.2650 C   0  0  0  0  0  3  0  0  0  0  0  0
  185.4390  178.0090  142.8730 C   0  0  0  0  0  0  0  0  0  0  0  0
  187.1080  177.6320  144.5880 C   0  0  0  0  0  3  0  0  0  0  0  0
  186.7850  178.4030  146.9110 C   0  0  0  0  0  3  0  0  0  0  0  0
  188.2990  177.9380  148.7630 C   0  0  0  0  0  1  0  0  0  0  0  0
  187.8650  177.7680  147.3530 C   0  0  0  0  0  3  0  0  0  0  0  0
  184.6500  179.6180  139.6980 C   0  0  0  0  0  2  0  0  0  0  0  0
  182.2540  179.8150  139.2760 N   0  0  0  0  0  1  0  0  0  0  0  0
  183.2880  178.9540  139.8210 C   0  0  0  0  0  2  0  0  0  0  0  0
  2  1  2  0  0  0  0
  3 15  1  6  0  0  0
  3  5  1  0  0  0  0
  3  4  1  0  0  0  0
  4 18  1  1  0  0  0
  5  1  1  6  0  0  0
  5  4  1  0  0  0  0
  6 11  1  6  0  0  0
  6 15  1  0  0  0  0
  7  8  1  6  0  0  0
  7  9  1  0  0  0  0
  8 12  1  0  0  0  0
  9 10  2  0  0  0  0
 12  7  1  0  0  0  0
 13 14  1  0  0  0  0
 13  7  1  0  0  0  0
 14  6  1  0  0  0  0
 15  9  1  6  0  0  0
 16 14  2  0  0  0  0
 18 17  2  0  0  0  0
 18 19  1  0  0  0  0
 20  1  1  0  0  0  0
 20 21  1  0  0  0  0
 21 32  1  6  0  0  0
 21 22  1  0  0  0  0
 22 27  1  0  0  0  0
 23 29  1  0  0  0  0
 24 23  1  0  0  0  0
 25 24  2  0  0  0  0
 26 28  1  0  0  0  0
 27 26  2  0  0  0  0
 27 25  1  0  0  0  0
 28 23  2  0  0  0  0
 29 31  2  0  0  0  0
 31 30  1  0  0  0  0
 32 34  1  0  0  0  0
 33 34  1  0  0  0  0
M  END
>  <MODEL>
9

>  <REMARK>
 VINA RESULT:      -6.6      2.851      5.182
  Name = 
  10 active torsions:
  status: ('A' for Active; 'I' for Inactive)
    1  A    between atoms: C_1  and  O_8
    2  A    between atoms: C_1  and  C_34
    3  A    between atoms: C_5  and  C_32
    4  A    between atoms: C_6  and  C_18
    5  A    between atoms: C_6  and  C_28
    6  A    between atoms: C_7  and  C_11
    7  A    between atoms: O_8  and  C_18
    8  A    between atoms: C_12  and  C_20
    9  A    between atoms: C_18  and  C_30
   10  A    between atoms: C_30  and  C_31
                            x       y       z     vdW  Elec       q    Type
                         _______ _______ _______ _____ _____    ______ ____

>  <TORSDO>
F 10

$$$$
