=
 OpenBabel11052412243D

 30 31  0  0  1  0  0  0  0  0999 V2000
  188.6940  177.6410  142.7600 C   0  0  1  0  0  3  0  0  0  0  0  0
  189.7720  177.1270  145.0270 N   0  0  0  0  0  0  0  0  0  0  0  0
  188.0170  176.3710  142.9980 N   0  0  0  0  0  2  0  0  0  0  0  0
  187.2540  177.5850  145.0760 C   0  0  2  0  0  3  0  0  0  0  0  0
  186.9530  176.5380  143.9890 C   0  0  0  0  0  2  0  0  0  0  0  0
  188.5590  177.2960  145.8640 C   0  0  2  0  0  3  0  0  0  0  0  0
  189.8640  177.8500  143.7380 C   0  0  2  0  0  3  0  0  0  0  0  0
  188.3440  178.3180  140.3280 C   0  0  0  0  0  0  0  0  0  0  0  0
  188.8120  178.3760  139.0110 C   0  0  0  0  0  3  0  0  0  0  0  0
  187.0860  178.8300  140.6240 O   0  0  0  0  0  1  0  0  0  0  0  0
  190.4080  177.2350  141.0020 C   0  0  0  0  0  3  0  0  0  0  0  0
  192.0930  176.8030  139.3740 F   0  0  0  0  0  0  0  0  0  0  0  0
  189.1470  177.7440  141.3340 C   0  0  0  0  0  0  0  0  0  0  0  0
  190.0730  177.8670  138.6900 C   0  0  0  0  0  3  0  0  0  0  0  0
  190.8700  177.2970  139.6850 C   0  0  0  0  0  0  0  0  0  0  0  0
  190.1080  178.0990  147.7520 C   0  0  0  0  0  1  0  0  0  0  0  0
  188.8120  178.3350  146.9860 C   0  0  2  0  0  3  0  0  0  0  0  0
  187.6600  178.3850  147.9850 C   0  0  0  0  0  2  0  0  0  0  0  0
  188.0100  177.7530  149.1800 O   0  0  0  0  0  1  0  0  0  0  0  0
  186.0340  177.6860  145.9840 C   0  0  0  0  0  2  0  0  0  0  0  0
  184.0340  178.9380  146.0780 O   0  0  0  0  0  0  0  0  0  0  0  0
  185.0820  178.7290  145.4900 C   0  0  0  0  0  0  0  0  0  0  0  0
  185.4010  179.4640  144.3940 F   0  0  0  0  0  0  0  0  0  0  0  0
  190.1300  179.3310  143.9600 C   0  0  0  0  0  2  0  0  0  0  0  0
  192.3730  178.5650  143.6280 O   0  0  0  0  0  1  0  0  0  0  0  0
  191.6080  179.5710  144.2190 C   0  0  0  0  0  2  0  0  0  0  0  0
  190.0830  175.7120  144.8690 C   0  0  0  0  0  2  0  0  0  0  0  0
  192.2340  175.1310  144.1020 O   0  0  0  0  0  0  0  0  0  0  0  0
  191.5490  175.4870  145.0470 C   0  0  0  0  0  0  0  0  0  0  0  0
  192.1780  175.7130  146.3760 C   0  0  0  0  0  1  0  0  0  0  0  0
  1 13  1  6  0  0  0
  1  3  1  0  0  0  0
  1  7  1  0  0  0  0
  2  6  1  0  0  0  0
  3  5  1  0  0  0  0
  4  6  1  0  0  0  0
  4 20  1  1  0  0  0
  5  4  1  0  0  0  0
  6 17  1  1  0  0  0
  7 24  1  1  0  0  0
  7  2  1  0  0  0  0
  8 10  1  0  0  0  0
  8 13  1  0  0  0  0
  9  8  2  0  0  0  0
 11 13  2  0  0  0  0
 12 15  1  0  0  0  0
 14  9  1  0  0  0  0
 14 15  2  0  0  0  0
 15 11  1  0  0  0  0
 17 16  1  1  0  0  0
 17 18  1  0  0  0  0
 18 19  1  0  0  0  0
 22 20  1  0  0  0  0
 22 21  2  0  0  0  0
 23 22  1  0  0  0  0
 24 26  1  0  0  0  0
 25 26  1  0  0  0  0
 27  2  1  0  0  0  0
 27 29  1  0  0  0  0
 28 29  2  0  0  0  0
 29 30  1  0  0  0  0
M  END
>  <MODEL>
1

>  <REMARK>
 VINA RESULT:      -5.8      0.000      0.000
  Name = 
  9 active torsions:
  status: ('A' for Active; 'I' for Inactive)
    1  A    between atoms: C_1  and  C_22
    2  A    between atoms: N_4  and  C_25
    3  A    between atoms: C_6  and  C_8
    4  A    between atoms: C_6  and  C_17
    5  A    between atoms: C_7  and  C_30
    6  A    between atoms: C_10  and  C_23
    7  A    between atoms: C_10  and  C_26
    8  A    between atoms: C_11  and  C_25
    9  A    between atoms: C_13  and  C_30
                            x       y       z     vdW  Elec       q    Type
                         _______ _______ _______ _____ _____    ______ ____

>  <TORSDO>
F 9

$$$$
=
 OpenBabel11052412243D

 30 31  0  0  1  0  0  0  0  0999 V2000
  183.0340  178.6380  140.3950 C   0  0  1  0  0  3  0  0  0  0  0  0
  183.7280  177.3720  138.2780 N   0  0  0  0  0  0  0  0  0  0  0  0
  183.6710  179.7600  139.7140 N   0  0  0  0  0  2  0  0  0  0  0  0
  181.9570  179.1900  137.9490 C   0  0  2  0  0  3  0  0  0  0  0  0
  182.8060  180.2670  138.6470 C   0  0  0  0  0  2  0  0  0  0  0  0
  182.8020  178.0430  137.3340 C   0  0  2  0  0  3  0  0  0  0  0  0
  183.3690  177.2990  139.7120 C   0  0  2  0  0  3  0  0  0  0  0  0
  182.4900  178.9780  142.8610 C   0  0  0  0  0  0  0  0  0  0  0  0
  182.8920  178.9540  144.2010 C   0  0  0  0  0  3  0  0  0  0  0  0
  181.1900  179.3580  142.5490 O   0  0  0  0  0  1  0  0  0  0  0  0
  184.7050  178.2430  142.1960 C   0  0  0  0  0  3  0  0  0  0  0  0
  186.3630  177.8550  143.8630 F   0  0  0  0  0  0  0  0  0  0  0  0
  183.4020  178.6190  141.8480 C   0  0  0  0  0  0  0  0  0  0  0  0
  184.1940  178.5760  144.5380 C   0  0  0  0  0  3  0  0  0  0  0  0
  185.1000  178.2210  143.5360 C   0  0  0  0  0  0  0  0  0  0  0  0
  182.3890  175.5620  136.8040 C   0  0  0  0  0  1  0  0  0  0  0  0
  181.9280  176.9990  136.5940 C   0  0  2  0  0  3  0  0  0  0  0  0
  181.8630  177.2730  135.0940 C   0  0  0  0  0  2  0  0  0  0  0  0
  183.1240  177.6030  134.5940 O   0  0  0  0  0  1  0  0  0  0  0  0
  181.0720  179.8810  136.9200 C   0  0  0  0  0  2  0  0  0  0  0  0
  179.4340  180.8500  138.3170 O   0  0  0  0  0  0  0  0  0  0  0  0
  180.3440  181.0380  137.5270 C   0  0  0  0  0  0  0  0  0  0  0  0
  180.7160  182.3050  137.2120 F   0  0  0  0  0  0  0  0  0  0  0  0
  182.2670  176.2780  139.9480 C   0  0  0  0  0  2  0  0  0  0  0  0
  179.9290  176.3140  139.4420 O   0  0  0  0  0  1  0  0  0  0  0  0
  180.9330  176.9740  140.1520 C   0  0  0  0  0  2  0  0  0  0  0  0
  185.0860  177.8700  138.0930 C   0  0  0  0  0  2  0  0  0  0  0  0
  185.8280  175.8360  137.1630 O   0  0  0  0  0  0  0  0  0  0  0  0
  185.7960  177.0510  137.0640 C   0  0  0  0  0  0  0  0  0  0  0  0
  186.4520  177.7200  135.9080 C   0  0  0  0  0  1  0  0  0  0  0  0
  1 13  1  1  0  0  0
  2  7  1  0  0  0  0
  3  1  1  0  0  0  0
  4 20  1  6  0  0  0
  4  5  1  0  0  0  0
  5  3  1  0  0  0  0
  6 17  1  1  0  0  0
  6  4  1  0  0  0  0
  6  2  1  0  0  0  0
  7 24  1  6  0  0  0
  7  1  1  0  0  0  0
  8  9  1  0  0  0  0
  9 14  2  0  0  0  0
 10  8  1  0  0  0  0
 11 15  2  0  0  0  0
 13 11  1  0  0  0  0
 13  8  2  0  0  0  0
 15 12  1  0  0  0  0
 15 14  1  0  0  0  0
 17 16  1  6  0  0  0
 18 17  1  0  0  0  0
 19 18  1  0  0  0  0
 20 22  1  0  0  0  0
 22 21  2  0  0  0  0
 23 22  1  0  0  0  0
 24 26  1  0  0  0  0
 25 26  1  0  0  0  0
 27  2  1  0  0  0  0
 29 28  2  0  0  0  0
 29 27  1  0  0  0  0
 30 29  1  0  0  0  0
M  END
>  <MODEL>
2

>  <REMARK>
 VINA RESULT:      -5.3      5.987      9.686
  Name = 
  9 active torsions:
  status: ('A' for Active; 'I' for Inactive)
    1  A    between atoms: C_1  and  C_22
    2  A    between atoms: N_4  and  C_25
    3  A    between atoms: C_6  and  C_8
    4  A    between atoms: C_6  and  C_17
    5  A    between atoms: C_7  and  C_30
    6  A    between atoms: C_10  and  C_23
    7  A    between atoms: C_10  and  C_26
    8  A    between atoms: C_11  and  C_25
    9  A    between atoms: C_13  and  C_30
                            x       y       z     vdW  Elec       q    Type
                         _______ _______ _______ _____ _____    ______ ____

>  <TORSDO>
F 9

$$$$
=
 OpenBabel11052412243D

 30 31  0  0  1  0  0  0  0  0999 V2000
  182.8140  178.8980  140.4870 C   0  0  1  0  0  3  0  0  0  0  0  0
  182.6650  177.4790  138.3580 N   0  0  0  0  0  0  0  0  0  0  0  0
  183.7490  179.6780  139.6840 N   0  0  0  0  0  2  0  0  0  0  0  0
  181.7350  179.8560  138.1710 C   0  0  2  0  0  3  0  0  0  0  0  0
  183.0260  180.4980  138.7110 C   0  0  0  0  0  2  0  0  0  0  0  0
  181.9670  178.4720  137.5070 C   0  0  2  0  0  3  0  0  0  0  0  0
  182.4970  177.5430  139.8280 C   0  0  2  0  0  3  0  0  0  0  0  0
  182.5460  179.0040  143.0190 C   0  0  0  0  0  0  0  0  0  0  0  0
  183.0840  178.8320  144.2980 C   0  0  0  0  0  3  0  0  0  0  0  0
  181.2370  179.4540  142.8880 O   0  0  0  0  0  1  0  0  0  0  0  0
  184.6460  178.2710  142.0500 C   0  0  0  0  0  3  0  0  0  0  0  0
  186.4510  177.6650  143.4820 F   0  0  0  0  0  0  0  0  0  0  0  0
  183.3310  178.7210  141.8830 C   0  0  0  0  0  0  0  0  0  0  0  0
  184.3970  178.3820  144.4550 C   0  0  0  0  0  3  0  0  0  0  0  0
  185.1770  178.1010  143.3300 C   0  0  0  0  0  0  0  0  0  0  0  0
  179.4520  178.0560  137.8350 C   0  0  0  0  0  1  0  0  0  0  0  0
  180.6610  177.8710  136.9280 C   0  0  2  0  0  3  0  0  0  0  0  0
  180.8100  176.3850  136.6140 C   0  0  0  0  0  2  0  0  0  0  0  0
  181.4240  176.1980  135.3740 O   0  0  0  0  0  1  0  0  0  0  0  0
  181.0710  180.8520  137.2290 C   0  0  0  0  0  2  0  0  0  0  0  0
  181.0770  183.2030  137.4480 O   0  0  0  0  0  0  0  0  0  0  0  0
  180.7560  182.1320  137.9360 C   0  0  0  0  0  0  0  0  0  0  0  0
  180.0860  182.1000  139.1170 F   0  0  0  0  0  0  0  0  0  0  0  0
  181.1220  177.0450  140.2430 C   0  0  0  0  0  2  0  0  0  0  0  0
  179.6690  175.1520  140.0640 O   0  0  0  0  0  1  0  0  0  0  0  0
  181.0050  175.5490  140.0050 C   0  0  0  0  0  2  0  0  0  0  0  0
  184.0720  177.3950  137.9850 C   0  0  0  0  0  2  0  0  0  0  0  0
  183.9050  175.0480  137.8470 O   0  0  0  0  0  0  0  0  0  0  0  0
  184.3570  176.0700  137.3560 C   0  0  0  0  0  0  0  0  0  0  0  0
  185.1800  175.9980  136.1190 C   0  0  0  0  0  1  0  0  0  0  0  0
  1 13  1  1  0  0  0
  2  7  1  0  0  0  0
  3  1  1  0  0  0  0
  4 20  1  6  0  0  0
  4  5  1  0  0  0  0
  5  3  1  0  0  0  0
  6 17  1  1  0  0  0
  6  4  1  0  0  0  0
  6  2  1  0  0  0  0
  7 24  1  6  0  0  0
  7  1  1  0  0  0  0
  8  9  1  0  0  0  0
  9 14  2  0  0  0  0
 10  8  1  0  0  0  0
 11 15  2  0  0  0  0
 13 11  1  0  0  0  0
 13  8  2  0  0  0  0
 15 12  1  0  0  0  0
 15 14  1  0  0  0  0
 17 16  1  1  0  0  0
 18 17  1  0  0  0  0
 19 18  1  0  0  0  0
 20 22  1  0  0  0  0
 21 22  2  0  0  0  0
 22 23  1  0  0  0  0
 26 25  1  0  0  0  0
 26 24  1  0  0  0  0
 27  2  1  0  0  0  0
 29 28  2  0  0  0  0
 29 27  1  0  0  0  0
 30 29  1  0  0  0  0
M  END
>  <MODEL>
3

>  <REMARK>
 VINA RESULT:      -5.2      6.373      9.881
  Name = 
  9 active torsions:
  status: ('A' for Active; 'I' for Inactive)
    1  A    between atoms: C_1  and  C_22
    2  A    between atoms: N_4  and  C_25
    3  A    between atoms: C_6  and  C_8
    4  A    between atoms: C_6  and  C_17
    5  A    between atoms: C_7  and  C_30
    6  A    between atoms: C_10  and  C_23
    7  A    between atoms: C_10  and  C_26
    8  A    between atoms: C_11  and  C_25
    9  A    between atoms: C_13  and  C_30
                            x       y       z     vdW  Elec       q    Type
                         _______ _______ _______ _____ _____    ______ ____

>  <TORSDO>
F 9

$$$$
=
 OpenBabel11052412243D

 30 31  0  0  1  0  0  0  0  0999 V2000
  182.8740  177.1880  138.0930 C   0  0  1  0  0  3  0  0  0  0  0  0
  182.2640  178.2430  140.3480 N   0  0  0  0  0  0  0  0  0  0  0  0
  182.9800  175.9740  138.8950 N   0  0  0  0  0  2  0  0  0  0  0  0
  180.5800  176.5510  139.4250 C   0  0  2  0  0  3  0  0  0  0  0  0
  181.6490  175.4620  139.2250 C   0  0  0  0  0  2  0  0  0  0  0  0
  180.9490  177.5810  140.5250 C   0  0  2  0  0  3  0  0  0  0  0  0
  182.7910  178.4450  138.9790 C   0  0  2  0  0  3  0  0  0  0  0  0
  183.8590  176.9390  135.7560 C   0  0  0  0  0  0  0  0  0  0  0  0
  184.9550  177.0330  134.8910 C   0  0  0  0  0  3  0  0  0  0  0  0
  182.6360  176.5060  135.2580 O   0  0  0  0  0  1  0  0  0  0  0  0
  185.2530  177.7110  137.5860 C   0  0  0  0  0  3  0  0  0  0  0  0
  187.5450  178.2220  137.1810 F   0  0  0  0  0  0  0  0  0  0  0  0
  184.0070  177.2810  137.1160 C   0  0  0  0  0  0  0  0  0  0  0  0
  186.1940  177.4650  135.3700 C   0  0  0  0  0  3  0  0  0  0  0  0
  186.3430  177.8040  136.7170 C   0  0  0  0  0  0  0  0  0  0  0  0
  179.2370  179.1650  139.4440 C   0  0  0  0  0  1  0  0  0  0  0  0
  179.8340  178.6350  140.7430 C   0  0  2  0  0  3  0  0  0  0  0  0
  180.3240  179.8200  141.5700 C   0  0  0  0  0  2  0  0  0  0  0  0
  179.9180  181.0280  140.9990 O   0  0  0  0  0  1  0  0  0  0  0  0
  179.2490  175.8600  139.6940 C   0  0  0  0  0  2  0  0  0  0  0  0
  179.1530  175.1520  141.9440 O   0  0  0  0  0  0  0  0  0  0  0  0
  179.3810  174.8460  140.7860 C   0  0  0  0  0  0  0  0  0  0  0  0
  179.7330  173.5710  140.4790 F   0  0  0  0  0  0  0  0  0  0  0  0
  182.0460  179.5640  138.2670 C   0  0  0  0  0  2  0  0  0  0  0  0
  183.9810  180.8360  138.8710 O   0  0  0  0  0  1  0  0  0  0  0  0
  182.6010  180.9160  138.6790 C   0  0  0  0  0  2  0  0  0  0  0  0
  183.2600  177.6280  141.2170 C   0  0  0  0  0  2  0  0  0  0  0  0
  184.8210  179.3480  141.6100 O   0  0  0  0  0  0  0  0  0  0  0  0
  183.9140  178.6700  142.0640 C   0  0  0  0  0  0  0  0  0  0  0  0
  183.4480  178.8930  143.4590 C   0  0  0  0  0  1  0  0  0  0  0  0
  1 13  1  6  0  0  0
  1  3  1  0  0  0  0
  1  7  1  0  0  0  0
  2  6  1  0  0  0  0
  2 27  1  0  0  0  0
  3  5  1  0  0  0  0
  4 20  1  1  0  0  0
  4  6  1  0  0  0  0
  5  4  1  0  0  0  0
  6 17  1  6  0  0  0
  7 24  1  6  0  0  0
  7  2  1  0  0  0  0
  8 13  1  0  0  0  0
  9 14  1  0  0  0  0
  9  8  2  0  0  0  0
 10  8  1  0  0  0  0
 13 11  2  0  0  0  0
 14 15  2  0  0  0  0
 15 12  1  0  0  0  0
 15 11  1  0  0  0  0
 17 16  1  6  0  0  0
 17 18  1  0  0  0  0
 19 18  1  0  0  0  0
 20 22  1  0  0  0  0
 22 21  2  0  0  0  0
 23 22  1  0  0  0  0
 24 26  1  0  0  0  0
 26 25  1  0  0  0  0
 27 29  1  0  0  0  0
 28 29  2  0  0  0  0
 29 30  1  0  0  0  0
M  END
>  <MODEL>
4

>  <REMARK>
 VINA RESULT:      -5.1      6.373      8.626
  Name = 
  9 active torsions:
  status: ('A' for Active; 'I' for Inactive)
    1  A    between atoms: C_1  and  C_22
    2  A    between atoms: N_4  and  C_25
    3  A    between atoms: C_6  and  C_8
    4  A    between atoms: C_6  and  C_17
    5  A    between atoms: C_7  and  C_30
    6  A    between atoms: C_10  and  C_23
    7  A    between atoms: C_10  and  C_26
    8  A    between atoms: C_11  and  C_25
    9  A    between atoms: C_13  and  C_30
                            x       y       z     vdW  Elec       q    Type
                         _______ _______ _______ _____ _____    ______ ____

>  <TORSDO>
F 9

$$$$
=
 OpenBabel11052412243D

 30 31  0  0  1  0  0  0  0  0999 V2000
  181.4930  177.9640  140.7670 C   0  0  1  0  0  3  0  0  0  0  0  0
  179.9030  179.2330  139.2080 N   0  0  0  0  0  0  0  0  0  0  0  0
  180.2450  177.5020  141.3650 N   0  0  0  0  0  2  0  0  0  0  0  0
  179.8440  176.6820  139.0110 C   0  0  2  0  0  3  0  0  0  0  0  0
  179.6210  176.4820  140.5210 C   0  0  0  0  0  2  0  0  0  0  0  0
  179.3490  178.0580  138.4920 C   0  0  2  0  0  3  0  0  0  0  0  0
  181.2550  179.1420  139.8050 C   0  0  2  0  0  3  0  0  0  0  0  0
  182.1340  178.9990  143.0050 C   0  0  0  0  0  0  0  0  0  0  0  0
  183.1130  179.3120  143.9540 C   0  0  0  0  0  3  0  0  0  0  0  0
  180.8170  179.3720  143.2410 O   0  0  0  0  0  1  0  0  0  0  0  0
  183.8300  177.9570  141.6180 C   0  0  0  0  0  3  0  0  0  0  0  0
  186.0940  177.9200  142.3600 F   0  0  0  0  0  0  0  0  0  0  0  0
  182.4940  178.3150  141.8260 C   0  0  0  0  0  0  0  0  0  0  0  0
  184.4450  178.9490  143.7380 C   0  0  0  0  0  3  0  0  0  0  0  0
  184.8030  178.2710  142.5700 C   0  0  0  0  0  0  0  0  0  0  0  0
  180.8810  177.6970  136.4600 C   0  0  0  0  0  1  0  0  0  0  0  0
  179.5380  178.2130  136.9620 C   0  0  2  0  0  3  0  0  0  0  0  0
  179.3770  179.6630  136.5130 C   0  0  0  0  0  2  0  0  0  0  0  0
  180.5320  180.1160  135.8730 O   0  0  0  0  0  1  0  0  0  0  0  0
  179.1940  175.5130  138.2800 C   0  0  0  0  0  2  0  0  0  0  0  0
  179.8270  173.3710  137.5170 O   0  0  0  0  0  0  0  0  0  0  0  0
  180.1820  174.4190  138.0300 C   0  0  0  0  0  0  0  0  0  0  0  0
  181.4880  174.6060  138.3540 F   0  0  0  0  0  0  0  0  0  0  0  0
  182.3310  179.1930  138.7310 C   0  0  0  0  0  2  0  0  0  0  0  0
  184.4070  180.3220  139.1050 O   0  0  0  0  0  1  0  0  0  0  0  0
  183.0650  180.5220  138.7780 C   0  0  0  0  0  2  0  0  0  0  0  0
  178.9310  179.7460  140.1660 C   0  0  0  0  0  2  0  0  0  0  0  0
  179.2980  181.6190  141.5470 O   0  0  0  0  0  0  0  0  0  0  0  0
  179.1690  181.2000  140.4080 C   0  0  0  0  0  0  0  0  0  0  0  0
  179.2640  182.1380  139.2580 C   0  0  0  0  0  1  0  0  0  0  0  0
  1  3  1  0  0  0  0
  1 13  1  1  0  0  0
  2  7  1  0  0  0  0
  2 27  1  0  0  0  0
  4 20  1  6  0  0  0
  4  5  1  0  0  0  0
  5  3  1  0  0  0  0
  6 17  1  6  0  0  0
  6  4  1  0  0  0  0
  6  2  1  0  0  0  0
  7 24  1  6  0  0  0
  7  1  1  0  0  0  0
  8 10  1  0  0  0  0
  8  9  1  0  0  0  0
 11 13  1  0  0  0  0
 11 15  2  0  0  0  0
 12 15  1  0  0  0  0
 13  8  2  0  0  0  0
 14  9  2  0  0  0  0
 15 14  1  0  0  0  0
 17 16  1  1  0  0  0
 18 17  1  0  0  0  0
 19 18  1  0  0  0  0
 21 22  2  0  0  0  0
 22 20  1  0  0  0  0
 22 23  1  0  0  0  0
 24 26  1  0  0  0  0
 26 25  1  0  0  0  0
 27 29  1  0  0  0  0
 29 28  2  0  0  0  0
 30 29  1  0  0  0  0
M  END
>  <MODEL>
5

>  <REMARK>
 VINA RESULT:      -4.8      7.241     10.654
  Name = 
  9 active torsions:
  status: ('A' for Active; 'I' for Inactive)
    1  A    between atoms: C_1  and  C_22
    2  A    between atoms: N_4  and  C_25
    3  A    between atoms: C_6  and  C_8
    4  A    between atoms: C_6  and  C_17
    5  A    between atoms: C_7  and  C_30
    6  A    between atoms: C_10  and  C_23
    7  A    between atoms: C_10  and  C_26
    8  A    between atoms: C_11  and  C_25
    9  A    between atoms: C_13  and  C_30
                            x       y       z     vdW  Elec       q    Type
                         _______ _______ _______ _____ _____    ______ ____

>  <TORSDO>
F 9

$$$$
=
 OpenBabel11052412243D

 30 31  0  0  1  0  0  0  0  0999 V2000
  182.9030  177.9900  139.9290 C   0  0  1  0  0  3  0  0  0  0  0  0
  180.4890  178.3550  139.1500 N   0  0  0  0  0  0  0  0  0  0  0  0
  182.4320  176.6290  140.1570 N   0  0  0  0  0  2  0  0  0  0  0  0
  181.8970  176.7890  137.6940 C   0  0  2  0  0  3  0  0  0  0  0  0
  182.3130  175.9100  138.8870 C   0  0  0  0  0  2  0  0  0  0  0  0
  180.5540  177.5340  137.9170 C   0  0  2  0  0  3  0  0  0  0  0  0
  181.7330  178.9580  139.6800 C   0  0  2  0  0  3  0  0  0  0  0  0
  185.0770  178.9320  140.8690 C   0  0  0  0  0  0  0  0  0  0  0  0
  185.8410  179.3390  141.9670 C   0  0  0  0  0  3  0  0  0  0  0  0
  185.6260  179.0070  139.5940 O   0  0  0  0  0  1  0  0  0  0  0  0
  183.2430  178.3870  142.3610 C   0  0  0  0  0  3  0  0  0  0  0  0
  183.4960  178.7290  144.7060 F   0  0  0  0  0  0  0  0  0  0  0  0
  183.7660  178.4530  141.0650 C   0  0  0  0  0  0  0  0  0  0  0  0
  185.3100  179.2710  143.2580 C   0  0  0  0  0  3  0  0  0  0  0  0
  184.0110  178.7960  143.4540 C   0  0  0  0  0  0  0  0  0  0  0  0
  181.2890  179.1280  136.0390 C   0  0  0  0  0  1  0  0  0  0  0  0
  180.1330  178.3710  136.6820 C   0  0  2  0  0  3  0  0  0  0  0  0
  179.0290  179.3680  137.0210 C   0  0  0  0  0  2  0  0  0  0  0  0
  179.0350  180.4400  136.1260 O   0  0  0  0  0  1  0  0  0  0  0  0
  181.8820  175.9150  136.4470 C   0  0  0  0  0  2  0  0  0  0  0  0
  183.6330  176.7170  135.0820 O   0  0  0  0  0  0  0  0  0  0  0  0
  183.2410  175.8360  135.8290 C   0  0  0  0  0  0  0  0  0  0  0  0
  184.0520  174.7870  136.1220 F   0  0  0  0  0  0  0  0  0  0  0  0
  182.1740  180.1380  138.8270 C   0  0  0  0  0  2  0  0  0  0  0  0
  181.5670  182.3510  138.1520 O   0  0  0  0  0  1  0  0  0  0  0  0
  181.2430  181.3200  139.0330 C   0  0  0  0  0  2  0  0  0  0  0  0
  179.7550  177.6460  140.1910 C   0  0  0  0  0  2  0  0  0  0  0  0
  178.9370  179.6630  141.0920 O   0  0  0  0  0  0  0  0  0  0  0  0
  179.4380  178.5740  141.3180 C   0  0  0  0  0  0  0  0  0  0  0  0
  179.7200  178.1630  142.7190 C   0  0  0  0  0  1  0  0  0  0  0  0
  1  3  1  0  0  0  0
  1 13  1  1  0  0  0
  2  7  1  0  0  0  0
  2 27  1  0  0  0  0
  4 20  1  6  0  0  0
  4  6  1  0  0  0  0
  4  5  1  0  0  0  0
  5  3  1  0  0  0  0
  6 17  1  6  0  0  0
  6  2  1  0  0  0  0
  7 24  1  6  0  0  0
  7  1  1  0  0  0  0
  8 13  2  0  0  0  0
  8  9  1  0  0  0  0
  9 14  2  0  0  0  0
 10  8  1  0  0  0  0
 11 15  2  0  0  0  0
 13 11  1  0  0  0  0
 14 15  1  0  0  0  0
 15 12  1  0  0  0  0
 17 16  1  1  0  0  0
 17 18  1  0  0  0  0
 19 18  1  0  0  0  0
 21 22  2  0  0  0  0
 22 23  1  0  0  0  0
 22 20  1  0  0  0  0
 24 26  1  0  0  0  0
 25 26  1  0  0  0  0
 27 29  1  0  0  0  0
 28 29  2  0  0  0  0
 29 30  1  0  0  0  0
M  END
>  <MODEL>
6

>  <REMARK>
 VINA RESULT:      -4.8      6.688     10.386
  Name = 
  9 active torsions:
  status: ('A' for Active; 'I' for Inactive)
    1  A    between atoms: C_1  and  C_22
    2  A    between atoms: N_4  and  C_25
    3  A    between atoms: C_6  and  C_8
    4  A    between atoms: C_6  and  C_17
    5  A    between atoms: C_7  and  C_30
    6  A    between atoms: C_10  and  C_23
    7  A    between atoms: C_10  and  C_26
    8  A    between atoms: C_11  and  C_25
    9  A    between atoms: C_13  and  C_30
                            x       y       z     vdW  Elec       q    Type
                         _______ _______ _______ _____ _____    ______ ____

>  <TORSDO>
F 9

$$$$
=
 OpenBabel11052412243D

 30 31  0  0  1  0  0  0  0  0999 V2000
  184.9170  178.0860  139.1900 C   0  0  1  0  0  3  0  0  0  0  0  0
  182.5140  178.9540  139.3770 N   0  0  0  0  0  0  0  0  0  0  0  0
  185.2390  179.3860  139.7680 N   0  0  0  0  0  2  0  0  0  0  0  0
  183.7180  178.5420  141.5980 C   0  0  2  0  0  3  0  0  0  0  0  0
  184.9330  179.3990  141.1990 C   0  0  0  0  0  2  0  0  0  0  0  0
  182.4140  178.9410  140.8560 C   0  0  2  0  0  3  0  0  0  0  0  0
  183.4560  178.0280  138.7100 C   0  0  2  0  0  3  0  0  0  0  0  0
  187.2700  177.8160  138.2480 C   0  0  0  0  0  0  0  0  0  0  0  0
  188.1130  177.4960  137.1780 C   0  0  0  0  0  3  0  0  0  0  0  0
  187.8280  178.2010  139.4600 O   0  0  0  0  0  1  0  0  0  0  0  0
  185.3410  177.3540  136.8500 C   0  0  0  0  0  3  0  0  0  0  0  0
  185.6660  176.6590  134.5940 F   0  0  0  0  0  0  0  0  0  0  0  0
  185.8720  177.7440  138.0850 C   0  0  0  0  0  0  0  0  0  0  0  0
  187.5740  177.1070  135.9490 C   0  0  0  0  0  3  0  0  0  0  0  0
  186.1890  177.0360  135.7860 C   0  0  0  0  0  0  0  0  0  0  0  0
  180.0920  178.0100  140.2660 C   0  0  0  0  0  1  0  0  0  0  0  0
  181.1960  178.0980  141.3130 C   0  0  2  0  0  3  0  0  0  0  0  0
  180.5930  178.6270  142.6110 C   0  0  0  0  0  2  0  0  0  0  0  0
  180.1260  179.9340  142.4460 O   0  0  0  0  0  1  0  0  0  0  0  0
  183.5720  178.6070  143.1130 C   0  0  0  0  0  2  0  0  0  0  0  0
  185.1900  179.1430  144.7470 O   0  0  0  0  0  0  0  0  0  0  0  0
  184.8980  178.4490  143.7870 C   0  0  0  0  0  0  0  0  0  0  0  0
  185.7700  177.5090  143.3420 F   0  0  0  0  0  0  0  0  0  0  0  0
  182.9310  176.6010  138.7370 C   0  0  0  0  0  2  0  0  0  0  0  0
  181.5010  175.0550  137.6000 O   0  0  0  0  0  1  0  0  0  0  0  0
  181.9200  176.3860  137.6240 C   0  0  0  0  0  2  0  0  0  0  0  0
  182.6770  180.3200  138.8940 C   0  0  0  0  0  2  0  0  0  0  0  0
  180.8440  181.7820  138.6600 O   0  0  0  0  0  0  0  0  0  0  0  0
  181.4160  180.7880  138.2440 C   0  0  0  0  0  0  0  0  0  0  0  0
  180.8640  180.0490  137.0770 C   0  0  0  0  0  1  0  0  0  0  0  0
  1 13  1  6  0  0  0
  1  3  1  0  0  0  0
  2  6  1  0  0  0  0
  3  5  1  0  0  0  0
  4 20  1  1  0  0  0
  5  4  1  0  0  0  0
  6 17  1  6  0  0  0
  6  4  1  0  0  0  0
  7 24  1  1  0  0  0
  7  1  1  0  0  0  0
  7  2  1  0  0  0  0
  8 10  1  0  0  0  0
  9  8  2  0  0  0  0
 11 13  2  0  0  0  0
 12 15  1  0  0  0  0
 13  8  1  0  0  0  0
 14  9  1  0  0  0  0
 15 14  2  0  0  0  0
 15 11  1  0  0  0  0
 17 16  1  6  0  0  0
 17 18  1  0  0  0  0
 19 18  1  0  0  0  0
 20 22  1  0  0  0  0
 22 21  2  0  0  0  0
 23 22  1  0  0  0  0
 25 26  1  0  0  0  0
 26 24  1  0  0  0  0
 27  2  1  0  0  0  0
 29 28  2  0  0  0  0
 29 27  1  0  0  0  0
 30 29  1  0  0  0  0
M  END
>  <MODEL>
7

>  <REMARK>
 VINA RESULT:      -4.7      5.266      8.373
  Name = 
  9 active torsions:
  status: ('A' for Active; 'I' for Inactive)
    1  A    between atoms: C_1  and  C_22
    2  A    between atoms: N_4  and  C_25
    3  A    between atoms: C_6  and  C_8
    4  A    between atoms: C_6  and  C_17
    5  A    between atoms: C_7  and  C_30
    6  A    between atoms: C_10  and  C_23
    7  A    between atoms: C_10  and  C_26
    8  A    between atoms: C_11  and  C_25
    9  A    between atoms: C_13  and  C_30
                            x       y       z     vdW  Elec       q    Type
                         _______ _______ _______ _____ _____    ______ ____

>  <TORSDO>
F 9

$$$$
=
 OpenBabel11052412243D

 30 31  0  0  1  0  0  0  0  0999 V2000
  190.4520  176.5290  138.7310 C   0  0  1  0  0  3  0  0  0  0  0  0
  188.7990  175.6030  137.0060 N   0  0  0  0  0  0  0  0  0  0  0  0
  191.0890  175.2290  138.5500 N   0  0  0  0  0  2  0  0  0  0  0  0
  191.1770  176.0120  136.1510 C   0  0  2  0  0  3  0  0  0  0  0  0
  191.8190  175.1890  137.2820 C   0  0  0  0  0  2  0  0  0  0  0  0
  189.7150  175.5940  135.8400 C   0  0  2  0  0  3  0  0  0  0  0  0
  189.0450  176.5600  138.1080 C   0  0  2  0  0  3  0  0  0  0  0  0
  191.5620  177.3680  140.8660 C   0  0  0  0  0  0  0  0  0  0  0  0
  191.4750  177.6960  142.2230 C   0  0  0  0  0  3  0  0  0  0  0  0
  192.7810  177.5000  140.2120 O   0  0  0  0  0  1  0  0  0  0  0  0
  189.2070  176.7840  140.8690 C   0  0  0  0  0  3  0  0  0  0  0  0
  187.9490  176.9910  142.8820 F   0  0  0  0  0  0  0  0  0  0  0  0
  190.4190  176.9080  140.1810 C   0  0  0  0  0  0  0  0  0  0  0  0
  190.2610  177.5690  142.9010 C   0  0  0  0  0  3  0  0  0  0  0  0
  189.1270  177.1140  142.2240 C   0  0  0  0  0  0  0  0  0  0  0  0
  189.4480  177.8870  134.7090 C   0  0  0  0  0  1  0  0  0  0  0  0
  189.1090  176.4020  134.6640 C   0  0  2  0  0  3  0  0  0  0  0  0
  187.5920  176.2520  134.5940 C   0  0  0  0  0  2  0  0  0  0  0  0
  186.9670  177.5010  134.6290 O   0  0  0  0  0  1  0  0  0  0  0  0
  192.0830  175.9230  134.9300 C   0  0  0  0  0  2  0  0  0  0  0  0
  194.1360  174.7640  135.0630 O   0  0  0  0  0  0  0  0  0  0  0  0
  193.5160  175.7800  135.3330 C   0  0  0  0  0  0  0  0  0  0  0  0
  194.1360  176.7980  135.9840 F   0  0  0  0  0  0  0  0  0  0  0  0
  188.6620  177.9740  137.7000 C   0  0  0  0  0  2  0  0  0  0  0  0
  187.0450  178.6270  139.3380 O   0  0  0  0  0  1  0  0  0  0  0  0
  187.1980  178.2370  138.0070 C   0  0  0  0  0  2  0  0  0  0  0  0
  188.6070  174.2480  137.5080 C   0  0  0  0  0  2  0  0  0  0  0  0
  187.6920  172.8590  135.8390 O   0  0  0  0  0  0  0  0  0  0  0  0
  187.4740  173.5910  136.7910 C   0  0  0  0  0  0  0  0  0  0  0  0
  186.0760  173.8160  137.2480 C   0  0  0  0  0  1  0  0  0  0  0  0
  1 13  1  1  0  0  0
  2 27  1  0  0  0  0
  2  7  1  0  0  0  0
  3  1  1  0  0  0  0
  4 20  1  6  0  0  0
  4  5  1  0  0  0  0
  5  3  1  0  0  0  0
  6 17  1  6  0  0  0
  6  4  1  0  0  0  0
  6  2  1  0  0  0  0
  7 24  1  6  0  0  0
  7  1  1  0  0  0  0
  8  9  1  0  0  0  0
  9 14  2  0  0  0  0
 10  8  1  0  0  0  0
 11 15  2  0  0  0  0
 13  8  2  0  0  0  0
 13 11  1  0  0  0  0
 15 12  1  0  0  0  0
 15 14  1  0  0  0  0
 17 16  1  1  0  0  0
 18 19  1  0  0  0  0
 18 17  1  0  0  0  0
 20 22  1  0  0  0  0
 21 22  2  0  0  0  0
 22 23  1  0  0  0  0
 24 26  1  0  0  0  0
 26 25  1  0  0  0  0
 28 29  2  0  0  0  0
 29 30  1  0  0  0  0
 29 27  1  0  0  0  0
M  END
>  <MODEL>
8

>  <REMARK>
 VINA RESULT:      -4.6      4.226      9.182
  Name = 
  9 active torsions:
  status: ('A' for Active; 'I' for Inactive)
    1  A    between atoms: C_1  and  C_22
    2  A    between atoms: N_4  and  C_25
    3  A    between atoms: C_6  and  C_8
    4  A    between atoms: C_6  and  C_17
    5  A    between atoms: C_7  and  C_30
    6  A    between atoms: C_10  and  C_23
    7  A    between atoms: C_10  and  C_26
    8  A    between atoms: C_11  and  C_25
    9  A    between atoms: C_13  and  C_30
                            x       y       z     vdW  Elec       q    Type
                         _______ _______ _______ _____ _____    ______ ____

>  <TORSDO>
F 9

$$$$
=
 OpenBabel11052412243D

 30 31  0  0  1  0  0  0  0  0999 V2000
  183.8930  175.3490  137.2730 C   0  0  1  0  0  3  0  0  0  0  0  0
  182.7800  177.6440  137.5190 N   0  0  0  0  0  0  0  0  0  0  0  0
  184.4180  175.9370  136.0460 N   0  0  0  0  0  2  0  0  0  0  0  0
  185.3350  177.6300  137.6790 C   0  0  2  0  0  3  0  0  0  0  0  0
  185.5020  176.8730  136.3500 C   0  0  0  0  0  2  0  0  0  0  0  0
  184.0100  178.4350  137.7670 C   0  0  2  0  0  3  0  0  0  0  0  0
  182.7640  176.2070  137.8720 C   0  0  2  0  0  3  0  0  0  0  0  0
  184.2690  172.8290  137.3190 C   0  0  0  0  0  0  0  0  0  0  0  0
  183.8030  171.5340  137.0680 C   0  0  0  0  0  3  0  0  0  0  0  0
  185.5450  173.0020  137.8420 O   0  0  0  0  0  1  0  0  0  0  0  0
  182.1660  173.7290  136.5100 C   0  0  0  0  0  3  0  0  0  0  0  0
  180.4670  172.2410  135.7510 F   0  0  0  0  0  0  0  0  0  0  0  0
  183.4450  173.9380  137.0390 C   0  0  0  0  0  0  0  0  0  0  0  0
  182.5250  171.3360  136.5410 C   0  0  0  0  0  3  0  0  0  0  0  0
  181.7070  172.4330  136.2620 C   0  0  0  0  0  0  0  0  0  0  0  0
  184.3100  178.4300  140.3190 C   0  0  0  0  0  1  0  0  0  0  0  0
  183.8900  179.2290  139.0920 C   0  0  2  0  0  3  0  0  0  0  0  0
  182.4740  179.7510  139.3150 C   0  0  0  0  0  2  0  0  0  0  0  0
  182.2910  180.9810  138.6790 O   0  0  0  0  0  1  0  0  0  0  0  0
  186.5650  178.5060  137.8810 C   0  0  0  0  0  2  0  0  0  0  0  0
  188.2920  176.9710  138.3660 O   0  0  0  0  0  0  0  0  0  0  0  0
  187.5520  177.8450  138.7880 C   0  0  0  0  0  0  0  0  0  0  0  0
  187.6420  178.2390  140.0850 F   0  0  0  0  0  0  0  0  0  0  0  0
  182.6750  176.0150  139.3780 C   0  0  0  0  0  2  0  0  0  0  0  0
  180.5290  175.0300  139.7680 O   0  0  0  0  0  1  0  0  0  0  0  0
  181.2480  176.2220  139.8560 C   0  0  0  0  0  2  0  0  0  0  0  0
  182.3030  177.8650  136.1590 C   0  0  0  0  0  2  0  0  0  0  0  0
  181.1050  179.7980  135.5420 O   0  0  0  0  0  0  0  0  0  0  0  0
  181.1030  178.7540  136.1750 C   0  0  0  0  0  0  0  0  0  0  0  0
  179.8970  178.3590  136.9500 C   0  0  0  0  0  1  0  0  0  0  0  0
  1 13  1  6  0  0  0
  1  7  1  0  0  0  0
  2  6  1  0  0  0  0
  2  7  1  0  0  0  0
  3  5  1  0  0  0  0
  3  1  1  0  0  0  0
  4  6  1  0  0  0  0
  4 20  1  6  0  0  0
  5  4  1  0  0  0  0
  6 17  1  1  0  0  0
  7 24  1  1  0  0  0
  8 10  1  0  0  0  0
  9  8  1  0  0  0  0
 11 13  1  0  0  0  0
 12 15  1  0  0  0  0
 13  8  2  0  0  0  0
 14  9  2  0  0  0  0
 15 11  2  0  0  0  0
 15 14  1  0  0  0  0
 17 18  1  0  0  0  0
 17 16  1  1  0  0  0
 19 18  1  0  0  0  0
 20 22  1  0  0  0  0
 21 22  2  0  0  0  0
 22 23  1  0  0  0  0
 24 26  1  0  0  0  0
 25 26  1  0  0  0  0
 27 29  1  0  0  0  0
 27  2  1  0  0  0  0
 28 29  2  0  0  0  0
 29 30  1  0  0  0  0
M  END
>  <MODEL>
9

>  <REMARK>
 VINA RESULT:      -4.4      6.962     10.182
  Name = 
  9 active torsions:
  status: ('A' for Active; 'I' for Inactive)
    1  A    between atoms: C_1  and  C_22
    2  A    between atoms: N_4  and  C_25
    3  A    between atoms: C_6  and  C_8
    4  A    between atoms: C_6  and  C_17
    5  A    between atoms: C_7  and  C_30
    6  A    between atoms: C_10  and  C_23
    7  A    between atoms: C_10  and  C_26
    8  A    between atoms: C_11  and  C_25
    9  A    between atoms: C_13  and  C_30
                            x       y       z     vdW  Elec       q    Type
                         _______ _______ _______ _____ _____    ______ ____

>  <TORSDO>
F 9

$$$$
