=
 OpenBabel11052416483D

 32 37  0  0  0  0  0  0  0  0999 V2000
  189.2700  176.4660  137.7620 C   0  0  0  0  0  3  0  0  0  0  0  0
  188.6300  177.8560  142.5680 C   0  0  0  0  0  0  0  0  0  0  0  0
  183.7040  178.4520  142.4710 N   0  0  0  0  0  2  0  0  0  0  0  0
  183.7290  179.0260  143.8130 C   0  0  0  0  0  2  0  0  0  0  0  0
  189.5240  177.3100  144.9290 C   0  0  0  0  0  0  0  0  0  0  0  0
  190.8930  177.0010  144.9190 C   0  0  0  0  0  0  0  0  0  0  0  0
  189.6790  177.2590  140.4160 C   0  0  0  0  0  0  0  0  0  0  0  0
  187.5050  178.5270  140.4110 C   0  0  0  0  0  2  0  0  0  0  0  0
  189.4010  176.9810  147.3330 C   0  0  0  0  0  0  0  0  0  0  0  0
  188.3160  177.2590  138.4070 C   0  0  0  0  0  3  0  0  0  0  0  0
  184.9320  178.8560  141.7880 C   0  0  0  0  0  2  0  0  0  0  0  0
  187.4270  178.2320  141.8460 N   0  0  0  0  0  0  0  0  0  0  0  0
  186.1620  178.3980  142.5390 C   0  0  0  0  0  0  0  0  0  0  0  0
  187.3030  177.8550  144.5550 N   0  0  0  0  0  0  0  0  0  0  0  0
  190.7690  176.6720  147.3400 C   0  0  0  0  0  3  0  0  0  0  0  0
  188.5140  177.6530  139.7330 C   0  0  0  0  0  0  0  0  0  0  0  0
  191.5080  176.6820  146.1420 C   0  0  0  0  0  3  0  0  0  0  0  0
  190.6350  176.4750  139.7650 C   0  0  0  0  0  3  0  0  0  0  0  0
  190.4310  176.0740  138.4400 C   0  0  0  0  0  0  0  0  0  0  0  0
  184.8120  178.3390  144.6410 C   0  0  0  0  0  2  0  0  0  0  0  0
  186.1050  178.2310  143.8780 C   0  0  0  0  0  0  0  0  0  0  0  0
  187.4690  177.6220  145.8980 O   0  0  0  0  0  0  0  0  0  0  0  0
  189.9230  177.7070  141.8230 C   0  0  0  0  0  2  0  0  0  0  0  0
  191.6300  176.9970  143.7860 F   0  0  0  0  0  0  0  0  0  0  0  0
  188.6820  176.9710  148.4820 F   0  0  0  0  0  0  0  0  0  0  0  0
  188.5440  177.6800  143.8920 C   0  0  0  0  0  0  0  0  0  0  0  0
  188.8020  177.2940  146.1160 C   0  0  0  0  0  0  0  0  0  0  0  0
  191.4420  175.2140  137.7580 C   0  0  0  0  0  2  0  0  0  0  0  0
  192.1910  175.9910  136.6820 C   0  0  0  0  0  2  0  0  0  0  0  0
  193.5700  176.3340  137.1330 C   0  0  0  0  0  0  0  0  0  0  0  0
  193.9220  176.1880  138.4670 O   0  0  0  0  0  1  0  0  0  0  0  0
  194.4230  176.7320  136.2980 O   0  0  0  0  0  0  0  0  0  0  0  0
  1 10  2  0  0  0  0
  1 19  1  0  0  0  0
  2 26  2  0  0  0  0
  3  4  1  0  0  0  0
  4 20  1  0  0  0  0
  5 27  1  0  0  0  0
  6  5  2  0  0  0  0
  6 17  1  0  0  0  0
  7 23  1  0  0  0  0
  8 12  1  0  0  0  0
  9 15  1  0  0  0  0
  9 25  1  0  0  0  0
 10 16  1  0  0  0  0
 11  3  1  0  0  0  0
 11 13  1  0  0  0  0
 12 13  1  0  0  0  0
 12  2  1  0  0  0  0
 13 21  2  0  0  0  0
 14 22  1  0  0  0  0
 16  8  1  0  0  0  0
 16  7  2  0  0  0  0
 17 15  2  0  0  0  0
 18  7  1  0  0  0  0
 19 18  2  0  0  0  0
 21 14  1  0  0  0  0
 21 20  1  0  0  0  0
 22 27  1  0  0  0  0
 23  2  1  0  0  0  0
 24  6  1  0  0  0  0
 26 14  1  0  0  0  0
 26  5  1  0  0  0  0
 27  9  2  0  0  0  0
 28 19  1  0  0  0  0
 29 30  1  0  0  0  0
 29 28  1  0  0  0  0
 30 31  1  0  0  0  0
 32 30  2  0  0  0  0
M  END
>  <MODEL>
1

>  <REMARK>
 VINA RESULT:     -10.9      0.000      0.000
  Name = 
  3 active torsions:
  status: ('A' for Active; 'I' for Inactive)
    1  A    between atoms: C_1  and  C_10
    2  A    between atoms: C_10  and  C_19
    3  A    between atoms: C_19  and  C_24
                            x       y       z     vdW  Elec       q    Type
                         _______ _______ _______ _____ _____    ______ ____

>  <TORSDO>
F 3

$$$$
=
 OpenBabel11052416483D

 32 37  0  0  0  0  0  0  0  0999 V2000
  190.7830  177.8890  138.8170 C   0  0  0  0  0  3  0  0  0  0  0  0
  188.2050  177.1860  143.0950 C   0  0  0  0  0  0  0  0  0  0  0  0
  192.0710  176.8130  146.1840 N   0  0  0  0  0  2  0  0  0  0  0  0
  191.1850  176.4240  147.2760 C   0  0  0  0  0  2  0  0  0  0  0  0
  186.0580  178.0010  144.2760 C   0  0  0  0  0  0  0  0  0  0  0  0
  185.0140  178.2410  143.3700 C   0  0  0  0  0  0  0  0  0  0  0  0
  188.7650  177.4400  140.7060 C   0  0  0  0  0  0  0  0  0  0  0  0
  190.3990  176.2850  142.2320 C   0  0  0  0  0  2  0  0  0  0  0  0
  184.6640  178.6540  146.1550 C   0  0  0  0  0  0  0  0  0  0  0  0
  191.0840  177.2340  140.0160 C   0  0  0  0  0  3  0  0  0  0  0  0
  191.5240  176.2640  144.9440 C   0  0  0  0  0  2  0  0  0  0  0  0
  189.5770  176.7730  143.3430 N   0  0  0  0  0  0  0  0  0  0  0  0
  190.1190  176.7610  144.6900 C   0  0  0  0  0  0  0  0  0  0  0  0
  187.9950  177.5150  145.4520 N   0  0  0  0  0  0  0  0  0  0  0  0
  183.6100  178.8970  145.2630 C   0  0  0  0  0  3  0  0  0  0  0  0
  190.0810  177.0130  140.9630 C   0  0  0  0  0  0  0  0  0  0  0  0
  183.7840  178.6920  143.8810 C   0  0  0  0  0  3  0  0  0  0  0  0
  188.4670  178.0840  139.5020 C   0  0  0  0  0  3  0  0  0  0  0  0
  189.4740  178.3130  138.5580 C   0  0  0  0  0  0  0  0  0  0  0  0
  189.8560  177.1640  147.1420 C   0  0  0  0  0  2  0  0  0  0  0  0
  189.3330  177.1080  145.7320 C   0  0  0  0  0  0  0  0  0  0  0  0
  187.0360  177.9180  146.3490 O   0  0  0  0  0  0  0  0  0  0  0  0
  187.6730  177.1730  141.6930 C   0  0  0  0  0  2  0  0  0  0  0  0
  185.1500  178.0580  142.0370 F   0  0  0  0  0  0  0  0  0  0  0  0
  184.5050  178.8510  147.4870 F   0  0  0  0  0  0  0  0  0  0  0  0
  187.4520  177.5410  144.1420 C   0  0  0  0  0  0  0  0  0  0  0  0
  185.8770  178.2090  145.6380 C   0  0  0  0  0  0  0  0  0  0  0  0
  189.1560  179.0250  137.2860 C   0  0  0  0  0  2  0  0  0  0  0  0
  187.7970  178.6040  136.7430 C   0  0  0  0  0  2  0  0  0  0  0  0
  187.9190  177.4020  135.8690 C   0  0  0  0  0  0  0  0  0  0  0  0
  188.5720  177.4930  134.6480 O   0  0  0  0  0  0  0  0  0  0  0  0
  187.4530  176.2980  136.2510 O   0  0  0  0  0  1  0  0  0  0  0  0
  1 10  1  0  0  0  0
  2 12  1  0  0  0  0
  2 26  2  0  0  0  0
  3  4  1  0  0  0  0
  5 27  1  0  0  0  0
  6 17  1  0  0  0  0
  6  5  2  0  0  0  0
  7 16  1  0  0  0  0
  7 23  1  0  0  0  0
  8 12  1  0  0  0  0
  9 25  1  0  0  0  0
 10 16  2  0  0  0  0
 11  3  1  0  0  0  0
 12 13  1  0  0  0  0
 13 11  1  0  0  0  0
 13 21  2  0  0  0  0
 14 21  1  0  0  0  0
 14 22  1  0  0  0  0
 15  9  1  0  0  0  0
 16  8  1  0  0  0  0
 17 15  2  0  0  0  0
 18  7  2  0  0  0  0
 19  1  2  0  0  0  0
 19 18  1  0  0  0  0
 20  4  1  0  0  0  0
 21 20  1  0  0  0  0
 23  2  1  0  0  0  0
 24  6  1  0  0  0  0
 26  5  1  0  0  0  0
 26 14  1  0  0  0  0
 27  9  2  0  0  0  0
 27 22  1  0  0  0  0
 28 19  1  0  0  0  0
 29 28  1  0  0  0  0
 30 32  1  0  0  0  0
 30 29  1  0  0  0  0
 31 30  2  0  0  0  0
M  END
>  <MODEL>
2

>  <REMARK>
 VINA RESULT:     -10.1      2.787      5.066
  Name = 
  3 active torsions:
  status: ('A' for Active; 'I' for Inactive)
    1  A    between atoms: C_1  and  C_10
    2  A    between atoms: C_10  and  C_19
    3  A    between atoms: C_19  and  C_24
                            x       y       z     vdW  Elec       q    Type
                         _______ _______ _______ _____ _____    ______ ____

>  <TORSDO>
F 3

$$$$
=
 OpenBabel11052416483D

 32 37  0  0  0  0  0  0  0  0999 V2000
  181.7020  178.6110  143.9650 C   0  0  0  0  0  3  0  0  0  0  0  0
  186.6470  178.4840  142.9790 C   0  0  0  0  0  0  0  0  0  0  0  0
  188.2010  176.8960  147.4160 N   0  0  0  0  0  2  0  0  0  0  0  0
  189.5920  177.1110  147.0260 C   0  0  0  0  0  2  0  0  0  0  0  0
  188.2760  177.8700  141.0710 C   0  0  0  0  0  0  0  0  0  0  0  0
  187.7590  178.1950  139.8080 C   0  0  0  0  0  0  0  0  0  0  0  0
  184.2220  178.8930  142.7780 C   0  0  0  0  0  0  0  0  0  0  0  0
  185.3110  179.0630  145.0400 C   0  0  0  0  0  2  0  0  0  0  0  0
  190.3160  176.9970  140.0830 C   0  0  0  0  0  0  0  0  0  0  0  0
  182.8390  178.7490  144.7680 C   0  0  0  0  0  3  0  0  0  0  0  0
  187.3910  177.9320  146.7770 C   0  0  0  0  0  2  0  0  0  0  0  0
  186.4930  178.4520  144.4240 N   0  0  0  0  0  0  0  0  0  0  0  0
  187.5320  177.8970  145.2720 C   0  0  0  0  0  0  0  0  0  0  0  0
  188.7860  177.4690  143.2960 N   0  0  0  0  0  0  0  0  0  0  0  0
  189.8140  177.3170  138.8140 C   0  0  0  0  0  3  0  0  0  0  0  0
  184.0990  178.8850  144.1790 C   0  0  0  0  0  0  0  0  0  0  0  0
  188.5450  177.9110  138.6780 C   0  0  0  0  0  3  0  0  0  0  0  0
  183.0820  178.7660  141.9790 C   0  0  0  0  0  3  0  0  0  0  0  0
  181.8220  178.6210  142.5700 C   0  0  0  0  0  0  0  0  0  0  0  0
  189.7590  176.7960  145.5420 C   0  0  0  0  0  2  0  0  0  0  0  0
  188.6710  177.4300  144.7170 C   0  0  0  0  0  0  0  0  0  0  0  0
  189.8410  177.0390  142.5280 O   0  0  0  0  0  0  0  0  0  0  0  0
  185.5600  179.0780  142.1330 C   0  0  0  0  0  2  0  0  0  0  0  0
  186.5420  178.7620  139.6430 F   0  0  0  0  0  0  0  0  0  0  0  0
  191.5360  176.4230  140.2220 F   0  0  0  0  0  0  0  0  0  0  0  0
  187.7780  178.0000  142.4520 C   0  0  0  0  0  0  0  0  0  0  0  0
  189.5280  177.2820  141.1950 C   0  0  0  0  0  0  0  0  0  0  0  0
  180.6120  178.4580  141.7130 C   0  0  0  0  0  2  0  0  0  0  0  0
  180.7080  179.3100  140.4550 C   0  0  0  0  0  2  0  0  0  0  0  0
  180.0020  180.6110  140.6350 C   0  0  0  0  0  0  0  0  0  0  0  0
  179.6260  181.0290  141.9040 O   0  0  0  0  0  1  0  0  0  0  0  0
  179.7690  181.3430  139.6380 O   0  0  0  0  0  0  0  0  0  0  0  0
  1 10  1  0  0  0  0
  2 12  1  0  0  0  0
  4  3  1  0  0  0  0
  5 27  1  0  0  0  0
  5 26  1  0  0  0  0
  6  5  2  0  0  0  0
  7 16  1  0  0  0  0
  9 25  1  0  0  0  0
  9 27  2  0  0  0  0
 11  3  1  0  0  0  0
 12  8  1  0  0  0  0
 12 13  1  0  0  0  0
 13 11  1  0  0  0  0
 14 21  1  0  0  0  0
 15  9  1  0  0  0  0
 16 10  2  0  0  0  0
 16  8  1  0  0  0  0
 17 15  2  0  0  0  0
 17  6  1  0  0  0  0
 18 19  1  0  0  0  0
 18  7  2  0  0  0  0
 19  1  2  0  0  0  0
 20  4  1  0  0  0  0
 21 13  2  0  0  0  0
 21 20  1  0  0  0  0
 22 14  1  0  0  0  0
 23  7  1  0  0  0  0
 23  2  1  0  0  0  0
 24  6  1  0  0  0  0
 26  2  2  0  0  0  0
 26 14  1  0  0  0  0
 27 22  1  0  0  0  0
 28 19  1  0  0  0  0
 29 30  1  0  0  0  0
 29 28  1  0  0  0  0
 30 31  1  0  0  0  0
 32 30  2  0  0  0  0
M  END
>  <MODEL>
3

>  <REMARK>
 VINA RESULT:      -9.7      3.471      8.043
  Name = 
  3 active torsions:
  status: ('A' for Active; 'I' for Inactive)
    1  A    between atoms: C_1  and  C_10
    2  A    between atoms: C_10  and  C_19
    3  A    between atoms: C_19  and  C_24
                            x       y       z     vdW  Elec       q    Type
                         _______ _______ _______ _____ _____    ______ ____

>  <TORSDO>
F 3

$$$$
=
 OpenBabel11052416483D

 32 37  0  0  0  0  0  0  0  0999 V2000
  181.7230  178.5920  143.9130 C   0  0  0  0  0  3  0  0  0  0  0  0
  186.6830  178.4690  143.0040 C   0  0  0  0  0  0  0  0  0  0  0  0
  188.1660  176.8470  147.4530 N   0  0  0  0  0  2  0  0  0  0  0  0
  189.5630  177.0640  147.0870 C   0  0  0  0  0  2  0  0  0  0  0  0
  188.3410  177.8690  141.1180 C   0  0  0  0  0  0  0  0  0  0  0  0
  187.8450  178.2030  139.8490 C   0  0  0  0  0  0  0  0  0  0  0  0
  184.2620  178.8810  142.7670 C   0  0  0  0  0  0  0  0  0  0  0  0
  185.3150  179.0330  145.0480 C   0  0  0  0  0  2  0  0  0  0  0  0
  190.3970  177.0010  140.1560 C   0  0  0  0  0  0  0  0  0  0  0  0
  182.8470  178.7230  144.7340 C   0  0  0  0  0  3  0  0  0  0  0  0
  187.3670  177.8880  146.8090 C   0  0  0  0  0  2  0  0  0  0  0  0
  186.5060  178.4270  144.4460 N   0  0  0  0  0  0  0  0  0  0  0  0
  187.5310  177.8640  145.3060 C   0  0  0  0  0  0  0  0  0  0  0  0
  188.8160  177.4500  143.3470 N   0  0  0  0  0  0  0  0  0  0  0  0
  189.9150  177.3310  138.8810 C   0  0  0  0  0  3  0  0  0  0  0  0
  184.1160  178.8620  144.1670 C   0  0  0  0  0  0  0  0  0  0  0  0
  188.6490  177.9270  138.7290 C   0  0  0  0  0  3  0  0  0  0  0  0
  183.1350  178.7610  141.9500 C   0  0  0  0  0  3  0  0  0  0  0  0
  181.8650  178.6120  142.5200 C   0  0  0  0  0  0  0  0  0  0  0  0
  189.7530  176.7600  145.6030 C   0  0  0  0  0  2  0  0  0  0  0  0
  188.6790  177.4010  144.7660 C   0  0  0  0  0  0  0  0  0  0  0  0
  189.8830  177.0260  142.5930 O   0  0  0  0  0  0  0  0  0  0  0  0
  185.6090  179.0700  142.1460 C   0  0  0  0  0  2  0  0  0  0  0  0
  186.6310  178.7720  139.6690 F   0  0  0  0  0  0  0  0  0  0  0  0
  191.6140  176.4260  140.3090 F   0  0  0  0  0  0  0  0  0  0  0  0
  187.8220  177.9890  142.4920 C   0  0  0  0  0  0  0  0  0  0  0  0
  189.5920  177.2780  141.2570 C   0  0  0  0  0  0  0  0  0  0  0  0
  180.6680  178.4560  141.6430 C   0  0  0  0  0  2  0  0  0  0  0  0
  180.9620  177.5350  140.4660 C   0  0  0  0  0  2  0  0  0  0  0  0
  180.0580  176.3480  140.4770 C   0  0  0  0  0  0  0  0  0  0  0  0
  180.2230  175.3400  139.5370 O   0  0  0  0  0  0  0  0  0  0  0  0
  179.1620  176.2490  141.3540 O   0  0  0  0  0  1  0  0  0  0  0  0
  1 10  1  0  0  0  0
  2 12  1  0  0  0  0
  4  3  1  0  0  0  0
  5 27  1  0  0  0  0
  5 26  1  0  0  0  0
  6  5  2  0  0  0  0
  7 16  1  0  0  0  0
  9 25  1  0  0  0  0
  9 27  2  0  0  0  0
 11  3  1  0  0  0  0
 12  8  1  0  0  0  0
 12 13  1  0  0  0  0
 13 11  1  0  0  0  0
 14 21  1  0  0  0  0
 15  9  1  0  0  0  0
 16 10  2  0  0  0  0
 16  8  1  0  0  0  0
 17 15  2  0  0  0  0
 17  6  1  0  0  0  0
 18 19  1  0  0  0  0
 18  7  2  0  0  0  0
 19  1  2  0  0  0  0
 20  4  1  0  0  0  0
 21 13  2  0  0  0  0
 21 20  1  0  0  0  0
 22 14  1  0  0  0  0
 23  7  1  0  0  0  0
 23  2  1  0  0  0  0
 24  6  1  0  0  0  0
 26  2  2  0  0  0  0
 26 14  1  0  0  0  0
 27 22  1  0  0  0  0
 28 19  1  0  0  0  0
 29 30  1  0  0  0  0
 29 28  1  0  0  0  0
 30 32  1  0  0  0  0
 31 30  2  0  0  0  0
M  END
>  <MODEL>
4

>  <REMARK>
 VINA RESULT:      -9.5      3.431      7.871
  Name = 
  3 active torsions:
  status: ('A' for Active; 'I' for Inactive)
    1  A    between atoms: C_1  and  C_10
    2  A    between atoms: C_10  and  C_19
    3  A    between atoms: C_19  and  C_24
                            x       y       z     vdW  Elec       q    Type
                         _______ _______ _______ _____ _____    ______ ____

>  <TORSDO>
F 3

$$$$
=
 OpenBabel11052416483D

 32 37  0  0  0  0  0  0  0  0999 V2000
  191.2580  176.8270  144.8410 C   0  0  0  0  0  3  0  0  0  0  0  0
  188.9010  177.8990  140.5120 C   0  0  0  0  0  0  0  0  0  0  0  0
  191.7600  175.2060  137.4780 N   0  0  0  0  0  2  0  0  0  0  0  0
  191.0930  175.7760  136.3130 C   0  0  0  0  0  2  0  0  0  0  0  0
  186.5180  178.2540  139.5850 C   0  0  0  0  0  0  0  0  0  0  0  0
  185.6780  178.8900  140.5110 C   0  0  0  0  0  0  0  0  0  0  0  0
  189.5840  177.9240  142.8830 C   0  0  0  0  0  0  0  0  0  0  0  0
  191.3220  177.5090  141.1110 C   0  0  0  0  0  2  0  0  0  0  0  0
  184.7270  178.1320  137.9480 C   0  0  0  0  0  0  0  0  0  0  0  0
  191.6850  176.8820  143.5110 C   0  0  0  0  0  3  0  0  0  0  0  0
  191.8220  176.2390  138.5110 C   0  0  0  0  0  2  0  0  0  0  0  0
  190.2060  177.3570  140.1720 N   0  0  0  0  0  0  0  0  0  0  0  0
  190.4420  176.7370  138.8800 C   0  0  0  0  0  0  0  0  0  0  0  0
  188.1770  177.2230  138.3380 N   0  0  0  0  0  0  0  0  0  0  0  0
  183.8750  178.7680  138.8620 C   0  0  0  0  0  3  0  0  0  0  0  0
  190.8500  177.4240  142.5300 C   0  0  0  0  0  0  0  0  0  0  0  0
  184.3480  179.1440  140.1340 C   0  0  0  0  0  3  0  0  0  0  0  0
  189.1650  177.8780  144.2150 C   0  0  0  0  0  3  0  0  0  0  0  0
  189.9980  177.3260  145.1950 C   0  0  0  0  0  0  0  0  0  0  0  0
  189.6190  176.0130  136.6350 C   0  0  0  0  0  2  0  0  0  0  0  0
  189.4470  176.6890  137.9690 C   0  0  0  0  0  0  0  0  0  0  0  0
  187.0330  177.2670  137.5790 O   0  0  0  0  0  0  0  0  0  0  0  0
  188.6960  178.5450  141.8500 C   0  0  0  0  0  2  0  0  0  0  0  0
  186.0990  179.2590  141.7420 F   0  0  0  0  0  0  0  0  0  0  0  0
  184.2780  177.7660  136.7220 F   0  0  0  0  0  0  0  0  0  0  0  0
  187.9270  177.8240  139.5980 C   0  0  0  0  0  0  0  0  0  0  0  0
  186.0410  177.8850  138.3320 C   0  0  0  0  0  0  0  0  0  0  0  0
  189.5360  177.2540  146.6120 C   0  0  0  0  0  2  0  0  0  0  0  0
  188.0210  177.1200  146.6920 C   0  0  0  0  0  2  0  0  0  0  0  0
  187.4480  178.0950  147.6640 C   0  0  0  0  0  0  0  0  0  0  0  0
  188.0310  178.2570  148.9130 O   0  0  0  0  0  1  0  0  0  0  0  0
  186.4500  178.7910  147.3420 O   0  0  0  0  0  0  0  0  0  0  0  0
  1 19  1  0  0  0  0
  2 23  1  0  0  0  0
  3 11  1  0  0  0  0
  4 20  1  0  0  0  0
  4  3  1  0  0  0  0
  5 26  1  0  0  0  0
  5  6  1  0  0  0  0
  6 24  1  0  0  0  0
  7 18  1  0  0  0  0
  8 16  1  0  0  0  0
  9 27  1  0  0  0  0
  9 15  2  0  0  0  0
 10  1  2  0  0  0  0
 11 13  1  0  0  0  0
 12  2  1  0  0  0  0
 12  8  1  0  0  0  0
 13 12  1  0  0  0  0
 14 26  1  0  0  0  0
 15 17  1  0  0  0  0
 16  7  2  0  0  0  0
 16 10  1  0  0  0  0
 17  6  2  0  0  0  0
 18 19  2  0  0  0  0
 19 28  1  0  0  0  0
 20 21  1  0  0  0  0
 21 14  1  0  0  0  0
 21 13  2  0  0  0  0
 22 27  1  0  0  0  0
 22 14  1  0  0  0  0
 23  7  1  0  0  0  0
 25  9  1  0  0  0  0
 26  2  2  0  0  0  0
 27  5  2  0  0  0  0
 28 29  1  0  0  0  0
 29 30  1  0  0  0  0
 30 31  1  0  0  0  0
 32 30  2  0  0  0  0
M  END
>  <MODEL>
5

>  <REMARK>
 VINA RESULT:      -9.3      3.330      8.264
  Name = 
  3 active torsions:
  status: ('A' for Active; 'I' for Inactive)
    1  A    between atoms: C_1  and  C_10
    2  A    between atoms: C_10  and  C_19
    3  A    between atoms: C_19  and  C_24
                            x       y       z     vdW  Elec       q    Type
                         _______ _______ _______ _____ _____    ______ ____

>  <TORSDO>
F 3

$$$$
=
 OpenBabel11052416483D

 32 37  0  0  0  0  0  0  0  0999 V2000
  188.9320  176.5910  137.4350 C   0  0  0  0  0  3  0  0  0  0  0  0
  186.6450  178.3690  141.5630 C   0  0  0  0  0  0  0  0  0  0  0  0
  182.0000  178.4290  139.8150 N   0  0  0  0  0  2  0  0  0  0  0  0
  181.5400  179.1310  141.0100 C   0  0  0  0  0  2  0  0  0  0  0  0
  186.7420  178.1550  144.1350 C   0  0  0  0  0  0  0  0  0  0  0  0
  188.0540  177.9940  144.6050 C   0  0  0  0  0  0  0  0  0  0  0  0
  188.3840  177.6790  139.9560 C   0  0  0  0  0  0  0  0  0  0  0  0
  186.2540  178.7040  139.0930 C   0  0  0  0  0  2  0  0  0  0  0  0
  185.8520  178.0520  146.3940 C   0  0  0  0  0  0  0  0  0  0  0  0
  187.7670  177.3380  137.6330 C   0  0  0  0  0  3  0  0  0  0  0  0
  183.3550  178.8920  139.5170 C   0  0  0  0  0  2  0  0  0  0  0  0
  185.7260  178.5440  140.4510 N   0  0  0  0  0  0  0  0  0  0  0  0
  184.2950  178.6420  140.6740 C   0  0  0  0  0  0  0  0  0  0  0  0
  184.7380  178.4230  143.0020 N   0  0  0  0  0  0  0  0  0  0  0  0
  187.1580  177.8920  146.8790 C   0  0  0  0  0  3  0  0  0  0  0  0
  187.4880  177.8790  138.8910 C   0  0  0  0  0  0  0  0  0  0  0  0
  188.2500  177.8630  145.9900 C   0  0  0  0  0  3  0  0  0  0  0  0
  189.5530  176.9410  139.7510 C   0  0  0  0  0  3  0  0  0  0  0  0
  189.8270  176.3920  138.4930 C   0  0  0  0  0  0  0  0  0  0  0  0
  182.3320  178.6470  142.2220 C   0  0  0  0  0  2  0  0  0  0  0  0
  183.8090  178.6020  141.9340 C   0  0  0  0  0  0  0  0  0  0  0  0
  184.4650  178.3420  144.3460 O   0  0  0  0  0  0  0  0  0  0  0  0
  188.1180  178.2860  141.2980 C   0  0  0  0  0  2  0  0  0  0  0  0
  189.1230  177.9570  143.7780 F   0  0  0  0  0  0  0  0  0  0  0  0
  184.7960  178.0790  147.2430 F   0  0  0  0  0  0  0  0  0  0  0  0
  186.1380  178.3170  142.8000 C   0  0  0  0  0  0  0  0  0  0  0  0
  185.6700  178.1800  145.0200 C   0  0  0  0  0  0  0  0  0  0  0  0
  191.0620  175.5820  138.2870 C   0  0  0  0  0  2  0  0  0  0  0  0
  191.8590  176.0860  137.0910 C   0  0  0  0  0  2  0  0  0  0  0  0
  193.2400  176.4780  137.4950 C   0  0  0  0  0  0  0  0  0  0  0  0
  193.5920  176.5000  138.8370 O   0  0  0  0  0  1  0  0  0  0  0  0
  194.0940  176.7650  136.6170 O   0  0  0  0  0  0  0  0  0  0  0  0
  1 10  2  0  0  0  0
  1 19  1  0  0  0  0
  2 26  2  0  0  0  0
  3  4  1  0  0  0  0
  4 20  1  0  0  0  0
  5  6  2  0  0  0  0
  5 27  1  0  0  0  0
  6 17  1  0  0  0  0
  7 23  1  0  0  0  0
  8 12  1  0  0  0  0
  9 15  1  0  0  0  0
  9 25  1  0  0  0  0
 10 16  1  0  0  0  0
 11  3  1  0  0  0  0
 11 13  1  0  0  0  0
 12 13  1  0  0  0  0
 12  2  1  0  0  0  0
 13 21  2  0  0  0  0
 14 22  1  0  0  0  0
 16  8  1  0  0  0  0
 16  7  2  0  0  0  0
 17 15  2  0  0  0  0
 18  7  1  0  0  0  0
 19 18  2  0  0  0  0
 21 20  1  0  0  0  0
 21 14  1  0  0  0  0
 22 27  1  0  0  0  0
 23  2  1  0  0  0  0
 24  6  1  0  0  0  0
 26 14  1  0  0  0  0
 26  5  1  0  0  0  0
 27  9  2  0  0  0  0
 28 19  1  0  0  0  0
 29 30  1  0  0  0  0
 29 28  1  0  0  0  0
 30 31  1  0  0  0  0
 32 30  2  0  0  0  0
M  END
>  <MODEL>
6

>  <REMARK>
 VINA RESULT:      -9.1      1.856      2.559
  Name = 
  3 active torsions:
  status: ('A' for Active; 'I' for Inactive)
    1  A    between atoms: C_1  and  C_10
    2  A    between atoms: C_10  and  C_19
    3  A    between atoms: C_19  and  C_24
                            x       y       z     vdW  Elec       q    Type
                         _______ _______ _______ _____ _____    ______ ____

>  <TORSDO>
F 3

$$$$
=
 OpenBabel11052416483D

 32 37  0  0  0  0  0  0  0  0999 V2000
  191.8370  177.2790  141.1750 C   0  0  0  0  0  3  0  0  0  0  0  0
  187.5360  177.3420  143.8100 C   0  0  0  0  0  0  0  0  0  0  0  0
  189.4840  178.1450  148.3030 N   0  0  0  0  0  2  0  0  0  0  0  0
  188.1810  177.9330  148.9260 C   0  0  0  0  0  2  0  0  0  0  0  0
  185.0990  178.1750  143.6140 C   0  0  0  0  0  0  0  0  0  0  0  0
  184.6090  178.0750  142.3030 C   0  0  0  0  0  0  0  0  0  0  0  0
  189.1600  177.0760  141.9710 C   0  0  0  0  0  0  0  0  0  0  0  0
  189.8620  176.5060  144.3200 C   0  0  0  0  0  2  0  0  0  0  0  0
  182.9960  179.1020  144.3990 C   0  0  0  0  0  0  0  0  0  0  0  0
  191.5260  176.9670  142.5030 C   0  0  0  0  0  3  0  0  0  0  0  0
  189.5760  177.2590  147.1440 C   0  0  0  0  0  2  0  0  0  0  0  0
  188.6210  177.1530  144.7580 N   0  0  0  0  0  0  0  0  0  0  0  0
  188.4650  177.5230  146.1530 C   0  0  0  0  0  0  0  0  0  0  0  0
  186.2460  178.2000  145.6280 N   0  0  0  0  0  0  0  0  0  0  0  0
  182.4900  179.0070  143.0950 C   0  0  0  0  0  3  0  0  0  0  0  0
  190.1920  176.8700  142.9050 C   0  0  0  0  0  0  0  0  0  0  0  0
  183.2920  178.4980  142.0550 C   0  0  0  0  0  3  0  0  0  0  0  0
  189.4740  177.3770  140.6430 C   0  0  0  0  0  3  0  0  0  0  0  0
  190.8110  177.4830  140.2440 C   0  0  0  0  0  0  0  0  0  0  0  0
  187.0840  178.4690  148.0090 C   0  0  0  0  0  2  0  0  0  0  0  0
  187.2870  178.0210  146.5860 C   0  0  0  0  0  0  0  0  0  0  0  0
  184.9840  178.6980  145.8440 O   0  0  0  0  0  0  0  0  0  0  0  0
  187.7270  176.9360  142.3790 C   0  0  0  0  0  2  0  0  0  0  0  0
  185.3540  177.5950  141.2820 F   0  0  0  0  0  0  0  0  0  0  0  0
  182.2310  179.5930  145.4050 F   0  0  0  0  0  0  0  0  0  0  0  0
  186.3840  177.8520  144.2600 C   0  0  0  0  0  0  0  0  0  0  0  0
  184.3020  178.6810  144.6330 C   0  0  0  0  0  0  0  0  0  0  0  0
  191.1410  177.8310  138.8310 C   0  0  0  0  0  2  0  0  0  0  0  0
  190.1610  177.1860  137.8600 C   0  0  0  0  0  2  0  0  0  0  0  0
  189.3750  178.2210  137.1280 C   0  0  0  0  0  0  0  0  0  0  0  0
  189.0050  179.3950  137.7680 O   0  0  0  0  0  1  0  0  0  0  0  0
  189.0690  178.0390  135.9210 O   0  0  0  0  0  0  0  0  0  0  0  0
  1 10  1  0  0  0  0
  2 26  2  0  0  0  0
  2 12  1  0  0  0  0
  3  4  1  0  0  0  0
  5 26  1  0  0  0  0
  5 27  1  0  0  0  0
  6  5  2  0  0  0  0
  7 23  1  0  0  0  0
  7 16  1  0  0  0  0
  8 12  1  0  0  0  0
  9 27  2  0  0  0  0
  9 25  1  0  0  0  0
 10 16  2  0  0  0  0
 11  3  1  0  0  0  0
 12 13  1  0  0  0  0
 13 21  2  0  0  0  0
 13 11  1  0  0  0  0
 14 22  1  0  0  0  0
 14 21  1  0  0  0  0
 15  9  1  0  0  0  0
 16  8  1  0  0  0  0
 17  6  1  0  0  0  0
 17 15  2  0  0  0  0
 18  7  2  0  0  0  0
 19 18  1  0  0  0  0
 19  1  2  0  0  0  0
 20  4  1  0  0  0  0
 21 20  1  0  0  0  0
 23  2  1  0  0  0  0
 24  6  1  0  0  0  0
 26 14  1  0  0  0  0
 27 22  1  0  0  0  0
 28 19  1  0  0  0  0
 29 28  1  0  0  0  0
 30 31  1  0  0  0  0
 30 29  1  0  0  0  0
 32 30  2  0  0  0  0
M  END
>  <MODEL>
7

>  <REMARK>
 VINA RESULT:      -9.1      2.862      5.229
  Name = 
  3 active torsions:
  status: ('A' for Active; 'I' for Inactive)
    1  A    between atoms: C_1  and  C_10
    2  A    between atoms: C_10  and  C_19
    3  A    between atoms: C_19  and  C_24
                            x       y       z     vdW  Elec       q    Type
                         _______ _______ _______ _____ _____    ______ ____

>  <TORSDO>
F 3

$$$$
=
 OpenBabel11052416483D

 32 37  0  0  0  0  0  0  0  0999 V2000
  188.8000  177.7360  148.2610 C   0  0  0  0  0  3  0  0  0  0  0  0
  187.5980  177.4440  143.3720 C   0  0  0  0  0  0  0  0  0  0  0  0
  183.1660  179.6650  143.6100 N   0  0  0  0  0  2  0  0  0  0  0  0
  182.8970  179.3170  142.2180 C   0  0  0  0  0  2  0  0  0  0  0  0
  188.6940  177.6490  141.0420 C   0  0  0  0  0  0  0  0  0  0  0  0
  190.0040  177.1460  141.0260 C   0  0  0  0  0  0  0  0  0  0  0  0
  188.7570  177.1320  145.5270 C   0  0  0  0  0  0  0  0  0  0  0  0
  186.2450  177.2850  145.4960 C   0  0  0  0  0  2  0  0  0  0  0  0
  188.8240  178.2400  138.6890 C   0  0  0  0  0  0  0  0  0  0  0  0
  187.5800  177.6750  147.5800 C   0  0  0  0  0  3  0  0  0  0  0  0
  183.9500  178.5800  144.2000 C   0  0  0  0  0  2  0  0  0  0  0  0
  186.3730  177.7230  144.1020 N   0  0  0  0  0  0  0  0  0  0  0  0
  185.2430  178.3580  143.4480 C   0  0  0  0  0  0  0  0  0  0  0  0
  186.5350  178.3870  141.4510 N   0  0  0  0  0  0  0  0  0  0  0  0
  190.1340  177.7400  138.6570 C   0  0  0  0  0  3  0  0  0  0  0  0
  187.5550  177.3790  146.2150 C   0  0  0  0  0  0  0  0  0  0  0  0
  190.7180  177.1970  139.8170 C   0  0  0  0  0  3  0  0  0  0  0  0
  189.9730  177.1830  146.2130 C   0  0  0  0  0  3  0  0  0  0  0  0
  189.9980  177.4890  147.5790 C   0  0  0  0  0  0  0  0  0  0  0  0
  184.1960  179.3730  141.4180 C   0  0  0  0  0  2  0  0  0  0  0  0
  185.3160  178.6670  142.1350 C   0  0  0  0  0  0  0  0  0  0  0  0
  186.8310  178.6280  140.1310 O   0  0  0  0  0  0  0  0  0  0  0  0
  188.7410  176.7740  144.0750 C   0  0  0  0  0  2  0  0  0  0  0  0
  190.5960  176.6230  142.1240 F   0  0  0  0  0  0  0  0  0  0  0  0
  188.2550  178.7660  137.5770 F   0  0  0  0  0  0  0  0  0  0  0  0
  187.6520  177.7750  142.0760 C   0  0  0  0  0  0  0  0  0  0  0  0
  188.1270  178.1850  139.8920 C   0  0  0  0  0  0  0  0  0  0  0  0
  191.3010  177.5700  148.3010 C   0  0  0  0  0  2  0  0  0  0  0  0
  192.1770  176.3610  147.9950 C   0  0  0  0  0  2  0  0  0  0  0  0
  193.1280  176.0940  149.1120 C   0  0  0  0  0  0  0  0  0  0  0  0
  193.9370  177.1120  149.5960 O   0  0  0  0  0  0  0  0  0  0  0  0
  193.1790  174.9500  149.6340 O   0  0  0  0  0  1  0  0  0  0  0  0
  2 23  1  0  0  0  0
  2 12  1  0  0  0  0
  3 11  1  0  0  0  0
  4  3  1  0  0  0  0
  5 26  1  0  0  0  0
  6  5  1  0  0  0  0
  6 24  1  0  0  0  0
  7 18  2  0  0  0  0
  7 16  1  0  0  0  0
  8 16  1  0  0  0  0
  9 27  1  0  0  0  0
 10  1  1  0  0  0  0
 12  8  1  0  0  0  0
 13 12  1  0  0  0  0
 13 11  1  0  0  0  0
 14 26  1  0  0  0  0
 14 21  1  0  0  0  0
 15  9  2  0  0  0  0
 15 17  1  0  0  0  0
 16 10  2  0  0  0  0
 17  6  2  0  0  0  0
 18 19  1  0  0  0  0
 19  1  2  0  0  0  0
 19 28  1  0  0  0  0
 20 21  1  0  0  0  0
 20  4  1  0  0  0  0
 21 13  2  0  0  0  0
 22 14  1  0  0  0  0
 23  7  1  0  0  0  0
 25  9  1  0  0  0  0
 26  2  2  0  0  0  0
 27 22  1  0  0  0  0
 27  5  2  0  0  0  0
 29 28  1  0  0  0  0
 29 30  1  0  0  0  0
 30 31  2  0  0  0  0
 30 32  1  0  0  0  0
M  END
>  <MODEL>
8

>  <REMARK>
 VINA RESULT:      -9.1      2.978      7.089
  Name = 
  3 active torsions:
  status: ('A' for Active; 'I' for Inactive)
    1  A    between atoms: C_1  and  C_10
    2  A    between atoms: C_10  and  C_19
    3  A    between atoms: C_19  and  C_24
                            x       y       z     vdW  Elec       q    Type
                         _______ _______ _______ _____ _____    ______ ____

>  <TORSDO>
F 3

$$$$
=
 OpenBabel11052416483D

 32 37  0  0  0  0  0  0  0  0999 V2000
  190.8240  177.0390  140.5760 C   0  0  0  0  0  3  0  0  0  0  0  0
  186.0020  178.4880  140.2790 C   0  0  0  0  0  0  0  0  0  0  0  0
  185.0030  176.6630  135.7730 N   0  0  0  0  0  2  0  0  0  0  0  0
  183.7030  177.3260  135.7730 C   0  0  0  0  0  2  0  0  0  0  0  0
  183.8980  178.6990  141.7610 C   0  0  0  0  0  0  0  0  0  0  0  0
  184.2110  179.0770  143.0750 C   0  0  0  0  0  0  0  0  0  0  0  0
  188.3310  178.2220  141.0490 C   0  0  0  0  0  0  0  0  0  0  0  0
  187.8570  178.3000  138.5780 C   0  0  0  0  0  2  0  0  0  0  0  0
  181.5250  178.6220  142.2790 C   0  0  0  0  0  0  0  0  0  0  0  0
  189.9870  177.3520  139.5010 C   0  0  0  0  0  3  0  0  0  0  0  0
  185.9440  177.5220  136.4910 C   0  0  0  0  0  2  0  0  0  0  0  0
  186.4410  178.1650  138.9310 N   0  0  0  0  0  0  0  0  0  0  0  0
  185.4840  177.7880  137.9060 C   0  0  0  0  0  0  0  0  0  0  0  0
  183.7700  178.0800  139.5310 N   0  0  0  0  0  0  0  0  0  0  0  0
  181.8220  179.0020  143.5960 C   0  0  0  0  0  3  0  0  0  0  0  0
  188.7400  177.9380  139.7330 C   0  0  0  0  0  0  0  0  0  0  0  0
  183.1540  179.2270  143.9900 C   0  0  0  0  0  3  0  0  0  0  0  0
  189.1760  177.9180  142.1190 C   0  0  0  0  0  3  0  0  0  0  0  0
  190.4200  177.3220  141.8860 C   0  0  0  0  0  0  0  0  0  0  0  0
  183.1340  177.3330  137.1900 C   0  0  0  0  0  2  0  0  0  0  0  0
  184.1650  177.7660  138.1970 C   0  0  0  0  0  0  0  0  0  0  0  0
  182.4960  178.1060  140.0440 O   0  0  0  0  0  0  0  0  0  0  0  0
  187.0160  178.8870  141.3100 C   0  0  0  0  0  2  0  0  0  0  0  0
  185.4800  179.2960  143.4870 F   0  0  0  0  0  0  0  0  0  0  0  0
  180.2450  178.4020  141.8920 F   0  0  0  0  0  0  0  0  0  0  0  0
  184.6920  178.4420  140.5460 C   0  0  0  0  0  0  0  0  0  0  0  0
  182.5790  178.4760  141.3820 C   0  0  0  0  0  0  0  0  0  0  0  0
  191.3070  176.9740  143.0350 C   0  0  0  0  0  2  0  0  0  0  0  0
  191.1710  177.9870  144.1640 C   0  0  0  0  0  2  0  0  0  0  0  0
  190.8770  177.3070  145.4590 C   0  0  0  0  0  0  0  0  0  0  0  0
  189.5750  176.9450  145.7740 O   0  0  0  0  0  0  0  0  0  0  0  0
  191.8130  177.0400  146.2550 O   0  0  0  0  0  1  0  0  0  0  0  0
  1 19  1  0  0  0  0
  2 26  2  0  0  0  0
  2 23  1  0  0  0  0
  3  4  1  0  0  0  0
  3 11  1  0  0  0  0
  4 20  1  0  0  0  0
  5  6  1  0  0  0  0
  6 24  1  0  0  0  0
  6 17  2  0  0  0  0
  7 23  1  0  0  0  0
  7 18  1  0  0  0  0
  8 12  1  0  0  0  0
  8 16  1  0  0  0  0
  9 15  2  0  0  0  0
 10 16  1  0  0  0  0
 10  1  2  0  0  0  0
 11 13  1  0  0  0  0
 12  2  1  0  0  0  0
 13 21  2  0  0  0  0
 13 12  1  0  0  0  0
 14 22  1  0  0  0  0
 14 26  1  0  0  0  0
 15 17  1  0  0  0  0
 16  7  2  0  0  0  0
 19 18  2  0  0  0  0
 19 28  1  0  0  0  0
 20 21  1  0  0  0  0
 21 14  1  0  0  0  0
 22 27  1  0  0  0  0
 25  9  1  0  0  0  0
 26  5  1  0  0  0  0
 27  5  2  0  0  0  0
 27  9  1  0  0  0  0
 28 29  1  0  0  0  0
 29 30  1  0  0  0  0
 30 31  2  0  0  0  0
 30 32  1  0  0  0  0
M  END
>  <MODEL>
9

>  <REMARK>
 VINA RESULT:      -8.9      3.654      6.623
  Name = 
  3 active torsions:
  status: ('A' for Active; 'I' for Inactive)
    1  A    between atoms: C_1  and  C_10
    2  A    between atoms: C_10  and  C_19
    3  A    between atoms: C_19  and  C_24
                            x       y       z     vdW  Elec       q    Type
                         _______ _______ _______ _____ _____    ______ ____

>  <TORSDO>
F 3

$$$$
