=
 OpenBabel11052416413D

 43 47  0  0  1  0  0  0  0  0999 V2000
  191.4020  176.6380  139.0300 N   0  0  0  0  0  0  0  0  0  0  0  0
  192.7730  176.6630  138.5870 C   0  0  0  0  0  0  0  0  0  0  0  0
  193.6310  177.3170  139.2410 O   0  0  0  0  0  0  0  0  0  0  0  0
  186.6080  177.0260  136.9230 C   0  0  0  0  0  0  0  0  0  0  0  0
  188.4850  175.5720  137.2370 C   0  0  0  0  0  0  0  0  0  0  0  0
  187.2940  178.0410  137.6260 C   0  0  0  0  0  3  0  0  0  0  0  0
  185.2430  177.2870  136.3980 C   0  0  0  0  0  1  0  0  0  0  0  0
  189.1560  176.5630  137.8980 C   0  0  0  0  0  0  0  0  0  0  0  0
  187.2030  175.7650  136.7270 C   0  0  0  0  0  3  0  0  0  0  0  0
  188.5870  177.8130  138.1310 C   0  0  0  0  0  3  0  0  0  0  0  0
  190.3580  176.0080  138.2750 C   0  0  0  0  0  0  0  0  0  0  0  0
  190.3980  174.7500  137.8770 O   0  0  0  0  0  0  0  0  0  0  0  0
  189.2810  174.4450  137.2350 C   0  0  0  0  0  3  0  0  0  0  0  0
  193.2250  175.8290  137.4230 C   0  0  0  0  0  2  0  0  0  0  0  0
  196.6480  174.9000  136.2940 C   0  0  0  0  0  2  0  0  0  0  0  0
  196.8300  173.6000  137.0810 C   0  0  0  0  0  0  0  0  0  0  0  0
  198.3030  173.4130  137.3740 C   0  0  0  0  0  1  0  0  0  0  0  0
  194.6300  174.1310  138.2020 C   0  0  0  0  0  2  0  0  0  0  0  0
  195.1730  175.2950  136.2160 C   0  0  0  0  0  2  0  0  0  0  0  0
  194.6220  175.4440  137.5630 N   0  0  0  0  0  0  0  0  0  0  0  0
  196.3510  172.4160  136.2560 C   0  0  0  0  0  1  0  0  0  0  0  0
  196.0700  173.6590  138.4110 C   0  0  0  0  0  2  0  0  0  0  0  0
  191.0610  177.1420  140.3570 C   0  0  0  0  0  2  0  0  0  0  0  0
  190.5010  176.1120  141.1370 O   0  0  0  0  0  0  0  0  0  0  0  0
  189.9530  176.6570  142.3210 C   0  0  2  0  0  3  0  0  0  0  0  0
  189.2370  177.9840  142.0910 C   0  0  0  0  0  1  0  0  0  0  0  0
  190.9580  176.7490  143.4710 C   0  0  0  0  0  2  0  0  0  0  0  0
  190.0890  178.3000  145.2910 N   0  0  0  0  0  2  0  0  0  0  0  0
  190.9300  178.0840  144.1560 C   0  0  0  0  0  0  0  0  0  0  0  0
  191.6050  179.0460  143.7040 O   0  0  0  0  0  0  0  0  0  0  0  0
  189.1690  177.2920  145.8040 C   0  0  1  0  0  3  0  0  0  0  0  0
  187.1430  177.9840  147.2450 C   0  0  0  0  0  2  0  0  0  0  0  0
  189.6400  176.8010  147.1740 C   0  0  0  0  0  2  0  0  0  0  0  0
  189.4770  177.8720  148.2610 C   0  0  0  0  0  2  0  0  0  0  0  0
  187.7320  177.8530  145.8370 C   0  0  2  0  0  3  0  0  0  0  0  0
  188.1550  178.6490  148.1720 C   0  0  0  0  0  2  0  0  0  0  0  0
  186.7920  177.0980  144.8960 C   0  0  0  0  0  2  0  0  0  0  0  0
  185.6190  177.9150  144.4570 C   0  0  0  0  0  0  0  0  0  0  0  0
  183.4150  179.4260  143.6240 C   0  0  0  0  0  3  0  0  0  0  0  0
  184.3550  178.9870  142.6880 C   0  0  0  0  0  3  0  0  0  0  0  0
  183.5760  179.1120  144.9770 C   0  0  0  0  0  3  0  0  0  0  0  0
  185.4560  178.2320  143.1020 C   0  0  0  0  0  3  0  0  0  0  0  0
  184.6770  178.3570  145.3930 C   0  0  0  0  0  3  0  0  0  0  0  0
  1 23  1  0  0  0  0
  2  1  1  0  0  0  0
  2  3  2  0  0  0  0
  4  6  1  0  0  0  0
  5  8  1  0  0  0  0
  6 10  2  0  0  0  0
  7  4  1  0  0  0  0
  8 10  1  0  0  0  0
  8 11  2  0  0  0  0
  9  4  2  0  0  0  0
  9  5  1  0  0  0  0
 11  1  1  0  0  0  0
 12 11  1  0  0  0  0
 13  5  2  0  0  0  0
 13 12  1  0  0  0  0
 14 20  1  0  0  0  0
 14  2  1  0  0  0  0
 15 16  1  0  0  0  0
 16 17  1  0  0  0  0
 16 22  1  0  0  0  0
 18 22  1  0  0  0  0
 19 15  1  0  0  0  0
 19 20  1  0  0  0  0
 20 18  1  0  0  0  0
 21 16  1  0  0  0  0
 23 24  1  0  0  0  0
 24 25  1  0  0  0  0
 25 26  1  6  0  0  0
 25 27  1  0  0  0  0
 27 29  1  0  0  0  0
 29 28  1  0  0  0  0
 30 29  2  0  0  0  0
 31 28  1  1  0  0  0
 31 35  1  0  0  0  0
 31 33  1  0  0  0  0
 32 36  1  0  0  0  0
 33 34  1  0  0  0  0
 35 37  1  6  0  0  0
 35 32  1  0  0  0  0
 36 34  1  0  0  0  0
 38 37  1  0  0  0  0
 38 43  1  0  0  0  0
 39 41  1  0  0  0  0
 40 42  1  0  0  0  0
 40 39  2  0  0  0  0
 41 43  2  0  0  0  0
 42 38  2  0  0  0  0
M  END
>  <MODEL>
1

>  <REMARK>
 VINA RESULT:     -10.2      0.000      0.000
  Name = 
  11 active torsions:
  status: ('A' for Active; 'I' for Inactive)
    1  A    between atoms: C_1  and  C_34
    2  A    between atoms: C_1  and  N_35
    3  A    between atoms: C_2  and  C_6
    4  A    between atoms: C_2  and  O_13
    5  A    between atoms: N_3  and  C_4
    6  A    between atoms: C_6  and  C_12
    7  A    between atoms: N_8  and  C_27
    8  A    between atoms: N_8  and  C_30
    9  A    between atoms: C_11  and  C_14
   10  A    between atoms: O_13  and  C_27
   11  A    between atoms: C_14  and  C_41
                            x       y       z     vdW  Elec       q    Type
                         _______ _______ _______ _____ _____    ______ ____

>  <TORSDO>
F 11

$$$$
=
 OpenBabel11052416413D

 43 47  0  0  1  0  0  0  0  0999 V2000
  190.2970  177.0240  138.8030 N   0  0  0  0  0  0  0  0  0  0  0  0
  189.4570  178.0380  138.2160 C   0  0  0  0  0  0  0  0  0  0  0  0
  189.0600  179.0070  138.9180 O   0  0  0  0  0  0  0  0  0  0  0  0
  194.0390  174.5280  136.0950 C   0  0  0  0  0  0  0  0  0  0  0  0
  191.7990  174.3640  136.9240 C   0  0  0  0  0  0  0  0  0  0  0  0
  194.1480  175.8090  136.6810 C   0  0  0  0  0  3  0  0  0  0  0  0
  195.1880  173.9620  135.3430 C   0  0  0  0  0  1  0  0  0  0  0  0
  191.9130  175.5950  137.5100 C   0  0  0  0  0  0  0  0  0  0  0  0
  192.8450  173.7900  136.2070 C   0  0  0  0  0  3  0  0  0  0  0  0
  193.0710  176.3620  137.3960 C   0  0  0  0  0  3  0  0  0  0  0  0
  190.6920  175.8420  138.0940 C   0  0  0  0  0  0  0  0  0  0  0  0
  189.8850  174.8240  137.8590 O   0  0  0  0  0  0  0  0  0  0  0  0
  190.5200  173.8990  137.1550 C   0  0  0  0  0  3  0  0  0  0  0  0
  189.1400  178.0230  136.7480 C   0  0  0  0  0  2  0  0  0  0  0  0
  185.6000  176.9490  137.1580 C   0  0  0  0  0  2  0  0  0  0  0  0
  185.2300  176.7340  135.6880 C   0  0  0  0  0  0  0  0  0  0  0  0
  183.7490  176.9990  135.5170 C   0  0  0  0  0  1  0  0  0  0  0  0
  187.5000  177.6820  135.1190 C   0  0  0  0  0  2  0  0  0  0  0  0
  187.1170  176.9800  137.3440 C   0  0  0  0  0  2  0  0  0  0  0  0
  187.7020  178.0370  136.5200 N   0  0  0  0  0  0  0  0  0  0  0  0
  185.5080  175.2950  135.2820 C   0  0  0  0  0  1  0  0  0  0  0  0
  186.0070  177.6970  134.7850 C   0  0  0  0  0  2  0  0  0  0  0  0
  190.8950  177.2510  140.1160 C   0  0  0  0  0  2  0  0  0  0  0  0
  190.3260  176.3790  141.0640 O   0  0  0  0  0  0  0  0  0  0  0  0
  190.7160  176.7750  142.3650 C   0  0  2  0  0  3  0  0  0  0  0  0
  191.0150  175.5940  143.2830 C   0  0  0  0  0  1  0  0  0  0  0  0
  189.7480  177.7660  143.0150 C   0  0  0  0  0  2  0  0  0  0  0  0
  190.1080  178.2860  145.4800 N   0  0  0  0  0  2  0  0  0  0  0  0
  190.3930  178.5670  144.1080 C   0  0  0  0  0  0  0  0  0  0  0  0
  191.1490  179.5340  143.8270 O   0  0  0  0  0  0  0  0  0  0  0  0
  189.1430  177.2790  145.9020 C   0  0  1  0  0  3  0  0  0  0  0  0
  187.0280  177.9650  147.2120 C   0  0  0  0  0  2  0  0  0  0  0  0
  189.5090  176.7510  147.2910 C   0  0  0  0  0  2  0  0  0  0  0  0
  189.2820  177.8000  148.3880 C   0  0  0  0  0  2  0  0  0  0  0  0
  187.7140  177.8580  145.8470 C   0  0  2  0  0  3  0  0  0  0  0  0
  187.9790  178.5960  148.2240 C   0  0  0  0  0  2  0  0  0  0  0  0
  186.8340  177.1360  144.8240 C   0  0  0  0  0  2  0  0  0  0  0  0
  185.6310  177.9280  144.4220 C   0  0  0  0  0  0  0  0  0  0  0  0
  183.3710  179.3920  143.6580 C   0  0  0  0  0  3  0  0  0  0  0  0
  184.2920  178.9750  142.6930 C   0  0  0  0  0  3  0  0  0  0  0  0
  183.5780  179.0780  145.0050 C   0  0  0  0  0  3  0  0  0  0  0  0
  185.4210  178.2440  143.0730 C   0  0  0  0  0  3  0  0  0  0  0  0
  184.7070  178.3470  145.3860 C   0  0  0  0  0  3  0  0  0  0  0  0
  1 23  1  0  0  0  0
  2  1  1  0  0  0  0
  2  3  2  0  0  0  0
  4  9  2  0  0  0  0
  4  6  1  0  0  0  0
  5 13  2  0  0  0  0
  5  8  1  0  0  0  0
  6 10  2  0  0  0  0
  7  4  1  0  0  0  0
  8 11  2  0  0  0  0
  9  5  1  0  0  0  0
 10  8  1  0  0  0  0
 11  1  1  0  0  0  0
 12 11  1  0  0  0  0
 13 12  1  0  0  0  0
 14  2  1  0  0  0  0
 15 19  1  0  0  0  0
 16 15  1  0  0  0  0
 17 16  1  0  0  0  0
 18 20  1  0  0  0  0
 20 14  1  0  0  0  0
 20 19  1  0  0  0  0
 21 16  1  0  0  0  0
 22 18  1  0  0  0  0
 22 16  1  0  0  0  0
 23 24  1  0  0  0  0
 24 25  1  0  0  0  0
 25 27  1  0  0  0  0
 25 26  1  1  0  0  0
 27 29  1  0  0  0  0
 29 28  1  0  0  0  0
 30 29  2  0  0  0  0
 31 28  1  1  0  0  0
 31 33  1  0  0  0  0
 32 36  1  0  0  0  0
 33 34  1  0  0  0  0
 35 37  1  6  0  0  0
 35 31  1  0  0  0  0
 35 32  1  0  0  0  0
 36 34  1  0  0  0  0
 38 37  1  0  0  0  0
 38 43  1  0  0  0  0
 39 41  1  0  0  0  0
 40 42  1  0  0  0  0
 40 39  2  0  0  0  0
 41 43  2  0  0  0  0
 42 38  2  0  0  0  0
M  END
>  <MODEL>
2

>  <REMARK>
 VINA RESULT:     -10.1      1.559      5.583
  Name = 
  11 active torsions:
  status: ('A' for Active; 'I' for Inactive)
    1  A    between atoms: C_1  and  C_34
    2  A    between atoms: C_1  and  N_35
    3  A    between atoms: C_2  and  C_6
    4  A    between atoms: C_2  and  O_13
    5  A    between atoms: N_3  and  C_4
    6  A    between atoms: C_6  and  C_12
    7  A    between atoms: N_8  and  C_27
    8  A    between atoms: N_8  and  C_30
    9  A    between atoms: C_11  and  C_14
   10  A    between atoms: O_13  and  C_27
   11  A    between atoms: C_14  and  C_41
                            x       y       z     vdW  Elec       q    Type
                         _______ _______ _______ _____ _____    ______ ____

>  <TORSDO>
F 11

$$$$
=
 OpenBabel11052416413D

 43 47  0  0  1  0  0  0  0  0999 V2000
  188.4340  177.6520  137.8130 N   0  0  0  0  0  0  0  0  0  0  0  0
  188.9220  177.9510  139.1360 C   0  0  0  0  0  0  0  0  0  0  0  0
  188.4310  178.9180  139.7810 O   0  0  0  0  0  0  0  0  0  0  0  0
  188.2300  172.7160  136.0360 C   0  0  0  0  0  0  0  0  0  0  0  0
  189.4660  174.7640  135.9540 C   0  0  0  0  0  0  0  0  0  0  0  0
  187.3040  173.3250  136.9120 C   0  0  0  0  0  3  0  0  0  0  0  0
  188.0410  171.2980  135.6360 C   0  0  0  0  0  1  0  0  0  0  0  0
  188.5580  175.3590  136.7840 C   0  0  0  0  0  0  0  0  0  0  0  0
  189.3360  173.4380  135.5500 C   0  0  0  0  0  3  0  0  0  0  0  0
  187.4660  174.6660  137.3030 C   0  0  0  0  0  3  0  0  0  0  0  0
  189.0210  176.6400  136.9840 C   0  0  0  0  0  0  0  0  0  0  0  0
  190.1530  176.7980  136.3240 O   0  0  0  0  0  0  0  0  0  0  0  0
  190.4580  175.6830  135.6770 C   0  0  0  0  0  3  0  0  0  0  0  0
  189.9240  177.0590  139.8100 C   0  0  0  0  0  2  0  0  0  0  0  0
  191.7150  177.7980  142.9880 C   0  0  0  0  0  2  0  0  0  0  0  0
  191.0120  176.8010  143.9120 C   0  0  0  0  0  0  0  0  0  0  0  0
  191.0140  177.3600  145.3190 C   0  0  0  0  0  1  0  0  0  0  0  0
  189.4760  176.2960  141.9730 C   0  0  0  0  0  2  0  0  0  0  0  0
  191.4980  177.4360  141.5190 C   0  0  0  0  0  2  0  0  0  0  0  0
  190.0670  177.3970  141.2190 N   0  0  0  0  0  0  0  0  0  0  0  0
  191.7610  175.4770  143.9220 C   0  0  0  0  0  1  0  0  0  0  0  0
  189.5610  176.5830  143.4740 C   0  0  0  0  0  2  0  0  0  0  0  0
  187.2130  178.2910  137.3300 C   0  0  0  0  0  2  0  0  0  0  0  0
  186.1830  178.1470  138.2800 O   0  0  0  0  0  0  0  0  0  0  0  0
  185.1240  177.3940  137.7200 C   0  0  2  0  0  3  0  0  0  0  0  0
  185.1880  177.3150  136.1990 C   0  0  0  0  0  1  0  0  0  0  0  0
  183.7430  177.8340  138.2080 C   0  0  0  0  0  2  0  0  0  0  0  0
  182.5650  177.2100  140.3760 N   0  0  0  0  0  2  0  0  0  0  0  0
  183.1010  176.8200  139.1110 C   0  0  0  0  0  0  0  0  0  0  0  0
  183.0800  175.6030  138.7870 O   0  0  0  0  0  0  0  0  0  0  0  0
  182.6650  178.5670  140.8990 C   0  0  1  0  0  3  0  0  0  0  0  0
  182.0580  179.0690  143.3560 C   0  0  0  0  0  2  0  0  0  0  0  0
  181.3400  179.3060  140.6990 C   0  0  0  0  0  2  0  0  0  0  0  0
  180.2300  178.7630  141.6080 C   0  0  0  0  0  2  0  0  0  0  0  0
  183.1070  178.5350  142.3770 C   0  0  2  0  0  3  0  0  0  0  0  0
  180.6950  178.4620  143.0400 C   0  0  0  0  0  2  0  0  0  0  0  0
  184.4710  179.1950  142.5900 C   0  0  0  0  0  2  0  0  0  0  0  0
  185.1430  178.7600  143.8530 C   0  0  0  0  0  0  0  0  0  0  0  0
  186.3810  177.9370  146.2240 C   0  0  0  0  0  3  0  0  0  0  0  0
  185.4610  178.9880  146.2450 C   0  0  0  0  0  3  0  0  0  0  0  0
  186.6840  177.2960  145.0190 C   0  0  0  0  0  3  0  0  0  0  0  0
  184.8420  179.4000  145.0610 C   0  0  0  0  0  3  0  0  0  0  0  0
  186.0660  177.7080  143.8340 C   0  0  0  0  0  3  0  0  0  0  0  0
  1  2  1  0  0  0  0
  2  3  2  0  0  0  0
  2 14  1  0  0  0  0
  4  6  1  0  0  0  0
  5  8  1  0  0  0  0
  6 10  2  0  0  0  0
  7  4  1  0  0  0  0
  8 11  2  0  0  0  0
  8 10  1  0  0  0  0
  9  5  1  0  0  0  0
  9  4  2  0  0  0  0
 11  1  1  0  0  0  0
 12 11  1  0  0  0  0
 13  5  2  0  0  0  0
 13 12  1  0  0  0  0
 14 20  1  0  0  0  0
 15 16  1  0  0  0  0
 16 21  1  0  0  0  0
 16 17  1  0  0  0  0
 18 22  1  0  0  0  0
 19 15  1  0  0  0  0
 20 19  1  0  0  0  0
 20 18  1  0  0  0  0
 22 16  1  0  0  0  0
 23  1  1  0  0  0  0
 23 24  1  0  0  0  0
 25 26  1  6  0  0  0
 25 27  1  0  0  0  0
 25 24  1  0  0  0  0
 27 29  1  0  0  0  0
 29 28  1  0  0  0  0
 30 29  2  0  0  0  0
 31 28  1  1  0  0  0
 31 35  1  0  0  0  0
 33 31  1  0  0  0  0
 33 34  1  0  0  0  0
 34 36  1  0  0  0  0
 35 37  1  6  0  0  0
 35 32  1  0  0  0  0
 36 32  1  0  0  0  0
 37 38  1  0  0  0  0
 38 42  1  0  0  0  0
 39 40  1  0  0  0  0
 41 39  2  0  0  0  0
 42 40  2  0  0  0  0
 43 38  2  0  0  0  0
 43 41  1  0  0  0  0
M  END
>  <MODEL>
3

>  <REMARK>
 VINA RESULT:      -9.3      3.410      6.584
  Name = 
  11 active torsions:
  status: ('A' for Active; 'I' for Inactive)
    1  A    between atoms: C_1  and  C_34
    2  A    between atoms: C_1  and  N_35
    3  A    between atoms: C_2  and  C_6
    4  A    between atoms: C_2  and  O_13
    5  A    between atoms: N_3  and  C_4
    6  A    between atoms: C_6  and  C_12
    7  A    between atoms: N_8  and  C_27
    8  A    between atoms: N_8  and  C_30
    9  A    between atoms: C_11  and  C_14
   10  A    between atoms: O_13  and  C_27
   11  A    between atoms: C_14  and  C_41
                            x       y       z     vdW  Elec       q    Type
                         _______ _______ _______ _____ _____    ______ ____

>  <TORSDO>
F 11

$$$$
=
 OpenBabel11052416413D

 43 47  0  0  1  0  0  0  0  0999 V2000
  188.9710  177.2740  138.3900 N   0  0  0  0  0  0  0  0  0  0  0  0
  189.2170  177.7980  139.7110 C   0  0  0  0  0  0  0  0  0  0  0  0
  188.7220  178.9090  140.0460 O   0  0  0  0  0  0  0  0  0  0  0  0
  193.4200  174.7940  137.1160 C   0  0  0  0  0  0  0  0  0  0  0  0
  191.0370  174.5850  137.2240 C   0  0  0  0  0  0  0  0  0  0  0  0
  193.3140  176.1060  137.6300 C   0  0  0  0  0  3  0  0  0  0  0  0
  194.7570  174.2370  136.7880 C   0  0  0  0  0  1  0  0  0  0  0  0
  190.9380  175.8460  137.7430 C   0  0  0  0  0  0  0  0  0  0  0  0
  192.2660  174.0170  136.8990 C   0  0  0  0  0  3  0  0  0  0  0  0
  192.0570  176.6510  137.9460 C   0  0  0  0  0  3  0  0  0  0  0  0
  189.5910  176.0750  137.9080 C   0  0  0  0  0  0  0  0  0  0  0  0
  188.9190  175.0170  137.4960 O   0  0  0  0  0  0  0  0  0  0  0  0
  189.7600  174.0830  137.0770 C   0  0  0  0  0  3  0  0  0  0  0  0
  189.9560  176.9900  140.7380 C   0  0  0  0  0  2  0  0  0  0  0  0
  190.3950  178.5920  144.0680 C   0  0  0  0  0  2  0  0  0  0  0  0
  190.0460  177.4040  144.9680 C   0  0  0  0  0  0  0  0  0  0  0  0
  189.4570  177.9310  146.2600 C   0  0  0  0  0  1  0  0  0  0  0  0
  189.4250  176.1630  142.8580 C   0  0  0  0  0  2  0  0  0  0  0  0
  190.7220  178.1300  142.6480 C   0  0  0  0  0  2  0  0  0  0  0  0
  189.5900  177.3920  142.0880 N   0  0  0  0  0  0  0  0  0  0  0  0
  191.3010  176.6130  145.3020 C   0  0  0  0  0  1  0  0  0  0  0  0
  189.0130  176.4960  144.2940 C   0  0  0  0  0  2  0  0  0  0  0  0
  187.9520  177.8900  137.5460 C   0  0  0  0  0  2  0  0  0  0  0  0
  186.6670  177.5150  137.9850 O   0  0  0  0  0  0  0  0  0  0  0  0
  185.9620  176.9050  136.9210 C   0  0  2  0  0  3  0  0  0  0  0  0
  186.4850  177.3130  135.5480 C   0  0  0  0  0  1  0  0  0  0  0  0
  184.4450  177.0740  137.0220 C   0  0  0  0  0  2  0  0  0  0  0  0
  183.0620  176.5500  139.0930 N   0  0  0  0  0  2  0  0  0  0  0  0
  183.8190  176.0930  137.9710 C   0  0  0  0  0  0  0  0  0  0  0  0
  184.0010  174.8560  137.8190 O   0  0  0  0  0  0  0  0  0  0  0  0
  182.9110  177.9590  139.4320 C   0  0  1  0  0  3  0  0  0  0  0  0
  181.6660  178.6620  141.5790 C   0  0  0  0  0  2  0  0  0  0  0  0
  181.6200  178.5100  138.8210 C   0  0  0  0  0  2  0  0  0  0  0  0
  180.3680  177.9470  139.5070 C   0  0  0  0  0  2  0  0  0  0  0  0
  182.9690  178.1480  140.9620 C   0  0  2  0  0  3  0  0  0  0  0  0
  180.4830  177.8670  141.0360 C   0  0  0  0  0  2  0  0  0  0  0  0
  184.1740  178.9830  141.3980 C   0  0  0  0  0  2  0  0  0  0  0  0
  184.5570  178.7600  142.8270 C   0  0  0  0  0  0  0  0  0  0  0  0
  185.2570  178.3270  145.5020 C   0  0  0  0  0  3  0  0  0  0  0  0
  184.0630  178.9820  145.1890 C   0  0  0  0  0  3  0  0  0  0  0  0
  186.1020  177.8870  144.4780 C   0  0  0  0  0  3  0  0  0  0  0  0
  183.7120  179.1990  143.8540 C   0  0  0  0  0  3  0  0  0  0  0  0
  185.7530  178.1040  143.1420 C   0  0  0  0  0  3  0  0  0  0  0  0
  1  2  1  0  0  0  0
  2  3  2  0  0  0  0
  2 14  1  0  0  0  0
  4  6  1  0  0  0  0
  5  8  1  0  0  0  0
  6 10  2  0  0  0  0
  7  4  1  0  0  0  0
  8 11  2  0  0  0  0
  8 10  1  0  0  0  0
  9  4  2  0  0  0  0
  9  5  1  0  0  0  0
 11  1  1  0  0  0  0
 12 11  1  0  0  0  0
 13  5  2  0  0  0  0
 13 12  1  0  0  0  0
 14 20  1  0  0  0  0
 15 16  1  0  0  0  0
 16 21  1  0  0  0  0
 16 17  1  0  0  0  0
 18 22  1  0  0  0  0
 19 15  1  0  0  0  0
 20 19  1  0  0  0  0
 20 18  1  0  0  0  0
 22 16  1  0  0  0  0
 23 24  1  0  0  0  0
 23  1  1  0  0  0  0
 25 26  1  6  0  0  0
 25 27  1  0  0  0  0
 25 24  1  0  0  0  0
 27 29  1  0  0  0  0
 29 28  1  0  0  0  0
 30 29  2  0  0  0  0
 31 28  1  1  0  0  0
 31 35  1  0  0  0  0
 33 31  1  0  0  0  0
 33 34  1  0  0  0  0
 34 36  1  0  0  0  0
 35 37  1  6  0  0  0
 35 32  1  0  0  0  0
 36 32  1  0  0  0  0
 37 38  1  0  0  0  0
 38 43  2  0  0  0  0
 38 42  1  0  0  0  0
 40 39  1  0  0  0  0
 41 39  2  0  0  0  0
 42 40  2  0  0  0  0
 43 41  1  0  0  0  0
M  END
>  <MODEL>
4

>  <REMARK>
 VINA RESULT:      -9.3      2.639      7.311
  Name = 
  11 active torsions:
  status: ('A' for Active; 'I' for Inactive)
    1  A    between atoms: C_1  and  C_34
    2  A    between atoms: C_1  and  N_35
    3  A    between atoms: C_2  and  C_6
    4  A    between atoms: C_2  and  O_13
    5  A    between atoms: N_3  and  C_4
    6  A    between atoms: C_6  and  C_12
    7  A    between atoms: N_8  and  C_27
    8  A    between atoms: N_8  and  C_30
    9  A    between atoms: C_11  and  C_14
   10  A    between atoms: O_13  and  C_27
   11  A    between atoms: C_14  and  C_41
                            x       y       z     vdW  Elec       q    Type
                         _______ _______ _______ _____ _____    ______ ____

>  <TORSDO>
F 11

$$$$
=
 OpenBabel11052416413D

 43 47  0  0  1  0  0  0  0  0999 V2000
  187.6400  178.1800  138.7190 N   0  0  0  0  0  0  0  0  0  0  0  0
  188.7650  178.4650  137.8630 C   0  0  0  0  0  0  0  0  0  0  0  0
  189.8040  178.9900  138.3490 O   0  0  0  0  0  0  0  0  0  0  0  0
  182.4330  178.7890  138.4290 C   0  0  0  0  0  0  0  0  0  0  0  0
  184.2710  177.4070  137.7630 C   0  0  0  0  0  0  0  0  0  0  0  0
  183.3370  179.6470  139.0940 C   0  0  0  0  0  3  0  0  0  0  0  0
  180.9790  179.0910  138.4520 C   0  0  0  0  0  1  0  0  0  0  0  0
  185.1470  178.2500  138.3890 C   0  0  0  0  0  0  0  0  0  0  0  0
  182.8990  177.6440  137.7560 C   0  0  0  0  0  3  0  0  0  0  0  0
  184.7170  179.3780  139.0850 C   0  0  0  0  0  3  0  0  0  0  0  0
  186.3910  177.6880  138.2140 C   0  0  0  0  0  0  0  0  0  0  0  0
  186.2670  176.5640  137.5350 O   0  0  0  0  0  0  0  0  0  0  0  0
  184.9940  176.3560  137.2340 C   0  0  0  0  0  3  0  0  0  0  0  0
  188.7680  178.0420  136.4230 C   0  0  0  0  0  2  0  0  0  0  0  0
  190.2970  175.1110  134.7130 C   0  0  0  0  0  2  0  0  0  0  0  0
  190.4810  174.1840  135.9170 C   0  0  0  0  0  0  0  0  0  0  0  0
  191.6740  173.2880  135.6610 C   0  0  0  0  0  1  0  0  0  0  0  0
  189.7130  176.1160  137.3500 C   0  0  0  0  0  2  0  0  0  0  0  0
  189.2980  176.2260  135.0240 C   0  0  0  0  0  2  0  0  0  0  0  0
  189.7490  176.9940  136.1840 N   0  0  0  0  0  0  0  0  0  0  0  0
  189.2520  173.3050  136.0940 C   0  0  0  0  0  1  0  0  0  0  0  0
  190.7400  174.9920  137.1910 C   0  0  0  0  0  2  0  0  0  0  0  0
  187.7960  178.2530  140.1680 C   0  0  0  0  0  2  0  0  0  0  0  0
  188.5400  177.1500  140.6310 O   0  0  0  0  0  0  0  0  0  0  0  0
  189.5850  177.6010  141.4700 C   0  0  2  0  0  3  0  0  0  0  0  0
  190.9560  177.0860  141.0440 C   0  0  0  0  0  1  0  0  0  0  0  0
  189.3230  177.3510  142.9560 C   0  0  0  0  0  2  0  0  0  0  0  0
  189.9170  178.2530  145.2600 N   0  0  0  0  0  2  0  0  0  0  0  0
  190.0030  178.3580  143.8380 C   0  0  0  0  0  0  0  0  0  0  0  0
  190.6110  179.3380  143.3330 O   0  0  0  0  0  0  0  0  0  0  0  0
  189.1230  177.2350  145.9380 C   0  0  1  0  0  3  0  0  0  0  0  0
  187.3850  177.9060  147.7220 C   0  0  0  0  0  2  0  0  0  0  0  0
  189.8450  176.7620  147.2010 C   0  0  0  0  0  2  0  0  0  0  0  0
  189.8660  177.8390  148.2940 C   0  0  0  0  0  2  0  0  0  0  0  0
  187.7080  177.7740  146.2310 C   0  0  2  0  0  3  0  0  0  0  0  0
  188.5380  178.5940  148.4460 C   0  0  0  0  0  2  0  0  0  0  0  0
  186.6240  176.9970  145.4820 C   0  0  0  0  0  2  0  0  0  0  0  0
  185.6790  177.8810  144.7330 C   0  0  0  0  0  0  0  0  0  0  0  0
  183.9190  179.5550  143.3410 C   0  0  0  0  0  3  0  0  0  0  0  0
  183.7700  179.3750  144.7190 C   0  0  0  0  0  3  0  0  0  0  0  0
  184.9480  178.8990  142.6570 C   0  0  0  0  0  3  0  0  0  0  0  0
  184.6470  178.5390  145.4150 C   0  0  0  0  0  3  0  0  0  0  0  0
  185.8270  178.0630  143.3530 C   0  0  0  0  0  3  0  0  0  0  0  0
  1 23  1  0  0  0  0
  2  3  2  0  0  0  0
  2  1  1  0  0  0  0
  4  7  1  0  0  0  0
  4  6  1  0  0  0  0
  5  8  1  0  0  0  0
  8 10  1  0  0  0  0
  9  5  1  0  0  0  0
  9  4  2  0  0  0  0
 10  6  2  0  0  0  0
 11  8  2  0  0  0  0
 11  1  1  0  0  0  0
 12 11  1  0  0  0  0
 13 12  1  0  0  0  0
 13  5  2  0  0  0  0
 14  2  1  0  0  0  0
 15 19  1  0  0  0  0
 15 16  1  0  0  0  0
 16 21  1  0  0  0  0
 16 22  1  0  0  0  0
 17 16  1  0  0  0  0
 19 20  1  0  0  0  0
 20 14  1  0  0  0  0
 20 18  1  0  0  0  0
 22 18  1  0  0  0  0
 23 24  1  0  0  0  0
 24 25  1  0  0  0  0
 25 26  1  6  0  0  0
 25 27  1  0  0  0  0
 27 29  1  0  0  0  0
 29 28  1  0  0  0  0
 30 29  2  0  0  0  0
 31 28  1  1  0  0  0
 31 35  1  0  0  0  0
 31 33  1  0  0  0  0
 32 36  1  0  0  0  0
 33 34  1  0  0  0  0
 34 36  1  0  0  0  0
 35 37  1  1  0  0  0
 35 32  1  0  0  0  0
 38 42  1  0  0  0  0
 38 37  1  0  0  0  0
 39 40  1  0  0  0  0
 40 42  2  0  0  0  0
 41 39  2  0  0  0  0
 41 43  1  0  0  0  0
 43 38  2  0  0  0  0
M  END
>  <MODEL>
5

>  <REMARK>
 VINA RESULT:      -9.1      2.680      3.904
  Name = 
  11 active torsions:
  status: ('A' for Active; 'I' for Inactive)
    1  A    between atoms: C_1  and  C_34
    2  A    between atoms: C_1  and  N_35
    3  A    between atoms: C_2  and  C_6
    4  A    between atoms: C_2  and  O_13
    5  A    between atoms: N_3  and  C_4
    6  A    between atoms: C_6  and  C_12
    7  A    between atoms: N_8  and  C_27
    8  A    between atoms: N_8  and  C_30
    9  A    between atoms: C_11  and  C_14
   10  A    between atoms: O_13  and  C_27
   11  A    between atoms: C_14  and  C_41
                            x       y       z     vdW  Elec       q    Type
                         _______ _______ _______ _____ _____    ______ ____

>  <TORSDO>
F 11

$$$$
=
 OpenBabel11052416413D

 43 47  0  0  1  0  0  0  0  0999 V2000
  188.1050  177.9370  138.1600 N   0  0  0  0  0  0  0  0  0  0  0  0
  186.6750  178.1030  138.2280 C   0  0  0  0  0  0  0  0  0  0  0  0
  186.1340  178.4430  139.3160 O   0  0  0  0  0  0  0  0  0  0  0  0
  190.6350  173.9640  135.8410 C   0  0  0  0  0  0  0  0  0  0  0  0
  189.8680  176.2140  135.5560 C   0  0  0  0  0  0  0  0  0  0  0  0
  190.0810  173.9540  137.1400 C   0  0  0  0  0  3  0  0  0  0  0  0
  191.3380  172.7590  135.3310 C   0  0  0  0  0  1  0  0  0  0  0  0
  189.3120  176.1950  136.8050 C   0  0  0  0  0  0  0  0  0  0  0  0
  190.5380  175.1120  135.0320 C   0  0  0  0  0  3  0  0  0  0  0  0
  189.4120  175.0850  137.6410 C   0  0  0  0  0  3  0  0  0  0  0  0
  188.7710  177.4470  136.9880 C   0  0  0  0  0  0  0  0  0  0  0  0
  189.0020  178.1810  135.9160 O   0  0  0  0  0  0  0  0  0  0  0  0
  189.6620  177.4680  135.0160 C   0  0  0  0  0  3  0  0  0  0  0  0
  185.8240  177.9900  136.9960 C   0  0  0  0  0  2  0  0  0  0  0  0
  184.4260  174.5510  137.2620 C   0  0  0  0  0  2  0  0  0  0  0  0
  183.3290  174.6410  136.1980 C   0  0  0  0  0  0  0  0  0  0  0  0
  182.2010  173.7080  136.5850 C   0  0  0  0  0  1  0  0  0  0  0  0
  183.9080  177.0910  136.0040 C   0  0  0  0  0  2  0  0  0  0  0  0
  185.4550  175.6680  137.0880 C   0  0  0  0  0  2  0  0  0  0  0  0
  184.7960  176.9720  137.1570 N   0  0  0  0  0  0  0  0  0  0  0  0
  183.8720  174.2020  134.8470 C   0  0  0  0  0  1  0  0  0  0  0  0
  182.7760  176.0670  136.1070 C   0  0  0  0  0  2  0  0  0  0  0  0
  188.9420  178.4100  139.2590 C   0  0  0  0  0  2  0  0  0  0  0  0
  188.8750  177.5110  140.3400 O   0  0  0  0  0  0  0  0  0  0  0  0
  189.9470  177.7570  141.2290 C   0  0  2  0  0  3  0  0  0  0  0  0
  191.2460  177.0870  140.7970 C   0  0  0  0  0  1  0  0  0  0  0  0
  189.6090  177.4480  142.6890 C   0  0  0  0  0  2  0  0  0  0  0  0
  190.0870  178.2550  145.0550 N   0  0  0  0  0  2  0  0  0  0  0  0
  190.2380  178.4210  143.6440 C   0  0  0  0  0  0  0  0  0  0  0  0
  190.8590  179.4270  143.2100 O   0  0  0  0  0  0  0  0  0  0  0  0
  189.2730  177.2030  145.6500 C   0  0  1  0  0  3  0  0  0  0  0  0
  187.4590  177.7810  147.3910 C   0  0  0  0  0  2  0  0  0  0  0  0
  189.9460  176.6740  146.9190 C   0  0  0  0  0  2  0  0  0  0  0  0
  189.9160  177.6970  148.0610 C   0  0  0  0  0  2  0  0  0  0  0  0
  187.8440  177.7210  145.9110 C   0  0  2  0  0  3  0  0  0  0  0  0
  188.5780  178.4390  148.1930 C   0  0  0  0  0  2  0  0  0  0  0  0
  186.7960  176.9750  145.0820 C   0  0  0  0  0  2  0  0  0  0  0  0
  185.7360  177.8730  144.5290 C   0  0  0  0  0  0  0  0  0  0  0  0
  183.7420  179.5370  143.4850 C   0  0  0  0  0  3  0  0  0  0  0  0
  184.7280  179.0140  142.6430 C   0  0  0  0  0  3  0  0  0  0  0  0
  183.7510  179.2290  144.8490 C   0  0  0  0  0  3  0  0  0  0  0  0
  185.7240  178.1840  143.1640 C   0  0  0  0  0  3  0  0  0  0  0  0
  184.7480  178.3980  145.3710 C   0  0  0  0  0  3  0  0  0  0  0  0
  1  2  1  0  0  0  0
  1 23  1  0  0  0  0
  2  3  2  0  0  0  0
  4  6  1  0  0  0  0
  5  8  1  0  0  0  0
  6 10  2  0  0  0  0
  7  4  1  0  0  0  0
  8 11  2  0  0  0  0
  8 10  1  0  0  0  0
  9  5  1  0  0  0  0
  9  4  2  0  0  0  0
 11  1  1  0  0  0  0
 12 11  1  0  0  0  0
 13  5  2  0  0  0  0
 13 12  1  0  0  0  0
 14 20  1  0  0  0  0
 14  2  1  0  0  0  0
 16 17  1  0  0  0  0
 16 15  1  0  0  0  0
 18 22  1  0  0  0  0
 18 20  1  0  0  0  0
 19 20  1  0  0  0  0
 19 15  1  0  0  0  0
 21 16  1  0  0  0  0
 22 16  1  0  0  0  0
 23 24  1  0  0  0  0
 24 25  1  0  0  0  0
 25 26  1  6  0  0  0
 25 27  1  0  0  0  0
 27 29  1  0  0  0  0
 29 28  1  0  0  0  0
 30 29  2  0  0  0  0
 31 28  1  1  0  0  0
 31 35  1  0  0  0  0
 31 33  1  0  0  0  0
 32 36  1  0  0  0  0
 33 34  1  0  0  0  0
 34 36  1  0  0  0  0
 35 37  1  6  0  0  0
 35 32  1  0  0  0  0
 38 37  1  0  0  0  0
 38 43  1  0  0  0  0
 39 41  1  0  0  0  0
 40 42  1  0  0  0  0
 40 39  2  0  0  0  0
 41 43  2  0  0  0  0
 42 38  2  0  0  0  0
M  END
>  <MODEL>
6

>  <REMARK>
 VINA RESULT:      -9.0      2.940      6.178
  Name = 
  11 active torsions:
  status: ('A' for Active; 'I' for Inactive)
    1  A    between atoms: C_1  and  C_34
    2  A    between atoms: C_1  and  N_35
    3  A    between atoms: C_2  and  C_6
    4  A    between atoms: C_2  and  O_13
    5  A    between atoms: N_3  and  C_4
    6  A    between atoms: C_6  and  C_12
    7  A    between atoms: N_8  and  C_27
    8  A    between atoms: N_8  and  C_30
    9  A    between atoms: C_11  and  C_14
   10  A    between atoms: O_13  and  C_27
   11  A    between atoms: C_14  and  C_41
                            x       y       z     vdW  Elec       q    Type
                         _______ _______ _______ _____ _____    ______ ____

>  <TORSDO>
F 11

$$$$
=
 OpenBabel11052416413D

 43 47  0  0  1  0  0  0  0  0999 V2000
  188.2870  177.8580  138.3910 N   0  0  0  0  0  0  0  0  0  0  0  0
  186.9500  178.2360  138.7760 C   0  0  0  0  0  0  0  0  0  0  0  0
  186.7200  178.6070  139.9600 O   0  0  0  0  0  0  0  0  0  0  0  0
  188.7280  173.6000  135.3510 C   0  0  0  0  0  0  0  0  0  0  0  0
  188.9620  175.9820  135.4110 C   0  0  0  0  0  0  0  0  0  0  0  0
  188.3190  173.6210  136.7030 C   0  0  0  0  0  3  0  0  0  0  0  0
  188.8180  172.3060  134.6280 C   0  0  0  0  0  1  0  0  0  0  0  0
  188.5440  176.0030  136.7120 C   0  0  0  0  0  0  0  0  0  0  0  0
  189.0650  174.7960  134.6890 C   0  0  0  0  0  3  0  0  0  0  0  0
  188.2280  174.8360  137.4040 C   0  0  0  0  0  3  0  0  0  0  0  0
  188.5960  177.3230  137.0970 C   0  0  0  0  0  0  0  0  0  0  0  0
  189.0360  178.0520  136.0890 O   0  0  0  0  0  0  0  0  0  0  0  0
  189.2650  177.2770  135.0390 C   0  0  0  0  0  3  0  0  0  0  0  0
  185.8450  178.3080  137.7620 C   0  0  0  0  0  2  0  0  0  0  0  0
  182.2720  177.2830  137.9490 C   0  0  0  0  0  2  0  0  0  0  0  0
  181.6730  178.5600  138.5450 C   0  0  0  0  0  0  0  0  0  0  0  0
  180.4550  178.1880  139.3630 C   0  0  0  0  0  1  0  0  0  0  0  0
  184.0430  179.4010  138.7730 C   0  0  0  0  0  2  0  0  0  0  0  0
  183.6560  177.5480  137.3550 C   0  0  0  0  0  2  0  0  0  0  0  0
  184.5460  178.0870  138.3820 N   0  0  0  0  0  0  0  0  0  0  0  0
  181.2350  179.5020  137.4340 C   0  0  0  0  0  1  0  0  0  0  0  0
  182.6840  179.2580  139.4610 C   0  0  0  0  0  2  0  0  0  0  0  0
  189.4060  178.1510  139.2820 C   0  0  0  0  0  2  0  0  0  0  0  0
  189.2620  177.4410  140.4900 O   0  0  0  0  0  0  0  0  0  0  0  0
  190.2510  177.8640  141.4090 C   0  0  2  0  0  3  0  0  0  0  0  0
  191.6620  177.4610  140.9940 C   0  0  0  0  0  1  0  0  0  0  0  0
  189.9490  177.4630  142.8540 C   0  0  0  0  0  2  0  0  0  0  0  0
  190.0860  178.3630  145.2300 N   0  0  0  0  0  2  0  0  0  0  0  0
  190.4160  178.4880  143.8460 C   0  0  0  0  0  0  0  0  0  0  0  0
  191.0570  179.5010  143.4600 O   0  0  0  0  0  0  0  0  0  0  0  0
  189.2340  177.3020  145.7530 C   0  0  1  0  0  3  0  0  0  0  0  0
  187.2790  177.8590  147.3410 C   0  0  0  0  0  2  0  0  0  0  0  0
  189.8050  176.7730  147.0710 C   0  0  0  0  0  2  0  0  0  0  0  0
  189.6720  177.7910  148.2100 C   0  0  0  0  0  2  0  0  0  0  0  0
  187.7840  177.8080  145.8960 C   0  0  2  0  0  3  0  0  0  0  0  0
  188.3220  178.5220  148.2340 C   0  0  0  0  0  2  0  0  0  0  0  0
  186.8140  177.0580  144.9810 C   0  0  0  0  0  2  0  0  0  0  0  0
  185.6430  177.8870  144.5610 C   0  0  0  0  0  0  0  0  0  0  0  0
  183.4410  179.4200  143.7640 C   0  0  0  0  0  3  0  0  0  0  0  0
  184.4080  179.0460  142.8270 C   0  0  0  0  0  3  0  0  0  0  0  0
  183.5730  179.0280  145.1000 C   0  0  0  0  0  3  0  0  0  0  0  0
  185.5080  178.2800  143.2240 C   0  0  0  0  0  3  0  0  0  0  0  0
  184.6730  178.2630  145.4980 C   0  0  0  0  0  3  0  0  0  0  0  0
  1  2  1  0  0  0  0
  1 23  1  0  0  0  0
  2  3  2  0  0  0  0
  4  6  1  0  0  0  0
  5  8  1  0  0  0  0
  6 10  2  0  0  0  0
  7  4  1  0  0  0  0
  8 11  2  0  0  0  0
  8 10  1  0  0  0  0
  9  4  2  0  0  0  0
  9  5  1  0  0  0  0
 11  1  1  0  0  0  0
 12 11  1  0  0  0  0
 13  5  2  0  0  0  0
 13 12  1  0  0  0  0
 14 20  1  0  0  0  0
 14  2  1  0  0  0  0
 15 16  1  0  0  0  0
 16 17  1  0  0  0  0
 16 22  1  0  0  0  0
 18 22  1  0  0  0  0
 19 15  1  0  0  0  0
 19 20  1  0  0  0  0
 20 18  1  0  0  0  0
 21 16  1  0  0  0  0
 23 24  1  0  0  0  0
 24 25  1  0  0  0  0
 25 26  1  6  0  0  0
 25 27  1  0  0  0  0
 27 29  1  0  0  0  0
 29 28  1  0  0  0  0
 30 29  2  0  0  0  0
 31 28  1  1  0  0  0
 31 35  1  0  0  0  0
 31 33  1  0  0  0  0
 32 36  1  0  0  0  0
 33 34  1  0  0  0  0
 34 36  1  0  0  0  0
 35 37  1  6  0  0  0
 35 32  1  0  0  0  0
 38 37  1  0  0  0  0
 38 43  1  0  0  0  0
 39 41  1  0  0  0  0
 40 42  1  0  0  0  0
 40 39  2  0  0  0  0
 41 43  2  0  0  0  0
 42 38  2  0  0  0  0
M  END
>  <MODEL>
7

>  <REMARK>
 VINA RESULT:      -9.0      3.414      6.849
  Name = 
  11 active torsions:
  status: ('A' for Active; 'I' for Inactive)
    1  A    between atoms: C_1  and  C_34
    2  A    between atoms: C_1  and  N_35
    3  A    between atoms: C_2  and  C_6
    4  A    between atoms: C_2  and  O_13
    5  A    between atoms: N_3  and  C_4
    6  A    between atoms: C_6  and  C_12
    7  A    between atoms: N_8  and  C_27
    8  A    between atoms: N_8  and  C_30
    9  A    between atoms: C_11  and  C_14
   10  A    between atoms: O_13  and  C_27
   11  A    between atoms: C_14  and  C_41
                            x       y       z     vdW  Elec       q    Type
                         _______ _______ _______ _____ _____    ______ ____

>  <TORSDO>
F 11

$$$$
=
 OpenBabel11052416413D

 43 47  0  0  1  0  0  0  0  0999 V2000
  190.3410  177.4630  138.6650 N   0  0  0  0  0  0  0  0  0  0  0  0
  191.4990  176.7430  138.1970 C   0  0  0  0  0  0  0  0  0  0  0  0
  192.4900  176.5870  138.9620 O   0  0  0  0  0  0  0  0  0  0  0  0
  186.0460  175.7340  136.1890 C   0  0  0  0  0  0  0  0  0  0  0  0
  187.4280  177.6490  136.5810 C   0  0  0  0  0  0  0  0  0  0  0  0
  186.8910  174.9700  137.0240 C   0  0  0  0  0  3  0  0  0  0  0  0
  184.8720  175.0920  135.5440 C   0  0  0  0  0  1  0  0  0  0  0  0
  188.2330  176.9140  137.4070 C   0  0  0  0  0  0  0  0  0  0  0  0
  186.3170  177.0950  135.9520 C   0  0  0  0  0  3  0  0  0  0  0  0
  188.0080  175.5590  137.6420 C   0  0  0  0  0  3  0  0  0  0  0  0
  189.2280  177.7720  137.8150 C   0  0  0  0  0  0  0  0  0  0  0  0
  189.0410  178.9510  137.2520 O   0  0  0  0  0  0  0  0  0  0  0  0
  187.9530  178.9230  136.4980 C   0  0  0  0  0  3  0  0  0  0  0  0
  191.5030  176.0750  136.8530 C   0  0  0  0  0  2  0  0  0  0  0  0
  194.1000  173.4160  137.0430 C   0  0  0  0  0  2  0  0  0  0  0  0
  193.6310  172.5220  135.8910 C   0  0  0  0  0  0  0  0  0  0  0  0
  194.0280  171.0930  136.1950 C   0  0  0  0  0  1  0  0  0  0  0  0
  191.6170  174.0350  135.7180 C   0  0  0  0  0  2  0  0  0  0  0  0
  193.4860  174.8120  136.9410 C   0  0  0  0  0  2  0  0  0  0  0  0
  192.0270  174.7190  136.9410 N   0  0  0  0  0  0  0  0  0  0  0  0
  194.3060  172.9410  134.5940 C   0  0  0  0  0  1  0  0  0  0  0  0
  192.1080  172.5860  135.7390 C   0  0  0  0  0  2  0  0  0  0  0  0
  190.2090  177.7770  140.0850 C   0  0  0  0  0  2  0  0  0  0  0  0
  190.1120  176.5900  140.8360 O   0  0  0  0  0  0  0  0  0  0  0  0
  189.5730  176.8780  142.1120 C   0  0  2  0  0  3  0  0  0  0  0  0
  188.8040  178.1950  142.1510 C   0  0  0  0  0  1  0  0  0  0  0  0
  190.6010  176.7890  143.2410 C   0  0  0  0  0  2  0  0  0  0  0  0
  190.0490  178.2490  145.2510 N   0  0  0  0  0  2  0  0  0  0  0  0
  190.7290  178.0740  144.0060 C   0  0  0  0  0  0  0  0  0  0  0  0
  191.3920  179.0340  143.5320 O   0  0  0  0  0  0  0  0  0  0  0  0
  189.1490  177.2510  145.8140 C   0  0  1  0  0  3  0  0  0  0  0  0
  187.1950  177.9640  147.3390 C   0  0  0  0  0  2  0  0  0  0  0  0
  189.6800  176.7700  147.1660 C   0  0  0  0  0  2  0  0  0  0  0  0
  189.5710  177.8510  148.2490 C   0  0  0  0  0  2  0  0  0  0  0  0
  187.7180  177.8180  145.9080 C   0  0  2  0  0  3  0  0  0  0  0  0
  188.2500  178.6330  148.2140 C   0  0  0  0  0  2  0  0  0  0  0  0
  186.7330  177.0590  145.0170 C   0  0  0  0  0  2  0  0  0  0  0  0
  185.5960  177.9070  144.5430 C   0  0  0  0  0  0  0  0  0  0  0  0
  183.4590  179.4760  143.6440 C   0  0  0  0  0  3  0  0  0  0  0  0
  184.4480  179.0610  142.7470 C   0  0  0  0  0  3  0  0  0  0  0  0
  183.5380  179.1070  144.9900 C   0  0  0  0  0  3  0  0  0  0  0  0
  185.5150  178.2780  143.1940 C   0  0  0  0  0  3  0  0  0  0  0  0
  184.6050  178.3240  145.4390 C   0  0  0  0  0  3  0  0  0  0  0  0
  1 23  1  0  0  0  0
  2  1  1  0  0  0  0
  2  3  2  0  0  0  0
  4  6  1  0  0  0  0
  5  8  1  0  0  0  0
  6 10  2  0  0  0  0
  7  4  1  0  0  0  0
  8 10  1  0  0  0  0
  8 11  2  0  0  0  0
  9  4  2  0  0  0  0
  9  5  1  0  0  0  0
 11  1  1  0  0  0  0
 12 11  1  0  0  0  0
 13  5  2  0  0  0  0
 13 12  1  0  0  0  0
 14 20  1  0  0  0  0
 14  2  1  0  0  0  0
 16 17  1  0  0  0  0
 16 15  1  0  0  0  0
 18 22  1  0  0  0  0
 18 20  1  0  0  0  0
 19 15  1  0  0  0  0
 20 19  1  0  0  0  0
 21 16  1  0  0  0  0
 22 16  1  0  0  0  0
 23 24  1  0  0  0  0
 24 25  1  0  0  0  0
 25 26  1  6  0  0  0
 25 27  1  0  0  0  0
 27 29  1  0  0  0  0
 29 28  1  0  0  0  0
 30 29  2  0  0  0  0
 31 28  1  1  0  0  0
 31 35  1  0  0  0  0
 31 33  1  0  0  0  0
 32 36  1  0  0  0  0
 33 34  1  0  0  0  0
 35 37  1  6  0  0  0
 35 32  1  0  0  0  0
 36 34  1  0  0  0  0
 38 37  1  0  0  0  0
 38 43  1  0  0  0  0
 39 41  1  0  0  0  0
 40 42  1  0  0  0  0
 40 39  2  0  0  0  0
 41 43  2  0  0  0  0
 42 38  2  0  0  0  0
M  END
>  <MODEL>
8

>  <REMARK>
 VINA RESULT:      -8.8      1.533      2.142
  Name = 
  11 active torsions:
  status: ('A' for Active; 'I' for Inactive)
    1  A    between atoms: C_1  and  C_34
    2  A    between atoms: C_1  and  N_35
    3  A    between atoms: C_2  and  C_6
    4  A    between atoms: C_2  and  O_13
    5  A    between atoms: N_3  and  C_4
    6  A    between atoms: C_6  and  C_12
    7  A    between atoms: N_8  and  C_27
    8  A    between atoms: N_8  and  C_30
    9  A    between atoms: C_11  and  C_14
   10  A    between atoms: O_13  and  C_27
   11  A    between atoms: C_14  and  C_41
                            x       y       z     vdW  Elec       q    Type
                         _______ _______ _______ _____ _____    ______ ____

>  <TORSDO>
F 11

$$$$
=
 OpenBabel11052416413D

 43 47  0  0  1  0  0  0  0  0999 V2000
  181.5560  178.6320  140.7320 N   0  0  0  0  0  0  0  0  0  0  0  0
  180.6940  179.7320  140.3790 C   0  0  0  0  0  0  0  0  0  0  0  0
  180.3360  180.5570  141.2640 O   0  0  0  0  0  0  0  0  0  0  0  0
  184.9550  176.8940  137.1270 C   0  0  0  0  0  0  0  0  0  0  0  0
  182.9070  176.4060  138.2660 C   0  0  0  0  0  0  0  0  0  0  0  0
  185.0680  178.0900  137.8720 C   0  0  0  0  0  3  0  0  0  0  0  0
  185.9980  176.5480  136.1280 C   0  0  0  0  0  1  0  0  0  0  0  0
  183.0290  177.5520  139.0020 C   0  0  0  0  0  0  0  0  0  0  0  0
  183.8550  176.0370  137.3160 C   0  0  0  0  0  3  0  0  0  0  0  0
  184.0910  178.4350  138.8220 C   0  0  0  0  0  3  0  0  0  0  0  0
  181.9100  177.5990  139.8020 C   0  0  0  0  0  0  0  0  0  0  0  0
  181.1510  176.5500  139.5490 O   0  0  0  0  0  0  0  0  0  0  0  0
  181.7230  175.7920  138.6250 C   0  0  0  0  0  3  0  0  0  0  0  0
  180.3060  179.9830  138.9500 C   0  0  0  0  0  2  0  0  0  0  0  0
  179.1270  183.1020  137.2980 C   0  0  0  0  0  2  0  0  0  0  0  0
  180.4700  183.6510  136.8060 C   0  0  0  0  0  0  0  0  0  0  0  0
  180.3880  185.1620  136.7590 C   0  0  0  0  0  1  0  0  0  0  0  0
  181.5530  181.7540  138.0730 C   0  0  0  0  0  2  0  0  0  0  0  0
  179.2320  181.6160  137.6410 C   0  0  0  0  0  2  0  0  0  0  0  0
  180.2610  181.4090  138.6590 N   0  0  0  0  0  0  0  0  0  0  0  0
  180.7610  183.1430  135.4030 C   0  0  0  0  0  1  0  0  0  0  0  0
  181.6010  183.2510  137.7580 C   0  0  0  0  0  2  0  0  0  0  0  0
  182.2180  178.6200  142.0330 C   0  0  0  0  0  2  0  0  0  0  0  0
  183.5870  178.9110  141.8820 O   0  0  0  0  0  0  0  0  0  0  0  0
  184.2840  178.5350  143.0550 C   0  0  2  0  0  3  0  0  0  0  0  0
  184.4140  179.6730  144.0610 C   0  0  0  0  0  1  0  0  0  0  0  0
  185.6330  177.8710  142.7730 C   0  0  0  0  0  2  0  0  0  0  0  0
  187.8530  178.3090  141.6100 N   0  0  0  0  0  2  0  0  0  0  0  0
  186.5000  178.6900  141.8620 C   0  0  0  0  0  0  0  0  0  0  0  0
  186.0600  179.7550  141.3530 O   0  0  0  0  0  0  0  0  0  0  0  0
  188.4950  177.1730  142.2590 C   0  0  1  0  0  3  0  0  0  0  0  0
  190.3720  177.5440  143.9900 C   0  0  0  0  0  2  0  0  0  0  0  0
  189.7040  176.7150  141.4400 C   0  0  0  0  0  2  0  0  0  0  0  0
  190.8570  177.7240  141.4950 C   0  0  0  0  0  2  0  0  0  0  0  0
  188.8660  177.5320  143.7130 C   0  0  2  0  0  3  0  0  0  0  0  0
  191.0970  178.3160  142.8910 C   0  0  0  0  0  2  0  0  0  0  0  0
  188.1080  176.6810  144.7330 C   0  0  0  0  0  2  0  0  0  0  0  0
  187.9950  177.3340  146.0740 C   0  0  0  0  0  0  0  0  0  0  0  0
  187.7980  178.5700  148.5770 C   0  0  0  0  0  3  0  0  0  0  0  0
  188.9410  177.8360  148.2480 C   0  0  0  0  0  3  0  0  0  0  0  0
  186.7530  178.6880  147.6550 C   0  0  0  0  0  3  0  0  0  0  0  0
  189.0400  177.2180  146.9990 C   0  0  0  0  0  3  0  0  0  0  0  0
  186.8510  178.0690  146.4050 C   0  0  0  0  0  3  0  0  0  0  0  0
  1 23  1  0  0  0  0
  2  1  1  0  0  0  0
  2  3  2  0  0  0  0
  4  9  2  0  0  0  0
  4  6  1  0  0  0  0
  5 13  2  0  0  0  0
  5  8  1  0  0  0  0
  6 10  2  0  0  0  0
  7  4  1  0  0  0  0
  8 11  2  0  0  0  0
  9  5  1  0  0  0  0
 10  8  1  0  0  0  0
 11  1  1  0  0  0  0
 12 11  1  0  0  0  0
 13 12  1  0  0  0  0
 14  2  1  0  0  0  0
 15 19  1  0  0  0  0
 16 15  1  0  0  0  0
 16 22  1  0  0  0  0
 17 16  1  0  0  0  0
 18 20  1  0  0  0  0
 19 20  1  0  0  0  0
 20 14  1  0  0  0  0
 21 16  1  0  0  0  0
 22 18  1  0  0  0  0
 24 23  1  0  0  0  0
 24 25  1  0  0  0  0
 25 26  1  1  0  0  0
 27 25  1  0  0  0  0
 28 29  1  0  0  0  0
 29 27  1  0  0  0  0
 30 29  2  0  0  0  0
 31 28  1  6  0  0  0
 31 35  1  0  0  0  0
 33 34  1  0  0  0  0
 33 31  1  0  0  0  0
 34 36  1  0  0  0  0
 35 32  1  0  0  0  0
 35 37  1  1  0  0  0
 36 32  1  0  0  0  0
 37 38  1  0  0  0  0
 38 43  2  0  0  0  0
 38 42  1  0  0  0  0
 40 39  1  0  0  0  0
 41 39  2  0  0  0  0
 42 40  2  0  0  0  0
 43 41  1  0  0  0  0
M  END
>  <MODEL>
9

>  <REMARK>
 VINA RESULT:      -8.8      5.124      9.941
  Name = 
  11 active torsions:
  status: ('A' for Active; 'I' for Inactive)
    1  A    between atoms: C_1  and  C_34
    2  A    between atoms: C_1  and  N_35
    3  A    between atoms: C_2  and  C_6
    4  A    between atoms: C_2  and  O_13
    5  A    between atoms: N_3  and  C_4
    6  A    between atoms: C_6  and  C_12
    7  A    between atoms: N_8  and  C_27
    8  A    between atoms: N_8  and  C_30
    9  A    between atoms: C_11  and  C_14
   10  A    between atoms: O_13  and  C_27
   11  A    between atoms: C_14  and  C_41
                            x       y       z     vdW  Elec       q    Type
                         _______ _______ _______ _____ _____    ______ ____

>  <TORSDO>
F 11

$$$$
