=
 OpenBabel11052415253D

 37 43  0  0  1  0  0  0  0  0999 V2000
  187.6610  178.2880  139.8770 C   0  0  0  0  0  0  0  0  0  0  0  0
  184.4790  175.4480  137.3720 C   0  0  0  0  0  2  0  0  0  0  0  0
  184.1080  177.6040  138.7210 C   0  0  1  0  0  3  0  0  0  0  0  0
  188.5340  178.1410  136.2090 C   0  0  0  0  0  1  0  0  0  0  0  0
  183.4930  176.5170  137.8210 C   0  0  0  0  0  2  0  0  0  0  0  0
  188.3710  178.3190  138.6780 C   0  0  0  0  0  3  0  0  0  0  0  0
  187.7300  178.0640  137.4640 C   0  0  0  0  0  0  0  0  0  0  0  0
  185.2490  175.9010  136.1260 C   0  0  1  0  0  3  0  0  0  0  0  0
  185.6200  177.7670  138.6530 C   0  0  0  0  0  0  0  0  0  0  0  0
  185.6930  177.3730  136.1480 C   0  0  0  0  0  2  0  0  0  0  0  0
  186.3550  177.7560  137.4420 C   0  0  0  0  0  0  0  0  0  0  0  0
  186.2870  178.0230  139.8560 C   0  0  0  0  0  3  0  0  0  0  0  0
  179.8360  180.1080  141.2370 C   0  0  1  0  0  3  0  0  0  0  0  0
  183.3240  178.9220  138.5370 C   0  0  1  0  0  0  0  0  0  0  0  0
  180.8940  179.9480  138.9030 C   0  0  1  0  0  3  0  0  0  0  0  0
  182.0410  179.0160  139.3720 C   0  0  1  0  0  0  0  0  0  0  0  0
  181.6720  177.8480  140.0730 O   0  0  0  0  0  0  0  0  0  0  0  0
  179.7810  178.7160  141.0500 O   0  0  0  0  0  0  0  0  0  0  0  0
  183.3230  179.6630  139.8720 C   0  0  2  0  0  3  0  0  0  0  0  0
  181.0800  178.2440  141.2870 C   0  0  0  0  0  2  0  0  0  0  0  0
  184.1420  180.1930  138.7170 C   0  0  0  0  0  2  0  0  0  0  0  0
  180.4360  180.8660  140.0380 C   0  0  1  0  0  3  0  0  0  0  0  0
  178.9320  180.7790  140.2170 C   0  0  0  0  0  2  0  0  0  0  0  0
  181.1870  180.7630  137.6470 C   0  0  0  0  0  2  0  0  0  0  0  0
  181.2530  182.1170  137.9700 O   0  0  0  0  0  1  0  0  0  0  0  0
  187.0510  174.2440  136.9350 C   0  0  2  0  0  3  0  0  0  0  0  0
  185.9080  174.0080  134.6360 C   0  0  0  0  0  3  0  0  0  0  0  0
  186.0780  172.6810  134.6640 C   0  0  0  0  0  3  0  0  0  0  0  0
  188.1290  171.7810  135.4440 O   0  0  0  0  0  1  0  0  0  0  0  0
  186.6940  172.7610  137.1000 C   0  0  2  0  0  3  0  0  0  0  0  0
  186.7910  171.9820  135.7860 C   0  0  1  0  0  3  0  0  0  0  0  0
  186.3750  174.9360  135.7310 C   0  0  1  0  0  3  0  0  0  0  0  0
  185.4170  172.6240  137.6450 O   0  0  0  0  0  1  0  0  0  0  0  0
  188.5580  174.4130  136.8520 C   0  0  0  0  0  1  0  0  0  0  0  0
  188.3400  178.5390  141.0710 O   0  0  0  0  0  0  0  0  0  0  0  0
  188.4060  176.7800  142.6980 C   0  0  0  0  0  1  0  0  0  0  0  0
  189.1940  177.5820  141.6840 C   0  0  0  0  0  2  0  0  0  0  0  0
  1 35  1  0  0  0  0
  2  5  1  0  0  0  0
  3  5  1  6  0  0  0
  4  7  1  0  0  0  0
  6  1  2  0  0  0  0
  7  6  1  0  0  0  0
  8 10  1  1  0  0  0
  8  2  1  0  0  0  0
  9  3  1  0  0  0  0
  9 12  2  0  0  0  0
 10 11  1  0  0  0  0
 11  7  2  0  0  0  0
 11  9  1  0  0  0  0
 12  1  1  0  0  0  0
 13 23  1  6  0  0  0
 14 21  1  6  0  0  0
 14  3  1  0  0  0  0
 14 16  1  0  0  0  0
 14 19  1  0  0  0  0
 15 24  1  6  0  0  0
 15 16  1  0  0  0  0
 15 22  1  0  0  0  0
 16 19  1  0  0  0  0
 16 17  1  1  0  0  0
 17 20  1  0  0  0  0
 18 13  1  0  0  0  0
 18 20  1  0  0  0  0
 19 21  1  6  0  0  0
 22 23  1  6  0  0  0
 22 13  1  0  0  0  0
 24 25  1  0  0  0  0
 26 34  1  6  0  0  0
 26 30  1  0  0  0  0
 27 28  2  0  0  0  0
 28 31  1  0  0  0  0
 30 33  1  6  0  0  0
 31 29  1  6  0  0  0
 31 30  1  0  0  0  0
 32 27  1  6  0  0  0
 32  8  1  0  0  0  0
 32 26  1  0  0  0  0
 35 37  1  0  0  0  0
 37 36  1  0  0  0  0
M  END
>  <MODEL>
1

>  <REMARK>
 VINA RESULT:      -5.2      0.000      0.000
  Name = 
  5 active torsions:
  status: ('A' for Active; 'I' for Inactive)
    1  A    between atoms: C_1  and  O_5
    2  A    between atoms: C_4  and  C_10
    3  A    between atoms: O_5  and  C_23
    4  A    between atoms: C_9  and  C_16
    5  A    between atoms: C_27  and  C_31
                            x       y       z     vdW  Elec       q    Type
                         _______ _______ _______ _____ _____    ______ ____

>  <TORSDO>
F 5

$$$$
=
 OpenBabel11052415253D

 37 43  0  0  1  0  0  0  0  0999 V2000
  187.7750  175.0600  137.2190 C   0  0  0  0  0  0  0  0  0  0  0  0
  191.2430  176.4690  140.4520 C   0  0  0  0  0  2  0  0  0  0  0  0
  191.4440  175.6040  138.0400 C   0  0  1  0  0  3  0  0  0  0  0  0
  187.3550  178.6780  138.2040 C   0  0  0  0  0  1  0  0  0  0  0  0
  192.1660  176.1580  139.2820 C   0  0  0  0  0  2  0  0  0  0  0  0
  187.2160  176.3100  137.4770 C   0  0  0  0  0  3  0  0  0  0  0  0
  188.0010  177.3520  137.9770 C   0  0  0  0  0  0  0  0  0  0  0  0
  190.6300  177.8670  140.3100 C   0  0  1  0  0  3  0  0  0  0  0  0
  189.9510  175.8860  137.9400 C   0  0  0  0  0  0  0  0  0  0  0  0
  190.1840  178.2290  138.8840 C   0  0  0  0  0  2  0  0  0  0  0  0
  189.3680  177.1410  138.2410 C   0  0  0  0  0  0  0  0  0  0  0  0
  189.1420  174.8580  137.4430 C   0  0  0  0  0  3  0  0  0  0  0  0
  195.7050  173.4600  135.1950 C   0  0  1  0  0  3  0  0  0  0  0  0
  192.2420  175.9850  136.7740 C   0  0  1  0  0  0  0  0  0  0  0  0
  194.6760  175.7540  135.7190 C   0  0  1  0  0  3  0  0  0  0  0  0
  193.5140  175.1590  136.5560 C   0  0  1  0  0  0  0  0  0  0  0  0
  193.8640  174.2740  137.5990 O   0  0  0  0  0  0  0  0  0  0  0  0
  195.7500  173.4220  136.5990 O   0  0  0  0  0  0  0  0  0  0  0  0
  192.2320  174.7860  135.8280 C   0  0  2  0  0  3  0  0  0  0  0  0
  194.4430  173.1310  137.0180 C   0  0  0  0  0  2  0  0  0  0  0  0
  191.4330  176.0230  135.4850 C   0  0  0  0  0  2  0  0  0  0  0  0
  195.1280  174.7740  134.6340 C   0  0  1  0  0  3  0  0  0  0  0  0
  196.6280  174.5610  134.7010 C   0  0  0  0  0  2  0  0  0  0  0  0
  194.4070  177.1280  135.1130 C   0  0  0  0  0  2  0  0  0  0  0  0
  195.4360  178.0030  135.4550 O   0  0  0  0  0  1  0  0  0  0  0  0
  188.5750  177.0000  141.6040 C   0  0  2  0  0  3  0  0  0  0  0  0
  190.2060  178.7210  142.6190 C   0  0  0  0  0  3  0  0  0  0  0  0
  189.9390  178.2770  143.8530 C   0  0  0  0  0  3  0  0  0  0  0  0
  187.7040  177.7600  144.4520 O   0  0  0  0  0  1  0  0  0  0  0  0
  188.7770  176.2490  142.9270 C   0  0  2  0  0  3  0  0  0  0  0  0
  188.9350  177.1930  144.1210 C   0  0  1  0  0  3  0  0  0  0  0  0
  189.5620  178.1650  141.3720 C   0  0  1  0  0  3  0  0  0  0  0  0
  189.8770  175.3960  142.8400 O   0  0  0  0  0  1  0  0  0  0  0  0
  187.1460  177.5030  141.5010 C   0  0  0  0  0  1  0  0  0  0  0  0
  186.9560  174.0410  136.7290 O   0  0  0  0  0  0  0  0  0  0  0  0
  184.9310  173.1560  137.6560 C   0  0  0  0  0  1  0  0  0  0  0  0
  186.4340  173.0100  137.5570 C   0  0  0  0  0  2  0  0  0  0  0  0
  1 12  2  0  0  0  0
  1  6  1  0  0  0  0
  3  5  1  1  0  0  0
  5  2  1  0  0  0  0
  6  7  2  0  0  0  0
  7  4  1  0  0  0  0
  7 11  1  0  0  0  0
  8 10  1  6  0  0  0
  8  2  1  0  0  0  0
  8 32  1  0  0  0  0
  9  3  1  0  0  0  0
  9 11  2  0  0  0  0
 11 10  1  0  0  0  0
 12  9  1  0  0  0  0
 13 23  1  6  0  0  0
 13 18  1  0  0  0  0
 14 21  1  6  0  0  0
 14  3  1  0  0  0  0
 15 24  1  6  0  0  0
 15 16  1  0  0  0  0
 16 14  1  0  0  0  0
 16 17  1  1  0  0  0
 18 20  1  0  0  0  0
 19 21  1  6  0  0  0
 19 16  1  0  0  0  0
 19 14  1  0  0  0  0
 20 17  1  0  0  0  0
 22 23  1  1  0  0  0
 22 13  1  0  0  0  0
 22 15  1  0  0  0  0
 24 25  1  0  0  0  0
 26 34  1  1  0  0  0
 26 30  1  0  0  0  0
 27 28  2  0  0  0  0
 28 31  1  0  0  0  0
 30 33  1  6  0  0  0
 30 31  1  0  0  0  0
 31 29  1  6  0  0  0
 32 26  1  0  0  0  0
 32 27  1  1  0  0  0
 35  1  1  0  0  0  0
 35 37  1  0  0  0  0
 37 36  1  0  0  0  0
M  END
>  <MODEL>
2

>  <REMARK>
 VINA RESULT:      -4.5      4.486     10.325
  Name = 
  5 active torsions:
  status: ('A' for Active; 'I' for Inactive)
    1  A    between atoms: C_1  and  O_5
    2  A    between atoms: C_4  and  C_10
    3  A    between atoms: O_5  and  C_23
    4  A    between atoms: C_9  and  C_16
    5  A    between atoms: C_27  and  C_31
                            x       y       z     vdW  Elec       q    Type
                         _______ _______ _______ _____ _____    ______ ____

>  <TORSDO>
F 5

$$$$
=
 OpenBabel11052415253D

 37 43  0  0  1  0  0  0  0  0999 V2000
  186.2140  178.3200  138.7690 C   0  0  0  0  0  0  0  0  0  0  0  0
  181.8950  178.5850  136.3730 C   0  0  0  0  0  2  0  0  0  0  0  0
  183.6720  176.7300  136.4360 C   0  0  1  0  0  3  0  0  0  0  0  0
  183.3210  178.6430  141.1700 C   0  0  0  0  0  1  0  0  0  0  0  0
  182.2920  177.1840  135.9290 C   0  0  0  0  0  2  0  0  0  0  0  0
  185.4510  178.6070  139.9000 C   0  0  0  0  0  3  0  0  0  0  0  0
  184.0800  178.3440  139.9200 C   0  0  0  0  0  0  0  0  0  0  0  0
  181.2610  178.5590  137.7690 C   0  0  1  0  0  3  0  0  0  0  0  0
  184.2260  177.4650  137.6490 C   0  0  0  0  0  0  0  0  0  0  0  0
  181.9560  177.6210  138.7700 C   0  0  0  0  0  2  0  0  0  0  0  0
  183.4490  177.7990  138.7850 C   0  0  0  0  0  0  0  0  0  0  0  0
  185.5980  177.7410  137.6530 C   0  0  0  0  0  3  0  0  0  0  0  0
  187.3350  172.6560  135.5210 C   0  0  1  0  0  3  0  0  0  0  0  0
  183.6850  175.1920  136.5720 C   0  0  1  0  0  0  0  0  0  0  0  0
  184.7950  173.0300  135.4840 C   0  0  1  0  0  3  0  0  0  0  0  0
  184.9000  174.5100  135.9350 C   0  0  1  0  0  0  0  0  0  0  0  0
  185.7590  175.3470  135.1900 O   0  0  0  0  0  0  0  0  0  0  0  0
  187.2680  173.7160  134.6000 O   0  0  0  0  0  0  0  0  0  0  0  0
  184.8880  174.8000  137.4270 C   0  0  2  0  0  3  0  0  0  0  0  0
  187.0740  174.8770  135.3630 C   0  0  0  0  0  2  0  0  0  0  0  0
  183.4910  174.6650  137.9880 C   0  0  0  0  0  2  0  0  0  0  0  0
  185.9570  172.2040  136.0400 C   0  0  1  0  0  3  0  0  0  0  0  0
  186.6470  171.4400  134.9260 C   0  0  0  0  0  2  0  0  0  0  0  0
  183.4660  172.3480  135.7900 C   0  0  0  0  0  2  0  0  0  0  0  0
  182.6320  172.4200  134.6760 O   0  0  0  0  0  1  0  0  0  0  0  0
  181.8380  181.0700  137.6640 C   0  0  2  0  0  3  0  0  0  0  0  0
  179.5140  180.2290  138.4010 C   0  0  0  0  0  3  0  0  0  0  0  0
  178.9410  181.3490  137.9440 C   0  0  0  0  0  3  0  0  0  0  0  0
  179.9940  183.4400  138.3230 O   0  0  0  0  0  1  0  0  0  0  0  0
  181.0440  181.9890  136.7250 C   0  0  2  0  0  3  0  0  0  0  0  0
  179.7340  182.4760  137.3480 C   0  0  1  0  0  3  0  0  0  0  0  0
  180.9990  179.9610  138.3350 C   0  0  1  0  0  3  0  0  0  0  0  0
  180.7900  181.3460  135.5130 O   0  0  0  0  0  1  0  0  0  0  0  0
  182.5510  181.8930  138.7210 C   0  0  0  0  0  1  0  0  0  0  0  0
  187.5800  178.6060  138.7840 O   0  0  0  0  0  0  0  0  0  0  0  0
  189.7710  177.6810  139.0800 C   0  0  0  0  0  1  0  0  0  0  0  0
  188.4680  178.0590  139.7500 C   0  0  0  0  0  2  0  0  0  0  0  0
  1 35  1  0  0  0  0
  1  6  1  0  0  0  0
  3  5  1  1  0  0  0
  3 14  1  0  0  0  0
  3  9  1  0  0  0  0
  5  2  1  0  0  0  0
  6  7  2  0  0  0  0
  7  4  1  0  0  0  0
  8  2  1  6  0  0  0
  8 32  1  0  0  0  0
  8 10  1  0  0  0  0
  9 12  1  0  0  0  0
  9 11  2  0  0  0  0
 10 11  1  0  0  0  0
 11  7  1  0  0  0  0
 12  1  2  0  0  0  0
 13 23  1  6  0  0  0
 13 22  1  0  0  0  0
 14 19  1  0  0  0  0
 14 21  1  1  0  0  0
 15 24  1  1  0  0  0
 15 16  1  0  0  0  0
 15 22  1  0  0  0  0
 16 17  1  6  0  0  0
 16 14  1  0  0  0  0
 16 19  1  0  0  0  0
 17 20  1  0  0  0  0
 18 20  1  0  0  0  0
 18 13  1  0  0  0  0
 19 21  1  1  0  0  0
 22 23  1  6  0  0  0
 25 24  1  0  0  0  0
 26 32  1  0  0  0  0
 26 34  1  1  0  0  0
 28 27  2  0  0  0  0
 30 33  1  6  0  0  0
 30 31  1  0  0  0  0
 30 26  1  0  0  0  0
 31 28  1  0  0  0  0
 31 29  1  1  0  0  0
 32 27  1  6  0  0  0
 35 37  1  0  0  0  0
 36 37  1  0  0  0  0
M  END
>  <MODEL>
3

>  <REMARK>
 VINA RESULT:      -4.2      2.207      7.942
  Name = 
  5 active torsions:
  status: ('A' for Active; 'I' for Inactive)
    1  A    between atoms: C_1  and  O_5
    2  A    between atoms: C_4  and  C_10
    3  A    between atoms: O_5  and  C_23
    4  A    between atoms: C_9  and  C_16
    5  A    between atoms: C_27  and  C_31
                            x       y       z     vdW  Elec       q    Type
                         _______ _______ _______ _____ _____    ______ ____

>  <TORSDO>
F 5

$$$$
=
 OpenBabel11052415253D

 37 43  0  0  1  0  0  0  0  0999 V2000
  190.8430  176.9870  140.9340 C   0  0  0  0  0  0  0  0  0  0  0  0
  191.4980  173.8560  137.1620 C   0  0  0  0  0  2  0  0  0  0  0  0
  189.5850  175.4930  137.6770 C   0  0  1  0  0  3  0  0  0  0  0  0
  193.9530  177.8260  138.9680 C   0  0  0  0  0  1  0  0  0  0  0  0
  190.1830  174.4660  136.6980 C   0  0  0  0  0  2  0  0  0  0  0  0
  192.1060  177.4640  140.5830 C   0  0  0  0  0  3  0  0  0  0  0  0
  192.6090  177.2660  139.2960 C   0  0  0  0  0  0  0  0  0  0  0  0
  192.6820  174.7540  136.7850 C   0  0  1  0  0  3  0  0  0  0  0  0
  190.5460  176.1180  138.6780 C   0  0  0  0  0  0  0  0  0  0  0  0
  192.4360  176.2570  136.9910 C   0  0  0  0  0  2  0  0  0  0  0  0
  191.8470  176.5660  138.3400 C   0  0  0  0  0  0  0  0  0  0  0  0
  190.0670  176.3260  139.9750 C   0  0  0  0  0  3  0  0  0  0  0  0
  184.2650  175.9920  136.1600 C   0  0  1  0  0  3  0  0  0  0  0  0
  188.7430  176.5190  136.8880 C   0  0  1  0  0  0  0  0  0  0  0  0
  186.5970  176.6610  135.3180 C   0  0  1  0  0  3  0  0  0  0  0  0
  187.3290  176.0420  136.5360 C   0  0  1  0  0  0  0  0  0  0  0  0
  187.0370  174.6950  136.8440 O   0  0  0  0  0  0  0  0  0  0  0  0
  184.8640  174.7220  136.0960 O   0  0  0  0  0  0  0  0  0  0  0  0
  187.5520  176.9240  137.7540 C   0  0  2  0  0  3  0  0  0  0  0  0
  185.6850  174.6260  137.2290 C   0  0  0  0  0  2  0  0  0  0  0  0
  188.6710  177.9090  137.5040 C   0  0  0  0  0  2  0  0  0  0  0  0
  185.1940  177.1330  135.7050 C   0  0  1  0  0  3  0  0  0  0  0  0
  184.1590  176.5600  134.7550 C   0  0  0  0  0  2  0  0  0  0  0  0
  187.3520  177.7730  134.5980 C   0  0  0  0  0  2  0  0  0  0  0  0
  186.6530  178.9730  134.7230 O   0  0  0  0  0  1  0  0  0  0  0  0
  194.3390  172.7960  137.0560 C   0  0  2  0  0  3  0  0  0  0  0  0
  195.1140  175.2560  137.0590 C   0  0  0  0  0  3  0  0  0  0  0  0
  196.3050  174.9030  136.5620 C   0  0  0  0  0  3  0  0  0  0  0  0
  197.3900  172.9640  137.3900 O   0  0  0  0  0  1  0  0  0  0  0  0
  195.4540  172.6010  136.0190 C   0  0  2  0  0  3  0  0  0  0  0  0
  196.6790  173.4730  136.3020 C   0  0  1  0  0  3  0  0  0  0  0  0
  194.0140  174.2720  137.3770 C   0  0  1  0  0  3  0  0  0  0  0  0
  194.9730  172.8510  134.7340 O   0  0  0  0  0  1  0  0  0  0  0  0
  194.6770  172.0490  138.3340 C   0  0  0  0  0  1  0  0  0  0  0  0
  190.3800  177.1960  142.2350 O   0  0  0  0  0  0  0  0  0  0  0  0
  188.3690  176.3680  143.2420 C   0  0  0  0  0  1  0  0  0  0  0  0
  189.8530  176.1500  143.0390 C   0  0  0  0  0  2  0  0  0  0  0  0
  1 35  1  0  0  0  0
  3  5  1  6  0  0  0
  3  9  1  0  0  0  0
  4  7  1  0  0  0  0
  5  2  1  0  0  0  0
  6  1  1  0  0  0  0
  7  6  2  0  0  0  0
  8 10  1  1  0  0  0
  8  2  1  0  0  0  0
  8 32  1  0  0  0  0
  9 12  1  0  0  0  0
 10 11  1  0  0  0  0
 11  9  2  0  0  0  0
 11  7  1  0  0  0  0
 12  1  2  0  0  0  0
 13 23  1  6  0  0  0
 14 21  1  6  0  0  0
 14  3  1  0  0  0  0
 14 19  1  0  0  0  0
 15 24  1  1  0  0  0
 15 22  1  0  0  0  0
 15 16  1  0  0  0  0
 16 17  1  1  0  0  0
 16 14  1  0  0  0  0
 16 19  1  0  0  0  0
 17 20  1  0  0  0  0
 18 13  1  0  0  0  0
 18 20  1  0  0  0  0
 19 21  1  6  0  0  0
 22 23  1  6  0  0  0
 22 13  1  0  0  0  0
 24 25  1  0  0  0  0
 26 32  1  0  0  0  0
 26 34  1  1  0  0  0
 28 27  2  0  0  0  0
 30 33  1  6  0  0  0
 30 31  1  0  0  0  0
 30 26  1  0  0  0  0
 31 28  1  0  0  0  0
 31 29  1  1  0  0  0
 32 27  1  6  0  0  0
 35 37  1  0  0  0  0
 37 36  1  0  0  0  0
M  END
>  <MODEL>
4

>  <REMARK>
 VINA RESULT:      -4.2      4.364      7.021
  Name = 
  5 active torsions:
  status: ('A' for Active; 'I' for Inactive)
    1  A    between atoms: C_1  and  O_5
    2  A    between atoms: C_4  and  C_10
    3  A    between atoms: O_5  and  C_23
    4  A    between atoms: C_9  and  C_16
    5  A    between atoms: C_27  and  C_31
                            x       y       z     vdW  Elec       q    Type
                         _______ _______ _______ _____ _____    ______ ____

>  <TORSDO>
F 5

$$$$
=
 OpenBabel11052415253D

 37 43  0  0  1  0  0  0  0  0999 V2000
  185.1950  177.8600  137.8750 C   0  0  0  0  0  0  0  0  0  0  0  0
  180.4830  178.9530  136.8420 C   0  0  0  0  0  2  0  0  0  0  0  0
  181.7450  176.7160  136.7700 C   0  0  1  0  0  3  0  0  0  0  0  0
  183.4080  179.2530  140.8930 C   0  0  0  0  0  1  0  0  0  0  0  0
  180.4040  177.4520  136.6050 C   0  0  0  0  0  2  0  0  0  0  0  0
  184.9330  178.4850  139.0940 C   0  0  0  0  0  3  0  0  0  0  0  0
  183.6250  178.6020  139.5670 C   0  0  0  0  0  0  0  0  0  0  0  0
  180.3610  179.2790  138.3360 C   0  0  1  0  0  3  0  0  0  0  0  0
  182.8140  177.4280  137.5880 C   0  0  0  0  0  0  0  0  0  0  0  0
  181.1360  178.3290  139.2630 C   0  0  0  0  0  2  0  0  0  0  0  0
  182.5510  178.1020  138.8050 C   0  0  0  0  0  0  0  0  0  0  0  0
  184.1340  177.3260  137.1340 C   0  0  0  0  0  3  0  0  0  0  0  0
  183.9350  171.7280  135.6860 C   0  0  1  0  0  3  0  0  0  0  0  0
  181.4780  175.2620  137.2150 C   0  0  1  0  0  0  0  0  0  0  0  0
  181.6720  172.7600  136.3240 C   0  0  1  0  0  3  0  0  0  0  0  0
  182.2330  174.2030  136.4040 C   0  0  1  0  0  0  0  0  0  0  0  0
  182.9470  174.6760  135.2810 O   0  0  0  0  0  0  0  0  0  0  0  0
  183.7870  172.6390  134.6270 O   0  0  0  0  0  0  0  0  0  0  0  0
  182.7880  174.6760  137.7380 C   0  0  2  0  0  3  0  0  0  0  0  0
  184.1120  173.8980  135.1520 C   0  0  0  0  0  2  0  0  0  0  0  0
  181.6670  174.9930  138.7020 C   0  0  0  0  0  2  0  0  0  0  0  0
  182.7510  171.7320  136.6710 C   0  0  1  0  0  3  0  0  0  0  0  0
  182.8460  170.6740  135.5890 C   0  0  0  0  0  2  0  0  0  0  0  0
  180.4120  172.5030  137.1440 C   0  0  0  0  0  2  0  0  0  0  0  0
  180.6870  171.5870  138.1570 O   0  0  0  0  0  1  0  0  0  0  0  0
  181.5070  181.4750  137.6170 C   0  0  2  0  0  3  0  0  0  0  0  0
  179.2980  181.4550  138.9480 C   0  0  0  0  0  3  0  0  0  0  0  0
  178.9310  182.6180  138.3970 C   0  0  0  0  0  3  0  0  0  0  0  0
  180.5340  184.3450  138.1330 O   0  0  0  0  0  1  0  0  0  0  0  0
  180.7650  182.4440  136.6860 C   0  0  2  0  0  3  0  0  0  0  0  0
  179.8110  183.3720  137.4420 C   0  0  1  0  0  3  0  0  0  0  0  0
  180.6060  180.7620  138.6490 C   0  0  1  0  0  3  0  0  0  0  0  0
  180.0700  181.7400  135.7020 O   0  0  0  0  0  1  0  0  0  0  0  0
  182.6390  182.1950  138.3260 C   0  0  0  0  0  1  0  0  0  0  0  0
  186.5160  177.7710  137.4320 O   0  0  0  0  0  0  0  0  0  0  0  0
  188.8560  178.2900  137.4420 C   0  0  0  0  0  1  0  0  0  0  0  0
  187.6290  178.0080  138.2830 C   0  0  0  0  0  2  0  0  0  0  0  0
  1  6  1  0  0  0  0
  3  5  1  1  0  0  0
  3 14  1  0  0  0  0
  3  9  1  0  0  0  0
  5  2  1  0  0  0  0
  6  7  2  0  0  0  0
  7  4  1  0  0  0  0
  8  2  1  6  0  0  0
  8 32  1  0  0  0  0
  8 10  1  0  0  0  0
  9 11  2  0  0  0  0
 11 10  1  0  0  0  0
 11  7  1  0  0  0  0
 12  9  1  0  0  0  0
 12  1  2  0  0  0  0
 13 23  1  6  0  0  0
 13 22  1  0  0  0  0
 14 19  1  0  0  0  0
 14 21  1  1  0  0  0
 15 16  1  0  0  0  0
 15 22  1  0  0  0  0
 15 24  1  1  0  0  0
 16 17  1  6  0  0  0
 16 14  1  0  0  0  0
 16 19  1  0  0  0  0
 18 20  1  0  0  0  0
 18 13  1  0  0  0  0
 19 21  1  1  0  0  0
 20 17  1  0  0  0  0
 22 23  1  6  0  0  0
 24 25  1  0  0  0  0
 26 34  1  1  0  0  0
 26 32  1  0  0  0  0
 28 27  2  0  0  0  0
 30 33  1  6  0  0  0
 30 31  1  0  0  0  0
 30 26  1  0  0  0  0
 31 29  1  1  0  0  0
 31 28  1  0  0  0  0
 32 27  1  6  0  0  0
 35  1  1  0  0  0  0
 35 37  1  0  0  0  0
 36 37  1  0  0  0  0
M  END
>  <MODEL>
5

>  <REMARK>
 VINA RESULT:      -4.0      2.701      8.064
  Name = 
  5 active torsions:
  status: ('A' for Active; 'I' for Inactive)
    1  A    between atoms: C_1  and  O_5
    2  A    between atoms: C_4  and  C_10
    3  A    between atoms: O_5  and  C_23
    4  A    between atoms: C_9  and  C_16
    5  A    between atoms: C_27  and  C_31
                            x       y       z     vdW  Elec       q    Type
                         _______ _______ _______ _____ _____    ______ ____

>  <TORSDO>
F 5

$$$$
=
 OpenBabel11052415253D

 37 43  0  0  1  0  0  0  0  0999 V2000
  192.0350  176.9490  139.7390 C   0  0  0  0  0  0  0  0  0  0  0  0
  191.5000  173.0900  136.6920 C   0  0  0  0  0  2  0  0  0  0  0  0
  189.8350  174.9130  137.4070 C   0  0  1  0  0  3  0  0  0  0  0  0
  194.3820  177.1810  136.7930 C   0  0  0  0  0  1  0  0  0  0  0  0
  190.1040  173.6760  136.5310 C   0  0  0  0  0  2  0  0  0  0  0  0
  193.1260  177.2660  138.9300 C   0  0  0  0  0  3  0  0  0  0  0  0
  193.2060  176.7840  137.6230 C   0  0  0  0  0  0  0  0  0  0  0  0
  192.5070  173.8190  135.7940 C   0  0  1  0  0  3  0  0  0  0  0  0
  191.0570  175.6650  137.9140 C   0  0  0  0  0  0  0  0  0  0  0  0
  192.3320  175.3460  135.7450 C   0  0  0  0  0  2  0  0  0  0  0  0
  192.1880  175.9540  137.1120 C   0  0  0  0  0  0  0  0  0  0  0  0
  191.0030  176.1590  139.2220 C   0  0  0  0  0  3  0  0  0  0  0  0
  184.3420  174.7670  136.5920 C   0  0  1  0  0  3  0  0  0  0  0  0
  188.7880  175.8110  136.7120 C   0  0  1  0  0  0  0  0  0  0  0  0
  186.4560  175.6570  135.4360 C   0  0  1  0  0  3  0  0  0  0  0  0
  187.4040  175.1680  136.5610 C   0  0  1  0  0  0  0  0  0  0  0  0
  187.3090  173.8100  136.9340 O   0  0  0  0  0  0  0  0  0  0  0  0
  185.0690  173.5690  136.4780 O   0  0  0  0  0  0  0  0  0  0  0  0
  187.6800  176.1140  137.7190 C   0  0  2  0  0  3  0  0  0  0  0  0
  186.0350  173.6060  137.4940 C   0  0  0  0  0  2  0  0  0  0  0  0
  188.6370  177.2070  137.3020 C   0  0  0  0  0  2  0  0  0  0  0  0
  185.0690  175.9860  135.9930 C   0  0  1  0  0  3  0  0  0  0  0  0
  183.9940  175.2680  135.2010 C   0  0  0  0  0  2  0  0  0  0  0  0
  186.9800  176.8190  134.5990 C   0  0  0  0  0  2  0  0  0  0  0  0
  186.2620  177.9760  134.8970 O   0  0  0  0  0  1  0  0  0  0  0  0
  194.1170  172.3900  137.2140 C   0  0  2  0  0  3  0  0  0  0  0  0
  194.6040  172.9580  134.7460 C   0  0  0  0  0  3  0  0  0  0  0  0
  195.2960  171.8210  134.6000 C   0  0  0  0  0  3  0  0  0  0  0  0
  196.7690  171.1190  136.3200 O   0  0  0  0  0  1  0  0  0  0  0  0
  194.4210  170.9470  136.7890 C   0  0  2  0  0  3  0  0  0  0  0  0
  195.5280  170.8660  135.7350 C   0  0  1  0  0  3  0  0  0  0  0  0
  193.9580  173.3840  136.0420 C   0  0  1  0  0  3  0  0  0  0  0  0
  193.2650  170.3230  136.3200 O   0  0  0  0  0  1  0  0  0  0  0  0
  195.1810  172.8880  138.1750 C   0  0  0  0  0  1  0  0  0  0  0  0
  191.9960  177.4430  141.0450 O   0  0  0  0  0  0  0  0  0  0  0  0
  191.4450  177.5680  143.3740 C   0  0  0  0  0  1  0  0  0  0  0  0
  191.1700  176.8790  142.0550 C   0  0  0  0  0  2  0  0  0  0  0  0
  1 35  1  0  0  0  0
  3  5  1  6  0  0  0
  3  9  1  0  0  0  0
  4  7  1  0  0  0  0
  5  2  1  0  0  0  0
  6  1  2  0  0  0  0
  7  6  1  0  0  0  0
  8 10  1  1  0  0  0
  8 32  1  0  0  0  0
  8  2  1  0  0  0  0
  9 12  2  0  0  0  0
 10 11  1  0  0  0  0
 11  7  2  0  0  0  0
 11  9  1  0  0  0  0
 12  1  1  0  0  0  0
 13 23  1  6  0  0  0
 14 21  1  6  0  0  0
 14  3  1  0  0  0  0
 14 19  1  0  0  0  0
 15 24  1  1  0  0  0
 15 22  1  0  0  0  0
 15 16  1  0  0  0  0
 16 14  1  0  0  0  0
 16 17  1  1  0  0  0
 16 19  1  0  0  0  0
 17 20  1  0  0  0  0
 18 13  1  0  0  0  0
 18 20  1  0  0  0  0
 19 21  1  6  0  0  0
 22 23  1  6  0  0  0
 22 13  1  0  0  0  0
 24 25  1  0  0  0  0
 26 34  1  1  0  0  0
 28 27  2  0  0  0  0
 28 31  1  0  0  0  0
 30 33  1  6  0  0  0
 30 26  1  0  0  0  0
 31 29  1  1  0  0  0
 31 30  1  0  0  0  0
 32 27  1  6  0  0  0
 32 26  1  0  0  0  0
 35 37  1  0  0  0  0
 37 36  1  0  0  0  0
M  END
>  <MODEL>
6

>  <REMARK>
 VINA RESULT:      -4.0      4.445      7.060
  Name = 
  5 active torsions:
  status: ('A' for Active; 'I' for Inactive)
    1  A    between atoms: C_1  and  O_5
    2  A    between atoms: C_4  and  C_10
    3  A    between atoms: O_5  and  C_23
    4  A    between atoms: C_9  and  C_16
    5  A    between atoms: C_27  and  C_31
                            x       y       z     vdW  Elec       q    Type
                         _______ _______ _______ _____ _____    ______ ____

>  <TORSDO>
F 5

$$$$
=
 OpenBabel11052415253D

 37 43  0  0  1  0  0  0  0  0999 V2000
  184.5800  178.6790  140.2370 C   0  0  0  0  0  0  0  0  0  0  0  0
  181.4820  179.0490  136.3990 C   0  0  0  0  0  2  0  0  0  0  0  0
  183.4560  177.4590  136.8200 C   0  0  1  0  0  3  0  0  0  0  0  0
  181.0100  178.0360  141.2780 C   0  0  0  0  0  1  0  0  0  0  0  0
  182.2950  177.8650  135.8950 C   0  0  0  0  0  2  0  0  0  0  0  0
  183.4150  178.5750  140.9960 C   0  0  0  0  0  3  0  0  0  0  0  0
  182.2180  178.1590  140.4100 C   0  0  0  0  0  0  0  0  0  0  0  0
  180.4020  178.5920  137.3870 C   0  0  1  0  0  3  0  0  0  0  0  0
  183.3630  177.9160  138.2690 C   0  0  0  0  0  0  0  0  0  0  0  0
  180.8610  177.5150  138.3850 C   0  0  0  0  0  2  0  0  0  0  0  0
  182.1740  177.8540  139.0350 C   0  0  0  0  0  0  0  0  0  0  0  0
  184.5490  178.3390  138.8800 C   0  0  0  0  0  3  0  0  0  0  0  0
  187.8650  174.3160  135.5780 C   0  0  1  0  0  3  0  0  0  0  0  0
  183.7370  175.9490  136.6530 C   0  0  1  0  0  0  0  0  0  0  0  0
  185.3120  174.2770  135.3060 C   0  0  1  0  0  3  0  0  0  0  0  0
  185.1070  175.6240  136.0470 C   0  0  1  0  0  0  0  0  0  0  0  0
  185.8600  176.7270  135.5910 O   0  0  0  0  0  0  0  0  0  0  0  0
  187.6850  175.5240  134.8810 O   0  0  0  0  0  0  0  0  0  0  0  0
  184.9140  175.5830  137.5550 C   0  0  2  0  0  3  0  0  0  0  0  0
  187.2180  176.4490  135.8270 C   0  0  0  0  0  2  0  0  0  0  0  0
  183.5220  175.1080  137.9040 C   0  0  0  0  0  2  0  0  0  0  0  0
  186.5530  173.5490  135.8270 C   0  0  1  0  0  3  0  0  0  0  0  0
  187.4630  173.1610  134.6770 C   0  0  0  0  0  2  0  0  0  0  0  0
  184.1080  173.3410  135.3090 C   0  0  0  0  0  2  0  0  0  0  0  0
  184.2780  172.3570  136.2820 O   0  0  0  0  0  1  0  0  0  0  0  0
  180.5460  180.5740  139.0310 C   0  0  2  0  0  3  0  0  0  0  0  0
  178.9310  180.5770  137.0200 C   0  0  0  0  0  3  0  0  0  0  0  0
  178.9950  181.9110  136.9440 C   0  0  0  0  0  3  0  0  0  0  0  0
  178.9510  183.2000  138.9340 O   0  0  0  0  0  1  0  0  0  0  0  0
  180.9600  181.9570  138.5110 C   0  0  2  0  0  3  0  0  0  0  0  0
  179.7860  182.7380  137.9160 C   0  0  1  0  0  3  0  0  0  0  0  0
  179.6650  179.7610  138.0560 C   0  0  1  0  0  3  0  0  0  0  0  0
  181.9830  181.8380  137.5700 O   0  0  0  0  0  1  0  0  0  0  0  0
  179.8480  180.7070  140.3720 C   0  0  0  0  0  1  0  0  0  0  0  0
  185.7550  179.1080  140.8580 O   0  0  0  0  0  0  0  0  0  0  0  0
  187.9540  178.2360  141.2390 C   0  0  0  0  0  1  0  0  0  0  0  0
  186.5190  178.2720  141.7170 C   0  0  0  0  0  2  0  0  0  0  0  0
  1 35  1  0  0  0  0
  1  6  1  0  0  0  0
  3  5  1  6  0  0  0
  3  9  1  0  0  0  0
  5  2  1  0  0  0  0
  7  6  2  0  0  0  0
  7  4  1  0  0  0  0
  8  2  1  1  0  0  0
  8 32  1  0  0  0  0
  8 10  1  0  0  0  0
  9 12  1  0  0  0  0
  9 11  2  0  0  0  0
 10 11  1  0  0  0  0
 11  7  1  0  0  0  0
 12  1  2  0  0  0  0
 13 23  1  6  0  0  0
 13 22  1  0  0  0  0
 14  3  1  0  0  0  0
 14 19  1  0  0  0  0
 14 21  1  6  0  0  0
 15 24  1  1  0  0  0
 15 22  1  0  0  0  0
 15 16  1  0  0  0  0
 16 17  1  6  0  0  0
 16 14  1  0  0  0  0
 16 19  1  0  0  0  0
 17 20  1  0  0  0  0
 18 13  1  0  0  0  0
 18 20  1  0  0  0  0
 19 21  1  6  0  0  0
 22 23  1  6  0  0  0
 24 25  1  0  0  0  0
 26 34  1  1  0  0  0
 28 27  2  0  0  0  0
 28 31  1  0  0  0  0
 30 33  1  6  0  0  0
 30 26  1  0  0  0  0
 31 30  1  0  0  0  0
 31 29  1  1  0  0  0
 32 27  1  6  0  0  0
 32 26  1  0  0  0  0
 35 37  1  0  0  0  0
 36 37  1  0  0  0  0
M  END
>  <MODEL>
7

>  <REMARK>
 VINA RESULT:      -3.8      1.939      8.055
  Name = 
  5 active torsions:
  status: ('A' for Active; 'I' for Inactive)
    1  A    between atoms: C_1  and  O_5
    2  A    between atoms: C_4  and  C_10
    3  A    between atoms: O_5  and  C_23
    4  A    between atoms: C_9  and  C_16
    5  A    between atoms: C_27  and  C_31
                            x       y       z     vdW  Elec       q    Type
                         _______ _______ _______ _____ _____    ______ ____

>  <TORSDO>
F 5

$$$$
=
 OpenBabel11052415253D

 37 43  0  0  1  0  0  0  0  0999 V2000
  180.5260  179.6820  141.2000 C   0  0  0  0  0  0  0  0  0  0  0  0
  183.9970  177.6750  138.3040 C   0  0  0  0  0  2  0  0  0  0  0  0
  184.1590  178.7240  140.6440 C   0  0  1  0  0  3  0  0  0  0  0  0
  179.8000  176.0470  140.4910 C   0  0  0  0  0  1  0  0  0  0  0  0
  184.8850  177.9980  139.4970 C   0  0  0  0  0  2  0  0  0  0  0  0
  179.8590  178.4720  141.0130 C   0  0  0  0  0  3  0  0  0  0  0  0
  180.5610  177.3210  140.6470 C   0  0  0  0  0  0  0  0  0  0  0  0
  183.2420  176.3580  138.5230 C   0  0  1  0  0  3  0  0  0  0  0  0
  182.6430  178.5950  140.6780 C   0  0  0  0  0  0  0  0  0  0  0  0
  182.6900  176.1660  139.9460 C   0  0  0  0  0  2  0  0  0  0  0  0
  181.9550  177.3780  140.4470 C   0  0  0  0  0  0  0  0  0  0  0  0
  181.9150  179.7330  141.0410 C   0  0  0  0  0  3  0  0  0  0  0  0
  189.3910  178.3960  142.4810 C   0  0  1  0  0  3  0  0  0  0  0  0
  184.8500  178.3820  141.9820 C   0  0  1  0  0  0  0  0  0  0  0  0
  187.1010  177.3230  142.9320 C   0  0  1  0  0  3  0  0  0  0  0  0
  186.3680  178.1940  141.8800 C   0  0  1  0  0  0  0  0  0  0  0  0
  186.9080  178.2120  140.5750 O   0  0  0  0  0  0  0  0  0  0  0  0
  189.1010  177.9130  141.1940 O   0  0  0  0  0  0  0  0  0  0  0  0
  185.7960  179.5270  142.3340 C   0  0  2  0  0  3  0  0  0  0  0  0
  188.1780  178.8130  140.6420 C   0  0  0  0  0  2  0  0  0  0  0  0
  184.5310  179.3220  143.1360 C   0  0  0  0  0  2  0  0  0  0  0  0
  188.3010  178.0690  143.5200 C   0  0  1  0  0  3  0  0  0  0  0  0
  189.5530  177.2190  143.4270 C   0  0  0  0  0  2  0  0  0  0  0  0
  186.2220  176.7710  144.0490 C   0  0  0  0  0  2  0  0  0  0  0  0
  186.5960  177.3350  145.2670 O   0  0  0  0  0  1  0  0  0  0  0  0
  182.7640  176.1950  135.9940 C   0  0  2  0  0  3  0  0  0  0  0  0
  181.4750  174.7820  137.7250 C   0  0  0  0  0  3  0  0  0  0  0  0
  181.2870  173.8120  136.8230 C   0  0  0  0  0  3  0  0  0  0  0  0
  180.7140  174.3820  134.5940 O   0  0  0  0  0  1  0  0  0  0  0  0
  182.9670  174.8560  135.2720 C   0  0  2  0  0  3  0  0  0  0  0  0
  181.7570  173.9280  135.4020 C   0  0  1  0  0  3  0  0  0  0  0  0
  182.2040  176.0710  137.4290 C   0  0  1  0  0  3  0  0  0  0  0  0
  184.1140  174.2170  135.7430 O   0  0  0  0  0  1  0  0  0  0  0  0
  181.8740  177.1060  135.1670 C   0  0  0  0  0  1  0  0  0  0  0  0
  179.7870  180.8120  141.5560 O   0  0  0  0  0  0  0  0  0  0  0  0
  180.0550  181.6920  139.3430 C   0  0  0  0  0  1  0  0  0  0  0  0
  179.2040  181.6830  140.5940 C   0  0  0  0  0  2  0  0  0  0  0  0
  1 35  1  0  0  0  0
  2  5  1  0  0  0  0
  3  5  1  6  0  0  0
  3  9  1  0  0  0  0
  3 14  1  0  0  0  0
  4  7  1  0  0  0  0
  6  1  2  0  0  0  0
  7  6  1  0  0  0  0
  8  2  1  1  0  0  0
  8 10  1  0  0  0  0
  9 12  2  0  0  0  0
 10 11  1  0  0  0  0
 11  7  2  0  0  0  0
 11  9  1  0  0  0  0
 12  1  1  0  0  0  0
 13 23  1  1  0  0  0
 13 22  1  0  0  0  0
 14 19  1  0  0  0  0
 14 21  1  1  0  0  0
 15 22  1  0  0  0  0
 15 24  1  1  0  0  0
 16 17  1  6  0  0  0
 16 14  1  0  0  0  0
 16 19  1  0  0  0  0
 16 15  1  0  0  0  0
 17 20  1  0  0  0  0
 18 13  1  0  0  0  0
 19 21  1  1  0  0  0
 20 18  1  0  0  0  0
 22 23  1  1  0  0  0
 24 25  1  0  0  0  0
 26 34  1  6  0  0  0
 26 32  1  0  0  0  0
 28 27  2  0  0  0  0
 30 31  1  0  0  0  0
 30 33  1  1  0  0  0
 30 26  1  0  0  0  0
 31 29  1  6  0  0  0
 31 28  1  0  0  0  0
 32 27  1  1  0  0  0
 32  8  1  0  0  0  0
 36 37  1  0  0  0  0
 37 35  1  0  0  0  0
M  END
>  <MODEL>
8

>  <REMARK>
 VINA RESULT:      -3.8      2.823      6.963
  Name = 
  5 active torsions:
  status: ('A' for Active; 'I' for Inactive)
    1  A    between atoms: C_1  and  O_5
    2  A    between atoms: C_4  and  C_10
    3  A    between atoms: O_5  and  C_23
    4  A    between atoms: C_9  and  C_16
    5  A    between atoms: C_27  and  C_31
                            x       y       z     vdW  Elec       q    Type
                         _______ _______ _______ _____ _____    ______ ____

>  <TORSDO>
F 5

$$$$
=
 OpenBabel11052415253D

 37 43  0  0  1  0  0  0  0  0999 V2000
  182.6680  178.4750  141.5180 C   0  0  0  0  0  0  0  0  0  0  0  0
  181.2850  179.5570  136.8940 C   0  0  0  0  0  2  0  0  0  0  0  0
  182.4670  177.4870  137.8550 C   0  0  1  0  0  3  0  0  0  0  0  0
  178.9300  178.9250  141.2650 C   0  0  0  0  0  1  0  0  0  0  0  0
  181.8500  178.1700  136.6220 C   0  0  0  0  0  2  0  0  0  0  0  0
  181.3370  178.7400  141.8360 C   0  0  0  0  0  3  0  0  0  0  0  0
  180.3420  178.6600  140.8590 C   0  0  0  0  0  0  0  0  0  0  0  0
  179.8530  179.4700  137.4350 C   0  0  1  0  0  3  0  0  0  0  0  0
  182.0240  178.0110  139.2140 C   0  0  0  0  0  0  0  0  0  0  0  0
  179.6250  178.3490  138.4620 C   0  0  0  0  0  2  0  0  0  0  0  0
  180.6800  178.3250  139.5340 C   0  0  0  0  0  0  0  0  0  0  0  0
  183.0020  178.1020  140.2110 C   0  0  0  0  0  3  0  0  0  0  0  0
  185.9660  173.2650  136.9730 C   0  0  1  0  0  3  0  0  0  0  0  0
  182.3470  175.9550  137.7030 C   0  0  1  0  0  0  0  0  0  0  0  0
  183.5270  173.9020  136.4840 C   0  0  1  0  0  3  0  0  0  0  0  0
  183.6270  175.2670  137.2140 C   0  0  1  0  0  0  0  0  0  0  0  0
  184.6820  176.1220  136.8310 O   0  0  0  0  0  0  0  0  0  0  0  0
  186.1740  174.4650  136.2720 O   0  0  0  0  0  0  0  0  0  0  0  0
  183.3040  175.3030  138.6990 C   0  0  2  0  0  3  0  0  0  0  0  0
  185.8930  175.4960  137.1810 C   0  0  0  0  0  2  0  0  0  0  0  0
  181.8110  175.2220  138.9240 C   0  0  0  0  0  2  0  0  0  0  0  0
  184.4800  172.8780  137.1030 C   0  0  1  0  0  3  0  0  0  0  0  0
  185.3480  172.2440  136.0330 C   0  0  0  0  0  2  0  0  0  0  0  0
  182.1210  173.3210  136.3770 C   0  0  0  0  0  2  0  0  0  0  0  0
  182.0230  172.1760  137.1660 O   0  0  0  0  0  1  0  0  0  0  0  0
  180.1730  181.5360  138.9440 C   0  0  2  0  0  3  0  0  0  0  0  0
  178.9310  181.6670  136.6880 C   0  0  0  0  0  3  0  0  0  0  0  0
  179.2980  182.9450  136.5360 C   0  0  0  0  0  3  0  0  0  0  0  0
  179.2300  184.4110  138.3990 O   0  0  0  0  0  1  0  0  0  0  0  0
  180.9570  182.7440  138.4140 C   0  0  2  0  0  3  0  0  0  0  0  0
  180.0910  183.6860  137.5740 C   0  0  1  0  0  3  0  0  0  0  0  0
  179.2980  180.8270  137.8870 C   0  0  1  0  0  3  0  0  0  0  0  0
  182.0630  182.3220  137.6750 O   0  0  0  0  0  1  0  0  0  0  0  0
  179.3220  181.9460  140.1320 C   0  0  0  0  0  1  0  0  0  0  0  0
  183.6360  178.5750  142.5200 O   0  0  0  0  0  0  0  0  0  0  0  0
  184.6000  179.0420  144.6630 C   0  0  0  0  0  1  0  0  0  0  0  0
  183.3580  179.1220  143.8020 C   0  0  0  0  0  2  0  0  0  0  0  0
  1  6  1  0  0  0  0
  1 35  1  0  0  0  0
  3  5  1  6  0  0  0
  3  9  1  0  0  0  0
  5  2  1  0  0  0  0
  7  4  1  0  0  0  0
  7  6  2  0  0  0  0
  8  2  1  1  0  0  0
  8 32  1  0  0  0  0
  8 10  1  0  0  0  0
  9 11  2  0  0  0  0
  9 12  1  0  0  0  0
 10 11  1  0  0  0  0
 11  7  1  0  0  0  0
 12  1  2  0  0  0  0
 13 23  1  6  0  0  0
 13 22  1  0  0  0  0
 14  3  1  0  0  0  0
 14 19  1  0  0  0  0
 14 21  1  6  0  0  0
 15 24  1  1  0  0  0
 15 22  1  0  0  0  0
 15 16  1  0  0  0  0
 16 17  1  6  0  0  0
 16 14  1  0  0  0  0
 16 19  1  0  0  0  0
 17 20  1  0  0  0  0
 18 13  1  0  0  0  0
 18 20  1  0  0  0  0
 19 21  1  6  0  0  0
 22 23  1  6  0  0  0
 24 25  1  0  0  0  0
 26 34  1  1  0  0  0
 28 27  2  0  0  0  0
 28 31  1  0  0  0  0
 30 33  1  6  0  0  0
 30 26  1  0  0  0  0
 31 29  1  1  0  0  0
 31 30  1  0  0  0  0
 32 27  1  6  0  0  0
 32 26  1  0  0  0  0
 35 37  1  0  0  0  0
 37 36  1  0  0  0  0
M  END
>  <MODEL>
9

>  <REMARK>
 VINA RESULT:      -3.8      2.704      8.376
  Name = 
  5 active torsions:
  status: ('A' for Active; 'I' for Inactive)
    1  A    between atoms: C_1  and  O_5
    2  A    between atoms: C_4  and  C_10
    3  A    between atoms: O_5  and  C_23
    4  A    between atoms: C_9  and  C_16
    5  A    between atoms: C_27  and  C_31
                            x       y       z     vdW  Elec       q    Type
                         _______ _______ _______ _____ _____    ______ ____

>  <TORSDO>
F 5

$$$$
