=
 OpenBabel11052415373D

 34 38  0  0  1  0  0  0  0  0999 V2000
  183.7000  178.6390  142.4610 C   0  0  0  0  0  0  0  0  0  0  0  0
  187.2330  177.7210  143.1040 C   0  0  0  0  0  3  0  0  0  0  0  0
  186.2170  178.5650  141.2350 N   0  0  0  0  0  2  0  0  0  0  0  0
  181.5480  179.2460  140.2010 C   0  0  0  0  0  0  0  0  0  0  0  0
  182.5660  178.7600  143.0000 O   0  0  0  0  0  0  0  0  0  0  0  0
  182.9770  179.1950  140.1320 N   0  0  0  0  0  0  0  0  0  0  0  0
  183.6460  179.4350  139.0090 N   0  0  0  0  0  0  0  0  0  0  0  0
  180.9300  180.1880  139.6400 O   0  0  0  0  0  0  0  0  0  0  0  0
  185.1020  178.8770  140.5390 C   0  0  0  0  0  0  0  0  0  0  0  0
  183.8640  178.8510  141.0890 C   0  0  0  0  0  0  0  0  0  0  0  0
  184.9730  179.2440  139.2200 C   0  0  0  0  0  3  0  0  0  0  0  0
  187.3130  177.0150  144.4130 C   0  0  0  0  0  2  0  0  0  0  0  0
  186.9480  177.8850  145.5600 C   0  0  0  0  0  0  0  0  0  0  0  0
  185.7370  178.4300  145.6400 C   0  0  0  0  0  3  0  0  0  0  0  0
  186.1290  178.2410  142.5600 C   0  0  0  0  0  0  0  0  0  0  0  0
  184.7120  178.4390  144.5800 C   0  0  0  0  0  3  0  0  0  0  0  0
  184.8610  178.3700  143.2400 C   0  0  0  0  0  0  0  0  0  0  0  0
  187.8820  178.0010  146.6940 C   0  0  0  0  0  0  0  0  0  0  0  0
  187.3960  178.2510  147.9730 O   0  0  0  0  0  1  0  0  0  0  0  0
  189.1240  177.8710  146.5220 O   0  0  0  0  0  0  0  0  0  0  0  0
  180.6070  177.9080  140.9390 S   0  0  0  0  0  0  0  0  0  0  0  0
  180.0670  175.7490  137.5130 C   0  0  0  0  0  3  0  0  0  0  0  0
  182.1420  176.2030  139.3900 C   0  0  0  0  0  3  0  0  0  0  0  0
  181.6340  174.2880  136.3600 N   0  0  0  0  0  0  0  0  0  0  0  0
  181.3100  175.1310  137.3710 C   0  0  0  0  0  0  0  0  0  0  0  0
  183.6800  174.4900  137.8540 S   0  0  0  0  0  0  0  0  0  0  0  0
  182.3170  175.3620  138.2950 C   0  0  0  0  0  0  0  0  0  0  0  0
  182.9080  173.8420  136.4940 C   0  0  0  0  0  0  0  0  0  0  0  0
  180.8930  176.8260  139.5460 C   0  0  0  0  0  0  0  0  0  0  0  0
  179.8630  176.6020  138.6100 C   0  0  0  0  0  3  0  0  0  0  0  0
  183.5730  172.9300  135.5150 C   0  0  1  0  0  3  0  0  0  0  0  0
  184.5670  173.6100  134.8100 O   0  0  0  0  0  1  0  0  0  0  0  0
  184.1530  171.7010  136.2050 C   0  0  0  0  0  2  0  0  0  0  0  0
  183.1700  171.0380  136.9430 O   0  0  0  0  0  1  0  0  0  0  0  0
  1  5  2  0  0  0  0
  1 17  1  0  0  0  0
  2 12  1  0  0  0  0
  3 15  1  0  0  0  0
  4 21  1  0  0  0  0
  6  4  1  0  0  0  0
  6 10  1  0  0  0  0
  7 11  2  0  0  0  0
  7  6  1  0  0  0  0
  8  4  2  0  0  0  0
  9 10  2  0  0  0  0
  9  3  1  0  0  0  0
 10  1  1  0  0  0  0
 11  9  1  0  0  0  0
 12 13  1  0  0  0  0
 13 14  2  0  0  0  0
 13 18  1  0  0  0  0
 15  2  2  0  0  0  0
 15 17  1  0  0  0  0
 16 14  1  0  0  0  0
 17 16  2  0  0  0  0
 18 19  1  0  0  0  0
 20 18  2  0  0  0  0
 22 30  1  0  0  0  0
 23 29  1  0  0  0  0
 24 28  2  0  0  0  0
 24 25  1  0  0  0  0
 25 22  2  0  0  0  0
 25 27  1  0  0  0  0
 26 27  1  0  0  0  0
 27 23  2  0  0  0  0
 28 26  1  0  0  0  0
 29 21  1  0  0  0  0
 30 29  2  0  0  0  0
 31 32  1  1  0  0  0
 31 33  1  0  0  0  0
 31 28  1  0  0  0  0
 33 34  1  0  0  0  0
M  END
>  <MODEL>
1

>  <REMARK>
 VINA RESULT:      -8.0      0.000      0.000
  Name = 
  5 active torsions:
  status: ('A' for Active; 'I' for Inactive)
    1  A    between atoms: C_3  and  C_25
    2  A    between atoms: C_7  and  C_11
    3  A    between atoms: C_7  and  C_29
    4  A    between atoms: C_8  and  S_18
    5  A    between atoms: S_18  and  C_30
                            x       y       z     vdW  Elec       q    Type
                         _______ _______ _______ _____ _____    ______ ____

>  <TORSDO>
F 5

$$$$
=
 OpenBabel11052415373D

 34 38  0  0  1  0  0  0  0  0999 V2000
  188.0860  177.7240  141.1060 C   0  0  0  0  0  0  0  0  0  0  0  0
  188.0950  177.4790  144.8040 C   0  0  0  0  0  3  0  0  0  0  0  0
  189.8180  177.5890  143.3020 N   0  0  0  0  0  2  0  0  0  0  0  0
  189.8340  177.3530  138.4770 C   0  0  0  0  0  0  0  0  0  0  0  0
  187.3400  177.8640  140.0980 O   0  0  0  0  0  0  0  0  0  0  0  0
  190.2320  177.4570  139.8490 N   0  0  0  0  0  0  0  0  0  0  0  0
  191.5050  177.4260  140.2280 N   0  0  0  0  0  0  0  0  0  0  0  0
  190.4610  177.9990  137.5960 O   0  0  0  0  0  0  0  0  0  0  0  0
  190.2800  177.5380  142.0330 C   0  0  0  0  0  0  0  0  0  0  0  0
  189.4610  177.5300  140.9540 C   0  0  0  0  0  0  0  0  0  0  0  0
  191.5780  177.4700  141.5820 C   0  0  0  0  0  3  0  0  0  0  0  0
  186.7040  177.2180  145.2690 C   0  0  0  0  0  2  0  0  0  0  0  0
  185.7790  178.3430  144.9810 C   0  0  0  0  0  0  0  0  0  0  0  0
  185.5570  178.7350  143.7290 C   0  0  0  0  0  3  0  0  0  0  0  0
  188.4750  177.6730  143.5370 C   0  0  0  0  0  0  0  0  0  0  0  0
  186.3010  178.2990  142.5330 C   0  0  0  0  0  3  0  0  0  0  0  0
  187.5680  177.8470  142.4260 C   0  0  0  0  0  0  0  0  0  0  0  0
  184.9790  178.9090  146.0810 C   0  0  0  0  0  0  0  0  0  0  0  0
  185.5930  179.2660  147.2770 O   0  0  0  0  0  1  0  0  0  0  0  0
  183.7370  179.0810  145.9520 O   0  0  0  0  0  0  0  0  0  0  0  0
  188.5610  176.1970  137.9660 S   0  0  0  0  0  0  0  0  0  0  0  0
  190.2690  173.1760  135.8100 C   0  0  0  0  0  3  0  0  0  0  0  0
  191.0920  175.1020  137.7200 C   0  0  0  0  0  3  0  0  0  0  0  0
  192.5790  172.4120  135.8090 N   0  0  0  0  0  0  0  0  0  0  0  0
  191.5940  173.2360  136.2430 C   0  0  0  0  0  0  0  0  0  0  0  0
  193.6220  174.0070  137.4890 S   0  0  0  0  0  0  0  0  0  0  0  0
  191.9840  174.1830  137.1770 C   0  0  0  0  0  0  0  0  0  0  0  0
  193.7570  172.7060  136.4140 C   0  0  0  0  0  0  0  0  0  0  0  0
  189.7540  175.0480  137.2950 C   0  0  0  0  0  0  0  0  0  0  0  0
  189.3470  174.0920  136.3430 C   0  0  0  0  0  3  0  0  0  0  0  0
  195.0400  172.0020  136.1150 C   0  0  1  0  0  3  0  0  0  0  0  0
  196.1170  172.8860  136.2090 O   0  0  0  0  0  1  0  0  0  0  0  0
  195.2460  170.8080  137.0380 C   0  0  0  0  0  2  0  0  0  0  0  0
  195.4390  171.2270  138.3560 O   0  0  0  0  0  1  0  0  0  0  0  0
  1 17  1  0  0  0  0
  2 12  1  0  0  0  0
  3 15  1  0  0  0  0
  4  6  1  0  0  0  0
  5  1  2  0  0  0  0
  6  7  1  0  0  0  0
  6 10  1  0  0  0  0
  7 11  2  0  0  0  0
  8  4  2  0  0  0  0
  9  3  1  0  0  0  0
 10  1  1  0  0  0  0
 10  9  2  0  0  0  0
 11  9  1  0  0  0  0
 13 12  1  0  0  0  0
 13 18  1  0  0  0  0
 14 13  2  0  0  0  0
 15  2  2  0  0  0  0
 16 14  1  0  0  0  0
 17 16  2  0  0  0  0
 17 15  1  0  0  0  0
 18 19  1  0  0  0  0
 20 18  2  0  0  0  0
 21  4  1  0  0  0  0
 22 25  2  0  0  0  0
 22 30  1  0  0  0  0
 24 25  1  0  0  0  0
 24 28  2  0  0  0  0
 25 27  1  0  0  0  0
 27 26  1  0  0  0  0
 27 23  2  0  0  0  0
 28 26  1  0  0  0  0
 29 23  1  0  0  0  0
 29 21  1  0  0  0  0
 30 29  2  0  0  0  0
 31 32  1  1  0  0  0
 31 28  1  0  0  0  0
 31 33  1  0  0  0  0
 33 34  1  0  0  0  0
M  END
>  <MODEL>
2

>  <REMARK>
 VINA RESULT:      -7.9      6.399      7.895
  Name = 
  5 active torsions:
  status: ('A' for Active; 'I' for Inactive)
    1  A    between atoms: C_3  and  C_25
    2  A    between atoms: C_7  and  C_11
    3  A    between atoms: C_7  and  C_29
    4  A    between atoms: C_8  and  S_18
    5  A    between atoms: S_18  and  C_30
                            x       y       z     vdW  Elec       q    Type
                         _______ _______ _______ _____ _____    ______ ____

>  <TORSDO>
F 5

$$$$
=
 OpenBabel11052415373D

 34 38  0  0  1  0  0  0  0  0999 V2000
  184.5400  178.3980  142.4670 C   0  0  0  0  0  0  0  0  0  0  0  0
  184.8140  178.9510  146.1220 C   0  0  0  0  0  3  0  0  0  0  0  0
  182.9820  178.8270  144.7550 N   0  0  0  0  0  2  0  0  0  0  0  0
  182.6300  178.6600  139.9390 C   0  0  0  0  0  0  0  0  0  0  0  0
  185.2010  178.1270  141.4270 O   0  0  0  0  0  0  0  0  0  0  0  0
  182.3280  178.6960  141.3390 N   0  0  0  0  0  0  0  0  0  0  0  0
  181.0890  178.8400  141.7990 N   0  0  0  0  0  0  0  0  0  0  0  0
  181.9050  177.9830  139.1630 O   0  0  0  0  0  0  0  0  0  0  0  0
  182.4330  178.8010  143.5200 C   0  0  0  0  0  0  0  0  0  0  0  0
  183.1710  178.6670  142.3920 C   0  0  0  0  0  0  0  0  0  0  0  0
  181.1130  178.9130  143.1530 C   0  0  0  0  0  3  0  0  0  0  0  0
  186.2470  179.1610  146.4680 C   0  0  0  0  0  2  0  0  0  0  0  0
  187.0820  177.9580  146.2180 C   0  0  0  0  0  0  0  0  0  0  0  0
  187.1900  177.4500  144.9930 C   0  0  0  0  0  3  0  0  0  0  0  0
  184.3320  178.6770  144.9050 C   0  0  0  0  0  0  0  0  0  0  0  0
  186.3880  177.8320  143.8160 C   0  0  0  0  0  3  0  0  0  0  0  0
  185.1440  178.3530  143.7550 C   0  0  0  0  0  0  0  0  0  0  0  0
  187.9260  177.4370  147.3070 C   0  0  0  0  0  0  0  0  0  0  0  0
  189.0540  176.6770  147.0110 O   0  0  0  0  0  0  0  0  0  0  0  0
  187.6430  177.6740  148.5120 O   0  0  0  0  0  1  0  0  0  0  0  0
  183.9270  179.6850  139.2440 S   0  0  0  0  0  0  0  0  0  0  0  0
  184.3560  176.2760  137.0340 C   0  0  0  0  0  3  0  0  0  0  0  0
  186.0430  178.1960  138.2600 C   0  0  0  0  0  3  0  0  0  0  0  0
  186.3960  175.1650  136.3120 N   0  0  0  0  0  0  0  0  0  0  0  0
  185.7440  176.1640  136.9570 C   0  0  0  0  0  0  0  0  0  0  0  0
  188.1640  176.7070  137.2890 S   0  0  0  0  0  0  0  0  0  0  0  0
  186.5590  177.1090  137.5600 C   0  0  0  0  0  0  0  0  0  0  0  0
  187.7390  175.3210  136.4150 C   0  0  0  0  0  0  0  0  0  0  0  0
  184.6460  178.3160  138.3490 C   0  0  0  0  0  0  0  0  0  0  0  0
  183.8090  177.3630  137.7360 C   0  0  0  0  0  3  0  0  0  0  0  0
  188.7310  174.4050  135.7750 C   0  0  1  0  0  3  0  0  0  0  0  0
  189.8390  175.1220  135.3210 O   0  0  0  0  0  1  0  0  0  0  0  0
  189.1630  173.2990  136.7290 C   0  0  0  0  0  2  0  0  0  0  0  0
  190.2480  173.7120  137.5060 O   0  0  0  0  0  1  0  0  0  0  0  0
  1 17  1  0  0  0  0
  2 12  1  0  0  0  0
  3 15  1  0  0  0  0
  4  6  1  0  0  0  0
  5  1  2  0  0  0  0
  6  7  1  0  0  0  0
  6 10  1  0  0  0  0
  7 11  2  0  0  0  0
  8  4  2  0  0  0  0
  9  3  1  0  0  0  0
 10  1  1  0  0  0  0
 10  9  2  0  0  0  0
 11  9  1  0  0  0  0
 13 12  1  0  0  0  0
 13 18  1  0  0  0  0
 14 13  2  0  0  0  0
 15  2  2  0  0  0  0
 16 14  1  0  0  0  0
 17 16  2  0  0  0  0
 17 15  1  0  0  0  0
 18 20  1  0  0  0  0
 19 18  2  0  0  0  0
 21  4  1  0  0  0  0
 22 30  1  0  0  0  0
 23 29  1  0  0  0  0
 24 28  2  0  0  0  0
 24 25  1  0  0  0  0
 25 22  2  0  0  0  0
 25 27  1  0  0  0  0
 26 27  1  0  0  0  0
 27 23  2  0  0  0  0
 28 26  1  0  0  0  0
 29 21  1  0  0  0  0
 30 29  2  0  0  0  0
 31 32  1  1  0  0  0
 31 28  1  0  0  0  0
 31 33  1  0  0  0  0
 33 34  1  0  0  0  0
M  END
>  <MODEL>
3

>  <REMARK>
 VINA RESULT:      -7.8      3.091      3.894
  Name = 
  5 active torsions:
  status: ('A' for Active; 'I' for Inactive)
    1  A    between atoms: C_3  and  C_25
    2  A    between atoms: C_7  and  C_11
    3  A    between atoms: C_7  and  C_29
    4  A    between atoms: C_8  and  S_18
    5  A    between atoms: S_18  and  C_30
                            x       y       z     vdW  Elec       q    Type
                         _______ _______ _______ _____ _____    ______ ____

>  <TORSDO>
F 5

$$$$
=
 OpenBabel11052415373D

 34 38  0  0  1  0  0  0  0  0999 V2000
  187.4930  178.1390  140.9950 C   0  0  0  0  0  0  0  0  0  0  0  0
  187.9620  177.1650  144.5410 C   0  0  0  0  0  3  0  0  0  0  0  0
  189.4640  177.3510  142.8230 N   0  0  0  0  0  2  0  0  0  0  0  0
  188.7930  178.0790  138.0940 C   0  0  0  0  0  0  0  0  0  0  0  0
  186.6500  178.5700  140.1620 O   0  0  0  0  0  0  0  0  0  0  0  0
  189.3830  177.8570  139.3810 N   0  0  0  0  0  0  0  0  0  0  0  0
  190.6760  177.5910  139.5370 N   0  0  0  0  0  0  0  0  0  0  0  0
  189.3880  178.8030  137.2530 O   0  0  0  0  0  0  0  0  0  0  0  0
  189.7370  177.4960  141.5080 C   0  0  0  0  0  0  0  0  0  0  0  0
  188.7890  177.8060  140.5910 C   0  0  0  0  0  0  0  0  0  0  0  0
  190.9360  177.3550  140.8480 C   0  0  0  0  0  3  0  0  0  0  0  0
  186.6230  176.9940  145.1700 C   0  0  0  0  0  2  0  0  0  0  0  0
  185.8540  178.2630  145.2400 C   0  0  0  0  0  0  0  0  0  0  0  0
  185.5290  178.9210  144.1300 C   0  0  0  0  0  3  0  0  0  0  0  0
  188.1930  177.5570  143.2830 C   0  0  0  0  0  0  0  0  0  0  0  0
  186.0270  178.6400  142.7710 C   0  0  0  0  0  3  0  0  0  0  0  0
  187.1840  178.0610  142.3820 C   0  0  0  0  0  0  0  0  0  0  0  0
  185.3060  178.6950  146.5370 C   0  0  0  0  0  0  0  0  0  0  0  0
  186.0320  179.5660  147.3440 O   0  0  0  0  0  1  0  0  0  0  0  0
  184.1790  178.2890  146.9290 O   0  0  0  0  0  0  0  0  0  0  0  0
  187.2990  177.2190  137.5990 S   0  0  0  0  0  0  0  0  0  0  0  0
  188.2720  173.4850  136.2550 C   0  0  0  0  0  3  0  0  0  0  0  0
  189.5730  175.9760  136.6250 C   0  0  0  0  0  3  0  0  0  0  0  0
  190.4140  172.6560  135.4530 N   0  0  0  0  0  0  0  0  0  0  0  0
  189.6220  173.6420  135.9450 C   0  0  0  0  0  0  0  0  0  0  0  0
  191.8540  174.7390  135.6640 S   0  0  0  0  0  0  0  0  0  0  0  0
  190.2480  174.8650  136.1290 C   0  0  0  0  0  0  0  0  0  0  0  0
  191.6780  173.1060  135.2560 C   0  0  0  0  0  0  0  0  0  0  0  0
  188.2140  175.8290  136.9470 C   0  0  0  0  0  0  0  0  0  0  0  0
  187.5670  174.5910  136.7600 C   0  0  0  0  0  3  0  0  0  0  0  0
  192.7750  172.2680  134.6830 C   0  0  1  0  0  3  0  0  0  0  0  0
  193.9590  173.0020  134.6000 O   0  0  0  0  0  1  0  0  0  0  0  0
  192.9880  170.9990  135.4980 C   0  0  0  0  0  2  0  0  0  0  0  0
  192.1310  169.9840  135.0690 O   0  0  0  0  0  1  0  0  0  0  0  0
  1 17  1  0  0  0  0
  2 12  1  0  0  0  0
  3 15  1  0  0  0  0
  4  6  1  0  0  0  0
  5  1  2  0  0  0  0
  6  7  1  0  0  0  0
  6 10  1  0  0  0  0
  7 11  2  0  0  0  0
  8  4  2  0  0  0  0
  9  3  1  0  0  0  0
 10  1  1  0  0  0  0
 10  9  2  0  0  0  0
 11  9  1  0  0  0  0
 12 13  1  0  0  0  0
 13 18  1  0  0  0  0
 14 13  2  0  0  0  0
 15  2  2  0  0  0  0
 16 14  1  0  0  0  0
 17 16  2  0  0  0  0
 17 15  1  0  0  0  0
 18 20  2  0  0  0  0
 18 19  1  0  0  0  0
 21  4  1  0  0  0  0
 22 30  1  0  0  0  0
 23 29  1  0  0  0  0
 24 25  1  0  0  0  0
 25 27  1  0  0  0  0
 25 22  2  0  0  0  0
 26 27  1  0  0  0  0
 27 23  2  0  0  0  0
 28 24  2  0  0  0  0
 28 26  1  0  0  0  0
 29 21  1  0  0  0  0
 30 29  2  0  0  0  0
 31 32  1  1  0  0  0
 31 28  1  0  0  0  0
 31 33  1  0  0  0  0
 34 33  1  0  0  0  0
M  END
>  <MODEL>
4

>  <REMARK>
 VINA RESULT:      -7.5      5.278      6.585
  Name = 
  5 active torsions:
  status: ('A' for Active; 'I' for Inactive)
    1  A    between atoms: C_3  and  C_25
    2  A    between atoms: C_7  and  C_11
    3  A    between atoms: C_7  and  C_29
    4  A    between atoms: C_8  and  S_18
    5  A    between atoms: S_18  and  C_30
                            x       y       z     vdW  Elec       q    Type
                         _______ _______ _______ _____ _____    ______ ____

>  <TORSDO>
F 5

$$$$
=
 OpenBabel11052415373D

 34 38  0  0  1  0  0  0  0  0999 V2000
  184.7530  178.3150  142.8500 C   0  0  0  0  0  0  0  0  0  0  0  0
  185.2240  178.9640  146.4690 C   0  0  0  0  0  3  0  0  0  0  0  0
  183.3290  178.9120  145.1870 N   0  0  0  0  0  2  0  0  0  0  0  0
  182.7510  178.6160  140.4000 C   0  0  0  0  0  0  0  0  0  0  0  0
  185.3490  177.9700  141.7930 O   0  0  0  0  0  0  0  0  0  0  0  0
  182.5150  178.7150  141.8090 N   0  0  0  0  0  0  0  0  0  0  0  0
  181.3090  178.9510  142.3160 N   0  0  0  0  0  0  0  0  0  0  0  0
  181.9520  177.9620  139.6790 O   0  0  0  0  0  0  0  0  0  0  0  0
  182.7240  178.8820  143.9790 C   0  0  0  0  0  0  0  0  0  0  0  0
  183.4010  178.6660  142.8250 C   0  0  0  0  0  0  0  0  0  0  0  0
  181.3980  179.0650  143.6650 C   0  0  0  0  0  3  0  0  0  0  0  0
  186.6820  179.0950  146.7460 C   0  0  0  0  0  2  0  0  0  0  0  0
  187.4290  177.8340  146.5020 C   0  0  0  0  0  0  0  0  0  0  0  0
  187.4500  177.2820  145.2920 C   0  0  0  0  0  3  0  0  0  0  0  0
  184.6720  178.6830  145.2840 C   0  0  0  0  0  0  0  0  0  0  0  0
  186.6210  177.6760  144.1380 C   0  0  0  0  0  3  0  0  0  0  0  0
  185.4100  178.2730  144.1130 C   0  0  0  0  0  0  0  0  0  0  0  0
  188.2880  177.2950  147.5710 C   0  0  0  0  0  0  0  0  0  0  0  0
  189.4470  176.5960  147.2470 O   0  0  0  0  0  0  0  0  0  0  0  0
  187.9890  177.4630  148.7830 O   0  0  0  0  0  1  0  0  0  0  0  0
  184.0760  179.5350  139.6150 S   0  0  0  0  0  0  0  0  0  0  0  0
  183.3660  177.0430  136.4560 C   0  0  0  0  0  3  0  0  0  0  0  0
  185.5140  177.6330  138.2090 C   0  0  0  0  0  3  0  0  0  0  0  0
  184.8570  175.4240  135.4170 N   0  0  0  0  0  0  0  0  0  0  0  0
  184.5880  176.3790  136.3430 C   0  0  0  0  0  0  0  0  0  0  0  0
  186.9560  175.7250  136.8170 S   0  0  0  0  0  0  0  0  0  0  0  0
  185.6310  176.6770  137.2050 C   0  0  0  0  0  0  0  0  0  0  0  0
  186.1230  174.9590  135.5580 C   0  0  0  0  0  0  0  0  0  0  0  0
  184.2880  178.3040  138.3370 C   0  0  0  0  0  0  0  0  0  0  0  0
  183.2210  178.0120  137.4630 C   0  0  0  0  0  3  0  0  0  0  0  0
  186.7310  173.9300  134.6610 C   0  0  1  0  0  3  0  0  0  0  0  0
  188.0260  173.6190  135.0810 O   0  0  0  0  0  1  0  0  0  0  0  0
  185.8740  172.6730  134.5960 C   0  0  0  0  0  2  0  0  0  0  0  0
  186.4350  171.6500  135.3640 O   0  0  0  0  0  1  0  0  0  0  0  0
  1 17  1  0  0  0  0
  2 12  1  0  0  0  0
  3 15  1  0  0  0  0
  4  6  1  0  0  0  0
  5  1  2  0  0  0  0
  6  7  1  0  0  0  0
  6 10  1  0  0  0  0
  7 11  2  0  0  0  0
  8  4  2  0  0  0  0
  9  3  1  0  0  0  0
 10  1  1  0  0  0  0
 10  9  2  0  0  0  0
 11  9  1  0  0  0  0
 13 12  1  0  0  0  0
 13 18  1  0  0  0  0
 14 13  2  0  0  0  0
 15  2  2  0  0  0  0
 16 14  1  0  0  0  0
 17 16  2  0  0  0  0
 17 15  1  0  0  0  0
 18 20  1  0  0  0  0
 19 18  2  0  0  0  0
 21  4  1  0  0  0  0
 22 30  1  0  0  0  0
 23 29  1  0  0  0  0
 24 28  2  0  0  0  0
 24 25  1  0  0  0  0
 25 22  2  0  0  0  0
 25 27  1  0  0  0  0
 26 27  1  0  0  0  0
 27 23  2  0  0  0  0
 28 26  1  0  0  0  0
 29 21  1  0  0  0  0
 30 29  2  0  0  0  0
 31 32  1  1  0  0  0
 31 28  1  0  0  0  0
 33 31  1  0  0  0  0
 33 34  1  0  0  0  0
M  END
>  <MODEL>
5

>  <REMARK>
 VINA RESULT:      -7.4      2.485      3.271
  Name = 
  5 active torsions:
  status: ('A' for Active; 'I' for Inactive)
    1  A    between atoms: C_3  and  C_25
    2  A    between atoms: C_7  and  C_11
    3  A    between atoms: C_7  and  C_29
    4  A    between atoms: C_8  and  S_18
    5  A    between atoms: S_18  and  C_30
                            x       y       z     vdW  Elec       q    Type
                         _______ _______ _______ _____ _____    ______ ____

>  <TORSDO>
F 5

$$$$
=
 OpenBabel11052415373D

 34 38  0  0  1  0  0  0  0  0999 V2000
  190.6660  177.0470  139.3750 C   0  0  0  0  0  0  0  0  0  0  0  0
  191.6770  175.3490  136.2390 C   0  0  0  0  0  3  0  0  0  0  0  0
  189.9520  176.7880  136.6790 N   0  0  0  0  0  2  0  0  0  0  0  0
  188.2990  178.5680  140.8550 C   0  0  0  0  0  0  0  0  0  0  0  0
  191.0000  177.2510  140.5750 O   0  0  0  0  0  0  0  0  0  0  0  0
  188.4830  178.2640  139.4680 N   0  0  0  0  0  0  0  0  0  0  0  0
  187.6100  178.6310  138.5340 N   0  0  0  0  0  0  0  0  0  0  0  0
  187.9100  179.7160  141.1950 O   0  0  0  0  0  0  0  0  0  0  0  0
  189.1740  177.4610  137.5550 C   0  0  0  0  0  0  0  0  0  0  0  0
  189.4580  177.5420  138.8770 C   0  0  0  0  0  0  0  0  0  0  0  0
  188.0030  178.1470  137.3300 C   0  0  0  0  0  3  0  0  0  0  0  0
  192.7370  174.3520  136.5560 C   0  0  0  0  0  2  0  0  0  0  0  0
  193.9890  174.9800  137.0500 C   0  0  0  0  0  0  0  0  0  0  0  0
  193.9890  175.7100  138.1620 C   0  0  0  0  0  3  0  0  0  0  0  0
  191.0990  176.1830  137.1100 C   0  0  0  0  0  0  0  0  0  0  0  0
  192.8010  176.1640  138.9080 C   0  0  0  0  0  3  0  0  0  0  0  0
  191.5430  176.3870  138.4690 C   0  0  0  0  0  0  0  0  0  0  0  0
  195.2640  174.6450  136.3910 C   0  0  0  0  0  0  0  0  0  0  0  0
  196.3070  175.5660  136.3840 O   0  0  0  0  0  1  0  0  0  0  0  0
  195.4270  173.5270  135.8340 O   0  0  0  0  0  0  0  0  0  0  0  0
  188.4600  177.2970  142.1120 S   0  0  0  0  0  0  0  0  0  0  0  0
  185.6080  178.1470  144.9110 C   0  0  0  0  0  3  0  0  0  0  0  0
  185.7910  178.0300  142.0850 C   0  0  0  0  0  3  0  0  0  0  0  0
  183.2780  178.7650  144.5850 N   0  0  0  0  0  0  0  0  0  0  0  0
  184.5010  178.4240  144.1090 C   0  0  0  0  0  0  0  0  0  0  0  0
  183.1200  178.7520  142.0490 S   0  0  0  0  0  0  0  0  0  0  0  0
  184.6030  178.3650  142.7280 C   0  0  0  0  0  0  0  0  0  0  0  0
  182.4040  178.9680  143.5680 C   0  0  0  0  0  0  0  0  0  0  0  0
  186.9100  177.7440  142.8820 C   0  0  0  0  0  0  0  0  0  0  0  0
  186.8200  177.8050  144.2870 C   0  0  0  0  0  3  0  0  0  0  0  0
  180.9860  179.3950  143.7670 C   0  0  1  0  0  3  0  0  0  0  0  0
  180.5430  180.1450  142.6760 O   0  0  0  0  0  1  0  0  0  0  0  0
  180.0730  178.1990  143.9990 C   0  0  0  0  0  2  0  0  0  0  0  0
  179.3970  177.8560  142.8260 O   0  0  0  0  0  1  0  0  0  0  0  0
  1  5  2  0  0  0  0
  2 12  1  0  0  0  0
  2 15  2  0  0  0  0
  3 15  1  0  0  0  0
  3  9  1  0  0  0  0
  4  8  2  0  0  0  0
  4 21  1  0  0  0  0
  6  4  1  0  0  0  0
  7  6  1  0  0  0  0
  9 10  2  0  0  0  0
 10  1  1  0  0  0  0
 10  6  1  0  0  0  0
 11  9  1  0  0  0  0
 11  7  2  0  0  0  0
 12 13  1  0  0  0  0
 13 14  2  0  0  0  0
 14 16  1  0  0  0  0
 15 17  1  0  0  0  0
 17 16  2  0  0  0  0
 17  1  1  0  0  0  0
 18 13  1  0  0  0  0
 19 18  1  0  0  0  0
 20 18  2  0  0  0  0
 21 29  1  0  0  0  0
 23 27  2  0  0  0  0
 23 29  1  0  0  0  0
 25 24  1  0  0  0  0
 25 22  2  0  0  0  0
 26 27  1  0  0  0  0
 26 28  1  0  0  0  0
 27 25  1  0  0  0  0
 28 31  1  0  0  0  0
 28 24  2  0  0  0  0
 29 30  2  0  0  0  0
 30 22  1  0  0  0  0
 31 32  1  6  0  0  0
 31 33  1  0  0  0  0
 34 33  1  0  0  0  0
M  END
>  <MODEL>
6

>  <REMARK>
 VINA RESULT:      -7.3      5.906      8.909
  Name = 
  5 active torsions:
  status: ('A' for Active; 'I' for Inactive)
    1  A    between atoms: C_3  and  C_25
    2  A    between atoms: C_7  and  C_11
    3  A    between atoms: C_7  and  C_29
    4  A    between atoms: C_8  and  S_18
    5  A    between atoms: S_18  and  C_30
                            x       y       z     vdW  Elec       q    Type
                         _______ _______ _______ _____ _____    ______ ____

>  <TORSDO>
F 5

$$$$
=
 OpenBabel11052415373D

 34 38  0  0  1  0  0  0  0  0999 V2000
  187.2830  177.7320  144.1350 C   0  0  0  0  0  0  0  0  0  0  0  0
  188.9550  177.9510  147.4360 C   0  0  0  0  0  3  0  0  0  0  0  0
  186.7490  178.1370  146.8550 N   0  0  0  0  0  2  0  0  0  0  0  0
  184.6260  178.4030  142.5230 C   0  0  0  0  0  0  0  0  0  0  0  0
  187.4730  177.4780  142.9140 O   0  0  0  0  0  0  0  0  0  0  0  0
  184.8700  178.3570  143.9340 N   0  0  0  0  0  0  0  0  0  0  0  0
  183.9180  178.5940  144.8310 N   0  0  0  0  0  0  0  0  0  0  0  0
  183.5850  177.8740  142.0530 O   0  0  0  0  0  0  0  0  0  0  0  0
  185.7850  178.2710  145.9180 C   0  0  0  0  0  0  0  0  0  0  0  0
  186.0300  178.1510  144.5910 C   0  0  0  0  0  0  0  0  0  0  0  0
  184.4480  178.5540  146.0780 C   0  0  0  0  0  3  0  0  0  0  0  0
  190.4290  177.9780  147.2250 C   0  0  0  0  0  2  0  0  0  0  0  0
  190.9490  176.7170  146.6360 C   0  0  0  0  0  0  0  0  0  0  0  0
  190.5300  176.3020  145.4440 C   0  0  0  0  0  3  0  0  0  0  0  0
  188.0270  177.8310  146.4810 C   0  0  0  0  0  0  0  0  0  0  0  0
  189.4080  176.8630  144.6690 C   0  0  0  0  0  3  0  0  0  0  0  0
  188.3080  177.5180  145.0990 C   0  0  0  0  0  0  0  0  0  0  0  0
  192.0600  176.0200  147.3080 C   0  0  0  0  0  0  0  0  0  0  0  0
  192.6660  176.5900  148.4230 O   0  0  0  0  0  1  0  0  0  0  0  0
  192.4690  174.9050  146.8890 O   0  0  0  0  0  0  0  0  0  0  0  0
  185.6980  179.3370  141.4280 S   0  0  0  0  0  0  0  0  0  0  0  0
  184.3550  177.7550  137.9090 C   0  0  0  0  0  3  0  0  0  0  0  0
  183.4570  179.6360  139.8300 C   0  0  0  0  0  3  0  0  0  0  0  0
  182.2960  178.2300  136.7030 N   0  0  0  0  0  0  0  0  0  0  0  0
  183.1370  178.4170  137.7500 C   0  0  0  0  0  0  0  0  0  0  0  0
  181.2200  179.9500  138.2330 S   0  0  0  0  0  0  0  0  0  0  0  0
  182.7080  179.3340  138.6970 C   0  0  0  0  0  0  0  0  0  0  0  0
  181.1970  179.0160  136.8220 C   0  0  0  0  0  0  0  0  0  0  0  0
  184.6880  178.9800  139.9970 C   0  0  0  0  0  0  0  0  0  0  0  0
  185.1320  178.0430  139.0430 C   0  0  0  0  0  3  0  0  0  0  0  0
  180.0640  179.0080  135.8460 C   0  0  1  0  0  3  0  0  0  0  0  0
  178.9790  178.2970  136.3620 O   0  0  0  0  0  1  0  0  0  0  0  0
  179.6470  180.4230  135.4690 C   0  0  0  0  0  2  0  0  0  0  0  0
  180.7540  181.1810  135.0830 O   0  0  0  0  0  1  0  0  0  0  0  0
  1 10  1  0  0  0  0
  1 17  1  0  0  0  0
  4  6  1  0  0  0  0
  5  1  2  0  0  0  0
  6 10  1  0  0  0  0
  6  7  1  0  0  0  0
  7 11  2  0  0  0  0
  8  4  2  0  0  0  0
  9 11  1  0  0  0  0
  9  3  1  0  0  0  0
 10  9  2  0  0  0  0
 12  2  1  0  0  0  0
 13 12  1  0  0  0  0
 13 18  1  0  0  0  0
 14 13  2  0  0  0  0
 15  3  1  0  0  0  0
 15  2  2  0  0  0  0
 16 17  2  0  0  0  0
 16 14  1  0  0  0  0
 17 15  1  0  0  0  0
 18 19  1  0  0  0  0
 20 18  2  0  0  0  0
 21  4  1  0  0  0  0
 22 30  1  0  0  0  0
 23 29  1  0  0  0  0
 24 28  2  0  0  0  0
 24 25  1  0  0  0  0
 25 22  2  0  0  0  0
 25 27  1  0  0  0  0
 26 27  1  0  0  0  0
 27 23  2  0  0  0  0
 28 26  1  0  0  0  0
 29 21  1  0  0  0  0
 30 29  2  0  0  0  0
 31 32  1  1  0  0  0
 31 28  1  0  0  0  0
 33 31  1  0  0  0  0
 34 33  1  0  0  0  0
M  END
>  <MODEL>
7

>  <REMARK>
 VINA RESULT:      -7.2      3.658      5.465
  Name = 
  5 active torsions:
  status: ('A' for Active; 'I' for Inactive)
    1  A    between atoms: C_3  and  C_25
    2  A    between atoms: C_7  and  C_11
    3  A    between atoms: C_7  and  C_29
    4  A    between atoms: C_8  and  S_18
    5  A    between atoms: S_18  and  C_30
                            x       y       z     vdW  Elec       q    Type
                         _______ _______ _______ _____ _____    ______ ____

>  <TORSDO>
F 5

$$$$
=
 OpenBabel11052415373D

 34 38  0  0  1  0  0  0  0  0999 V2000
  187.0330  177.7760  143.8820 C   0  0  0  0  0  0  0  0  0  0  0  0
  188.8220  177.9980  147.1210 C   0  0  0  0  0  3  0  0  0  0  0  0
  186.5960  178.1840  146.6180 N   0  0  0  0  0  2  0  0  0  0  0  0
  184.3210  178.4460  142.3650 C   0  0  0  0  0  0  0  0  0  0  0  0
  187.1790  177.5190  142.6560 O   0  0  0  0  0  0  0  0  0  0  0  0
  184.6140  178.4010  143.7660 N   0  0  0  0  0  0  0  0  0  0  0  0
  183.6950  178.6410  144.6960 N   0  0  0  0  0  0  0  0  0  0  0  0
  183.2640  177.9170  141.9320 O   0  0  0  0  0  0  0  0  0  0  0  0
  185.5990  178.3170  145.7160 C   0  0  0  0  0  0  0  0  0  0  0  0
  185.7980  178.1960  144.3810 C   0  0  0  0  0  0  0  0  0  0  0  0
  184.2700  178.6010  145.9240 C   0  0  0  0  0  3  0  0  0  0  0  0
  190.2870  178.0230  146.8570 C   0  0  0  0  0  2  0  0  0  0  0  0
  190.7850  176.7610  146.2530 C   0  0  0  0  0  0  0  0  0  0  0  0
  190.3240  176.3450  145.0760 C   0  0  0  0  0  3  0  0  0  0  0  0
  187.8600  177.8770  146.2000 C   0  0  0  0  0  0  0  0  0  0  0  0
  189.1750  176.9050  144.3410 C   0  0  0  0  0  3  0  0  0  0  0  0
  188.0920  177.5610  144.8100 C   0  0  0  0  0  0  0  0  0  0  0  0
  191.9190  176.0650  146.8860 C   0  0  0  0  0  0  0  0  0  0  0  0
  192.4340  176.5270  148.0920 O   0  0  0  0  0  1  0  0  0  0  0  0
  192.4300  175.0450  146.3490 O   0  0  0  0  0  0  0  0  0  0  0  0
  185.3540  179.3770  141.2310 S   0  0  0  0  0  0  0  0  0  0  0  0
  182.4550  179.4040  138.3510 C   0  0  0  0  0  3  0  0  0  0  0  0
  184.6600  177.7780  139.0810 C   0  0  0  0  0  3  0  0  0  0  0  0
  182.0740  177.8150  136.5480 N   0  0  0  0  0  0  0  0  0  0  0  0
  182.7670  178.2520  137.6290 C   0  0  0  0  0  0  0  0  0  0  0  0
  183.9660  176.1660  136.9410 S   0  0  0  0  0  0  0  0  0  0  0  0
  183.8480  177.4650  137.9950 C   0  0  0  0  0  0  0  0  0  0  0  0
  182.6090  176.6670  136.0630 C   0  0  0  0  0  0  0  0  0  0  0  0
  184.3520  178.9320  139.8190 C   0  0  0  0  0  0  0  0  0  0  0  0
  183.2580  179.7420  139.4540 C   0  0  0  0  0  3  0  0  0  0  0  0
  182.0930  175.9610  134.8510 C   0  0  1  0  0  3  0  0  0  0  0  0
  182.6550  174.6870  134.7520 O   0  0  0  0  0  1  0  0  0  0  0  0
  180.5730  175.8760  134.8630 C   0  0  0  0  0  2  0  0  0  0  0  0
  180.1440  174.7600  135.5850 O   0  0  0  0  0  1  0  0  0  0  0  0
  1 10  1  0  0  0  0
  1 17  1  0  0  0  0
  4  6  1  0  0  0  0
  5  1  2  0  0  0  0
  6 10  1  0  0  0  0
  6  7  1  0  0  0  0
  7 11  2  0  0  0  0
  8  4  2  0  0  0  0
  9 11  1  0  0  0  0
  9  3  1  0  0  0  0
 10  9  2  0  0  0  0
 12  2  1  0  0  0  0
 13 12  1  0  0  0  0
 13 18  1  0  0  0  0
 14 13  2  0  0  0  0
 15  3  1  0  0  0  0
 15  2  2  0  0  0  0
 16 17  2  0  0  0  0
 16 14  1  0  0  0  0
 17 15  1  0  0  0  0
 18 19  1  0  0  0  0
 20 18  2  0  0  0  0
 21  4  1  0  0  0  0
 22 30  1  0  0  0  0
 23 29  1  0  0  0  0
 24 25  1  0  0  0  0
 25 27  1  0  0  0  0
 25 22  2  0  0  0  0
 26 27  1  0  0  0  0
 27 23  2  0  0  0  0
 28 24  2  0  0  0  0
 28 26  1  0  0  0  0
 29 21  1  0  0  0  0
 30 29  2  0  0  0  0
 31 32  1  1  0  0  0
 31 33  1  0  0  0  0
 31 28  1  0  0  0  0
 33 34  1  0  0  0  0
M  END
>  <MODEL>
8

>  <REMARK>
 VINA RESULT:      -7.2      2.866      4.332
  Name = 
  5 active torsions:
  status: ('A' for Active; 'I' for Inactive)
    1  A    between atoms: C_3  and  C_25
    2  A    between atoms: C_7  and  C_11
    3  A    between atoms: C_7  and  C_29
    4  A    between atoms: C_8  and  S_18
    5  A    between atoms: S_18  and  C_30
                            x       y       z     vdW  Elec       q    Type
                         _______ _______ _______ _____ _____    ______ ____

>  <TORSDO>
F 5

$$$$
=
 OpenBabel11052415373D

 34 38  0  0  1  0  0  0  0  0999 V2000
  188.0120  177.7780  142.4490 C   0  0  0  0  0  0  0  0  0  0  0  0
  191.6380  177.1830  141.9600 C   0  0  0  0  0  3  0  0  0  0  0  0
  190.3310  177.0330  143.8330 N   0  0  0  0  0  2  0  0  0  0  0  0
  185.7420  178.3290  144.6050 C   0  0  0  0  0  0  0  0  0  0  0  0
  186.9340  178.0340  141.8480 O   0  0  0  0  0  0  0  0  0  0  0  0
  187.0770  177.8360  144.7680 N   0  0  0  0  0  0  0  0  0  0  0  0
  187.5730  177.5000  145.9540 N   0  0  0  0  0  0  0  0  0  0  0  0
  184.7930  177.7730  145.2180 O   0  0  0  0  0  0  0  0  0  0  0  0
  189.1660  177.2620  144.4780 C   0  0  0  0  0  0  0  0  0  0  0  0
  188.0490  177.6920  143.8440 C   0  0  0  0  0  0  0  0  0  0  0  0
  188.8740  177.1400  145.8160 C   0  0  0  0  0  3  0  0  0  0  0  0
  192.0160  177.6360  140.5920 C   0  0  0  0  0  2  0  0  0  0  0  0
  191.3690  176.8350  139.5210 C   0  0  0  0  0  0  0  0  0  0  0  0
  190.0430  176.7920  139.4160 C   0  0  0  0  0  3  0  0  0  0  0  0
  190.4060  177.1980  142.4780 C   0  0  0  0  0  0  0  0  0  0  0  0
  189.0720  177.3080  140.3970 C   0  0  0  0  0  3  0  0  0  0  0  0
  189.2040  177.4810  141.7290 C   0  0  0  0  0  0  0  0  0  0  0  0
  192.2100  176.2300  138.4740 C   0  0  0  0  0  0  0  0  0  0  0  0
  191.7590  175.1130  137.7780 O   0  0  0  0  0  0  0  0  0  0  0  0
  193.3380  176.7160  138.1930 O   0  0  0  0  0  1  0  0  0  0  0  0
  185.4130  179.8220  143.6660 S   0  0  0  0  0  0  0  0  0  0  0  0
  181.4150  178.9880  143.7970 C   0  0  0  0  0  3  0  0  0  0  0  0
  183.5460  178.7150  141.9470 C   0  0  0  0  0  3  0  0  0  0  0  0
  180.0060  177.9730  142.0930 N   0  0  0  0  0  0  0  0  0  0  0  0
  181.2050  178.4250  142.5380 C   0  0  0  0  0  0  0  0  0  0  0  0
  181.6890  177.5970  140.2270 S   0  0  0  0  0  0  0  0  0  0  0  0
  182.2540  178.2980  141.6410 C   0  0  0  0  0  0  0  0  0  0  0  0
  180.1150  177.4760  140.8360 C   0  0  0  0  0  0  0  0  0  0  0  0
  183.7720  179.2780  143.2140 C   0  0  0  0  0  0  0  0  0  0  0  0
  182.7110  179.4160  144.1310 C   0  0  0  0  0  3  0  0  0  0  0  0
  178.9590  176.9400  140.0550 C   0  0  1  0  0  3  0  0  0  0  0  0
  178.9310  177.5000  138.7760 O   0  0  0  0  0  1  0  0  0  0  0  0
  179.0020  175.4200  139.9720 C   0  0  0  0  0  2  0  0  0  0  0  0
  178.9650  174.8520  141.2470 O   0  0  0  0  0  1  0  0  0  0  0  0
  1 10  1  0  0  0  0
  2 15  2  0  0  0  0
  3  9  1  0  0  0  0
  4  6  1  0  0  0  0
  4  8  2  0  0  0  0
  5  1  2  0  0  0  0
  6  7  1  0  0  0  0
  9 11  1  0  0  0  0
 10  9  2  0  0  0  0
 10  6  1  0  0  0  0
 11  7  2  0  0  0  0
 12  2  1  0  0  0  0
 13 12  1  0  0  0  0
 14 13  2  0  0  0  0
 14 16  1  0  0  0  0
 15  3  1  0  0  0  0
 16 17  2  0  0  0  0
 17  1  1  0  0  0  0
 17 15  1  0  0  0  0
 18 13  1  0  0  0  0
 19 18  2  0  0  0  0
 20 18  1  0  0  0  0
 21  4  1  0  0  0  0
 22 30  1  0  0  0  0
 23 29  1  0  0  0  0
 24 25  1  0  0  0  0
 25 22  2  0  0  0  0
 26 28  1  0  0  0  0
 26 27  1  0  0  0  0
 27 23  2  0  0  0  0
 27 25  1  0  0  0  0
 28 24  2  0  0  0  0
 29 21  1  0  0  0  0
 29 30  2  0  0  0  0
 31 32  1  6  0  0  0
 31 28  1  0  0  0  0
 33 31  1  0  0  0  0
 33 34  1  0  0  0  0
M  END
>  <MODEL>
9

>  <REMARK>
 VINA RESULT:      -7.1      4.064      6.685
  Name = 
  5 active torsions:
  status: ('A' for Active; 'I' for Inactive)
    1  A    between atoms: C_3  and  C_25
    2  A    between atoms: C_7  and  C_11
    3  A    between atoms: C_7  and  C_29
    4  A    between atoms: C_8  and  S_18
    5  A    between atoms: S_18  and  C_30
                            x       y       z     vdW  Elec       q    Type
                         _______ _______ _______ _____ _____    ______ ____

>  <TORSDO>
F 5

$$$$
