=
 OpenBabel11052412393D

 25 28  0  0  1  0  0  0  0  0999 V2000
  187.3140  177.7160  145.1120 N   0  0  0  0  0  0  0  0  0  0  0  0
  188.2840  177.1220  144.3570 C   0  0  0  0  0  0  0  0  0  0  0  0
  188.7210  177.8530  147.0410 C   0  0  0  0  0  3  0  0  0  0  0  0
  186.0490  178.0660  144.8200 C   0  0  0  0  0  0  0  0  0  0  0  0
  183.4560  178.9710  144.7590 C   0  0  0  0  0  3  0  0  0  0  0  0
  189.7420  177.2400  146.3030 C   0  0  0  0  0  3  0  0  0  0  0  0
  185.4680  178.6390  145.9200 C   0  0  0  0  0  0  0  0  0  0  0  0
  184.1900  179.0900  145.9060 N   0  0  0  0  0  0  0  0  0  0  0  0
  190.6000  176.2430  144.1670 C   0  0  0  0  0  0  0  0  0  0  0  0
  191.6700  175.8560  144.7060 O   0  0  0  0  0  0  0  0  0  0  0  0
  188.0150  176.6520  142.9460 C   0  0  0  0  0  2  0  0  0  0  0  0
  184.0190  178.3880  143.6030 C   0  0  0  0  0  3  0  0  0  0  0  0
  187.5030  178.0800  146.4050 C   0  0  0  0  0  0  0  0  0  0  0  0
  186.3720  178.6700  146.9700 C   0  0  0  0  0  3  0  0  0  0  0  0
  190.4020  176.0590  142.7620 N   0  0  0  0  0  2  0  0  0  0  0  0
  185.3450  177.9240  143.6260 C   0  0  0  0  0  3  0  0  0  0  0  0
  189.2740  176.6850  142.0730 C   0  0  2  0  0  3  0  0  0  0  0  0
  189.5330  176.8710  144.9610 C   0  0  0  0  0  0  0  0  0  0  0  0
  189.6140  178.1230  141.6950 C   0  0  0  0  0  2  0  0  0  0  0  0
  189.8250  178.2370  140.2590 N   0  0  0  0  0  2  0  0  0  0  0  0
  188.7580  178.4740  139.3400 C   0  0  0  0  0  0  0  0  0  0  0  0
  187.5760  178.6190  139.7550 O   0  0  0  0  0  0  0  0  0  0  0  0
  189.0550  178.5390  137.8790 C   0  0  2  0  0  3  0  0  0  0  0  0
  187.8850  178.9940  137.1490 N   0  0  0  0  0  1  0  0  0  0  0  0
  189.4820  177.1760  137.3660 C   0  0  0  0  0  1  0  0  0  0  0  0
  1 13  1  0  0  0  0
  2 18  2  0  0  0  0
  2  1  1  0  0  0  0
  4  1  1  0  0  0  0
  4  7  1  0  0  0  0
  5  8  1  0  0  0  0
  6  3  2  0  0  0  0
  7 14  1  0  0  0  0
  8  7  2  0  0  0  0
  9 10  2  0  0  0  0
  9 18  1  0  0  0  0
 11  2  1  0  0  0  0
 12 16  1  0  0  0  0
 12  5  2  0  0  0  0
 13 14  2  0  0  0  0
 13  3  1  0  0  0  0
 15  9  1  0  0  0  0
 16  4  2  0  0  0  0
 17 19  1  1  0  0  0
 17 15  1  0  0  0  0
 17 11  1  0  0  0  0
 18  6  1  0  0  0  0
 20 19  1  0  0  0  0
 21 22  2  0  0  0  0
 21 20  1  0  0  0  0
 23 25  1  6  0  0  0
 23 21  1  0  0  0  0
 24 23  1  0  0  0  0
M  END
>  <MODEL>
1

>  <REMARK>
 VINA RESULT:      -9.5      0.000      0.000
  Name = 
  3 active torsions:
  status: ('A' for Active; 'I' for Inactive)
    1  A    between atoms: C_2  and  C_21
    2  A    between atoms: C_6  and  N_15
    3  A    between atoms: C_6  and  C_23
                            x       y       z     vdW  Elec       q    Type
                         _______ _______ _______ _____ _____    ______ ____

>  <TORSDO>
F 3

$$$$
=
 OpenBabel11052412393D

 25 28  0  0  1  0  0  0  0  0999 V2000
  187.4960  177.9220  146.0780 N   0  0  0  0  0  0  0  0  0  0  0  0
  188.6770  177.3400  145.7170 C   0  0  0  0  0  0  0  0  0  0  0  0
  188.2740  178.4280  148.2830 C   0  0  0  0  0  3  0  0  0  0  0  0
  186.3520  178.1080  145.3980 C   0  0  0  0  0  0  0  0  0  0  0  0
  183.8380  178.7410  144.4870 C   0  0  0  0  0  3  0  0  0  0  0  0
  189.5000  177.8340  147.9550 C   0  0  0  0  0  3  0  0  0  0  0  0
  185.4440  178.7500  146.1980 C   0  0  0  0  0  0  0  0  0  0  0  0
  184.2000  179.0680  145.7640 N   0  0  0  0  0  0  0  0  0  0  0  0
  190.9970  176.6760  146.3080 C   0  0  0  0  0  0  0  0  0  0  0  0
  191.8870  176.4640  147.1740 O   0  0  0  0  0  0  0  0  0  0  0  0
  188.8570  176.6790  144.3700 C   0  0  0  0  0  2  0  0  0  0  0  0
  184.7450  178.0810  143.6300 C   0  0  0  0  0  3  0  0  0  0  0  0
  187.2810  178.4550  147.3060 C   0  0  0  0  0  0  0  0  0  0  0  0
  186.0010  178.9950  147.4430 C   0  0  0  0  0  3  0  0  0  0  0  0
  191.2260  176.3070  144.9460 N   0  0  0  0  0  2  0  0  0  0  0  0
  186.0330  177.7550  144.0880 C   0  0  0  0  0  3  0  0  0  0  0  0
  190.3100  176.7310  143.8860 C   0  0  2  0  0  3  0  0  0  0  0  0
  189.7100  177.2880  146.6750 C   0  0  0  0  0  0  0  0  0  0  0  0
  190.6590  178.1390  143.4170 C   0  0  0  0  0  2  0  0  0  0  0  0
  189.7260  178.5800  142.3890 N   0  0  0  0  0  2  0  0  0  0  0  0
  189.5880  177.9100  141.1350 C   0  0  0  0  0  0  0  0  0  0  0  0
  190.2670  176.8780  140.8820 O   0  0  0  0  0  0  0  0  0  0  0  0
  188.6360  178.4510  140.1210 C   0  0  2  0  0  3  0  0  0  0  0  0
  187.3280  178.6540  140.7180 N   0  0  0  0  0  1  0  0  0  0  0  0
  188.5200  177.4990  138.9450 C   0  0  0  0  0  1  0  0  0  0  0  0
  1 13  1  0  0  0  0
  2  1  1  0  0  0  0
  2 18  2  0  0  0  0
  4  1  1  0  0  0  0
  4  7  1  0  0  0  0
  5  8  1  0  0  0  0
  6  3  2  0  0  0  0
  7 14  1  0  0  0  0
  8  7  2  0  0  0  0
  9 18  1  0  0  0  0
  9 10  2  0  0  0  0
 11  2  1  0  0  0  0
 12 16  1  0  0  0  0
 12  5  2  0  0  0  0
 13 14  2  0  0  0  0
 13  3  1  0  0  0  0
 15  9  1  0  0  0  0
 16  4  2  0  0  0  0
 17 19  1  1  0  0  0
 17 11  1  0  0  0  0
 17 15  1  0  0  0  0
 18  6  1  0  0  0  0
 20 19  1  0  0  0  0
 21 20  1  0  0  0  0
 22 21  2  0  0  0  0
 23 25  1  6  0  0  0
 23 24  1  0  0  0  0
 23 21  1  0  0  0  0
M  END
>  <MODEL>
2

>  <REMARK>
 VINA RESULT:      -9.5      1.565      1.849
  Name = 
  3 active torsions:
  status: ('A' for Active; 'I' for Inactive)
    1  A    between atoms: C_2  and  C_21
    2  A    between atoms: C_6  and  N_15
    3  A    between atoms: C_6  and  C_23
                            x       y       z     vdW  Elec       q    Type
                         _______ _______ _______ _____ _____    ______ ____

>  <TORSDO>
F 3

$$$$
=
 OpenBabel11052412393D

 25 28  0  0  1  0  0  0  0  0999 V2000
  187.3930  177.9480  145.9960 N   0  0  0  0  0  0  0  0  0  0  0  0
  188.5850  177.3320  145.7460 C   0  0  0  0  0  0  0  0  0  0  0  0
  188.0090  178.5100  148.2380 C   0  0  0  0  0  3  0  0  0  0  0  0
  186.3090  178.1340  145.2230 C   0  0  0  0  0  0  0  0  0  0  0  0
  183.8870  178.7850  144.1000 C   0  0  0  0  0  3  0  0  0  0  0  0
  189.2430  177.8820  148.0250 C   0  0  0  0  0  3  0  0  0  0  0  0
  185.3570  178.8190  145.9300 C   0  0  0  0  0  0  0  0  0  0  0  0
  184.1570  179.1470  145.3910 N   0  0  0  0  0  0  0  0  0  0  0  0
  190.8380  176.6420  146.5360 C   0  0  0  0  0  0  0  0  0  0  0  0
  191.6530  176.4410  147.4750 O   0  0  0  0  0  0  0  0  0  0  0  0
  188.8540  176.6240  144.4380 C   0  0  0  0  0  2  0  0  0  0  0  0
  184.8440  178.0800  143.3370 C   0  0  0  0  0  3  0  0  0  0  0  0
  187.0960  178.5250  147.1870 C   0  0  0  0  0  0  0  0  0  0  0  0
  185.8210  179.0940  147.2070 C   0  0  0  0  0  3  0  0  0  0  0  0
  191.1630  176.2240  145.2080 N   0  0  0  0  0  2  0  0  0  0  0  0
  186.0850  177.7450  143.9040 C   0  0  0  0  0  3  0  0  0  0  0  0
  190.3420  176.6320  144.0680 C   0  0  2  0  0  3  0  0  0  0  0  0
  189.5400  177.2900  146.7830 C   0  0  0  0  0  0  0  0  0  0  0  0
  190.7560  178.0160  143.5840 C   0  0  0  0  0  2  0  0  0  0  0  0
  191.3560  177.9360  142.2590 N   0  0  0  0  0  2  0  0  0  0  0  0
  190.6590  177.4140  141.1270 C   0  0  0  0  0  0  0  0  0  0  0  0
  189.4660  177.0200  141.2360 O   0  0  0  0  0  0  0  0  0  0  0  0
  191.3620  177.3300  139.8130 C   0  0  2  0  0  3  0  0  0  0  0  0
  190.9890  176.1090  139.1220 N   0  0  0  0  0  1  0  0  0  0  0  0
  192.8650  177.3660  140.0160 C   0  0  0  0  0  1  0  0  0  0  0  0
  1 13  1  0  0  0  0
  2  1  1  0  0  0  0
  2 18  2  0  0  0  0
  4  7  1  0  0  0  0
  4  1  1  0  0  0  0
  5  8  1  0  0  0  0
  6  3  2  0  0  0  0
  7 14  1  0  0  0  0
  8  7  2  0  0  0  0
  9 18  1  0  0  0  0
  9 10  2  0  0  0  0
 11  2  1  0  0  0  0
 12 16  1  0  0  0  0
 12  5  2  0  0  0  0
 13 14  2  0  0  0  0
 13  3  1  0  0  0  0
 15  9  1  0  0  0  0
 16  4  2  0  0  0  0
 17 19  1  1  0  0  0
 17 11  1  0  0  0  0
 17 15  1  0  0  0  0
 18  6  1  0  0  0  0
 20 19  1  0  0  0  0
 21 22  2  0  0  0  0
 21 20  1  0  0  0  0
 23 25  1  1  0  0  0
 23 21  1  0  0  0  0
 24 23  1  0  0  0  0
M  END
>  <MODEL>
3

>  <REMARK>
 VINA RESULT:      -9.2      1.926      2.223
  Name = 
  3 active torsions:
  status: ('A' for Active; 'I' for Inactive)
    1  A    between atoms: C_2  and  C_21
    2  A    between atoms: C_6  and  N_15
    3  A    between atoms: C_6  and  C_23
                            x       y       z     vdW  Elec       q    Type
                         _______ _______ _______ _____ _____    ______ ____

>  <TORSDO>
F 3

$$$$
=
 OpenBabel11052412393D

 25 28  0  0  1  0  0  0  0  0999 V2000
  185.7990  178.1100  144.6010 N   0  0  0  0  0  0  0  0  0  0  0  0
  187.0340  177.5280  144.5940 C   0  0  0  0  0  0  0  0  0  0  0  0
  185.9580  178.7170  146.9090 C   0  0  0  0  0  3  0  0  0  0  0  0
  184.8790  178.2530  143.6320 C   0  0  0  0  0  0  0  0  0  0  0  0
  182.7000  178.8150  142.0550 C   0  0  0  0  0  3  0  0  0  0  0  0
  187.2270  178.1250  146.9470 C   0  0  0  0  0  3  0  0  0  0  0  0
  183.7890  178.9160  144.1310 C   0  0  0  0  0  0  0  0  0  0  0  0
  182.7070  179.2000  143.3660 N   0  0  0  0  0  0  0  0  0  0  0  0
  189.1120  176.9180  145.8130 C   0  0  0  0  0  0  0  0  0  0  0  0
  189.7370  176.7530  146.8940 O   0  0  0  0  0  0  0  0  0  0  0  0
  187.5690  176.8130  143.3750 C   0  0  0  0  0  2  0  0  0  0  0  0
  183.8040  178.1310  141.5020 C   0  0  0  0  0  3  0  0  0  0  0  0
  185.2630  178.6910  145.7020 C   0  0  0  0  0  0  0  0  0  0  0  0
  183.9930  179.2200  145.4680 C   0  0  0  0  0  3  0  0  0  0  0  0
  189.6970  176.4940  144.5780 N   0  0  0  0  0  2  0  0  0  0  0  0
  184.9230  177.8410  142.3010 C   0  0  0  0  0  3  0  0  0  0  0  0
  189.0980  176.8630  143.2960 C   0  0  2  0  0  3  0  0  0  0  0  0
  187.7730  177.5280  145.7950 C   0  0  0  0  0  0  0  0  0  0  0  0
  189.5590  178.2540  142.8750 C   0  0  0  0  0  2  0  0  0  0  0  0
  188.9610  178.6260  141.6010 N   0  0  0  0  0  2  0  0  0  0  0  0
  189.4140  178.0990  140.3530 C   0  0  0  0  0  0  0  0  0  0  0  0
  190.3520  177.2570  140.3170 O   0  0  0  0  0  0  0  0  0  0  0  0
  188.7720  178.5640  139.0890 C   0  0  2  0  0  3  0  0  0  0  0  0
  187.3520  178.2580  139.1060 N   0  0  0  0  0  1  0  0  0  0  0  0
  189.4250  177.9010  137.8910 C   0  0  0  0  0  1  0  0  0  0  0  0
  1 13  1  0  0  0  0
  2  1  1  0  0  0  0
  2 18  2  0  0  0  0
  3  6  2  0  0  0  0
  4  7  1  0  0  0  0
  4  1  1  0  0  0  0
  5  8  1  0  0  0  0
  7 14  1  0  0  0  0
  8  7  2  0  0  0  0
  9 10  2  0  0  0  0
 11  2  1  0  0  0  0
 12  5  2  0  0  0  0
 12 16  1  0  0  0  0
 13  3  1  0  0  0  0
 14 13  2  0  0  0  0
 15  9  1  0  0  0  0
 16  4  2  0  0  0  0
 17 19  1  1  0  0  0
 17 11  1  0  0  0  0
 17 15  1  0  0  0  0
 18  9  1  0  0  0  0
 18  6  1  0  0  0  0
 20 19  1  0  0  0  0
 21 20  1  0  0  0  0
 22 21  2  0  0  0  0
 23 25  1  6  0  0  0
 23 24  1  0  0  0  0
 23 21  1  0  0  0  0
M  END
>  <MODEL>
4

>  <REMARK>
 VINA RESULT:      -8.8      1.590      2.135
  Name = 
  3 active torsions:
  status: ('A' for Active; 'I' for Inactive)
    1  A    between atoms: C_2  and  C_21
    2  A    between atoms: C_6  and  N_15
    3  A    between atoms: C_6  and  C_23
                            x       y       z     vdW  Elec       q    Type
                         _______ _______ _______ _____ _____    ______ ____

>  <TORSDO>
F 3

$$$$
=
 OpenBabel11052412393D

 25 28  0  0  1  0  0  0  0  0999 V2000
  188.3200  177.7070  144.2840 N   0  0  0  0  0  0  0  0  0  0  0  0
  188.2740  178.0760  142.9710 C   0  0  0  0  0  0  0  0  0  0  0  0
  185.9400  177.7720  144.5170 C   0  0  0  0  0  3  0  0  0  0  0  0
  189.3560  177.4280  145.0940 C   0  0  0  0  0  0  0  0  0  0  0  0
  191.0690  176.7610  147.1360 C   0  0  0  0  0  3  0  0  0  0  0  0
  185.8490  178.1580  143.1730 C   0  0  0  0  0  3  0  0  0  0  0  0
  188.8880  177.1020  146.3390 C   0  0  0  0  0  0  0  0  0  0  0  0
  189.7200  176.7720  147.3570 N   0  0  0  0  0  0  0  0  0  0  0  0
  186.9310  178.7000  140.9750 C   0  0  0  0  0  0  0  0  0  0  0  0
  185.8430  179.0750  140.4630 O   0  0  0  0  0  0  0  0  0  0  0  0
  189.5320  178.3240  142.1710 C   0  0  0  0  0  2  0  0  0  0  0  0
  191.5910  177.0880  145.8660 C   0  0  0  0  0  3  0  0  0  0  0  0
  187.2090  177.5510  145.0460 C   0  0  0  0  0  0  0  0  0  0  0  0
  187.5040  177.1690  146.3560 C   0  0  0  0  0  3  0  0  0  0  0  0
  188.1180  178.6610  140.1790 N   0  0  0  0  0  2  0  0  0  0  0  0
  190.7210  177.4290  144.8160 C   0  0  0  0  0  3  0  0  0  0  0  0
  189.3400  178.0310  140.6790 C   0  0  2  0  0  3  0  0  0  0  0  0
  187.0100  178.3120  142.3920 C   0  0  0  0  0  0  0  0  0  0  0  0
  189.2980  176.5260  140.4400 C   0  0  0  0  0  2  0  0  0  0  0  0
  190.4260  176.1080  139.6190 N   0  0  0  0  0  2  0  0  0  0  0  0
  190.3750  176.0860  138.1920 C   0  0  0  0  0  0  0  0  0  0  0  0
  189.3360  176.4610  137.5830 O   0  0  0  0  0  0  0  0  0  0  0  0
  191.5630  175.6050  137.4270 C   0  0  2  0  0  3  0  0  0  0  0  0
  191.7710  174.1880  137.6630 N   0  0  0  0  0  1  0  0  0  0  0  0
  192.8020  176.3800  137.8350 C   0  0  0  0  0  1  0  0  0  0  0  0
  1 13  1  0  0  0  0
  1  4  1  0  0  0  0
  2  1  1  0  0  0  0
  3 13  1  0  0  0  0
  4  7  1  0  0  0  0
  5  8  1  0  0  0  0
  6  3  2  0  0  0  0
  7 14  1  0  0  0  0
  7  8  2  0  0  0  0
  9 18  1  0  0  0  0
 10  9  2  0  0  0  0
 11  2  1  0  0  0  0
 12  5  2  0  0  0  0
 13 14  2  0  0  0  0
 15 17  1  0  0  0  0
 15  9  1  0  0  0  0
 16  4  2  0  0  0  0
 16 12  1  0  0  0  0
 17 19  1  1  0  0  0
 17 11  1  0  0  0  0
 18  2  2  0  0  0  0
 18  6  1  0  0  0  0
 20 19  1  0  0  0  0
 21 20  1  0  0  0  0
 22 21  2  0  0  0  0
 23 24  1  0  0  0  0
 23 25  1  1  0  0  0
 23 21  1  0  0  0  0
M  END
>  <MODEL>
5

>  <REMARK>
 VINA RESULT:      -8.2      2.439      4.515
  Name = 
  3 active torsions:
  status: ('A' for Active; 'I' for Inactive)
    1  A    between atoms: C_2  and  C_21
    2  A    between atoms: C_6  and  N_15
    3  A    between atoms: C_6  and  C_23
                            x       y       z     vdW  Elec       q    Type
                         _______ _______ _______ _____ _____    ______ ____

>  <TORSDO>
F 3

$$$$
=
 OpenBabel11052412393D

 25 28  0  0  1  0  0  0  0  0999 V2000
  187.2440  177.8970  142.6580 N   0  0  0  0  0  0  0  0  0  0  0  0
  186.6150  177.8230  143.8670 C   0  0  0  0  0  0  0  0  0  0  0  0
  185.6030  179.3830  141.7520 C   0  0  0  0  0  3  0  0  0  0  0  0
  188.3700  177.3190  142.2050 C   0  0  0  0  0  0  0  0  0  0  0  0
  190.5560  176.4250  140.8000 C   0  0  0  0  0  3  0  0  0  0  0  0
  184.9230  179.3300  142.9760 C   0  0  0  0  0  3  0  0  0  0  0  0
  188.5940  177.7080  140.9100 C   0  0  0  0  0  0  0  0  0  0  0  0
  189.6670  177.2750  140.2040 N   0  0  0  0  0  0  0  0  0  0  0  0
  184.7290  178.5000  145.3360 C   0  0  0  0  0  0  0  0  0  0  0  0
  183.5830  179.0030  145.4820 O   0  0  0  0  0  0  0  0  0  0  0  0
  187.1140  176.9160  144.9680 C   0  0  0  0  0  2  0  0  0  0  0  0
  190.3620  176.0030  142.1340 C   0  0  0  0  0  3  0  0  0  0  0  0
  186.7770  178.6440  141.6270 C   0  0  0  0  0  0  0  0  0  0  0  0
  187.5880  178.5660  140.4940 C   0  0  0  0  0  3  0  0  0  0  0  0
  185.3690  177.8520  146.4380 N   0  0  0  0  0  2  0  0  0  0  0  0
  189.2470  176.4570  142.8590 C   0  0  0  0  0  3  0  0  0  0  0  0
  186.7740  177.4520  146.3630 C   0  0  2  0  0  3  0  0  0  0  0  0
  185.4210  178.5530  144.0390 C   0  0  0  0  0  0  0  0  0  0  0  0
  187.6800  178.6280  146.7090 C   0  0  0  0  0  2  0  0  0  0  0  0
  189.0720  178.2990  146.4330 N   0  0  0  0  0  2  0  0  0  0  0  0
  189.7920  177.3120  147.1730 C   0  0  0  0  0  0  0  0  0  0  0  0
  189.2250  176.6620  148.0930 O   0  0  0  0  0  0  0  0  0  0  0  0
  191.2280  177.0640  146.8520 C   0  0  2  0  0  3  0  0  0  0  0  0
  191.4450  177.1610  145.4190 N   0  0  0  0  0  1  0  0  0  0  0  0
  191.6490  175.6920  147.3430 C   0  0  0  0  0  1  0  0  0  0  0  0
  1  2  1  0  0  0  0
  2 18  2  0  0  0  0
  2 11  1  0  0  0  0
  3  6  2  0  0  0  0
  4  1  1  0  0  0  0
  4 16  1  0  0  0  0
  5 12  1  0  0  0  0
  6 18  1  0  0  0  0
  7  4  2  0  0  0  0
  8  5  2  0  0  0  0
  8  7  1  0  0  0  0
  9 10  2  0  0  0  0
  9 15  1  0  0  0  0
 11 17  1  0  0  0  0
 12 16  2  0  0  0  0
 13  3  1  0  0  0  0
 13  1  1  0  0  0  0
 14  7  1  0  0  0  0
 14 13  2  0  0  0  0
 17 15  1  0  0  0  0
 17 19  1  6  0  0  0
 18  9  1  0  0  0  0
 20 19  1  0  0  0  0
 20 21  1  0  0  0  0
 21 22  2  0  0  0  0
 23 21  1  0  0  0  0
 23 25  1  6  0  0  0
 24 23  1  0  0  0  0
M  END
>  <MODEL>
6

>  <REMARK>
 VINA RESULT:      -7.9      2.455      6.645
  Name = 
  3 active torsions:
  status: ('A' for Active; 'I' for Inactive)
    1  A    between atoms: C_2  and  C_21
    2  A    between atoms: C_6  and  N_15
    3  A    between atoms: C_6  and  C_23
                            x       y       z     vdW  Elec       q    Type
                         _______ _______ _______ _____ _____    ______ ____

>  <TORSDO>
F 3

$$$$
=
 OpenBabel11052412393D

 25 28  0  0  1  0  0  0  0  0999 V2000
  187.5040  177.7600  142.8560 N   0  0  0  0  0  0  0  0  0  0  0  0
  186.3050  178.3660  143.0950 C   0  0  0  0  0  0  0  0  0  0  0  0
  187.6660  176.9150  145.0880 C   0  0  0  0  0  3  0  0  0  0  0  0
  188.2660  177.7010  141.7500 C   0  0  0  0  0  0  0  0  0  0  0  0
  190.1660  177.2630  139.8140 C   0  0  0  0  0  3  0  0  0  0  0  0
  186.4390  177.5260  145.3760 C   0  0  0  0  0  3  0  0  0  0  0  0
  189.3920  176.9660  142.0090 C   0  0  0  0  0  0  0  0  0  0  0  0
  190.3390  176.7410  141.0650 N   0  0  0  0  0  0  0  0  0  0  0  0
  184.4530  178.8870  144.6680 C   0  0  0  0  0  0  0  0  0  0  0  0
  184.0010  178.9490  145.8420 O   0  0  0  0  0  0  0  0  0  0  0  0
  185.6220  179.2170  142.0490 C   0  0  0  0  0  2  0  0  0  0  0  0
  189.0180  178.0260  139.5060 C   0  0  0  0  0  3  0  0  0  0  0  0
  188.1750  177.0540  143.7990 C   0  0  0  0  0  0  0  0  0  0  0  0
  189.3770  176.5260  143.3240 C   0  0  0  0  0  3  0  0  0  0  0  0
  183.7080  179.4510  143.5860 N   0  0  0  0  0  2  0  0  0  0  0  0
  188.0410  178.2530  140.4900 C   0  0  0  0  0  3  0  0  0  0  0  0
  184.0970  179.2090  142.1970 C   0  0  2  0  0  3  0  0  0  0  0  0
  185.7510  178.2540  144.3870 C   0  0  0  0  0  0  0  0  0  0  0  0
  183.5290  177.8800  141.7110 C   0  0  0  0  0  2  0  0  0  0  0  0
  183.8310  177.6810  140.3000 N   0  0  0  0  0  2  0  0  0  0  0  0
  183.0280  176.8620  139.4480 C   0  0  0  0  0  0  0  0  0  0  0  0
  181.9950  176.2930  139.8960 O   0  0  0  0  0  0  0  0  0  0  0  0
  183.4310  176.6790  138.0230 C   0  0  2  0  0  3  0  0  0  0  0  0
  183.6780  175.2750  137.7480 N   0  0  0  0  0  1  0  0  0  0  0  0
  184.6780  177.4880  137.7190 C   0  0  0  0  0  1  0  0  0  0  0  0
  1  2  1  0  0  0  0
  1 13  1  0  0  0  0
  2 18  2  0  0  0  0
  3  6  2  0  0  0  0
  4  7  1  0  0  0  0
  4  1  1  0  0  0  0
  5  8  1  0  0  0  0
  7 14  1  0  0  0  0
  8  7  2  0  0  0  0
  9 10  2  0  0  0  0
 11 17  1  0  0  0  0
 11  2  1  0  0  0  0
 12  5  2  0  0  0  0
 12 16  1  0  0  0  0
 13  3  1  0  0  0  0
 14 13  2  0  0  0  0
 15  9  1  0  0  0  0
 16  4  2  0  0  0  0
 17 19  1  1  0  0  0
 17 15  1  0  0  0  0
 18  9  1  0  0  0  0
 18  6  1  0  0  0  0
 20 19  1  0  0  0  0
 21 22  2  0  0  0  0
 21 20  1  0  0  0  0
 23 25  1  1  0  0  0
 23 21  1  0  0  0  0
 24 23  1  0  0  0  0
M  END
>  <MODEL>
7

>  <REMARK>
 VINA RESULT:      -7.8      3.225      5.591
  Name = 
  3 active torsions:
  status: ('A' for Active; 'I' for Inactive)
    1  A    between atoms: C_2  and  C_21
    2  A    between atoms: C_6  and  N_15
    3  A    between atoms: C_6  and  C_23
                            x       y       z     vdW  Elec       q    Type
                         _______ _______ _______ _____ _____    ______ ____

>  <TORSDO>
F 3

$$$$
=
 OpenBabel11052412393D

 25 28  0  0  1  0  0  0  0  0999 V2000
  187.5670  177.7570  142.8290 N   0  0  0  0  0  0  0  0  0  0  0  0
  186.3540  178.3440  143.0460 C   0  0  0  0  0  0  0  0  0  0  0  0
  187.7040  176.9180  145.0640 C   0  0  0  0  0  3  0  0  0  0  0  0
  188.3480  177.7080  141.7360 C   0  0  0  0  0  0  0  0  0  0  0  0
  190.2880  177.2980  139.8330 C   0  0  0  0  0  3  0  0  0  0  0  0
  186.4630  177.5100  145.3310 C   0  0  0  0  0  3  0  0  0  0  0  0
  189.4810  176.9910  142.0160 C   0  0  0  0  0  0  0  0  0  0  0  0
  190.4470  176.7800  141.0880 N   0  0  0  0  0  0  0  0  0  0  0  0
  184.4690  178.8390  144.5870 C   0  0  0  0  0  0  0  0  0  0  0  0
  183.9950  178.8950  145.7530 O   0  0  0  0  0  0  0  0  0  0  0  0
  185.6770  179.1830  141.9880 C   0  0  0  0  0  2  0  0  0  0  0  0
  189.1340  178.0420  139.5040 C   0  0  0  0  0  3  0  0  0  0  0  0
  188.2330  177.0630  143.7840 C   0  0  0  0  0  0  0  0  0  0  0  0
  189.4510  176.5530  143.3300 C   0  0  0  0  0  3  0  0  0  0  0  0
  183.7340  179.3900  143.4910 N   0  0  0  0  0  2  0  0  0  0  0  0
  188.1370  178.2550  140.4720 C   0  0  0  0  0  3  0  0  0  0  0  0
  184.1500  179.1510  142.1090 C   0  0  2  0  0  3  0  0  0  0  0  0
  185.7810  178.2250  144.3290 C   0  0  0  0  0  0  0  0  0  0  0  0
  183.6110  177.8140  141.6160 C   0  0  0  0  0  2  0  0  0  0  0  0
  182.6900  178.0120  140.5060 N   0  0  0  0  0  2  0  0  0  0  0  0
  183.1160  178.0240  139.1430 C   0  0  0  0  0  0  0  0  0  0  0  0
  184.3290  177.8340  138.8500 O   0  0  0  0  0  0  0  0  0  0  0  0
  182.1130  178.2730  138.0670 C   0  0  2  0  0  3  0  0  0  0  0  0
  182.6280  177.8210  136.7860 N   0  0  0  0  0  1  0  0  0  0  0  0
  181.7760  179.7510  137.9910 C   0  0  0  0  0  1  0  0  0  0  0  0
  1  2  1  0  0  0  0
  1 13  1  0  0  0  0
  2 18  2  0  0  0  0
  3  6  2  0  0  0  0
  4  7  1  0  0  0  0
  4  1  1  0  0  0  0
  5  8  1  0  0  0  0
  7 14  1  0  0  0  0
  8  7  2  0  0  0  0
  9 10  2  0  0  0  0
 11 17  1  0  0  0  0
 11  2  1  0  0  0  0
 12  5  2  0  0  0  0
 12 16  1  0  0  0  0
 13  3  1  0  0  0  0
 14 13  2  0  0  0  0
 15  9  1  0  0  0  0
 16  4  2  0  0  0  0
 17 19  1  1  0  0  0
 17 15  1  0  0  0  0
 18  9  1  0  0  0  0
 18  6  1  0  0  0  0
 20 19  1  0  0  0  0
 21 20  1  0  0  0  0
 22 21  2  0  0  0  0
 23 25  1  6  0  0  0
 23 21  1  0  0  0  0
 24 23  1  0  0  0  0
M  END
>  <MODEL>
8

>  <REMARK>
 VINA RESULT:      -7.7      3.205      5.738
  Name = 
  3 active torsions:
  status: ('A' for Active; 'I' for Inactive)
    1  A    between atoms: C_2  and  C_21
    2  A    between atoms: C_6  and  N_15
    3  A    between atoms: C_6  and  C_23
                            x       y       z     vdW  Elec       q    Type
                         _______ _______ _______ _____ _____    ______ ____

>  <TORSDO>
F 3

$$$$
=
 OpenBabel11052412393D

 25 28  0  0  1  0  0  0  0  0999 V2000
  189.5620  177.6660  143.7190 N   0  0  0  0  0  0  0  0  0  0  0  0
  189.8650  177.3710  142.4210 C   0  0  0  0  0  0  0  0  0  0  0  0
  191.7860  178.3990  144.2050 C   0  0  0  0  0  3  0  0  0  0  0  0
  188.4140  177.5590  144.4100 C   0  0  0  0  0  0  0  0  0  0  0  0
  186.3740  177.5550  146.2510 C   0  0  0  0  0  3  0  0  0  0  0  0
  192.1410  178.1030  142.8830 C   0  0  0  0  0  3  0  0  0  0  0  0
  188.6130  177.9880  145.6950 C   0  0  0  0  0  0  0  0  0  0  0  0
  187.6170  177.9920  146.6150 N   0  0  0  0  0  0  0  0  0  0  0  0
  191.5400  177.2890  140.5870 C   0  0  0  0  0  0  0  0  0  0  0  0
  192.7380  177.3160  140.1970 O   0  0  0  0  0  0  0  0  0  0  0  0
  188.8550  176.7360  141.4940 C   0  0  0  0  0  2  0  0  0  0  0  0
  186.1280  177.1060  144.9350 C   0  0  0  0  0  3  0  0  0  0  0  0
  190.4690  178.1660  144.5940 C   0  0  0  0  0  0  0  0  0  0  0  0
  189.9290  178.3910  145.8610 C   0  0  0  0  0  3  0  0  0  0  0  0
  190.4990  176.9490  139.6680 N   0  0  0  0  0  2  0  0  0  0  0  0
  187.1660  177.1060  143.9880 C   0  0  0  0  0  3  0  0  0  0  0  0
  189.0910  177.1170  140.0280 C   0  0  2  0  0  3  0  0  0  0  0  0
  191.1880  177.5890  141.9840 C   0  0  0  0  0  0  0  0  0  0  0  0
  188.6480  178.5550  139.7810 C   0  0  0  0  0  2  0  0  0  0  0  0
  187.2620  178.7390  140.1880 N   0  0  0  0  0  2  0  0  0  0  0  0
  186.1700  178.6430  139.2730 C   0  0  0  0  0  0  0  0  0  0  0  0
  186.3740  178.3650  138.0600 O   0  0  0  0  0  0  0  0  0  0  0  0
  184.7820  178.8850  139.7660 C   0  0  2  0  0  3  0  0  0  0  0  0
  184.2480  180.1030  139.1820 N   0  0  0  0  0  1  0  0  0  0  0  0
  184.7710  178.9940  141.2790 C   0  0  0  0  0  1  0  0  0  0  0  0
  1  4  1  0  0  0  0
  1 13  1  0  0  0  0
  2  1  1  0  0  0  0
  3 13  1  0  0  0  0
  4  7  1  0  0  0  0
  5  8  1  0  0  0  0
  6  3  2  0  0  0  0
  7 14  1  0  0  0  0
  7  8  2  0  0  0  0
  9 18  1  0  0  0  0
 10  9  2  0  0  0  0
 11  2  1  0  0  0  0
 12  5  2  0  0  0  0
 13 14  2  0  0  0  0
 15 17  1  0  0  0  0
 15  9  1  0  0  0  0
 16  4  2  0  0  0  0
 16 12  1  0  0  0  0
 17 19  1  1  0  0  0
 17 11  1  0  0  0  0
 18  2  2  0  0  0  0
 18  6  1  0  0  0  0
 19 20  1  0  0  0  0
 21 23  1  0  0  0  0
 21 20  1  0  0  0  0
 22 21  2  0  0  0  0
 23 25  1  1  0  0  0
 24 23  1  0  0  0  0
M  END
>  <MODEL>
9

>  <REMARK>
 VINA RESULT:      -7.7      2.257      3.476
  Name = 
  3 active torsions:
  status: ('A' for Active; 'I' for Inactive)
    1  A    between atoms: C_2  and  C_21
    2  A    between atoms: C_6  and  N_15
    3  A    between atoms: C_6  and  C_23
                            x       y       z     vdW  Elec       q    Type
                         _______ _______ _______ _____ _____    ______ ____

>  <TORSDO>
F 3

$$$$
