=
 OpenBabel11052413233D

 28 31  0  0  1  0  0  0  0  0999 V2000
  189.0010  177.8800  145.9390 C   0  0  1  0  0  3  0  0  0  0  0  0
  187.9620  176.9840  145.2540 C   0  0  2  0  0  3  0  0  0  0  0  0
  191.5780  176.7830  145.0620 C   0  0  0  0  0  2  0  0  0  0  0  0
  189.1130  178.4820  143.5950 O   0  0  0  0  0  1  0  0  0  0  0  0
  191.3080  177.0550  146.5530 C   0  0  0  0  0  2  0  0  0  0  0  0
  190.3200  176.3780  144.2930 C   0  0  1  0  0  3  0  0  0  0  0  0
  189.8210  177.0480  146.9250 C   0  0  0  0  0  2  0  0  0  0  0  0
  189.2170  177.4220  144.5030 C   0  0  1  0  0  0  0  0  0  0  0  0
  186.7280  177.7610  144.8680 C   0  0  0  0  0  0  0  0  0  0  0  0
  184.3720  179.0810  144.1010 C   0  0  0  0  0  3  0  0  0  0  0  0
  186.3490  177.8160  143.5190 C   0  0  0  0  0  3  0  0  0  0  0  0
  186.1970  178.2520  147.1940 O   0  0  0  0  0  1  0  0  0  0  0  0
  185.8880  178.3400  145.8420 C   0  0  0  0  0  0  0  0  0  0  0  0
  184.7230  179.0070  145.4510 C   0  0  0  0  0  3  0  0  0  0  0  0
  185.1830  178.4810  143.1360 C   0  0  0  0  0  3  0  0  0  0  0  0
  190.6280  176.1800  142.8170 C   0  0  0  0  0  2  0  0  0  0  0  0
  191.7480  176.9450  142.4530 O   0  0  0  0  0  0  0  0  0  0  0  0
  192.5800  177.3230  140.3160 F   0  0  0  0  0  0  0  0  0  0  0  0
  191.5080  177.5030  141.1810 C   0  0  1  0  0  3  0  0  0  0  0  0
  190.2020  176.9990  140.5730 C   0  0  0  0  0  2  0  0  0  0  0  0
  188.9780  178.2320  139.0100 C   0  0  0  0  0  2  0  0  0  0  0  0
  189.8540  176.1260  138.4400 C   0  0  0  0  0  2  0  0  0  0  0  0
  188.7720  178.1280  136.4650 C   0  0  1  0  0  3  0  0  0  0  0  0
  190.1330  177.3570  139.1660 N   0  0  0  0  0  0  0  0  0  0  0  0
  189.8700  177.1430  136.1600 C   0  0  0  0  0  3  0  0  0  0  0  0
  190.3490  176.2420  137.0310 C   0  0  0  0  0  3  0  0  0  0  0  0
  187.4110  177.4510  136.5370 C   0  0  0  0  0  1  0  0  0  0  0  0
  189.0550  179.0030  137.6920 C   0  0  0  0  0  2  0  0  0  0  0  0
  1  7  1  1  0  0  0
  2  9  1  6  0  0  0
  2  1  1  0  0  0  0
  3  5  1  0  0  0  0
  5  7  1  0  0  0  0
  6 16  1  6  0  0  0
  6  8  1  0  0  0  0
  6  3  1  0  0  0  0
  8  4  1  6  0  0  0
  8  2  1  0  0  0  0
  8  1  1  0  0  0  0
  9 13  1  0  0  0  0
 10 14  1  0  0  0  0
 11  9  2  0  0  0  0
 13 12  1  0  0  0  0
 14 13  2  0  0  0  0
 15 11  1  0  0  0  0
 15 10  2  0  0  0  0
 17 16  1  0  0  0  0
 19 18  1  6  0  0  0
 19 17  1  0  0  0  0
 20 19  1  0  0  0  0
 21 24  1  0  0  0  0
 22 24  1  0  0  0  0
 23 27  1  1  0  0  0
 23 28  1  0  0  0  0
 24 20  1  0  0  0  0
 25 23  1  0  0  0  0
 25 26  2  0  0  0  0
 26 22  1  0  0  0  0
 28 21  1  0  0  0  0
M  END
>  <MODEL>
1

>  <REMARK>
 VINA RESULT:      -9.0      0.000      0.000
  Name = 
  6 active torsions:
  status: ('A' for Active; 'I' for Inactive)
    1  A    between atoms: C_2  and  C_3
    2  A    between atoms: C_5  and  O_20
    3  A    between atoms: C_5  and  C_21
    4  A    between atoms: C_10  and  N_13
    5  A    between atoms: C_10  and  C_25
    6  A    between atoms: O_20  and  C_25
                            x       y       z     vdW  Elec       q    Type
                         _______ _______ _______ _____ _____    ______ ____

>  <TORSDO>
F 6

$$$$
=
 OpenBabel11052413233D

 28 31  0  0  1  0  0  0  0  0999 V2000
  188.8980  177.6300  146.1970 C   0  0  1  0  0  3  0  0  0  0  0  0
  188.1520  176.9100  145.0670 C   0  0  2  0  0  3  0  0  0  0  0  0
  191.7150  176.9410  145.7480 C   0  0  0  0  0  2  0  0  0  0  0  0
  189.4760  178.8590  144.1910 O   0  0  0  0  0  1  0  0  0  0  0  0
  191.0800  176.7790  147.1410 C   0  0  0  0  0  2  0  0  0  0  0  0
  190.7220  176.7040  144.6100 C   0  0  1  0  0  3  0  0  0  0  0  0
  189.5580  176.5990  147.1110 C   0  0  0  0  0  2  0  0  0  0  0  0
  189.4880  177.5960  144.7940 C   0  0  1  0  0  0  0  0  0  0  0  0
  186.9610  177.7030  144.5940 C   0  0  0  0  0  0  0  0  0  0  0  0
  184.8070  179.3020  143.7640 C   0  0  0  0  0  3  0  0  0  0  0  0
  186.1830  178.3940  145.5340 C   0  0  0  0  0  3  0  0  0  0  0  0
  187.4600  177.2360  142.2560 O   0  0  0  0  0  1  0  0  0  0  0  0
  186.6750  177.8560  143.2210 C   0  0  0  0  0  0  0  0  0  0  0  0
  185.5930  178.6430  142.8160 C   0  0  0  0  0  3  0  0  0  0  0  0
  185.1050  179.1820  145.1230 C   0  0  0  0  0  3  0  0  0  0  0  0
  191.3810  176.9360  143.2590 C   0  0  0  0  0  2  0  0  0  0  0  0
  190.5630  176.4370  142.2330 O   0  0  0  0  0  0  0  0  0  0  0  0
  191.9780  177.9340  141.1550 F   0  0  0  0  0  0  0  0  0  0  0  0
  190.8070  177.1910  141.0670 C   0  0  1  0  0  3  0  0  0  0  0  0
  190.7830  176.3240  139.8110 C   0  0  0  0  0  2  0  0  0  0  0  0
  189.2620  177.9790  139.1710 C   0  0  0  0  0  2  0  0  0  0  0  0
  189.7000  176.1550  137.7540 C   0  0  0  0  0  2  0  0  0  0  0  0
  188.2610  178.6690  136.9240 C   0  0  1  0  0  3  0  0  0  0  0  0
  190.3140  177.1010  138.6750 N   0  0  0  0  0  0  0  0  0  0  0  0
  189.1050  177.8280  136.0000 C   0  0  0  0  0  3  0  0  0  0  0  0
  189.7390  176.7030  136.3600 C   0  0  0  0  0  3  0  0  0  0  0  0
  186.9300  178.0010  137.2360 C   0  0  0  0  0  1  0  0  0  0  0  0
  189.0000  179.1200  138.1880 C   0  0  0  0  0  2  0  0  0  0  0  0
  1  7  1  1  0  0  0
  2  9  1  6  0  0  0
  2  1  1  0  0  0  0
  3  5  1  0  0  0  0
  6 16  1  6  0  0  0
  6  8  1  0  0  0  0
  6  3  1  0  0  0  0
  7  5  1  0  0  0  0
  8  4  1  6  0  0  0
  8  2  1  0  0  0  0
  8  1  1  0  0  0  0
  9 11  1  0  0  0  0
 10 15  1  0  0  0  0
 12 13  1  0  0  0  0
 13  9  2  0  0  0  0
 14 13  1  0  0  0  0
 14 10  2  0  0  0  0
 15 11  2  0  0  0  0
 17 16  1  0  0  0  0
 19 18  1  1  0  0  0
 19 17  1  0  0  0  0
 20 19  1  0  0  0  0
 22 24  1  0  0  0  0
 23 27  1  1  0  0  0
 23 28  1  0  0  0  0
 24 21  1  0  0  0  0
 24 20  1  0  0  0  0
 25 26  2  0  0  0  0
 25 23  1  0  0  0  0
 26 22  1  0  0  0  0
 28 21  1  0  0  0  0
M  END
>  <MODEL>
2

>  <REMARK>
 VINA RESULT:      -8.8      1.101      1.538
  Name = 
  6 active torsions:
  status: ('A' for Active; 'I' for Inactive)
    1  A    between atoms: C_2  and  C_3
    2  A    between atoms: C_5  and  O_20
    3  A    between atoms: C_5  and  C_21
    4  A    between atoms: C_10  and  N_13
    5  A    between atoms: C_10  and  C_25
    6  A    between atoms: O_20  and  C_25
                            x       y       z     vdW  Elec       q    Type
                         _______ _______ _______ _____ _____    ______ ____

>  <TORSDO>
F 6

$$$$
=
 OpenBabel11052413233D

 28 31  0  0  1  0  0  0  0  0999 V2000
  188.8040  177.9030  145.5870 C   0  0  1  0  0  3  0  0  0  0  0  0
  187.7190  177.0160  144.9630 C   0  0  2  0  0  3  0  0  0  0  0  0
  191.3200  176.7280  144.6380 C   0  0  0  0  0  2  0  0  0  0  0  0
  188.8380  178.4490  143.2270 O   0  0  0  0  0  1  0  0  0  0  0  0
  191.1140  177.0400  146.1310 C   0  0  0  0  0  2  0  0  0  0  0  0
  190.0250  176.3350  143.9270 C   0  0  1  0  0  3  0  0  0  0  0  0
  189.6430  177.0750  146.5590 C   0  0  0  0  0  2  0  0  0  0  0  0
  188.9540  177.4080  144.1550 C   0  0  1  0  0  0  0  0  0  0  0  0
  186.4890  177.8120  144.6060 C   0  0  0  0  0  0  0  0  0  0  0  0
  184.1380  179.1690  143.8910 C   0  0  0  0  0  3  0  0  0  0  0  0
  186.1040  177.9100  143.2610 C   0  0  0  0  0  3  0  0  0  0  0  0
  185.9720  178.2370  146.9480 O   0  0  0  0  0  1  0  0  0  0  0  0
  185.6570  178.3670  145.6010 C   0  0  0  0  0  0  0  0  0  0  0  0
  184.4950  179.0520  145.2360 C   0  0  0  0  0  3  0  0  0  0  0  0
  184.9400  178.5930  142.9040 C   0  0  0  0  0  3  0  0  0  0  0  0
  190.2710  176.0980  142.4450 C   0  0  0  0  0  2  0  0  0  0  0  0
  191.4700  176.7130  142.0530 O   0  0  0  0  0  0  0  0  0  0  0  0
  192.3380  178.1450  140.4410 F   0  0  0  0  0  0  0  0  0  0  0  0
  191.2460  177.3810  140.8320 C   0  0  1  0  0  3  0  0  0  0  0  0
  190.8050  176.4220  139.7290 C   0  0  0  0  0  2  0  0  0  0  0  0
  189.3390  176.4850  137.9100 C   0  0  0  0  0  2  0  0  0  0  0  0
  189.2010  178.1080  139.6050 C   0  0  0  0  0  2  0  0  0  0  0  0
  187.0920  177.6330  137.5060 C   0  0  1  0  0  3  0  0  0  0  0  0
  189.4290  176.6920  139.3500 N   0  0  0  0  0  0  0  0  0  0  0  0
  186.8070  178.1320  138.8990 C   0  0  0  0  0  3  0  0  0  0  0  0
  187.7420  178.3560  139.8350 C   0  0  0  0  0  3  0  0  0  0  0  0
  187.7240  178.7110  136.6390 C   0  0  0  0  0  1  0  0  0  0  0  0
  187.8820  176.3200  137.4760 C   0  0  0  0  0  2  0  0  0  0  0  0
  1  7  1  1  0  0  0
  2  9  1  6  0  0  0
  2  1  1  0  0  0  0
  3  5  1  0  0  0  0
  5  7  1  0  0  0  0
  6 16  1  6  0  0  0
  6  8  1  0  0  0  0
  6  3  1  0  0  0  0
  8  4  1  6  0  0  0
  8  2  1  0  0  0  0
  8  1  1  0  0  0  0
  9 13  1  0  0  0  0
 10 14  1  0  0  0  0
 11  9  2  0  0  0  0
 13 12  1  0  0  0  0
 14 13  2  0  0  0  0
 15 11  1  0  0  0  0
 15 10  2  0  0  0  0
 17 16  1  0  0  0  0
 19 18  1  6  0  0  0
 19 17  1  0  0  0  0
 20 19  1  0  0  0  0
 21 24  1  0  0  0  0
 22 26  1  0  0  0  0
 23 27  1  6  0  0  0
 23 25  1  0  0  0  0
 24 22  1  0  0  0  0
 24 20  1  0  0  0  0
 25 26  2  0  0  0  0
 28 23  1  0  0  0  0
 28 21  1  0  0  0  0
M  END
>  <MODEL>
3

>  <REMARK>
 VINA RESULT:      -8.8      0.829      1.557
  Name = 
  6 active torsions:
  status: ('A' for Active; 'I' for Inactive)
    1  A    between atoms: C_2  and  C_3
    2  A    between atoms: C_5  and  O_20
    3  A    between atoms: C_5  and  C_21
    4  A    between atoms: C_10  and  N_13
    5  A    between atoms: C_10  and  C_25
    6  A    between atoms: O_20  and  C_25
                            x       y       z     vdW  Elec       q    Type
                         _______ _______ _______ _____ _____    ______ ____

>  <TORSDO>
F 6

$$$$
=
 OpenBabel11052413233D

 28 31  0  0  1  0  0  0  0  0999 V2000
  186.9700  177.5650  145.8770 C   0  0  1  0  0  3  0  0  0  0  0  0
  188.2410  178.2750  145.3960 C   0  0  2  0  0  3  0  0  0  0  0  0
  184.9570  178.2530  143.8550 C   0  0  0  0  0  2  0  0  0  0  0  0
  187.6730  176.3200  143.9220 O   0  0  0  0  0  1  0  0  0  0  0  0
  184.6540  178.4260  145.3540 C   0  0  0  0  0  2  0  0  0  0  0  0
  186.4310  178.4790  143.5150 C   0  0  1  0  0  3  0  0  0  0  0  0
  185.9040  178.6040  146.2230 C   0  0  0  0  0  2  0  0  0  0  0  0
  187.3160  177.5870  144.3950 C   0  0  1  0  0  0  0  0  0  0  0  0
  189.4790  177.4760  145.7180 C   0  0  0  0  0  0  0  0  0  0  0  0
  191.8640  176.1010  146.2660 C   0  0  0  0  0  3  0  0  0  0  0  0
  190.3330  177.0890  144.6760 C   0  0  0  0  0  3  0  0  0  0  0  0
  189.0650  177.6280  148.1140 O   0  0  0  0  0  1  0  0  0  0  0  0
  189.8540  177.2050  147.0500 C   0  0  0  0  0  0  0  0  0  0  0  0
  191.0370  176.5090  147.3150 C   0  0  0  0  0  3  0  0  0  0  0  0
  191.5150  176.3960  144.9460 C   0  0  0  0  0  3  0  0  0  0  0  0
  186.6900  178.2370  142.0370 C   0  0  0  0  0  2  0  0  0  0  0  0
  187.8150  178.9650  141.6190 O   0  0  0  0  0  0  0  0  0  0  0  0
  188.8220  176.9060  141.2350 F   0  0  0  0  0  0  0  0  0  0  0  0
  188.5500  178.1670  140.7200 C   0  0  1  0  0  3  0  0  0  0  0  0
  187.8790  178.0830  139.3510 C   0  0  0  0  0  2  0  0  0  0  0  0
  189.6530  177.7350  137.8690 C   0  0  0  0  0  2  0  0  0  0  0  0
  187.5780  176.6920  137.5050 C   0  0  0  0  0  2  0  0  0  0  0  0
  190.1400  175.9550  136.1020 C   0  0  1  0  0  3  0  0  0  0  0  0
  188.5350  177.0760  138.5330 N   0  0  0  0  0  0  0  0  0  0  0  0
  189.0280  174.9850  136.4040 C   0  0  0  0  0  3  0  0  0  0  0  0
  187.8810  175.3080  137.0190 C   0  0  0  0  0  3  0  0  0  0  0  0
  189.7760  176.8930  134.9610 C   0  0  0  0  0  1  0  0  0  0  0  0
  190.6510  176.7060  137.3360 C   0  0  0  0  0  2  0  0  0  0  0  0
  1  7  1  6  0  0  0
  2  9  1  1  0  0  0
  2  1  1  0  0  0  0
  3  5  1  0  0  0  0
  5  7  1  0  0  0  0
  6 16  1  6  0  0  0
  6  3  1  0  0  0  0
  6  8  1  0  0  0  0
  8  4  1  6  0  0  0
  8  2  1  0  0  0  0
  8  1  1  0  0  0  0
  9 13  1  0  0  0  0
 10 14  1  0  0  0  0
 11 15  1  0  0  0  0
 11  9  2  0  0  0  0
 13 14  2  0  0  0  0
 13 12  1  0  0  0  0
 15 10  2  0  0  0  0
 17 16  1  0  0  0  0
 19 18  1  1  0  0  0
 19 17  1  0  0  0  0
 20 19  1  0  0  0  0
 21 24  1  0  0  0  0
 22 24  1  0  0  0  0
 23 27  1  6  0  0  0
 23 25  1  0  0  0  0
 23 28  1  0  0  0  0
 24 20  1  0  0  0  0
 25 26  2  0  0  0  0
 26 22  1  0  0  0  0
 28 21  1  0  0  0  0
M  END
>  <MODEL>
4

>  <REMARK>
 VINA RESULT:      -8.6      1.801      4.188
  Name = 
  6 active torsions:
  status: ('A' for Active; 'I' for Inactive)
    1  A    between atoms: C_2  and  C_3
    2  A    between atoms: C_5  and  O_20
    3  A    between atoms: C_5  and  C_21
    4  A    between atoms: C_10  and  N_13
    5  A    between atoms: C_10  and  C_25
    6  A    between atoms: O_20  and  C_25
                            x       y       z     vdW  Elec       q    Type
                         _______ _______ _______ _____ _____    ______ ____

>  <TORSDO>
F 6

$$$$
=
 OpenBabel11052413233D

 28 31  0  0  1  0  0  0  0  0999 V2000
  189.0010  177.7210  146.0870 C   0  0  1  0  0  3  0  0  0  0  0  0
  188.0560  176.9540  145.1540 C   0  0  2  0  0  3  0  0  0  0  0  0
  191.6810  176.8610  145.2550 C   0  0  0  0  0  2  0  0  0  0  0  0
  189.2900  178.7620  143.9190 O   0  0  0  0  0  1  0  0  0  0  0  0
  191.2760  176.8370  146.7390 C   0  0  0  0  0  2  0  0  0  0  0  0
  190.5080  176.5870  144.3120 C   0  0  1  0  0  3  0  0  0  0  0  0
  189.7640  176.7310  146.9670 C   0  0  0  0  0  2  0  0  0  0  0  0
  189.3540  177.5500  144.6160 C   0  0  1  0  0  0  0  0  0  0  0  0
  186.8330  177.7660  144.8120 C   0  0  0  0  0  0  0  0  0  0  0  0
  184.4930  179.1570  144.1240 C   0  0  0  0  0  3  0  0  0  0  0  0
  186.4390  177.8770  143.4710 C   0  0  0  0  0  3  0  0  0  0  0  0
  186.3400  178.1840  147.1600 O   0  0  0  0  0  1  0  0  0  0  0  0
  186.0160  178.3250  145.8160 C   0  0  0  0  0  0  0  0  0  0  0  0
  184.8590  179.0270  145.4650 C   0  0  0  0  0  3  0  0  0  0  0  0
  185.2800  178.5760  143.1270 C   0  0  0  0  0  3  0  0  0  0  0  0
  190.9470  176.6820  142.8600 C   0  0  0  0  0  2  0  0  0  0  0  0
  190.0330  176.0040  142.0360 O   0  0  0  0  0  0  0  0  0  0  0  0
  189.1030  177.9960  141.2790 F   0  0  0  0  0  0  0  0  0  0  0  0
  189.7530  176.8210  140.9220 C   0  0  1  0  0  3  0  0  0  0  0  0
  191.0020  177.0990  140.0880 C   0  0  0  0  0  2  0  0  0  0  0  0
  192.4000  176.3780  138.3600 C   0  0  0  0  0  2  0  0  0  0  0  0
  190.0660  176.1900  138.1570 C   0  0  0  0  0  2  0  0  0  0  0  0
  192.0610  174.8220  136.3610 C   0  0  1  0  0  3  0  0  0  0  0  0
  191.1780  176.0600  139.0870 N   0  0  0  0  0  0  0  0  0  0  0  0
  190.7010  174.2680  136.6980 C   0  0  0  0  0  3  0  0  0  0  0  0
  189.8040  174.8760  137.4880 C   0  0  0  0  0  3  0  0  0  0  0  0
  191.9700  175.9870  135.3860 C   0  0  0  0  0  1  0  0  0  0  0  0
  192.9090  175.1570  137.5940 C   0  0  0  0  0  2  0  0  0  0  0  0
  1  7  1  1  0  0  0
  2  9  1  6  0  0  0
  2  1  1  0  0  0  0
  3  5  1  0  0  0  0
  5  7  1  0  0  0  0
  6 16  1  6  0  0  0
  6  8  1  0  0  0  0
  6  3  1  0  0  0  0
  8  4  1  6  0  0  0
  8  2  1  0  0  0  0
  8  1  1  0  0  0  0
  9 13  1  0  0  0  0
 10 14  1  0  0  0  0
 11  9  2  0  0  0  0
 13 12  1  0  0  0  0
 14 13  2  0  0  0  0
 15 11  1  0  0  0  0
 15 10  2  0  0  0  0
 17 16  1  0  0  0  0
 19 18  1  1  0  0  0
 19 17  1  0  0  0  0
 20 19  1  0  0  0  0
 21 24  1  0  0  0  0
 22 24  1  0  0  0  0
 23 27  1  1  0  0  0
 23 25  1  0  0  0  0
 23 28  1  0  0  0  0
 24 20  1  0  0  0  0
 25 26  2  0  0  0  0
 26 22  1  0  0  0  0
 28 21  1  0  0  0  0
M  END
>  <MODEL>
5

>  <REMARK>
 VINA RESULT:      -8.5      1.518      2.145
  Name = 
  6 active torsions:
  status: ('A' for Active; 'I' for Inactive)
    1  A    between atoms: C_2  and  C_3
    2  A    between atoms: C_5  and  O_20
    3  A    between atoms: C_5  and  C_21
    4  A    between atoms: C_10  and  N_13
    5  A    between atoms: C_10  and  C_25
    6  A    between atoms: O_20  and  C_25
                            x       y       z     vdW  Elec       q    Type
                         _______ _______ _______ _____ _____    ______ ____

>  <TORSDO>
F 6

$$$$
=
 OpenBabel11052413233D

 28 31  0  0  1  0  0  0  0  0999 V2000
  189.1540  177.8950  145.1810 C   0  0  1  0  0  3  0  0  0  0  0  0
  188.0250  176.9830  144.6860 C   0  0  2  0  0  3  0  0  0  0  0  0
  191.5160  176.9800  143.6990 C   0  0  0  0  0  2  0  0  0  0  0  0
  188.7220  178.6200  142.9110 O   0  0  0  0  0  1  0  0  0  0  0  0
  191.5700  177.1620  145.2260 C   0  0  0  0  0  2  0  0  0  0  0  0
  190.1360  176.5500  143.1990 C   0  0  1  0  0  3  0  0  0  0  0  0
  190.2040  177.0580  145.9120 C   0  0  0  0  0  2  0  0  0  0  0  0
  189.0660  177.5230  143.7080 C   0  0  1  0  0  0  0  0  0  0  0  0
  186.7080  177.7120  144.6260 C   0  0  0  0  0  0  0  0  0  0  0  0
  184.1900  178.9460  144.4700 C   0  0  0  0  0  3  0  0  0  0  0  0
  186.0520  177.8400  143.3930 C   0  0  0  0  0  3  0  0  0  0  0  0
  186.6560  178.0090  147.0430 O   0  0  0  0  0  1  0  0  0  0  0  0
  186.0670  178.1730  145.7950 C   0  0  0  0  0  0  0  0  0  0  0  0
  184.8190  178.7970  145.7080 C   0  0  0  0  0  3  0  0  0  0  0  0
  184.8040  178.4620  143.3130 C   0  0  0  0  0  3  0  0  0  0  0  0
  190.1190  176.4440  141.6820 C   0  0  0  0  0  2  0  0  0  0  0  0
  191.0540  177.3320  141.1280 O   0  0  0  0  0  0  0  0  0  0  0  0
  191.0870  175.9390  139.2670 F   0  0  0  0  0  0  0  0  0  0  0  0
  190.9680  177.2460  139.7240 C   0  0  1  0  0  3  0  0  0  0  0  0
  189.7070  177.9170  139.1860 C   0  0  0  0  0  2  0  0  0  0  0  0
  189.2340  178.3280  136.9340 C   0  0  0  0  0  2  0  0  0  0  0  0
  187.9300  176.8070  138.1640 C   0  0  0  0  0  2  0  0  0  0  0  0
  187.8970  177.0620  135.1630 C   0  0  1  0  0  3  0  0  0  0  0  0
  189.2900  177.2810  137.9470 N   0  0  0  0  0  0  0  0  0  0  0  0
  187.6350  175.7790  135.9090 C   0  0  0  0  0  3  0  0  0  0  0  0
  187.6380  175.6610  137.2450 C   0  0  0  0  0  3  0  0  0  0  0  0
  186.7230  178.0240  135.2650 C   0  0  0  0  0  1  0  0  0  0  0  0
  189.2300  177.7230  135.5300 C   0  0  0  0  0  2  0  0  0  0  0  0
  1  7  1  1  0  0  0
  2  9  1  6  0  0  0
  2  1  1  0  0  0  0
  3  5  1  0  0  0  0
  5  7  1  0  0  0  0
  6 16  1  6  0  0  0
  6  3  1  0  0  0  0
  6  8  1  0  0  0  0
  8  4  1  6  0  0  0
  8  2  1  0  0  0  0
  8  1  1  0  0  0  0
  9 13  1  0  0  0  0
 10 14  1  0  0  0  0
 11  9  2  0  0  0  0
 13 12  1  0  0  0  0
 14 13  2  0  0  0  0
 15 11  1  0  0  0  0
 15 10  2  0  0  0  0
 17 16  1  0  0  0  0
 19 18  1  1  0  0  0
 19 17  1  0  0  0  0
 20 19  1  0  0  0  0
 21 24  1  0  0  0  0
 23 27  1  1  0  0  0
 23 28  1  0  0  0  0
 23 25  1  0  0  0  0
 24 22  1  0  0  0  0
 24 20  1  0  0  0  0
 25 26  2  0  0  0  0
 26 22  1  0  0  0  0
 28 21  1  0  0  0  0
M  END
>  <MODEL>
6

>  <REMARK>
 VINA RESULT:      -8.5      1.150      1.488
  Name = 
  6 active torsions:
  status: ('A' for Active; 'I' for Inactive)
    1  A    between atoms: C_2  and  C_3
    2  A    between atoms: C_5  and  O_20
    3  A    between atoms: C_5  and  C_21
    4  A    between atoms: C_10  and  N_13
    5  A    between atoms: C_10  and  C_25
    6  A    between atoms: O_20  and  C_25
                            x       y       z     vdW  Elec       q    Type
                         _______ _______ _______ _____ _____    ______ ____

>  <TORSDO>
F 6

$$$$
=
 OpenBabel11052413233D

 28 31  0  0  1  0  0  0  0  0999 V2000
  190.2200  177.0680  144.1660 C   0  0  1  0  0  3  0  0  0  0  0  0
  189.5630  178.1980  143.3630 C   0  0  2  0  0  3  0  0  0  0  0  0
  188.7710  177.0690  146.7180 C   0  0  0  0  0  2  0  0  0  0  0  0
  188.0270  176.2200  143.5810 O   0  0  0  0  0  1  0  0  0  0  0  0
  190.3100  177.0730  146.6900 C   0  0  0  0  0  2  0  0  0  0  0  0
  188.1520  177.8130  145.5340 C   0  0  1  0  0  3  0  0  0  0  0  0
  190.9050  177.6510  145.4010 C   0  0  0  0  0  2  0  0  0  0  0  0
  188.7100  177.2620  144.2170 C   0  0  1  0  0  0  0  0  0  0  0  0
  189.5160  177.8790  141.8910 C   0  0  0  0  0  0  0  0  0  0  0  0
  189.4220  177.1410  139.1830 C   0  0  0  0  0  3  0  0  0  0  0  0
  190.5450  177.1120  141.3250 C   0  0  0  0  0  3  0  0  0  0  0  0
  187.3420  178.9450  141.6320 O   0  0  0  0  0  1  0  0  0  0  0  0
  188.4100  178.2390  141.0930 C   0  0  0  0  0  0  0  0  0  0  0  0
  188.3760  177.8790  139.7430 C   0  0  0  0  0  3  0  0  0  0  0  0
  190.5040  176.7530  139.9760 C   0  0  0  0  0  3  0  0  0  0  0  0
  186.6340  177.7280  145.5760 C   0  0  0  0  0  2  0  0  0  0  0  0
  186.0760  178.6540  144.6800 O   0  0  0  0  0  0  0  0  0  0  0  0
  184.0520  178.3300  145.7760 F   0  0  0  0  0  0  0  0  0  0  0  0
  184.7020  178.3700  144.5490 C   0  0  1  0  0  3  0  0  0  0  0  0
  184.0110  179.3230  143.5770 C   0  0  0  0  0  2  0  0  0  0  0  0
  183.0150  178.8700  141.5110 C   0  0  0  0  0  2  0  0  0  0  0  0
  181.6890  179.3800  143.3840 C   0  0  0  0  0  2  0  0  0  0  0  0
  180.6490  178.2060  140.8120 C   0  0  1  0  0  3  0  0  0  0  0  0
  182.8780  178.6630  142.9480 N   0  0  0  0  0  0  0  0  0  0  0  0
  180.0450  177.9490  142.1680 C   0  0  0  0  0  3  0  0  0  0  0  0
  180.4960  178.4770  143.3160 C   0  0  0  0  0  3  0  0  0  0  0  0
  180.3330  179.6060  140.3100 C   0  0  0  0  0  1  0  0  0  0  0  0
  182.1450  177.8810  140.7360 C   0  0  0  0  0  2  0  0  0  0  0  0
  1  8  1  0  0  0  0
  1  7  1  1  0  0  0
  2  9  1  6  0  0  0
  2  1  1  0  0  0  0
  2  8  1  0  0  0  0
  5  3  1  0  0  0  0
  6 16  1  6  0  0  0
  6  3  1  0  0  0  0
  7  5  1  0  0  0  0
  8  4  1  6  0  0  0
  8  6  1  0  0  0  0
 10 14  2  0  0  0  0
 10 15  1  0  0  0  0
 11  9  1  0  0  0  0
 13 12  1  0  0  0  0
 13  9  2  0  0  0  0
 14 13  1  0  0  0  0
 15 11  2  0  0  0  0
 17 16  1  0  0  0  0
 19 17  1  0  0  0  0
 19 18  1  1  0  0  0
 20 19  1  0  0  0  0
 21 24  1  0  0  0  0
 23 27  1  1  0  0  0
 23 25  1  0  0  0  0
 24 22  1  0  0  0  0
 24 20  1  0  0  0  0
 25 26  2  0  0  0  0
 26 22  1  0  0  0  0
 28 23  1  0  0  0  0
 28 21  1  0  0  0  0
M  END
>  <MODEL>
7

>  <REMARK>
 VINA RESULT:      -8.2      3.477      6.726
  Name = 
  6 active torsions:
  status: ('A' for Active; 'I' for Inactive)
    1  A    between atoms: C_2  and  C_3
    2  A    between atoms: C_5  and  O_20
    3  A    between atoms: C_5  and  C_21
    4  A    between atoms: C_10  and  N_13
    5  A    between atoms: C_10  and  C_25
    6  A    between atoms: O_20  and  C_25
                            x       y       z     vdW  Elec       q    Type
                         _______ _______ _______ _____ _____    ______ ____

>  <TORSDO>
F 6

$$$$
=
 OpenBabel11052413233D

 28 31  0  0  1  0  0  0  0  0999 V2000
  189.7620  176.9870  144.7810 C   0  0  1  0  0  3  0  0  0  0  0  0
  189.3630  178.1720  143.8930 C   0  0  2  0  0  3  0  0  0  0  0  0
  187.8980  177.1280  147.0430 C   0  0  0  0  0  2  0  0  0  0  0  0
  187.6350  176.3480  143.8130 O   0  0  0  0  0  1  0  0  0  0  0  0
  189.4120  176.9860  147.2820 C   0  0  0  0  0  2  0  0  0  0  0  0
  187.5660  177.9260  145.7810 C   0  0  1  0  0  3  0  0  0  0  0  0
  190.2730  177.5040  146.1250 C   0  0  0  0  0  2  0  0  0  0  0  0
  188.2910  177.3220  144.5730 C   0  0  1  0  0  0  0  0  0  0  0  0
  189.5430  177.8560  142.4300 C   0  0  0  0  0  0  0  0  0  0  0  0
  189.8670  177.4120  139.6770 C   0  0  0  0  0  3  0  0  0  0  0  0
  188.5040  178.1470  141.5350 C   0  0  0  0  0  3  0  0  0  0  0  0
  191.8450  177.1370  142.7740 O   0  0  0  0  0  1  0  0  0  0  0  0
  190.7710  177.3780  141.9260 C   0  0  0  0  0  0  0  0  0  0  0  0
  190.9200  177.1470  140.5550 C   0  0  0  0  0  3  0  0  0  0  0  0
  188.6610  177.9170  140.1660 C   0  0  0  0  0  3  0  0  0  0  0  0
  186.0630  177.9840  145.5580 C   0  0  0  0  0  2  0  0  0  0  0  0
  185.6770  179.2940  145.2320 O   0  0  0  0  0  0  0  0  0  0  0  0
  184.0370  180.4570  144.0650 F   0  0  0  0  0  0  0  0  0  0  0  0
  184.6410  179.2250  144.2780 C   0  0  1  0  0  3  0  0  0  0  0  0
  185.1120  178.5950  142.9690 C   0  0  0  0  0  2  0  0  0  0  0  0
  182.9960  178.2550  142.0360 C   0  0  0  0  0  2  0  0  0  0  0  0
  184.8740  178.5360  140.6510 C   0  0  0  0  0  2  0  0  0  0  0  0
  182.0140  178.6710  139.7140 C   0  0  1  0  0  3  0  0  0  0  0  0
  184.2400  178.9970  141.8780 N   0  0  0  0  0  0  0  0  0  0  0  0
  183.1490  179.4430  139.0920 C   0  0  0  0  0  3  0  0  0  0  0  0
  184.4260  179.3790  139.4970 C   0  0  0  0  0  3  0  0  0  0  0  0
  182.0710  177.1940  139.3530 C   0  0  0  0  0  1  0  0  0  0  0  0
  181.8720  178.8990  141.2230 C   0  0  0  0  0  2  0  0  0  0  0  0
  1  7  1  1  0  0  0
  2  9  1  6  0  0  0
  2  8  1  0  0  0  0
  2  1  1  0  0  0  0
  3  5  1  0  0  0  0
  6 16  1  6  0  0  0
  6  3  1  0  0  0  0
  7  5  1  0  0  0  0
  8  4  1  6  0  0  0
  8  1  1  0  0  0  0
  8  6  1  0  0  0  0
 10 15  2  0  0  0  0
 10 14  1  0  0  0  0
 11  9  2  0  0  0  0
 13  9  1  0  0  0  0
 13 12  1  0  0  0  0
 14 13  2  0  0  0  0
 15 11  1  0  0  0  0
 17 16  1  0  0  0  0
 19 18  1  6  0  0  0
 19 17  1  0  0  0  0
 20 19  1  0  0  0  0
 22 24  1  0  0  0  0
 23 27  1  1  0  0  0
 23 28  1  0  0  0  0
 24 21  1  0  0  0  0
 24 20  1  0  0  0  0
 25 26  2  0  0  0  0
 25 23  1  0  0  0  0
 26 22  1  0  0  0  0
 28 21  1  0  0  0  0
M  END
>  <MODEL>
8

>  <REMARK>
 VINA RESULT:      -8.2      3.196      5.887
  Name = 
  6 active torsions:
  status: ('A' for Active; 'I' for Inactive)
    1  A    between atoms: C_2  and  C_3
    2  A    between atoms: C_5  and  O_20
    3  A    between atoms: C_5  and  C_21
    4  A    between atoms: C_10  and  N_13
    5  A    between atoms: C_10  and  C_25
    6  A    between atoms: O_20  and  C_25
                            x       y       z     vdW  Elec       q    Type
                         _______ _______ _______ _____ _____    ______ ____

>  <TORSDO>
F 6

$$$$
=
 OpenBabel11052413233D

 28 31  0  0  1  0  0  0  0  0999 V2000
  189.2740  177.7450  145.6160 C   0  0  1  0  0  3  0  0  0  0  0  0
  188.1480  176.9950  144.8930 C   0  0  2  0  0  3  0  0  0  0  0  0
  191.6620  177.1710  144.0100 C   0  0  0  0  0  2  0  0  0  0  0  0
  188.9060  178.9960  143.5740 O   0  0  0  0  0  1  0  0  0  0  0  0
  191.6800  176.9840  145.5380 C   0  0  0  0  0  2  0  0  0  0  0  0
  190.2910  176.8940  143.3920 C   0  0  1  0  0  3  0  0  0  0  0  0
  190.2960  176.7430  146.1490 C   0  0  0  0  0  2  0  0  0  0  0  0
  189.2180  177.7350  144.0940 C   0  0  1  0  0  0  0  0  0  0  0  0
  186.8400  177.7390  144.9800 C   0  0  0  0  0  0  0  0  0  0  0  0
  184.3360  179.0030  145.0940 C   0  0  0  0  0  3  0  0  0  0  0  0
  186.0950  177.9510  143.8110 C   0  0  0  0  0  3  0  0  0  0  0  0
  186.9750  177.8810  147.4080 O   0  0  0  0  0  1  0  0  0  0  0  0
  186.2960  178.1300  146.2210 C   0  0  0  0  0  0  0  0  0  0  0  0
  185.0540  178.7700  146.2690 C   0  0  0  0  0  3  0  0  0  0  0  0
  184.8540  178.5880  143.8650 C   0  0  0  0  0  3  0  0  0  0  0  0
  190.3100  177.1520  141.8940 C   0  0  0  0  0  2  0  0  0  0  0  0
  189.0920  176.7530  141.3220 O   0  0  0  0  0  0  0  0  0  0  0  0
  188.3240  178.8970  140.8560 F   0  0  0  0  0  0  0  0  0  0  0  0
  188.7460  177.6850  140.3230 C   0  0  1  0  0  3  0  0  0  0  0  0
  189.8680  177.8780  139.3060 C   0  0  0  0  0  2  0  0  0  0  0  0
  187.8700  177.8780  138.0950 C   0  0  0  0  0  2  0  0  0  0  0  0
  189.7850  176.8270  137.2280 C   0  0  0  0  0  2  0  0  0  0  0  0
  187.3070  177.4650  135.6370 C   0  0  1  0  0  3  0  0  0  0  0  0
  189.3170  177.9910  137.9670 N   0  0  0  0  0  0  0  0  0  0  0  0
  188.6980  177.4220  135.0610 C   0  0  0  0  0  3  0  0  0  0  0  0
  189.8050  177.1290  135.7610 C   0  0  0  0  0  3  0  0  0  0  0  0
  186.7730  176.0700  135.9260 C   0  0  0  0  0  1  0  0  0  0  0  0
  187.1700  178.4030  136.8410 C   0  0  0  0  0  2  0  0  0  0  0  0
  1  7  1  6  0  0  0
  2  9  1  1  0  0  0
  2  1  1  0  0  0  0
  3  5  1  0  0  0  0
  5  7  1  0  0  0  0
  6 16  1  6  0  0  0
  6  3  1  0  0  0  0
  6  8  1  0  0  0  0
  8  4  1  6  0  0  0
  8  2  1  0  0  0  0
  8  1  1  0  0  0  0
  9 13  1  0  0  0  0
 10 14  1  0  0  0  0
 11 15  1  0  0  0  0
 11  9  2  0  0  0  0
 13 14  2  0  0  0  0
 13 12  1  0  0  0  0
 15 10  2  0  0  0  0
 17 16  1  0  0  0  0
 19 18  1  1  0  0  0
 19 17  1  0  0  0  0
 20 19  1  0  0  0  0
 22 24  1  0  0  0  0
 23 27  1  1  0  0  0
 23 28  1  0  0  0  0
 24 21  1  0  0  0  0
 24 20  1  0  0  0  0
 25 23  1  0  0  0  0
 25 26  2  0  0  0  0
 26 22  1  0  0  0  0
 28 21  1  0  0  0  0
M  END
>  <MODEL>
9

>  <REMARK>
 VINA RESULT:      -7.9      1.387      1.624
  Name = 
  6 active torsions:
  status: ('A' for Active; 'I' for Inactive)
    1  A    between atoms: C_2  and  C_3
    2  A    between atoms: C_5  and  O_20
    3  A    between atoms: C_5  and  C_21
    4  A    between atoms: C_10  and  N_13
    5  A    between atoms: C_10  and  C_25
    6  A    between atoms: O_20  and  C_25
                            x       y       z     vdW  Elec       q    Type
                         _______ _______ _______ _____ _____    ______ ____

>  <TORSDO>
F 6

$$$$
