=
 OpenBabel11052415243D

 37 40  0  0  1  0  0  0  0  0999 V2000
  190.2220  177.2890  136.7000 N   0  0  0  0  0  2  0  0  0  0  0  0
  192.9460  175.2500  138.3100 C   0  0  0  0  0  2  0  0  0  0  0  0
  187.5980  174.9150  135.3510 C   0  0  0  0  0  3  0  0  0  0  0  0
  190.3590  176.6330  137.9980 C   0  0  2  0  0  3  0  0  0  0  0  0
  188.6500  175.4520  136.1130 C   0  0  0  0  0  0  0  0  0  0  0  0
  191.4940  177.2580  138.8150 C   0  0  2  0  0  3  0  0  0  0  0  0
  188.9570  177.4310  134.6390 C   0  0  0  0  0  1  0  0  0  0  0  0
  189.3810  174.5900  136.9660 C   0  0  0  0  0  0  0  0  0  0  0  0
  188.0350  172.7090  136.2410 C   0  0  0  0  0  3  0  0  0  0  0  0
  188.9230  176.9560  136.0870 C   0  0  2  0  0  0  0  0  0  0  0  0
  189.0720  173.2260  137.0190 C   0  0  0  0  0  3  0  0  0  0  0  0
  192.8780  176.7760  138.3680 C   0  0  0  0  0  2  0  0  0  0  0  0
  190.5100  175.1170  137.8040 C   0  0  1  0  0  3  0  0  0  0  0  0
  187.3000  173.5510  135.4040 C   0  0  0  0  0  0  0  0  0  0  0  0
  191.9190  174.6950  137.3150 C   0  0  1  0  0  3  0  0  0  0  0  0
  186.1780  172.9990  134.5940 C   0  0  0  0  0  2  0  0  0  0  0  0
  185.8140  171.6110  135.0840 C   0  0  0  0  0  1  0  0  0  0  0  0
  187.0120  178.6350  135.9290 C   0  0  0  0  0  1  0  0  0  0  0  0
  187.7870  177.6790  136.8270 C   0  0  0  0  0  2  0  0  0  0  0  0
  192.2480  175.1110  135.8570 C   0  0  2  0  0  3  0  0  0  0  0  0
  192.4410  173.9150  134.9250 C   0  0  0  0  0  2  0  0  0  0  0  0
  192.1790  171.6070  134.7380 C   0  0  0  0  0  1  0  0  0  0  0  0
  192.3870  172.6820  135.6900 N   0  0  0  0  0  2  0  0  0  0  0  0
  193.3800  176.0480  135.7670 N   0  0  0  0  0  2  0  0  0  0  0  0
  194.3810  175.5910  134.7990 C   0  0  0  0  0  2  0  0  0  0  0  0
  195.7830  176.0050  135.2250 C   0  0  0  0  0  2  0  0  0  0  0  0
  196.1690  178.6120  134.7840 C   0  0  0  0  0  3  0  0  0  0  0  0
  195.9950  177.4350  134.9870 C   0  0  0  0  0  0  0  0  0  0  0  0
  191.2660  177.0210  140.3020 C   0  0  0  0  0  2  0  0  0  0  0  0
  189.5980  177.5650  140.8010 S   0  0  0  0  0  0  0  0  0  0  0  0
  191.3030  177.8850  142.9630 C   0  0  0  0  0  3  0  0  0  0  0  0
  190.0030  177.5860  142.5460 C   0  0  0  0  0  0  0  0  0  0  0  0
  189.0150  177.3010  143.4930 C   0  0  0  0  0  3  0  0  0  0  0  0
  188.3700  177.0230  145.7710 F   0  0  0  0  0  0  0  0  0  0  0  0
  190.6280  177.5990  145.2720 C   0  0  0  0  0  3  0  0  0  0  0  0
  189.3270  177.3060  144.8560 C   0  0  0  0  0  0  0  0  0  0  0  0
  191.6150  177.8900  144.3260 C   0  0  0  0  0  3  0  0  0  0  0  0
  2 12  1  0  0  0  0
  3 14  2  0  0  0  0
  3  5  1  0  0  0  0
  4  1  1  6  0  0  0
  4  6  1  0  0  0  0
  5  8  2  0  0  0  0
  6 29  1  1  0  0  0
  8 11  1  0  0  0  0
  9 11  2  0  0  0  0
 10  7  1  6  0  0  0
 10  5  1  0  0  0  0
 10  1  1  0  0  0  0
 10 19  1  0  0  0  0
 12  6  1  0  0  0  0
 13  8  1  6  0  0  0
 13  4  1  0  0  0  0
 14  9  1  0  0  0  0
 15 20  1  6  0  0  0
 15 13  1  0  0  0  0
 15  2  1  0  0  0  0
 16 17  1  0  0  0  0
 16 14  1  0  0  0  0
 18 19  1  0  0  0  0
 20 21  1  6  0  0  0
 21 23  1  0  0  0  0
 22 23  1  0  0  0  0
 24 20  1  0  0  0  0
 25 26  1  0  0  0  0
 25 24  1  0  0  0  0
 27 28  3  0  0  0  0
 28 26  1  0  0  0  0
 29 30  1  0  0  0  0
 30 32  1  0  0  0  0
 31 37  1  0  0  0  0
 32 31  2  0  0  0  0
 32 33  1  0  0  0  0
 33 36  2  0  0  0  0
 36 35  1  0  0  0  0
 36 34  1  0  0  0  0
 37 35  2  0  0  0  0
M  END
>  <MODEL>
1

>  <REMARK>
 VINA RESULT:      -5.5      0.000      0.000
  Name = 
  12 active torsions:
  status: ('A' for Active; 'I' for Inactive)
    1  A    between atoms: C_1  and  C_5
    2  A    between atoms: C_1  and  N_33
    3  A    between atoms: C_1  and  C_36
    4  A    between atoms: C_3  and  C_32
    5  A    between atoms: C_5  and  N_23
    6  A    between atoms: C_6  and  S_31
    7  A    between atoms: C_14  and  C_37
    8  A    between atoms: C_17  and  C_26
    9  A    between atoms: C_17  and  N_33
   10  A    between atoms: C_24  and  C_28
   11  A    between atoms: C_26  and  C_34
   12  A    between atoms: S_31  and  C_37
                            x       y       z     vdW  Elec       q    Type
                         _______ _______ _______ _____ _____    ______ ____

>  <TORSDO>
F 12

$$$$
=
 OpenBabel11052415243D

 37 40  0  0  1  0  0  0  0  0999 V2000
  180.9770  176.9060  137.6630 N   0  0  0  0  0  2  0  0  0  0  0  0
  183.3200  177.2770  134.7390 C   0  0  0  0  0  2  0  0  0  0  0  0
  182.8730  177.7750  140.8240 C   0  0  0  0  0  3  0  0  0  0  0  0
  181.4530  178.0500  136.8880 C   0  0  2  0  0  3  0  0  0  0  0  0
  182.4800  177.7080  139.4760 C   0  0  0  0  0  0  0  0  0  0  0  0
  180.9870  177.9620  135.4320 C   0  0  2  0  0  3  0  0  0  0  0  0
  180.8560  175.8630  139.8450 C   0  0  0  0  0  1  0  0  0  0  0  0
  183.3520  178.2260  138.4870 C   0  0  0  0  0  0  0  0  0  0  0  0
  184.9680  178.8090  140.1980 C   0  0  0  0  0  3  0  0  0  0  0  0
  181.0960  177.1750  139.1080 C   0  0  2  0  0  0  0  0  0  0  0  0
  184.5900  178.7670  138.8550 C   0  0  0  0  0  3  0  0  0  0  0  0
  181.8250  176.9860  134.6010 C   0  0  0  0  0  2  0  0  0  0  0  0
  182.9760  178.1840  137.0350 C   0  0  1  0  0  3  0  0  0  0  0  0
  184.1130  178.3100  141.1830 C   0  0  0  0  0  0  0  0  0  0  0  0
  183.7690  177.1450  136.2010 C   0  0  1  0  0  3  0  0  0  0  0  0
  184.5110  178.3780  142.6160 C   0  0  0  0  0  2  0  0  0  0  0  0
  185.9960  178.1060  142.7600 C   0  0  0  0  0  1  0  0  0  0  0  0
  179.1220  177.6700  140.6420 C   0  0  0  0  0  1  0  0  0  0  0  0
  180.0370  178.1990  139.5450 C   0  0  0  0  0  2  0  0  0  0  0  0
  183.6530  175.6840  136.7080 C   0  0  2  0  0  3  0  0  0  0  0  0
  184.9670  175.1410  137.2670 C   0  0  0  0  0  2  0  0  0  0  0  0
  187.2880  175.3260  137.1540 C   0  0  0  0  0  1  0  0  0  0  0  0
  186.0500  176.0560  136.9520 N   0  0  0  0  0  2  0  0  0  0  0  0
  183.0780  174.7710  135.7070 N   0  0  0  0  0  2  0  0  0  0  0  0
  183.2610  173.3690  136.0900 C   0  0  0  0  0  2  0  0  0  0  0  0
  182.0290  172.5430  135.7480 C   0  0  0  0  0  2  0  0  0  0  0  0
  179.8020  173.8820  136.3700 C   0  0  0  0  0  3  0  0  0  0  0  0
  180.8050  173.2740  136.0890 C   0  0  0  0  0  0  0  0  0  0  0  0
  180.9490  179.3500  134.8050 C   0  0  0  0  0  2  0  0  0  0  0  0
  179.3790  180.1960  135.1910 S   0  0  0  0  0  0  0  0  0  0  0  0
  180.6150  181.4250  137.3460 C   0  0  0  0  0  3  0  0  0  0  0  0
  180.1870  181.5610  136.0220 C   0  0  0  0  0  0  0  0  0  0  0  0
  180.3910  182.7680  135.3440 C   0  0  0  0  0  3  0  0  0  0  0  0
  181.2020  185.0080  135.3350 F   0  0  0  0  0  0  0  0  0  0  0  0
  181.4330  183.7050  137.3170 C   0  0  0  0  0  3  0  0  0  0  0  0
  181.0130  183.8400  135.9910 C   0  0  0  0  0  0  0  0  0  0  0  0
  181.2360  182.4980  137.9930 C   0  0  0  0  0  3  0  0  0  0  0  0
  1 10  1  0  0  0  0
  2 15  1  0  0  0  0
  3 14  1  0  0  0  0
  4 13  1  0  0  0  0
  4  1  1  1  0  0  0
  5  3  2  0  0  0  0
  6 29  1  6  0  0  0
  6  4  1  0  0  0  0
  8 11  2  0  0  0  0
  8  5  1  0  0  0  0
  9 14  2  0  0  0  0
 10  5  1  0  0  0  0
 10 19  1  0  0  0  0
 10  7  1  1  0  0  0
 11  9  1  0  0  0  0
 12  2  1  0  0  0  0
 12  6  1  0  0  0  0
 13  8  1  1  0  0  0
 14 16  1  0  0  0  0
 15 20  1  1  0  0  0
 15 13  1  0  0  0  0
 16 17  1  0  0  0  0
 19 18  1  0  0  0  0
 20 21  1  6  0  0  0
 23 22  1  0  0  0  0
 23 21  1  0  0  0  0
 24 25  1  0  0  0  0
 24 20  1  0  0  0  0
 26 28  1  0  0  0  0
 26 25  1  0  0  0  0
 28 27  3  0  0  0  0
 29 30  1  0  0  0  0
 30 32  1  0  0  0  0
 31 37  1  0  0  0  0
 32 31  2  0  0  0  0
 33 36  2  0  0  0  0
 33 32  1  0  0  0  0
 34 36  1  0  0  0  0
 35 37  2  0  0  0  0
 36 35  1  0  0  0  0
M  END
>  <MODEL>
2

>  <REMARK>
 VINA RESULT:      -5.3      6.649     10.776
  Name = 
  12 active torsions:
  status: ('A' for Active; 'I' for Inactive)
    1  A    between atoms: C_1  and  C_5
    2  A    between atoms: C_1  and  N_33
    3  A    between atoms: C_1  and  C_36
    4  A    between atoms: C_3  and  C_32
    5  A    between atoms: C_5  and  N_23
    6  A    between atoms: C_6  and  S_31
    7  A    between atoms: C_14  and  C_37
    8  A    between atoms: C_17  and  C_26
    9  A    between atoms: C_17  and  N_33
   10  A    between atoms: C_24  and  C_28
   11  A    between atoms: C_26  and  C_34
   12  A    between atoms: S_31  and  C_37
                            x       y       z     vdW  Elec       q    Type
                         _______ _______ _______ _____ _____    ______ ____

>  <TORSDO>
F 12

$$$$
=
 OpenBabel11052415243D

 37 40  0  0  1  0  0  0  0  0999 V2000
  187.4370  177.4320  136.4830 N   0  0  0  0  0  2  0  0  0  0  0  0
  190.6410  176.0890  137.9350 C   0  0  0  0  0  2  0  0  0  0  0  0
  185.1170  174.5130  135.8190 C   0  0  0  0  0  3  0  0  0  0  0  0
  187.8370  176.9990  137.8210 C   0  0  2  0  0  3  0  0  0  0  0  0
  186.1440  175.3100  136.3540 C   0  0  0  0  0  0  0  0  0  0  0  0
  188.9370  177.9020  138.3860 C   0  0  2  0  0  3  0  0  0  0  0  0
  185.9330  177.0780  134.6190 C   0  0  0  0  0  1  0  0  0  0  0  0
  187.1070  174.7030  137.1960 C   0  0  0  0  0  0  0  0  0  0  0  0
  186.0260  172.5520  136.9060 C   0  0  0  0  0  3  0  0  0  0  0  0
  186.1510  176.8180  136.1050 C   0  0  2  0  0  0  0  0  0  0  0  0
  187.0440  173.3290  137.4600 C   0  0  0  0  0  3  0  0  0  0  0  0
  190.3200  177.5790  137.8130 C   0  0  0  0  0  2  0  0  0  0  0  0
  188.2200  175.5120  137.7960 C   0  0  1  0  0  3  0  0  0  0  0  0
  185.0640  173.1420  136.0820 C   0  0  0  0  0  0  0  0  0  0  0  0
  189.6130  175.2450  137.1700 C   0  0  1  0  0  3  0  0  0  0  0  0
  183.9660  172.3130  135.5120 C   0  0  0  0  0  2  0  0  0  0  0  0
  183.8130  171.0300  136.3060 C   0  0  0  0  0  1  0  0  0  0  0  0
  183.7070  177.5420  136.1060 C   0  0  0  0  0  1  0  0  0  0  0  0
  185.0030  177.4580  136.9020 C   0  0  0  0  0  2  0  0  0  0  0  0
  189.6920  175.4910  135.6400 C   0  0  2  0  0  3  0  0  0  0  0  0
  189.7050  174.1960  134.8280 C   0  0  0  0  0  2  0  0  0  0  0  0
  189.5630  171.8740  134.9680 C   0  0  0  0  0  1  0  0  0  0  0  0
  189.9320  173.0650  135.7110 N   0  0  0  0  0  2  0  0  0  0  0  0
  190.8040  176.3750  135.2560 N   0  0  0  0  0  2  0  0  0  0  0  0
  191.8790  175.6320  134.5950 C   0  0  0  0  0  2  0  0  0  0  0  0
  193.2380  176.2440  134.9050 C   0  0  0  0  0  2  0  0  0  0  0  0
  194.4170  174.9590  136.9300 C   0  0  0  0  0  3  0  0  0  0  0  0
  193.8810  175.5380  136.0180 C   0  0  0  0  0  0  0  0  0  0  0  0
  188.9300  177.8510  139.9090 C   0  0  0  0  0  2  0  0  0  0  0  0
  187.2660  178.2060  140.5650 S   0  0  0  0  0  0  0  0  0  0  0  0
  188.9700  177.2110  142.5130 C   0  0  0  0  0  3  0  0  0  0  0  0
  187.6940  177.7090  142.2330 C   0  0  0  0  0  0  0  0  0  0  0  0
  186.7480  177.8200  143.2570 C   0  0  0  0  0  3  0  0  0  0  0  0
  186.1540  177.5280  145.5460 F   0  0  0  0  0  0  0  0  0  0  0  0
  188.3460  176.9210  144.8360 C   0  0  0  0  0  3  0  0  0  0  0  0
  187.0730  177.4250  144.5580 C   0  0  0  0  0  0  0  0  0  0  0  0
  189.2940  176.8150  143.8140 C   0  0  0  0  0  3  0  0  0  0  0  0
  3 14  2  0  0  0  0
  3  5  1  0  0  0  0
  4  1  1  6  0  0  0
  4  6  1  0  0  0  0
  5  8  2  0  0  0  0
  6 29  1  1  0  0  0
  8 11  1  0  0  0  0
  9 11  2  0  0  0  0
 10  7  1  6  0  0  0
 10  5  1  0  0  0  0
 10  1  1  0  0  0  0
 10 19  1  0  0  0  0
 12  2  1  0  0  0  0
 12  6  1  0  0  0  0
 13  8  1  6  0  0  0
 13  4  1  0  0  0  0
 14  9  1  0  0  0  0
 15 20  1  6  0  0  0
 15 13  1  0  0  0  0
 15  2  1  0  0  0  0
 16 14  1  0  0  0  0
 16 17  1  0  0  0  0
 18 19  1  0  0  0  0
 20 21  1  6  0  0  0
 21 23  1  0  0  0  0
 22 23  1  0  0  0  0
 24 20  1  0  0  0  0
 25 26  1  0  0  0  0
 25 24  1  0  0  0  0
 26 28  1  0  0  0  0
 28 27  3  0  0  0  0
 29 30  1  0  0  0  0
 30 32  1  0  0  0  0
 31 37  1  0  0  0  0
 32 31  2  0  0  0  0
 32 33  1  0  0  0  0
 33 36  2  0  0  0  0
 36 35  1  0  0  0  0
 36 34  1  0  0  0  0
 37 35  2  0  0  0  0
M  END
>  <MODEL>
3

>  <REMARK>
 VINA RESULT:      -5.0      2.020      2.638
  Name = 
  12 active torsions:
  status: ('A' for Active; 'I' for Inactive)
    1  A    between atoms: C_1  and  C_5
    2  A    between atoms: C_1  and  N_33
    3  A    between atoms: C_1  and  C_36
    4  A    between atoms: C_3  and  C_32
    5  A    between atoms: C_5  and  N_23
    6  A    between atoms: C_6  and  S_31
    7  A    between atoms: C_14  and  C_37
    8  A    between atoms: C_17  and  C_26
    9  A    between atoms: C_17  and  N_33
   10  A    between atoms: C_24  and  C_28
   11  A    between atoms: C_26  and  C_34
   12  A    between atoms: S_31  and  C_37
                            x       y       z     vdW  Elec       q    Type
                         _______ _______ _______ _____ _____    ______ ____

>  <TORSDO>
F 12

$$$$
=
 OpenBabel11052415243D

 37 40  0  0  1  0  0  0  0  0999 V2000
  181.5010  177.9330  136.7990 N   0  0  0  0  0  2  0  0  0  0  0  0
  183.7100  175.1210  137.9790 C   0  0  0  0  0  2  0  0  0  0  0  0
  180.0910  179.6940  139.8400 C   0  0  0  0  0  3  0  0  0  0  0  0
  182.8750  177.8660  137.2920 C   0  0  2  0  0  3  0  0  0  0  0  0
  180.9240  178.9310  139.0030 C   0  0  0  0  0  0  0  0  0  0  0  0
  183.7620  177.0520  136.3460 C   0  0  2  0  0  3  0  0  0  0  0  0
  179.2820  178.8400  137.1380 C   0  0  0  0  0  1  0  0  0  0  0  0
  181.9670  178.1740  139.5890 C   0  0  0  0  0  0  0  0  0  0  0  0
  181.2910  178.9240  141.7940 C   0  0  0  0  0  3  0  0  0  0  0  0
  180.7570  179.0040  137.4860 C   0  0  2  0  0  0  0  0  0  0  0  0
  182.1400  178.1720  140.9790 C   0  0  0  0  0  3  0  0  0  0  0  0
  183.5750  175.5410  136.5140 C   0  0  0  0  0  2  0  0  0  0  0  0
  182.8870  177.3470  138.7380 C   0  0  1  0  0  3  0  0  0  0  0  0
  180.2650  179.6820  141.2270 C   0  0  0  0  0  0  0  0  0  0  0  0
  182.6540  175.8190  138.8460 C   0  0  1  0  0  3  0  0  0  0  0  0
  179.3780  180.5010  142.0980 C   0  0  0  0  0  2  0  0  0  0  0  0
  179.2100  179.8320  143.4490 C   0  0  0  0  0  1  0  0  0  0  0  0
  180.8260  180.6750  135.5620 C   0  0  0  0  0  1  0  0  0  0  0  0
  181.2390  180.3800  136.9990 C   0  0  0  0  0  2  0  0  0  0  0  0
  181.2170  175.3560  138.4850 C   0  0  2  0  0  3  0  0  0  0  0  0
  180.3600  175.0600  139.7150 C   0  0  0  0  0  2  0  0  0  0  0  0
  178.9320  176.2730  141.1010 C   0  0  0  0  0  1  0  0  0  0  0  0
  179.1900  175.9220  139.7170 N   0  0  0  0  0  2  0  0  0  0  0  0
  181.1960  174.2330  137.5340 N   0  0  0  0  0  2  0  0  0  0  0  0
  180.3830  173.1210  138.0330 C   0  0  0  0  0  2  0  0  0  0  0  0
  180.6920  171.8360  137.2780 C   0  0  0  0  0  2  0  0  0  0  0  0
  183.3300  171.5430  136.9680 C   0  0  0  0  0  3  0  0  0  0  0  0
  182.1380  171.6730  137.1040 C   0  0  0  0  0  0  0  0  0  0  0  0
  185.2210  177.4610  136.5070 C   0  0  0  0  0  2  0  0  0  0  0  0
  186.3290  176.2380  135.7320 S   0  0  0  0  0  0  0  0  0  0  0  0
  187.9320  178.0760  137.0490 C   0  0  0  0  0  3  0  0  0  0  0  0
  187.7460  176.7320  136.7110 C   0  0  0  0  0  0  0  0  0  0  0  0
  188.6680  175.7710  137.1370 C   0  0  0  0  0  3  0  0  0  0  0  0
  190.6750  175.2220  138.2980 F   0  0  0  0  0  0  0  0  0  0  0  0
  189.9690  177.4970  138.2250 C   0  0  0  0  0  3  0  0  0  0  0  0
  189.7800  176.1530  137.8930 C   0  0  0  0  0  0  0  0  0  0  0  0
  189.0450  178.4580  137.8050 C   0  0  0  0  0  3  0  0  0  0  0  0
  1 10  1  0  0  0  0
  2 15  1  0  0  0  0
  3 14  1  0  0  0  0
  4  1  1  6  0  0  0
  4 13  1  0  0  0  0
  5  8  1  0  0  0  0
  5  3  2  0  0  0  0
  6 29  1  1  0  0  0
  6 12  1  0  0  0  0
  6  4  1  0  0  0  0
  8 11  2  0  0  0  0
 10  7  1  6  0  0  0
 10  5  1  0  0  0  0
 11  9  1  0  0  0  0
 12  2  1  0  0  0  0
 13 15  1  0  0  0  0
 13  8  1  1  0  0  0
 14  9  2  0  0  0  0
 14 16  1  0  0  0  0
 15 20  1  6  0  0  0
 16 17  1  0  0  0  0
 18 19  1  0  0  0  0
 19 10  1  0  0  0  0
 20 21  1  1  0  0  0
 21 23  1  0  0  0  0
 23 22  1  0  0  0  0
 24 25  1  0  0  0  0
 24 20  1  0  0  0  0
 26 25  1  0  0  0  0
 27 28  3  0  0  0  0
 28 26  1  0  0  0  0
 30 29  1  0  0  0  0
 30 32  1  0  0  0  0
 31 37  1  0  0  0  0
 32 31  2  0  0  0  0
 32 33  1  0  0  0  0
 33 36  2  0  0  0  0
 36 35  1  0  0  0  0
 36 34  1  0  0  0  0
 37 35  2  0  0  0  0
M  END
>  <MODEL>
4

>  <REMARK>
 VINA RESULT:      -4.9      6.528     10.335
  Name = 
  12 active torsions:
  status: ('A' for Active; 'I' for Inactive)
    1  A    between atoms: C_1  and  C_5
    2  A    between atoms: C_1  and  N_33
    3  A    between atoms: C_1  and  C_36
    4  A    between atoms: C_3  and  C_32
    5  A    between atoms: C_5  and  N_23
    6  A    between atoms: C_6  and  S_31
    7  A    between atoms: C_14  and  C_37
    8  A    between atoms: C_17  and  C_26
    9  A    between atoms: C_17  and  N_33
   10  A    between atoms: C_24  and  C_28
   11  A    between atoms: C_26  and  C_34
   12  A    between atoms: S_31  and  C_37
                            x       y       z     vdW  Elec       q    Type
                         _______ _______ _______ _____ _____    ______ ____

>  <TORSDO>
F 12

$$$$
=
 OpenBabel11052415243D

 37 40  0  0  1  0  0  0  0  0999 V2000
  189.5880  173.8540  136.9090 N   0  0  0  0  0  2  0  0  0  0  0  0
  192.2970  176.4230  137.3920 C   0  0  0  0  0  2  0  0  0  0  0  0
  186.5360  175.5940  135.4960 C   0  0  0  0  0  3  0  0  0  0  0  0
  190.5480  174.4900  136.0100 C   0  0  2  0  0  3  0  0  0  0  0  0
  187.8670  175.2930  135.8360 C   0  0  0  0  0  0  0  0  0  0  0  0
  191.9860  174.1220  136.3890 C   0  0  2  0  0  3  0  0  0  0  0  0
  187.2510  173.4780  137.4190 C   0  0  0  0  0  1  0  0  0  0  0  0
  188.8610  176.2790  135.6230 C   0  0  0  0  0  0  0  0  0  0  0  0
  187.1810  177.8180  134.7950 C   0  0  0  0  0  3  0  0  0  0  0  0
  188.2330  173.8950  136.3300 C   0  0  2  0  0  0  0  0  0  0  0  0
  188.5110  177.5330  135.1110 C   0  0  0  0  0  3  0  0  0  0  0  0
  192.5040  174.9210  137.5900 C   0  0  0  0  0  2  0  0  0  0  0  0
  190.2980  176.0050  135.9650 C   0  0  1  0  0  3  0  0  0  0  0  0
  186.1920  176.8510  134.9910 C   0  0  0  0  0  0  0  0  0  0  0  0
  190.8080  176.7520  137.2230 C   0  0  1  0  0  3  0  0  0  0  0  0
  184.7790  177.1500  134.6310 C   0  0  0  0  0  2  0  0  0  0  0  0
  183.8900  175.9710  134.9760 C   0  0  0  0  0  1  0  0  0  0  0  0
  187.6420  171.5310  135.5820 C   0  0  0  0  0  1  0  0  0  0  0  0
  188.1290  172.9100  135.1550 C   0  0  0  0  0  2  0  0  0  0  0  0
  190.0050  176.4610  138.5180 C   0  0  2  0  0  3  0  0  0  0  0  0
  189.0130  177.5700  138.8670 C   0  0  0  0  0  2  0  0  0  0  0  0
  186.8230  178.2660  138.4760 C   0  0  0  0  0  1  0  0  0  0  0  0
  187.6550  177.0930  138.6720 N   0  0  0  0  0  2  0  0  0  0  0  0
  190.8640  176.1310  139.6670 N   0  0  0  0  0  2  0  0  0  0  0  0
  190.4140  176.8050  140.8870 C   0  0  0  0  0  2  0  0  0  0  0  0
  191.5740  177.4920  141.5930 C   0  0  0  0  0  2  0  0  0  0  0  0
  191.1060  177.6920  144.2160 C   0  0  0  0  0  3  0  0  0  0  0  0
  191.3140  177.5990  143.0320 C   0  0  0  0  0  0  0  0  0  0  0  0
  192.9030  174.2620  135.1810 C   0  0  0  0  0  2  0  0  0  0  0  0
  194.0990  172.8870  135.1090 S   0  0  0  0  0  0  0  0  0  0  0  0
  196.7910  173.4440  134.7550 C   0  0  0  0  0  3  0  0  0  0  0  0
  195.5130  173.9760  134.9500 C   0  0  0  0  0  0  0  0  0  0  0  0
  195.3370  175.3610  135.0210 C   0  0  0  0  0  3  0  0  0  0  0  0
  196.2650  177.5560  134.9810 F   0  0  0  0  0  0  0  0  0  0  0  0
  197.7160  175.6830  134.7180 C   0  0  0  0  0  3  0  0  0  0  0  0
  196.4380  176.2150  134.9060 C   0  0  0  0  0  0  0  0  0  0  0  0
  197.8930  174.2990  134.6410 C   0  0  0  0  0  3  0  0  0  0  0  0
  2 12  1  0  0  0  0
  3  5  1  0  0  0  0
  4  6  1  0  0  0  0
  4  1  1  1  0  0  0
  5 10  1  0  0  0  0
  6 29  1  6  0  0  0
  6 12  1  0  0  0  0
  8  5  2  0  0  0  0
  9 14  1  0  0  0  0
  9 11  2  0  0  0  0
 10  1  1  0  0  0  0
 10  7  1  1  0  0  0
 11  8  1  0  0  0  0
 13  8  1  1  0  0  0
 13  4  1  0  0  0  0
 13 15  1  0  0  0  0
 14  3  2  0  0  0  0
 15  2  1  0  0  0  0
 15 20  1  1  0  0  0
 16 17  1  0  0  0  0
 16 14  1  0  0  0  0
 19 18  1  0  0  0  0
 19 10  1  0  0  0  0
 20 21  1  1  0  0  0
 20 24  1  0  0  0  0
 22 23  1  0  0  0  0
 23 21  1  0  0  0  0
 24 25  1  0  0  0  0
 25 26  1  0  0  0  0
 26 28  1  0  0  0  0
 28 27  3  0  0  0  0
 30 29  1  0  0  0  0
 31 32  1  0  0  0  0
 32 33  2  0  0  0  0
 32 30  1  0  0  0  0
 35 36  2  0  0  0  0
 36 34  1  0  0  0  0
 36 33  1  0  0  0  0
 37 35  1  0  0  0  0
 37 31  2  0  0  0  0
M  END
>  <MODEL>
5

>  <REMARK>
 VINA RESULT:      -4.7      3.166      7.158
  Name = 
  12 active torsions:
  status: ('A' for Active; 'I' for Inactive)
    1  A    between atoms: C_1  and  C_5
    2  A    between atoms: C_1  and  N_33
    3  A    between atoms: C_1  and  C_36
    4  A    between atoms: C_3  and  C_32
    5  A    between atoms: C_5  and  N_23
    6  A    between atoms: C_6  and  S_31
    7  A    between atoms: C_14  and  C_37
    8  A    between atoms: C_17  and  C_26
    9  A    between atoms: C_17  and  N_33
   10  A    between atoms: C_24  and  C_28
   11  A    between atoms: C_26  and  C_34
   12  A    between atoms: S_31  and  C_37
                            x       y       z     vdW  Elec       q    Type
                         _______ _______ _______ _____ _____    ______ ____

>  <TORSDO>
F 12

$$$$
=
 OpenBabel11052415243D

 37 40  0  0  1  0  0  0  0  0999 V2000
  183.9460  177.0670  138.6520 N   0  0  0  0  0  2  0  0  0  0  0  0
  185.9920  179.2250  140.9610 C   0  0  0  0  0  2  0  0  0  0  0  0
  180.8590  179.0090  137.6310 C   0  0  0  0  0  3  0  0  0  0  0  0
  184.8870  178.1650  138.4390 C   0  0  2  0  0  3  0  0  0  0  0  0
  182.1570  178.6950  138.0730 C   0  0  0  0  0  0  0  0  0  0  0  0
  186.2940  177.7830  138.9060 C   0  0  2  0  0  3  0  0  0  0  0  0
  181.6790  176.2710  138.3500 C   0  0  0  0  0  1  0  0  0  0  0  0
  182.9580  179.7280  138.6160 C   0  0  0  0  0  0  0  0  0  0  0  0
  181.1510  181.3140  138.3020 C   0  0  0  0  0  3  0  0  0  0  0  0
  182.7120  177.2860  137.8750 C   0  0  2  0  0  0  0  0  0  0  0  0
  182.4480  181.0270  138.7310 C   0  0  0  0  0  3  0  0  0  0  0  0
  186.4580  177.8700  140.4260 C   0  0  0  0  0  2  0  0  0  0  0  0
  184.3520  179.4460  139.0970 C   0  0  1  0  0  3  0  0  0  0  0  0
  180.3550  180.3060  137.7560 C   0  0  0  0  0  0  0  0  0  0  0  0
  184.5100  179.4580  140.6390 C   0  0  1  0  0  3  0  0  0  0  0  0
  178.9810  180.6220  137.2770 C   0  0  0  0  0  2  0  0  0  0  0  0
  178.9490  182.0060  136.6560 C   0  0  0  0  0  1  0  0  0  0  0  0
  183.0100  175.5910  135.9940 C   0  0  0  0  0  1  0  0  0  0  0  0
  182.9830  177.0650  136.3780 C   0  0  0  0  0  2  0  0  0  0  0  0
  183.5940  178.4570  141.3910 C   0  0  2  0  0  3  0  0  0  0  0  0
  182.1840  178.9980  141.6250 C   0  0  0  0  0  2  0  0  0  0  0  0
  179.9380  178.5520  141.1930 C   0  0  0  0  0  1  0  0  0  0  0  0
  181.2160  177.9260  141.4750 N   0  0  0  0  0  2  0  0  0  0  0  0
  184.1900  177.9580  142.6410 N   0  0  0  0  0  2  0  0  0  0  0  0
  184.0030  178.9060  143.7420 C   0  0  0  0  0  2  0  0  0  0  0  0
  184.7910  178.4770  144.9730 C   0  0  0  0  0  2  0  0  0  0  0  0
  187.1890  177.5280  144.2720 C   0  0  0  0  0  3  0  0  0  0  0  0
  186.1050  177.9530  144.5890 C   0  0  0  0  0  0  0  0  0  0  0  0
  187.3370  178.6210  138.1770 C   0  0  0  0  0  2  0  0  0  0  0  0
  189.0090  178.2900  138.8270 S   0  0  0  0  0  0  0  0  0  0  0  0
  189.3540  177.4920  136.1950 C   0  0  0  0  0  3  0  0  0  0  0  0
  189.3990  177.1080  137.5380 C   0  0  0  0  0  0  0  0  0  0  0  0
  189.7480  175.7970  137.8780 C   0  0  0  0  0  3  0  0  0  0  0  0
  190.3760  173.5980  137.2070 F   0  0  0  0  0  0  0  0  0  0  0  0
  189.9930  175.2510  135.5330 C   0  0  0  0  0  3  0  0  0  0  0  0
  190.0450  174.8680  136.8760 C   0  0  0  0  0  0  0  0  0  0  0  0
  189.6500  176.5620  135.1930 C   0  0  0  0  0  3  0  0  0  0  0  0
  3 14  2  0  0  0  0
  3  5  1  0  0  0  0
  4  1  1  1  0  0  0
  4  6  1  0  0  0  0
  4 13  1  0  0  0  0
  5  8  2  0  0  0  0
  6 29  1  6  0  0  0
  6 12  1  0  0  0  0
  8 11  1  0  0  0  0
  9 11  2  0  0  0  0
 10  5  1  0  0  0  0
 10  7  1  1  0  0  0
 10  1  1  0  0  0  0
 12  2  1  0  0  0  0
 13  8  1  1  0  0  0
 13 15  1  0  0  0  0
 14  9  1  0  0  0  0
 15  2  1  0  0  0  0
 15 20  1  1  0  0  0
 16 14  1  0  0  0  0
 17 16  1  0  0  0  0
 18 19  1  0  0  0  0
 19 10  1  0  0  0  0
 20 21  1  1  0  0  0
 20 24  1  0  0  0  0
 22 23  1  0  0  0  0
 23 21  1  0  0  0  0
 24 25  1  0  0  0  0
 25 26  1  0  0  0  0
 27 28  3  0  0  0  0
 28 26  1  0  0  0  0
 29 30  1  0  0  0  0
 31 32  1  0  0  0  0
 32 33  2  0  0  0  0
 32 30  1  0  0  0  0
 35 36  2  0  0  0  0
 36 34  1  0  0  0  0
 36 33  1  0  0  0  0
 37 35  1  0  0  0  0
 37 31  2  0  0  0  0
M  END
>  <MODEL>
6

>  <REMARK>
 VINA RESULT:      -4.5      5.515      9.657
  Name = 
  12 active torsions:
  status: ('A' for Active; 'I' for Inactive)
    1  A    between atoms: C_1  and  C_5
    2  A    between atoms: C_1  and  N_33
    3  A    between atoms: C_1  and  C_36
    4  A    between atoms: C_3  and  C_32
    5  A    between atoms: C_5  and  N_23
    6  A    between atoms: C_6  and  S_31
    7  A    between atoms: C_14  and  C_37
    8  A    between atoms: C_17  and  C_26
    9  A    between atoms: C_17  and  N_33
   10  A    between atoms: C_24  and  C_28
   11  A    between atoms: C_26  and  C_34
   12  A    between atoms: S_31  and  C_37
                            x       y       z     vdW  Elec       q    Type
                         _______ _______ _______ _____ _____    ______ ____

>  <TORSDO>
F 12

$$$$
=
 OpenBabel11052415243D

 37 40  0  0  1  0  0  0  0  0999 V2000
  182.3240  177.5010  138.1240 N   0  0  0  0  0  2  0  0  0  0  0  0
  181.9350  175.4610  134.9840 C   0  0  0  0  0  2  0  0  0  0  0  0
  186.0150  178.1440  138.6770 C   0  0  0  0  0  3  0  0  0  0  0  0
  182.3300  177.8280  136.7000 C   0  0  2  0  0  3  0  0  0  0  0  0
  184.7840  177.8610  138.0580 C   0  0  0  0  0  0  0  0  0  0  0  0
  180.9700  177.5360  136.0610 C   0  0  2  0  0  3  0  0  0  0  0  0
  183.5700  177.5250  140.2010 C   0  0  0  0  0  1  0  0  0  0  0  0
  184.7860  177.4210  136.7120 C   0  0  0  0  0  0  0  0  0  0  0  0
  187.2080  177.5170  136.6680 C   0  0  0  0  0  3  0  0  0  0  0  0
  183.4760  178.1240  138.8020 C   0  0  2  0  0  0  0  0  0  0  0  0
  185.9960  177.2480  136.0300 C   0  0  0  0  0  3  0  0  0  0  0  0
  180.7610  176.0460  135.7700 C   0  0  0  0  0  2  0  0  0  0  0  0
  183.4980  177.1130  136.0050 C   0  0  1  0  0  3  0  0  0  0  0  0
  187.2190  177.9610  137.9920 C   0  0  0  0  0  0  0  0  0  0  0  0
  183.2440  175.6010  135.7730 C   0  0  1  0  0  3  0  0  0  0  0  0
  188.5130  178.2710  138.6610 C   0  0  0  0  0  2  0  0  0  0  0  0
  188.3200  178.3480  140.1630 C   0  0  0  0  0  1  0  0  0  0  0  0
  181.8170  180.0170  139.2040 C   0  0  0  0  0  1  0  0  0  0  0  0
  183.2660  179.6420  138.9180 C   0  0  0  0  0  2  0  0  0  0  0  0
  183.2310  174.7420  137.0650 C   0  0  2  0  0  3  0  0  0  0  0  0
  184.4650  173.8500  137.2000 C   0  0  0  0  0  2  0  0  0  0  0  0
  186.6160  173.5790  136.3450 C   0  0  0  0  0  1  0  0  0  0  0  0
  185.2510  173.9120  135.9810 N   0  0  0  0  0  2  0  0  0  0  0  0
  181.9900  173.9680  137.2290 N   0  0  0  0  0  2  0  0  0  0  0  0
  182.2080  172.5420  136.9710 C   0  0  0  0  0  2  0  0  0  0  0  0
  180.9140  171.7540  137.1280 C   0  0  0  0  0  2  0  0  0  0  0  0
  178.9970  172.7750  135.5720 C   0  0  0  0  0  3  0  0  0  0  0  0
  179.8620  172.3110  136.2730 C   0  0  0  0  0  0  0  0  0  0  0  0
  180.7790  178.3870  134.8120 C   0  0  0  0  0  2  0  0  0  0  0  0
  179.1010  179.0990  134.7600 S   0  0  0  0  0  0  0  0  0  0  0  0
  180.4100  181.5370  134.5940 C   0  0  0  0  0  3  0  0  0  0  0  0
  179.6330  180.6900  135.3900 C   0  0  0  0  0  0  0  0  0  0  0  0
  179.2720  181.0840  136.6820 C   0  0  0  0  0  3  0  0  0  0  0  0
  179.3470  182.6960  138.4360 F   0  0  0  0  0  0  0  0  0  0  0  0
  180.4740  183.1630  136.3880 C   0  0  0  0  0  3  0  0  0  0  0  0
  179.6920  182.3200  137.1820 C   0  0  0  0  0  0  0  0  0  0  0  0
  180.8310  182.7730  135.0950 C   0  0  0  0  0  3  0  0  0  0  0  0
  1 10  1  0  0  0  0
  2 12  1  0  0  0  0
  2 15  1  0  0  0  0
  4  1  1  1  0  0  0
  5  3  1  0  0  0  0
  5 10  1  0  0  0  0
  6 29  1  6  0  0  0
  6  4  1  0  0  0  0
  8  5  2  0  0  0  0
  9 14  1  0  0  0  0
 10 19  1  0  0  0  0
 10  7  1  1  0  0  0
 11  9  2  0  0  0  0
 11  8  1  0  0  0  0
 12  6  1  0  0  0  0
 13  4  1  0  0  0  0
 13  8  1  1  0  0  0
 14 16  1  0  0  0  0
 14  3  2  0  0  0  0
 15 13  1  0  0  0  0
 15 20  1  1  0  0  0
 16 17  1  0  0  0  0
 19 18  1  0  0  0  0
 20 21  1  6  0  0  0
 20 24  1  0  0  0  0
 23 22  1  0  0  0  0
 23 21  1  0  0  0  0
 25 26  1  0  0  0  0
 25 24  1  0  0  0  0
 27 28  3  0  0  0  0
 28 26  1  0  0  0  0
 30 29  1  0  0  0  0
 30 32  1  0  0  0  0
 31 37  2  0  0  0  0
 31 32  1  0  0  0  0
 32 33  2  0  0  0  0
 33 36  1  0  0  0  0
 35 36  2  0  0  0  0
 36 34  1  0  0  0  0
 37 35  1  0  0  0  0
M  END
>  <MODEL>
7

>  <REMARK>
 VINA RESULT:      -4.4      6.102     10.553
  Name = 
  12 active torsions:
  status: ('A' for Active; 'I' for Inactive)
    1  A    between atoms: C_1  and  C_5
    2  A    between atoms: C_1  and  N_33
    3  A    between atoms: C_1  and  C_36
    4  A    between atoms: C_3  and  C_32
    5  A    between atoms: C_5  and  N_23
    6  A    between atoms: C_6  and  S_31
    7  A    between atoms: C_14  and  C_37
    8  A    between atoms: C_17  and  C_26
    9  A    between atoms: C_17  and  N_33
   10  A    between atoms: C_24  and  C_28
   11  A    between atoms: C_26  and  C_34
   12  A    between atoms: S_31  and  C_37
                            x       y       z     vdW  Elec       q    Type
                         _______ _______ _______ _____ _____    ______ ____

>  <TORSDO>
F 12

$$$$
=
 OpenBabel11052415243D

 37 40  0  0  1  0  0  0  0  0999 V2000
  185.1550  175.2290  137.6030 N   0  0  0  0  0  2  0  0  0  0  0  0
  184.8000  178.9150  138.2860 C   0  0  0  0  0  2  0  0  0  0  0  0
  182.0700  174.0610  135.7430 C   0  0  0  0  0  3  0  0  0  0  0  0
  185.3650  176.4310  136.7980 C   0  0  2  0  0  3  0  0  0  0  0  0
  183.0920  174.8780  136.2580 C   0  0  0  0  0  0  0  0  0  0  0  0
  186.5010  177.2850  137.3680 C   0  0  2  0  0  3  0  0  0  0  0  0
  183.9300  173.1540  137.8400 C   0  0  0  0  0  1  0  0  0  0  0  0
  182.9750  176.2820  136.1200 C   0  0  0  0  0  0  0  0  0  0  0  0
  180.8320  176.0090  135.0180 C   0  0  0  0  0  3  0  0  0  0  0  0
  184.3450  174.2450  136.8610 C   0  0  2  0  0  0  0  0  0  0  0  0
  181.8450  176.8370  135.5070 C   0  0  0  0  0  3  0  0  0  0  0  0
  186.0670  178.1120  138.5820 C   0  0  0  0  0  2  0  0  0  0  0  0
  184.0420  177.1970  136.6470 C   0  0  1  0  0  3  0  0  0  0  0  0
  180.9420  174.6230  135.1380 C   0  0  0  0  0  0  0  0  0  0  0  0
  183.6370  177.9830  137.9210 C   0  0  1  0  0  3  0  0  0  0  0  0
  179.8710  173.7430  134.5940 C   0  0  0  0  0  2  0  0  0  0  0  0
  179.1880  172.9920  135.7210 C   0  0  0  0  0  1  0  0  0  0  0  0
  186.5850  173.2380  136.1770 C   0  0  0  0  0  1  0  0  0  0  0  0
  185.1780  173.6180  135.7320 C   0  0  0  0  0  2  0  0  0  0  0  0
  183.2120  177.0960  139.1200 C   0  0  2  0  0  3  0  0  0  0  0  0
  181.7040  176.8560  139.1800 C   0  0  0  0  0  2  0  0  0  0  0  0
  180.1220  175.3220  139.9400 C   0  0  0  0  0  1  0  0  0  0  0  0
  181.4390  175.4370  139.3410 N   0  0  0  0  0  2  0  0  0  0  0  0
  183.7280  177.5850  140.4090 N   0  0  0  0  0  2  0  0  0  0  0  0
  182.8620  178.6220  140.9770 C   0  0  0  0  0  2  0  0  0  0  0  0
  182.9390  178.6270  142.4970 C   0  0  0  0  0  2  0  0  0  0  0  0
  185.4770  178.4180  143.3070 C   0  0  0  0  0  3  0  0  0  0  0  0
  184.3300  178.5100  142.9440 C   0  0  0  0  0  0  0  0  0  0  0  0
  187.1040  178.1580  136.2750 C   0  0  0  0  0  2  0  0  0  0  0  0
  188.4310  179.2150  136.9450 S   0  0  0  0  0  0  0  0  0  0  0  0
  189.8830  176.8930  136.5220 C   0  0  0  0  0  3  0  0  0  0  0  0
  189.4330  177.8240  137.4630 C   0  0  0  0  0  0  0  0  0  0  0  0
  189.7660  177.6690  138.8120 C   0  0  0  0  0  3  0  0  0  0  0  0
  190.8560  176.4290  140.5310 F   0  0  0  0  0  0  0  0  0  0  0  0
  190.9840  175.6460  138.2840 C   0  0  0  0  0  3  0  0  0  0  0  0
  190.5410  176.5810  139.2230 C   0  0  0  0  0  0  0  0  0  0  0  0
  190.6570  175.8030  136.9340 C   0  0  0  0  0  3  0  0  0  0  0  0
  2 12  1  0  0  0  0
  3  5  1  0  0  0  0
  4  6  1  0  0  0  0
  4  1  1  1  0  0  0
  5 10  1  0  0  0  0
  6 29  1  6  0  0  0
  6 12  1  0  0  0  0
  8  5  2  0  0  0  0
  9 14  1  0  0  0  0
  9 11  2  0  0  0  0
 10  1  1  0  0  0  0
 10  7  1  1  0  0  0
 11  8  1  0  0  0  0
 13  8  1  1  0  0  0
 13  4  1  0  0  0  0
 13 15  1  0  0  0  0
 14  3  2  0  0  0  0
 15  2  1  0  0  0  0
 15 20  1  1  0  0  0
 16 14  1  0  0  0  0
 16 17  1  0  0  0  0
 19 18  1  0  0  0  0
 19 10  1  0  0  0  0
 20 21  1  1  0  0  0
 20 24  1  0  0  0  0
 21 23  1  0  0  0  0
 23 22  1  0  0  0  0
 24 25  1  0  0  0  0
 25 26  1  0  0  0  0
 26 28  1  0  0  0  0
 28 27  3  0  0  0  0
 29 30  1  0  0  0  0
 30 32  1  0  0  0  0
 31 37  2  0  0  0  0
 31 32  1  0  0  0  0
 32 33  2  0  0  0  0
 33 36  1  0  0  0  0
 35 36  2  0  0  0  0
 36 34  1  0  0  0  0
 37 35  1  0  0  0  0
M  END
>  <MODEL>
8

>  <REMARK>
 VINA RESULT:      -4.3      4.700      8.456
  Name = 
  12 active torsions:
  status: ('A' for Active; 'I' for Inactive)
    1  A    between atoms: C_1  and  C_5
    2  A    between atoms: C_1  and  N_33
    3  A    between atoms: C_1  and  C_36
    4  A    between atoms: C_3  and  C_32
    5  A    between atoms: C_5  and  N_23
    6  A    between atoms: C_6  and  S_31
    7  A    between atoms: C_14  and  C_37
    8  A    between atoms: C_17  and  C_26
    9  A    between atoms: C_17  and  N_33
   10  A    between atoms: C_24  and  C_28
   11  A    between atoms: C_26  and  C_34
   12  A    between atoms: S_31  and  C_37
                            x       y       z     vdW  Elec       q    Type
                         _______ _______ _______ _____ _____    ______ ____

>  <TORSDO>
F 12

$$$$
=
 OpenBabel11052415243D

 37 40  0  0  1  0  0  0  0  0999 V2000
  183.8220  177.1310  139.0930 N   0  0  0  0  0  2  0  0  0  0  0  0
  185.3830  179.3580  141.6960 C   0  0  0  0  0  2  0  0  0  0  0  0
  181.0520  179.0640  137.3800 C   0  0  0  0  0  3  0  0  0  0  0  0
  184.8060  178.2090  139.0410 C   0  0  2  0  0  3  0  0  0  0  0  0
  182.2230  178.7540  138.0940 C   0  0  0  0  0  0  0  0  0  0  0  0
  186.0790  177.8310  139.8040 C   0  0  2  0  0  3  0  0  0  0  0  0
  181.6520  176.3480  138.3550 C   0  0  0  0  0  1  0  0  0  0  0  0
  182.9130  179.8000  138.7540 C   0  0  0  0  0  0  0  0  0  0  0  0
  181.2420  181.3910  138.0110 C   0  0  0  0  0  3  0  0  0  0  0  0
  182.7810  177.3320  138.0680 C   0  0  2  0  0  0  0  0  0  0  0  0
  182.4160  181.1080  138.7110 C   0  0  0  0  0  3  0  0  0  0  0  0
  185.9240  177.9780  141.3210 C   0  0  0  0  0  2  0  0  0  0  0  0
  184.1710  179.5210  139.5250 C   0  0  1  0  0  3  0  0  0  0  0  0
  180.5580  180.3710  137.3480 C   0  0  0  0  0  0  0  0  0  0  0  0
  184.0050  179.5940  141.0640 C   0  0  1  0  0  3  0  0  0  0  0  0
  179.3190  180.6820  136.5820 C   0  0  0  0  0  2  0  0  0  0  0  0
  179.5650  181.8490  135.6440 C   0  0  0  0  0  1  0  0  0  0  0  0
  182.6520  175.8890  135.9710 C   0  0  0  0  0  1  0  0  0  0  0  0
  183.3520  177.0480  136.6700 C   0  0  0  0  0  2  0  0  0  0  0  0
  182.9340  178.6340  141.6450 C   0  0  2  0  0  3  0  0  0  0  0  0
  181.5100  179.1690  141.4970 C   0  0  0  0  0  2  0  0  0  0  0  0
  179.6000  177.9360  140.9870 C   0  0  0  0  0  1  0  0  0  0  0  0
  180.5660  178.2060  142.0360 N   0  0  0  0  0  2  0  0  0  0  0  0
  183.2130  178.2320  143.0340 N   0  0  0  0  0  2  0  0  0  0  0  0
  183.2570  179.3900  143.9300 C   0  0  0  0  0  2  0  0  0  0  0  0
  183.8020  179.0020  145.2980 C   0  0  0  0  0  2  0  0  0  0  0  0
  186.2850  178.0370  145.0880 C   0  0  0  0  0  3  0  0  0  0  0  0
  185.1630  178.4700  145.1800 C   0  0  0  0  0  0  0  0  0  0  0  0
  187.2660  178.6280  139.2780 C   0  0  0  0  0  2  0  0  0  0  0  0
  188.5050  177.5250  138.5190 S   0  0  0  0  0  0  0  0  0  0  0  0
  190.9650  177.3620  139.7860 C   0  0  0  0  0  3  0  0  0  0  0  0
  189.5920  177.5800  139.9410 C   0  0  0  0  0  0  0  0  0  0  0  0
  189.0670  177.8410  141.2110 C   0  0  0  0  0  3  0  0  0  0  0  0
  189.3970  178.1210  143.5540 F   0  0  0  0  0  0  0  0  0  0  0  0
  191.2800  177.6500  142.1710 C   0  0  0  0  0  3  0  0  0  0  0  0
  189.9100  177.8750  142.3250 C   0  0  0  0  0  0  0  0  0  0  0  0
  191.8070  177.3960  140.9020 C   0  0  0  0  0  3  0  0  0  0  0  0
  3  5  1  0  0  0  0
  4  1  1  1  0  0  0
  4 13  1  0  0  0  0
  4  6  1  0  0  0  0
  5  8  2  0  0  0  0
  6 29  1  6  0  0  0
  6 12  1  0  0  0  0
  9 11  2  0  0  0  0
 10  5  1  0  0  0  0
 10  7  1  1  0  0  0
 10  1  1  0  0  0  0
 11  8  1  0  0  0  0
 12  2  1  0  0  0  0
 13  8  1  6  0  0  0
 13 15  1  0  0  0  0
 14  3  2  0  0  0  0
 14  9  1  0  0  0  0
 15 20  1  1  0  0  0
 15  2  1  0  0  0  0
 16 14  1  0  0  0  0
 17 16  1  0  0  0  0
 18 19  1  0  0  0  0
 19 10  1  0  0  0  0
 20 21  1  1  0  0  0
 20 24  1  0  0  0  0
 21 23  1  0  0  0  0
 22 23  1  0  0  0  0
 24 25  1  0  0  0  0
 25 26  1  0  0  0  0
 27 28  3  0  0  0  0
 28 26  1  0  0  0  0
 30 29  1  0  0  0  0
 30 32  1  0  0  0  0
 31 32  2  0  0  0  0
 31 37  1  0  0  0  0
 32 33  1  0  0  0  0
 33 36  2  0  0  0  0
 35 36  1  0  0  0  0
 36 34  1  0  0  0  0
 37 35  2  0  0  0  0
M  END
>  <MODEL>
9

>  <REMARK>
 VINA RESULT:      -4.3      5.558      9.403
  Name = 
  12 active torsions:
  status: ('A' for Active; 'I' for Inactive)
    1  A    between atoms: C_1  and  C_5
    2  A    between atoms: C_1  and  N_33
    3  A    between atoms: C_1  and  C_36
    4  A    between atoms: C_3  and  C_32
    5  A    between atoms: C_5  and  N_23
    6  A    between atoms: C_6  and  S_31
    7  A    between atoms: C_14  and  C_37
    8  A    between atoms: C_17  and  C_26
    9  A    between atoms: C_17  and  N_33
   10  A    between atoms: C_24  and  C_28
   11  A    between atoms: C_26  and  C_34
   12  A    between atoms: S_31  and  C_37
                            x       y       z     vdW  Elec       q    Type
                         _______ _______ _______ _____ _____    ______ ____

>  <TORSDO>
F 12

$$$$
