=
 OpenBabel11052412523D

 25 27  0  0  1  0  0  0  0  0999 V2000
  188.6150  177.6950  145.1450 N   0  0  0  0  0  0  0  0  0  0  0  0
  187.2100  177.9850  145.0720 C   0  0  0  0  0  0  0  0  0  0  0  0
  188.4420  177.0110  147.4840 C   0  0  0  0  0  2  0  0  0  0  0  0
  189.4290  177.3430  143.9890 C   0  0  1  0  0  3  0  0  0  0  0  0
  187.0860  177.5610  147.4790 N   0  0  0  0  0  2  0  0  0  0  0  0
  190.8760  177.2120  144.4470 C   0  0  2  0  0  3  0  0  0  0  0  0
  185.0850  178.2500  146.2190 C   0  0  0  0  0  0  0  0  0  0  0  0
  184.3460  178.2140  147.3560 F   0  0  0  0  0  0  0  0  0  0  0  0
  186.5930  178.3240  143.8600 C   0  0  0  0  0  3  0  0  0  0  0  0
  189.2920  177.7250  146.4350 C   0  0  1  0  0  3  0  0  0  0  0  0
  190.8990  176.9070  146.2430 S   0  0  0  0  0  0  0  0  0  0  0  0
  184.4770  178.5900  145.0080 C   0  0  0  0  0  3  0  0  0  0  0  0
  185.2210  178.6260  143.8240 C   0  0  0  0  0  0  0  0  0  0  0  0
  186.4490  177.9340  146.2510 C   0  0  0  0  0  0  0  0  0  0  0  0
  184.5610  178.9760  142.6010 N   0  0  0  0  0  0  0  0  0  0  0  0
  184.2440  178.1060  141.6940 C   0  0  0  0  0  3  0  0  0  0  0  0
  183.5600  178.5360  140.4410 C   0  0  2  0  0  3  0  0  0  0  0  0
  183.0440  177.4190  139.7840 O   0  0  0  0  0  1  0  0  0  0  0  0
  184.5060  179.2640  139.5430 C   0  0  0  0  0  0  0  0  0  0  0  0
  185.7250  178.6860  139.2140 O   0  0  0  0  0  1  0  0  0  0  0  0
  184.1990  180.3890  139.0660 O   0  0  0  0  0  0  0  0  0  0  0  0
  192.1700  179.4310  143.9190 N   0  0  0  0  0  0  0  0  0  0  0  0
  191.5990  178.4520  144.1520 C   0  0  0  0  0  0  0  0  0  0  0  0
  190.0150  175.3240  142.8060 O   0  0  0  0  0  1  0  0  0  0  0  0
  188.9470  176.0400  143.3530 C   0  0  0  0  0  2  0  0  0  0  0  0
  1 10  1  0  0  0  0
  2  1  1  0  0  0  0
  2 14  1  0  0  0  0
  4 25  1  1  0  0  0
  4  6  1  0  0  0  0
  4  1  1  0  0  0  0
  5  3  1  0  0  0  0
  6 23  1  1  0  0  0
  6 11  1  0  0  0  0
  7 14  2  0  0  0  0
  7  8  1  0  0  0  0
  9  2  2  0  0  0  0
 10  3  1  1  0  0  0
 11 10  1  0  0  0  0
 12  7  1  0  0  0  0
 13  9  1  0  0  0  0
 13 12  2  0  0  0  0
 14  5  1  0  0  0  0
 15 13  1  0  0  0  0
 16 15  2  0  0  0  0
 17 18  1  6  0  0  0
 17 16  1  0  0  0  0
 19 17  1  0  0  0  0
 20 19  1  0  0  0  0
 21 19  2  0  0  0  0
 22 23  3  0  0  0  0
 24 25  1  0  0  0  0
M  END
>  <MODEL>
1

>  <REMARK>
 VINA RESULT:      -7.8      0.000      0.000
  Name = 
  5 active torsions:
  status: ('A' for Active; 'I' for Inactive)
    1  A    between atoms: C_2  and  C_21
    2  A    between atoms: C_5  and  C_22
    3  A    between atoms: N_6  and  C_23
    4  A    between atoms: C_10  and  C_11
    5  A    between atoms: C_15  and  C_21
                            x       y       z     vdW  Elec       q    Type
                         _______ _______ _______ _____ _____    ______ ____

>  <TORSDO>
F 5

$$$$
=
 OpenBabel11052412523D

 25 27  0  0  1  0  0  0  0  0999 V2000
  184.0190  178.2580  142.5670 N   0  0  0  0  0  0  0  0  0  0  0  0
  185.0190  178.1940  143.5970 C   0  0  0  0  0  0  0  0  0  0  0  0
  182.4670  179.4560  144.0250 C   0  0  0  0  0  2  0  0  0  0  0  0
  184.3210  178.2090  141.1420 C   0  0  1  0  0  3  0  0  0  0  0  0
  183.3720  179.1500  145.1330 N   0  0  0  0  0  2  0  0  0  0  0  0
  183.0050  178.1970  140.3760 C   0  0  2  0  0  3  0  0  0  0  0  0
  185.6230  178.5420  145.9230 C   0  0  0  0  0  0  0  0  0  0  0  0
  185.3030  178.9470  147.1780 F   0  0  0  0  0  0  0  0  0  0  0  0
  186.3070  177.7050  143.3400 C   0  0  0  0  0  3  0  0  0  0  0  0
  182.6160  178.4000  142.9320 C   0  0  1  0  0  3  0  0  0  0  0  0
  181.6960  178.8800  141.4440 S   0  0  0  0  0  0  0  0  0  0  0  0
  186.9050  178.0490  145.6610 C   0  0  0  0  0  3  0  0  0  0  0  0
  187.2560  177.6330  144.3720 C   0  0  0  0  0  0  0  0  0  0  0  0
  184.6830  178.6270  144.8900 C   0  0  0  0  0  0  0  0  0  0  0  0
  188.5810  177.1370  144.1410 N   0  0  0  0  0  0  0  0  0  0  0  0
  189.5610  177.3260  144.9680 C   0  0  0  0  0  3  0  0  0  0  0  0
  190.9180  176.7850  144.6670 C   0  0  2  0  0  3  0  0  0  0  0  0
  191.6500  176.6760  145.8490 O   0  0  0  0  0  1  0  0  0  0  0  0
  191.6390  177.6670  143.7000 C   0  0  0  0  0  0  0  0  0  0  0  0
  192.0100  177.1670  142.4590 O   0  0  0  0  0  0  0  0  0  0  0  0
  191.8940  178.8650  143.9940 O   0  0  0  0  0  1  0  0  0  0  0  0
  182.3960  175.7330  139.7120 N   0  0  0  0  0  0  0  0  0  0  0  0
  182.6650  176.8200  140.0050 C   0  0  0  0  0  0  0  0  0  0  0  0
  184.7120  179.9550  139.5250 O   0  0  0  0  0  1  0  0  0  0  0  0
  185.1770  179.4020  140.7200 C   0  0  0  0  0  2  0  0  0  0  0  0
  1 10  1  0  0  0  0
  1  2  1  0  0  0  0
  2 14  1  0  0  0  0
  3  5  1  0  0  0  0
  4 25  1  6  0  0  0
  4  1  1  0  0  0  0
  6 23  1  1  0  0  0
  6  4  1  0  0  0  0
  6 11  1  0  0  0  0
  7  8  1  0  0  0  0
  9  2  2  0  0  0  0
  9 13  1  0  0  0  0
 10  3  1  1  0  0  0
 11 10  1  0  0  0  0
 12  7  1  0  0  0  0
 13 12  2  0  0  0  0
 14  5  1  0  0  0  0
 14  7  2  0  0  0  0
 15 13  1  0  0  0  0
 15 16  2  0  0  0  0
 17 16  1  0  0  0  0
 17 18  1  1  0  0  0
 19 21  1  0  0  0  0
 19 17  1  0  0  0  0
 20 19  2  0  0  0  0
 22 23  3  0  0  0  0
 24 25  1  0  0  0  0
M  END
>  <MODEL>
2

>  <REMARK>
 VINA RESULT:      -7.4      2.879      6.900
  Name = 
  5 active torsions:
  status: ('A' for Active; 'I' for Inactive)
    1  A    between atoms: C_2  and  C_21
    2  A    between atoms: C_5  and  C_22
    3  A    between atoms: N_6  and  C_23
    4  A    between atoms: C_10  and  C_11
    5  A    between atoms: C_15  and  C_21
                            x       y       z     vdW  Elec       q    Type
                         _______ _______ _______ _____ _____    ______ ____

>  <TORSDO>
F 5

$$$$
=
 OpenBabel11052412523D

 25 27  0  0  1  0  0  0  0  0999 V2000
  188.2790  177.8150  144.7670 N   0  0  0  0  0  0  0  0  0  0  0  0
  186.9180  178.1350  144.4350 C   0  0  0  0  0  0  0  0  0  0  0  0
  187.6910  177.3210  147.0860 C   0  0  0  0  0  2  0  0  0  0  0  0
  189.2610  177.3530  143.7940 C   0  0  1  0  0  3  0  0  0  0  0  0
  186.3780  177.9030  146.8110 N   0  0  0  0  0  2  0  0  0  0  0  0
  190.6040  177.2210  144.4990 C   0  0  2  0  0  3  0  0  0  0  0  0
  184.6440  178.5430  145.1840 C   0  0  0  0  0  0  0  0  0  0  0  0
  183.7230  178.6150  146.1780 F   0  0  0  0  0  0  0  0  0  0  0  0
  186.5260  178.3940  143.1150 C   0  0  0  0  0  3  0  0  0  0  0  0
  188.7310  177.9280  146.1470 C   0  0  1  0  0  3  0  0  0  0  0  0
  190.3150  177.0570  146.2910 S   0  0  0  0  0  0  0  0  0  0  0  0
  184.2600  178.8030  143.8650 C   0  0  0  0  0  3  0  0  0  0  0  0
  185.1920  178.7270  142.8250 C   0  0  0  0  0  0  0  0  0  0  0  0
  185.9690  178.1960  145.4690 C   0  0  0  0  0  0  0  0  0  0  0  0
  184.7610  178.9980  141.4860 N   0  0  0  0  0  0  0  0  0  0  0  0
  185.4660  178.6990  140.4410 C   0  0  0  0  0  3  0  0  0  0  0  0
  184.9610  179.0100  139.0730 C   0  0  2  0  0  3  0  0  0  0  0  0
  184.2510  180.2100  139.0980 O   0  0  0  0  0  1  0  0  0  0  0  0
  184.0860  177.9100  138.5670 C   0  0  0  0  0  0  0  0  0  0  0  0
  184.6220  176.9290  137.7430 O   0  0  0  0  0  0  0  0  0  0  0  0
  182.8720  177.8540  138.8970 O   0  0  0  0  0  1  0  0  0  0  0  0
  192.0530  179.3580  144.0390 N   0  0  0  0  0  0  0  0  0  0  0  0
  191.4140  178.4150  144.2420 C   0  0  0  0  0  0  0  0  0  0  0  0
  189.9580  175.2640  142.8110 O   0  0  0  0  0  1  0  0  0  0  0  0
  188.8420  176.0180  143.1820 C   0  0  0  0  0  2  0  0  0  0  0  0
  1 10  1  0  0  0  0
  2  1  1  0  0  0  0
  2 14  1  0  0  0  0
  4 25  1  1  0  0  0
  4  6  1  0  0  0  0
  4  1  1  0  0  0  0
  5  3  1  0  0  0  0
  6 23  1  1  0  0  0
  6 11  1  0  0  0  0
  7 14  2  0  0  0  0
  7  8  1  0  0  0  0
  9  2  2  0  0  0  0
 10 11  1  0  0  0  0
 10  3  1  1  0  0  0
 12  7  1  0  0  0  0
 13  9  1  0  0  0  0
 13 12  2  0  0  0  0
 14  5  1  0  0  0  0
 15 13  1  0  0  0  0
 16 15  2  0  0  0  0
 17 18  1  1  0  0  0
 17 16  1  0  0  0  0
 19 21  1  0  0  0  0
 19 17  1  0  0  0  0
 20 19  2  0  0  0  0
 22 23  3  0  0  0  0
 24 25  1  0  0  0  0
M  END
>  <MODEL>
3

>  <REMARK>
 VINA RESULT:      -7.3      0.968      1.372
  Name = 
  5 active torsions:
  status: ('A' for Active; 'I' for Inactive)
    1  A    between atoms: C_2  and  C_21
    2  A    between atoms: C_5  and  C_22
    3  A    between atoms: N_6  and  C_23
    4  A    between atoms: C_10  and  C_11
    5  A    between atoms: C_15  and  C_21
                            x       y       z     vdW  Elec       q    Type
                         _______ _______ _______ _____ _____    ______ ____

>  <TORSDO>
F 5

$$$$
=
 OpenBabel11052412523D

 25 27  0  0  1  0  0  0  0  0999 V2000
  188.0430  177.8660  144.6100 N   0  0  0  0  0  0  0  0  0  0  0  0
  186.6980  178.1530  144.1940 C   0  0  0  0  0  0  0  0  0  0  0  0
  187.3470  177.5190  146.9260 C   0  0  0  0  0  2  0  0  0  0  0  0
  189.0720  177.3490  143.7180 C   0  0  1  0  0  3  0  0  0  0  0  0
  186.0460  178.0720  146.5520 N   0  0  0  0  0  2  0  0  0  0  0  0
  190.3810  177.2720  144.4920 C   0  0  2  0  0  3  0  0  0  0  0  0
  184.3890  178.5920  144.8060 C   0  0  0  0  0  0  0  0  0  0  0  0
  183.4220  178.7220  145.7490 F   0  0  0  0  0  0  0  0  0  0  0  0
  186.3680  178.3230  142.8430 C   0  0  0  0  0  3  0  0  0  0  0  0
  188.4280  178.0710  146.0000 C   0  0  1  0  0  3  0  0  0  0  0  0
  190.0070  177.2230  146.2750 S   0  0  0  0  0  0  0  0  0  0  0  0
  184.0670  178.7640  143.4560 C   0  0  0  0  0  3  0  0  0  0  0  0
  185.0490  178.6270  142.4690 C   0  0  0  0  0  0  0  0  0  0  0  0
  185.7010  178.2740  145.1760 C   0  0  0  0  0  0  0  0  0  0  0  0
  184.6800  178.8070  141.0960 N   0  0  0  0  0  0  0  0  0  0  0  0
  185.4950  178.5960  140.1110 C   0  0  0  0  0  3  0  0  0  0  0  0
  185.0500  178.8040  138.7030 C   0  0  2  0  0  3  0  0  0  0  0  0
  183.7830  178.2500  138.5260 O   0  0  0  0  0  1  0  0  0  0  0  0
  186.0160  178.1880  137.7440 C   0  0  0  0  0  0  0  0  0  0  0  0
  187.0980  178.9280  137.2870 O   0  0  0  0  0  0  0  0  0  0  0  0
  185.8670  176.9960  137.3630 O   0  0  0  0  0  1  0  0  0  0  0  0
  191.8410  179.3860  143.9630 N   0  0  0  0  0  0  0  0  0  0  0  0
  191.1970  178.4530  144.1970 C   0  0  0  0  0  0  0  0  0  0  0  0
  189.8240  175.2330  142.8370 O   0  0  0  0  0  1  0  0  0  0  0  0
  188.6890  175.9730  143.1740 C   0  0  0  0  0  2  0  0  0  0  0  0
  1 10  1  0  0  0  0
  2  1  1  0  0  0  0
  2 14  1  0  0  0  0
  4 25  1  1  0  0  0
  4  6  1  0  0  0  0
  4  1  1  0  0  0  0
  5  3  1  0  0  0  0
  6 23  1  1  0  0  0
  6 11  1  0  0  0  0
  7 14  2  0  0  0  0
  7  8  1  0  0  0  0
  9  2  2  0  0  0  0
 10 11  1  0  0  0  0
 10  3  1  1  0  0  0
 12  7  1  0  0  0  0
 13  9  1  0  0  0  0
 13 12  2  0  0  0  0
 14  5  1  0  0  0  0
 15 13  1  0  0  0  0
 16 15  2  0  0  0  0
 17 18  1  1  0  0  0
 17 16  1  0  0  0  0
 19 17  1  0  0  0  0
 20 19  2  0  0  0  0
 21 19  1  0  0  0  0
 22 23  3  0  0  0  0
 24 25  1  0  0  0  0
M  END
>  <MODEL>
4

>  <REMARK>
 VINA RESULT:      -7.2      1.316      1.631
  Name = 
  5 active torsions:
  status: ('A' for Active; 'I' for Inactive)
    1  A    between atoms: C_2  and  C_21
    2  A    between atoms: C_5  and  C_22
    3  A    between atoms: N_6  and  C_23
    4  A    between atoms: C_10  and  C_11
    5  A    between atoms: C_15  and  C_21
                            x       y       z     vdW  Elec       q    Type
                         _______ _______ _______ _____ _____    ______ ____

>  <TORSDO>
F 5

$$$$
=
 OpenBabel11052412523D

 25 27  0  0  1  0  0  0  0  0999 V2000
  189.7630  176.9780  139.3830 N   0  0  0  0  0  0  0  0  0  0  0  0
  189.0880  177.2850  140.6140 C   0  0  0  0  0  0  0  0  0  0  0  0
  188.3600  178.5300  138.1220 C   0  0  0  0  0  2  0  0  0  0  0  0
  191.1310  176.4810  139.3150 C   0  0  1  0  0  3  0  0  0  0  0  0
  187.5120  178.6300  139.3100 N   0  0  0  0  0  2  0  0  0  0  0  0
  191.4550  176.1760  137.8580 C   0  0  2  0  0  3  0  0  0  0  0  0
  187.2430  178.3880  141.7460 C   0  0  0  0  0  0  0  0  0  0  0  0
  186.1320  179.1660  141.7100 F   0  0  0  0  0  0  0  0  0  0  0  0
  189.5370  176.7840  141.8430 C   0  0  0  0  0  3  0  0  0  0  0  0
  189.0780  177.1820  138.1140 C   0  0  1  0  0  3  0  0  0  0  0  0
  190.3190  177.1220  136.7930 S   0  0  0  0  0  0  0  0  0  0  0  0
  187.6950  177.8820  142.9680 C   0  0  0  0  0  3  0  0  0  0  0  0
  188.8420  177.0830  143.0270 C   0  0  0  0  0  0  0  0  0  0  0  0
  187.9460  178.1020  140.5700 C   0  0  0  0  0  0  0  0  0  0  0  0
  189.2750  176.5850  144.2980 N   0  0  0  0  0  0  0  0  0  0  0  0
  189.3820  177.3320  145.3510 C   0  0  0  0  0  3  0  0  0  0  0  0
  189.8430  176.7530  146.6460 C   0  0  2  0  0  3  0  0  0  0  0  0
  189.4860  177.6040  147.6920 O   0  0  0  0  0  1  0  0  0  0  0  0
  191.3220  176.5440  146.6380 C   0  0  0  0  0  0  0  0  0  0  0  0
  191.8910  175.6250  147.5100 O   0  0  0  0  0  1  0  0  0  0  0  0
  192.0540  177.1810  145.8350 O   0  0  0  0  0  0  0  0  0  0  0  0
  191.1450  173.6110  137.4070 N   0  0  0  0  0  0  0  0  0  0  0  0
  191.2820  174.7430  137.6060 C   0  0  0  0  0  0  0  0  0  0  0  0
  193.4340  177.1490  139.5790 O   0  0  0  0  0  1  0  0  0  0  0  0
  192.1160  177.5020  139.8810 C   0  0  0  0  0  2  0  0  0  0  0  0
  1  2  1  0  0  0  0
  2  9  1  0  0  0  0
  3  5  1  0  0  0  0
  4  1  1  0  0  0  0
  4 25  1  6  0  0  0
  5 14  1  0  0  0  0
  6 23  1  1  0  0  0
  6  4  1  0  0  0  0
  7 12  2  0  0  0  0
  8  7  1  0  0  0  0
  9 13  2  0  0  0  0
 10  3  1  1  0  0  0
 10  1  1  0  0  0  0
 11  6  1  0  0  0  0
 11 10  1  0  0  0  0
 12 13  1  0  0  0  0
 13 15  1  0  0  0  0
 14  2  2  0  0  0  0
 14  7  1  0  0  0  0
 15 16  2  0  0  0  0
 16 17  1  0  0  0  0
 17 18  1  1  0  0  0
 19 17  1  0  0  0  0
 19 20  1  0  0  0  0
 21 19  2  0  0  0  0
 22 23  3  0  0  0  0
 24 25  1  0  0  0  0
M  END
>  <MODEL>
5

>  <REMARK>
 VINA RESULT:      -6.8      4.776      7.393
  Name = 
  5 active torsions:
  status: ('A' for Active; 'I' for Inactive)
    1  A    between atoms: C_2  and  C_21
    2  A    between atoms: C_5  and  C_22
    3  A    between atoms: N_6  and  C_23
    4  A    between atoms: C_10  and  C_11
    5  A    between atoms: C_15  and  C_21
                            x       y       z     vdW  Elec       q    Type
                         _______ _______ _______ _____ _____    ______ ____

>  <TORSDO>
F 5

$$$$
=
 OpenBabel11052412523D

 25 27  0  0  1  0  0  0  0  0999 V2000
  182.5370  178.4600  141.0390 N   0  0  0  0  0  0  0  0  0  0  0  0
  183.4480  178.5240  142.1490 C   0  0  0  0  0  0  0  0  0  0  0  0
  180.7300  179.4500  142.3530 C   0  0  0  0  0  2  0  0  0  0  0  0
  182.9600  178.4510  139.6450 C   0  0  1  0  0  3  0  0  0  0  0  0
  181.5710  179.2600  143.5350 N   0  0  0  0  0  2  0  0  0  0  0  0
  181.7250  178.2720  138.7730 C   0  0  2  0  0  3  0  0  0  0  0  0
  183.8080  178.9430  144.5140 C   0  0  0  0  0  0  0  0  0  0  0  0
  183.3360  179.3030  145.7340 F   0  0  0  0  0  0  0  0  0  0  0  0
  184.8050  178.2030  142.0030 C   0  0  0  0  0  3  0  0  0  0  0  0
  181.1020  178.4220  141.2860 C   0  0  1  0  0  3  0  0  0  0  0  0
  180.2550  178.7820  139.7230 S   0  0  0  0  0  0  0  0  0  0  0  0
  185.1590  178.6180  144.3620 C   0  0  0  0  0  3  0  0  0  0  0  0
  185.6670  178.2510  143.1110 C   0  0  0  0  0  0  0  0  0  0  0  0
  182.9540  178.9090  143.4050 C   0  0  0  0  0  0  0  0  0  0  0  0
  187.0580  177.9280  142.9950 N   0  0  0  0  0  0  0  0  0  0  0  0
  187.7690  177.4960  143.9880 C   0  0  0  0  0  3  0  0  0  0  0  0
  189.2150  177.1800  143.8020 C   0  0  2  0  0  3  0  0  0  0  0  0
  189.3470  175.9200  143.2180 O   0  0  0  0  0  1  0  0  0  0  0  0
  189.9390  177.2160  145.1080 C   0  0  0  0  0  0  0  0  0  0  0  0
  191.2980  177.4960  145.1330 O   0  0  0  0  0  0  0  0  0  0  0  0
  189.3220  177.0140  146.1880 O   0  0  0  0  0  1  0  0  0  0  0  0
  181.4910  175.7520  138.0850 N   0  0  0  0  0  0  0  0  0  0  0  0
  181.5940  176.8650  138.3890 C   0  0  0  0  0  0  0  0  0  0  0  0
  184.9460  179.4750  138.7350 O   0  0  0  0  0  1  0  0  0  0  0  0
  183.6890  179.7440  139.2830 C   0  0  0  0  0  2  0  0  0  0  0  0
  1 10  1  0  0  0  0
  1  2  1  0  0  0  0
  2 14  1  0  0  0  0
  3  5  1  0  0  0  0
  4 25  1  6  0  0  0
  4  1  1  0  0  0  0
  6 23  1  1  0  0  0
  6  4  1  0  0  0  0
  6 11  1  0  0  0  0
  7  8  1  0  0  0  0
  9  2  2  0  0  0  0
  9 13  1  0  0  0  0
 10  3  1  1  0  0  0
 11 10  1  0  0  0  0
 12  7  1  0  0  0  0
 13 12  2  0  0  0  0
 14  5  1  0  0  0  0
 14  7  2  0  0  0  0
 15 13  1  0  0  0  0
 15 16  2  0  0  0  0
 17 18  1  1  0  0  0
 17 16  1  0  0  0  0
 17 19  1  0  0  0  0
 19 20  2  0  0  0  0
 19 21  1  0  0  0  0
 22 23  3  0  0  0  0
 24 25  1  0  0  0  0
M  END
>  <MODEL>
6

>  <REMARK>
 VINA RESULT:      -6.5      3.504      7.615
  Name = 
  5 active torsions:
  status: ('A' for Active; 'I' for Inactive)
    1  A    between atoms: C_2  and  C_21
    2  A    between atoms: C_5  and  C_22
    3  A    between atoms: N_6  and  C_23
    4  A    between atoms: C_10  and  C_11
    5  A    between atoms: C_15  and  C_21
                            x       y       z     vdW  Elec       q    Type
                         _______ _______ _______ _____ _____    ______ ____

>  <TORSDO>
F 5

$$$$
=
 OpenBabel11052412523D

 25 27  0  0  1  0  0  0  0  0999 V2000
  188.2420  177.7790  143.7910 N   0  0  0  0  0  0  0  0  0  0  0  0
  187.1620  178.0750  142.8900 C   0  0  0  0  0  0  0  0  0  0  0  0
  186.7150  177.5320  145.6820 C   0  0  0  0  0  2  0  0  0  0  0  0
  189.5150  177.2110  143.3670 C   0  0  1  0  0  3  0  0  0  0  0  0
  185.6680  178.0940  144.8290 N   0  0  0  0  0  2  0  0  0  0  0  0
  190.4330  177.1410  144.5800 C   0  0  2  0  0  3  0  0  0  0  0  0
  184.8070  178.5780  142.5730 C   0  0  0  0  0  0  0  0  0  0  0  0
  183.5610  178.7600  143.0770 F   0  0  0  0  0  0  0  0  0  0  0  0
  187.3710  178.2000  141.5100 C   0  0  0  0  0  3  0  0  0  0  0  0
  188.0820  178.0300  145.2170 C   0  0  1  0  0  3  0  0  0  0  0  0
  189.4140  177.1640  146.0910 S   0  0  0  0  0  0  0  0  0  0  0  0
  185.0230  178.7040  141.1980 C   0  0  0  0  0  3  0  0  0  0  0  0
  186.2990  178.5130  140.6570 C   0  0  0  0  0  0  0  0  0  0  0  0
  185.8730  178.2510  143.4190 C   0  0  0  0  0  0  0  0  0  0  0  0
  186.4800  178.6480  139.2430 N   0  0  0  0  0  0  0  0  0  0  0  0
  187.3480  177.9580  138.5720 C   0  0  0  0  0  3  0  0  0  0  0  0
  187.4890  178.1470  137.0990 C   0  0  2  0  0  3  0  0  0  0  0  0
  187.1980  179.4700  136.7680 O   0  0  0  0  0  1  0  0  0  0  0  0
  186.5820  177.2230  136.3550 C   0  0  0  0  0  0  0  0  0  0  0  0
  185.2080  177.4070  136.4220 O   0  0  0  0  0  1  0  0  0  0  0  0
  187.0550  176.2900  135.6520 O   0  0  0  0  0  0  0  0  0  0  0  0
  192.0490  179.2060  144.5820 N   0  0  0  0  0  0  0  0  0  0  0  0
  191.3360  178.2950  144.5810 C   0  0  0  0  0  0  0  0  0  0  0  0
  190.4780  175.0500  142.8960 O   0  0  0  0  0  1  0  0  0  0  0  0
  189.3230  175.8230  142.7590 C   0  0  0  0  0  2  0  0  0  0  0  0
  1 10  1  0  0  0  0
  2 14  1  0  0  0  0
  2  1  1  0  0  0  0
  4 25  1  1  0  0  0
  4  1  1  0  0  0  0
  4  6  1  0  0  0  0
  5  3  1  0  0  0  0
  6 23  1  1  0  0  0
  6 11  1  0  0  0  0
  7  8  1  0  0  0  0
  7 14  2  0  0  0  0
  9  2  2  0  0  0  0
 10  3  1  1  0  0  0
 10 11  1  0  0  0  0
 12  7  1  0  0  0  0
 13 12  2  0  0  0  0
 13  9  1  0  0  0  0
 14  5  1  0  0  0  0
 15 13  1  0  0  0  0
 16 15  2  0  0  0  0
 17 18  1  1  0  0  0
 17 16  1  0  0  0  0
 19 20  1  0  0  0  0
 19 17  1  0  0  0  0
 21 19  2  0  0  0  0
 23 22  3  0  0  0  0
 25 24  1  0  0  0  0
M  END
>  <MODEL>
7

>  <REMARK>
 VINA RESULT:      -6.5      2.441      3.226
  Name = 
  5 active torsions:
  status: ('A' for Active; 'I' for Inactive)
    1  A    between atoms: C_2  and  C_21
    2  A    between atoms: C_5  and  C_22
    3  A    between atoms: N_6  and  C_23
    4  A    between atoms: C_10  and  C_11
    5  A    between atoms: C_15  and  C_21
                            x       y       z     vdW  Elec       q    Type
                         _______ _______ _______ _____ _____    ______ ____

>  <TORSDO>
F 5

$$$$
=
 OpenBabel11052412523D

 25 27  0  0  1  0  0  0  0  0999 V2000
  188.4720  176.6100  138.1530 N   0  0  0  0  0  0  0  0  0  0  0  0
  188.5020  177.2460  139.4410 C   0  0  0  0  0  0  0  0  0  0  0  0
  186.5580  177.9490  137.4380 C   0  0  0  0  0  2  0  0  0  0  0  0
  189.6360  175.9950  137.5280 C   0  0  1  0  0  3  0  0  0  0  0  0
  186.4270  178.3890  138.8270 N   0  0  0  0  0  2  0  0  0  0  0  0
  189.1890  175.3410  136.2270 C   0  0  2  0  0  3  0  0  0  0  0  0
  187.4420  178.7310  141.0440 C   0  0  0  0  0  0  0  0  0  0  0  0
  186.4340  179.5730  141.3860 F   0  0  0  0  0  0  0  0  0  0  0  0
  189.5340  177.0000  140.3570 C   0  0  0  0  0  3  0  0  0  0  0  0
  187.2300  176.5790  137.3920 C   0  0  1  0  0  3  0  0  0  0  0  0
  187.6300  176.1140  135.6850 S   0  0  0  0  0  0  0  0  0  0  0  0
  188.4720  178.4780  141.9540 C   0  0  0  0  0  3  0  0  0  0  0  0
  189.5230  177.6190  141.6180 C   0  0  0  0  0  0  0  0  0  0  0  0
  187.4620  178.1260  139.7820 C   0  0  0  0  0  0  0  0  0  0  0  0
  190.5630  177.3870  142.5770 N   0  0  0  0  0  0  0  0  0  0  0  0
  190.6320  176.3150  143.3000 C   0  0  0  0  0  3  0  0  0  0  0  0
  191.7390  176.1350  144.2830 C   0  0  2  0  0  3  0  0  0  0  0  0
  192.1220  174.7950  144.3170 O   0  0  0  0  0  1  0  0  0  0  0  0
  191.3180  176.5810  145.6450 C   0  0  0  0  0  0  0  0  0  0  0  0
  189.9920  176.9220  145.8770 O   0  0  0  0  0  0  0  0  0  0  0  0
  192.1510  176.6290  146.5890 O   0  0  0  0  0  1  0  0  0  0  0  0
  188.8030  172.7760  136.6200 N   0  0  0  0  0  0  0  0  0  0  0  0
  188.9730  173.9080  136.4470 C   0  0  0  0  0  0  0  0  0  0  0  0
  191.8780  176.4240  136.7490 O   0  0  0  0  0  1  0  0  0  0  0  0
  190.7280  177.0300  137.2600 C   0  0  0  0  0  2  0  0  0  0  0  0
  1  2  1  0  0  0  0
  2 14  2  0  0  0  0
  2  9  1  0  0  0  0
  3  5  1  0  0  0  0
  4 25  1  6  0  0  0
  4  1  1  0  0  0  0
  5 14  1  0  0  0  0
  6 23  1  1  0  0  0
  6  4  1  0  0  0  0
  7  8  1  0  0  0  0
  7 12  2  0  0  0  0
  9 13  2  0  0  0  0
 10  3  1  6  0  0  0
 10  1  1  0  0  0  0
 11  6  1  0  0  0  0
 11 10  1  0  0  0  0
 13 12  1  0  0  0  0
 13 15  1  0  0  0  0
 14  7  1  0  0  0  0
 15 16  2  0  0  0  0
 16 17  1  0  0  0  0
 17 18  1  1  0  0  0
 17 19  1  0  0  0  0
 19 20  2  0  0  0  0
 19 21  1  0  0  0  0
 23 22  3  0  0  0  0
 24 25  1  0  0  0  0
M  END
>  <MODEL>
8

>  <REMARK>
 VINA RESULT:      -5.9      5.197      8.085
  Name = 
  5 active torsions:
  status: ('A' for Active; 'I' for Inactive)
    1  A    between atoms: C_2  and  C_21
    2  A    between atoms: C_5  and  C_22
    3  A    between atoms: N_6  and  C_23
    4  A    between atoms: C_10  and  C_11
    5  A    between atoms: C_15  and  C_21
                            x       y       z     vdW  Elec       q    Type
                         _______ _______ _______ _____ _____    ______ ____

>  <TORSDO>
F 5

$$$$
=
 OpenBabel11052412523D

 25 27  0  0  1  0  0  0  0  0999 V2000
  183.0310  177.8330  140.0000 N   0  0  0  0  0  0  0  0  0  0  0  0
  183.1680  178.2010  141.3820 C   0  0  0  0  0  0  0  0  0  0  0  0
  180.7510  178.7030  139.9020 C   0  0  0  0  0  2  0  0  0  0  0  0
  184.1580  177.6880  139.0870 C   0  0  1  0  0  3  0  0  0  0  0  0
  180.8010  178.8230  141.3590 N   0  0  0  0  0  2  0  0  0  0  0  0
  183.6260  177.1910  137.7500 C   0  0  2  0  0  3  0  0  0  0  0  0
  182.1310  179.0120  143.4240 C   0  0  0  0  0  0  0  0  0  0  0  0
  181.0420  179.4660  144.0950 F   0  0  0  0  0  0  0  0  0  0  0  0
  184.3910  178.0820  142.0560 C   0  0  0  0  0  3  0  0  0  0  0  0
  181.7050  177.6040  139.4420 C   0  0  1  0  0  3  0  0  0  0  0  0
  181.8530  177.5930  137.6350 S   0  0  0  0  0  0  0  0  0  0  0  0
  183.3530  178.8870  144.0900 C   0  0  0  0  0  3  0  0  0  0  0  0
  184.4880  178.4270  143.4140 C   0  0  0  0  0  0  0  0  0  0  0  0
  182.0400  178.6810  142.0660 C   0  0  0  0  0  0  0  0  0  0  0  0
  185.7240  178.3160  144.1310 N   0  0  0  0  0  0  0  0  0  0  0  0
  186.5920  177.3820  143.9040 C   0  0  0  0  0  3  0  0  0  0  0  0
  187.8590  177.3190  144.6870 C   0  0  2  0  0  3  0  0  0  0  0  0
  187.6890  177.9770  145.9050 O   0  0  0  0  0  1  0  0  0  0  0  0
  188.9850  177.9390  143.9250 C   0  0  0  0  0  0  0  0  0  0  0  0
  188.8540  178.1570  142.5610 O   0  0  0  0  0  0  0  0  0  0  0  0
  190.0450  178.2810  144.5150 O   0  0  0  0  0  1  0  0  0  0  0  0
  183.9470  174.5920  137.5880 N   0  0  0  0  0  0  0  0  0  0  0  0
  183.8050  175.7390  137.6590 C   0  0  0  0  0  0  0  0  0  0  0  0
  186.2460  178.8020  138.6210 O   0  0  0  0  0  1  0  0  0  0  0  0
  184.8960  179.0140  138.9110 C   0  0  0  0  0  2  0  0  0  0  0  0
  1  2  1  0  0  0  0
  2  9  2  0  0  0  0
  2 14  1  0  0  0  0
  3  5  1  0  0  0  0
  4 25  1  6  0  0  0
  4  1  1  0  0  0  0
  5 14  1  0  0  0  0
  6 23  1  1  0  0  0
  6  4  1  0  0  0  0
  7 12  1  0  0  0  0
  7  8  1  0  0  0  0
  9 13  1  0  0  0  0
 10  3  1  6  0  0  0
 10  1  1  0  0  0  0
 11  6  1  0  0  0  0
 11 10  1  0  0  0  0
 13 12  2  0  0  0  0
 13 15  1  0  0  0  0
 14  7  2  0  0  0  0
 16 15  2  0  0  0  0
 16 17  1  0  0  0  0
 17 18  1  1  0  0  0
 19 21  1  0  0  0  0
 19 17  1  0  0  0  0
 20 19  2  0  0  0  0
 22 23  3  0  0  0  0
 24 25  1  0  0  0  0
M  END
>  <MODEL>
9

>  <REMARK>
 VINA RESULT:      -5.8      3.790      7.376
  Name = 
  5 active torsions:
  status: ('A' for Active; 'I' for Inactive)
    1  A    between atoms: C_2  and  C_21
    2  A    between atoms: C_5  and  C_22
    3  A    between atoms: N_6  and  C_23
    4  A    between atoms: C_10  and  C_11
    5  A    between atoms: C_15  and  C_21
                            x       y       z     vdW  Elec       q    Type
                         _______ _______ _______ _____ _____    ______ ____

>  <TORSDO>
F 5

$$$$
