=
 OpenBabel11052412573D

 31 35  0  0  1  0  0  0  0  0999 V2000
  190.5910  177.2000  145.4080 C   0  0  0  0  0  0  0  0  0  0  0  0
  187.6830  177.4890  142.9180 C   0  0  2  0  0  3  0  0  0  0  0  0
  186.5150  177.8220  143.8390 C   0  0  0  0  0  0  0  0  0  0  0  0
  186.2550  177.8640  146.2990 C   0  0  0  0  0  3  0  0  0  0  0  0
  189.0720  177.4820  143.5300 C   0  0  0  0  0  0  0  0  0  0  0  0
  191.6860  177.3250  144.5520 C   0  0  0  0  0  3  0  0  0  0  0  0
  186.3490  177.0050  145.0840 C   0  0  0  0  0  2  0  0  0  0  0  0
  188.7120  177.8190  140.6790 C   0  0  1  0  0  3  0  0  0  0  0  0
  190.7920  177.0010  146.7670 O   0  0  0  0  0  1  0  0  0  0  0  0
  185.5200  179.1780  142.0030 C   0  0  0  0  0  2  0  0  0  0  0  0
  185.2560  178.7210  146.4940 C   0  0  0  0  0  3  0  0  0  0  0  0
  190.0050  177.8020  141.2930 O   0  0  0  0  0  0  0  0  0  0  0  0
  187.6820  178.3690  141.6630 C   0  0  1  0  0  3  0  0  0  0  0  0
  189.2920  177.2690  144.8980 C   0  0  0  0  0  3  0  0  0  0  0  0
  184.1830  178.9890  145.5210 C   0  0  0  0  0  3  0  0  0  0  0  0
  190.1860  177.5900  142.6670 C   0  0  0  0  0  0  0  0  0  0  0  0
  191.4830  177.5190  143.1830 C   0  0  0  0  0  3  0  0  0  0  0  0
  186.3430  178.3870  141.0940 N   0  0  0  0  0  2  0  0  0  0  0  0
  185.4840  178.5810  143.3880 C   0  0  0  0  0  0  0  0  0  0  0  0
  184.2830  178.9180  144.1870 C   0  0  0  0  0  3  0  0  0  0  0  0
  188.7610  178.6730  139.4200 C   0  0  0  0  0  2  0  0  0  0  0  0
  186.8860  178.5160  137.9550 O   0  0  0  0  0  1  0  0  0  0  0  0
  188.1230  177.9430  138.2510 C   0  0  1  0  0  3  0  0  0  0  0  0
  189.2120  178.0680  136.8020 S   0  0  0  0  0  0  0  0  0  0  0  0
  191.6850  174.7810  137.5160 C   0  0  0  0  0  0  0  0  0  0  0  0
  189.4860  173.9920  137.0270 C   0  0  0  0  0  3  0  0  0  0  0  0
  192.8760  174.4850  137.7960 O   0  0  0  0  0  0  0  0  0  0  0  0
  191.2920  176.2260  137.3920 C   0  0  0  0  0  2  0  0  0  0  0  0
  189.0160  175.3740  136.8580 C   0  0  0  0  0  3  0  0  0  0  0  0
  189.8450  176.4090  137.0150 C   0  0  0  0  0  0  0  0  0  0  0  0
  190.7220  173.7370  137.3290 N   0  0  0  0  0  0  0  0  0  0  0  0
  1  9  1  0  0  0  0
  2  5  1  1  0  0  0
  2  3  1  0  0  0  0
  3  7  1  0  0  0  0
  4 11  2  0  0  0  0
  5 14  2  0  0  0  0
  6  1  2  0  0  0  0
  7  4  1  0  0  0  0
  8 21  1  6  0  0  0
  8 12  1  0  0  0  0
  8 13  1  0  0  0  0
 10 19  1  0  0  0  0
 12 16  1  0  0  0  0
 13 18  1  6  0  0  0
 13  2  1  0  0  0  0
 14  1  1  0  0  0  0
 15 11  1  0  0  0  0
 16 17  2  0  0  0  0
 16  5  1  0  0  0  0
 17  6  1  0  0  0  0
 18 10  1  0  0  0  0
 19  3  2  0  0  0  0
 19 20  1  0  0  0  0
 20 15  2  0  0  0  0
 23 22  1  6  0  0  0
 23 21  1  0  0  0  0
 24 30  1  0  0  0  0
 24 23  1  0  0  0  0
 25 27  2  0  0  0  0
 26 31  2  0  0  0  0
 28 25  1  0  0  0  0
 29 30  2  0  0  0  0
 29 26  1  0  0  0  0
 30 28  1  0  0  0  0
 31 25  1  0  0  0  0
M  END
>  <MODEL>
1

>  <REMARK>
 VINA RESULT:     -10.5      0.000      0.000
  Name = 
  4 active torsions:
  status: ('A' for Active; 'I' for Inactive)
    1  A    between atoms: S_3  and  C_9
    2  A    between atoms: S_3  and  C_22
    3  A    between atoms: C_9  and  C_23
    4  A    between atoms: C_15  and  C_23
                            x       y       z     vdW  Elec       q    Type
                         _______ _______ _______ _____ _____    ______ ____

>  <TORSDO>
F 4

$$$$
=
 OpenBabel11052412573D

 31 35  0  0  1  0  0  0  0  0999 V2000
  190.4300  177.1730  145.5550 C   0  0  0  0  0  0  0  0  0  0  0  0
  187.6930  177.4980  142.8820 C   0  0  2  0  0  3  0  0  0  0  0  0
  186.4750  177.8590  143.7250 C   0  0  0  0  0  0  0  0  0  0  0  0
  186.0580  177.9220  146.1620 C   0  0  0  0  0  3  0  0  0  0  0  0
  189.0400  177.4700  143.5810 C   0  0  0  0  0  0  0  0  0  0  0  0
  191.5800  177.2720  144.7700 C   0  0  0  0  0  3  0  0  0  0  0  0
  186.2140  177.0530  144.9600 C   0  0  0  0  0  2  0  0  0  0  0  0
  188.8700  177.7950  140.7120 C   0  0  1  0  0  3  0  0  0  0  0  0
  190.5400  176.9800  146.9260 O   0  0  0  0  0  1  0  0  0  0  0  0
  185.6250  179.2210  141.8210 C   0  0  0  0  0  2  0  0  0  0  0  0
  185.0650  178.7990  146.2870 C   0  0  0  0  0  3  0  0  0  0  0  0
  190.1200  177.7590  141.4070 O   0  0  0  0  0  0  0  0  0  0  0  0
  187.7890  178.3690  141.6250 C   0  0  1  0  0  3  0  0  0  0  0  0
  189.1680  177.2620  144.9630 C   0  0  0  0  0  3  0  0  0  0  0  0
  184.0620  179.0790  145.2460 C   0  0  0  0  0  3  0  0  0  0  0  0
  190.2080  177.5520  142.7920 C   0  0  0  0  0  0  0  0  0  0  0  0
  191.4690  177.4610  143.3900 C   0  0  0  0  0  3  0  0  0  0  0  0
  186.4900  178.4080  140.9710 N   0  0  0  0  0  2  0  0  0  0  0  0
  185.4890  178.6330  143.2040 C   0  0  0  0  0  0  0  0  0  0  0  0
  184.2460  178.9970  143.9220 C   0  0  0  0  0  3  0  0  0  0  0  0
  189.0150  178.6390  139.4540 C   0  0  0  0  0  2  0  0  0  0  0  0
  187.6370  178.8500  137.5190 O   0  0  0  0  0  1  0  0  0  0  0  0
  188.3890  177.9380  138.2610 C   0  0  1  0  0  3  0  0  0  0  0  0
  189.7030  177.2430  137.2170 S   0  0  0  0  0  0  0  0  0  0  0  0
  186.8860  174.1630  137.1140 C   0  0  0  0  0  0  0  0  0  0  0  0
  189.0640  173.2170  136.8680 C   0  0  0  0  0  3  0  0  0  0  0  0
  185.6470  173.9560  137.1940 O   0  0  0  0  0  0  0  0  0  0  0  0
  187.4070  175.5700  137.1900 C   0  0  0  0  0  2  0  0  0  0  0  0
  189.6670  174.5540  136.9600 C   0  0  0  0  0  3  0  0  0  0  0  0
  188.9100  175.6430  137.1180 C   0  0  0  0  0  0  0  0  0  0  0  0
  187.7780  173.0550  136.9420 N   0  0  0  0  0  0  0  0  0  0  0  0
  1  9  1  0  0  0  0
  2  5  1  1  0  0  0
  2  3  1  0  0  0  0
  3  7  1  0  0  0  0
  4 11  2  0  0  0  0
  5 14  2  0  0  0  0
  6  1  2  0  0  0  0
  7  4  1  0  0  0  0
  8 21  1  6  0  0  0
  8 12  1  0  0  0  0
  8 13  1  0  0  0  0
 10 19  1  0  0  0  0
 12 16  1  0  0  0  0
 13 18  1  6  0  0  0
 13  2  1  0  0  0  0
 14  1  1  0  0  0  0
 15 11  1  0  0  0  0
 16 17  2  0  0  0  0
 16  5  1  0  0  0  0
 17  6  1  0  0  0  0
 18 10  1  0  0  0  0
 19  3  2  0  0  0  0
 19 20  1  0  0  0  0
 20 15  2  0  0  0  0
 23 22  1  6  0  0  0
 23 21  1  0  0  0  0
 24 23  1  0  0  0  0
 25 28  1  0  0  0  0
 25 27  2  0  0  0  0
 26 31  2  0  0  0  0
 26 29  1  0  0  0  0
 29 30  2  0  0  0  0
 30 28  1  0  0  0  0
 30 24  1  0  0  0  0
 31 25  1  0  0  0  0
M  END
>  <MODEL>
2

>  <REMARK>
 VINA RESULT:     -10.1      1.339      1.863
  Name = 
  4 active torsions:
  status: ('A' for Active; 'I' for Inactive)
    1  A    between atoms: S_3  and  C_9
    2  A    between atoms: S_3  and  C_22
    3  A    between atoms: C_9  and  C_23
    4  A    between atoms: C_15  and  C_23
                            x       y       z     vdW  Elec       q    Type
                         _______ _______ _______ _____ _____    ______ ____

>  <TORSDO>
F 4

$$$$
=
 OpenBabel11052412573D

 31 35  0  0  1  0  0  0  0  0999 V2000
  185.3390  178.2990  145.3390 C   0  0  0  0  0  0  0  0  0  0  0  0
  188.8490  178.1500  143.7890 C   0  0  2  0  0  3  0  0  0  0  0  0
  189.6810  177.6200  144.9510 C   0  0  0  0  0  0  0  0  0  0  0  0
  189.1960  177.2350  147.3460 C   0  0  0  0  0  3  0  0  0  0  0  0
  187.3410  178.1680  143.9640 C   0  0  0  0  0  0  0  0  0  0  0  0
  184.5460  178.3630  144.1920 C   0  0  0  0  0  3  0  0  0  0  0  0
  189.4890  178.2530  146.2960 C   0  0  0  0  0  2  0  0  0  0  0  0
  188.5250  178.1890  141.3240 C   0  0  1  0  0  3  0  0  0  0  0  0
  184.7480  178.3300  146.5940 O   0  0  0  0  0  1  0  0  0  0  0  0
  191.1440  176.4560  143.3060 C   0  0  0  0  0  2  0  0  0  0  0  0
  190.0700  176.2950  147.6960 C   0  0  0  0  0  3  0  0  0  0  0  0
  187.1090  178.2100  141.5300 O   0  0  0  0  0  0  0  0  0  0  0  0
  189.2010  177.4460  142.4740 C   0  0  1  0  0  3  0  0  0  0  0  0
  186.7290  178.2120  145.2250 C   0  0  0  0  0  3  0  0  0  0  0  0
  191.3770  176.0880  147.0490 C   0  0  0  0  0  3  0  0  0  0  0  0
  186.5320  178.2500  142.8080 C   0  0  0  0  0  0  0  0  0  0  0  0
  185.1420  178.3380  142.9280 C   0  0  0  0  0  3  0  0  0  0  0  0
  190.6480  177.4140  142.3230 N   0  0  0  0  0  2  0  0  0  0  0  0
  190.7800  176.8610  144.7140 C   0  0  0  0  0  0  0  0  0  0  0  0
  191.6800  176.3420  145.7700 C   0  0  0  0  0  3  0  0  0  0  0  0
  188.8320  177.5150  139.9950 C   0  0  0  0  0  2  0  0  0  0  0  0
  189.0550  179.1620  138.2840 O   0  0  0  0  0  1  0  0  0  0  0  0
  188.1600  178.2530  138.8500 C   0  0  1  0  0  3  0  0  0  0  0  0
  187.6360  177.0540  137.5900 S   0  0  0  0  0  0  0  0  0  0  0  0
  184.0480  178.8670  138.7190 C   0  0  0  0  0  0  0  0  0  0  0  0
  183.5700  177.1390  137.1430 C   0  0  0  0  0  3  0  0  0  0  0  0
  183.5920  179.7680  139.4680 O   0  0  0  0  0  0  0  0  0  0  0  0
  185.5310  178.6280  138.6670 C   0  0  0  0  0  2  0  0  0  0  0  0
  185.0000  176.8150  137.0470 C   0  0  0  0  0  3  0  0  0  0  0  0
  185.9100  177.4910  137.7540 C   0  0  0  0  0  0  0  0  0  0  0  0
  183.1490  178.0880  137.9210 N   0  0  0  0  0  0  0  0  0  0  0  0
  1  9  1  0  0  0  0
  2  5  1  1  0  0  0
  2  3  1  0  0  0  0
  3  7  1  0  0  0  0
  4 11  2  0  0  0  0
  5 14  2  0  0  0  0
  6  1  2  0  0  0  0
  7  4  1  0  0  0  0
  8 21  1  6  0  0  0
  8 12  1  0  0  0  0
  8 13  1  0  0  0  0
 10 19  1  0  0  0  0
 12 16  1  0  0  0  0
 13 18  1  6  0  0  0
 13  2  1  0  0  0  0
 14  1  1  0  0  0  0
 15 11  1  0  0  0  0
 16 17  2  0  0  0  0
 16  5  1  0  0  0  0
 17  6  1  0  0  0  0
 18 10  1  0  0  0  0
 19  3  2  0  0  0  0
 19 20  1  0  0  0  0
 20 15  2  0  0  0  0
 23 22  1  6  0  0  0
 23 21  1  0  0  0  0
 24 30  1  0  0  0  0
 24 23  1  0  0  0  0
 25 27  2  0  0  0  0
 26 31  2  0  0  0  0
 28 25  1  0  0  0  0
 29 26  1  0  0  0  0
 29 30  2  0  0  0  0
 30 28  1  0  0  0  0
 31 25  1  0  0  0  0
M  END
>  <MODEL>
3

>  <REMARK>
 VINA RESULT:      -9.8      2.848      5.355
  Name = 
  4 active torsions:
  status: ('A' for Active; 'I' for Inactive)
    1  A    between atoms: S_3  and  C_9
    2  A    between atoms: S_3  and  C_22
    3  A    between atoms: C_9  and  C_23
    4  A    between atoms: C_15  and  C_23
                            x       y       z     vdW  Elec       q    Type
                         _______ _______ _______ _____ _____    ______ ____

>  <TORSDO>
F 4

$$$$
=
 OpenBabel11052412573D

 31 35  0  0  1  0  0  0  0  0999 V2000
  188.7690  177.9100  141.6070 C   0  0  0  0  0  0  0  0  0  0  0  0
  186.2600  177.7190  144.5070 C   0  0  2  0  0  3  0  0  0  0  0  0
  187.1860  177.7000  145.7190 C   0  0  0  0  0  0  0  0  0  0  0  0
  189.6360  177.4840  145.9770 C   0  0  0  0  0  3  0  0  0  0  0  0
  186.8930  177.9840  143.1530 C   0  0  0  0  0  0  0  0  0  0  0  0
  187.9430  178.3520  140.5720 C   0  0  0  0  0  3  0  0  0  0  0  0
  188.3590  176.7690  145.6890 C   0  0  0  0  0  2  0  0  0  0  0  0
  184.0720  178.4570  143.5860 C   0  0  1  0  0  3  0  0  0  0  0  0
  190.1110  177.6540  141.3620 O   0  0  0  0  0  1  0  0  0  0  0  0
  185.4450  178.9330  147.0040 C   0  0  0  0  0  2  0  0  0  0  0  0
  189.8810  178.0690  147.1470 C   0  0  0  0  0  3  0  0  0  0  0  0
  184.7030  178.6890  142.3240 O   0  0  0  0  0  0  0  0  0  0  0  0
  185.0790  178.6730  144.7140 C   0  0  1  0  0  3  0  0  0  0  0  0
  188.2440  177.7180  142.8870 C   0  0  0  0  0  3  0  0  0  0  0  0
  188.9140  178.1590  148.2540 C   0  0  0  0  0  3  0  0  0  0  0  0
  186.0600  178.4150  142.0960 C   0  0  0  0  0  0  0  0  0  0  0  0
  186.5900  178.6040  140.8160 C   0  0  0  0  0  3  0  0  0  0  0  0
  184.4900  178.4280  146.0220 N   0  0  0  0  0  2  0  0  0  0  0  0
  186.7780  178.2340  146.8980 C   0  0  0  0  0  0  0  0  0  0  0  0
  187.5810  178.2200  148.1430 C   0  0  0  0  0  3  0  0  0  0  0  0
  182.8850  179.3970  143.7380 C   0  0  0  0  0  2  0  0  0  0  0  0
  180.6310  178.8740  144.3190 O   0  0  0  0  0  1  0  0  0  0  0  0
  181.5960  178.7070  143.3250 C   0  0  1  0  0  3  0  0  0  0  0  0
  180.9990  179.4340  141.7710 S   0  0  0  0  0  0  0  0  0  0  0  0
  182.0570  176.1100  139.4770 C   0  0  0  0  0  0  0  0  0  0  0  0
  179.8600  175.7720  140.3460 C   0  0  0  0  0  3  0  0  0  0  0  0
  182.9940  175.6580  138.7690 O   0  0  0  0  0  0  0  0  0  0  0  0
  182.2160  177.4450  140.1490 C   0  0  0  0  0  2  0  0  0  0  0  0
  179.9130  177.0780  141.0190 C   0  0  0  0  0  3  0  0  0  0  0  0
  180.9930  177.8590  140.9240 C   0  0  0  0  0  0  0  0  0  0  0  0
  180.8580  175.3420  139.6370 N   0  0  0  0  0  0  0  0  0  0  0  0
  1 14  1  0  0  0  0
  2  5  1  6  0  0  0
  2 13  1  0  0  0  0
  2  3  1  0  0  0  0
  3 19  2  0  0  0  0
  4 11  2  0  0  0  0
  6 17  1  0  0  0  0
  6  1  2  0  0  0  0
  7  3  1  0  0  0  0
  7  4  1  0  0  0  0
  8 21  1  1  0  0  0
  8 13  1  0  0  0  0
  9  1  1  0  0  0  0
 11 15  1  0  0  0  0
 12  8  1  0  0  0  0
 13 18  1  1  0  0  0
 14  5  2  0  0  0  0
 16 12  1  0  0  0  0
 16  5  1  0  0  0  0
 17 16  2  0  0  0  0
 18 10  1  0  0  0  0
 19 10  1  0  0  0  0
 19 20  1  0  0  0  0
 20 15  2  0  0  0  0
 23 21  1  0  0  0  0
 23 22  1  1  0  0  0
 24 23  1  0  0  0  0
 25 31  1  0  0  0  0
 25 28  1  0  0  0  0
 26 29  1  0  0  0  0
 27 25  2  0  0  0  0
 28 30  1  0  0  0  0
 30 29  2  0  0  0  0
 30 24  1  0  0  0  0
 31 26  2  0  0  0  0
M  END
>  <MODEL>
4

>  <REMARK>
 VINA RESULT:      -9.8      3.975      6.680
  Name = 
  4 active torsions:
  status: ('A' for Active; 'I' for Inactive)
    1  A    between atoms: S_3  and  C_9
    2  A    between atoms: S_3  and  C_22
    3  A    between atoms: C_9  and  C_23
    4  A    between atoms: C_15  and  C_23
                            x       y       z     vdW  Elec       q    Type
                         _______ _______ _______ _____ _____    ______ ____

>  <TORSDO>
F 4

$$$$
=
 OpenBabel11052412573D

 31 35  0  0  1  0  0  0  0  0999 V2000
  185.3880  178.2930  144.9630 C   0  0  0  0  0  0  0  0  0  0  0  0
  188.9300  178.0900  143.4960 C   0  0  2  0  0  3  0  0  0  0  0  0
  189.7370  177.6060  144.6960 C   0  0  0  0  0  0  0  0  0  0  0  0
  189.2000  177.3120  147.0930 C   0  0  0  0  0  3  0  0  0  0  0  0
  187.4190  178.1120  143.6370 C   0  0  0  0  0  0  0  0  0  0  0  0
  184.6200  178.3110  143.7970 C   0  0  0  0  0  3  0  0  0  0  0  0
  189.5160  178.2890  146.0110 C   0  0  0  0  0  2  0  0  0  0  0  0
  188.6600  178.0330  141.0260 C   0  0  1  0  0  3  0  0  0  0  0  0
  184.7690  178.3700  146.2030 O   0  0  0  0  0  1  0  0  0  0  0  0
  191.2370  176.3820  143.1290 C   0  0  0  0  0  2  0  0  0  0  0  0
  190.0680  176.3880  147.4970 C   0  0  0  0  0  3  0  0  0  0  0  0
  187.2400  178.0600  141.1990 O   0  0  0  0  0  0  0  0  0  0  0  0
  189.3120  177.3360  142.2170 C   0  0  1  0  0  3  0  0  0  0  0  0
  186.7800  178.2040  144.8820 C   0  0  0  0  0  3  0  0  0  0  0  0
  191.3890  176.1580  146.8880 C   0  0  0  0  0  3  0  0  0  0  0  0
  186.6360  178.1480  142.4620 C   0  0  0  0  0  0  0  0  0  0  0  0
  185.2430  178.2390  142.5480 C   0  0  0  0  0  3  0  0  0  0  0  0
  190.7620  177.3010  142.0990 N   0  0  0  0  0  2  0  0  0  0  0  0
  190.8420  176.8400  144.5120 C   0  0  0  0  0  0  0  0  0  0  0  0
  191.7190  176.3630  145.6060 C   0  0  0  0  0  3  0  0  0  0  0  0
  188.9970  177.3090  139.7300 C   0  0  0  0  0  2  0  0  0  0  0  0
  188.9980  179.3150  138.4390 O   0  0  0  0  0  1  0  0  0  0  0  0
  188.4200  178.0480  138.5350 C   0  0  1  0  0  3  0  0  0  0  0  0
  188.7680  177.1060  137.0220 S   0  0  0  0  0  0  0  0  0  0  0  0
  185.8700  174.1070  137.2190 C   0  0  0  0  0  0  0  0  0  0  0  0
  184.7760  176.2290  137.1900 C   0  0  0  0  0  3  0  0  0  0  0  0
  185.7460  172.8550  137.2490 O   0  0  0  0  0  0  0  0  0  0  0  0
  187.2440  174.7140  137.1760 C   0  0  0  0  0  2  0  0  0  0  0  0
  186.0750  176.9110  137.1200 C   0  0  0  0  0  3  0  0  0  0  0  0
  187.2180  176.2180  137.1030 C   0  0  0  0  0  0  0  0  0  0  0  0
  184.7000  174.9340  137.2340 N   0  0  0  0  0  0  0  0  0  0  0  0
  1  9  1  0  0  0  0
  2  5  1  1  0  0  0
  2  3  1  0  0  0  0
  3  7  1  0  0  0  0
  4 11  2  0  0  0  0
  5 14  2  0  0  0  0
  6  1  2  0  0  0  0
  7  4  1  0  0  0  0
  8 21  1  6  0  0  0
  8 12  1  0  0  0  0
  8 13  1  0  0  0  0
 10 19  1  0  0  0  0
 12 16  1  0  0  0  0
 13 18  1  6  0  0  0
 13  2  1  0  0  0  0
 14  1  1  0  0  0  0
 15 11  1  0  0  0  0
 16 17  2  0  0  0  0
 16  5  1  0  0  0  0
 17  6  1  0  0  0  0
 18 10  1  0  0  0  0
 19  3  2  0  0  0  0
 19 20  1  0  0  0  0
 20 15  2  0  0  0  0
 23 22  1  6  0  0  0
 23 21  1  0  0  0  0
 24 30  1  0  0  0  0
 24 23  1  0  0  0  0
 25 31  1  0  0  0  0
 25 27  2  0  0  0  0
 26 31  2  0  0  0  0
 28 25  1  0  0  0  0
 29 26  1  0  0  0  0
 30 29  2  0  0  0  0
 30 28  1  0  0  0  0
M  END
>  <MODEL>
5

>  <REMARK>
 VINA RESULT:      -9.6      2.646      4.681
  Name = 
  4 active torsions:
  status: ('A' for Active; 'I' for Inactive)
    1  A    between atoms: S_3  and  C_9
    2  A    between atoms: S_3  and  C_22
    3  A    between atoms: C_9  and  C_23
    4  A    between atoms: C_15  and  C_23
                            x       y       z     vdW  Elec       q    Type
                         _______ _______ _______ _____ _____    ______ ____

>  <TORSDO>
F 4

$$$$
=
 OpenBabel11052412573D

 31 35  0  0  1  0  0  0  0  0999 V2000
  189.9430  177.5030  141.8610 C   0  0  0  0  0  0  0  0  0  0  0  0
  186.1690  177.8750  142.4580 C   0  0  2  0  0  3  0  0  0  0  0  0
  186.1000  177.9630  143.9790 C   0  0  0  0  0  0  0  0  0  0  0  0
  187.7700  177.6270  145.7720 C   0  0  0  0  0  3  0  0  0  0  0  0
  187.5460  177.9090  141.8200 C   0  0  0  0  0  0  0  0  0  0  0  0
  190.0330  177.8500  140.5120 C   0  0  0  0  0  3  0  0  0  0  0  0
  186.8830  176.9630  144.7740 C   0  0  0  0  0  2  0  0  0  0  0  0
  185.1910  178.6170  140.2960 C   0  0  1  0  0  3  0  0  0  0  0  0
  191.0840  177.1300  142.5590 O   0  0  0  0  0  1  0  0  0  0  0  0
  184.1320  179.4700  143.7520 C   0  0  0  0  0  2  0  0  0  0  0  0
  187.2950  178.3510  146.7820 C   0  0  0  0  0  3  0  0  0  0  0  0
  186.5050  178.6330  139.7290 O   0  0  0  0  0  0  0  0  0  0  0  0
  185.2710  178.9220  141.7900 C   0  0  1  0  0  3  0  0  0  0  0  0
  188.7050  177.5230  142.5080 C   0  0  0  0  0  3  0  0  0  0  0  0
  185.8690  178.6550  146.9940 C   0  0  0  0  0  3  0  0  0  0  0  0
  187.6430  178.2430  140.4510 C   0  0  0  0  0  0  0  0  0  0  0  0
  188.8840  178.2190  139.8080 C   0  0  0  0  0  3  0  0  0  0  0  0
  183.9590  178.8970  142.4200 N   0  0  0  0  0  2  0  0  0  0  0  0
  185.1160  178.6790  144.5770 C   0  0  0  0  0  0  0  0  0  0  0  0
  184.9340  178.7850  146.0440 C   0  0  0  0  0  3  0  0  0  0  0  0
  184.3210  179.6430  139.5840 C   0  0  0  0  0  2  0  0  0  0  0  0
  183.5340  177.5830  138.6770 O   0  0  0  0  0  1  0  0  0  0  0  0
  183.2920  178.9570  138.7030 C   0  0  1  0  0  3  0  0  0  0  0  0
  181.6310  179.2680  139.3700 S   0  0  0  0  0  0  0  0  0  0  0  0
  180.9450  182.7980  137.2480 C   0  0  0  0  0  0  0  0  0  0  0  0
  180.5650  180.9450  135.7930 C   0  0  0  0  0  3  0  0  0  0  0  0
  180.9440  184.0490  137.3880 O   0  0  0  0  0  0  0  0  0  0  0  0
  181.3230  181.9240  138.4100 C   0  0  0  0  0  2  0  0  0  0  0  0
  180.8940  180.0100  136.8790 C   0  0  0  0  0  3  0  0  0  0  0  0
  181.2350  180.4550  138.0910 C   0  0  0  0  0  0  0  0  0  0  0  0
  180.5920  182.2280  135.9820 N   0  0  0  0  0  0  0  0  0  0  0  0
  1 14  1  0  0  0  0
  1  9  1  0  0  0  0
  2  5  1  6  0  0  0
  2  3  1  0  0  0  0
  3 19  2  0  0  0  0
  3  7  1  0  0  0  0
  4 11  2  0  0  0  0
  5 14  2  0  0  0  0
  6  1  2  0  0  0  0
  7  4  1  0  0  0  0
  8 21  1  6  0  0  0
  8 13  1  0  0  0  0
 10 19  1  0  0  0  0
 11 15  1  0  0  0  0
 12  8  1  0  0  0  0
 12 16  1  0  0  0  0
 13 18  1  1  0  0  0
 13  2  1  0  0  0  0
 16  5  1  0  0  0  0
 17 16  2  0  0  0  0
 17  6  1  0  0  0  0
 18 10  1  0  0  0  0
 19 20  1  0  0  0  0
 20 15  2  0  0  0  0
 23 22  1  1  0  0  0
 23 24  1  0  0  0  0
 23 21  1  0  0  0  0
 25 27  2  0  0  0  0
 25 28  1  0  0  0  0
 26 31  2  0  0  0  0
 26 29  1  0  0  0  0
 29 30  2  0  0  0  0
 30 28  1  0  0  0  0
 30 24  1  0  0  0  0
 31 25  1  0  0  0  0
M  END
>  <MODEL>
6

>  <REMARK>
 VINA RESULT:      -9.4      4.091      6.515
  Name = 
  4 active torsions:
  status: ('A' for Active; 'I' for Inactive)
    1  A    between atoms: S_3  and  C_9
    2  A    between atoms: S_3  and  C_22
    3  A    between atoms: C_9  and  C_23
    4  A    between atoms: C_15  and  C_23
                            x       y       z     vdW  Elec       q    Type
                         _______ _______ _______ _____ _____    ______ ____

>  <TORSDO>
F 4

$$$$
=
 OpenBabel11052412573D

 31 35  0  0  1  0  0  0  0  0999 V2000
  190.4480  177.2340  142.5160 C   0  0  0  0  0  0  0  0  0  0  0  0
  186.6940  177.6910  143.1800 C   0  0  2  0  0  3  0  0  0  0  0  0
  186.6600  177.8240  144.6990 C   0  0  0  0  0  0  0  0  0  0  0  0
  188.3610  177.5100  146.4670 C   0  0  0  0  0  3  0  0  0  0  0  0
  188.0570  177.6830  142.5130 C   0  0  0  0  0  0  0  0  0  0  0  0
  190.5150  177.5410  141.1560 C   0  0  0  0  0  3  0  0  0  0  0  0
  187.4410  176.8330  145.5060 C   0  0  0  0  0  2  0  0  0  0  0  0
  185.6840  178.3890  141.0180 C   0  0  1  0  0  3  0  0  0  0  0  0
  191.5960  176.8610  143.2010 O   0  0  0  0  0  1  0  0  0  0  0  0
  184.7130  179.3600  144.4690 C   0  0  0  0  0  2  0  0  0  0  0  0
  187.9200  178.2700  147.4650 C   0  0  0  0  0  3  0  0  0  0  0  0
  186.9850  178.3650  140.4240 O   0  0  0  0  0  0  0  0  0  0  0  0
  185.8000  178.7350  142.5010 C   0  0  1  0  0  3  0  0  0  0  0  0
  189.2240  177.2950  143.1880 C   0  0  0  0  0  3  0  0  0  0  0  0
  186.5040  178.6060  147.6970 C   0  0  0  0  0  3  0  0  0  0  0  0
  188.1310  177.9750  141.1330 C   0  0  0  0  0  0  0  0  0  0  0  0
  189.3580  177.9110  140.4650 C   0  0  0  0  0  3  0  0  0  0  0  0
  184.5020  178.7520  143.1590 N   0  0  0  0  0  2  0  0  0  0  0  0
  185.7010  178.5750  145.2970 C   0  0  0  0  0  0  0  0  0  0  0  0
  185.5520  178.7260  146.7630 C   0  0  0  0  0  3  0  0  0  0  0  0
  184.8170  179.4100  140.2960 C   0  0  0  0  0  2  0  0  0  0  0  0
  184.6950  178.0580  138.3340 O   0  0  0  0  0  1  0  0  0  0  0  0
  183.9170  178.7290  139.2800 C   0  0  1  0  0  3  0  0  0  0  0  0
  182.8420  177.5390  140.1350 S   0  0  0  0  0  0  0  0  0  0  0  0
  180.1840  180.7590  140.1240 C   0  0  0  0  0  0  0  0  0  0  0  0
  180.3060  179.8740  142.3380 C   0  0  0  0  0  3  0  0  0  0  0  0
  179.6930  181.6300  139.3600 O   0  0  0  0  0  0  0  0  0  0  0  0
  181.1430  179.7440  139.5690 C   0  0  0  0  0  2  0  0  0  0  0  0
  181.2710  178.8600  141.8920 C   0  0  0  0  0  3  0  0  0  0  0  0
  181.6700  178.8000  140.6180 C   0  0  0  0  0  0  0  0  0  0  0  0
  179.8160  180.7430  141.5090 N   0  0  0  0  0  0  0  0  0  0  0  0
  1 14  1  0  0  0  0
  1  9  1  0  0  0  0
  2  5  1  6  0  0  0
  2  3  1  0  0  0  0
  3 19  2  0  0  0  0
  3  7  1  0  0  0  0
  4 11  2  0  0  0  0
  5 14  2  0  0  0  0
  6  1  2  0  0  0  0
  7  4  1  0  0  0  0
  8 21  1  6  0  0  0
  8 13  1  0  0  0  0
 10 19  1  0  0  0  0
 11 15  1  0  0  0  0
 12  8  1  0  0  0  0
 12 16  1  0  0  0  0
 13 18  1  1  0  0  0
 13  2  1  0  0  0  0
 16  5  1  0  0  0  0
 17 16  2  0  0  0  0
 17  6  1  0  0  0  0
 18 10  1  0  0  0  0
 19 20  1  0  0  0  0
 20 15  2  0  0  0  0
 23 22  1  6  0  0  0
 23 24  1  0  0  0  0
 23 21  1  0  0  0  0
 24 30  1  0  0  0  0
 25 31  1  0  0  0  0
 27 25  2  0  0  0  0
 28 25  1  0  0  0  0
 28 30  1  0  0  0  0
 29 26  1  0  0  0  0
 30 29  2  0  0  0  0
 31 26  2  0  0  0  0
M  END
>  <MODEL>
7

>  <REMARK>
 VINA RESULT:      -9.3      3.371      6.392
  Name = 
  4 active torsions:
  status: ('A' for Active; 'I' for Inactive)
    1  A    between atoms: S_3  and  C_9
    2  A    between atoms: S_3  and  C_22
    3  A    between atoms: C_9  and  C_23
    4  A    between atoms: C_15  and  C_23
                            x       y       z     vdW  Elec       q    Type
                         _______ _______ _______ _____ _____    ______ ____

>  <TORSDO>
F 4

$$$$
=
 OpenBabel11052412573D

 31 35  0  0  1  0  0  0  0  0999 V2000
  189.9260  177.6600  141.8000 C   0  0  0  0  0  0  0  0  0  0  0  0
  186.7290  177.5990  143.9250 C   0  0  2  0  0  3  0  0  0  0  0  0
  187.2940  177.6590  145.3400 C   0  0  0  0  0  0  0  0  0  0  0  0
  189.5840  177.4880  146.2600 C   0  0  0  0  0  3  0  0  0  0  0  0
  187.7040  177.7960  142.7780 C   0  0  0  0  0  0  0  0  0  0  0  0
  189.4110  178.0340  140.5570 C   0  0  0  0  0  3  0  0  0  0  0  0
  188.4300  176.7420  145.6800 C   0  0  0  0  0  2  0  0  0  0  0  0
  184.8720  178.2560  142.4090 C   0  0  1  0  0  3  0  0  0  0  0  0
  191.2840  177.4090  141.9400 O   0  0  0  0  0  1  0  0  0  0  0  0
  185.2750  178.9390  146.0370 C   0  0  0  0  0  2  0  0  0  0  0  0
  189.5060  178.1410  147.4170 C   0  0  0  0  0  3  0  0  0  0  0  0
  185.8210  178.4260  141.3510 O   0  0  0  0  0  0  0  0  0  0  0  0
  185.5380  178.5480  143.7510 C   0  0  1  0  0  3  0  0  0  0  0  0
  189.0760  177.5330  142.9010 C   0  0  0  0  0  3  0  0  0  0  0  0
  188.2780  178.2800  148.2160 C   0  0  0  0  0  3  0  0  0  0  0  0
  187.1880  178.1570  141.5130 C   0  0  0  0  0  0  0  0  0  0  0  0
  188.0430  178.2810  140.4150 C   0  0  0  0  0  3  0  0  0  0  0  0
  184.6190  178.3680  144.8650 N   0  0  0  0  0  2  0  0  0  0  0  0
  186.5860  178.2520  146.3340 C   0  0  0  0  0  0  0  0  0  0  0  0
  187.0240  178.3170  147.7470 C   0  0  0  0  0  3  0  0  0  0  0  0
  183.6900  179.1880  142.1820 C   0  0  0  0  0  2  0  0  0  0  0  0
  181.3950  178.7420  141.7080 O   0  0  0  0  0  1  0  0  0  0  0  0
  182.6910  178.5660  141.2220 C   0  0  1  0  0  3  0  0  0  0  0  0
  182.8440  179.3670  139.5980 S   0  0  0  0  0  0  0  0  0  0  0  0
  184.9550  176.5550  137.3460 C   0  0  0  0  0  0  0  0  0  0  0  0
  183.0720  175.4790  138.3430 C   0  0  0  0  0  3  0  0  0  0  0  0
  185.9630  176.4440  136.6010 O   0  0  0  0  0  0  0  0  0  0  0  0
  184.6390  177.8850  137.9700 C   0  0  0  0  0  2  0  0  0  0  0  0
  182.6690  176.7440  138.9740 C   0  0  0  0  0  3  0  0  0  0  0  0
  183.3820  177.8600  138.7990 C   0  0  0  0  0  0  0  0  0  0  0  0
  184.1290  175.4110  137.5940 N   0  0  0  0  0  0  0  0  0  0  0  0
  1  9  1  0  0  0  0
  1 14  1  0  0  0  0
  2  5  1  6  0  0  0
  2  3  1  0  0  0  0
  3  7  1  0  0  0  0
  3 19  2  0  0  0  0
  4 11  2  0  0  0  0
  5 14  2  0  0  0  0
  6  1  2  0  0  0  0
  7  4  1  0  0  0  0
  8 21  1  6  0  0  0
  8 13  1  0  0  0  0
 10 19  1  0  0  0  0
 11 15  1  0  0  0  0
 12 16  1  0  0  0  0
 12  8  1  0  0  0  0
 13  2  1  0  0  0  0
 13 18  1  1  0  0  0
 16  5  1  0  0  0  0
 17  6  1  0  0  0  0
 17 16  2  0  0  0  0
 18 10  1  0  0  0  0
 19 20  1  0  0  0  0
 20 15  2  0  0  0  0
 23 22  1  1  0  0  0
 23 21  1  0  0  0  0
 24 23  1  0  0  0  0
 25 31  1  0  0  0  0
 25 28  1  0  0  0  0
 26 29  1  0  0  0  0
 27 25  2  0  0  0  0
 28 30  1  0  0  0  0
 30 29  2  0  0  0  0
 30 24  1  0  0  0  0
 31 26  2  0  0  0  0
M  END
>  <MODEL>
8

>  <REMARK>
 VINA RESULT:      -9.0      3.152      4.986
  Name = 
  4 active torsions:
  status: ('A' for Active; 'I' for Inactive)
    1  A    between atoms: S_3  and  C_9
    2  A    between atoms: S_3  and  C_22
    3  A    between atoms: C_9  and  C_23
    4  A    between atoms: C_15  and  C_23
                            x       y       z     vdW  Elec       q    Type
                         _______ _______ _______ _____ _____    ______ ____

>  <TORSDO>
F 4

$$$$
=
 OpenBabel11052412573D

 31 35  0  0  1  0  0  0  0  0999 V2000
  189.7260  177.2010  146.8810 C   0  0  0  0  0  0  0  0  0  0  0  0
  188.4710  177.0730  143.2550 C   0  0  2  0  0  3  0  0  0  0  0  0
  187.0840  177.6950  143.3820 C   0  0  0  0  0  0  0  0  0  0  0  0
  185.6900  178.3450  145.3200 C   0  0  0  0  0  3  0  0  0  0  0  0
  189.3710  177.1220  144.4760 C   0  0  0  0  0  0  0  0  0  0  0  0
  191.1000  177.0430  146.6910 C   0  0  0  0  0  3  0  0  0  0  0  0
  186.2000  177.2130  144.4920 C   0  0  0  0  0  2  0  0  0  0  0  0
  190.4870  176.7860  141.8280 C   0  0  1  0  0  3  0  0  0  0  0  0
  189.2130  177.3220  148.1650 O   0  0  0  0  0  1  0  0  0  0  0  0
  187.3500  178.6310  141.0910 C   0  0  0  0  0  2  0  0  0  0  0  0
  184.8910  179.2870  144.8270 C   0  0  0  0  0  3  0  0  0  0  0  0
  191.3010  176.8320  143.0040 O   0  0  0  0  0  0  0  0  0  0  0  0
  189.2280  177.6230  142.0410 C   0  0  1  0  0  3  0  0  0  0  0  0
  188.8660  177.2300  145.7800 C   0  0  0  0  0  3  0  0  0  0  0  0
  184.4820  179.3830  143.4160 C   0  0  0  0  0  3  0  0  0  0  0  0
  190.7600  176.9450  144.2930 C   0  0  0  0  0  0  0  0  0  0  0  0
  191.6160  176.9150  145.3980 C   0  0  0  0  0  3  0  0  0  0  0  0
  188.3520  177.5920  140.8790 N   0  0  0  0  0  2  0  0  0  0  0  0
  186.5490  178.3880  142.3460 C   0  0  0  0  0  0  0  0  0  0  0  0
  185.1940  178.9860  142.3530 C   0  0  0  0  0  3  0  0  0  0  0  0
  191.2840  177.3060  140.6410 C   0  0  0  0  0  2  0  0  0  0  0  0
  190.2630  176.0350  138.8990 O   0  0  0  0  0  1  0  0  0  0  0  0
  191.4590  176.2200  139.5940 C   0  0  1  0  0  3  0  0  0  0  0  0
  192.7660  176.7130  138.4320 S   0  0  0  0  0  0  0  0  0  0  0  0
  191.9650  173.4000  136.0210 C   0  0  0  0  0  0  0  0  0  0  0  0
  190.8410  175.2990  135.1100 C   0  0  0  0  0  3  0  0  0  0  0  0
  192.2260  172.1740  135.9110 O   0  0  0  0  0  0  0  0  0  0  0  0
  192.5300  174.1760  137.1770 C   0  0  0  0  0  2  0  0  0  0  0  0
  191.3700  176.1440  136.1900 C   0  0  0  0  0  3  0  0  0  0  0  0
  192.1580  175.6350  137.1410 C   0  0  0  0  0  0  0  0  0  0  0  0
  191.1270  174.0350  135.0470 N   0  0  0  0  0  0  0  0  0  0  0  0
  1  9  1  0  0  0  0
  2  3  1  1  0  0  0
  2  5  1  0  0  0  0
  3  7  1  0  0  0  0
  5 14  1  0  0  0  0
  6  1  1  0  0  0  0
  7  4  1  0  0  0  0
  8 21  1  6  0  0  0
  8 13  1  0  0  0  0
  8 12  1  0  0  0  0
 10 19  1  0  0  0  0
 11  4  2  0  0  0  0
 12 16  1  0  0  0  0
 13 18  1  6  0  0  0
 13  2  1  0  0  0  0
 14  1  2  0  0  0  0
 15 11  1  0  0  0  0
 16  5  2  0  0  0  0
 16 17  1  0  0  0  0
 17  6  2  0  0  0  0
 18 10  1  0  0  0  0
 19 20  1  0  0  0  0
 19  3  2  0  0  0  0
 20 15  2  0  0  0  0
 23 22  1  6  0  0  0
 23 21  1  0  0  0  0
 24 23  1  0  0  0  0
 25 28  1  0  0  0  0
 26 29  1  0  0  0  0
 27 25  2  0  0  0  0
 29 30  2  0  0  0  0
 30 28  1  0  0  0  0
 30 24  1  0  0  0  0
 31 26  2  0  0  0  0
 31 25  1  0  0  0  0
M  END
>  <MODEL>
9

>  <REMARK>
 VINA RESULT:      -8.9      1.928      2.342
  Name = 
  4 active torsions:
  status: ('A' for Active; 'I' for Inactive)
    1  A    between atoms: S_3  and  C_9
    2  A    between atoms: S_3  and  C_22
    3  A    between atoms: C_9  and  C_23
    4  A    between atoms: C_15  and  C_23
                            x       y       z     vdW  Elec       q    Type
                         _______ _______ _______ _____ _____    ______ ____

>  <TORSDO>
F 4

$$$$
