=
 OpenBabel11052417033D

 32 36  0  0  1  0  0  0  0  0999 V2000
  187.4590  177.8140  143.9390 C   0  0  0  0  0  0  0  0  0  0  0  0
  183.7580  178.8560  140.6550 C   0  0  0  0  0  0  0  0  0  0  0  0
  183.1830  178.0270  138.3360 C   0  0  2  0  0  3  0  0  0  0  0  0
  182.2900  178.1900  137.1430 C   0  0  0  0  0  0  0  0  0  0  0  0
  185.9250  178.5120  141.6960 C   0  0  0  0  0  0  0  0  0  0  0  0
  183.8970  178.1780  142.9890 C   0  0  0  0  0  3  0  0  0  0  0  0
  180.6050  178.3870  134.9130 C   0  0  0  0  0  3  0  0  0  0  0  0
  186.0570  177.8190  144.0210 C   0  0  0  0  0  3  0  0  0  0  0  0
  183.1190  178.5240  141.8760 C   0  0  0  0  0  0  0  0  0  0  0  0
  181.6190  178.6120  142.0490 C   0  0  2  0  0  3  0  0  0  0  0  0
  181.4940  179.4590  139.6780 C   0  0  2  0  0  3  0  0  0  0  0  0
  181.8140  177.6930  134.8180 C   0  0  0  0  0  3  0  0  0  0  0  0
  188.0830  178.1590  142.7340 C   0  0  0  0  0  3  0  0  0  0  0  0
  185.2900  178.1650  142.9060 C   0  0  0  0  0  0  0  0  0  0  0  0
  182.6520  177.5920  135.9310 C   0  0  0  0  0  3  0  0  0  0  0  0
  187.3190  178.5060  141.6150 C   0  0  0  0  0  3  0  0  0  0  0  0
  180.8510  178.5470  140.7270 C   0  0  1  0  0  3  0  0  0  0  0  0
  180.6920  179.5260  138.4590 N   0  0  0  0  0  2  0  0  0  0  0  0
  185.1570  178.8480  140.5810 C   0  0  0  0  0  3  0  0  0  0  0  0
  183.0250  176.7490  138.8780 O   0  0  0  0  0  1  0  0  0  0  0  0
  180.2350  178.9830  136.1230 C   0  0  0  0  0  3  0  0  0  0  0  0
  182.9740  179.1290  139.3960 C   0  0  1  0  0  3  0  0  0  0  0  0
  181.0700  178.8830  137.2400 C   0  0  0  0  0  0  0  0  0  0  0  0
  179.8570  180.1060  142.6860 O   0  0  0  0  0  1  0  0  0  0  0  0
  181.2310  179.8850  142.7910 C   0  0  0  0  0  2  0  0  0  0  0  0
  179.5630  176.7480  140.8230 C   0  0  0  0  0  1  0  0  0  0  0  0
  180.7570  177.2260  140.2800 O   0  0  0  0  0  0  0  0  0  0  0  0
  187.9110  177.7460  146.2540 N   0  0  0  0  0  0  0  0  0  0  0  0
  188.2660  177.4640  145.0650 N   0  0  0  0  0  0  0  0  0  0  0  0
  188.7270  177.3900  147.3710 C   0  0  0  0  0  0  0  0  0  0  0  0
  188.4270  177.9600  148.7100 C   0  0  0  0  0  1  0  0  0  0  0  0
  189.6970  176.5980  147.2330 O   0  0  0  0  0  0  0  0  0  0  0  0
  1  8  1  0  0  0  0
  1 29  1  0  0  0  0
  2  9  1  0  0  0  0
  3 20  1  1  0  0  0
  3 22  1  0  0  0  0
  4 23  1  0  0  0  0
  4  3  1  0  0  0  0
  5 14  1  0  0  0  0
  7 21  1  0  0  0  0
  9 10  1  0  0  0  0
  9  6  2  0  0  0  0
 10 25  1  6  0  0  0
 11 18  1  6  0  0  0
 11 17  1  0  0  0  0
 12  7  2  0  0  0  0
 12 15  1  0  0  0  0
 13  1  2  0  0  0  0
 14  6  1  0  0  0  0
 14  8  2  0  0  0  0
 15  4  2  0  0  0  0
 16  5  2  0  0  0  0
 16 13  1  0  0  0  0
 17 27  1  6  0  0  0
 17 10  1  0  0  0  0
 19  2  2  0  0  0  0
 19  5  1  0  0  0  0
 21 23  2  0  0  0  0
 22 11  1  0  0  0  0
 22  2  1  1  0  0  0
 23 18  1  0  0  0  0
 24 25  1  0  0  0  0
 27 26  1  0  0  0  0
 28 30  1  0  0  0  0
 29 28  2  0  0  0  0
 30 31  1  0  0  0  0
 32 30  2  0  0  0  0
M  END
>  <MODEL>
1

>  <REMARK>
 VINA RESULT:      -7.6      0.000      0.000
  Name = 
  4 active torsions:
  status: ('A' for Active; 'I' for Inactive)
    1  A    between atoms: C_1  and  N_10
    2  A    between atoms: C_2  and  N_24
    3  A    between atoms: C_13  and  C_15
    4  A    between atoms: O_25  and  C_26
                            x       y       z     vdW  Elec       q    Type
                         _______ _______ _______ _____ _____    ______ ____

>  <TORSDO>
F 4

$$$$
=
 OpenBabel11052417033D

 32 36  0  0  1  0  0  0  0  0999 V2000
  188.4360  177.4350  143.7760 C   0  0  0  0  0  0  0  0  0  0  0  0
  190.5970  176.8900  139.2380 C   0  0  0  0  0  0  0  0  0  0  0  0
  191.8570  175.0120  138.1070 C   0  0  2  0  0  3  0  0  0  0  0  0
  192.6530  174.5940  136.9080 C   0  0  0  0  0  0  0  0  0  0  0  0
  190.1800  176.9670  141.6290 C   0  0  0  0  0  0  0  0  0  0  0  0
  188.4050  177.5400  140.0730 C   0  0  0  0  0  3  0  0  0  0  0  0
  194.0790  173.7230  134.6580 C   0  0  0  0  0  3  0  0  0  0  0  0
  187.9840  177.6010  142.4570 C   0  0  0  0  0  3  0  0  0  0  0  0
  189.2650  177.3090  138.9920 C   0  0  0  0  0  0  0  0  0  0  0  0
  188.7580  177.6020  137.5970 C   0  0  2  0  0  3  0  0  0  0  0  0
  191.0730  177.0730  136.7510 C   0  0  2  0  0  3  0  0  0  0  0  0
  194.1220  172.9830  135.8430 C   0  0  0  0  0  3  0  0  0  0  0  0
  189.7570  177.0350  144.0110 C   0  0  0  0  0  3  0  0  0  0  0  0
  188.8500  177.3680  141.3850 C   0  0  0  0  0  0  0  0  0  0  0  0
  193.4070  173.4160  136.9640 C   0  0  0  0  0  3  0  0  0  0  0  0
  190.6270  176.8010  142.9410 C   0  0  0  0  0  3  0  0  0  0  0  0
  189.5710  176.9120  136.4990 C   0  0  1  0  0  3  0  0  0  0  0  0
  191.8640  176.5530  135.6390 N   0  0  0  0  0  2  0  0  0  0  0  0
  191.0390  176.7260  140.5570 C   0  0  0  0  0  3  0  0  0  0  0  0
  190.7020  174.2330  138.2070 O   0  0  0  0  0  1  0  0  0  0  0  0
  193.3230  174.8970  134.5940 C   0  0  0  0  0  3  0  0  0  0  0  0
  191.5340  176.5210  138.1150 C   0  0  1  0  0  3  0  0  0  0  0  0
  192.6050  175.3320  135.7120 C   0  0  0  0  0  0  0  0  0  0  0  0
  187.4940  179.4770  136.8040 O   0  0  0  0  0  1  0  0  0  0  0  0
  188.7310  179.1020  137.3320 C   0  0  0  0  0  2  0  0  0  0  0  0
  187.9020  175.5930  135.8840 C   0  0  0  0  0  1  0  0  0  0  0  0
  189.2040  175.5690  136.3880 O   0  0  0  0  0  0  0  0  0  0  0  0
  188.0270  177.9250  146.0490 N   0  0  0  0  0  0  0  0  0  0  0  0
  187.5700  177.6670  144.8900 N   0  0  0  0  0  0  0  0  0  0  0  0
  187.1510  178.1540  147.1520 C   0  0  0  0  0  0  0  0  0  0  0  0
  185.7710  178.6460  146.9040 C   0  0  0  0  0  1  0  0  0  0  0  0
  187.5350  177.9440  148.3340 O   0  0  0  0  0  0  0  0  0  0  0  0
  1 13  1  0  0  0  0
  1 29  1  0  0  0  0
  2 19  1  0  0  0  0
  3 22  1  0  0  0  0
  3 20  1  6  0  0  0
  4 15  1  0  0  0  0
  4  3  1  0  0  0  0
  5 16  1  0  0  0  0
  6 14  2  0  0  0  0
  7 12  1  0  0  0  0
  8  1  2  0  0  0  0
  9  2  2  0  0  0  0
  9  6  1  0  0  0  0
 10 25  1  6  0  0  0
 10  9  1  0  0  0  0
 11 18  1  6  0  0  0
 11 22  1  0  0  0  0
 12 15  2  0  0  0  0
 14  5  1  0  0  0  0
 14  8  1  0  0  0  0
 16 13  2  0  0  0  0
 17 27  1  1  0  0  0
 17 11  1  0  0  0  0
 17 10  1  0  0  0  0
 18 23  1  0  0  0  0
 19  5  2  0  0  0  0
 21  7  2  0  0  0  0
 21 23  1  0  0  0  0
 22  2  1  1  0  0  0
 23  4  2  0  0  0  0
 24 25  1  0  0  0  0
 26 27  1  0  0  0  0
 28 30  1  0  0  0  0
 29 28  2  0  0  0  0
 30 32  2  0  0  0  0
 31 30  1  0  0  0  0
M  END
>  <MODEL>
2

>  <REMARK>
 VINA RESULT:      -7.2      5.904      8.365
  Name = 
  4 active torsions:
  status: ('A' for Active; 'I' for Inactive)
    1  A    between atoms: C_1  and  N_10
    2  A    between atoms: C_2  and  N_24
    3  A    between atoms: C_13  and  C_15
    4  A    between atoms: O_25  and  C_26
                            x       y       z     vdW  Elec       q    Type
                         _______ _______ _______ _____ _____    ______ ____

>  <TORSDO>
F 4

$$$$
=
 OpenBabel11052417033D

 32 36  0  0  1  0  0  0  0  0999 V2000
  189.3700  177.4250  142.7160 C   0  0  0  0  0  0  0  0  0  0  0  0
  192.0450  176.6390  138.4990 C   0  0  0  0  0  0  0  0  0  0  0  0
  194.0870  175.2520  137.9470 C   0  0  2  0  0  3  0  0  0  0  0  0
  195.1110  174.9050  136.9090 C   0  0  0  0  0  0  0  0  0  0  0  0
  191.3740  177.1810  140.7690 C   0  0  0  0  0  0  0  0  0  0  0  0
  189.7040  176.4880  139.1470 C   0  0  0  0  0  3  0  0  0  0  0  0
  197.0070  174.1500  134.9890 C   0  0  0  0  0  3  0  0  0  0  0  0
  189.0380  177.0130  141.4150 C   0  0  0  0  0  3  0  0  0  0  0  0
  190.6960  176.3620  138.1650 C   0  0  0  0  0  0  0  0  0  0  0  0
  190.2690  176.0150  136.7560 C   0  0  2  0  0  3  0  0  0  0  0  0
  192.6730  176.3200  136.0590 C   0  0  2  0  0  3  0  0  0  0  0  0
  197.2220  173.8560  136.3380 C   0  0  0  0  0  3  0  0  0  0  0  0
  190.7030  177.7110  143.0330 C   0  0  0  0  0  3  0  0  0  0  0  0
  190.0340  176.8890  140.4420 C   0  0  0  0  0  0  0  0  0  0  0  0
  196.2740  174.2290  137.2940 C   0  0  0  0  0  3  0  0  0  0  0  0
  191.7030  177.5890  142.0630 C   0  0  0  0  0  3  0  0  0  0  0  0
  191.4100  175.4690  135.8950 C   0  0  1  0  0  3  0  0  0  0  0  0
  193.7250  175.9070  135.1350 N   0  0  0  0  0  2  0  0  0  0  0  0
  192.3680  177.0480  139.7990 C   0  0  0  0  0  3  0  0  0  0  0  0
  193.3550  174.1130  138.2940 O   0  0  0  0  0  1  0  0  0  0  0  0
  195.8440  174.8190  134.5960 C   0  0  0  0  0  3  0  0  0  0  0  0
  193.1680  176.4150  137.5170 C   0  0  1  0  0  3  0  0  0  0  0  0
  194.8920  175.1930  135.5490 C   0  0  0  0  0  0  0  0  0  0  0  0
  188.4690  176.8570  135.4180 O   0  0  0  0  0  1  0  0  0  0  0  0
  189.6520  177.2230  136.0620 C   0  0  0  0  0  2  0  0  0  0  0  0
  190.3790  173.5530  136.3060 C   0  0  0  0  0  1  0  0  0  0  0  0
  191.6470  174.1240  136.1910 O   0  0  0  0  0  0  0  0  0  0  0  0
  187.1430  177.7320  143.4360 N   0  0  0  0  0  0  0  0  0  0  0  0
  188.3690  177.5580  143.7280 N   0  0  0  0  0  0  0  0  0  0  0  0
  186.1540  177.8650  144.4570 C   0  0  0  0  0  0  0  0  0  0  0  0
  186.5050  177.5470  145.8660 C   0  0  0  0  0  1  0  0  0  0  0  0
  184.9870  178.2480  144.1770 O   0  0  0  0  0  0  0  0  0  0  0  0
  1 13  1  0  0  0  0
  1 29  1  0  0  0  0
  2 19  1  0  0  0  0
  3 20  1  6  0  0  0
  4 15  1  0  0  0  0
  4  3  1  0  0  0  0
  5 16  1  0  0  0  0
  6 14  2  0  0  0  0
  7 12  1  0  0  0  0
  8  1  2  0  0  0  0
  9  2  2  0  0  0  0
  9  6  1  0  0  0  0
 10 25  1  6  0  0  0
 10  9  1  0  0  0  0
 11 18  1  6  0  0  0
 11 22  1  0  0  0  0
 12 15  2  0  0  0  0
 14  5  1  0  0  0  0
 14  8  1  0  0  0  0
 16 13  2  0  0  0  0
 17 11  1  0  0  0  0
 17 27  1  1  0  0  0
 17 10  1  0  0  0  0
 18 23  1  0  0  0  0
 19  5  2  0  0  0  0
 21  7  2  0  0  0  0
 21 23  1  0  0  0  0
 22  3  1  0  0  0  0
 22  2  1  1  0  0  0
 23  4  2  0  0  0  0
 24 25  1  0  0  0  0
 27 26  1  0  0  0  0
 28 29  2  0  0  0  0
 28 30  1  0  0  0  0
 30 31  1  0  0  0  0
 32 30  2  0  0  0  0
M  END
>  <MODEL>
3

>  <REMARK>
 VINA RESULT:      -6.4      7.273     10.210
  Name = 
  4 active torsions:
  status: ('A' for Active; 'I' for Inactive)
    1  A    between atoms: C_1  and  N_10
    2  A    between atoms: C_2  and  N_24
    3  A    between atoms: C_13  and  C_15
    4  A    between atoms: O_25  and  C_26
                            x       y       z     vdW  Elec       q    Type
                         _______ _______ _______ _____ _____    ______ ____

>  <TORSDO>
F 4

$$$$
=
 OpenBabel11052417033D

 32 36  0  0  1  0  0  0  0  0999 V2000
  185.1530  178.5250  144.6480 C   0  0  0  0  0  0  0  0  0  0  0  0
  182.2100  178.7370  140.5430 C   0  0  0  0  0  0  0  0  0  0  0  0
  181.4030  180.6160  139.0560 C   0  0  2  0  0  3  0  0  0  0  0  0
  180.5120  181.0030  137.9150 C   0  0  0  0  0  0  0  0  0  0  0  0
  183.1770  179.0960  142.7410 C   0  0  0  0  0  0  0  0  0  0  0  0
  184.1960  177.5020  141.2190 C   0  0  0  0  0  3  0  0  0  0  0  0
  178.9310  181.7800  135.7350 C   0  0  0  0  0  3  0  0  0  0  0  0
  185.1690  177.8730  143.4050 C   0  0  0  0  0  3  0  0  0  0  0  0
  183.2150  177.7790  140.2570 C   0  0  0  0  0  0  0  0  0  0  0  0
  183.2200  176.9740  138.9760 C   0  0  2  0  0  3  0  0  0  0  0  0
  181.0780  178.1470  138.3480 C   0  0  2  0  0  3  0  0  0  0  0  0
  179.4430  182.7450  136.6070 C   0  0  0  0  0  3  0  0  0  0  0  0
  184.1490  179.4580  144.9290 C   0  0  0  0  0  3  0  0  0  0  0  0
  184.1870  178.1550  142.4520 C   0  0  0  0  0  0  0  0  0  0  0  0
  180.2340  182.3570  137.6920 C   0  0  0  0  0  3  0  0  0  0  0  0
  183.1630  179.7440  143.9780 C   0  0  0  0  0  3  0  0  0  0  0  0
  182.4300  177.6340  137.8440 C   0  0  1  0  0  3  0  0  0  0  0  0
  180.2490  178.6440  137.2540 N   0  0  0  0  0  2  0  0  0  0  0  0
  182.2020  179.3830  141.7850 C   0  0  0  0  0  3  0  0  0  0  0  0
  182.7360  180.8740  138.7280 O   0  0  0  0  0  1  0  0  0  0  0  0
  179.2100  180.4270  135.9480 C   0  0  0  0  0  3  0  0  0  0  0  0
  181.1950  179.1550  139.5090 C   0  0  1  0  0  3  0  0  0  0  0  0
  180.0020  180.0350  137.0310 C   0  0  0  0  0  0  0  0  0  0  0  0
  182.6390  174.8580  138.0150 O   0  0  0  0  0  1  0  0  0  0  0  0
  182.6770  175.5700  139.2140 C   0  0  0  0  0  2  0  0  0  0  0  0
  184.4270  178.0710  136.9920 C   0  0  0  0  0  1  0  0  0  0  0  0
  183.1830  178.6490  137.2480 O   0  0  0  0  0  0  0  0  0  0  0  0
  187.3080  177.8370  145.3250 N   0  0  0  0  0  0  0  0  0  0  0  0
  186.1470  178.2530  145.6390 N   0  0  0  0  0  0  0  0  0  0  0  0
  188.2910  177.5690  146.3250 C   0  0  0  0  0  0  0  0  0  0  0  0
  187.9290  177.6900  147.7610 C   0  0  0  0  0  1  0  0  0  0  0  0
  189.4610  177.2320  146.0020 O   0  0  0  0  0  0  0  0  0  0  0  0
  1 13  1  0  0  0  0
  1 29  1  0  0  0  0
  2 19  1  0  0  0  0
  3 20  1  6  0  0  0
  3 22  1  0  0  0  0
  4  3  1  0  0  0  0
  5 16  1  0  0  0  0
  6 14  2  0  0  0  0
  7 21  2  0  0  0  0
  7 12  1  0  0  0  0
  8  1  2  0  0  0  0
  9  2  2  0  0  0  0
  9  6  1  0  0  0  0
 10 25  1  1  0  0  0
 10  9  1  0  0  0  0
 11 18  1  6  0  0  0
 11 22  1  0  0  0  0
 12 15  2  0  0  0  0
 14  5  1  0  0  0  0
 14  8  1  0  0  0  0
 15  4  1  0  0  0  0
 16 13  2  0  0  0  0
 17 27  1  1  0  0  0
 17 11  1  0  0  0  0
 17 10  1  0  0  0  0
 19  5  2  0  0  0  0
 21 23  1  0  0  0  0
 22  2  1  1  0  0  0
 23 18  1  0  0  0  0
 23  4  2  0  0  0  0
 24 25  1  0  0  0  0
 26 27  1  0  0  0  0
 28 29  2  0  0  0  0
 28 30  1  0  0  0  0
 30 31  1  0  0  0  0
 32 30  2  0  0  0  0
M  END
>  <MODEL>
4

>  <REMARK>
 VINA RESULT:      -5.6      2.015      3.555
  Name = 
  4 active torsions:
  status: ('A' for Active; 'I' for Inactive)
    1  A    between atoms: C_1  and  N_10
    2  A    between atoms: C_2  and  N_24
    3  A    between atoms: C_13  and  C_15
    4  A    between atoms: O_25  and  C_26
                            x       y       z     vdW  Elec       q    Type
                         _______ _______ _______ _____ _____    ______ ____

>  <TORSDO>
F 4

$$$$
=
 OpenBabel11052417033D

 32 36  0  0  1  0  0  0  0  0999 V2000
  189.7690  177.0790  142.4610 C   0  0  0  0  0  0  0  0  0  0  0  0
  185.3630  178.7030  140.5880 C   0  0  0  0  0  0  0  0  0  0  0  0
  184.0200  178.1420  138.5210 C   0  0  2  0  0  3  0  0  0  0  0  0
  182.8240  178.4830  137.6830 C   0  0  0  0  0  0  0  0  0  0  0  0
  187.6980  178.0990  140.8670 C   0  0  0  0  0  0  0  0  0  0  0  0
  186.1440  177.8020  142.7100 C   0  0  0  0  0  3  0  0  0  0  0  0
  180.5630  179.0170  136.1170 C   0  0  0  0  0  3  0  0  0  0  0  0
  188.4690  177.1840  142.9820 C   0  0  0  0  0  3  0  0  0  0  0  0
  185.1000  178.3090  141.9240 C   0  0  0  0  0  0  0  0  0  0  0  0
  183.7440  178.4950  142.5670 C   0  0  2  0  0  3  0  0  0  0  0  0
  182.9810  179.5670  140.4160 C   0  0  2  0  0  3  0  0  0  0  0  0
  181.6060  178.2430  135.6000 C   0  0  0  0  0  3  0  0  0  0  0  0
  190.0230  177.4860  141.1460 C   0  0  0  0  0  3  0  0  0  0  0  0
  187.4350  177.6900  142.1910 C   0  0  0  0  0  0  0  0  0  0  0  0
  182.7320  177.9750  136.3830 C   0  0  0  0  0  3  0  0  0  0  0  0
  188.9910  177.9940  140.3500 C   0  0  0  0  0  3  0  0  0  0  0  0
  182.6040  178.6120  141.5530 C   0  0  1  0  0  3  0  0  0  0  0  0
  181.8550  179.8090  139.5200 N   0  0  0  0  0  2  0  0  0  0  0  0
  186.6620  178.5960  140.0760 C   0  0  0  0  0  3  0  0  0  0  0  0
  183.9070  176.8340  139.0010 O   0  0  0  0  0  1  0  0  0  0  0  0
  180.6460  179.5230  137.4170 C   0  0  0  0  0  3  0  0  0  0  0  0
  184.2610  179.1530  139.6610 C   0  0  1  0  0  3  0  0  0  0  0  0
  181.7700  179.2550  138.2050 C   0  0  0  0  0  0  0  0  0  0  0  0
  183.2430  179.3810  144.7360 O   0  0  0  0  0  1  0  0  0  0  0  0
  183.7360  179.7180  143.4750 C   0  0  0  0  0  2  0  0  0  0  0  0
  180.8490  177.3840  140.9910 C   0  0  0  0  0  1  0  0  0  0  0  0
  182.2420  177.3510  141.0740 O   0  0  0  0  0  0  0  0  0  0  0  0
  190.6560  176.1260  144.4310 N   0  0  0  0  0  0  0  0  0  0  0  0
  190.8440  176.5640  143.2510 N   0  0  0  0  0  0  0  0  0  0  0  0
  191.7380  175.6150  145.2080 C   0  0  0  0  0  0  0  0  0  0  0  0
  192.0470  176.2250  146.5280 C   0  0  0  0  0  1  0  0  0  0  0  0
  192.4340  174.6520  144.7880 O   0  0  0  0  0  0  0  0  0  0  0  0
  1  8  1  0  0  0  0
  1 29  1  0  0  0  0
  2  9  1  0  0  0  0
  3 20  1  1  0  0  0
  3 22  1  0  0  0  0
  4 23  1  0  0  0  0
  4  3  1  0  0  0  0
  5 14  1  0  0  0  0
  7 21  1  0  0  0  0
  9 10  1  0  0  0  0
  9  6  2  0  0  0  0
 10 25  1  6  0  0  0
 11 18  1  6  0  0  0
 11 17  1  0  0  0  0
 12  7  2  0  0  0  0
 12 15  1  0  0  0  0
 13  1  2  0  0  0  0
 14  6  1  0  0  0  0
 14  8  2  0  0  0  0
 15  4  2  0  0  0  0
 16  5  2  0  0  0  0
 16 13  1  0  0  0  0
 17 27  1  6  0  0  0
 17 10  1  0  0  0  0
 19  2  2  0  0  0  0
 19  5  1  0  0  0  0
 21 23  2  0  0  0  0
 22 11  1  0  0  0  0
 22  2  1  1  0  0  0
 23 18  1  0  0  0  0
 25 24  1  0  0  0  0
 26 27  1  0  0  0  0
 28 30  1  0  0  0  0
 29 28  2  0  0  0  0
 30 31  1  0  0  0  0
 32 30  2  0  0  0  0
M  END
>  <MODEL>
5

>  <REMARK>
 VINA RESULT:      -5.5      1.963      2.387
  Name = 
  4 active torsions:
  status: ('A' for Active; 'I' for Inactive)
    1  A    between atoms: C_1  and  N_10
    2  A    between atoms: C_2  and  N_24
    3  A    between atoms: C_13  and  C_15
    4  A    between atoms: O_25  and  C_26
                            x       y       z     vdW  Elec       q    Type
                         _______ _______ _______ _____ _____    ______ ____

>  <TORSDO>
F 4

$$$$
=
 OpenBabel11052417033D

 32 36  0  0  1  0  0  0  0  0999 V2000
  193.0760  176.3310  137.1970 C   0  0  0  0  0  0  0  0  0  0  0  0
  188.0360  176.2980  137.6010 C   0  0  0  0  0  0  0  0  0  0  0  0
  186.3220  178.0050  138.3370 C   0  0  2  0  0  3  0  0  0  0  0  0
  184.8790  178.2640  138.6480 C   0  0  0  0  0  0  0  0  0  0  0  0
  190.4110  176.5090  138.0580 C   0  0  0  0  0  0  0  0  0  0  0  0
  189.6620  175.7930  135.8610 C   0  0  0  0  0  3  0  0  0  0  0  0
  182.1850  178.8370  139.1660 C   0  0  0  0  0  3  0  0  0  0  0  0
  192.0300  176.0200  136.3120 C   0  0  0  0  0  3  0  0  0  0  0  0
  188.3270  175.8790  136.2780 C   0  0  0  0  0  0  0  0  0  0  0  0
  187.2460  175.4350  135.3180 C   0  0  2  0  0  3  0  0  0  0  0  0
  185.5810  175.8150  137.1710 C   0  0  2  0  0  3  0  0  0  0  0  0
  183.1840  179.7090  139.6080 C   0  0  0  0  0  3  0  0  0  0  0  0
  192.7800  176.7280  138.5070 C   0  0  0  0  0  3  0  0  0  0  0  0
  190.7020  176.1090  136.7370 C   0  0  0  0  0  0  0  0  0  0  0  0
  184.5270  179.4240  139.3460 C   0  0  0  0  0  3  0  0  0  0  0  0
  191.4520  176.8180  138.9360 C   0  0  0  0  0  3  0  0  0  0  0  0
  185.8600  175.9750  135.6740 C   0  0  1  0  0  3  0  0  0  0  0  0
  184.2090  176.1860  137.5060 N   0  0  0  0  0  2  0  0  0  0  0  0
  189.0850  176.6060  138.4770 C   0  0  0  0  0  3  0  0  0  0  0  0
  186.7330  178.8130  137.2740 O   0  0  0  0  0  1  0  0  0  0  0  0
  182.5300  177.6790  138.4630 C   0  0  0  0  0  3  0  0  0  0  0  0
  186.6200  176.5140  138.0720 C   0  0  1  0  0  3  0  0  0  0  0  0
  183.8720  177.3910  138.1970 C   0  0  0  0  0  0  0  0  0  0  0  0
  186.0010  173.5140  134.6130 O   0  0  0  0  0  1  0  0  0  0  0  0
  187.1850  173.9150  135.2320 C   0  0  0  0  0  2  0  0  0  0  0  0
  184.5010  177.3560  134.6020 C   0  0  0  0  0  1  0  0  0  0  0  0
  185.7300  177.3040  135.2600 O   0  0  0  0  0  0  0  0  0  0  0  0
  195.0040  175.1300  136.5540 N   0  0  0  0  0  0  0  0  0  0  0  0
  194.4430  176.2480  136.7870 N   0  0  0  0  0  0  0  0  0  0  0  0
  196.3690  175.0610  136.1450 C   0  0  0  0  0  0  0  0  0  0  0  0
  196.7210  174.3850  134.8690 C   0  0  0  0  0  1  0  0  0  0  0  0
  197.2800  175.5680  136.8530 O   0  0  0  0  0  0  0  0  0  0  0  0
  1 13  1  0  0  0  0
  2 19  1  0  0  0  0
  3 20  1  6  0  0  0
  3  4  1  0  0  0  0
  4 15  1  0  0  0  0
  5 19  2  0  0  0  0
  5 16  1  0  0  0  0
  6  9  1  0  0  0  0
  6 14  2  0  0  0  0
  7 12  1  0  0  0  0
  8 14  1  0  0  0  0
  8  1  2  0  0  0  0
  9  2  2  0  0  0  0
 10 25  1  1  0  0  0
 10 17  1  0  0  0  0
 10  9  1  0  0  0  0
 11 18  1  6  0  0  0
 11 22  1  0  0  0  0
 13 16  2  0  0  0  0
 14  5  1  0  0  0  0
 15 12  2  0  0  0  0
 17 27  1  1  0  0  0
 17 11  1  0  0  0  0
 18 23  1  0  0  0  0
 21  7  2  0  0  0  0
 22  2  1  6  0  0  0
 22  3  1  0  0  0  0
 23 21  1  0  0  0  0
 23  4  2  0  0  0  0
 24 25  1  0  0  0  0
 26 27  1  0  0  0  0
 28 29  2  0  0  0  0
 29  1  1  0  0  0  0
 30 28  1  0  0  0  0
 30 32  2  0  0  0  0
 31 30  1  0  0  0  0
M  END
>  <MODEL>
6

>  <REMARK>
 VINA RESULT:      -5.3      6.281      8.300
  Name = 
  4 active torsions:
  status: ('A' for Active; 'I' for Inactive)
    1  A    between atoms: C_1  and  N_10
    2  A    between atoms: C_2  and  N_24
    3  A    between atoms: C_13  and  C_15
    4  A    between atoms: O_25  and  C_26
                            x       y       z     vdW  Elec       q    Type
                         _______ _______ _______ _____ _____    ______ ____

>  <TORSDO>
F 4

$$$$
=
 OpenBabel11052417033D

 32 36  0  0  1  0  0  0  0  0999 V2000
  187.7520  178.4720  141.4100 C   0  0  0  0  0  0  0  0  0  0  0  0
  183.3170  178.0040  139.0270 C   0  0  0  0  0  0  0  0  0  0  0  0
  182.3970  176.3650  137.3360 C   0  0  2  0  0  3  0  0  0  0  0  0
  181.2550  176.0270  136.4250 C   0  0  0  0  0  0  0  0  0  0  0  0
  185.6830  178.2120  139.5330 C   0  0  0  0  0  0  0  0  0  0  0  0
  184.0570  178.2130  141.3370 C   0  0  0  0  0  3  0  0  0  0  0  0
  179.1220  175.2940  134.7630 C   0  0  0  0  0  3  0  0  0  0  0  0
  186.4170  178.4040  141.8420 C   0  0  0  0  0  3  0  0  0  0  0  0
  183.0140  178.0820  140.4100 C   0  0  0  0  0  0  0  0  0  0  0  0
  181.5910  178.1170  140.9220 C   0  0  2  0  0  3  0  0  0  0  0  0
  180.8300  178.0530  138.5190 C   0  0  2  0  0  3  0  0  0  0  0  0
  180.3760  174.7010  134.5940 C   0  0  0  0  0  3  0  0  0  0  0  0
  188.0420  178.4100  140.0420 C   0  0  0  0  0  3  0  0  0  0  0  0
  185.3840  178.2730  140.9100 C   0  0  0  0  0  0  0  0  0  0  0  0
  181.4390  175.0640  135.4260 C   0  0  0  0  0  3  0  0  0  0  0  0
  187.0110  178.2790  139.1050 C   0  0  0  0  0  3  0  0  0  0  0  0
  180.5790  177.5290  139.9360 C   0  0  1  0  0  3  0  0  0  0  0  0
  179.7860  177.6230  137.5930 N   0  0  0  0  0  2  0  0  0  0  0  0
  184.6510  178.0720  138.6050 C   0  0  0  0  0  3  0  0  0  0  0  0
  182.5610  175.3550  138.2880 O   0  0  0  0  0  1  0  0  0  0  0  0
  178.9310  176.2520  135.7620 C   0  0  0  0  0  3  0  0  0  0  0  0
  182.2490  177.7530  137.9930 C   0  0  1  0  0  3  0  0  0  0  0  0
  179.9900  176.6170  136.5980 C   0  0  0  0  0  0  0  0  0  0  0  0
  179.8970  179.5420  141.8350 O   0  0  0  0  0  1  0  0  0  0  0  0
  181.1760  179.5380  141.2790 C   0  0  0  0  0  2  0  0  0  0  0  0
  179.4300  175.7800  140.6620 C   0  0  0  0  0  1  0  0  0  0  0  0
  180.5990  176.1330  139.9860 O   0  0  0  0  0  0  0  0  0  0  0  0
  189.2890  177.6040  142.9770 N   0  0  0  0  0  0  0  0  0  0  0  0
  188.8260  178.6050  142.3440 N   0  0  0  0  0  0  0  0  0  0  0  0
  190.3620  177.7510  143.9070 C   0  0  0  0  0  0  0  0  0  0  0  0
  191.1490  179.0110  143.9260 C   0  0  0  0  0  1  0  0  0  0  0  0
  190.6480  176.8250  144.7120 O   0  0  0  0  0  0  0  0  0  0  0  0
  1  8  1  0  0  0  0
  1 29  1  0  0  0  0
  2  9  1  0  0  0  0
  3 22  1  0  0  0  0
  3 20  1  1  0  0  0
  4 23  1  0  0  0  0
  4  3  1  0  0  0  0
  5 14  1  0  0  0  0
  7 21  1  0  0  0  0
  9 10  1  0  0  0  0
  9  6  2  0  0  0  0
 10 25  1  6  0  0  0
 11 18  1  6  0  0  0
 11 17  1  0  0  0  0
 12  7  2  0  0  0  0
 12 15  1  0  0  0  0
 13  1  2  0  0  0  0
 14  6  1  0  0  0  0
 14  8  2  0  0  0  0
 15  4  2  0  0  0  0
 16  5  2  0  0  0  0
 16 13  1  0  0  0  0
 17 27  1  6  0  0  0
 17 10  1  0  0  0  0
 19  2  2  0  0  0  0
 19  5  1  0  0  0  0
 21 23  2  0  0  0  0
 22 11  1  0  0  0  0
 22  2  1  1  0  0  0
 23 18  1  0  0  0  0
 25 24  1  0  0  0  0
 27 26  1  0  0  0  0
 28 30  1  0  0  0  0
 29 28  2  0  0  0  0
 30 31  1  0  0  0  0
 30 32  2  0  0  0  0
M  END
>  <MODEL>
7

>  <REMARK>
 VINA RESULT:      -5.2      2.044      2.536
  Name = 
  4 active torsions:
  status: ('A' for Active; 'I' for Inactive)
    1  A    between atoms: C_1  and  N_10
    2  A    between atoms: C_2  and  N_24
    3  A    between atoms: C_13  and  C_15
    4  A    between atoms: O_25  and  C_26
                            x       y       z     vdW  Elec       q    Type
                         _______ _______ _______ _____ _____    ______ ____

>  <TORSDO>
F 4

$$$$
=
 OpenBabel11052417033D

 32 36  0  0  1  0  0  0  0  0999 V2000
  192.2150  174.6970  137.4330 C   0  0  0  0  0  0  0  0  0  0  0  0
  187.3490  174.5580  136.0680 C   0  0  0  0  0  0  0  0  0  0  0  0
  185.5230  172.8200  136.2520 C   0  0  2  0  0  3  0  0  0  0  0  0
  184.1170  172.4490  135.8860 C   0  0  0  0  0  0  0  0  0  0  0  0
  189.7070  174.0520  136.3550 C   0  0  0  0  0  0  0  0  0  0  0  0
  188.7650  176.0450  137.3760 C   0  0  0  0  0  3  0  0  0  0  0  0
  181.4710  171.7310  135.3080 C   0  0  0  0  0  3  0  0  0  0  0  0
  191.1120  175.5310  137.6760 C   0  0  0  0  0  3  0  0  0  0  0  0
  187.5060  175.7340  136.8440 C   0  0  0  0  0  0  0  0  0  0  0  0
  186.3770  176.7190  137.0510 C   0  0  2  0  0  3  0  0  0  0  0  0
  184.9580  175.2530  135.5700 C   0  0  2  0  0  3  0  0  0  0  0  0
  182.3800  170.7620  135.7410 C   0  0  0  0  0  3  0  0  0  0  0  0
  192.0550  173.5460  136.6520 C   0  0  0  0  0  3  0  0  0  0  0  0
  189.8610  175.2130  137.1420 C   0  0  0  0  0  0  0  0  0  0  0  0
  183.6990  171.1220  136.0330 C   0  0  0  0  0  3  0  0  0  0  0  0
  190.8050  173.2240  136.1150 C   0  0  0  0  0  3  0  0  0  0  0  0
  184.9910  176.1050  136.8420 C   0  0  1  0  0  3  0  0  0  0  0  0
  183.6090  174.7810  135.2730 N   0  0  0  0  0  2  0  0  0  0  0  0
  188.4550  173.7310  135.8300 C   0  0  0  0  0  3  0  0  0  0  0  0
  185.6490  172.8950  137.6410 O   0  0  0  0  0  1  0  0  0  0  0  0
  181.8800  173.0590  135.1640 C   0  0  0  0  0  3  0  0  0  0  0  0
  185.9990  174.1150  135.5610 C   0  0  1  0  0  3  0  0  0  0  0  0
  183.1980  173.4240  135.4570 C   0  0  0  0  0  0  0  0  0  0  0  0
  187.0700  179.0030  136.8420 O   0  0  0  0  0  1  0  0  0  0  0  0
  186.5340  177.9260  136.1350 C   0  0  0  0  0  2  0  0  0  0  0  0
  183.4300  175.9850  138.4090 C   0  0  0  0  0  1  0  0  0  0  0  0
  184.6050  175.3730  137.9680 O   0  0  0  0  0  0  0  0  0  0  0  0
  194.4150  174.1170  138.0630 N   0  0  0  0  0  0  0  0  0  0  0  0
  193.5050  175.0010  137.9690 N   0  0  0  0  0  0  0  0  0  0  0  0
  195.6990  174.4340  138.6000 C   0  0  0  0  0  0  0  0  0  0  0  0
  196.9190  173.8630  137.9730 C   0  0  0  0  0  1  0  0  0  0  0  0
  195.8090  175.1930  139.6000 O   0  0  0  0  0  0  0  0  0  0  0  0
  1  8  1  0  0  0  0
  1 29  1  0  0  0  0
  2  9  1  0  0  0  0
  3 20  1  1  0  0  0
  4 15  1  0  0  0  0
  4  3  1  0  0  0  0
  5 14  1  0  0  0  0
  7 12  1  0  0  0  0
  9 10  1  0  0  0  0
  9  6  2  0  0  0  0
 10 25  1  6  0  0  0
 11 18  1  1  0  0  0
 11 17  1  0  0  0  0
 12 15  2  0  0  0  0
 13  1  2  0  0  0  0
 14  6  1  0  0  0  0
 14  8  2  0  0  0  0
 16  5  2  0  0  0  0
 16 13  1  0  0  0  0
 17 10  1  0  0  0  0
 17 27  1  1  0  0  0
 18 23  1  0  0  0  0
 19  2  2  0  0  0  0
 19  5  1  0  0  0  0
 21  7  2  0  0  0  0
 21 23  1  0  0  0  0
 22 11  1  0  0  0  0
 22  2  1  1  0  0  0
 22  3  1  0  0  0  0
 23  4  2  0  0  0  0
 25 24  1  0  0  0  0
 27 26  1  0  0  0  0
 28 30  1  0  0  0  0
 29 28  2  0  0  0  0
 30 32  2  0  0  0  0
 31 30  1  0  0  0  0
M  END
>  <MODEL>
8

>  <REMARK>
 VINA RESULT:      -5.1      6.478      7.962
  Name = 
  4 active torsions:
  status: ('A' for Active; 'I' for Inactive)
    1  A    between atoms: C_1  and  N_10
    2  A    between atoms: C_2  and  N_24
    3  A    between atoms: C_13  and  C_15
    4  A    between atoms: O_25  and  C_26
                            x       y       z     vdW  Elec       q    Type
                         _______ _______ _______ _____ _____    ______ ____

>  <TORSDO>
F 4

$$$$
=
 OpenBabel11052417033D

 32 36  0  0  1  0  0  0  0  0999 V2000
  190.1460  176.4140  136.3420 C   0  0  0  0  0  0  0  0  0  0  0  0
  185.1050  176.7880  136.2220 C   0  0  0  0  0  0  0  0  0  0  0  0
  183.2390  175.1830  135.6470 C   0  0  2  0  0  3  0  0  0  0  0  0
  181.7650  175.0160  135.4280 C   0  0  0  0  0  0  0  0  0  0  0  0
  187.4300  176.3950  135.6400 C   0  0  0  0  0  0  0  0  0  0  0  0
  186.8620  177.2340  137.8470 C   0  0  0  0  0  3  0  0  0  0  0  0
  179.0130  174.6170  135.0830 C   0  0  0  0  0  3  0  0  0  0  0  0
  189.1780  176.8270  137.2730 C   0  0  0  0  0  3  0  0  0  0  0  0
  185.5020  177.2290  137.5090 C   0  0  0  0  0  0  0  0  0  0  0  0
  184.5120  177.7800  138.5120 C   0  0  2  0  0  3  0  0  0  0  0  0
  182.7180  177.4570  136.7700 C   0  0  2  0  0  3  0  0  0  0  0  0
  179.9220  173.6630  134.6180 C   0  0  0  0  0  3  0  0  0  0  0  0
  189.7480  175.9950  135.0680 C   0  0  0  0  0  3  0  0  0  0  0  0
  187.8240  176.8170  136.9270 C   0  0  0  0  0  0  0  0  0  0  0  0
  181.2940  173.8610  134.7940 C   0  0  0  0  0  3  0  0  0  0  0  0
  188.3940  175.9850  134.7170 C   0  0  0  0  0  3  0  0  0  0  0  0
  183.0730  177.3270  138.2540 C   0  0  1  0  0  3  0  0  0  0  0  0
  181.3070  177.1730  136.5270 N   0  0  0  0  0  2  0  0  0  0  0  0
  186.0770  176.3780  135.3000 C   0  0  0  0  0  3  0  0  0  0  0  0
  183.6550  174.3830  136.7150 O   0  0  0  0  0  1  0  0  0  0  0  0
  179.4760  175.7700  135.7220 C   0  0  0  0  0  3  0  0  0  0  0  0
  183.6520  176.6570  135.8390 C   0  0  1  0  0  3  0  0  0  0  0  0
  180.8480  175.9710  135.9020 C   0  0  0  0  0  0  0  0  0  0  0  0
  184.7480  179.7520  139.8520 O   0  0  0  0  0  1  0  0  0  0  0  0
  184.5600  179.3020  138.5440 C   0  0  0  0  0  2  0  0  0  0  0  0
  182.0730  176.1690  139.8550 C   0  0  0  0  0  1  0  0  0  0  0  0
  182.8770  176.0250  138.7240 O   0  0  0  0  0  0  0  0  0  0  0  0
  191.9530  176.0350  137.8130 N   0  0  0  0  0  0  0  0  0  0  0  0
  191.5370  176.4140  136.6720 N   0  0  0  0  0  0  0  0  0  0  0  0
  193.3450  176.0410  138.1300 C   0  0  0  0  0  0  0  0  0  0  0  0
  194.2830  175.2080  137.3330 C   0  0  0  0  0  1  0  0  0  0  0  0
  193.7870  176.7440  139.0770 O   0  0  0  0  0  0  0  0  0  0  0  0
  1 29  1  0  0  0  0
  1  8  1  0  0  0  0
  2  9  1  0  0  0  0
  3 22  1  0  0  0  0
  3 20  1  1  0  0  0
  4  3  1  0  0  0  0
  4 23  1  0  0  0  0
  5 14  1  0  0  0  0
  7 21  1  0  0  0  0
  9  6  2  0  0  0  0
  9 10  1  0  0  0  0
 10 25  1  6  0  0  0
 11 18  1  1  0  0  0
 11 17  1  0  0  0  0
 12 15  1  0  0  0  0
 12  7  2  0  0  0  0
 13  1  2  0  0  0  0
 14  8  2  0  0  0  0
 14  6  1  0  0  0  0
 15  4  2  0  0  0  0
 16 13  1  0  0  0  0
 16  5  2  0  0  0  0
 17 10  1  0  0  0  0
 17 27  1  6  0  0  0
 19  5  1  0  0  0  0
 19  2  2  0  0  0  0
 21 23  2  0  0  0  0
 22  2  1  1  0  0  0
 22 11  1  0  0  0  0
 23 18  1  0  0  0  0
 25 24  1  0  0  0  0
 27 26  1  0  0  0  0
 28 30  1  0  0  0  0
 29 28  2  0  0  0  0
 30 32  2  0  0  0  0
 31 30  1  0  0  0  0
M  END
>  <MODEL>
9

>  <REMARK>
 VINA RESULT:      -4.7      4.934      6.274
  Name = 
  4 active torsions:
  status: ('A' for Active; 'I' for Inactive)
    1  A    between atoms: C_1  and  N_10
    2  A    between atoms: C_2  and  N_24
    3  A    between atoms: C_13  and  C_15
    4  A    between atoms: O_25  and  C_26
                            x       y       z     vdW  Elec       q    Type
                         _______ _______ _______ _____ _____    ______ ____

>  <TORSDO>
F 4

$$$$
