=
 OpenBabel11052415583D

 34 39  0  0  0  0  0  0  0  0999 V2000
  183.4150  178.4050  141.1190 C   0  0  0  0  0  0  0  0  0  0  0  0
  183.0780  177.8350  137.4720 C   0  0  0  0  0  3  0  0  0  0  0  0
  181.5910  178.6880  139.0000 N   0  0  0  0  0  0  0  0  0  0  0  0
  183.6090  178.7020  143.5610 C   0  0  0  0  0  0  0  0  0  0  0  0
  184.1960  178.3840  142.2980 C   0  0  0  0  0  3  0  0  0  0  0  0
  181.5070  179.0820  142.4490 C   0  0  0  0  0  0  0  0  0  0  0  0
  180.1570  179.4860  142.1900 N   0  0  0  0  0  2  0  0  0  0  0  0
  182.2410  179.0740  143.6350 C   0  0  0  0  0  3  0  0  0  0  0  0
  181.2370  178.9300  140.2840 C   0  0  0  0  0  0  0  0  0  0  0  0
  182.1010  178.7510  141.2840 C   0  0  0  0  0  0  0  0  0  0  0  0
  180.0260  179.3730  140.8080 O   0  0  0  0  0  0  0  0  0  0  0  0
  184.2550  177.0480  137.0040 C   0  0  0  0  0  2  0  0  0  0  0  0
  185.5380  177.7840  137.1450 C   0  0  0  0  0  0  0  0  0  0  0  0
  185.9680  178.1760  138.3420 C   0  0  0  0  0  3  0  0  0  0  0  0
  182.8720  178.2670  138.7210 C   0  0  0  0  0  0  0  0  0  0  0  0
  185.1980  178.1500  139.5980 C   0  0  0  0  0  3  0  0  0  0  0  0
  183.8650  178.2020  139.7860 C   0  0  0  0  0  0  0  0  0  0  0  0
  187.7760  177.2150  144.2070 C   0  0  0  0  0  3  0  0  0  0  0  0
  186.2710  178.3690  146.2220 N   0  0  0  0  0  0  0  0  0  0  0  0
  190.1530  177.0950  147.0450 C   0  0  0  0  0  0  0  0  0  0  0  0
  189.6190  176.9380  145.7580 C   0  0  0  0  0  3  0  0  0  0  0  0
  188.3180  177.3660  145.4810 C   0  0  0  0  0  0  0  0  0  0  0  0
  184.3740  178.6910  144.7760 N   0  0  0  0  0  2  0  0  0  0  0  0
  188.0670  178.1120  147.7790 C   0  0  0  0  0  3  0  0  0  0  0  0
  187.5360  177.9550  146.4960 C   0  0  0  0  0  0  0  0  0  0  0  0
  189.3700  177.6840  148.0510 C   0  0  0  0  0  3  0  0  0  0  0  0
  185.7200  178.2350  144.9840 C   0  0  0  0  0  0  0  0  0  0  0  0
  186.4730  177.6490  143.9560 C   0  0  0  0  0  3  0  0  0  0  0  0
  191.5240  176.6450  147.3340 C   0  0  0  0  0  0  0  0  0  0  0  0
  192.1460  177.0940  148.3330 O   0  0  0  0  0  1  0  0  0  0  0  0
  192.1460  175.7180  146.5060 O   0  0  0  0  0  0  0  0  0  0  0  0
  186.4120  177.9230  135.9680 C   0  0  0  0  0  0  0  0  0  0  0  0
  185.9920  177.4530  134.7290 O   0  0  0  0  0  0  0  0  0  0  0  0
  187.5430  178.4720  136.0670 O   0  0  0  0  0  1  0  0  0  0  0  0
  1 10  2  0  0  0  0
  1  5  1  0  0  0  0
  2 15  2  0  0  0  0
  3  9  2  0  0  0  0
  4  8  1  0  0  0  0
  4 23  1  0  0  0  0
  5  4  2  0  0  0  0
  6  8  2  0  0  0  0
  7  6  1  0  0  0  0
  9 11  1  0  0  0  0
  9 10  1  0  0  0  0
 10  6  1  0  0  0  0
 11  7  1  0  0  0  0
 12 13  1  0  0  0  0
 12  2  1  0  0  0  0
 13 14  2  0  0  0  0
 14 16  1  0  0  0  0
 15  3  1  0  0  0  0
 15 17  1  0  0  0  0
 16 17  2  0  0  0  0
 17  1  1  0  0  0  0
 18 22  1  0  0  0  0
 19 25  1  0  0  0  0
 20 29  1  0  0  0  0
 20 26  1  0  0  0  0
 21 20  2  0  0  0  0
 22 21  1  0  0  0  0
 22 25  2  0  0  0  0
 23 27  1  0  0  0  0
 24 26  2  0  0  0  0
 25 24  1  0  0  0  0
 27 19  2  0  0  0  0
 28 18  2  0  0  0  0
 28 27  1  0  0  0  0
 29 30  1  0  0  0  0
 31 29  2  0  0  0  0
 32 34  1  0  0  0  0
 32 13  1  0  0  0  0
 33 32  2  0  0  0  0
M  END
>  <MODEL>
1

>  <REMARK>
 VINA RESULT:     -11.0      0.000      0.000
  Name = 
  3 active torsions:
  status: ('A' for Active; 'I' for Inactive)
    1  A    between atoms: C_3  and  C_25
    2  A    between atoms: C_7  and  C_11
    3  A    between atoms: C_8  and  N_18
                            x       y       z     vdW  Elec       q    Type
                         _______ _______ _______ _____ _____    ______ ____

>  <TORSDO>
F 3

$$$$
=
 OpenBabel11052415583D

 34 39  0  0  0  0  0  0  0  0999 V2000
  188.2340  177.7940  144.5720 C   0  0  0  0  0  0  0  0  0  0  0  0
  191.6690  177.1910  143.3170 C   0  0  0  0  0  3  0  0  0  0  0  0
  190.7580  176.8780  145.4020 N   0  0  0  0  0  0  0  0  0  0  0  0
  185.9720  178.2780  145.4290 C   0  0  0  0  0  0  0  0  0  0  0  0
  186.8920  178.1760  144.3410 C   0  0  0  0  0  3  0  0  0  0  0  0
  187.7230  177.5910  146.9310 C   0  0  0  0  0  0  0  0  0  0  0  0
  188.4130  177.1400  148.1040 N   0  0  0  0  0  2  0  0  0  0  0  0
  186.3930  177.9630  146.7480 C   0  0  0  0  0  3  0  0  0  0  0  0
  189.7410  177.0560  146.2760 C   0  0  0  0  0  0  0  0  0  0  0  0
  188.5610  177.5320  145.8750 C   0  0  0  0  0  0  0  0  0  0  0  0
  189.6880  176.8140  147.6460 O   0  0  0  0  0  0  0  0  0  0  0  0
  191.7850  177.7780  141.9520 C   0  0  0  0  0  2  0  0  0  0  0  0
  190.9070  177.1100  140.9560 C   0  0  0  0  0  0  0  0  0  0  0  0
  189.5850  177.1090  141.1100 C   0  0  0  0  0  3  0  0  0  0  0  0
  190.5650  177.1760  144.0710 C   0  0  0  0  0  0  0  0  0  0  0  0
  188.8440  177.5380  142.3100 C   0  0  0  0  0  3  0  0  0  0  0  0
  189.2420  177.5620  143.5970 C   0  0  0  0  0  0  0  0  0  0  0  0
  183.6420  178.3700  141.6140 C   0  0  0  0  0  3  0  0  0  0  0  0
  182.5300  179.0280  144.0620 N   0  0  0  0  0  0  0  0  0  0  0  0
  180.1520  179.1420  140.6410 C   0  0  0  0  0  0  0  0  0  0  0  0
  181.5020  178.7730  140.5470 C   0  0  0  0  0  3  0  0  0  0  0  0
  182.2990  178.7340  141.6940 C   0  0  0  0  0  0  0  0  0  0  0  0
  184.6020  178.6630  145.2290 N   0  0  0  0  0  2  0  0  0  0  0  0
  180.4060  179.4350  143.0430 C   0  0  0  0  0  3  0  0  0  0  0  0
  181.7500  179.0670  142.9490 C   0  0  0  0  0  0  0  0  0  0  0  0
  179.6100  179.4710  141.8940 C   0  0  0  0  0  3  0  0  0  0  0  0
  183.8440  178.6730  144.0100 C   0  0  0  0  0  0  0  0  0  0  0  0
  184.4180  178.3400  142.7740 C   0  0  0  0  0  3  0  0  0  0  0  0
  179.3140  179.1810  139.4320 C   0  0  0  0  0  0  0  0  0  0  0  0
  178.9310  178.1110  138.8850 O   0  0  0  0  0  1  0  0  0  0  0  0
  178.9340  180.3990  138.8810 O   0  0  0  0  0  0  0  0  0  0  0  0
  191.5030  176.5980  139.7110 C   0  0  0  0  0  0  0  0  0  0  0  0
  192.7760  177.0030  139.3290 O   0  0  0  0  0  1  0  0  0  0  0  0
  190.8710  175.7860  138.9820 O   0  0  0  0  0  0  0  0  0  0  0  0
  1 10  1  0  0  0  0
  2 15  2  0  0  0  0
  3  9  2  0  0  0  0
  4  8  2  0  0  0  0
  5  1  2  0  0  0  0
  5  4  1  0  0  0  0
  6  7  1  0  0  0  0
  8  6  1  0  0  0  0
  9 11  1  0  0  0  0
 10  9  1  0  0  0  0
 10  6  2  0  0  0  0
 11  7  1  0  0  0  0
 12  2  1  0  0  0  0
 13 14  2  0  0  0  0
 13 12  1  0  0  0  0
 14 16  1  0  0  0  0
 15  3  1  0  0  0  0
 16 17  2  0  0  0  0
 17 15  1  0  0  0  0
 17  1  1  0  0  0  0
 18 22  1  0  0  0  0
 18 28  2  0  0  0  0
 20 26  1  0  0  0  0
 21 20  2  0  0  0  0
 21 22  1  0  0  0  0
 22 25  2  0  0  0  0
 23  4  1  0  0  0  0
 25 24  1  0  0  0  0
 25 19  1  0  0  0  0
 26 24  2  0  0  0  0
 27 19  2  0  0  0  0
 27 23  1  0  0  0  0
 28 27  1  0  0  0  0
 29 20  1  0  0  0  0
 30 29  1  0  0  0  0
 31 29  2  0  0  0  0
 32 13  1  0  0  0  0
 33 32  1  0  0  0  0
 34 32  2  0  0  0  0
M  END
>  <MODEL>
2

>  <REMARK>
 VINA RESULT:     -10.9      2.849      8.751
  Name = 
  3 active torsions:
  status: ('A' for Active; 'I' for Inactive)
    1  A    between atoms: C_3  and  C_25
    2  A    between atoms: C_7  and  C_11
    3  A    between atoms: C_8  and  N_18
                            x       y       z     vdW  Elec       q    Type
                         _______ _______ _______ _____ _____    ______ ____

>  <TORSDO>
F 3

$$$$
=
 OpenBabel11052415583D

 34 39  0  0  0  0  0  0  0  0999 V2000
  185.3680  178.6200  142.9080 C   0  0  0  0  0  0  0  0  0  0  0  0
  185.2250  178.8120  146.6070 C   0  0  0  0  0  3  0  0  0  0  0  0
  183.5450  178.7970  145.0400 N   0  0  0  0  0  0  0  0  0  0  0  0
  185.4670  178.5800  140.4430 C   0  0  0  0  0  0  0  0  0  0  0  0
  186.1130  178.4860  141.7140 C   0  0  0  0  0  3  0  0  0  0  0  0
  183.3660  178.9030  141.5740 C   0  0  0  0  0  0  0  0  0  0  0  0
  181.9610  179.0220  141.8300 N   0  0  0  0  0  2  0  0  0  0  0  0
  184.0620  178.7760  140.3730 C   0  0  0  0  0  3  0  0  0  0  0  0
  183.1440  178.8740  143.7500 C   0  0  0  0  0  0  0  0  0  0  0  0
  184.0250  178.8300  142.7490 C   0  0  0  0  0  0  0  0  0  0  0  0
  181.8630  179.0020  143.2190 O   0  0  0  0  0  0  0  0  0  0  0  0
  186.6070  179.0190  147.1250 C   0  0  0  0  0  2  0  0  0  0  0  0
  187.5080  177.8690  146.8510 C   0  0  0  0  0  0  0  0  0  0  0  0
  187.7690  177.4950  145.6000 C   0  0  0  0  0  3  0  0  0  0  0  0
  184.8860  178.6530  145.3230 C   0  0  0  0  0  0  0  0  0  0  0  0
  187.0880  177.9740  144.3840 C   0  0  0  0  0  3  0  0  0  0  0  0
  185.8420  178.4640  144.2390 C   0  0  0  0  0  0  0  0  0  0  0  0
  189.6080  177.0150  139.8170 C   0  0  0  0  0  3  0  0  0  0  0  0
  187.9910  177.8440  137.7300 N   0  0  0  0  0  0  0  0  0  0  0  0
  191.8040  176.3780  136.9030 C   0  0  0  0  0  0  0  0  0  0  0  0
  191.3490  176.4490  138.2270 C   0  0  0  0  0  3  0  0  0  0  0  0
  190.0710  176.9390  138.5050 C   0  0  0  0  0  0  0  0  0  0  0  0
  186.1940  178.4480  139.2120 N   0  0  0  0  0  2  0  0  0  0  0  0
  189.6850  177.2970  136.1340 C   0  0  0  0  0  3  0  0  0  0  0  0
  189.2330  177.3670  137.4550 C   0  0  0  0  0  0  0  0  0  0  0  0
  190.9650  176.8040  135.8600 C   0  0  0  0  0  3  0  0  0  0  0  0
  187.5150  177.9260  139.0030 C   0  0  0  0  0  0  0  0  0  0  0  0
  188.3270  177.5110  140.0690 C   0  0  0  0  0  3  0  0  0  0  0  0
  193.1500  175.8590  136.6130 C   0  0  0  0  0  0  0  0  0  0  0  0
  193.3140  174.6500  136.2960 O   0  0  0  0  0  0  0  0  0  0  0  0
  194.2550  176.6990  136.6840 O   0  0  0  0  0  1  0  0  0  0  0  0
  188.2430  177.2570  147.9700 C   0  0  0  0  0  0  0  0  0  0  0  0
  189.2980  176.3870  147.7190 O   0  0  0  0  0  0  0  0  0  0  0  0
  187.9300  177.5160  149.1640 O   0  0  0  0  0  1  0  0  0  0  0  0
  1 17  1  0  0  0  0
  2 12  1  0  0  0  0
  3 15  1  0  0  0  0
  4  5  1  0  0  0  0
  5  1  2  0  0  0  0
  6  7  1  0  0  0  0
  6 10  2  0  0  0  0
  7 11  1  0  0  0  0
  8  4  2  0  0  0  0
  8  6  1  0  0  0  0
  9  3  2  0  0  0  0
 10  1  1  0  0  0  0
 10  9  1  0  0  0  0
 11  9  1  0  0  0  0
 13 12  1  0  0  0  0
 13 32  1  0  0  0  0
 14 13  2  0  0  0  0
 15  2  2  0  0  0  0
 16 14  1  0  0  0  0
 17 16  2  0  0  0  0
 17 15  1  0  0  0  0
 18 28  2  0  0  0  0
 19 27  2  0  0  0  0
 20 21  1  0  0  0  0
 21 22  2  0  0  0  0
 22 18  1  0  0  0  0
 23  4  1  0  0  0  0
 24 25  2  0  0  0  0
 25 19  1  0  0  0  0
 25 22  1  0  0  0  0
 26 24  1  0  0  0  0
 26 20  2  0  0  0  0
 27 23  1  0  0  0  0
 27 28  1  0  0  0  0
 29 31  1  0  0  0  0
 29 20  1  0  0  0  0
 30 29  2  0  0  0  0
 32 34  1  0  0  0  0
 33 32  2  0  0  0  0
M  END
>  <MODEL>
3

>  <REMARK>
 VINA RESULT:     -10.4      3.536      8.095
  Name = 
  3 active torsions:
  status: ('A' for Active; 'I' for Inactive)
    1  A    between atoms: C_3  and  C_25
    2  A    between atoms: C_7  and  C_11
    3  A    between atoms: C_8  and  N_18
                            x       y       z     vdW  Elec       q    Type
                         _______ _______ _______ _____ _____    ______ ____

>  <TORSDO>
F 3

$$$$
=
 OpenBabel11052415583D

 34 39  0  0  0  0  0  0  0  0999 V2000
  186.2680  178.3210  143.6500 C   0  0  0  0  0  0  0  0  0  0  0  0
  188.7610  177.7650  146.3360 C   0  0  0  0  0  3  0  0  0  0  0  0
  186.4920  178.1020  146.4430 N   0  0  0  0  0  0  0  0  0  0  0  0
  184.6230  178.7780  141.8690 C   0  0  0  0  0  0  0  0  0  0  0  0
  185.9430  178.4160  142.2770 C   0  0  0  0  0  3  0  0  0  0  0  0
  183.9800  178.9100  144.1860 C   0  0  0  0  0  0  0  0  0  0  0  0
  183.1880  179.0030  145.3770 N   0  0  0  0  0  2  0  0  0  0  0  0
  183.6170  179.0140  142.8440 C   0  0  0  0  0  3  0  0  0  0  0  0
  185.3280  178.4460  145.8450 C   0  0  0  0  0  0  0  0  0  0  0  0
  185.2460  178.5870  144.5220 C   0  0  0  0  0  0  0  0  0  0  0  0
  184.0790  178.7050  146.4050 O   0  0  0  0  0  0  0  0  0  0  0  0
  190.1260  177.8350  145.7380 C   0  0  0  0  0  2  0  0  0  0  0  0
  190.3870  176.7460  144.7620 C   0  0  0  0  0  0  0  0  0  0  0  0
  189.6460  176.6270  143.6630 C   0  0  0  0  0  3  0  0  0  0  0  0
  187.6080  177.8760  145.6680 C   0  0  0  0  0  0  0  0  0  0  0  0
  188.3990  177.3550  143.3670 C   0  0  0  0  0  3  0  0  0  0  0  0
  187.4990  177.8900  144.2150 C   0  0  0  0  0  0  0  0  0  0  0  0
  182.2000  175.9350  139.4120 C   0  0  0  0  0  3  0  0  0  0  0  0
  183.1990  178.3100  138.4010 N   0  0  0  0  0  0  0  0  0  0  0  0
  180.9270  175.8340  135.9350 C   0  0  0  0  0  0  0  0  0  0  0  0
  181.1800  175.4630  137.2630 C   0  0  0  0  0  3  0  0  0  0  0  0
  181.9410  176.2930  138.0910 C   0  0  0  0  0  0  0  0  0  0  0  0
  184.2600  178.8820  140.4840 N   0  0  0  0  0  2  0  0  0  0  0  0
  182.2070  177.8770  136.2690 C   0  0  0  0  0  3  0  0  0  0  0  0
  182.4590  177.5060  137.5930 C   0  0  0  0  0  0  0  0  0  0  0  0
  181.4440  177.0440  135.4440 C   0  0  0  0  0  3  0  0  0  0  0  0
  183.4640  177.9830  139.6960 C   0  0  0  0  0  0  0  0  0  0  0  0
  182.9640  176.7800  140.2180 C   0  0  0  0  0  3  0  0  0  0  0  0
  180.1240  174.9590  135.0660 C   0  0  0  0  0  0  0  0  0  0  0  0
  179.0150  175.3520  134.6140 O   0  0  0  0  0  0  0  0  0  0  0  0
  180.5820  173.6900  134.7340 O   0  0  0  0  0  1  0  0  0  0  0  0
  191.5840  175.9050  144.9360 C   0  0  0  0  0  0  0  0  0  0  0  0
  192.2030  175.8240  146.1780 O   0  0  0  0  0  1  0  0  0  0  0  0
  192.0560  175.2490  143.9690 O   0  0  0  0  0  0  0  0  0  0  0  0
  1 17  1  0  0  0  0
  1 10  1  0  0  0  0
  4  5  1  0  0  0  0
  4  8  2  0  0  0  0
  5  1  2  0  0  0  0
  6 10  2  0  0  0  0
  6  7  1  0  0  0  0
  7 11  1  0  0  0  0
  8  6  1  0  0  0  0
  9 11  1  0  0  0  0
  9  3  2  0  0  0  0
 10  9  1  0  0  0  0
 12  2  1  0  0  0  0
 13 32  1  0  0  0  0
 13 12  1  0  0  0  0
 14 13  2  0  0  0  0
 15  2  2  0  0  0  0
 15  3  1  0  0  0  0
 16 14  1  0  0  0  0
 16 17  2  0  0  0  0
 17 15  1  0  0  0  0
 18 28  2  0  0  0  0
 19 27  2  0  0  0  0
 20 21  1  0  0  0  0
 21 22  2  0  0  0  0
 22 18  1  0  0  0  0
 23  4  1  0  0  0  0
 24 25  2  0  0  0  0
 25 22  1  0  0  0  0
 25 19  1  0  0  0  0
 26 20  2  0  0  0  0
 26 24  1  0  0  0  0
 27 28  1  0  0  0  0
 27 23  1  0  0  0  0
 29 20  1  0  0  0  0
 30 29  2  0  0  0  0
 31 29  1  0  0  0  0
 32 33  1  0  0  0  0
 34 32  2  0  0  0  0
M  END
>  <MODEL>
4

>  <REMARK>
 VINA RESULT:     -10.2      2.871      9.669
  Name = 
  3 active torsions:
  status: ('A' for Active; 'I' for Inactive)
    1  A    between atoms: C_3  and  C_25
    2  A    between atoms: C_7  and  C_11
    3  A    between atoms: C_8  and  N_18
                            x       y       z     vdW  Elec       q    Type
                         _______ _______ _______ _____ _____    ______ ____

>  <TORSDO>
F 3

$$$$
=
 OpenBabel11052415583D

 34 39  0  0  0  0  0  0  0  0999 V2000
  186.0140  177.9750  144.2010 C   0  0  0  0  0  0  0  0  0  0  0  0
  182.4440  178.7710  144.7980 C   0  0  0  0  0  3  0  0  0  0  0  0
  184.2680  178.9320  146.1840 N   0  0  0  0  0  0  0  0  0  0  0  0
  188.3750  177.3610  143.8310 C   0  0  0  0  0  0  0  0  0  0  0  0
  187.0500  177.5580  143.3330 C   0  0  0  0  0  3  0  0  0  0  0  0
  187.6150  178.0250  146.0170 C   0  0  0  0  0  0  0  0  0  0  0  0
  187.6090  178.4330  147.3910 N   0  0  0  0  0  2  0  0  0  0  0  0
  188.6660  177.6160  145.1970 C   0  0  0  0  0  3  0  0  0  0  0  0
  185.5690  178.6680  146.4450 C   0  0  0  0  0  0  0  0  0  0  0  0
  186.3760  178.1740  145.5050 C   0  0  0  0  0  0  0  0  0  0  0  0
  186.2940  178.8300  147.6230 O   0  0  0  0  0  0  0  0  0  0  0  0
  181.6450  178.2670  143.6440 C   0  0  0  0  0  2  0  0  0  0  0  0
  181.9680  178.9590  142.3690 C   0  0  0  0  0  0  0  0  0  0  0  0
  183.1960  178.9030  141.8590 C   0  0  0  0  0  3  0  0  0  0  0  0
  183.7730  178.7040  144.9190 C   0  0  0  0  0  0  0  0  0  0  0  0
  184.3990  178.3810  142.5310 C   0  0  0  0  0  3  0  0  0  0  0  0
  184.6750  178.2980  143.8480 C   0  0  0  0  0  0  0  0  0  0  0  0
  188.5210  177.3260  139.3620 C   0  0  0  0  0  3  0  0  0  0  0  0
  190.6620  176.5490  140.9350 N   0  0  0  0  0  0  0  0  0  0  0  0
  191.0430  176.4750  136.7850 C   0  0  0  0  0  0  0  0  0  0  0  0
  189.8400  176.8900  137.3740 C   0  0  0  0  0  3  0  0  0  0  0  0
  189.7120  176.9160  138.7650 C   0  0  0  0  0  0  0  0  0  0  0  0
  189.4500  176.9400  142.9770 N   0  0  0  0  0  2  0  0  0  0  0  0
  191.9900  176.1080  138.9970 C   0  0  0  0  0  3  0  0  0  0  0  0
  190.7910  176.5230  139.5820 C   0  0  0  0  0  0  0  0  0  0  0  0
  192.1150  176.0850  137.6040 C   0  0  0  0  0  3  0  0  0  0  0  0
  189.5100  176.9470  141.5420 C   0  0  0  0  0  0  0  0  0  0  0  0
  188.4180  177.3410  140.7540 C   0  0  0  0  0  3  0  0  0  0  0  0
  191.1760  176.4510  135.3200 C   0  0  0  0  0  0  0  0  0  0  0  0
  190.3670  177.0900  134.5940 O   0  0  0  0  0  0  0  0  0  0  0  0
  192.1970  175.7230  134.7210 O   0  0  0  0  0  1  0  0  0  0  0  0
  180.8750  179.5620  141.5890 C   0  0  0  0  0  0  0  0  0  0  0  0
  180.1290  180.6050  142.1250 O   0  0  0  0  0  1  0  0  0  0  0  0
  180.6060  179.1460  140.4290 O   0  0  0  0  0  0  0  0  0  0  0  0
  1 10  1  0  0  0  0
  2 15  2  0  0  0  0
  3  9  2  0  0  0  0
  4  8  2  0  0  0  0
  5  4  1  0  0  0  0
  5  1  2  0  0  0  0
  6  7  1  0  0  0  0
  7 11  1  0  0  0  0
  8  6  1  0  0  0  0
  9 11  1  0  0  0  0
 10  6  2  0  0  0  0
 10  9  1  0  0  0  0
 12  2  1  0  0  0  0
 13 12  1  0  0  0  0
 14 13  2  0  0  0  0
 14 16  1  0  0  0  0
 15  3  1  0  0  0  0
 16 17  2  0  0  0  0
 17  1  1  0  0  0  0
 17 15  1  0  0  0  0
 18 28  2  0  0  0  0
 19 27  2  0  0  0  0
 20 21  2  0  0  0  0
 20 26  1  0  0  0  0
 21 22  1  0  0  0  0
 22 18  1  0  0  0  0
 22 25  2  0  0  0  0
 23  4  1  0  0  0  0
 24 25  1  0  0  0  0
 25 19  1  0  0  0  0
 26 24  2  0  0  0  0
 27 23  1  0  0  0  0
 28 27  1  0  0  0  0
 29 20  1  0  0  0  0
 30 29  2  0  0  0  0
 31 29  1  0  0  0  0
 32 33  1  0  0  0  0
 32 13  1  0  0  0  0
 34 32  2  0  0  0  0
M  END
>  <MODEL>
5

>  <REMARK>
 VINA RESULT:     -10.0      3.407      7.785
  Name = 
  3 active torsions:
  status: ('A' for Active; 'I' for Inactive)
    1  A    between atoms: C_3  and  C_25
    2  A    between atoms: C_7  and  C_11
    3  A    between atoms: C_8  and  N_18
                            x       y       z     vdW  Elec       q    Type
                         _______ _______ _______ _____ _____    ______ ____

>  <TORSDO>
F 3

$$$$
=
 OpenBabel11052415583D

 34 39  0  0  0  0  0  0  0  0999 V2000
  185.3640  178.3300  142.9880 C   0  0  0  0  0  0  0  0  0  0  0  0
  181.7670  178.7300  142.1860 C   0  0  0  0  0  3  0  0  0  0  0  0
  182.8740  178.8220  144.1960 N   0  0  0  0  0  0  0  0  0  0  0  0
  187.7440  177.9770  143.5320 C   0  0  0  0  0  0  0  0  0  0  0  0
  186.7010  178.1400  142.5690 C   0  0  0  0  0  3  0  0  0  0  0  0
  186.1160  178.2290  145.2880 C   0  0  0  0  0  0  0  0  0  0  0  0
  185.5240  178.4160  146.5790 N   0  0  0  0  0  2  0  0  0  0  0  0
  187.4470  178.0400  144.9190 C   0  0  0  0  0  3  0  0  0  0  0  0
  183.9960  178.6280  144.9270 C   0  0  0  0  0  0  0  0  0  0  0  0
  185.1630  178.3540  144.3420 C   0  0  0  0  0  0  0  0  0  0  0  0
  184.1810  178.6630  146.3060 O   0  0  0  0  0  0  0  0  0  0  0  0
  181.5530  178.3480  140.7600 C   0  0  0  0  0  2  0  0  0  0  0  0
  182.2460  179.2530  139.8070 C   0  0  0  0  0  0  0  0  0  0  0  0
  183.5710  179.3780  139.8300 C   0  0  0  0  0  3  0  0  0  0  0  0
  182.9430  178.7540  142.8220 C   0  0  0  0  0  0  0  0  0  0  0  0
  184.4800  178.8570  140.8670 C   0  0  0  0  0  3  0  0  0  0  0  0
  184.2350  178.5940  142.1650 C   0  0  0  0  0  0  0  0  0  0  0  0
  189.3700  177.0950  139.4610 C   0  0  0  0  0  3  0  0  0  0  0  0
  190.9910  177.4240  141.6800 N   0  0  0  0  0  0  0  0  0  0  0  0
  192.7330  176.6500  137.9740 C   0  0  0  0  0  0  0  0  0  0  0  0
  191.3390  176.7420  138.0900 C   0  0  0  0  0  3  0  0  0  0  0  0
  190.7540  177.0020  139.3320 C   0  0  0  0  0  0  0  0  0  0  0  0
  189.1120  177.7830  143.1400 N   0  0  0  0  0  2  0  0  0  0  0  0
  192.9530  177.0790  140.3590 C   0  0  0  0  0  3  0  0  0  0  0  0
  191.5640  177.1710  140.4740 C   0  0  0  0  0  0  0  0  0  0  0  0
  193.5350  176.8210  139.1140 C   0  0  0  0  0  3  0  0  0  0  0  0
  189.6410  177.5210  141.8310 C   0  0  0  0  0  0  0  0  0  0  0  0
  188.8100  177.3540  140.7130 C   0  0  0  0  0  3  0  0  0  0  0  0
  193.3470  176.3780  136.6640 C   0  0  0  0  0  0  0  0  0  0  0  0
  192.6780  175.8310  135.7470 O   0  0  0  0  0  0  0  0  0  0  0  0
  194.6720  176.7220  136.4260 O   0  0  0  0  0  1  0  0  0  0  0  0
  181.4670  179.8790  138.7250 C   0  0  0  0  0  0  0  0  0  0  0  0
  181.3670  181.2630  138.6490 O   0  0  0  0  0  1  0  0  0  0  0  0
  180.8890  179.1710  137.8560 O   0  0  0  0  0  0  0  0  0  0  0  0
  1 10  1  0  0  0  0
  2 15  2  0  0  0  0
  3  9  2  0  0  0  0
  4  8  2  0  0  0  0
  5  1  2  0  0  0  0
  5  4  1  0  0  0  0
  6  7  1  0  0  0  0
  8  6  1  0  0  0  0
  9 11  1  0  0  0  0
 10  9  1  0  0  0  0
 10  6  2  0  0  0  0
 11  7  1  0  0  0  0
 12  2  1  0  0  0  0
 13 14  2  0  0  0  0
 13 12  1  0  0  0  0
 14 16  1  0  0  0  0
 15  3  1  0  0  0  0
 16 17  2  0  0  0  0
 17 15  1  0  0  0  0
 17  1  1  0  0  0  0
 18 28  2  0  0  0  0
 19 27  2  0  0  0  0
 20 21  2  0  0  0  0
 20 26  1  0  0  0  0
 21 22  1  0  0  0  0
 22 18  1  0  0  0  0
 22 25  2  0  0  0  0
 23  4  1  0  0  0  0
 24 25  1  0  0  0  0
 25 19  1  0  0  0  0
 26 24  2  0  0  0  0
 27 23  1  0  0  0  0
 28 27  1  0  0  0  0
 29 20  1  0  0  0  0
 30 29  2  0  0  0  0
 31 29  1  0  0  0  0
 32 13  1  0  0  0  0
 33 32  1  0  0  0  0
 34 32  2  0  0  0  0
M  END
>  <MODEL>
6

>  <REMARK>
 VINA RESULT:      -9.9      4.041      6.536
  Name = 
  3 active torsions:
  status: ('A' for Active; 'I' for Inactive)
    1  A    between atoms: C_3  and  C_25
    2  A    between atoms: C_7  and  C_11
    3  A    between atoms: C_8  and  N_18
                            x       y       z     vdW  Elec       q    Type
                         _______ _______ _______ _____ _____    ______ ____

>  <TORSDO>
F 3

$$$$
=
 OpenBabel11052415583D

 34 39  0  0  0  0  0  0  0  0999 V2000
  181.4300  179.8300  138.5750 C   0  0  0  0  0  0  0  0  0  0  0  0
  180.6920  181.4490  135.3230 C   0  0  0  0  0  3  0  0  0  0  0  0
  180.8250  179.2290  135.8970 N   0  0  0  0  0  0  0  0  0  0  0  0
  182.0060  178.7540  140.7190 C   0  0  0  0  0  0  0  0  0  0  0  0
  181.6970  179.9240  139.9600 C   0  0  0  0  0  3  0  0  0  0  0  0
  181.7460  177.4330  138.7220 C   0  0  0  0  0  0  0  0  0  0  0  0
  181.6000  176.3150  137.8390 N   0  0  0  0  0  2  0  0  0  0  0  0
  182.0150  177.4810  140.0890 C   0  0  0  0  0  3  0  0  0  0  0  0
  181.1560  178.2660  136.7870 C   0  0  0  0  0  0  0  0  0  0  0  0
  181.4820  178.5690  138.0450 C   0  0  0  0  0  0  0  0  0  0  0  0
  181.2290  176.8850  136.6230 O   0  0  0  0  0  0  0  0  0  0  0  0
  180.9590  182.9110  135.4490 C   0  0  0  0  0  2  0  0  0  0  0  0
  180.0490  183.5850  136.4110 C   0  0  0  0  0  0  0  0  0  0  0  0
  180.0310  183.2290  137.6930 C   0  0  0  0  0  3  0  0  0  0  0  0
  180.8050  180.5460  136.3020 C   0  0  0  0  0  0  0  0  0  0  0  0
  180.6910  182.0500  138.2820 C   0  0  0  0  0  3  0  0  0  0  0  0
  181.0220  180.8780  137.7050 C   0  0  0  0  0  0  0  0  0  0  0  0
  185.8590  177.9350  142.8330 C   0  0  0  0  0  3  0  0  0  0  0  0
  183.5680  178.7420  144.1590 N   0  0  0  0  0  0  0  0  0  0  0  0
  187.0610  178.0780  146.3340 C   0  0  0  0  0  0  0  0  0  0  0  0
  187.0520  177.8930  144.9450 C   0  0  0  0  0  3  0  0  0  0  0  0
  185.8810  178.1160  144.2140 C   0  0  0  0  0  0  0  0  0  0  0  0
  182.2810  178.8150  142.1270 N   0  0  0  0  0  2  0  0  0  0  0  0
  184.7120  178.7110  146.2580 C   0  0  0  0  0  3  0  0  0  0  0  0
  184.7040  178.5260  144.8730 C   0  0  0  0  0  0  0  0  0  0  0  0
  185.8860  178.4880  146.9850 C   0  0  0  0  0  3  0  0  0  0  0  0
  183.5220  178.5740  142.8090 C   0  0  0  0  0  0  0  0  0  0  0  0
  184.6770  178.1630  142.1270 C   0  0  0  0  0  3  0  0  0  0  0  0
  188.2950  177.8440  147.1010 C   0  0  0  0  0  0  0  0  0  0  0  0
  189.3050  177.3330  146.5460 O   0  0  0  0  0  0  0  0  0  0  0  0
  188.3600  178.1860  148.4460 O   0  0  0  0  0  1  0  0  0  0  0  0
  179.2920  184.7670  135.9660 C   0  0  0  0  0  0  0  0  0  0  0  0
  178.9590  184.9170  134.6250 O   0  0  0  0  0  0  0  0  0  0  0  0
  178.9330  185.6500  136.7920 O   0  0  0  0  0  1  0  0  0  0  0  0
  1  5  1  0  0  0  0
  2 12  1  0  0  0  0
  2 15  2  0  0  0  0
  3 15  1  0  0  0  0
  3  9  2  0  0  0  0
  4 23  1  0  0  0  0
  5  4  2  0  0  0  0
  6  8  2  0  0  0  0
  7  6  1  0  0  0  0
  8  4  1  0  0  0  0
  9 10  1  0  0  0  0
 10  1  2  0  0  0  0
 10  6  1  0  0  0  0
 11  9  1  0  0  0  0
 11  7  1  0  0  0  0
 12 13  1  0  0  0  0
 13 14  2  0  0  0  0
 14 16  1  0  0  0  0
 15 17  1  0  0  0  0
 17 16  2  0  0  0  0
 17  1  1  0  0  0  0
 18 22  1  0  0  0  0
 19 25  1  0  0  0  0
 20 26  1  0  0  0  0
 20 29  1  0  0  0  0
 21 20  2  0  0  0  0
 22 25  2  0  0  0  0
 22 21  1  0  0  0  0
 23 27  1  0  0  0  0
 24 26  2  0  0  0  0
 25 24  1  0  0  0  0
 27 19  2  0  0  0  0
 28 27  1  0  0  0  0
 28 18  2  0  0  0  0
 29 31  1  0  0  0  0
 30 29  2  0  0  0  0
 32 13  1  0  0  0  0
 32 34  1  0  0  0  0
 33 32  2  0  0  0  0
M  END
>  <MODEL>
7

>  <REMARK>
 VINA RESULT:      -9.7      3.633      5.191
  Name = 
  3 active torsions:
  status: ('A' for Active; 'I' for Inactive)
    1  A    between atoms: C_3  and  C_25
    2  A    between atoms: C_7  and  C_11
    3  A    between atoms: C_8  and  N_18
                            x       y       z     vdW  Elec       q    Type
                         _______ _______ _______ _____ _____    ______ ____

>  <TORSDO>
F 3

$$$$
=
 OpenBabel11052415583D

 34 39  0  0  0  0  0  0  0  0999 V2000
  187.0580  178.1170  144.6720 C   0  0  0  0  0  0  0  0  0  0  0  0
  189.0820  177.7290  147.7530 C   0  0  0  0  0  3  0  0  0  0  0  0
  186.8260  178.0560  147.4720 N   0  0  0  0  0  0  0  0  0  0  0  0
  185.7250  178.4620  142.6250 C   0  0  0  0  0  0  0  0  0  0  0  0
  186.9610  178.1320  143.2610 C   0  0  0  0  0  3  0  0  0  0  0  0
  184.7150  178.7190  144.7960 C   0  0  0  0  0  0  0  0  0  0  0  0
  183.7400  178.8730  145.8350 N   0  0  0  0  0  2  0  0  0  0  0  0
  184.5750  178.7450  143.4090 C   0  0  0  0  0  3  0  0  0  0  0  0
  185.7750  178.3580  146.6750 C   0  0  0  0  0  0  0  0  0  0  0  0
  185.9090  178.4240  145.3490 C   0  0  0  0  0  0  0  0  0  0  0  0
  184.4530  178.6390  147.0090 O   0  0  0  0  0  0  0  0  0  0  0  0
  190.5250  177.7750  147.3820 C   0  0  0  0  0  2  0  0  0  0  0  0
  190.9400  176.6350  146.5230 C   0  0  0  0  0  0  0  0  0  0  0  0
  190.3860  176.4490  145.3280 C   0  0  0  0  0  3  0  0  0  0  0  0
  188.0520  177.7940  146.9020 C   0  0  0  0  0  0  0  0  0  0  0  0
  189.2050  177.1510  144.7920 C   0  0  0  0  0  3  0  0  0  0  0  0
  188.1810  177.7260  145.4520 C   0  0  0  0  0  0  0  0  0  0  0  0
  182.2650  177.1140  140.1350 C   0  0  0  0  0  3  0  0  0  0  0  0
  184.5460  178.2370  139.0420 N   0  0  0  0  0  0  0  0  0  0  0  0
  181.4250  177.0940  136.5270 C   0  0  0  0  0  0  0  0  0  0  0  0
  181.3160  176.9090  137.9130 C   0  0  0  0  0  3  0  0  0  0  0  0
  182.3610  177.2930  138.7570 C   0  0  0  0  0  0  0  0  0  0  0  0
  185.5920  178.4860  141.1950 N   0  0  0  0  0  2  0  0  0  0  0  0
  183.6420  178.0500  136.8370 C   0  0  0  0  0  3  0  0  0  0  0  0
  183.5310  177.8660  138.2180 C   0  0  0  0  0  0  0  0  0  0  0  0
  182.5930  177.6660  135.9960 C   0  0  0  0  0  3  0  0  0  0  0  0
  184.4750  178.0750  140.3920 C   0  0  0  0  0  0  0  0  0  0  0  0
  183.3240  177.5040  140.9570 C   0  0  0  0  0  3  0  0  0  0  0  0
  180.3220  176.6900  135.6410 C   0  0  0  0  0  0  0  0  0  0  0  0
  180.4940  175.7900  134.7760 O   0  0  0  0  0  0  0  0  0  0  0  0
  179.0770  177.2990  135.7500 O   0  0  0  0  0  1  0  0  0  0  0  0
  192.0900  175.8130  146.9360 C   0  0  0  0  0  0  0  0  0  0  0  0
  192.7430  176.0810  148.1340 O   0  0  0  0  0  1  0  0  0  0  0  0
  192.4910  174.8600  146.2160 O   0  0  0  0  0  0  0  0  0  0  0  0
  1 10  1  0  0  0  0
  1 17  1  0  0  0  0
  4  5  1  0  0  0  0
  4  8  2  0  0  0  0
  5  1  2  0  0  0  0
  6 10  2  0  0  0  0
  6  7  1  0  0  0  0
  7 11  1  0  0  0  0
  8  6  1  0  0  0  0
  9 11  1  0  0  0  0
  9  3  2  0  0  0  0
 10  9  1  0  0  0  0
 12  2  1  0  0  0  0
 13 32  1  0  0  0  0
 13 12  1  0  0  0  0
 14 13  2  0  0  0  0
 15  3  1  0  0  0  0
 15  2  2  0  0  0  0
 16 14  1  0  0  0  0
 16 17  2  0  0  0  0
 17 15  1  0  0  0  0
 18 28  2  0  0  0  0
 19 27  2  0  0  0  0
 20 21  1  0  0  0  0
 21 22  2  0  0  0  0
 22 18  1  0  0  0  0
 23  4  1  0  0  0  0
 24 25  2  0  0  0  0
 25 22  1  0  0  0  0
 25 19  1  0  0  0  0
 26 20  2  0  0  0  0
 26 24  1  0  0  0  0
 27 28  1  0  0  0  0
 27 23  1  0  0  0  0
 29 31  1  0  0  0  0
 29 20  1  0  0  0  0
 30 29  2  0  0  0  0
 32 33  1  0  0  0  0
 34 32  2  0  0  0  0
M  END
>  <MODEL>
8

>  <REMARK>
 VINA RESULT:      -9.6      2.534      9.963
  Name = 
  3 active torsions:
  status: ('A' for Active; 'I' for Inactive)
    1  A    between atoms: C_3  and  C_25
    2  A    between atoms: C_7  and  C_11
    3  A    between atoms: C_8  and  N_18
                            x       y       z     vdW  Elec       q    Type
                         _______ _______ _______ _____ _____    ______ ____

>  <TORSDO>
F 3

$$$$
=
 OpenBabel11052415583D

 34 39  0  0  0  0  0  0  0  0999 V2000
  182.7930  178.4780  140.9460 C   0  0  0  0  0  0  0  0  0  0  0  0
  179.5740  178.5330  139.1090 C   0  0  0  0  0  3  0  0  0  0  0  0
  180.0530  178.9850  141.3100 N   0  0  0  0  0  0  0  0  0  0  0  0
  184.9210  178.3560  142.1870 C   0  0  0  0  0  0  0  0  0  0  0  0
  184.1970  178.3120  140.9570 C   0  0  0  0  0  3  0  0  0  0  0  0
  182.8520  178.7590  143.3510 C   0  0  0  0  0  0  0  0  0  0  0  0
  181.9100  179.0960  144.3760 N   0  0  0  0  0  2  0  0  0  0  0  0
  184.2360  178.6010  143.4070 C   0  0  0  0  0  3  0  0  0  0  0  0
  180.9190  178.9690  142.3480 C   0  0  0  0  0  0  0  0  0  0  0  0
  182.2100  178.6860  142.1670 C   0  0  0  0  0  0  0  0  0  0  0  0
  180.6980  179.2170  143.7000 O   0  0  0  0  0  0  0  0  0  0  0  0
  179.7870  177.9350  137.7600 C   0  0  0  0  0  2  0  0  0  0  0  0
  180.7090  178.7330  136.9110 C   0  0  0  0  0  0  0  0  0  0  0  0
  181.9680  178.9420  137.2870 C   0  0  0  0  0  3  0  0  0  0  0  0
  180.5160  178.7220  140.0390 C   0  0  0  0  0  0  0  0  0  0  0  0
  182.5490  178.6350  138.6060 C   0  0  0  0  0  3  0  0  0  0  0  0
  181.9450  178.5490  139.8080 C   0  0  0  0  0  0  0  0  0  0  0  0
  187.4910  177.3730  145.7110 C   0  0  0  0  0  3  0  0  0  0  0  0
  188.5130  177.6980  143.1600 N   0  0  0  0  0  0  0  0  0  0  0  0
  191.0950  176.7390  146.2870 C   0  0  0  0  0  0  0  0  0  0  0  0
  189.7230  176.8940  146.5300 C   0  0  0  0  0  3  0  0  0  0  0  0
  188.8570  177.2150  145.4820 C   0  0  0  0  0  0  0  0  0  0  0  0
  186.3470  178.1920  142.2330 N   0  0  0  0  0  2  0  0  0  0  0  0
  190.7260  177.2320  143.9330 C   0  0  0  0  0  3  0  0  0  0  0  0
  189.3590  177.3860  144.1760 C   0  0  0  0  0  0  0  0  0  0  0  0
  191.5900  176.9090  144.9840 C   0  0  0  0  0  3  0  0  0  0  0  0
  187.1750  177.8550  143.3580 C   0  0  0  0  0  0  0  0  0  0  0  0
  186.6470  177.6950  144.6480 C   0  0  0  0  0  3  0  0  0  0  0  0
  192.0060  176.3990  147.3930 C   0  0  0  0  0  0  0  0  0  0  0  0
  192.0980  177.1530  148.3980 O   0  0  0  0  0  1  0  0  0  0  0  0
  192.7720  175.2410  147.3380 O   0  0  0  0  0  0  0  0  0  0  0  0
  180.2640  179.1450  135.5690 C   0  0  0  0  0  0  0  0  0  0  0  0
  181.1170  179.8690  134.7440 O   0  0  0  0  0  0  0  0  0  0  0  0
  179.1130  178.8440  135.1510 O   0  0  0  0  0  1  0  0  0  0  0  0
  1  5  2  0  0  0  0
  1 10  1  0  0  0  0
  2 15  2  0  0  0  0
  3  9  2  0  0  0  0
  4 23  1  0  0  0  0
  4  8  2  0  0  0  0
  5  4  1  0  0  0  0
  6  8  1  0  0  0  0
  6  7  1  0  0  0  0
  9 11  1  0  0  0  0
 10  9  1  0  0  0  0
 10  6  2  0  0  0  0
 11  7  1  0  0  0  0
 12  2  1  0  0  0  0
 13 14  2  0  0  0  0
 13 12  1  0  0  0  0
 14 16  1  0  0  0  0
 15  3  1  0  0  0  0
 16 17  2  0  0  0  0
 17 15  1  0  0  0  0
 17  1  1  0  0  0  0
 19 27  2  0  0  0  0
 19 25  1  0  0  0  0
 20 21  1  0  0  0  0
 20 29  1  0  0  0  0
 22 18  1  0  0  0  0
 22 21  2  0  0  0  0
 23 27  1  0  0  0  0
 24 25  2  0  0  0  0
 24 26  1  0  0  0  0
 25 22  1  0  0  0  0
 26 20  2  0  0  0  0
 27 28  1  0  0  0  0
 28 18  2  0  0  0  0
 29 30  1  0  0  0  0
 31 29  2  0  0  0  0
 32 13  1  0  0  0  0
 33 32  2  0  0  0  0
 34 32  1  0  0  0  0
M  END
>  <MODEL>
9

>  <REMARK>
 VINA RESULT:      -9.6      2.374      3.281
  Name = 
  3 active torsions:
  status: ('A' for Active; 'I' for Inactive)
    1  A    between atoms: C_3  and  C_25
    2  A    between atoms: C_7  and  C_11
    3  A    between atoms: C_8  and  N_18
                            x       y       z     vdW  Elec       q    Type
                         _______ _______ _______ _____ _____    ______ ____

>  <TORSDO>
F 3

$$$$
