=
 OpenBabel11052413503D

 27 30  0  0  1  0  0  0  0  0999 V2000
  189.4520  178.5050  140.7600 C   0  0  0  0  0  2  0  0  0  0  0  0
  187.1180  178.3840  141.6420 C   0  0  0  0  0  0  0  0  0  0  0  0
  188.2030  176.6190  142.9930 N   0  0  0  0  0  0  0  0  0  0  0  0
  186.1140  179.2860  141.4710 N   0  0  0  0  0  0  0  0  0  0  0  0
  191.0250  175.9320  144.3250 C   0  0  0  0  0  2  0  0  0  0  0  0
  191.7680  177.2730  144.3220 C   0  0  0  0  0  2  0  0  0  0  0  0
  186.2170  177.8400  143.8380 C   0  0  0  0  0  0  0  0  0  0  0  0
  188.0450  178.1530  140.5710 N   0  0  0  0  0  0  0  0  0  0  0  0
  185.2000  178.7820  143.6110 C   0  0  0  0  0  0  0  0  0  0  0  0
  190.0570  177.9340  142.0410 C   0  0  1  0  0  3  0  0  0  0  0  0
  187.1990  177.6360  142.8360 C   0  0  0  0  0  0  0  0  0  0  0  0
  190.3840  175.6010  142.9760 C   0  0  0  0  0  2  0  0  0  0  0  0
  185.1730  179.5020  142.4200 C   0  0  0  0  0  3  0  0  0  0  0  0
  190.7810  178.4330  144.4620 C   0  0  0  0  0  2  0  0  0  0  0  0
  190.2920  178.9960  143.1170 C   0  0  0  0  0  2  0  0  0  0  0  0
  189.4320  176.6730  142.5700 C   0  0  0  0  0  0  0  0  0  0  0  0
  186.6790  177.0630  136.6890 C   0  0  0  0  0  3  0  0  0  0  0  0
  187.5760  177.7710  139.2600 C   0  0  0  0  0  0  0  0  0  0  0  0
  188.3560  176.9480  138.4290 C   0  0  0  0  0  3  0  0  0  0  0  0
  187.9100  176.5940  137.1530 C   0  0  0  0  0  3  0  0  0  0  0  0
  185.8950  177.8860  137.5010 C   0  0  0  0  0  3  0  0  0  0  0  0
  186.3420  178.2400  138.7770 C   0  0  0  0  0  3  0  0  0  0  0  0
  186.2030  177.1520  145.0660 O   0  0  0  0  0  0  0  0  0  0  0  0
  186.9500  177.5110  146.2190 C   0  0  0  0  0  1  0  0  0  0  0  0
  184.1640  179.0610  144.6490 C   0  0  0  0  0  2  0  0  0  0  0  0
  182.0520  178.7800  144.0740 C   0  0  0  0  0  1  0  0  0  0  0  0
  183.0810  179.7210  144.0650 O   0  0  0  0  0  0  0  0  0  0  0  0
  2 11  1  0  0  0  0
  4  2  2  0  0  0  0
  4 13  1  0  0  0  0
  6  5  1  0  0  0  0
  6 14  1  0  0  0  0
  7 23  1  0  0  0  0
  8  1  1  0  0  0  0
  8  2  1  0  0  0  0
  9  7  1  0  0  0  0
  9 25  1  0  0  0  0
 10  1  1  6  0  0  0
 10 16  1  0  0  0  0
 10 15  1  0  0  0  0
 11  3  1  0  0  0  0
 11  7  2  0  0  0  0
 12  5  1  0  0  0  0
 13  9  2  0  0  0  0
 15 14  1  0  0  0  0
 16 12  1  0  0  0  0
 16  3  2  0  0  0  0
 17 20  2  0  0  0  0
 17 21  1  0  0  0  0
 18  8  1  0  0  0  0
 19 18  2  0  0  0  0
 20 19  1  0  0  0  0
 21 22  2  0  0  0  0
 22 18  1  0  0  0  0
 23 24  1  0  0  0  0
 27 26  1  0  0  0  0
 27 25  1  0  0  0  0
M  END
>  <MODEL>
1

>  <REMARK>
 VINA RESULT:      -6.9      0.000      0.000
  Name = 
  4 active torsions:
  status: ('A' for Active; 'I' for Inactive)
    1  A    between atoms: C_4  and  O_16
    2  A    between atoms: C_4  and  C_17
    3  A    between atoms: O_8  and  C_14
    4  A    between atoms: C_9  and  N_15
                            x       y       z     vdW  Elec       q    Type
                         _______ _______ _______ _____ _____    ______ ____

>  <TORSDO>
F 4

$$$$
=
 OpenBabel11052413503D

 27 30  0  0  1  0  0  0  0  0999 V2000
  188.6690  178.3770  139.3240 C   0  0  0  0  0  2  0  0  0  0  0  0
  190.7010  176.9230  139.3310 C   0  0  0  0  0  0  0  0  0  0  0  0
  189.2230  175.6260  137.8320 N   0  0  0  0  0  0  0  0  0  0  0  0
  191.9490  177.2360  139.7710 N   0  0  0  0  0  0  0  0  0  0  0  0
  186.9290  176.0760  135.6530 C   0  0  0  0  0  2  0  0  0  0  0  0
  187.0570  177.5580  135.2880 C   0  0  0  0  0  2  0  0  0  0  0  0
  191.6900  175.4730  137.6430 C   0  0  0  0  0  0  0  0  0  0  0  0
  189.5590  177.4500  140.0230 N   0  0  0  0  0  0  0  0  0  0  0  0
  192.9560  175.8280  138.1360 C   0  0  0  0  0  0  0  0  0  0  0  0
  188.2030  177.8650  137.9630 C   0  0  1  0  0  3  0  0  0  0  0  0
  190.5360  176.0320  138.2500 C   0  0  0  0  0  0  0  0  0  0  0  0
  186.9190  175.8320  137.1640 C   0  0  0  0  0  2  0  0  0  0  0  0
  193.0630  176.7210  139.1990 C   0  0  0  0  0  3  0  0  0  0  0  0
  188.5110  178.0180  135.4100 C   0  0  0  0  0  2  0  0  0  0  0  0
  188.8630  178.5950  136.7910 C   0  0  0  0  0  2  0  0  0  0  0  0
  188.1580  176.3730  137.7900 C   0  0  0  0  0  0  0  0  0  0  0  0
  189.0430  176.7900  144.1980 C   0  0  0  0  0  3  0  0  0  0  0  0
  189.3940  177.2370  141.4410 C   0  0  0  0  0  0  0  0  0  0  0  0
  190.2490  176.3680  142.1430 C   0  0  0  0  0  3  0  0  0  0  0  0
  190.0770  176.1480  143.5110 C   0  0  0  0  0  3  0  0  0  0  0  0
  188.1830  177.6520  143.5140 C   0  0  0  0  0  3  0  0  0  0  0  0
  188.3550  177.8710  142.1440 C   0  0  0  0  0  3  0  0  0  0  0  0
  191.6430  174.5780  136.5580 O   0  0  0  0  0  0  0  0  0  0  0  0
  191.4100  174.9370  135.2040 C   0  0  0  0  0  1  0  0  0  0  0  0
  194.2030  175.2970  137.5100 C   0  0  0  0  0  2  0  0  0  0  0  0
  195.3610  173.7720  138.6060 C   0  0  0  0  0  1  0  0  0  0  0  0
  195.1920  175.1500  138.4840 O   0  0  0  0  0  0  0  0  0  0  0  0
  1  8  1  0  0  0  0
  2  4  1  0  0  0  0
  2  8  1  0  0  0  0
  3 11  1  0  0  0  0
  5 12  1  0  0  0  0
  6 14  1  0  0  0  0
  6  5  1  0  0  0  0
  7  9  2  0  0  0  0
  7 11  1  0  0  0  0
  8 18  1  0  0  0  0
  9 13  1  0  0  0  0
 10 15  1  6  0  0  0
 10  1  1  0  0  0  0
 11  2  2  0  0  0  0
 12 16  1  0  0  0  0
 13  4  2  0  0  0  0
 14 15  1  0  0  0  0
 16  3  2  0  0  0  0
 16 10  1  0  0  0  0
 18 19  2  0  0  0  0
 18 22  1  0  0  0  0
 19 20  1  0  0  0  0
 20 17  2  0  0  0  0
 21 17  1  0  0  0  0
 22 21  2  0  0  0  0
 23  7  1  0  0  0  0
 24 23  1  0  0  0  0
 25  9  1  0  0  0  0
 25 27  1  0  0  0  0
 27 26  1  0  0  0  0
M  END
>  <MODEL>
2

>  <REMARK>
 VINA RESULT:      -6.9      4.176      8.262
  Name = 
  4 active torsions:
  status: ('A' for Active; 'I' for Inactive)
    1  A    between atoms: C_4  and  O_16
    2  A    between atoms: C_4  and  C_17
    3  A    between atoms: O_8  and  C_14
    4  A    between atoms: C_9  and  N_15
                            x       y       z     vdW  Elec       q    Type
                         _______ _______ _______ _____ _____    ______ ____

>  <TORSDO>
F 4

$$$$
=
 OpenBabel11052413503D

 27 30  0  0  1  0  0  0  0  0999 V2000
  190.5880  177.9490  140.8250 C   0  0  0  0  0  2  0  0  0  0  0  0
  188.1080  177.8660  141.1160 C   0  0  0  0  0  0  0  0  0  0  0  0
  188.8310  176.4070  142.9780 N   0  0  0  0  0  0  0  0  0  0  0  0
  187.1740  178.6760  140.5500 N   0  0  0  0  0  0  0  0  0  0  0  0
  191.2360  176.0900  145.0590 C   0  0  0  0  0  2  0  0  0  0  0  0
  191.9490  177.4450  145.0030 C   0  0  0  0  0  2  0  0  0  0  0  0
  186.6910  177.6550  143.0850 C   0  0  0  0  0  0  0  0  0  0  0  0
  189.2740  177.5030  140.3620 N   0  0  0  0  0  0  0  0  0  0  0  0
  185.7580  178.4950  142.4560 C   0  0  0  0  0  0  0  0  0  0  0  0
  190.8570  177.6310  142.2940 C   0  0  1  0  0  3  0  0  0  0  0  0
  187.8930  177.3340  142.4050 C   0  0  0  0  0  0  0  0  0  0  0  0
  190.9530  175.5070  143.6720 C   0  0  0  0  0  2  0  0  0  0  0  0
  186.0250  179.0030  141.1880 C   0  0  0  0  0  3  0  0  0  0  0  0
  190.9520  178.5640  144.6930 C   0  0  0  0  0  2  0  0  0  0  0  0
  190.8120  178.8690  143.1930 C   0  0  0  0  0  2  0  0  0  0  0  0
  190.1270  176.4490  142.8660 C   0  0  0  0  0  0  0  0  0  0  0  0
  188.9190  175.7150  136.5140 C   0  0  0  0  0  3  0  0  0  0  0  0
  189.1490  176.8850  139.0640 C   0  0  0  0  0  0  0  0  0  0  0  0
  190.1890  176.0980  138.5390 C   0  0  0  0  0  3  0  0  0  0  0  0
  190.0740  175.5150  137.2740 C   0  0  0  0  0  3  0  0  0  0  0  0
  187.8800  176.4990  137.0200 C   0  0  0  0  0  3  0  0  0  0  0  0
  187.9950  177.0820  138.2850 C   0  0  0  0  0  3  0  0  0  0  0  0
  186.3750  177.1830  144.3730 O   0  0  0  0  0  0  0  0  0  0  0  0
  186.8840  177.7080  145.5900 C   0  0  0  0  0  1  0  0  0  0  0  0
  184.4940  178.8930  143.1430 C   0  0  0  0  0  2  0  0  0  0  0  0
  182.2910  178.9720  143.0800 C   0  0  0  0  0  1  0  0  0  0  0  0
  183.4020  178.5950  142.3280 O   0  0  0  0  0  0  0  0  0  0  0  0
  2 11  1  0  0  0  0
  4  2  2  0  0  0  0
  4 13  1  0  0  0  0
  6  5  1  0  0  0  0
  7 23  1  0  0  0  0
  8  1  1  0  0  0  0
  8  2  1  0  0  0  0
  9  7  1  0  0  0  0
  9 25  1  0  0  0  0
 10  1  1  6  0  0  0
 10 16  1  0  0  0  0
 10 15  1  0  0  0  0
 11  3  1  0  0  0  0
 11  7  2  0  0  0  0
 12  5  1  0  0  0  0
 13  9  2  0  0  0  0
 14  6  1  0  0  0  0
 15 14  1  0  0  0  0
 16  3  2  0  0  0  0
 16 12  1  0  0  0  0
 17 21  2  0  0  0  0
 17 20  1  0  0  0  0
 18  8  1  0  0  0  0
 19 18  1  0  0  0  0
 20 19  2  0  0  0  0
 21 22  1  0  0  0  0
 22 18  2  0  0  0  0
 23 24  1  0  0  0  0
 27 26  1  0  0  0  0
 27 25  1  0  0  0  0
M  END
>  <MODEL>
3

>  <REMARK>
 VINA RESULT:      -6.8      1.161      1.450
  Name = 
  4 active torsions:
  status: ('A' for Active; 'I' for Inactive)
    1  A    between atoms: C_4  and  O_16
    2  A    between atoms: C_4  and  C_17
    3  A    between atoms: O_8  and  C_14
    4  A    between atoms: C_9  and  N_15
                            x       y       z     vdW  Elec       q    Type
                         _______ _______ _______ _____ _____    ______ ____

>  <TORSDO>
F 4

$$$$
=
 OpenBabel11052413503D

 27 30  0  0  1  0  0  0  0  0999 V2000
  191.7880  177.6720  141.0140 C   0  0  0  0  0  2  0  0  0  0  0  0
  189.3420  177.6890  140.5040 C   0  0  0  0  0  0  0  0  0  0  0  0
  189.3570  176.3810  142.6040 N   0  0  0  0  0  0  0  0  0  0  0  0
  188.6820  178.4730  139.6100 N   0  0  0  0  0  0  0  0  0  0  0  0
  190.9600  176.1800  145.3610 C   0  0  0  0  0  2  0  0  0  0  0  0
  191.7300  177.5030  145.4340 C   0  0  0  0  0  2  0  0  0  0  0  0
  187.3660  177.6970  141.9280 C   0  0  0  0  0  0  0  0  0  0  0  0
  190.6640  177.2260  140.1910 N   0  0  0  0  0  0  0  0  0  0  0  0
  186.7290  178.5050  140.9720 C   0  0  0  0  0  0  0  0  0  0  0  0
  191.5610  177.4780  142.5120 C   0  0  1  0  0  3  0  0  0  0  0  0
  188.7020  177.2800  141.6930 C   0  0  0  0  0  0  0  0  0  0  0  0
  191.0960  175.4840  144.0050 C   0  0  0  0  0  2  0  0  0  0  0  0
  187.4110  178.8890  139.8210 C   0  0  0  0  0  3  0  0  0  0  0  0
  190.9470  178.6180  144.7390 C   0  0  0  0  0  2  0  0  0  0  0  0
  191.3040  178.7920  143.2540 C   0  0  0  0  0  2  0  0  0  0  0  0
  190.6220  176.3740  142.9080 C   0  0  0  0  0  0  0  0  0  0  0  0
  191.4090  175.1140  136.5700 C   0  0  0  0  0  3  0  0  0  0  0  0
  190.9200  176.4980  138.9710 C   0  0  0  0  0  0  0  0  0  0  0  0
  192.2170  176.4300  138.4320 C   0  0  0  0  0  3  0  0  0  0  0  0
  192.4600  175.7420  137.2410 C   0  0  0  0  0  3  0  0  0  0  0  0
  190.1140  175.1760  137.0900 C   0  0  0  0  0  3  0  0  0  0  0  0
  189.8710  175.8660  138.2810 C   0  0  0  0  0  3  0  0  0  0  0  0
  186.6340  177.3510  143.0790 O   0  0  0  0  0  0  0  0  0  0  0  0
  186.8490  177.8780  144.3800 C   0  0  0  0  0  1  0  0  0  0  0  0
  185.3380  179.0010  141.1880 C   0  0  0  0  0  2  0  0  0  0  0  0
  183.7140  179.1880  139.7070 C   0  0  0  0  0  1  0  0  0  0  0  0
  184.9310  179.7530  140.0860 O   0  0  0  0  0  0  0  0  0  0  0  0
  2 11  1  0  0  0  0
  3 16  2  0  0  0  0
  4 13  1  0  0  0  0
  4  2  2  0  0  0  0
  5  6  1  0  0  0  0
  7 23  1  0  0  0  0
  8  2  1  0  0  0  0
  8  1  1  0  0  0  0
  9 25  1  0  0  0  0
  9  7  1  0  0  0  0
 10  1  1  6  0  0  0
 10 16  1  0  0  0  0
 10 15  1  0  0  0  0
 11  7  2  0  0  0  0
 11  3  1  0  0  0  0
 12  5  1  0  0  0  0
 13  9  2  0  0  0  0
 14  6  1  0  0  0  0
 15 14  1  0  0  0  0
 16 12  1  0  0  0  0
 17 21  2  0  0  0  0
 17 20  1  0  0  0  0
 18  8  1  0  0  0  0
 19 18  1  0  0  0  0
 20 19  2  0  0  0  0
 21 22  1  0  0  0  0
 22 18  2  0  0  0  0
 23 24  1  0  0  0  0
 26 27  1  0  0  0  0
 27 25  1  0  0  0  0
M  END
>  <MODEL>
4

>  <REMARK>
 VINA RESULT:      -6.6      2.187      3.070
  Name = 
  4 active torsions:
  status: ('A' for Active; 'I' for Inactive)
    1  A    between atoms: C_4  and  O_16
    2  A    between atoms: C_4  and  C_17
    3  A    between atoms: O_8  and  C_14
    4  A    between atoms: C_9  and  N_15
                            x       y       z     vdW  Elec       q    Type
                         _______ _______ _______ _____ _____    ______ ____

>  <TORSDO>
F 4

$$$$
=
 OpenBabel11052413503D

 27 30  0  0  1  0  0  0  0  0999 V2000
  181.6390  179.0000  141.0220 C   0  0  0  0  0  2  0  0  0  0  0  0
  183.8680  178.4350  140.0450 C   0  0  0  0  0  0  0  0  0  0  0  0
  182.5670  176.4380  139.3870 N   0  0  0  0  0  0  0  0  0  0  0  0
  184.9290  179.2640  139.8550 N   0  0  0  0  0  0  0  0  0  0  0  0
  179.5980  175.6070  138.5480 C   0  0  0  0  0  2  0  0  0  0  0  0
  178.9310  176.9400  138.1960 C   0  0  0  0  0  2  0  0  0  0  0  0
  184.5240  177.1860  138.0600 C   0  0  0  0  0  0  0  0  0  0  0  0
  183.0380  178.6120  141.2020 N   0  0  0  0  0  0  0  0  0  0  0  0
  185.6060  178.0690  137.9090 C   0  0  0  0  0  0  0  0  0  0  0  0
  180.8850  178.1200  140.0280 C   0  0  1  0  0  3  0  0  0  0  0  0
  183.6330  177.3720  139.1480 C   0  0  0  0  0  0  0  0  0  0  0  0
  180.3480  175.6480  139.8810 C   0  0  0  0  0  2  0  0  0  0  0  0
  185.7850  179.1100  138.8170 C   0  0  0  0  0  3  0  0  0  0  0  0
  179.9580  177.9230  137.6320 C   0  0  0  0  0  2  0  0  0  0  0  0
  180.6030  178.8240  138.6980 C   0  0  0  0  0  2  0  0  0  0  0  0
  181.3890  176.7130  139.8650 C   0  0  0  0  0  0  0  0  0  0  0  0
  184.7400  178.6360  145.1050 C   0  0  0  0  0  3  0  0  0  0  0  0
  183.6100  178.6060  142.5270 C   0  0  0  0  0  0  0  0  0  0  0  0
  182.8450  178.9910  143.6430 C   0  0  0  0  0  3  0  0  0  0  0  0
  183.4050  179.0040  144.9230 C   0  0  0  0  0  3  0  0  0  0  0  0
  185.5140  178.2570  144.0060 C   0  0  0  0  0  3  0  0  0  0  0  0
  184.9540  178.2450  142.7260 C   0  0  0  0  0  3  0  0  0  0  0  0
  184.3840  176.1620  137.1060 O   0  0  0  0  0  0  0  0  0  0  0  0
  184.7780  174.8090  137.2850 C   0  0  0  0  0  1  0  0  0  0  0  0
  186.5510  177.9400  136.7610 C   0  0  0  0  0  2  0  0  0  0  0  0
  188.7110  178.3850  136.8030 C   0  0  0  0  0  1  0  0  0  0  0  0
  187.4600  178.9980  136.7800 O   0  0  0  0  0  0  0  0  0  0  0  0
  1  8  1  0  0  0  0
  2  8  1  0  0  0  0
  3 16  2  0  0  0  0
  4  2  1  0  0  0  0
  5 12  1  0  0  0  0
  6  5  1  0  0  0  0
  7 11  1  0  0  0  0
  8 18  1  0  0  0  0
  9  7  2  0  0  0  0
  9 13  1  0  0  0  0
 10 15  1  6  0  0  0
 10  1  1  0  0  0  0
 11  3  1  0  0  0  0
 11  2  2  0  0  0  0
 13  4  2  0  0  0  0
 14  6  1  0  0  0  0
 14 15  1  0  0  0  0
 16 12  1  0  0  0  0
 16 10  1  0  0  0  0
 18 22  2  0  0  0  0
 18 19  1  0  0  0  0
 19 20  2  0  0  0  0
 20 17  1  0  0  0  0
 21 17  2  0  0  0  0
 22 21  1  0  0  0  0
 23 24  1  0  0  0  0
 23  7  1  0  0  0  0
 25 27  1  0  0  0  0
 25  9  1  0  0  0  0
 27 26  1  0  0  0  0
M  END
>  <MODEL>
5

>  <REMARK>
 VINA RESULT:      -6.4      4.106      8.354
  Name = 
  4 active torsions:
  status: ('A' for Active; 'I' for Inactive)
    1  A    between atoms: C_4  and  O_16
    2  A    between atoms: C_4  and  C_17
    3  A    between atoms: O_8  and  C_14
    4  A    between atoms: C_9  and  N_15
                            x       y       z     vdW  Elec       q    Type
                         _______ _______ _______ _____ _____    ______ ____

>  <TORSDO>
F 4

$$$$
=
 OpenBabel11052413503D

 27 30  0  0  1  0  0  0  0  0999 V2000
  189.6490  176.4420  140.5410 C   0  0  0  0  0  2  0  0  0  0  0  0
  187.8740  177.6160  141.8490 C   0  0  0  0  0  0  0  0  0  0  0  0
  187.9860  179.0590  139.8430 N   0  0  0  0  0  0  0  0  0  0  0  0
  187.1890  177.1530  142.9280 N   0  0  0  0  0  0  0  0  0  0  0  0
  188.5440  178.8600  136.7030 C   0  0  0  0  0  2  0  0  0  0  0  0
  188.4010  177.3660  136.4000 C   0  0  0  0  0  2  0  0  0  0  0  0
  185.9040  178.8820  141.1780 C   0  0  0  0  0  0  0  0  0  0  0  0
  189.2550  177.2610  141.6870 N   0  0  0  0  0  0  0  0  0  0  0  0
  185.2420  178.3770  142.3090 C   0  0  0  0  0  0  0  0  0  0  0  0
  189.1390  176.9770  139.2050 C   0  0  1  0  0  3  0  0  0  0  0  0
  187.2470  178.4940  140.9390 C   0  0  0  0  0  0  0  0  0  0  0  0
  189.4300  179.1410  137.9190 C   0  0  0  0  0  2  0  0  0  0  0  0
  185.9030  177.5030  143.1680 C   0  0  0  0  0  3  0  0  0  0  0  0
  187.3800  176.7230  137.3400 C   0  0  0  0  0  2  0  0  0  0  0  0
  188.0000  176.1380  138.6200 C   0  0  0  0  0  2  0  0  0  0  0  0
  188.8920  178.4570  139.1290 C   0  0  0  0  0  0  0  0  0  0  0  0
  192.0460  178.0560  144.8030 C   0  0  0  0  0  3  0  0  0  0  0  0
  190.2120  177.5280  142.7340 C   0  0  0  0  0  0  0  0  0  0  0  0
  190.7670  176.4780  143.4860 C   0  0  0  0  0  3  0  0  0  0  0  0
  191.6790  176.7400  144.5120 C   0  0  0  0  0  3  0  0  0  0  0  0
  191.4980  179.1100  144.0680 C   0  0  0  0  0  3  0  0  0  0  0  0
  190.5860  178.8480  143.0420 C   0  0  0  0  0  3  0  0  0  0  0  0
  185.1830  179.7490  140.3360 O   0  0  0  0  0  0  0  0  0  0  0  0
  184.5230  179.3710  139.1370 C   0  0  0  0  0  1  0  0  0  0  0  0
  183.8170  178.7240  142.5860 C   0  0  0  0  0  2  0  0  0  0  0  0
  182.6310  179.0000  144.4260 C   0  0  0  0  0  1  0  0  0  0  0  0
  183.7400  179.5000  143.7430 O   0  0  0  0  0  0  0  0  0  0  0  0
  1  8  1  0  0  0  0
  2  4  1  0  0  0  0
  3 11  1  0  0  0  0
  4 13  2  0  0  0  0
  5 12  1  0  0  0  0
  6  5  1  0  0  0  0
  6 14  1  0  0  0  0
  7  9  2  0  0  0  0
  8  2  1  0  0  0  0
  8 18  1  0  0  0  0
  9 25  1  0  0  0  0
  9 13  1  0  0  0  0
 10 15  1  1  0  0  0
 10  1  1  0  0  0  0
 11  7  1  0  0  0  0
 11  2  2  0  0  0  0
 12 16  1  0  0  0  0
 14 15  1  0  0  0  0
 16 10  1  0  0  0  0
 16  3  2  0  0  0  0
 18 22  2  0  0  0  0
 18 19  1  0  0  0  0
 19 20  2  0  0  0  0
 20 17  1  0  0  0  0
 21 17  2  0  0  0  0
 22 21  1  0  0  0  0
 23  7  1  0  0  0  0
 24 23  1  0  0  0  0
 25 27  1  0  0  0  0
 27 26  1  0  0  0  0
M  END
>  <MODEL>
6

>  <REMARK>
 VINA RESULT:      -6.3      1.546      5.391
  Name = 
  4 active torsions:
  status: ('A' for Active; 'I' for Inactive)
    1  A    between atoms: C_4  and  O_16
    2  A    between atoms: C_4  and  C_17
    3  A    between atoms: O_8  and  C_14
    4  A    between atoms: C_9  and  N_15
                            x       y       z     vdW  Elec       q    Type
                         _______ _______ _______ _____ _____    ______ ____

>  <TORSDO>
F 4

$$$$
=
 OpenBabel11052413503D

 27 30  0  0  1  0  0  0  0  0999 V2000
  189.1170  174.5980  134.7630 C   0  0  0  0  0  2  0  0  0  0  0  0
  188.4810  175.6630  136.9320 C   0  0  0  0  0  0  0  0  0  0  0  0
  190.5850  174.5350  137.5810 N   0  0  0  0  0  0  0  0  0  0  0  0
  187.5510  176.6320  137.1440 N   0  0  0  0  0  0  0  0  0  0  0  0
  193.4220  173.7300  136.3500 C   0  0  0  0  0  2  0  0  0  0  0  0
  193.5280  174.5880  135.0850 C   0  0  0  0  0  2  0  0  0  0  0  0
  189.8010  176.5670  138.7680 C   0  0  0  0  0  0  0  0  0  0  0  0
  188.2390  174.6630  135.9310 N   0  0  0  0  0  0  0  0  0  0  0  0
  188.8100  177.5460  138.9470 C   0  0  0  0  0  0  0  0  0  0  0  0
  190.6020  174.5620  135.1170 C   0  0  1  0  0  3  0  0  0  0  0  0
  189.6370  175.6050  137.7380 C   0  0  0  0  0  0  0  0  0  0  0  0
  192.0770  173.0080  136.4710 C   0  0  0  0  0  2  0  0  0  0  0  0
  187.6940  177.5650  138.1150 C   0  0  0  0  0  3  0  0  0  0  0  0
  192.7890  175.9140  135.2720 C   0  0  0  0  0  2  0  0  0  0  0  0
  191.3240  175.8760  134.8090 C   0  0  0  0  0  2  0  0  0  0  0  0
  190.9540  173.9870  136.4600 C   0  0  0  0  0  0  0  0  0  0  0  0
  184.7170  172.2720  136.0200 C   0  0  0  0  0  3  0  0  0  0  0  0
  187.0370  173.8640  135.9630 C   0  0  0  0  0  0  0  0  0  0  0  0
  186.5270  173.3820  137.1820 C   0  0  0  0  0  3  0  0  0  0  0  0
  185.3740  172.5930  137.2100 C   0  0  0  0  0  3  0  0  0  0  0  0
  185.2150  172.7390  134.8020 C   0  0  0  0  0  3  0  0  0  0  0  0
  186.3690  173.5270  134.7730 C   0  0  0  0  0  3  0  0  0  0  0  0
  190.9140  176.6040  139.6280 O   0  0  0  0  0  0  0  0  0  0  0  0
  192.2160  177.0460  139.2710 C   0  0  0  0  0  1  0  0  0  0  0  0
  188.9520  178.6030  139.9910 C   0  0  0  0  0  2  0  0  0  0  0  0
  188.4850  178.0610  142.0780 C   0  0  0  0  0  1  0  0  0  0  0  0
  187.8950  178.5110  140.8980 O   0  0  0  0  0  0  0  0  0  0  0  0
  1  8  1  0  0  0  0
  2  4  2  0  0  0  0
  2 11  1  0  0  0  0
  3 11  1  0  0  0  0
  4 13  1  0  0  0  0
  5 12  1  0  0  0  0
  6 14  1  0  0  0  0
  6  5  1  0  0  0  0
  7  9  1  0  0  0  0
  7 23  1  0  0  0  0
  8 18  1  0  0  0  0
  8  2  1  0  0  0  0
  9 25  1  0  0  0  0
 10  1  1  1  0  0  0
 10 16  1  0  0  0  0
 11  7  2  0  0  0  0
 13  9  2  0  0  0  0
 15 10  1  0  0  0  0
 15 14  1  0  0  0  0
 16 12  1  0  0  0  0
 16  3  2  0  0  0  0
 17 20  1  0  0  0  0
 18 19  1  0  0  0  0
 19 20  2  0  0  0  0
 21 17  2  0  0  0  0
 22 21  1  0  0  0  0
 22 18  2  0  0  0  0
 24 23  1  0  0  0  0
 25 27  1  0  0  0  0
 27 26  1  0  0  0  0
M  END
>  <MODEL>
7

>  <REMARK>
 VINA RESULT:      -5.3      4.239      6.797
  Name = 
  4 active torsions:
  status: ('A' for Active; 'I' for Inactive)
    1  A    between atoms: C_4  and  O_16
    2  A    between atoms: C_4  and  C_17
    3  A    between atoms: O_8  and  C_14
    4  A    between atoms: C_9  and  N_15
                            x       y       z     vdW  Elec       q    Type
                         _______ _______ _______ _____ _____    ______ ____

>  <TORSDO>
F 4

$$$$
=
 OpenBabel11052413503D

 27 30  0  0  1  0  0  0  0  0999 V2000
  187.2640  178.7250  138.5750 C   0  0  0  0  0  2  0  0  0  0  0  0
  189.1540  177.1180  138.8650 C   0  0  0  0  0  0  0  0  0  0  0  0
  187.6170  175.7620  137.4810 N   0  0  0  0  0  0  0  0  0  0  0  0
  190.4100  177.3810  139.3160 N   0  0  0  0  0  0  0  0  0  0  0  0
  185.4480  176.1090  135.1610 C   0  0  0  0  0  2  0  0  0  0  0  0
  185.7210  177.5130  134.6110 C   0  0  0  0  0  2  0  0  0  0  0  0
  190.0660  175.3770  137.4270 C   0  0  0  0  0  0  0  0  0  0  0  0
  188.0420  177.8280  139.4290 N   0  0  0  0  0  0  0  0  0  0  0  0
  191.3410  175.6850  137.9260 C   0  0  0  0  0  0  0  0  0  0  0  0
  186.7990  178.0770  137.2730 C   0  0  1  0  0  3  0  0  0  0  0  0
  188.9470  176.1080  137.9020 C   0  0  0  0  0  0  0  0  0  0  0  0
  185.3650  176.0710  136.6890 C   0  0  0  0  0  2  0  0  0  0  0  0
  191.4920  176.7010  138.8670 C   0  0  0  0  0  3  0  0  0  0  0  0
  187.2050  177.8590  134.7390 C   0  0  0  0  0  2  0  0  0  0  0  0
  187.5620  178.5850  136.0460 C   0  0  0  0  0  2  0  0  0  0  0  0
  186.6260  176.5840  137.2950 C   0  0  0  0  0  0  0  0  0  0  0  0
  187.3770  177.8490  143.6340 C   0  0  0  0  0  3  0  0  0  0  0  0
  187.8110  177.8220  140.8540 C   0  0  0  0  0  0  0  0  0  0  0  0
  186.5800  178.2460  141.3840 C   0  0  0  0  0  3  0  0  0  0  0  0
  186.3630  178.2580  142.7650 C   0  0  0  0  0  3  0  0  0  0  0  0
  188.6070  177.4300  143.1230 C   0  0  0  0  0  3  0  0  0  0  0  0
  188.8230  177.4190  141.7420 C   0  0  0  0  0  3  0  0  0  0  0  0
  189.9750  174.3510  136.4670 O   0  0  0  0  0  0  0  0  0  0  0  0
  189.8230  174.5440  135.0680 C   0  0  0  0  0  1  0  0  0  0  0  0
  192.5550  174.9710  137.4320 C   0  0  0  0  0  2  0  0  0  0  0  0
  194.7400  174.9200  137.7340 C   0  0  0  0  0  1  0  0  0  0  0  0
  193.6720  175.7990  137.5610 O   0  0  0  0  0  0  0  0  0  0  0  0
  1  8  1  0  0  0  0
  2  4  1  0  0  0  0
  2  8  1  0  0  0  0
  3 11  1  0  0  0  0
  5 12  1  0  0  0  0
  6 14  1  0  0  0  0
  6  5  1  0  0  0  0
  7 11  1  0  0  0  0
  7  9  2  0  0  0  0
  8 18  1  0  0  0  0
  9 13  1  0  0  0  0
 10 15  1  6  0  0  0
 10 16  1  0  0  0  0
 10  1  1  0  0  0  0
 11  2  2  0  0  0  0
 12 16  1  0  0  0  0
 13  4  2  0  0  0  0
 14 15  1  0  0  0  0
 16  3  2  0  0  0  0
 18 19  2  0  0  0  0
 18 22  1  0  0  0  0
 19 20  1  0  0  0  0
 20 17  2  0  0  0  0
 21 17  1  0  0  0  0
 22 21  2  0  0  0  0
 23  7  1  0  0  0  0
 24 23  1  0  0  0  0
 25 27  1  0  0  0  0
 25  9  1  0  0  0  0
 27 26  1  0  0  0  0
M  END
>  <MODEL>
8

>  <REMARK>
 VINA RESULT:      -5.2      3.724      8.118
  Name = 
  4 active torsions:
  status: ('A' for Active; 'I' for Inactive)
    1  A    between atoms: C_4  and  O_16
    2  A    between atoms: C_4  and  C_17
    3  A    between atoms: O_8  and  C_14
    4  A    between atoms: C_9  and  N_15
                            x       y       z     vdW  Elec       q    Type
                         _______ _______ _______ _____ _____    ______ ____

>  <TORSDO>
F 4

$$$$
=
 OpenBabel11052413503D

 27 30  0  0  1  0  0  0  0  0999 V2000
  191.3270  174.0780  134.9430 C   0  0  0  0  0  2  0  0  0  0  0  0
  189.9500  175.2950  136.6350 C   0  0  0  0  0  0  0  0  0  0  0  0
  191.9750  174.8080  137.9680 N   0  0  0  0  0  0  0  0  0  0  0  0
  188.8330  176.0410  136.4210 N   0  0  0  0  0  0  0  0  0  0  0  0
  195.1360  174.5030  137.6110 C   0  0  0  0  0  2  0  0  0  0  0  0
  195.4140  175.1500  136.2500 C   0  0  0  0  0  2  0  0  0  0  0  0
  190.5390  176.7620  138.4880 C   0  0  0  0  0  0  0  0  0  0  0  0
  190.1730  174.1210  135.8410 N   0  0  0  0  0  0  0  0  0  0  0  0
  189.3730  177.4980  138.2260 C   0  0  0  0  0  0  0  0  0  0  0  0
  192.6440  174.4470  135.6240 C   0  0  1  0  0  3  0  0  0  0  0  0
  190.8380  175.6380  137.6760 C   0  0  0  0  0  0  0  0  0  0  0  0
  193.9670  173.5150  137.5740 C   0  0  0  0  0  2  0  0  0  0  0  0
  188.5350  177.1240  137.1780 C   0  0  0  0  0  3  0  0  0  0  0  0
  194.4180  176.2790  135.9790 C   0  0  0  0  0  2  0  0  0  0  0  0
  193.1630  175.8270  135.2150 C   0  0  0  0  0  2  0  0  0  0  0  0
  192.7250  174.1900  137.1030 C   0  0  0  0  0  0  0  0  0  0  0  0
  187.2070  171.0750  135.6130 C   0  0  0  0  0  3  0  0  0  0  0  0
  189.1770  173.0790  135.7700 C   0  0  0  0  0  0  0  0  0  0  0  0
  189.1300  172.2020  134.6710 C   0  0  0  0  0  3  0  0  0  0  0  0
  188.1530  171.2060  134.5940 C   0  0  0  0  0  3  0  0  0  0  0  0
  187.2370  171.9420  136.7080 C   0  0  0  0  0  3  0  0  0  0  0  0
  188.2130  172.9390  136.7840 C   0  0  0  0  0  3  0  0  0  0  0  0
  191.3560  177.1950  139.5490 O   0  0  0  0  0  0  0  0  0  0  0  0
  191.2030  176.8210  140.9110 C   0  0  0  0  0  1  0  0  0  0  0  0
  189.0310  178.7110  139.0260 C   0  0  0  0  0  2  0  0  0  0  0  0
  187.8110  178.2510  140.8050 C   0  0  0  0  0  1  0  0  0  0  0  0
  187.7100  178.6260  139.4670 O   0  0  0  0  0  0  0  0  0  0  0  0
  1  8  1  0  0  0  0
  2 11  1  0  0  0  0
  4  2  2  0  0  0  0
  4 13  1  0  0  0  0
  6  5  1  0  0  0  0
  7 23  1  0  0  0  0
  8  2  1  0  0  0  0
  9  7  1  0  0  0  0
  9 25  1  0  0  0  0
 10  1  1  1  0  0  0
 10 16  1  0  0  0  0
 11  3  1  0  0  0  0
 11  7  2  0  0  0  0
 12  5  1  0  0  0  0
 13  9  2  0  0  0  0
 14  6  1  0  0  0  0
 15 10  1  0  0  0  0
 15 14  1  0  0  0  0
 16 12  1  0  0  0  0
 16  3  2  0  0  0  0
 17 21  1  0  0  0  0
 18  8  1  0  0  0  0
 18 22  1  0  0  0  0
 19 18  2  0  0  0  0
 20 19  1  0  0  0  0
 20 17  2  0  0  0  0
 21 22  2  0  0  0  0
 23 24  1  0  0  0  0
 25 27  1  0  0  0  0
 27 26  1  0  0  0  0
M  END
>  <MODEL>
9

>  <REMARK>
 VINA RESULT:      -5.2      5.015      7.076
  Name = 
  4 active torsions:
  status: ('A' for Active; 'I' for Inactive)
    1  A    between atoms: C_4  and  O_16
    2  A    between atoms: C_4  and  C_17
    3  A    between atoms: O_8  and  C_14
    4  A    between atoms: C_9  and  N_15
                            x       y       z     vdW  Elec       q    Type
                         _______ _______ _______ _____ _____    ______ ____

>  <TORSDO>
F 4

$$$$
