=
 OpenBabel11052416513D

 32 37  0  0  1  0  0  0  0  0999 V2000
  183.4170  178.8470  145.0830 C   0  0  0  0  0  3  0  0  0  0  0  0
  188.1100  177.8420  143.3520 C   0  0  0  0  0  0  0  0  0  0  0  0
  190.6310  176.8830  147.6010 C   0  0  0  0  0  2  0  0  0  0  0  0
  191.5830  176.0030  146.7950 C   0  0  0  0  0  2  0  0  0  0  0  0
  189.1670  177.6520  141.1600 C   0  0  0  0  0  0  0  0  0  0  0  0
  187.9340  178.0180  140.5710 C   0  0  0  0  0  0  0  0  0  0  0  0
  185.7500  178.4750  143.4580 C   0  0  0  0  0  0  0  0  0  0  0  0
  187.0070  178.1290  145.5040 C   0  0  0  0  0  3  0  0  0  0  0  0
  190.1330  177.4720  138.9290 C   0  0  0  0  0  0  0  0  0  0  0  0
  184.6170  178.7590  145.6620 C   0  0  0  0  0  3  0  0  0  0  0  0
  189.2800  176.9870  146.8980 C   0  0  0  0  0  2  0  0  0  0  0  0
  188.1550  177.8010  144.7690 C   0  0  0  0  0  0  0  0  0  0  0  0
  189.4650  177.5670  145.4910 C   0  0  2  0  0  3  0  0  0  0  0  0
  190.5040  177.1350  143.2700 C   0  0  0  0  0  0  0  0  0  0  0  0
  188.9120  177.8420  138.3620 C   0  0  0  0  0  3  0  0  0  0  0  0
  185.8120  178.4420  144.8630 C   0  0  0  0  0  0  0  0  0  0  0  0
  187.8150  178.1120  139.1810 C   0  0  0  0  0  3  0  0  0  0  0  0
  184.4760  178.9300  142.7910 C   0  0  0  0  0  2  0  0  0  0  0  0
  183.2460  178.5370  143.6180 C   0  0  2  0  0  3  0  0  0  0  0  0
  191.7590  176.5620  145.3860 C   0  0  0  0  0  2  0  0  0  0  0  0
  190.3990  176.6550  144.6880 C   0  0  1  0  0  3  0  0  0  0  0  0
  191.6200  177.1290  142.6800 O   0  0  0  0  0  0  0  0  0  0  0  0
  186.8990  178.1930  142.7040 C   0  0  0  0  0  0  0  0  0  0  0  0
  186.8530  178.2700  141.3480 N   0  0  0  0  0  0  0  0  0  0  0  0
  191.1960  177.2070  138.1340 F   0  0  0  0  0  0  0  0  0  0  0  0
  189.2580  177.5580  142.5710 C   0  0  0  0  0  0  0  0  0  0  0  0
  190.2570  177.3770  140.3170 C   0  0  0  0  0  3  0  0  0  0  0  0
  181.9650  179.1440  143.0560 C   0  0  0  0  0  2  0  0  0  0  0  0
  181.5970  178.5590  141.6970 C   0  0  0  0  0  2  0  0  0  0  0  0
  179.8310  178.1950  141.6090 S   0  0  1  0  0  0  0  0  0  0  0  0
  179.7260  176.6880  140.6280 C   0  0  0  0  0  1  0  0  0  0  0  0
  179.4770  177.7330  143.0160 O   0  0  0  0  0  0  0  0  0  0  0  0
  1 10  2  0  0  0  0
  2 12  2  0  0  0  0
  4  3  1  0  0  0  0
  5 26  2  0  0  0  0
  6  5  1  0  0  0  0
  6 24  2  0  0  0  0
  7 16  1  0  0  0  0
  9 27  2  0  0  0  0
 11  3  1  0  0  0  0
 12 13  1  0  0  0  0
 12  8  1  0  0  0  0
 13 11  1  1  0  0  0
 14 21  1  0  0  0  0
 15  9  1  0  0  0  0
 15 17  2  0  0  0  0
 16  8  2  0  0  0  0
 16 10  1  0  0  0  0
 17  6  1  0  0  0  0
 18  7  1  0  0  0  0
 18 19  1  0  0  0  0
 19 28  1  6  0  0  0
 19  1  1  0  0  0  0
 20  4  1  0  0  0  0
 21 20  1  1  0  0  0
 21 13  1  0  0  0  0
 22 14  2  0  0  0  0
 23  2  1  0  0  0  0
 23  7  2  0  0  0  0
 24 23  1  0  0  0  0
 25  9  1  0  0  0  0
 26 14  1  0  0  0  0
 26  2  1  0  0  0  0
 27  5  1  0  0  0  0
 29 28  1  0  0  0  0
 30 31  1  6  0  0  0
 30 29  1  0  0  0  0
 30 32  2  0  0  0  0
M  END
>  <MODEL>
1

>  <REMARK>
 VINA RESULT:     -12.1      0.000      0.000
  Name = 
  3 active torsions:
  status: ('A' for Active; 'I' for Inactive)
    1  A    between atoms: S_1  and  C_10
    2  A    between atoms: C_10  and  C_19
    3  A    between atoms: C_19  and  C_24
                            x       y       z     vdW  Elec       q    Type
                         _______ _______ _______ _____ _____    ______ ____

>  <TORSDO>
F 3

$$$$
=
 OpenBabel11052416513D

 32 37  0  0  1  0  0  0  0  0999 V2000
  190.6890  177.4380  138.7460 C   0  0  0  0  0  3  0  0  0  0  0  0
  188.2940  177.5610  143.2490 C   0  0  0  0  0  0  0  0  0  0  0  0
  191.9250  176.1330  146.4280 C   0  0  0  0  0  2  0  0  0  0  0  0
  191.2190  176.9200  147.5300 C   0  0  0  0  0  2  0  0  0  0  0  0
  186.0740  178.2040  144.0370 C   0  0  0  0  0  0  0  0  0  0  0  0
  185.7080  178.4580  142.6950 C   0  0  0  0  0  0  0  0  0  0  0  0
  188.7530  177.6610  140.8480 C   0  0  0  0  0  0  0  0  0  0  0  0
  190.4560  176.8590  142.3780 C   0  0  0  0  0  3  0  0  0  0  0  0
  183.8390  178.8800  144.7330 C   0  0  0  0  0  0  0  0  0  0  0  0
  190.9720  176.9530  139.9570 C   0  0  0  0  0  3  0  0  0  0  0  0
  191.5580  176.6940  145.0560 C   0  0  0  0  0  2  0  0  0  0  0  0
  189.6070  177.0740  143.4720 C   0  0  0  0  0  0  0  0  0  0  0  0
  190.0390  176.6320  144.8540 C   0  0  2  0  0  3  0  0  0  0  0  0
  187.8700  177.5060  145.7100 C   0  0  0  0  0  0  0  0  0  0  0  0
  183.4880  179.1190  143.4030 C   0  0  0  0  0  3  0  0  0  0  0  0
  190.0480  177.1660  141.0830 C   0  0  0  0  0  0  0  0  0  0  0  0
  184.4210  178.9100  142.3870 C   0  0  0  0  0  3  0  0  0  0  0  0
  188.2960  177.8760  139.4270 C   0  0  0  0  0  2  0  0  0  0  0  0
  189.4660  178.2900  138.5260 C   0  0  2  0  0  3  0  0  0  0  0  0
  189.7070  176.8790  147.3260 C   0  0  0  0  0  2  0  0  0  0  0  0
  189.3510  177.4510  145.9510 C   0  0  1  0  0  3  0  0  0  0  0  0
  187.0660  177.3930  146.6750 O   0  0  0  0  0  0  0  0  0  0  0  0
  187.8710  177.8420  141.9250 C   0  0  0  0  0  0  0  0  0  0  0  0
  186.6040  178.2750  141.6950 N   0  0  0  0  0  0  0  0  0  0  0  0
  182.9340  179.0860  145.7200 F   0  0  0  0  0  0  0  0  0  0  0  0
  187.3870  177.7530  144.3210 C   0  0  0  0  0  0  0  0  0  0  0  0
  185.1230  178.4280  145.0460 C   0  0  0  0  0  3  0  0  0  0  0  0
  189.0630  178.3350  137.0550 C   0  0  0  0  0  2  0  0  0  0  0  0
  187.5700  178.5850  136.8730 C   0  0  0  0  0  2  0  0  0  0  0  0
  186.7860  177.2060  136.0100 S   0  0  1  0  0  0  0  0  0  0  0  0
  188.0330  175.9070  136.0020 C   0  0  0  0  0  1  0  0  0  0  0  0
  185.7420  176.6970  136.9940 O   0  0  0  0  0  0  0  0  0  0  0  0
  1 10  2  0  0  0  0
  2 12  1  0  0  0  0
  2 26  1  0  0  0  0
  3  4  1  0  0  0  0
  5 26  2  0  0  0  0
  5 27  1  0  0  0  0
  6  5  1  0  0  0  0
  7 16  2  0  0  0  0
  7 23  1  0  0  0  0
  8 12  2  0  0  0  0
  9 27  2  0  0  0  0
  9 25  1  0  0  0  0
 10 16  1  0  0  0  0
 11  3  1  0  0  0  0
 12 13  1  0  0  0  0
 13 11  1  6  0  0  0
 13 21  1  0  0  0  0
 14 21  1  0  0  0  0
 14 22  2  0  0  0  0
 15  9  1  0  0  0  0
 16  8  1  0  0  0  0
 17  6  1  0  0  0  0
 17 15  2  0  0  0  0
 18  7  1  0  0  0  0
 19 28  1  6  0  0  0
 19  1  1  0  0  0  0
 19 18  1  0  0  0  0
 20  4  1  0  0  0  0
 21 20  1  1  0  0  0
 23  2  2  0  0  0  0
 24 23  1  0  0  0  0
 24  6  2  0  0  0  0
 26 14  1  0  0  0  0
 29 28  1  0  0  0  0
 30 31  1  1  0  0  0
 30 29  1  0  0  0  0
 30 32  2  0  0  0  0
M  END
>  <MODEL>
2

>  <REMARK>
 VINA RESULT:     -12.0      3.391      6.076
  Name = 
  3 active torsions:
  status: ('A' for Active; 'I' for Inactive)
    1  A    between atoms: S_1  and  C_10
    2  A    between atoms: C_10  and  C_19
    3  A    between atoms: C_19  and  C_24
                            x       y       z     vdW  Elec       q    Type
                         _______ _______ _______ _____ _____    ______ ____

>  <TORSDO>
F 3

$$$$
=
 OpenBabel11052416513D

 32 37  0  0  1  0  0  0  0  0999 V2000
  183.3320  178.8540  144.7340 C   0  0  0  0  0  3  0  0  0  0  0  0
  188.1170  177.8490  143.2770 C   0  0  0  0  0  0  0  0  0  0  0  0
  190.4200  177.0260  147.6750 C   0  0  0  0  0  2  0  0  0  0  0  0
  191.4200  176.1340  146.9430 C   0  0  0  0  0  2  0  0  0  0  0  0
  189.2880  177.6120  141.1480 C   0  0  0  0  0  0  0  0  0  0  0  0
  188.0840  177.9500  140.4870 C   0  0  0  0  0  0  0  0  0  0  0  0
  185.7490  178.4620  143.2440 C   0  0  0  0  0  0  0  0  0  0  0  0
  186.9010  178.1810  145.3600 C   0  0  0  0  0  3  0  0  0  0  0  0
  190.3700  177.3830  138.9770 C   0  0  0  0  0  0  0  0  0  0  0  0
  184.5000  178.7920  145.3780 C   0  0  0  0  0  3  0  0  0  0  0  0
  189.1070  177.0990  146.9010 C   0  0  0  0  0  2  0  0  0  0  0  0
  188.0880  177.8450  144.6950 C   0  0  0  0  0  0  0  0  0  0  0  0
  189.3600  177.6440  145.4900 C   0  0  2  0  0  3  0  0  0  0  0  0
  190.5180  177.1630  143.3380 C   0  0  0  0  0  0  0  0  0  0  0  0
  189.1780  177.7260  138.3370 C   0  0  0  0  0  3  0  0  0  0  0  0
  185.7380  178.4670  144.6500 C   0  0  0  0  0  0  0  0  0  0  0  0
  188.0370  178.0070  139.0900 C   0  0  0  0  0  3  0  0  0  0  0  0
  184.5080  178.8880  142.4990 C   0  0  0  0  0  2  0  0  0  0  0  0
  183.2400  178.5040  143.2720 C   0  0  2  0  0  3  0  0  0  0  0  0
  191.6650  176.6580  145.5310 C   0  0  0  0  0  2  0  0  0  0  0  0
  190.3430  176.7200  144.7620 C   0  0  1  0  0  3  0  0  0  0  0  0
  191.6620  177.1530  142.8070 O   0  0  0  0  0  0  0  0  0  0  0  0
  186.9380  178.1710  142.5570 C   0  0  0  0  0  0  0  0  0  0  0  0
  186.9630  178.2130  141.2000 N   0  0  0  0  0  0  0  0  0  0  0  0
  191.4760  177.1080  138.2450 F   0  0  0  0  0  0  0  0  0  0  0  0
  189.3060  177.5550  142.5640 C   0  0  0  0  0  0  0  0  0  0  0  0
  190.4230  177.3250  140.3710 C   0  0  0  0  0  3  0  0  0  0  0  0
  181.9850  179.0840  142.6280 C   0  0  0  0  0  2  0  0  0  0  0  0
  181.5800  178.3270  141.3670 C   0  0  0  0  0  2  0  0  0  0  0  0
  181.5830  179.4200  139.9310 S   0  0  1  0  0  0  0  0  0  0  0  0
  183.0500  178.9450  139.0010 C   0  0  0  0  0  1  0  0  0  0  0  0
  180.4320  178.9090  139.0740 O   0  0  0  0  0  0  0  0  0  0  0  0
  1 10  2  0  0  0  0
  2 12  2  0  0  0  0
  4  3  1  0  0  0  0
  5 26  2  0  0  0  0
  6  5  1  0  0  0  0
  6 24  2  0  0  0  0
  7 16  1  0  0  0  0
  9 27  2  0  0  0  0
 11  3  1  0  0  0  0
 12  8  1  0  0  0  0
 12 13  1  0  0  0  0
 13 11  1  1  0  0  0
 14 21  1  0  0  0  0
 15  9  1  0  0  0  0
 15 17  2  0  0  0  0
 16  8  2  0  0  0  0
 16 10  1  0  0  0  0
 17  6  1  0  0  0  0
 18  7  1  0  0  0  0
 18 19  1  0  0  0  0
 19 28  1  6  0  0  0
 19  1  1  0  0  0  0
 20  4  1  0  0  0  0
 21 13  1  0  0  0  0
 21 20  1  1  0  0  0
 22 14  2  0  0  0  0
 23  7  2  0  0  0  0
 23  2  1  0  0  0  0
 24 23  1  0  0  0  0
 25  9  1  0  0  0  0
 26  2  1  0  0  0  0
 26 14  1  0  0  0  0
 27  5  1  0  0  0  0
 29 28  1  0  0  0  0
 30 31  1  6  0  0  0
 30 29  1  0  0  0  0
 32 30  2  0  0  0  0
M  END
>  <MODEL>
3

>  <REMARK>
 VINA RESULT:     -11.7      1.067      1.195
  Name = 
  3 active torsions:
  status: ('A' for Active; 'I' for Inactive)
    1  A    between atoms: S_1  and  C_10
    2  A    between atoms: C_10  and  C_19
    3  A    between atoms: C_19  and  C_24
                            x       y       z     vdW  Elec       q    Type
                         _______ _______ _______ _____ _____    ______ ____

>  <TORSDO>
F 3

$$$$
=
 OpenBabel11052416513D

 32 37  0  0  1  0  0  0  0  0999 V2000
  190.6380  177.4960  139.8490 C   0  0  0  0  0  3  0  0  0  0  0  0
  187.1780  177.8690  143.5800 C   0  0  0  0  0  0  0  0  0  0  0  0
  189.9690  177.1270  147.7020 C   0  0  0  0  0  2  0  0  0  0  0  0
  188.9590  177.9560  148.4910 C   0  0  0  0  0  2  0  0  0  0  0  0
  184.7950  178.3830  143.7160 C   0  0  0  0  0  0  0  0  0  0  0  0
  184.7650  178.4590  142.3040 C   0  0  0  0  0  0  0  0  0  0  0  0
  188.2220  177.7590  141.3710 C   0  0  0  0  0  0  0  0  0  0  0  0
  189.5300  177.2830  143.3580 C   0  0  0  0  0  3  0  0  0  0  0  0
  182.4180  178.9180  143.7560 C   0  0  0  0  0  0  0  0  0  0  0  0
  190.6350  177.1690  141.1440 C   0  0  0  0  0  3  0  0  0  0  0  0
  189.9260  177.5030  146.2230 C   0  0  0  0  0  2  0  0  0  0  0  0
  188.4190  177.5320  144.1760 C   0  0  0  0  0  0  0  0  0  0  0  0
  188.5150  177.2800  145.6660 C   0  0  2  0  0  3  0  0  0  0  0  0
  186.1490  178.0350  145.8500 C   0  0  0  0  0  0  0  0  0  0  0  0
  182.4000  178.9820  142.3610 C   0  0  0  0  0  3  0  0  0  0  0  0
  189.4450  177.4130  141.9750 C   0  0  0  0  0  0  0  0  0  0  0  0
  183.5710  178.7550  141.6380 C   0  0  0  0  0  3  0  0  0  0  0  0
  188.1270  177.7790  139.8660 C   0  0  0  0  0  2  0  0  0  0  0  0
  189.4590  178.2030  139.2330 C   0  0  2  0  0  3  0  0  0  0  0  0
  187.5530  177.7550  147.9310 C   0  0  0  0  0  2  0  0  0  0  0  0
  187.5210  178.1430  146.4500 C   0  0  1  0  0  3  0  0  0  0  0  0
  185.1350  177.9500  146.5970 O   0  0  0  0  0  0  0  0  0  0  0  0
  187.0870  177.9690  142.1680 C   0  0  0  0  0  0  0  0  0  0  0  0
  185.8940  178.2560  141.5840 N   0  0  0  0  0  0  0  0  0  0  0  0
  181.2810  179.1420  144.4580 F   0  0  0  0  0  0  0  0  0  0  0  0
  186.0190  178.0880  144.3660 C   0  0  0  0  0  0  0  0  0  0  0  0
  183.6070  178.6230  144.4260 C   0  0  0  0  0  3  0  0  0  0  0  0
  189.4390  178.0550  137.7150 C   0  0  0  0  0  2  0  0  0  0  0  0
  190.3160  176.9030  137.2360 C   0  0  0  0  0  2  0  0  0  0  0  0
  189.3180  175.4470  136.8580 S   0  0  1  0  0  0  0  0  0  0  0  0
  189.6550  175.1030  135.1220 C   0  0  0  0  0  1  0  0  0  0  0  0
  190.0220  174.3140  137.5920 O   0  0  0  0  0  0  0  0  0  0  0  0
  1 10  2  0  0  0  0
  2 12  1  0  0  0  0
  2 26  1  0  0  0  0
  3  4  1  0  0  0  0
  5 26  2  0  0  0  0
  5 27  1  0  0  0  0
  6  5  1  0  0  0  0
  7 16  2  0  0  0  0
  7 23  1  0  0  0  0
  8 12  2  0  0  0  0
  9 27  2  0  0  0  0
  9 25  1  0  0  0  0
 10 16  1  0  0  0  0
 11  3  1  0  0  0  0
 12 13  1  0  0  0  0
 13 11  1  1  0  0  0
 13 21  1  0  0  0  0
 14 21  1  0  0  0  0
 14 22  2  0  0  0  0
 15  9  1  0  0  0  0
 16  8  1  0  0  0  0
 17  6  1  0  0  0  0
 17 15  2  0  0  0  0
 18  7  1  0  0  0  0
 19 28  1  6  0  0  0
 19  1  1  0  0  0  0
 19 18  1  0  0  0  0
 20  4  1  0  0  0  0
 21 20  1  1  0  0  0
 23  2  2  0  0  0  0
 24 23  1  0  0  0  0
 24  6  2  0  0  0  0
 26 14  1  0  0  0  0
 29 28  1  0  0  0  0
 30 31  1  6  0  0  0
 30 29  1  0  0  0  0
 30 32  2  0  0  0  0
M  END
>  <MODEL>
4

>  <REMARK>
 VINA RESULT:     -11.6      3.501      6.673
  Name = 
  3 active torsions:
  status: ('A' for Active; 'I' for Inactive)
    1  A    between atoms: S_1  and  C_10
    2  A    between atoms: C_10  and  C_19
    3  A    between atoms: C_19  and  C_24
                            x       y       z     vdW  Elec       q    Type
                         _______ _______ _______ _____ _____    ______ ____

>  <TORSDO>
F 3

$$$$
=
 OpenBabel11052416513D

 32 37  0  0  1  0  0  0  0  0999 V2000
  188.6390  177.6990  137.8640 C   0  0  0  0  0  3  0  0  0  0  0  0
  188.0230  177.8430  142.9260 C   0  0  0  0  0  0  0  0  0  0  0  0
  183.2410  179.3460  143.3760 C   0  0  0  0  0  2  0  0  0  0  0  0
  183.1800  178.6280  144.7220 C   0  0  0  0  0  2  0  0  0  0  0  0
  189.3840  177.2850  144.8750 C   0  0  0  0  0  0  0  0  0  0  0  0
  190.4500  176.9750  143.9990 C   0  0  0  0  0  0  0  0  0  0  0  0
  189.0200  177.6180  140.7040 C   0  0  0  0  0  0  0  0  0  0  0  0
  186.7560  178.4570  140.9400 C   0  0  0  0  0  3  0  0  0  0  0  0
  190.8100  176.6900  146.7590 C   0  0  0  0  0  0  0  0  0  0  0  0
  187.7190  178.2360  138.6680 C   0  0  0  0  0  3  0  0  0  0  0  0
  184.3210  178.7280  142.4930 C   0  0  0  0  0  2  0  0  0  0  0  0
  186.8240  178.3130  142.3330 C   0  0  0  0  0  0  0  0  0  0  0  0
  185.6820  178.8110  143.1930 C   0  0  2  0  0  3  0  0  0  0  0  0
  186.9610  178.0250  145.1800 C   0  0  0  0  0  0  0  0  0  0  0  0
  191.8580  176.3950  145.8840 C   0  0  0  0  0  3  0  0  0  0  0  0
  187.8290  178.0970  140.1300 C   0  0  0  0  0  0  0  0  0  0  0  0
  191.6770  176.5350  144.5070 C   0  0  0  0  0  3  0  0  0  0  0  0
  190.2060  177.3450  139.8140 C   0  0  0  0  0  2  0  0  0  0  0  0
  189.7590  176.8640  138.4280 C   0  0  2  0  0  3  0  0  0  0  0  0
  184.5360  178.6900  145.4200 C   0  0  0  0  0  2  0  0  0  0  0  0
  185.6100  178.0600  144.5270 C   0  0  1  0  0  3  0  0  0  0  0  0
  187.0690  178.2010  146.4250 O   0  0  0  0  0  0  0  0  0  0  0  0
  189.1250  177.5080  142.0990 C   0  0  0  0  0  0  0  0  0  0  0  0
  190.2900  177.0910  142.6590 N   0  0  0  0  0  0  0  0  0  0  0  0
  190.9850  176.5510  148.0950 F   0  0  0  0  0  0  0  0  0  0  0  0
  188.1490  177.7220  144.3330 C   0  0  0  0  0  0  0  0  0  0  0  0
  189.5830  177.1300  146.2570 C   0  0  0  0  0  3  0  0  0  0  0  0
  190.9310  176.7570  137.4570 C   0  0  0  0  0  2  0  0  0  0  0  0
  191.6150  175.3960  137.5260 C   0  0  0  0  0  2  0  0  0  0  0  0
  193.4010  175.5810  137.7090 S   0  0  1  0  0  0  0  0  0  0  0  0
  193.9550  176.2400  136.1280 C   0  0  0  0  0  1  0  0  0  0  0  0
  193.5560  176.7570  138.6640 O   0  0  0  0  0  0  0  0  0  0  0  0
  1 19  1  0  0  0  0
  1 10  2  0  0  0  0
  2 26  1  0  0  0  0
  3  4  1  0  0  0  0
  4 20  1  0  0  0  0
  5 27  1  0  0  0  0
  6 17  1  0  0  0  0
  6  5  1  0  0  0  0
  7 23  1  0  0  0  0
  8 12  2  0  0  0  0
  9 25  1  0  0  0  0
 10 16  1  0  0  0  0
 11  3  1  0  0  0  0
 12  2  1  0  0  0  0
 12 13  1  0  0  0  0
 13 11  1  6  0  0  0
 13 21  1  0  0  0  0
 14 22  2  0  0  0  0
 15  9  1  0  0  0  0
 16  7  2  0  0  0  0
 16  8  1  0  0  0  0
 17 15  2  0  0  0  0
 18  7  1  0  0  0  0
 19 28  1  6  0  0  0
 19 18  1  0  0  0  0
 21 14  1  0  0  0  0
 21 20  1  1  0  0  0
 23 24  1  0  0  0  0
 23  2  2  0  0  0  0
 24  6  2  0  0  0  0
 26  5  2  0  0  0  0
 26 14  1  0  0  0  0
 27  9  2  0  0  0  0
 28 29  1  0  0  0  0
 29 30  1  0  0  0  0
 30 31  1  6  0  0  0
 30 32  2  0  0  0  0
M  END
>  <MODEL>
5

>  <REMARK>
 VINA RESULT:     -11.4      3.767      7.817
  Name = 
  3 active torsions:
  status: ('A' for Active; 'I' for Inactive)
    1  A    between atoms: S_1  and  C_10
    2  A    between atoms: C_10  and  C_19
    3  A    between atoms: C_19  and  C_24
                            x       y       z     vdW  Elec       q    Type
                         _______ _______ _______ _____ _____    ______ ____

>  <TORSDO>
F 3

$$$$
=
 OpenBabel11052416513D

 32 37  0  0  1  0  0  0  0  0999 V2000
  182.3920  178.9700  143.6950 C   0  0  0  0  0  3  0  0  0  0  0  0
  187.3960  178.0390  143.3450 C   0  0  0  0  0  0  0  0  0  0  0  0
  188.7220  177.5070  148.1710 C   0  0  0  0  0  2  0  0  0  0  0  0
  189.8720  176.6100  147.7190 C   0  0  0  0  0  2  0  0  0  0  0  0
  189.0000  177.7320  141.5300 C   0  0  0  0  0  0  0  0  0  0  0  0
  187.9590  178.0000  140.6110 C   0  0  0  0  0  0  0  0  0  0  0  0
  185.0790  178.5780  142.7760 C   0  0  0  0  0  0  0  0  0  0  0  0
  185.7570  178.4380  145.1010 C   0  0  0  0  0  3  0  0  0  0  0  0
  190.5250  177.4280  139.6540 C   0  0  0  0  0  0  0  0  0  0  0  0
  183.3970  178.9760  144.5740 C   0  0  0  0  0  3  0  0  0  0  0  0
  187.6030  177.5010  147.1320 C   0  0  0  0  0  2  0  0  0  0  0  0
  187.0650  178.1050  144.7230 C   0  0  0  0  0  0  0  0  0  0  0  0
  188.1420  177.9830  145.7800 C   0  0  2  0  0  3  0  0  0  0  0  0
  189.7410  177.4310  143.9530 C   0  0  0  0  0  0  0  0  0  0  0  0
  189.4910  177.7020  138.7570 C   0  0  0  0  0  3  0  0  0  0  0  0
  184.7680  178.6520  144.1450 C   0  0  0  0  0  0  0  0  0  0  0  0
  188.2110  177.9860  139.2350 C   0  0  0  0  0  3  0  0  0  0  0  0
  184.0190  178.9280  141.7620 C   0  0  0  0  0  2  0  0  0  0  0  0
  182.6220  178.5460  142.2670 C   0  0  2  0  0  3  0  0  0  0  0  0
  190.4030  177.0710  146.3640 C   0  0  0  0  0  2  0  0  0  0  0  0
  189.2750  177.0540  145.3290 C   0  0  1  0  0  3  0  0  0  0  0  0
  190.9730  177.4280  143.6780 O   0  0  0  0  0  0  0  0  0  0  0  0
  186.3930  178.2900  142.3750 C   0  0  0  0  0  0  0  0  0  0  0  0
  186.7060  178.2640  141.0530 N   0  0  0  0  0  0  0  0  0  0  0  0
  191.7670  177.1500  139.1900 F   0  0  0  0  0  0  0  0  0  0  0  0
  188.7160  177.7470  142.9180 C   0  0  0  0  0  0  0  0  0  0  0  0
  190.2800  177.4410  141.0290 C   0  0  0  0  0  3  0  0  0  0  0  0
  181.5230  179.0540  141.3410 C   0  0  0  0  0  2  0  0  0  0  0  0
  181.6520  178.4930  139.9290 C   0  0  0  0  0  2  0  0  0  0  0  0
  181.1340  176.7650  139.8720 S   0  0  1  0  0  0  0  0  0  0  0  0
  180.3980  176.5640  138.2410 C   0  0  0  0  0  1  0  0  0  0  0  0
  182.4410  175.9890  139.7750 O   0  0  0  0  0  0  0  0  0  0  0  0
  1 10  2  0  0  0  0
  2 12  2  0  0  0  0
  4  3  1  0  0  0  0
  5 26  2  0  0  0  0
  6 24  2  0  0  0  0
  6  5  1  0  0  0  0
  7 16  1  0  0  0  0
  9 27  2  0  0  0  0
 11  3  1  0  0  0  0
 12  8  1  0  0  0  0
 12 13  1  0  0  0  0
 13 11  1  1  0  0  0
 14 21  1  0  0  0  0
 15 17  2  0  0  0  0
 15  9  1  0  0  0  0
 16 10  1  0  0  0  0
 16  8  2  0  0  0  0
 17  6  1  0  0  0  0
 18 19  1  0  0  0  0
 18  7  1  0  0  0  0
 19 28  1  6  0  0  0
 19  1  1  0  0  0  0
 20  4  1  0  0  0  0
 21 13  1  0  0  0  0
 21 20  1  1  0  0  0
 22 14  2  0  0  0  0
 23  7  2  0  0  0  0
 23  2  1  0  0  0  0
 24 23  1  0  0  0  0
 25  9  1  0  0  0  0
 26  2  1  0  0  0  0
 26 14  1  0  0  0  0
 27  5  1  0  0  0  0
 29 28  1  0  0  0  0
 30 31  1  6  0  0  0
 30 29  1  0  0  0  0
 32 30  2  0  0  0  0
M  END
>  <MODEL>
6

>  <REMARK>
 VINA RESULT:     -11.3      1.384      1.606
  Name = 
  3 active torsions:
  status: ('A' for Active; 'I' for Inactive)
    1  A    between atoms: S_1  and  C_10
    2  A    between atoms: C_10  and  C_19
    3  A    between atoms: C_19  and  C_24
                            x       y       z     vdW  Elec       q    Type
                         _______ _______ _______ _____ _____    ______ ____

>  <TORSDO>
F 3

$$$$
=
 OpenBabel11052416513D

 32 37  0  0  1  0  0  0  0  0999 V2000
  181.9140  178.9200  142.4190 C   0  0  0  0  0  3  0  0  0  0  0  0
  186.9300  178.1200  142.8930 C   0  0  0  0  0  0  0  0  0  0  0  0
  187.4920  177.7960  147.8840 C   0  0  0  0  0  2  0  0  0  0  0  0
  188.7190  176.9170  147.6520 C   0  0  0  0  0  2  0  0  0  0  0  0
  188.8060  177.7940  141.3640 C   0  0  0  0  0  0  0  0  0  0  0  0
  187.9170  178.0000  140.2840 C   0  0  0  0  0  0  0  0  0  0  0  0
  184.7200  178.5720  141.9480 C   0  0  0  0  0  0  0  0  0  0  0  0
  185.0270  178.5340  144.3540 C   0  0  0  0  0  3  0  0  0  0  0  0
  190.6140  177.4670  139.7630 C   0  0  0  0  0  0  0  0  0  0  0  0
  182.7670  178.9860  143.4440 C   0  0  0  0  0  3  0  0  0  0  0  0
  186.5510  177.7220  146.6840 C   0  0  0  0  0  2  0  0  0  0  0  0
  186.3860  178.2250  144.1980 C   0  0  0  0  0  0  0  0  0  0  0  0
  187.2850  178.1710  145.4150 C   0  0  2  0  0  3  0  0  0  0  0  0
  189.1640  177.6000  143.8830 C   0  0  0  0  0  0  0  0  0  0  0  0
  189.7270  177.6800  138.7060 C   0  0  0  0  0  3  0  0  0  0  0  0
  184.1960  178.6860  143.2480 C   0  0  0  0  0  0  0  0  0  0  0  0
  188.3820  177.9440  138.9660 C   0  0  0  0  0  3  0  0  0  0  0  0
  183.8250  178.8560  140.7680 C   0  0  0  0  0  2  0  0  0  0  0  0
  182.3740  178.4520  141.0630 C   0  0  2  0  0  3  0  0  0  0  0  0
  189.4460  177.3440  146.3800 C   0  0  0  0  0  2  0  0  0  0  0  0
  188.4950  177.2590  145.1830 C   0  0  1  0  0  3  0  0  0  0  0  0
  190.4230  177.6230  143.8050 O   0  0  0  0  0  0  0  0  0  0  0  0
  186.0870  178.3070  141.7690 C   0  0  0  0  0  0  0  0  0  0  0  0
  186.6040  178.2430  140.5140 N   0  0  0  0  0  0  0  0  0  0  0  0
  191.9190  177.2080  139.5100 F   0  0  0  0  0  0  0  0  0  0  0  0
  188.3070  177.8500  142.6890 C   0  0  0  0  0  0  0  0  0  0  0  0
  190.1550  177.5220  141.0810 C   0  0  0  0  0  3  0  0  0  0  0  0
  181.4230  178.8960  139.9570 C   0  0  0  0  0  2  0  0  0  0  0  0
  181.9790  180.0670  139.1530 C   0  0  0  0  0  2  0  0  0  0  0  0
  180.7230  180.7440  138.0480 S   0  0  1  0  0  0  0  0  0  0  0  0
  181.1630  182.4810  137.8680 C   0  0  0  0  0  1  0  0  0  0  0  0
  181.0620  180.1440  136.6900 O   0  0  0  0  0  0  0  0  0  0  0  0
  1 10  2  0  0  0  0
  2 12  2  0  0  0  0
  4  3  1  0  0  0  0
  5 26  2  0  0  0  0
  6 24  2  0  0  0  0
  6  5  1  0  0  0  0
  7 16  1  0  0  0  0
  9 27  2  0  0  0  0
 11  3  1  0  0  0  0
 12  8  1  0  0  0  0
 12 13  1  0  0  0  0
 13 11  1  1  0  0  0
 14 21  1  0  0  0  0
 15 17  2  0  0  0  0
 15  9  1  0  0  0  0
 16 10  1  0  0  0  0
 16  8  2  0  0  0  0
 17  6  1  0  0  0  0
 18 19  1  0  0  0  0
 18  7  1  0  0  0  0
 19 28  1  6  0  0  0
 19  1  1  0  0  0  0
 20  4  1  0  0  0  0
 21 13  1  0  0  0  0
 21 20  1  1  0  0  0
 22 14  2  0  0  0  0
 23  7  2  0  0  0  0
 23  2  1  0  0  0  0
 24 23  1  0  0  0  0
 25  9  1  0  0  0  0
 26  2  1  0  0  0  0
 26 14  1  0  0  0  0
 27  5  1  0  0  0  0
 29 28  1  0  0  0  0
 30 31  1  6  0  0  0
 30 29  1  0  0  0  0
 32 30  2  0  0  0  0
M  END
>  <MODEL>
7

>  <REMARK>
 VINA RESULT:     -10.8      2.093      2.729
  Name = 
  3 active torsions:
  status: ('A' for Active; 'I' for Inactive)
    1  A    between atoms: S_1  and  C_10
    2  A    between atoms: C_10  and  C_19
    3  A    between atoms: C_19  and  C_24
                            x       y       z     vdW  Elec       q    Type
                         _______ _______ _______ _____ _____    ______ ____

>  <TORSDO>
F 3

$$$$
=
 OpenBabel11052416513D

 32 37  0  0  1  0  0  0  0  0999 V2000
  186.6720  178.0130  147.0390 C   0  0  0  0  0  3  0  0  0  0  0  0
  186.2600  178.1800  141.9570 C   0  0  0  0  0  0  0  0  0  0  0  0
  181.3430  179.0410  141.3130 C   0  0  0  0  0  2  0  0  0  0  0  0
  181.6720  179.7100  139.9800 C   0  0  0  0  0  2  0  0  0  0  0  0
  187.8020  178.0560  140.0680 C   0  0  0  0  0  0  0  0  0  0  0  0
  188.8560  177.8400  140.9860 C   0  0  0  0  0  0  0  0  0  0  0  0
  187.1600  177.9180  144.2160 C   0  0  0  0  0  0  0  0  0  0  0  0
  184.7750  178.2120  143.8860 C   0  0  0  0  0  3  0  0  0  0  0  0
  189.4160  177.9340  138.2460 C   0  0  0  0  0  0  0  0  0  0  0  0
  185.6400  177.9600  146.1930 C   0  0  0  0  0  3  0  0  0  0  0  0
  182.5510  179.0920  142.2450 C   0  0  0  0  0  2  0  0  0  0  0  0
  184.9570  178.3120  142.4990 C   0  0  0  0  0  0  0  0  0  0  0  0
  183.7490  178.3950  141.5900 C   0  0  2  0  0  3  0  0  0  0  0  0
  185.3240  178.5110  139.6650 C   0  0  0  0  0  0  0  0  0  0  0  0
  190.4460  177.7140  139.1620 C   0  0  0  0  0  3  0  0  0  0  0  0
  185.8600  178.0370  144.7390 C   0  0  0  0  0  0  0  0  0  0  0  0
  190.1670  177.6690  140.5290 C   0  0  0  0  0  3  0  0  0  0  0  0
  188.3030  177.6130  145.1520 C   0  0  0  0  0  2  0  0  0  0  0  0
  188.0720  178.2430  146.5310 C   0  0  2  0  0  3  0  0  0  0  0  0
  182.8760  179.0340  139.3290 C   0  0  0  0  0  2  0  0  0  0  0  0
  184.0820  179.0980  140.2700 C   0  0  1  0  0  3  0  0  0  0  0  0
  185.3880  178.3080  138.4210 O   0  0  0  0  0  0  0  0  0  0  0  0
  187.3590  177.9700  142.8270 C   0  0  0  0  0  0  0  0  0  0  0  0
  188.6080  177.8070  142.3170 N   0  0  0  0  0  0  0  0  0  0  0  0
  189.6880  177.9800  136.9200 F   0  0  0  0  0  0  0  0  0  0  0  0
  186.4840  178.2330  140.5580 C   0  0  0  0  0  0  0  0  0  0  0  0
  188.1050  178.1060  138.6970 C   0  0  0  0  0  3  0  0  0  0  0  0
  189.1220  177.7980  147.5430 C   0  0  0  0  0  2  0  0  0  0  0  0
  189.8120  176.5030  147.1280 C   0  0  0  0  0  2  0  0  0  0  0  0
  191.5550  176.7920  146.7570 S   0  0  1  0  0  0  0  0  0  0  0  0
  192.4440  175.6610  147.8410 C   0  0  0  0  0  1  0  0  0  0  0  0
  191.7460  176.1870  145.3730 O   0  0  0  0  0  0  0  0  0  0  0  0
  2 12  2  0  0  0  0
  2 23  1  0  0  0  0
  3 11  1  0  0  0  0
  4  3  1  0  0  0  0
  5 26  2  0  0  0  0
  5  6  1  0  0  0  0
  6 24  2  0  0  0  0
  7 16  1  0  0  0  0
  7 18  1  0  0  0  0
  8 16  2  0  0  0  0
  9 27  2  0  0  0  0
  9 15  1  0  0  0  0
 10  1  2  0  0  0  0
 12  8  1  0  0  0  0
 13 11  1  1  0  0  0
 13 12  1  0  0  0  0
 14 21  1  0  0  0  0
 14 26  1  0  0  0  0
 15 17  2  0  0  0  0
 16 10  1  0  0  0  0
 17  6  1  0  0  0  0
 18 19  1  0  0  0  0
 19  1  1  0  0  0  0
 19 28  1  1  0  0  0
 20  4  1  0  0  0  0
 21 20  1  6  0  0  0
 21 13  1  0  0  0  0
 22 14  2  0  0  0  0
 23  7  2  0  0  0  0
 24 23  1  0  0  0  0
 25  9  1  0  0  0  0
 26  2  1  0  0  0  0
 27  5  1  0  0  0  0
 29 28  1  0  0  0  0
 30 29  1  0  0  0  0
 30 31  1  1  0  0  0
 32 30  2  0  0  0  0
M  END
>  <MODEL>
8

>  <REMARK>
 VINA RESULT:     -10.4      3.020      6.976
  Name = 
  3 active torsions:
  status: ('A' for Active; 'I' for Inactive)
    1  A    between atoms: S_1  and  C_10
    2  A    between atoms: C_10  and  C_19
    3  A    between atoms: C_19  and  C_24
                            x       y       z     vdW  Elec       q    Type
                         _______ _______ _______ _____ _____    ______ ____

>  <TORSDO>
F 3

$$$$
=
 OpenBabel11052416513D

 32 37  0  0  1  0  0  0  0  0999 V2000
  182.6670  178.7400  141.8480 C   0  0  0  0  0  3  0  0  0  0  0  0
  187.3020  177.8870  143.8020 C   0  0  0  0  0  0  0  0  0  0  0  0
  190.0660  177.0720  139.6760 C   0  0  0  0  0  2  0  0  0  0  0  0
  191.2900  177.5680  140.4420 C   0  0  0  0  0  2  0  0  0  0  0  0
  188.2980  177.9170  146.0310 C   0  0  0  0  0  0  0  0  0  0  0  0
  187.0170  178.1970  146.5620 C   0  0  0  0  0  0  0  0  0  0  0  0
  184.9020  178.3100  143.5910 C   0  0  0  0  0  0  0  0  0  0  0  0
  186.2220  177.7960  141.6220 C   0  0  0  0  0  3  0  0  0  0  0  0
  189.2060  177.9820  148.2920 C   0  0  0  0  0  0  0  0  0  0  0  0
  183.7970  178.2270  141.3560 C   0  0  0  0  0  3  0  0  0  0  0  0
  188.7900  177.6520  140.2810 C   0  0  0  0  0  2  0  0  0  0  0  0
  187.3860  177.7040  142.3990 C   0  0  0  0  0  0  0  0  0  0  0  0
  188.6810  177.2540  141.7570 C   0  0  2  0  0  3  0  0  0  0  0  0
  189.7650  177.5120  143.9840 C   0  0  0  0  0  0  0  0  0  0  0  0
  187.9360  178.2510  148.8040 C   0  0  0  0  0  3  0  0  0  0  0  0
  184.9980  178.1140  142.2020 C   0  0  0  0  0  0  0  0  0  0  0  0
  186.8440  178.3600  147.9410 C   0  0  0  0  0  3  0  0  0  0  0  0
  183.5450  178.5380  144.2090 C   0  0  0  0  0  2  0  0  0  0  0  0
  182.6200  179.2960  143.2480 C   0  0  2  0  0  3  0  0  0  0  0  0
  191.1820  177.1910  141.9180 C   0  0  0  0  0  2  0  0  0  0  0  0
  189.9030  177.7850  142.5140 C   0  0  1  0  0  3  0  0  0  0  0  0
  190.7630  177.1260  144.6530 O   0  0  0  0  0  0  0  0  0  0  0  0
  186.0470  178.1800  144.3930 C   0  0  0  0  0  0  0  0  0  0  0  0
  185.9480  178.3210  145.7410 N   0  0  0  0  0  0  0  0  0  0  0  0
  190.2650  177.8790  149.1290 F   0  0  0  0  0  0  0  0  0  0  0  0
  188.4460  177.7630  144.6310 C   0  0  0  0  0  0  0  0  0  0  0  0
  189.3850  177.8180  146.9160 C   0  0  0  0  0  3  0  0  0  0  0  0
  181.1930  179.3780  143.7780 C   0  0  0  0  0  2  0  0  0  0  0  0
  180.2660  180.1270  142.8260 C   0  0  0  0  0  2  0  0  0  0  0  0
  178.9330  179.0560  142.2480 S   0  0  1  0  0  0  0  0  0  0  0  0
  179.1800  178.9420  140.4690 C   0  0  0  0  0  1  0  0  0  0  0  0
  179.3210  177.6740  142.7550 O   0  0  0  0  0  0  0  0  0  0  0  0
  1 19  1  0  0  0  0
  2 23  2  0  0  0  0
  2 26  1  0  0  0  0
  3 11  1  0  0  0  0
  3  4  1  0  0  0  0
  4 20  1  0  0  0  0
  5  6  1  0  0  0  0
  5 27  1  0  0  0  0
  6 17  1  0  0  0  0
  7 18  1  0  0  0  0
  7 23  1  0  0  0  0
  8 16  1  0  0  0  0
  8 12  2  0  0  0  0
  9 15  1  0  0  0  0
  9 25  1  0  0  0  0
 10  1  2  0  0  0  0
 10 16  1  0  0  0  0
 12  2  1  0  0  0  0
 13 11  1  6  0  0  0
 13 12  1  0  0  0  0
 13 21  1  0  0  0  0
 14 26  1  0  0  0  0
 14 22  2  0  0  0  0
 16  7  2  0  0  0  0
 17 15  2  0  0  0  0
 19 28  1  1  0  0  0
 19 18  1  0  0  0  0
 21 20  1  6  0  0  0
 21 14  1  0  0  0  0
 23 24  1  0  0  0  0
 24  6  2  0  0  0  0
 26  5  2  0  0  0  0
 27  9  2  0  0  0  0
 29 28  1  0  0  0  0
 30 31  1  6  0  0  0
 30 32  2  0  0  0  0
 30 29  1  0  0  0  0
M  END
>  <MODEL>
9

>  <REMARK>
 VINA RESULT:     -10.3      2.490      5.012
  Name = 
  3 active torsions:
  status: ('A' for Active; 'I' for Inactive)
    1  A    between atoms: S_1  and  C_10
    2  A    between atoms: C_10  and  C_19
    3  A    between atoms: C_19  and  C_24
                            x       y       z     vdW  Elec       q    Type
                         _______ _______ _______ _____ _____    ______ ____

>  <TORSDO>
F 3

$$$$
