=
 OpenBabel11052413023D

 31 33  0  0  1  0  0  0  0  0999 V2000
  185.4420  178.1970  143.7380 C   0  0  0  0  0  0  0  0  0  0  0  0
  184.0970  178.4660  143.1800 C   0  0  1  0  0  3  0  0  0  0  0  0
  182.5580  178.5600  141.3020 C   0  0  0  0  0  3  0  0  0  0  0  0
  183.8360  178.3080  141.8100 C   0  0  0  0  0  3  0  0  0  0  0  0
  183.3350  179.0340  145.4180 N   0  0  0  0  0  0  0  0  0  0  0  0
  180.2640  179.2190  141.6530 O   0  0  0  0  0  1  0  0  0  0  0  0
  185.6580  178.3950  145.0630 C   0  0  0  0  0  0  0  0  0  0  0  0
  181.5320  178.9700  142.1590 C   0  0  0  0  0  0  0  0  0  0  0  0
  184.6060  178.7990  145.9020 O   0  0  0  0  0  0  0  0  0  0  0  0
  183.0610  178.8770  144.0300 C   0  0  0  0  0  0  0  0  0  0  0  0
  181.7830  179.1280  143.5250 C   0  0  0  0  0  3  0  0  0  0  0  0
  186.4740  177.7760  142.8260 N   0  0  0  0  0  2  0  0  0  0  0  0
  187.8670  175.9520  143.2180 O   0  0  0  0  0  1  0  0  0  0  0  0
  187.8200  177.3450  143.1840 C   0  0  1  0  0  3  0  0  0  0  0  0
  188.8140  177.8560  142.1600 C   0  0  0  0  0  2  0  0  0  0  0  0
  188.0870  178.5870  141.0450 C   0  0  0  0  0  2  0  0  0  0  0  0
  188.4180  177.9620  139.7020 C   0  0  2  0  0  3  0  0  0  0  0  0
  189.2940  176.9110  139.8920 F   0  0  0  0  0  0  0  0  0  0  0  0
  189.0350  178.9500  138.8340 N   0  0  0  0  0  1  0  0  0  0  0  0
  187.0000  178.2310  145.6940 C   0  0  0  0  0  2  0  0  0  0  0  0
  186.8480  177.8550  147.1620 C   0  0  0  0  0  2  0  0  0  0  0  0
  188.1920  177.8620  149.1380 F   0  0  0  0  0  0  0  0  0  0  0  0
  188.1870  177.5110  147.7970 C   0  0  2  0  0  3  0  0  0  0  0  0
  189.3320  178.1920  147.0580 C   0  0  0  0  0  2  0  0  0  0  0  0
  191.6580  176.0690  144.9540 C   0  0  0  0  0  0  0  0  0  0  0  0
  192.0780  175.5930  147.2910 C   0  0  0  0  0  3  0  0  0  0  0  0
  191.9360  175.8570  143.6460 F   0  0  0  0  0  0  0  0  0  0  0  0
  190.6670  176.9850  145.3190 C   0  0  0  0  0  3  0  0  0  0  0  0
  191.0860  176.5090  147.6570 C   0  0  0  0  0  3  0  0  0  0  0  0
  190.3780  177.2040  146.6700 C   0  0  0  0  0  0  0  0  0  0  0  0
  192.3640  175.3720  145.9410 C   0  0  0  0  0  3  0  0  0  0  0  0
  1  7  2  0  0  0  0
  2  4  1  1  0  0  0
  2  1  1  0  0  0  0
  2 10  1  0  0  0  0
  3  4  2  0  0  0  0
  3  8  1  0  0  0  0
  5  9  1  0  0  0  0
  6  8  1  0  0  0  0
  7 20  1  0  0  0  0
  7  9  1  0  0  0  0
  8 11  2  0  0  0  0
 10  5  2  0  0  0  0
 11 10  1  0  0  0  0
 12 14  1  0  0  0  0
 12  1  1  0  0  0  0
 14 13  1  6  0  0  0
 15 14  1  0  0  0  0
 16 15  1  0  0  0  0
 17 19  1  6  0  0  0
 17 18  1  0  0  0  0
 17 16  1  0  0  0  0
 20 21  1  0  0  0  0
 21 23  1  0  0  0  0
 23 22  1  1  0  0  0
 24 23  1  0  0  0  0
 25 28  2  0  0  0  0
 25 31  1  0  0  0  0
 26 29  1  0  0  0  0
 27 25  1  0  0  0  0
 28 30  1  0  0  0  0
 30 24  1  0  0  0  0
 30 29  2  0  0  0  0
 31 26  2  0  0  0  0
M  END
>  <MODEL>
1

>  <REMARK>
 VINA RESULT:      -9.0      0.000      0.000
  Name = 
  10 active torsions:
  status: ('A' for Active; 'I' for Inactive)
    1  A    between atoms: C_2  and  C_13
    2  A    between atoms: C_3  and  C_9
    3  A    between atoms: C_3  and  C_22
    4  A    between atoms: C_4  and  N_12
    5  A    between atoms: C_9  and  C_23
    6  A    between atoms: N_12  and  C_27
    7  A    between atoms: C_13  and  C_28
    8  A    between atoms: C_15  and  C_21
    9  A    between atoms: C_15  and  C_23
   10  A    between atoms: C_27  and  C_28
                            x       y       z     vdW  Elec       q    Type
                         _______ _______ _______ _____ _____    ______ ____

>  <TORSDO>
F 10

$$$$
=
 OpenBabel11052413023D

 31 33  0  0  1  0  0  0  0  0999 V2000
  184.8420  178.4260  141.5630 C   0  0  0  0  0  0  0  0  0  0  0  0
  183.7940  178.3850  140.5170 C   0  0  0  0  0  0  0  0  0  0  0  0
  181.4690  178.1590  139.8500 C   0  0  0  0  0  3  0  0  0  0  0  0
  182.4460  178.1880  140.8510 C   0  0  0  0  0  3  0  0  0  0  0  0
  185.5190  178.7550  138.8430 N   0  0  0  0  0  0  0  0  0  0  0  0
  180.8620  178.3020  137.5200 O   0  0  0  0  0  1  0  0  0  0  0  0
  186.1380  178.5850  141.1920 C   0  0  0  0  0  0  0  0  0  0  0  0
  181.8330  178.3300  138.5110 C   0  0  0  0  0  0  0  0  0  0  0  0
  186.4740  178.7630  139.8400 O   0  0  0  0  0  0  0  0  0  0  0  0
  184.1480  178.5550  139.1710 C   0  0  0  0  0  0  0  0  0  0  0  0
  183.1740  178.5280  138.1710 C   0  0  0  0  0  2  0  0  0  0  0  0
  184.4310  178.2480  142.9320 N   0  0  0  0  0  2  0  0  0  0  0  0
  182.7970  178.8080  144.4920 O   0  0  0  0  0  1  0  0  0  0  0  0
  183.9260  179.2820  143.8240 C   0  0  1  0  0  3  0  0  0  0  0  0
  184.9890  179.6550  144.8370 C   0  0  0  0  0  2  0  0  0  0  0  0
  185.6530  178.4030  145.3830 C   0  0  0  0  0  2  0  0  0  0  0  0
  185.5540  178.3720  146.8970 C   0  0  2  0  0  3  0  0  0  0  0  0
  184.2700  178.0200  147.2630 F   0  0  0  0  0  0  0  0  0  0  0  0
  185.8660  179.6820  147.4410 N   0  0  0  0  0  1  0  0  0  0  0  0
  187.2660  178.5530  142.1700 C   0  0  0  0  0  2  0  0  0  0  0  0
  187.5870  177.1150  142.5520 C   0  0  0  0  0  2  0  0  0  0  0  0
  189.3610  175.6040  143.0850 F   0  0  0  0  0  0  0  0  0  0  0  0
  189.0870  176.8530  142.5520 C   0  0  2  0  0  3  0  0  0  0  0  0
  189.8280  177.9400  143.3200 C   0  0  0  0  0  2  0  0  0  0  0  0
  191.4670  176.5350  146.4330 C   0  0  0  0  0  0  0  0  0  0  0  0
  189.2970  177.4260  147.0350 C   0  0  0  0  0  3  0  0  0  0  0  0
  192.6240  175.9270  146.7850 F   0  0  0  0  0  0  0  0  0  0  0  0
  191.2490  176.9050  145.1020 C   0  0  0  0  0  3  0  0  0  0  0  0
  189.0780  177.7950  145.7050 C   0  0  0  0  0  3  0  0  0  0  0  0
  190.0530  177.5330  144.7350 C   0  0  0  0  0  0  0  0  0  0  0  0
  190.4900  176.7950  147.4000 C   0  0  0  0  0  3  0  0  0  0  0  0
  1 12  1  0  0  0  0
  2  4  2  0  0  0  0
  2  1  1  0  0  0  0
  3  4  1  0  0  0  0
  5 10  2  0  0  0  0
  5  9  1  0  0  0  0
  6  8  1  0  0  0  0
  7  1  2  0  0  0  0
  7 20  1  0  0  0  0
  8  3  2  0  0  0  0
  9  7  1  0  0  0  0
 10  2  1  0  0  0  0
 11  8  1  0  0  0  0
 11 10  1  0  0  0  0
 12 14  1  0  0  0  0
 14 13  1  1  0  0  0
 14 15  1  0  0  0  0
 15 16  1  0  0  0  0
 16 17  1  0  0  0  0
 17 18  1  6  0  0  0
 17 19  1  0  0  0  0
 20 21  1  0  0  0  0
 23 21  1  0  0  0  0
 23 22  1  1  0  0  0
 23 24  1  0  0  0  0
 24 30  1  0  0  0  0
 25 27  1  0  0  0  0
 25 31  1  0  0  0  0
 26 31  2  0  0  0  0
 28 25  2  0  0  0  0
 29 26  1  0  0  0  0
 30 28  1  0  0  0  0
 30 29  2  0  0  0  0
M  END
>  <MODEL>
2

>  <REMARK>
 VINA RESULT:      -8.8      2.288      4.790
  Name = 
  10 active torsions:
  status: ('A' for Active; 'I' for Inactive)
    1  A    between atoms: C_2  and  C_13
    2  A    between atoms: C_3  and  C_9
    3  A    between atoms: C_3  and  C_22
    4  A    between atoms: C_4  and  N_12
    5  A    between atoms: C_9  and  C_23
    6  A    between atoms: N_12  and  C_27
    7  A    between atoms: C_13  and  C_28
    8  A    between atoms: C_15  and  C_21
    9  A    between atoms: C_15  and  C_23
   10  A    between atoms: C_27  and  C_28
                            x       y       z     vdW  Elec       q    Type
                         _______ _______ _______ _____ _____    ______ ____

>  <TORSDO>
F 10

$$$$
=
 OpenBabel11052413023D

 31 33  0  0  1  0  0  0  0  0999 V2000
  189.2500  177.8110  140.4960 C   0  0  0  0  0  0  0  0  0  0  0  0
  189.9270  177.3140  139.2760 C   0  0  0  0  0  0  0  0  0  0  0  0
  191.8610  176.3520  138.1650 C   0  0  0  0  0  3  0  0  0  0  0  0
  191.2410  176.8230  139.3260 C   0  0  0  0  0  3  0  0  0  0  0  0
  187.9150  177.8250  138.0100 N   0  0  0  0  0  0  0  0  0  0  0  0
  191.7910  175.8980  135.7960 O   0  0  0  0  0  1  0  0  0  0  0  0
  187.9920  178.3090  140.3950 C   0  0  0  0  0  0  0  0  0  0  0  0
  191.1730  176.3670  136.9480 C   0  0  0  0  0  0  0  0  0  0  0  0
  187.3210  178.3040  139.1610 O   0  0  0  0  0  0  0  0  0  0  0  0
  189.2470  177.3250  138.0500 C   0  0  0  0  0  0  0  0  0  0  0  0
  189.8640  176.8530  136.8890 C   0  0  0  0  0  2  0  0  0  0  0  0
  189.9880  177.7800  141.7320 N   0  0  0  0  0  2  0  0  0  0  0  0
  190.3900  175.7410  142.7810 O   0  0  0  0  0  1  0  0  0  0  0  0
  189.6970  176.9460  142.8910 C   0  0  1  0  0  3  0  0  0  0  0  0
  190.1270  177.6580  144.1590 C   0  0  0  0  0  2  0  0  0  0  0  0
  191.2380  176.8820  144.8430 C   0  0  0  0  0  2  0  0  0  0  0  0
  190.8850  176.6260  146.2970 C   0  0  2  0  0  3  0  0  0  0  0  0
  190.1420  177.6860  146.7790 F   0  0  0  0  0  0  0  0  0  0  0  0
  192.0980  176.4920  147.0850 N   0  0  0  0  0  1  0  0  0  0  0  0
  187.2670  178.9070  141.5550 C   0  0  0  0  0  2  0  0  0  0  0  0
  185.7790  179.0050  141.2490 C   0  0  0  0  0  2  0  0  0  0  0  0
  183.8930  177.5510  141.4540 F   0  0  0  0  0  0  0  0  0  0  0  0
  184.9570  178.0970  142.1540 C   0  0  2  0  0  3  0  0  0  0  0  0
  184.4640  178.8520  143.3810 C   0  0  0  0  0  2  0  0  0  0  0  0
  186.0520  179.1090  146.8110 C   0  0  0  0  0  0  0  0  0  0  0  0
  186.9880  177.1910  145.6660 C   0  0  0  0  0  3  0  0  0  0  0  0
  185.9830  179.9040  147.9050 F   0  0  0  0  0  0  0  0  0  0  0  0
  185.2550  179.3850  145.6960 C   0  0  0  0  0  3  0  0  0  0  0  0
  186.1910  177.4670  144.5510 C   0  0  0  0  0  3  0  0  0  0  0  0
  185.3250  178.5660  144.5630 C   0  0  0  0  0  0  0  0  0  0  0  0
  186.9190  178.0120  146.7960 C   0  0  0  0  0  3  0  0  0  0  0  0
  1 12  1  0  0  0  0
  2  4  2  0  0  0  0
  2  1  1  0  0  0  0
  3  4  1  0  0  0  0
  5 10  2  0  0  0  0
  5  9  1  0  0  0  0
  6  8  1  0  0  0  0
  7  1  2  0  0  0  0
  7 20  1  0  0  0  0
  8  3  2  0  0  0  0
  9  7  1  0  0  0  0
 10  2  1  0  0  0  0
 11  8  1  0  0  0  0
 11 10  1  0  0  0  0
 12 14  1  0  0  0  0
 14 13  1  6  0  0  0
 14 15  1  0  0  0  0
 15 16  1  0  0  0  0
 16 17  1  0  0  0  0
 17 18  1  1  0  0  0
 17 19  1  0  0  0  0
 21 20  1  0  0  0  0
 21 23  1  0  0  0  0
 23 22  1  6  0  0  0
 23 24  1  0  0  0  0
 24 30  1  0  0  0  0
 25 27  1  0  0  0  0
 26 31  2  0  0  0  0
 28 25  2  0  0  0  0
 29 30  2  0  0  0  0
 29 26  1  0  0  0  0
 30 28  1  0  0  0  0
 31 25  1  0  0  0  0
M  END
>  <MODEL>
3

>  <REMARK>
 VINA RESULT:      -8.8      3.150      7.255
  Name = 
  10 active torsions:
  status: ('A' for Active; 'I' for Inactive)
    1  A    between atoms: C_2  and  C_13
    2  A    between atoms: C_3  and  C_9
    3  A    between atoms: C_3  and  C_22
    4  A    between atoms: C_4  and  N_12
    5  A    between atoms: C_9  and  C_23
    6  A    between atoms: N_12  and  C_27
    7  A    between atoms: C_13  and  C_28
    8  A    between atoms: C_15  and  C_21
    9  A    between atoms: C_15  and  C_23
   10  A    between atoms: C_27  and  C_28
                            x       y       z     vdW  Elec       q    Type
                         _______ _______ _______ _____ _____    ______ ____

>  <TORSDO>
F 10

$$$$
=
 OpenBabel11052413023D

 31 33  0  0  1  0  0  0  0  0999 V2000
  190.0090  177.2880  140.4580 C   0  0  0  0  0  0  0  0  0  0  0  0
  190.5420  176.8580  139.1450 C   0  0  0  0  0  0  0  0  0  0  0  0
  190.2030  176.0950  136.8640 C   0  0  0  0  0  3  0  0  0  0  0  0
  189.6820  176.4920  138.0990 C   0  0  0  0  0  3  0  0  0  0  0  0
  192.7930  177.1970  140.0020 N   0  0  0  0  0  0  0  0  0  0  0  0
  192.1020  175.6700  135.4380 O   0  0  0  0  0  1  0  0  0  0  0  0
  190.8790  177.6020  141.4520 C   0  0  0  0  0  0  0  0  0  0  0  0
  191.5860  176.0640  136.6650 C   0  0  0  0  0  0  0  0  0  0  0  0
  192.2640  177.5690  141.2220 O   0  0  0  0  0  0  0  0  0  0  0  0
  191.9280  176.8230  138.9350 C   0  0  0  0  0  0  0  0  0  0  0  0
  192.4510  176.4280  137.7010 C   0  0  0  0  0  2  0  0  0  0  0  0
  188.5790  177.3100  140.6270 N   0  0  0  0  0  2  0  0  0  0  0  0
  186.9240  178.5930  139.6120 O   0  0  0  0  0  1  0  0  0  0  0  0
  187.7400  178.4960  140.7390 C   0  0  1  0  0  3  0  0  0  0  0  0
  186.8740  178.4000  141.9790 C   0  0  0  0  0  2  0  0  0  0  0  0
  185.6050  179.2130  141.7940 C   0  0  0  0  0  2  0  0  0  0  0  0
  184.6640  178.9930  142.9640 C   0  0  2  0  0  3  0  0  0  0  0  0
  185.1360  177.9530  143.7400 F   0  0  0  0  0  0  0  0  0  0  0  0
  183.3360  178.6640  142.4760 N   0  0  0  0  0  1  0  0  0  0  0  0
  190.4310  177.9630  142.8300 C   0  0  0  0  0  2  0  0  0  0  0  0
  191.6070  177.9020  143.7960 C   0  0  0  0  0  2  0  0  0  0  0  0
  192.0990  176.4050  145.5920 F   0  0  0  0  0  0  0  0  0  0  0  0
  191.1910  177.3550  145.1550 C   0  0  2  0  0  3  0  0  0  0  0  0
  189.7850  176.7730  145.1000 C   0  0  0  0  0  2  0  0  0  0  0  0
  186.7970  178.2450  146.9030 C   0  0  0  0  0  0  0  0  0  0  0  0
  188.6260  178.0380  148.4770 C   0  0  0  0  0  3  0  0  0  0  0  0
  185.5190  178.6000  146.6300 F   0  0  0  0  0  0  0  0  0  0  0  0
  187.6060  177.7160  145.8930 C   0  0  0  0  0  3  0  0  0  0  0  0
  189.4360  177.5100  147.4680 C   0  0  0  0  0  3  0  0  0  0  0  0
  188.9280  177.3510  146.1730 C   0  0  0  0  0  0  0  0  0  0  0  0
  187.3070  178.4070  148.1950 C   0  0  0  0  0  3  0  0  0  0  0  0
  1 12  1  0  0  0  0
  1  7  2  0  0  0  0
  2  1  1  0  0  0  0
  3  4  1  0  0  0  0
  4  2  2  0  0  0  0
  5  9  1  0  0  0  0
  6  8  1  0  0  0  0
  7 20  1  0  0  0  0
  8  3  2  0  0  0  0
  8 11  1  0  0  0  0
  9  7  1  0  0  0  0
 10  2  1  0  0  0  0
 10  5  2  0  0  0  0
 11 10  1  0  0  0  0
 12 14  1  0  0  0  0
 14 13  1  6  0  0  0
 14 15  1  0  0  0  0
 16 15  1  0  0  0  0
 16 17  1  0  0  0  0
 17 19  1  6  0  0  0
 17 18  1  0  0  0  0
 20 21  1  0  0  0  0
 21 23  1  0  0  0  0
 23 22  1  6  0  0  0
 24 23  1  0  0  0  0
 24 30  1  0  0  0  0
 25 31  1  0  0  0  0
 27 25  1  0  0  0  0
 28 30  1  0  0  0  0
 28 25  2  0  0  0  0
 29 26  1  0  0  0  0
 30 29  2  0  0  0  0
 31 26  2  0  0  0  0
M  END
>  <MODEL>
4

>  <REMARK>
 VINA RESULT:      -8.8      3.246      6.941
  Name = 
  10 active torsions:
  status: ('A' for Active; 'I' for Inactive)
    1  A    between atoms: C_2  and  C_13
    2  A    between atoms: C_3  and  C_9
    3  A    between atoms: C_3  and  C_22
    4  A    between atoms: C_4  and  N_12
    5  A    between atoms: C_9  and  C_23
    6  A    between atoms: N_12  and  C_27
    7  A    between atoms: C_13  and  C_28
    8  A    between atoms: C_15  and  C_21
    9  A    between atoms: C_15  and  C_23
   10  A    between atoms: C_27  and  C_28
                            x       y       z     vdW  Elec       q    Type
                         _______ _______ _______ _____ _____    ______ ____

>  <TORSDO>
F 10

$$$$
=
 OpenBabel11052413023D

 31 33  0  0  1  0  0  0  0  0999 V2000
  188.3210  177.3730  144.2290 C   0  0  0  0  0  0  0  0  0  0  0  0
  189.3900  177.1300  145.2250 C   0  0  1  0  0  3  0  0  0  0  0  0
  191.6560  176.4560  145.7850 C   0  0  0  0  0  3  0  0  0  0  0  0
  190.6570  176.6720  144.8310 C   0  0  0  0  0  3  0  0  0  0  0  0
  187.8530  177.8330  146.9740 N   0  0  0  0  0  0  0  0  0  0  0  0
  192.3890  176.4800  148.0830 O   0  0  0  0  0  1  0  0  0  0  0  0
  187.1010  177.7830  144.6580 C   0  0  0  0  0  0  0  0  0  0  0  0
  191.3960  176.6960  147.1380 C   0  0  0  0  0  0  0  0  0  0  0  0
  186.8710  178.0250  146.0220 O   0  0  0  0  0  0  0  0  0  0  0  0
  189.1410  177.3680  146.5840 C   0  0  0  0  0  0  0  0  0  0  0  0
  190.1380  177.1530  147.5380 C   0  0  0  0  0  3  0  0  0  0  0  0
  188.6230  177.1160  142.8440 N   0  0  0  0  0  2  0  0  0  0  0  0
  190.3630  177.6670  141.3990 O   0  0  0  0  0  1  0  0  0  0  0  0
  189.1200  178.0830  141.8740 C   0  0  1  0  0  3  0  0  0  0  0  0
  188.1500  178.1940  140.7140 C   0  0  0  0  0  2  0  0  0  0  0  0
  188.6600  177.3940  139.5290 C   0  0  0  0  0  2  0  0  0  0  0  0
  188.5350  178.2050  138.2530 C   0  0  2  0  0  3  0  0  0  0  0  0
  189.2720  179.3670  138.3770 F   0  0  0  0  0  0  0  0  0  0  0  0
  187.1430  178.5430  138.0140 N   0  0  0  0  0  1  0  0  0  0  0  0
  185.9430  177.9710  143.7340 C   0  0  0  0  0  2  0  0  0  0  0  0
  184.9650  178.9820  144.3170 C   0  0  0  0  0  2  0  0  0  0  0  0
  182.5930  178.7080  144.4100 F   0  0  0  0  0  0  0  0  0  0  0  0
  183.6470  178.9930  143.5570 C   0  0  2  0  0  3  0  0  0  0  0  0
  183.6800  178.0100  142.3940 C   0  0  0  0  0  2  0  0  0  0  0  0
  181.5470  179.5190  139.6520 C   0  0  0  0  0  0  0  0  0  0  0  0
  183.8770  179.7490  139.0340 C   0  0  0  0  0  3  0  0  0  0  0  0
  180.2350  179.7170  139.3780 F   0  0  0  0  0  0  0  0  0  0  0  0
  181.9240  178.8820  140.8380 C   0  0  0  0  0  3  0  0  0  0  0  0
  184.2550  179.1110  140.2200 C   0  0  0  0  0  3  0  0  0  0  0  0
  183.2780  178.6750  141.1230 C   0  0  0  0  0  0  0  0  0  0  0  0
  182.5240  179.9520  138.7500 C   0  0  0  0  0  3  0  0  0  0  0  0
  1  7  2  0  0  0  0
  1  2  1  0  0  0  0
  2  4  1  6  0  0  0
  2 10  1  0  0  0  0
  3  8  1  0  0  0  0
  4  3  2  0  0  0  0
  7  9  1  0  0  0  0
  8 11  2  0  0  0  0
  8  6  1  0  0  0  0
  9  5  1  0  0  0  0
 10  5  2  0  0  0  0
 10 11  1  0  0  0  0
 12  1  1  0  0  0  0
 14 13  1  6  0  0  0
 14 12  1  0  0  0  0
 15 14  1  0  0  0  0
 16 15  1  0  0  0  0
 17 19  1  1  0  0  0
 17 18  1  0  0  0  0
 17 16  1  0  0  0  0
 20 21  1  0  0  0  0
 20  7  1  0  0  0  0
 23 21  1  0  0  0  0
 23 22  1  1  0  0  0
 24 23  1  0  0  0  0
 25 28  1  0  0  0  0
 26 29  2  0  0  0  0
 27 25  1  0  0  0  0
 28 30  2  0  0  0  0
 29 30  1  0  0  0  0
 30 24  1  0  0  0  0
 31 26  1  0  0  0  0
 31 25  2  0  0  0  0
M  END
>  <MODEL>
5

>  <REMARK>
 VINA RESULT:      -8.7      3.024      7.698
  Name = 
  10 active torsions:
  status: ('A' for Active; 'I' for Inactive)
    1  A    between atoms: C_2  and  C_13
    2  A    between atoms: C_3  and  C_9
    3  A    between atoms: C_3  and  C_22
    4  A    between atoms: C_4  and  N_12
    5  A    between atoms: C_9  and  C_23
    6  A    between atoms: N_12  and  C_27
    7  A    between atoms: C_13  and  C_28
    8  A    between atoms: C_15  and  C_21
    9  A    between atoms: C_15  and  C_23
   10  A    between atoms: C_27  and  C_28
                            x       y       z     vdW  Elec       q    Type
                         _______ _______ _______ _____ _____    ______ ____

>  <TORSDO>
F 10

$$$$
=
 OpenBabel11052413023D

 31 33  0  0  1  0  0  0  0  0999 V2000
  187.6160  178.5300  140.7590 C   0  0  0  0  0  0  0  0  0  0  0  0
  188.0380  178.2340  139.3700 C   0  0  0  0  0  0  0  0  0  0  0  0
  189.7490  177.6330  137.7540 C   0  0  0  0  0  3  0  0  0  0  0  0
  189.3710  177.9160  139.0700 C   0  0  0  0  0  3  0  0  0  0  0  0
  185.7420  178.5860  138.6500 N   0  0  0  0  0  0  0  0  0  0  0  0
  189.1750  177.3830  135.4240 O   0  0  0  0  0  1  0  0  0  0  0  0
  186.3230  178.8660  140.9980 C   0  0  0  0  0  0  0  0  0  0  0  0
  188.7970  177.6640  136.7300 C   0  0  0  0  0  0  0  0  0  0  0  0
  185.3870  178.8810  139.9510 O   0  0  0  0  0  0  0  0  0  0  0  0
  187.0920  178.2630  138.3350 C   0  0  0  0  0  0  0  0  0  0  0  0
  187.4670  177.9790  137.0200 C   0  0  0  0  0  2  0  0  0  0  0  0
  188.6220  178.4870  141.7890 N   0  0  0  0  0  2  0  0  0  0  0  0
  187.9600  176.3630  142.4730 O   0  0  0  0  0  1  0  0  0  0  0  0
  188.9150  177.3610  142.6650 C   0  0  1  0  0  3  0  0  0  0  0  0
  190.2900  176.8060  142.3500 C   0  0  0  0  0  2  0  0  0  0  0  0
  191.3550  177.8430  142.6590 C   0  0  0  0  0  2  0  0  0  0  0  0
  191.2820  178.2540  144.1180 C   0  0  2  0  0  3  0  0  0  0  0  0
  192.1350  179.3190  144.3350 F   0  0  0  0  0  0  0  0  0  0  0  0
  191.6760  177.1430  144.9660 N   0  0  0  0  0  1  0  0  0  0  0  0
  185.8310  179.2610  142.3510 C   0  0  0  0  0  2  0  0  0  0  0  0
  184.5360  178.5270  142.6720 C   0  0  0  0  0  2  0  0  0  0  0  0
  183.0290  178.2700  144.5090 F   0  0  0  0  0  0  0  0  0  0  0  0
  184.3710  178.3050  144.1690 C   0  0  2  0  0  3  0  0  0  0  0  0
  185.1000  179.3820  144.9630 C   0  0  0  0  0  2  0  0  0  0  0  0
  187.9860  177.3290  146.3080 C   0  0  0  0  0  0  0  0  0  0  0  0
  186.9830  178.5500  148.1430 C   0  0  0  0  0  3  0  0  0  0  0  0
  188.9230  176.4700  145.8450 F   0  0  0  0  0  0  0  0  0  0  0  0
  187.0540  177.8870  145.4280 C   0  0  0  0  0  3  0  0  0  0  0  0
  186.0500  179.1080  147.2630 C   0  0  0  0  0  3  0  0  0  0  0  0
  186.0830  178.7750  145.9040 C   0  0  0  0  0  0  0  0  0  0  0  0
  187.9500  177.6610  147.6660 C   0  0  0  0  0  3  0  0  0  0  0  0
  1  7  2  0  0  0  0
  1 12  1  0  0  0  0
  2  1  1  0  0  0  0
  3  4  1  0  0  0  0
  4  2  2  0  0  0  0
  5  9  1  0  0  0  0
  6  8  1  0  0  0  0
  7 20  1  0  0  0  0
  8 11  1  0  0  0  0
  8  3  2  0  0  0  0
  9  7  1  0  0  0  0
 10  5  2  0  0  0  0
 10  2  1  0  0  0  0
 11 10  1  0  0  0  0
 12 14  1  0  0  0  0
 14 13  1  6  0  0  0
 15 16  1  0  0  0  0
 15 14  1  0  0  0  0
 16 17  1  0  0  0  0
 17 18  1  6  0  0  0
 17 19  1  0  0  0  0
 20 21  1  0  0  0  0
 21 23  1  0  0  0  0
 23 22  1  6  0  0  0
 23 24  1  0  0  0  0
 24 30  1  0  0  0  0
 25 31  1  0  0  0  0
 27 25  1  0  0  0  0
 28 30  1  0  0  0  0
 28 25  2  0  0  0  0
 29 26  1  0  0  0  0
 30 29  2  0  0  0  0
 31 26  2  0  0  0  0
M  END
>  <MODEL>
6

>  <REMARK>
 VINA RESULT:      -8.6      2.967      5.735
  Name = 
  10 active torsions:
  status: ('A' for Active; 'I' for Inactive)
    1  A    between atoms: C_2  and  C_13
    2  A    between atoms: C_3  and  C_9
    3  A    between atoms: C_3  and  C_22
    4  A    between atoms: C_4  and  N_12
    5  A    between atoms: C_9  and  C_23
    6  A    between atoms: N_12  and  C_27
    7  A    between atoms: C_13  and  C_28
    8  A    between atoms: C_15  and  C_21
    9  A    between atoms: C_15  and  C_23
   10  A    between atoms: C_27  and  C_28
                            x       y       z     vdW  Elec       q    Type
                         _______ _______ _______ _____ _____    ______ ____

>  <TORSDO>
F 10

$$$$
=
 OpenBabel11052413023D

 31 33  0  0  1  0  0  0  0  0999 V2000
  184.5470  179.0330  141.6330 C   0  0  0  0  0  0  0  0  0  0  0  0
  183.8600  178.6370  140.3820 C   0  0  0  0  0  0  0  0  0  0  0  0
  183.8980  178.1450  138.0030 C   0  0  0  0  0  3  0  0  0  0  0  0
  184.5630  178.5280  139.1720 C   0  0  0  0  0  3  0  0  0  0  0  0
  181.7820  178.4690  141.6340 N   0  0  0  0  0  0  0  0  0  0  0  0
  181.8710  177.4880  136.8730 O   0  0  0  0  0  1  0  0  0  0  0  0
  183.8210  179.1580  142.7730 C   0  0  0  0  0  0  0  0  0  0  0  0
  182.5290  177.8680  138.0350 C   0  0  0  0  0  0  0  0  0  0  0  0
  182.4470  178.8650  142.7770 O   0  0  0  0  0  0  0  0  0  0  0  0
  182.4860  178.3560  140.4020 C   0  0  0  0  0  0  0  0  0  0  0  0
  181.8210  177.9730  139.2350 C   0  0  0  0  0  2  0  0  0  0  0  0
  185.9580  179.3100  141.5640 N   0  0  0  0  0  2  0  0  0  0  0  0
  187.8710  178.7700  140.3510 O   0  0  0  0  0  1  0  0  0  0  0  0
  187.0220  178.3340  141.3680 C   0  0  1  0  0  3  0  0  0  0  0  0
  187.8170  178.1730  142.6490 C   0  0  0  0  0  2  0  0  0  0  0  0
  189.2230  177.6970  142.3350 C   0  0  0  0  0  2  0  0  0  0  0  0
  189.3190  176.1910  142.5000 C   0  0  2  0  0  3  0  0  0  0  0  0
  188.2270  175.7410  143.2180 F   0  0  0  0  0  0  0  0  0  0  0  0
  190.5360  175.8470  143.2130 N   0  0  0  0  0  1  0  0  0  0  0  0
  184.4140  179.6330  144.0570 C   0  0  0  0  0  2  0  0  0  0  0  0
  184.1280  178.6330  145.1690 C   0  0  0  0  0  2  0  0  0  0  0  0
  185.8770  179.8140  146.2900 F   0  0  0  0  0  0  0  0  0  0  0  0
  185.2620  178.5770  146.1820 C   0  0  2  0  0  3  0  0  0  0  0  0
  186.2760  177.5040  145.8070 C   0  0  0  0  0  2  0  0  0  0  0  0
  189.9150  177.4280  146.8560 C   0  0  0  0  0  0  0  0  0  0  0  0
  188.5870  178.2050  148.7260 C   0  0  0  0  0  3  0  0  0  0  0  0
  191.1190  177.1150  146.3220 F   0  0  0  0  0  0  0  0  0  0  0  0
  188.7550  177.3020  146.0840 C   0  0  0  0  0  3  0  0  0  0  0  0
  187.4270  178.0780  147.9550 C   0  0  0  0  0  3  0  0  0  0  0  0
  187.5090  177.6240  146.6340 C   0  0  0  0  0  0  0  0  0  0  0  0
  189.8300  177.8800  148.1770 C   0  0  0  0  0  3  0  0  0  0  0  0
  1  7  2  0  0  0  0
  2 10  1  0  0  0  0
  2  1  1  0  0  0  0
  3  8  2  0  0  0  0
  3  4  1  0  0  0  0
  4  2  2  0  0  0  0
  5  9  1  0  0  0  0
  6  8  1  0  0  0  0
  7  9  1  0  0  0  0
  7 20  1  0  0  0  0
  8 11  1  0  0  0  0
 10  5  2  0  0  0  0
 11 10  1  0  0  0  0
 12  1  1  0  0  0  0
 14 13  1  6  0  0  0
 14 12  1  0  0  0  0
 14 15  1  0  0  0  0
 16 17  1  0  0  0  0
 16 15  1  0  0  0  0
 17 19  1  1  0  0  0
 17 18  1  0  0  0  0
 20 21  1  0  0  0  0
 21 23  1  0  0  0  0
 23 22  1  6  0  0  0
 24 23  1  0  0  0  0
 24 30  1  0  0  0  0
 25 31  1  0  0  0  0
 27 25  1  0  0  0  0
 28 30  1  0  0  0  0
 28 25  2  0  0  0  0
 29 26  1  0  0  0  0
 30 29  2  0  0  0  0
 31 26  2  0  0  0  0
M  END
>  <MODEL>
7

>  <REMARK>
 VINA RESULT:      -8.6      2.502      3.558
  Name = 
  10 active torsions:
  status: ('A' for Active; 'I' for Inactive)
    1  A    between atoms: C_2  and  C_13
    2  A    between atoms: C_3  and  C_9
    3  A    between atoms: C_3  and  C_22
    4  A    between atoms: C_4  and  N_12
    5  A    between atoms: C_9  and  C_23
    6  A    between atoms: N_12  and  C_27
    7  A    between atoms: C_13  and  C_28
    8  A    between atoms: C_15  and  C_21
    9  A    between atoms: C_15  and  C_23
   10  A    between atoms: C_27  and  C_28
                            x       y       z     vdW  Elec       q    Type
                         _______ _______ _______ _____ _____    ______ ____

>  <TORSDO>
F 10

$$$$
=
 OpenBabel11052413023D

 31 33  0  0  1  0  0  0  0  0999 V2000
  188.3250  177.4540  142.4680 C   0  0  0  0  0  0  0  0  0  0  0  0
  187.3510  177.7380  143.5470 C   0  0  1  0  0  3  0  0  0  0  0  0
  186.6330  177.5560  145.8600 C   0  0  0  0  0  3  0  0  0  0  0  0
  187.5600  177.2710  144.8530 C   0  0  0  0  0  3  0  0  0  0  0  0
  186.0000  178.9620  141.9370 N   0  0  0  0  0  0  0  0  0  0  0  0
  184.5730  178.5910  146.5700 O   0  0  0  0  0  1  0  0  0  0  0  0
  188.0660  177.8960  141.2110 C   0  0  0  0  0  0  0  0  0  0  0  0
  185.4920  178.3100  145.5680 C   0  0  0  0  0  0  0  0  0  0  0  0
  186.9160  178.6580  140.9490 O   0  0  0  0  0  0  0  0  0  0  0  0
  186.2040  178.4930  143.2660 C   0  0  0  0  0  0  0  0  0  0  0  0
  185.2770  178.7800  144.2700 C   0  0  0  0  0  3  0  0  0  0  0  0
  189.4900  176.6750  142.8040 N   0  0  0  0  0  2  0  0  0  0  0  0
  190.6600  178.5300  143.5850 O   0  0  0  0  0  1  0  0  0  0  0  0
  190.7910  177.1950  143.2020 C   0  0  1  0  0  3  0  0  0  0  0  0
  191.3330  176.3900  144.3670 C   0  0  0  0  0  2  0  0  0  0  0  0
  191.3450  177.2370  145.6270 C   0  0  0  0  0  2  0  0  0  0  0  0
  191.1730  176.3590  146.8530 C   0  0  2  0  0  3  0  0  0  0  0  0
  189.8670  176.4450  147.2950 F   0  0  0  0  0  0  0  0  0  0  0  0
  192.0670  176.8010  147.9090 N   0  0  0  0  0  1  0  0  0  0  0  0
  188.9480  177.5830  140.0490 C   0  0  0  0  0  2  0  0  0  0  0  0
  188.2940  178.0460  138.7540 C   0  0  0  0  0  2  0  0  0  0  0  0
  189.1190  179.7200  137.2610 F   0  0  0  0  0  0  0  0  0  0  0  0
  189.3300  178.4240  137.7040 C   0  0  2  0  0  3  0  0  0  0  0  0
  189.3050  177.4450  136.5370 C   0  0  0  0  0  2  0  0  0  0  0  0
  192.4520  175.4900  137.3270 C   0  0  0  0  0  0  0  0  0  0  0  0
  190.6430  173.9250  136.9510 C   0  0  0  0  0  3  0  0  0  0  0  0
  193.7500  175.7330  137.6260 F   0  0  0  0  0  0  0  0  0  0  0  0
  191.5800  176.5560  137.0880 C   0  0  0  0  0  3  0  0  0  0  0  0
  189.7700  174.9910  136.7110 C   0  0  0  0  0  3  0  0  0  0  0  0
  190.2380  176.3080  136.7770 C   0  0  0  0  0  0  0  0  0  0  0  0
  191.9840  174.1740  137.2580 C   0  0  0  0  0  3  0  0  0  0  0  0
  1 12  1  0  0  0  0
  1  2  1  0  0  0  0
  2  4  1  1  0  0  0
  4  3  2  0  0  0  0
  5 10  2  0  0  0  0
  7  1  2  0  0  0  0
  8  3  1  0  0  0  0
  8  6  1  0  0  0  0
  9  7  1  0  0  0  0
  9  5  1  0  0  0  0
 10  2  1  0  0  0  0
 10 11  1  0  0  0  0
 11  8  2  0  0  0  0
 12 14  1  0  0  0  0
 14 13  1  1  0  0  0
 14 15  1  0  0  0  0
 15 16  1  0  0  0  0
 16 17  1  0  0  0  0
 17 18  1  1  0  0  0
 17 19  1  0  0  0  0
 20  7  1  0  0  0  0
 21 20  1  0  0  0  0
 23 22  1  6  0  0  0
 23 21  1  0  0  0  0
 24 30  1  0  0  0  0
 24 23  1  0  0  0  0
 25 27  1  0  0  0  0
 26 31  2  0  0  0  0
 28 25  2  0  0  0  0
 29 30  2  0  0  0  0
 29 26  1  0  0  0  0
 30 28  1  0  0  0  0
 31 25  1  0  0  0  0
M  END
>  <MODEL>
8

>  <REMARK>
 VINA RESULT:      -8.6      3.220      7.162
  Name = 
  10 active torsions:
  status: ('A' for Active; 'I' for Inactive)
    1  A    between atoms: C_2  and  C_13
    2  A    between atoms: C_3  and  C_9
    3  A    between atoms: C_3  and  C_22
    4  A    between atoms: C_4  and  N_12
    5  A    between atoms: C_9  and  C_23
    6  A    between atoms: N_12  and  C_27
    7  A    between atoms: C_13  and  C_28
    8  A    between atoms: C_15  and  C_21
    9  A    between atoms: C_15  and  C_23
   10  A    between atoms: C_27  and  C_28
                            x       y       z     vdW  Elec       q    Type
                         _______ _______ _______ _____ _____    ______ ____

>  <TORSDO>
F 10

$$$$
=
 OpenBabel11052413023D

 31 33  0  0  1  0  0  0  0  0999 V2000
  185.2150  178.7690  140.7000 C   0  0  0  0  0  0  0  0  0  0  0  0
  183.7910  178.8230  141.1030 C   0  0  1  0  0  3  0  0  0  0  0  0
  181.4360  179.0390  140.5490 C   0  0  0  0  0  3  0  0  0  0  0  0
  182.7750  178.9980  140.1510 C   0  0  0  0  0  3  0  0  0  0  0  0
  184.4830  178.5090  143.4130 N   0  0  0  0  0  0  0  0  0  0  0  0
  179.7720  178.9440  142.2920 O   0  0  0  0  0  1  0  0  0  0  0  0
  186.1670  178.6310  141.6580 C   0  0  0  0  0  0  0  0  0  0  0  0
  181.1020  178.9030  141.9000 C   0  0  0  0  0  0  0  0  0  0  0  0
  185.8020  178.4880  143.0070 O   0  0  0  0  0  0  0  0  0  0  0  0
  183.4450  178.6870  142.4550 C   0  0  0  0  0  0  0  0  0  0  0  0
  182.1080  178.7270  142.8540 C   0  0  0  0  0  3  0  0  0  0  0  0
  185.5230  178.9110  139.3000 N   0  0  0  0  0  2  0  0  0  0  0  0
  184.5240  177.8270  137.4990 O   0  0  0  0  0  1  0  0  0  0  0  0
  185.6450  177.8330  138.3280 C   0  0  1  0  0  3  0  0  0  0  0  0
  186.8900  178.0350  137.4880 C   0  0  0  0  0  2  0  0  0  0  0  0
  188.0250  177.1800  138.0210 C   0  0  0  0  0  2  0  0  0  0  0  0
  189.3270  177.9590  138.0000 C   0  0  2  0  0  3  0  0  0  0  0  0
  190.0470  177.6760  139.1450 F   0  0  0  0  0  0  0  0  0  0  0  0
  189.0510  179.3840  137.9480 N   0  0  0  0  0  1  0  0  0  0  0  0
  187.6270  178.6530  141.3520 C   0  0  0  0  0  2  0  0  0  0  0  0
  188.3210  177.4750  142.0240 C   0  0  0  0  0  2  0  0  0  0  0  0
  190.4220  178.2820  142.8290 F   0  0  0  0  0  0  0  0  0  0  0  0
  189.1450  177.9180  143.2250 C   0  0  2  0  0  3  0  0  0  0  0  0
  189.2010  176.8220  144.2810 C   0  0  0  0  0  2  0  0  0  0  0  0
  186.7880  178.0740  146.9200 C   0  0  0  0  0  0  0  0  0  0  0  0
  188.9840  177.8620  147.9180 C   0  0  0  0  0  3  0  0  0  0  0  0
  185.4750  178.3890  147.0280 F   0  0  0  0  0  0  0  0  0  0  0  0
  187.3010  177.6330  145.6960 C   0  0  0  0  0  3  0  0  0  0  0  0
  189.4980  177.4200  146.6940 C   0  0  0  0  0  3  0  0  0  0  0  0
  188.6570  177.3080  145.5810 C   0  0  0  0  0  0  0  0  0  0  0  0
  187.6300  178.1890  148.0300 C   0  0  0  0  0  3  0  0  0  0  0  0
  1  2  1  0  0  0  0
  1  7  2  0  0  0  0
  2  4  1  6  0  0  0
  2 10  1  0  0  0  0
  3  8  1  0  0  0  0
  4  3  2  0  0  0  0
  7  9  1  0  0  0  0
  8  6  1  0  0  0  0
  8 11  2  0  0  0  0
  9  5  1  0  0  0  0
 10 11  1  0  0  0  0
 10  5  2  0  0  0  0
 12  1  1  0  0  0  0
 14 13  1  6  0  0  0
 14 12  1  0  0  0  0
 15 16  1  0  0  0  0
 15 14  1  0  0  0  0
 17 19  1  1  0  0  0
 17 16  1  0  0  0  0
 17 18  1  0  0  0  0
 20  7  1  0  0  0  0
 20 21  1  0  0  0  0
 21 23  1  0  0  0  0
 23 22  1  6  0  0  0
 23 24  1  0  0  0  0
 24 30  1  0  0  0  0
 25 27  1  0  0  0  0
 25 31  1  0  0  0  0
 26 31  2  0  0  0  0
 28 25  2  0  0  0  0
 29 26  1  0  0  0  0
 30 28  1  0  0  0  0
 30 29  2  0  0  0  0
M  END
>  <MODEL>
9

>  <REMARK>
 VINA RESULT:      -8.6      2.111      3.902
  Name = 
  10 active torsions:
  status: ('A' for Active; 'I' for Inactive)
    1  A    between atoms: C_2  and  C_13
    2  A    between atoms: C_3  and  C_9
    3  A    between atoms: C_3  and  C_22
    4  A    between atoms: C_4  and  N_12
    5  A    between atoms: C_9  and  C_23
    6  A    between atoms: N_12  and  C_27
    7  A    between atoms: C_13  and  C_28
    8  A    between atoms: C_15  and  C_21
    9  A    between atoms: C_15  and  C_23
   10  A    between atoms: C_27  and  C_28
                            x       y       z     vdW  Elec       q    Type
                         _______ _______ _______ _____ _____    ______ ____

>  <TORSDO>
F 10

$$$$
