=
 OpenBabel11052416153D

 43 47  0  0  1  0  0  0  0  0999 V2000
  189.4310  177.3820  139.7310 C   0  0  1  0  0  3  0  0  0  0  0  0
  185.8360  175.4070  135.7390 C   0  0  0  0  0  0  0  0  0  0  0  0
  189.7600  177.5560  138.2380 C   0  0  1  0  0  3  0  0  0  0  0  0
  187.3590  177.0040  136.7430 C   0  0  0  0  0  0  0  0  0  0  0  0
  186.7900  174.4020  135.8810 C   0  0  0  0  0  3  0  0  0  0  0  0
  184.5150  175.0990  135.1310 C   0  0  0  0  0  1  0  0  0  0  0  0
  188.3320  175.9890  136.9010 C   0  0  0  0  0  0  0  0  0  0  0  0
  186.1180  176.7040  136.1750 C   0  0  0  0  0  3  0  0  0  0  0  0
  188.0270  174.6910  136.4580 C   0  0  0  0  0  3  0  0  0  0  0  0
  189.6170  176.2970  137.4990 N   0  0  0  0  0  0  0  0  0  0  0  0
  189.0510  178.7090  137.5210 C   0  0  0  0  0  2  0  0  0  0  0  0
  187.5790  178.3970  137.2600 C   0  0  0  0  0  2  0  0  0  0  0  0
  191.9720  176.3180  137.4600 O   0  0  0  0  0  1  0  0  0  0  0  0
  190.9340  174.3970  138.0270 O   0  0  0  0  0  1  0  0  0  0  0  0
  190.8480  175.5270  137.2110 C   0  0  0  0  0  0  0  0  0  0  0  0
  190.8950  175.1180  135.7350 C   0  0  0  0  0  2  0  0  0  0  0  0
  190.9990  176.3010  134.7860 C   0  0  0  0  0  1  0  0  0  0  0  0
  190.6850  177.1020  140.5450 C   0  0  0  0  0  2  0  0  0  0  0  0
  189.8730  176.2840  144.0730 C   0  0  0  0  0  2  0  0  0  0  0  0
  191.0670  176.9490  144.7570 C   0  0  0  0  0  0  0  0  0  0  0  0
  190.7140  177.2940  146.0470 F   0  0  0  0  0  0  0  0  0  0  0  0
  191.6770  177.9000  142.5170 C   0  0  0  0  0  2  0  0  0  0  0  0
  190.1600  176.0810  142.5840 C   0  0  0  0  0  2  0  0  0  0  0  0
  190.4360  177.3690  141.9530 N   0  0  0  0  0  0  0  0  0  0  0  0
  192.1300  176.0640  144.8060 F   0  0  0  0  0  0  0  0  0  0  0  0
  191.4830  178.2110  144.0010 C   0  0  0  0  0  2  0  0  0  0  0  0
  188.6620  178.5530  140.3290 C   0  0  0  0  0  2  0  0  0  0  0  0
  187.1620  178.3320  140.2160 C   0  0  0  0  0  2  0  0  0  0  0  0
  185.2540  179.1010  141.7790 C   0  0  0  0  0  0  0  0  0  0  0  0
  187.1150  177.7610  142.5970 C   0  0  0  0  0  3  0  0  0  0  0  0
  184.8530  179.3590  142.9930 N   0  0  0  0  0  0  0  0  0  0  0  0
  185.6660  179.0290  144.1680 C   0  0  2  0  0  3  0  0  0  0  0  0
  186.4600  177.7360  143.9480 C   0  0  0  0  0  2  0  0  0  0  0  0
  186.5190  178.3660  141.5640 C   0  0  0  0  0  0  0  0  0  0  0  0
  184.4880  179.4930  140.6760 O   0  0  0  0  0  0  0  0  0  0  0  0
  183.1720  179.0080  140.4370 C   0  0  0  0  0  2  0  0  0  0  0  0
  183.1970  177.5080  140.2110 C   0  0  0  0  0  1  0  0  0  0  0  0
  184.8080  178.9660  145.4250 C   0  0  0  0  0  2  0  0  0  0  0  0
  185.4040  178.0400  146.4740 C   0  0  0  0  0  2  0  0  0  0  0  0
  186.3450  178.8230  147.3630 C   0  0  0  0  0  2  0  0  0  0  0  0
  188.4660  178.3420  148.5270 C   0  0  0  0  0  2  0  0  0  0  0  0
  187.7570  178.3020  147.1900 C   0  0  0  0  0  3  0  0  0  0  0  0
  187.9190  177.0340  148.0000 C   0  0  0  0  0  2  0  0  0  0  0  0
  1 27  1  1  0  0  0
  1 18  1  0  0  0  0
  2  5  2  0  0  0  0
  2  8  1  0  0  0  0
  3  1  1  1  0  0  0
  4  7  1  0  0  0  0
  4 12  1  0  0  0  0
  5  9  1  0  0  0  0
  6  2  1  0  0  0  0
  7 10  1  0  0  0  0
  8  4  2  0  0  0  0
  9  7  2  0  0  0  0
 10  3  1  0  0  0  0
 11  3  1  0  0  0  0
 12 11  1  0  0  0  0
 15 13  1  0  0  0  0
 15 10  1  0  0  0  0
 15 14  1  0  0  0  0
 16 15  1  0  0  0  0
 17 16  1  0  0  0  0
 18 24  1  0  0  0  0
 19 20  1  0  0  0  0
 20 25  1  0  0  0  0
 20 21  1  0  0  0  0
 22 26  1  0  0  0  0
 23 19  1  0  0  0  0
 24 22  1  0  0  0  0
 24 23  1  0  0  0  0
 26 20  1  0  0  0  0
 28 27  1  0  0  0  0
 28 34  1  0  0  0  0
 29 31  2  0  0  0  0
 30 33  1  0  0  0  0
 31 32  1  0  0  0  0
 32 38  1  1  0  0  0
 33 32  1  0  0  0  0
 34 29  1  0  0  0  0
 34 30  2  0  0  0  0
 35 29  1  0  0  0  0
 36 35  1  0  0  0  0
 37 36  1  0  0  0  0
 38 39  1  0  0  0  0
 39 40  1  0  0  0  0
 42 40  1  0  0  0  0
 42 43  1  0  0  0  0
 42 41  1  0  0  0  0
 43 41  1  0  0  0  0
M  END
>  <MODEL>
1

>  <REMARK>
 VINA RESULT:      -8.3      0.000      0.000
  Name = 
  14 active torsions:
  status: ('A' for Active; 'I' for Inactive)
    1  A    between atoms: C_1  and  C_34
    2  A    between atoms: C_1  and  N_35
    3  A    between atoms: C_2  and  C_27
    4  A    between atoms: O_3  and  C_4
    5  A    between atoms: O_3  and  C_12
    6  A    between atoms: C_8  and  C_34
    7  A    between atoms: C_11  and  C_22
    8  A    between atoms: C_11  and  C_36
    9  A    between atoms: C_15  and  C_38
   10  A    between atoms: C_15  and  C_42
   11  A    between atoms: C_27  and  N_30
   12  A    between atoms: C_29  and  C_31
   13  A    between atoms: C_29  and  C_36
   14  A    between atoms: C_34  and  C_38
                            x       y       z     vdW  Elec       q    Type
                         _______ _______ _______ _____ _____    ______ ____

>  <TORSDO>
F 14

$$$$
=
 OpenBabel11052416153D

 43 47  0  0  1  0  0  0  0  0999 V2000
  186.0530  178.6140  139.8320 C   0  0  1  0  0  3  0  0  0  0  0  0
  184.6150  173.7180  137.2400 C   0  0  0  0  0  0  0  0  0  0  0  0
  185.4260  178.6360  138.4280 C   0  0  1  0  0  3  0  0  0  0  0  0
  184.3170  176.0250  137.9230 C   0  0  0  0  0  0  0  0  0  0  0  0
  185.8760  174.0260  136.7340 C   0  0  0  0  0  3  0  0  0  0  0  0
  184.0960  172.3280  137.1510 C   0  0  0  0  0  1  0  0  0  0  0  0
  185.5990  176.3470  137.4210 C   0  0  0  0  0  0  0  0  0  0  0  0
  183.8410  174.7140  137.8390 C   0  0  0  0  0  3  0  0  0  0  0  0
  186.3640  175.3300  136.8240 C   0  0  0  0  0  3  0  0  0  0  0  0
  186.1000  177.7060  137.5160 N   0  0  0  0  0  0  0  0  0  0  0  0
  183.9040  178.4760  138.3660 C   0  0  0  0  0  2  0  0  0  0  0  0
  183.4720  177.0380  138.6420 C   0  0  0  0  0  2  0  0  0  0  0  0
  186.6310  178.1630  135.2660 O   0  0  0  0  0  1  0  0  0  0  0  0
  187.3280  179.6200  136.8420 O   0  0  0  0  0  1  0  0  0  0  0  0
  187.0990  178.2670  136.5780 C   0  0  0  0  0  0  0  0  0  0  0  0
  188.4130  177.4830  136.6590 C   0  0  0  0  0  2  0  0  0  0  0  0
  189.1660  177.4360  135.3390 C   0  0  0  0  0  1  0  0  0  0  0  0
  185.0130  178.3070  140.8990 C   0  0  0  0  0  2  0  0  0  0  0  0
  184.7000  180.0460  144.1620 C   0  0  0  0  0  2  0  0  0  0  0  0
  185.2030  178.9320  145.0800 C   0  0  0  0  0  0  0  0  0  0  0  0
  185.7290  179.4950  146.2260 F   0  0  0  0  0  0  0  0  0  0  0  0
  185.8060  177.6520  143.0080 C   0  0  0  0  0  2  0  0  0  0  0  0
  184.3060  179.4740  142.7990 C   0  0  0  0  0  2  0  0  0  0  0  0
  185.4550  178.8120  142.1890 N   0  0  0  0  0  0  0  0  0  0  0  0
  184.1500  178.1060  145.4300 F   0  0  0  0  0  0  0  0  0  0  0  0
  186.2900  178.1140  144.3820 C   0  0  0  0  0  2  0  0  0  0  0  0
  187.2370  177.6640  139.9590 C   0  0  0  0  0  2  0  0  0  0  0  0
  188.5440  178.4350  140.0570 C   0  0  0  0  0  2  0  0  0  0  0  0
  190.1700  176.7610  141.1650 C   0  0  0  0  0  0  0  0  0  0  0  0
  189.2630  178.6610  142.3880 C   0  0  0  0  0  3  0  0  0  0  0  0
  190.6290  176.2230  142.2610 N   0  0  0  0  0  0  0  0  0  0  0  0
  190.2680  176.7320  143.5880 C   0  0  2  0  0  3  0  0  0  0  0  0
  190.0940  178.2550  143.5700 C   0  0  0  0  0  2  0  0  0  0  0  0
  189.3380  177.9810  141.2390 C   0  0  0  0  0  0  0  0  0  0  0  0
  190.4760  176.2080  139.9170 O   0  0  0  0  0  0  0  0  0  0  0  0
  191.5020  176.7200  139.0750 C   0  0  0  0  0  2  0  0  0  0  0  0
  191.6870  175.8240  137.8660 C   0  0  0  0  0  1  0  0  0  0  0  0
  191.2780  176.2840  144.6370 C   0  0  0  0  0  2  0  0  0  0  0  0
  191.2890  177.2080  145.8460 C   0  0  0  0  0  2  0  0  0  0  0  0
  190.2610  176.7370  146.8510 C   0  0  0  0  0  2  0  0  0  0  0  0
  188.0550  177.2110  147.8470 C   0  0  0  0  0  2  0  0  0  0  0  0
  189.1460  177.7570  146.9510 C   0  0  0  0  0  3  0  0  0  0  0  0
  189.0350  178.2300  148.3840 C   0  0  0  0  0  2  0  0  0  0  0  0
  1 27  1  6  0  0  0
  1 18  1  0  0  0  0
  2  8  1  0  0  0  0
  3  1  1  1  0  0  0
  4 12  1  0  0  0  0
  5  9  1  0  0  0  0
  5  2  2  0  0  0  0
  6  2  1  0  0  0  0
  7 10  1  0  0  0  0
  7  4  1  0  0  0  0
  8  4  2  0  0  0  0
  9  7  2  0  0  0  0
 10  3  1  0  0  0  0
 11  3  1  0  0  0  0
 11 12  1  0  0  0  0
 13 15  1  0  0  0  0
 15 16  1  0  0  0  0
 15 14  1  0  0  0  0
 15 10  1  0  0  0  0
 17 16  1  0  0  0  0
 18 24  1  0  0  0  0
 19 20  1  0  0  0  0
 20 25  1  0  0  0  0
 20 21  1  0  0  0  0
 22 26  1  0  0  0  0
 23 19  1  0  0  0  0
 24 23  1  0  0  0  0
 24 22  1  0  0  0  0
 26 20  1  0  0  0  0
 27 28  1  0  0  0  0
 28 34  1  0  0  0  0
 29 34  1  0  0  0  0
 29 31  2  0  0  0  0
 30 33  1  0  0  0  0
 31 32  1  0  0  0  0
 32 38  1  1  0  0  0
 33 32  1  0  0  0  0
 34 30  2  0  0  0  0
 35 29  1  0  0  0  0
 36 35  1  0  0  0  0
 37 36  1  0  0  0  0
 38 39  1  0  0  0  0
 39 40  1  0  0  0  0
 40 42  1  0  0  0  0
 41 43  1  0  0  0  0
 42 41  1  0  0  0  0
 42 43  1  0  0  0  0
M  END
>  <MODEL>
2

>  <REMARK>
 VINA RESULT:      -7.5      2.403      4.972
  Name = 
  14 active torsions:
  status: ('A' for Active; 'I' for Inactive)
    1  A    between atoms: C_1  and  C_34
    2  A    between atoms: C_1  and  N_35
    3  A    between atoms: C_2  and  C_27
    4  A    between atoms: O_3  and  C_4
    5  A    between atoms: O_3  and  C_12
    6  A    between atoms: C_8  and  C_34
    7  A    between atoms: C_11  and  C_22
    8  A    between atoms: C_11  and  C_36
    9  A    between atoms: C_15  and  C_38
   10  A    between atoms: C_15  and  C_42
   11  A    between atoms: C_27  and  N_30
   12  A    between atoms: C_29  and  C_31
   13  A    between atoms: C_29  and  C_36
   14  A    between atoms: C_34  and  C_38
                            x       y       z     vdW  Elec       q    Type
                         _______ _______ _______ _____ _____    ______ ____

>  <TORSDO>
F 14

$$$$
=
 OpenBabel11052416153D

 43 47  0  0  1  0  0  0  0  0999 V2000
  186.1030  178.3350  139.9380 C   0  0  1  0  0  3  0  0  0  0  0  0
  182.8120  174.5490  137.1840 C   0  0  0  0  0  0  0  0  0  0  0  0
  185.4500  178.7080  138.5960 C   0  0  1  0  0  3  0  0  0  0  0  0
  183.4270  176.7360  138.0290 C   0  0  0  0  0  0  0  0  0  0  0  0
  184.0670  174.4190  136.5930 C   0  0  0  0  0  3  0  0  0  0  0  0
  181.8120  173.4570  137.0550 C   0  0  0  0  0  1  0  0  0  0  0  0
  184.7080  176.6120  137.4400 C   0  0  0  0  0  0  0  0  0  0  0  0
  182.4960  175.7020  137.9060 C   0  0  0  0  0  3  0  0  0  0  0  0
  185.0070  175.4430  136.7210 C   0  0  0  0  0  3  0  0  0  0  0  0
  185.6800  177.6800  137.5760 N   0  0  0  0  0  0  0  0  0  0  0  0
  183.9760  179.1200  138.6540 C   0  0  0  0  0  2  0  0  0  0  0  0
  183.0590  177.9200  138.8770 C   0  0  0  0  0  2  0  0  0  0  0  0
  186.2690  177.7540  135.2950 O   0  0  0  0  0  1  0  0  0  0  0  0
  187.2550  179.2210  136.6990 O   0  0  0  0  0  1  0  0  0  0  0  0
  186.7610  177.9180  136.5930 C   0  0  0  0  0  0  0  0  0  0  0  0
  187.8950  176.9060  136.7830 C   0  0  0  0  0  2  0  0  0  0  0  0
  189.2780  177.5320  136.7070 C   0  0  0  0  0  1  0  0  0  0  0  0
  187.6070  178.5610  139.9040 C   0  0  0  0  0  2  0  0  0  0  0  0
  189.9180  176.2930  141.7180 C   0  0  0  0  0  2  0  0  0  0  0  0
  190.5960  177.3150  142.6300 C   0  0  0  0  0  0  0  0  0  0  0  0
  191.0460  176.6770  143.7680 F   0  0  0  0  0  0  0  0  0  0  0  0
  188.9330  178.9960  141.7920 C   0  0  0  0  0  2  0  0  0  0  0  0
  189.2250  176.9990  140.5510 C   0  0  0  0  0  2  0  0  0  0  0  0
  188.2320  177.9400  141.0620 N   0  0  0  0  0  0  0  0  0  0  0  0
  191.6770  177.8790  141.9750 F   0  0  0  0  0  0  0  0  0  0  0  0
  189.6090  178.4120  143.0310 C   0  0  0  0  0  2  0  0  0  0  0  0
  185.4890  179.0470  141.1370 C   0  0  0  0  0  2  0  0  0  0  0  0
  184.5860  178.1080  141.9210 C   0  0  0  0  0  2  0  0  0  0  0  0
  183.8950  178.5030  144.3790 C   0  0  0  0  0  0  0  0  0  0  0  0
  186.1740  177.8930  143.7730 C   0  0  0  0  0  3  0  0  0  0  0  0
  184.2560  178.8040  145.5960 N   0  0  0  0  0  0  0  0  0  0  0  0
  185.6650  178.8950  145.9900 C   0  0  2  0  0  3  0  0  0  0  0  0
  186.5200  177.8710  145.2350 C   0  0  0  0  0  2  0  0  0  0  0  0
  184.9220  178.1450  143.3760 C   0  0  0  0  0  0  0  0  0  0  0  0
  182.5440  178.4940  144.0170 O   0  0  0  0  0  0  0  0  0  0  0  0
  181.9290  179.5580  143.2990 C   0  0  0  0  0  2  0  0  0  0  0  0
  181.0840  179.0090  142.1660 C   0  0  0  0  0  1  0  0  0  0  0  0
  185.8200  178.7640  147.5000 C   0  0  0  0  0  2  0  0  0  0  0  0
  187.2440  179.0450  147.9530 C   0  0  0  0  0  2  0  0  0  0  0  0
  187.8960  177.7540  148.3980 C   0  0  0  0  0  2  0  0  0  0  0  0
  189.7710  176.5270  147.3660 C   0  0  0  0  0  2  0  0  0  0  0  0
  189.3770  177.8000  148.0860 C   0  0  0  0  0  3  0  0  0  0  0  0
  189.5660  177.8060  146.5840 C   0  0  0  0  0  2  0  0  0  0  0  0
  1 18  1  6  0  0  0
  1 27  1  0  0  0  0
  2  8  1  0  0  0  0
  3 11  1  0  0  0  0
  3  1  1  1  0  0  0
  4 12  1  0  0  0  0
  5  9  1  0  0  0  0
  5  2  2  0  0  0  0
  6  2  1  0  0  0  0
  7 10  1  0  0  0  0
  7  4  1  0  0  0  0
  8  4  2  0  0  0  0
  9  7  2  0  0  0  0
 10  3  1  0  0  0  0
 11 12  1  0  0  0  0
 13 15  1  0  0  0  0
 15 14  1  0  0  0  0
 15 16  1  0  0  0  0
 15 10  1  0  0  0  0
 17 16  1  0  0  0  0
 18 24  1  0  0  0  0
 19 20  1  0  0  0  0
 20 26  1  0  0  0  0
 20 21  1  0  0  0  0
 22 26  1  0  0  0  0
 23 24  1  0  0  0  0
 23 19  1  0  0  0  0
 24 22  1  0  0  0  0
 25 20  1  0  0  0  0
 27 28  1  0  0  0  0
 28 34  1  0  0  0  0
 29 31  2  0  0  0  0
 30 33  1  0  0  0  0
 31 32  1  0  0  0  0
 32 38  1  1  0  0  0
 33 32  1  0  0  0  0
 34 30  2  0  0  0  0
 34 29  1  0  0  0  0
 35 29  1  0  0  0  0
 36 35  1  0  0  0  0
 37 36  1  0  0  0  0
 38 39  1  0  0  0  0
 39 40  1  0  0  0  0
 41 42  1  0  0  0  0
 42 40  1  0  0  0  0
 43 41  1  0  0  0  0
 43 42  1  0  0  0  0
M  END
>  <MODEL>
3

>  <REMARK>
 VINA RESULT:      -7.4      2.302      3.401
  Name = 
  14 active torsions:
  status: ('A' for Active; 'I' for Inactive)
    1  A    between atoms: C_1  and  C_34
    2  A    between atoms: C_1  and  N_35
    3  A    between atoms: C_2  and  C_27
    4  A    between atoms: O_3  and  C_4
    5  A    between atoms: O_3  and  C_12
    6  A    between atoms: C_8  and  C_34
    7  A    between atoms: C_11  and  C_22
    8  A    between atoms: C_11  and  C_36
    9  A    between atoms: C_15  and  C_38
   10  A    between atoms: C_15  and  C_42
   11  A    between atoms: C_27  and  N_30
   12  A    between atoms: C_29  and  C_31
   13  A    between atoms: C_29  and  C_36
   14  A    between atoms: C_34  and  C_38
                            x       y       z     vdW  Elec       q    Type
                         _______ _______ _______ _____ _____    ______ ____

>  <TORSDO>
F 14

$$$$
=
 OpenBabel11052416153D

 43 47  0  0  1  0  0  0  0  0999 V2000
  188.2300  178.2150  142.1910 C   0  0  1  0  0  3  0  0  0  0  0  0
  188.4820  177.9810  147.9040 C   0  0  0  0  0  0  0  0  0  0  0  0
  188.5430  176.8860  142.8990 C   0  0  1  0  0  3  0  0  0  0  0  0
  187.8870  177.2020  145.6860 C   0  0  0  0  0  0  0  0  0  0  0  0
  189.8070  178.1330  147.5000 C   0  0  0  0  0  3  0  0  0  0  0  0
  188.0860  178.3150  149.2980 C   0  0  0  0  0  1  0  0  0  0  0  0
  189.2270  177.3620  145.2630 C   0  0  0  0  0  0  0  0  0  0  0  0
  187.5240  177.5240  146.9970 C   0  0  0  0  0  3  0  0  0  0  0  0
  190.1750  177.8260  146.1900 C   0  0  0  0  0  3  0  0  0  0  0  0
  189.6040  177.0390  143.9000 N   0  0  0  0  0  0  0  0  0  0  0  0
  187.3420  176.1260  143.4690 C   0  0  0  0  0  2  0  0  0  0  0  0
  186.8010  176.7850  144.7360 C   0  0  0  0  0  2  0  0  0  0  0  0
  190.9160  175.6350  142.5360 O   0  0  0  0  0  1  0  0  0  0  0  0
  191.6890  177.7060  142.9860 O   0  0  0  0  0  1  0  0  0  0  0  0
  190.9740  176.6290  143.5160 C   0  0  0  0  0  0  0  0  0  0  0  0
  191.7190  176.0420  144.7190 C   0  0  0  0  0  2  0  0  0  0  0  0
  192.1030  174.5830  144.5350 C   0  0  0  0  0  1  0  0  0  0  0  0
  189.2180  178.4900  141.0670 C   0  0  0  0  0  2  0  0  0  0  0  0
  188.3070  176.8820  137.8490 C   0  0  0  0  0  2  0  0  0  0  0  0
  189.6950  176.4230  137.4050 C   0  0  0  0  0  0  0  0  0  0  0  0
  189.5650  175.3270  136.5740 F   0  0  0  0  0  0  0  0  0  0  0  0
  190.5310  177.1510  139.6560 C   0  0  0  0  0  2  0  0  0  0  0  0
  188.4240  177.9560  138.9310 C   0  0  0  0  0  2  0  0  0  0  0  0
  189.1570  177.4250  140.0770 N   0  0  0  0  0  0  0  0  0  0  0  0
  190.3230  177.4400  136.7090 F   0  0  0  0  0  0  0  0  0  0  0  0
  190.5420  176.0300  138.6160 C   0  0  0  0  0  2  0  0  0  0  0  0
  186.8010  178.3130  141.6750 C   0  0  0  0  0  2  0  0  0  0  0  0
  186.0970  179.5310  142.2530 C   0  0  0  0  0  2  0  0  0  0  0  0
  183.6940  178.6660  141.8640 C   0  0  0  0  0  0  0  0  0  0  0  0
  184.4750  179.3200  144.0760 C   0  0  0  0  0  3  0  0  0  0  0  0
  182.4560  178.6150  142.2710 N   0  0  0  0  0  0  0  0  0  0  0  0
  182.0470  179.1250  143.5840 C   0  0  2  0  0  3  0  0  0  0  0  0
  183.1430  178.9040  144.6320 C   0  0  0  0  0  2  0  0  0  0  0  0
  184.7470  179.1620  142.7760 C   0  0  0  0  0  0  0  0  0  0  0  0
  184.0400  178.2360  140.5780 O   0  0  0  0  0  0  0  0  0  0  0  0
  184.0530  179.1030  139.4510 C   0  0  0  0  0  2  0  0  0  0  0  0
  184.8910  178.5060  138.3370 C   0  0  0  0  0  1  0  0  0  0  0  0
  180.7160  178.5220  144.0140 C   0  0  0  0  0  2  0  0  0  0  0  0
  179.6900  178.5470  142.8910 C   0  0  0  0  0  2  0  0  0  0  0  0
  179.2450  179.9730  142.6470 C   0  0  0  0  0  2  0  0  0  0  0  0
  179.0760  181.6260  140.8230 C   0  0  0  0  0  2  0  0  0  0  0  0
  178.9310  180.1600  141.1770 C   0  0  0  0  0  3  0  0  0  0  0  0
  180.1730  180.6490  140.4640 C   0  0  0  0  0  2  0  0  0  0  0  0
  1 18  1  6  0  0  0
  2  6  1  0  0  0  0
  3  1  1  1  0  0  0
  3 11  1  0  0  0  0
  3 10  1  0  0  0  0
  4  8  1  0  0  0  0
  5  2  1  0  0  0  0
  7  4  2  0  0  0  0
  7  9  1  0  0  0  0
  8  2  2  0  0  0  0
  9  5  2  0  0  0  0
 10  7  1  0  0  0  0
 11 12  1  0  0  0  0
 12  4  1  0  0  0  0
 13 15  1  0  0  0  0
 14 15  1  0  0  0  0
 15 10  1  0  0  0  0
 15 16  1  0  0  0  0
 17 16  1  0  0  0  0
 19 23  1  0  0  0  0
 20 19  1  0  0  0  0
 20 26  1  0  0  0  0
 21 20  1  0  0  0  0
 22 24  1  0  0  0  0
 23 24  1  0  0  0  0
 24 18  1  0  0  0  0
 25 20  1  0  0  0  0
 26 22  1  0  0  0  0
 27  1  1  0  0  0  0
 27 28  1  0  0  0  0
 28 34  1  0  0  0  0
 29 31  2  0  0  0  0
 29 34  1  0  0  0  0
 30 33  1  0  0  0  0
 31 32  1  0  0  0  0
 32 38  1  1  0  0  0
 32 33  1  0  0  0  0
 34 30  2  0  0  0  0
 35 29  1  0  0  0  0
 36 35  1  0  0  0  0
 37 36  1  0  0  0  0
 39 38  1  0  0  0  0
 40 39  1  0  0  0  0
 41 42  1  0  0  0  0
 42 40  1  0  0  0  0
 43 41  1  0  0  0  0
 43 42  1  0  0  0  0
M  END
>  <MODEL>
4

>  <REMARK>
 VINA RESULT:      -7.4      3.073      7.386
  Name = 
  14 active torsions:
  status: ('A' for Active; 'I' for Inactive)
    1  A    between atoms: C_1  and  C_34
    2  A    between atoms: C_1  and  N_35
    3  A    between atoms: C_2  and  C_27
    4  A    between atoms: O_3  and  C_4
    5  A    between atoms: O_3  and  C_12
    6  A    between atoms: C_8  and  C_34
    7  A    between atoms: C_11  and  C_22
    8  A    between atoms: C_11  and  C_36
    9  A    between atoms: C_15  and  C_38
   10  A    between atoms: C_15  and  C_42
   11  A    between atoms: C_27  and  N_30
   12  A    between atoms: C_29  and  C_31
   13  A    between atoms: C_29  and  C_36
   14  A    between atoms: C_34  and  C_38
                            x       y       z     vdW  Elec       q    Type
                         _______ _______ _______ _____ _____    ______ ____

>  <TORSDO>
F 14

$$$$
=
 OpenBabel11052416153D

 43 47  0  0  1  0  0  0  0  0999 V2000
  189.0770  177.4370  140.0060 C   0  0  1  0  0  3  0  0  0  0  0  0
  185.6550  175.0490  136.0890 C   0  0  0  0  0  0  0  0  0  0  0  0
  189.3550  177.6410  138.5070 C   0  0  1  0  0  3  0  0  0  0  0  0
  187.0050  176.8130  137.0600 C   0  0  0  0  0  0  0  0  0  0  0  0
  186.7200  174.1590  136.2140 C   0  0  0  0  0  3  0  0  0  0  0  0
  184.3660  174.5900  135.5070 C   0  0  0  0  0  1  0  0  0  0  0  0
  188.0900  175.9160  137.2010 C   0  0  0  0  0  0  0  0  0  0  0  0
  185.7960  176.3710  136.5170 C   0  0  0  0  0  3  0  0  0  0  0  0
  187.9270  174.5900  136.7660 C   0  0  0  0  0  3  0  0  0  0  0  0
  189.3420  176.3710  137.7740 N   0  0  0  0  0  0  0  0  0  0  0  0
  188.5060  178.7030  137.8020 C   0  0  0  0  0  2  0  0  0  0  0  0
  187.0740  178.2240  137.5700 C   0  0  0  0  0  2  0  0  0  0  0  0
  190.8500  174.6330  138.2840 O   0  0  0  0  0  1  0  0  0  0  0  0
  190.6890  175.3070  136.1360 O   0  0  0  0  0  1  0  0  0  0  0  0
  190.6480  175.7450  137.4630 C   0  0  0  0  0  0  0  0  0  0  0  0
  191.7930  176.7260  137.7310 C   0  0  0  0  0  2  0  0  0  0  0  0
  193.1640  176.1480  137.4200 C   0  0  0  0  0  1  0  0  0  0  0  0
  190.3560  177.1300  140.7710 C   0  0  0  0  0  2  0  0  0  0  0  0
  189.7600  176.4340  144.3660 C   0  0  0  0  0  2  0  0  0  0  0  0
  190.9810  177.1390  144.9560 C   0  0  0  0  0  0  0  0  0  0  0  0
  190.6970  177.5270  146.2510 F   0  0  0  0  0  0  0  0  0  0  0  0
  191.4480  178.0130  142.6520 C   0  0  0  0  0  2  0  0  0  0  0  0
  189.9640  176.1790  142.8720 C   0  0  0  0  0  2  0  0  0  0  0  0
  190.1840  177.4460  142.1800 N   0  0  0  0  0  0  0  0  0  0  0  0
  192.0570  176.2700  144.9760 F   0  0  0  0  0  0  0  0  0  0  0  0
  191.3340  178.3770  144.1310 C   0  0  0  0  0  2  0  0  0  0  0  0
  188.3380  178.5990  140.6570 C   0  0  0  0  0  2  0  0  0  0  0  0
  187.5390  178.1290  141.8620 C   0  0  0  0  0  2  0  0  0  0  0  0
  185.1460  178.2950  142.8200 C   0  0  0  0  0  0  0  0  0  0  0  0
  185.6320  178.8290  140.4940 C   0  0  0  0  0  3  0  0  0  0  0  0
  183.8610  178.3010  142.5950 N   0  0  0  0  0  0  0  0  0  0  0  0
  183.3080  178.3560  141.2380 C   0  0  2  0  0  3  0  0  0  0  0  0
  184.1890  179.2050  140.3140 C   0  0  0  0  0  2  0  0  0  0  0  0
  186.0890  178.4460  141.6910 C   0  0  0  0  0  0  0  0  0  0  0  0
  185.6420  178.1700  144.1220 O   0  0  0  0  0  0  0  0  0  0  0  0
  185.3210  179.0850  145.1630 C   0  0  0  0  0  2  0  0  0  0  0  0
  185.7980  178.5510  146.5000 C   0  0  0  0  0  1  0  0  0  0  0  0
  181.8650  178.8410  141.2560 C   0  0  0  0  0  2  0  0  0  0  0  0
  181.1040  178.4080  140.0120 C   0  0  0  0  0  2  0  0  0  0  0  0
  181.2040  176.9060  139.8570 C   0  0  0  0  0  2  0  0  0  0  0  0
  182.9670  175.5900  138.7410 C   0  0  0  0  0  2  0  0  0  0  0  0
  181.8390  176.5770  138.5220 C   0  0  0  0  0  3  0  0  0  0  0  0
  181.6300  175.1080  138.2230 C   0  0  0  0  0  2  0  0  0  0  0  0
  1 27  1  1  0  0  0
  1 18  1  0  0  0  0
  2  5  2  0  0  0  0
  2  8  1  0  0  0  0
  3  1  1  1  0  0  0
  4  7  1  0  0  0  0
  4 12  1  0  0  0  0
  5  9  1  0  0  0  0
  6  2  1  0  0  0  0
  7 10  1  0  0  0  0
  8  4  2  0  0  0  0
  9  7  2  0  0  0  0
 10  3  1  0  0  0  0
 11  3  1  0  0  0  0
 12 11  1  0  0  0  0
 14 15  1  0  0  0  0
 15 16  1  0  0  0  0
 15 10  1  0  0  0  0
 15 13  1  0  0  0  0
 17 16  1  0  0  0  0
 18 24  1  0  0  0  0
 19 20  1  0  0  0  0
 20 25  1  0  0  0  0
 20 21  1  0  0  0  0
 22 26  1  0  0  0  0
 23 19  1  0  0  0  0
 24 22  1  0  0  0  0
 24 23  1  0  0  0  0
 26 20  1  0  0  0  0
 27 28  1  0  0  0  0
 29 35  1  0  0  0  0
 30 34  2  0  0  0  0
 31 29  2  0  0  0  0
 32 38  1  1  0  0  0
 32 31  1  0  0  0  0
 33 30  1  0  0  0  0
 33 32  1  0  0  0  0
 34 28  1  0  0  0  0
 34 29  1  0  0  0  0
 35 36  1  0  0  0  0
 36 37  1  0  0  0  0
 39 38  1  0  0  0  0
 40 39  1  0  0  0  0
 42 41  1  0  0  0  0
 42 40  1  0  0  0  0
 43 42  1  0  0  0  0
 43 41  1  0  0  0  0
M  END
>  <MODEL>
5

>  <REMARK>
 VINA RESULT:      -7.4      1.343      4.121
  Name = 
  14 active torsions:
  status: ('A' for Active; 'I' for Inactive)
    1  A    between atoms: C_1  and  C_34
    2  A    between atoms: C_1  and  N_35
    3  A    between atoms: C_2  and  C_27
    4  A    between atoms: O_3  and  C_4
    5  A    between atoms: O_3  and  C_12
    6  A    between atoms: C_8  and  C_34
    7  A    between atoms: C_11  and  C_22
    8  A    between atoms: C_11  and  C_36
    9  A    between atoms: C_15  and  C_38
   10  A    between atoms: C_15  and  C_42
   11  A    between atoms: C_27  and  N_30
   12  A    between atoms: C_29  and  C_31
   13  A    between atoms: C_29  and  C_36
   14  A    between atoms: C_34  and  C_38
                            x       y       z     vdW  Elec       q    Type
                         _______ _______ _______ _____ _____    ______ ____

>  <TORSDO>
F 14

$$$$
=
 OpenBabel11052416153D

 43 47  0  0  1  0  0  0  0  0999 V2000
  189.8650  177.5770  141.9170 C   0  0  1  0  0  3  0  0  0  0  0  0
  186.4610  177.9990  146.4980 C   0  0  0  0  0  0  0  0  0  0  0  0
  189.8700  176.4750  142.9900 C   0  0  1  0  0  3  0  0  0  0  0  0
  187.5510  176.8630  144.6550 C   0  0  0  0  0  0  0  0  0  0  0  0
  187.6920  178.4910  146.9290 C   0  0  0  0  0  3  0  0  0  0  0  0
  185.2210  178.3400  147.2450 C   0  0  0  0  0  1  0  0  0  0  0  0
  188.8040  177.3640  145.0770 C   0  0  0  0  0  0  0  0  0  0  0  0
  186.3910  177.1930  145.3600 C   0  0  0  0  0  3  0  0  0  0  0  0
  188.8530  178.1760  146.2220 C   0  0  0  0  0  3  0  0  0  0  0  0
  190.0090  177.0310  144.3400 N   0  0  0  0  0  0  0  0  0  0  0  0
  188.7270  175.4580  142.9180 C   0  0  0  0  0  2  0  0  0  0  0  0
  187.4050  176.0530  143.3980 C   0  0  0  0  0  2  0  0  0  0  0  0
  192.0930  175.9360  144.4420 O   0  0  0  0  0  1  0  0  0  0  0  0
  192.0560  178.1800  144.6820 O   0  0  0  0  0  1  0  0  0  0  0  0
  191.3540  177.0030  144.9580 C   0  0  0  0  0  0  0  0  0  0  0  0
  191.2470  176.7950  146.4720 C   0  0  0  0  0  2  0  0  0  0  0  0
  192.0630  175.6160  146.9760 C   0  0  0  0  0  1  0  0  0  0  0  0
  189.6770  176.9940  140.5240 C   0  0  0  0  0  2  0  0  0  0  0  0
  191.9240  175.1950  138.1810 C   0  0  0  0  0  2  0  0  0  0  0  0
  193.1050  176.1650  138.1830 C   0  0  0  0  0  0  0  0  0  0  0  0
  194.2590  175.4720  137.8790 F   0  0  0  0  0  0  0  0  0  0  0  0
  191.9310  177.4110  140.0180 C   0  0  0  0  0  2  0  0  0  0  0  0
  190.6680  175.8850  138.7180 C   0  0  0  0  0  2  0  0  0  0  0  0
  190.9100  176.3650  140.0760 N   0  0  0  0  0  0  0  0  0  0  0  0
  192.9050  177.1450  137.2260 F   0  0  0  0  0  0  0  0  0  0  0  0
  193.2610  176.8150  139.5590 C   0  0  0  0  0  2  0  0  0  0  0  0
  188.8410  178.6760  142.1720 C   0  0  0  0  0  2  0  0  0  0  0  0
  188.1770  179.1110  140.8750 C   0  0  0  0  0  2  0  0  0  0  0  0
  185.9750  178.6210  139.6150 C   0  0  0  0  0  0  0  0  0  0  0  0
  186.0830  178.6250  142.0480 C   0  0  0  0  0  3  0  0  0  0  0  0
  184.6710  178.5980  139.6330 N   0  0  0  0  0  0  0  0  0  0  0  0
  183.9050  178.8080  140.8650 C   0  0  2  0  0  3  0  0  0  0  0  0
  184.6360  178.2240  142.0790 C   0  0  0  0  0  2  0  0  0  0  0  0
  186.7240  178.7650  140.8830 C   0  0  0  0  0  0  0  0  0  0  0  0
  186.6750  178.4890  138.4110 O   0  0  0  0  0  0  0  0  0  0  0  0
  186.2910  177.5760  137.3910 C   0  0  0  0  0  2  0  0  0  0  0  0
  187.1410  176.3210  137.4580 C   0  0  0  0  0  1  0  0  0  0  0  0
  182.4910  178.2570  140.7300 C   0  0  0  0  0  2  0  0  0  0  0  0
  181.4400  179.2910  141.1040 C   0  0  0  0  0  2  0  0  0  0  0  0
  181.1940  179.2440  142.5960 C   0  0  0  0  0  2  0  0  0  0  0  0
  179.7490  178.2680  144.3410 C   0  0  0  0  0  2  0  0  0  0  0  0
  179.8490  178.6030  142.8670 C   0  0  0  0  0  3  0  0  0  0  0  0
  179.0540  179.4960  143.7960 C   0  0  0  0  0  2  0  0  0  0  0  0
  1 18  1  6  0  0  0
  1 27  1  0  0  0  0
  2  5  1  0  0  0  0
  2  6  1  0  0  0  0
  3  1  1  6  0  0  0
  3 10  1  0  0  0  0
  4  7  2  0  0  0  0
  4  8  1  0  0  0  0
  7  9  1  0  0  0  0
  8  2  2  0  0  0  0
  9  5  2  0  0  0  0
 10 15  1  0  0  0  0
 10  7  1  0  0  0  0
 11  3  1  0  0  0  0
 11 12  1  0  0  0  0
 12  4  1  0  0  0  0
 13 15  1  0  0  0  0
 14 15  1  0  0  0  0
 15 16  1  0  0  0  0
 16 17  1  0  0  0  0
 19 20  1  0  0  0  0
 19 23  1  0  0  0  0
 20 26  1  0  0  0  0
 21 20  1  0  0  0  0
 22 24  1  0  0  0  0
 23 24  1  0  0  0  0
 24 18  1  0  0  0  0
 25 20  1  0  0  0  0
 26 22  1  0  0  0  0
 28 34  1  0  0  0  0
 28 27  1  0  0  0  0
 29 31  2  0  0  0  0
 29 34  1  0  0  0  0
 30 33  1  0  0  0  0
 31 32  1  0  0  0  0
 32 38  1  6  0  0  0
 32 33  1  0  0  0  0
 34 30  2  0  0  0  0
 35 29  1  0  0  0  0
 36 37  1  0  0  0  0
 36 35  1  0  0  0  0
 38 39  1  0  0  0  0
 39 40  1  0  0  0  0
 40 42  1  0  0  0  0
 42 43  1  0  0  0  0
 42 41  1  0  0  0  0
 43 41  1  0  0  0  0
M  END
>  <MODEL>
6

>  <REMARK>
 VINA RESULT:      -7.1      3.044      7.038
  Name = 
  14 active torsions:
  status: ('A' for Active; 'I' for Inactive)
    1  A    between atoms: C_1  and  C_34
    2  A    between atoms: C_1  and  N_35
    3  A    between atoms: C_2  and  C_27
    4  A    between atoms: O_3  and  C_4
    5  A    between atoms: O_3  and  C_12
    6  A    between atoms: C_8  and  C_34
    7  A    between atoms: C_11  and  C_22
    8  A    between atoms: C_11  and  C_36
    9  A    between atoms: C_15  and  C_38
   10  A    between atoms: C_15  and  C_42
   11  A    between atoms: C_27  and  N_30
   12  A    between atoms: C_29  and  C_31
   13  A    between atoms: C_29  and  C_36
   14  A    between atoms: C_34  and  C_38
                            x       y       z     vdW  Elec       q    Type
                         _______ _______ _______ _____ _____    ______ ____

>  <TORSDO>
F 14

$$$$
=
 OpenBabel11052416153D

 43 47  0  0  1  0  0  0  0  0999 V2000
  190.2110  177.6020  142.3050 C   0  0  1  0  0  3  0  0  0  0  0  0
  186.3530  178.1030  146.5040 C   0  0  0  0  0  0  0  0  0  0  0  0
  190.0210  176.4630  143.3220 C   0  0  1  0  0  3  0  0  0  0  0  0
  187.5620  176.9580  144.7400 C   0  0  0  0  0  0  0  0  0  0  0  0
  187.5590  178.4870  147.0870 C   0  0  0  0  0  3  0  0  0  0  0  0
  185.0640  178.5050  147.1250 C   0  0  0  0  0  1  0  0  0  0  0  0
  188.7920  177.3500  145.3180 C   0  0  0  0  0  0  0  0  0  0  0  0
  186.3560  177.3460  145.3290 C   0  0  0  0  0  3  0  0  0  0  0  0
  188.7680  178.1130  146.4980 C   0  0  0  0  0  3  0  0  0  0  0  0
  190.0450  176.9580  144.7030 N   0  0  0  0  0  0  0  0  0  0  0  0
  188.8260  175.5360  143.0810 C   0  0  0  0  0  2  0  0  0  0  0  0
  187.5030  176.2080  143.4400 C   0  0  0  0  0  2  0  0  0  0  0  0
  192.0670  175.7690  144.9220 O   0  0  0  0  0  1  0  0  0  0  0  0
  192.0730  177.9750  145.3930 O   0  0  0  0  0  1  0  0  0  0  0  0
  191.3070  176.8090  145.4620 C   0  0  0  0  0  0  0  0  0  0  0  0
  191.0190  176.4530  146.9240 C   0  0  0  0  0  2  0  0  0  0  0  0
  192.1830  175.7630  147.6160 C   0  0  0  0  0  1  0  0  0  0  0  0
  191.5920  177.5520  141.6700 C   0  0  0  0  0  2  0  0  0  0  0  0
  192.7750  177.0290  138.1920 C   0  0  0  0  0  2  0  0  0  0  0  0
  191.8470  175.8840  137.7880 C   0  0  0  0  0  0  0  0  0  0  0  0
  191.6760  175.9030  136.4180 F   0  0  0  0  0  0  0  0  0  0  0  0
  190.6550  176.2340  139.9680 C   0  0  0  0  0  2  0  0  0  0  0  0
  192.8180  177.1670  139.7140 C   0  0  0  0  0  2  0  0  0  0  0  0
  191.4740  177.4190  140.2260 N   0  0  0  0  0  0  0  0  0  0  0  0
  192.4120  174.6750  138.1530 F   0  0  0  0  0  0  0  0  0  0  0  0
  190.4830  176.0390  138.4630 C   0  0  0  0  0  2  0  0  0  0  0  0
  189.1350  177.6470  141.2280 C   0  0  0  0  0  2  0  0  0  0  0  0
  188.3830  178.9690  141.2670 C   0  0  0  0  0  2  0  0  0  0  0  0
  186.4910  178.6350  139.5400 C   0  0  0  0  0  0  0  0  0  0  0  0
  186.0360  178.7400  141.9300 C   0  0  0  0  0  3  0  0  0  0  0  0
  185.2230  178.7390  139.2530 N   0  0  0  0  0  0  0  0  0  0  0  0
  184.2200  179.0770  140.2680 C   0  0  2  0  0  3  0  0  0  0  0  0
  184.5870  178.4810  141.6320 C   0  0  0  0  0  2  0  0  0  0  0  0
  186.9390  178.7640  140.9440 C   0  0  0  0  0  0  0  0  0  0  0  0
  187.4310  178.3820  138.5360 O   0  0  0  0  0  0  0  0  0  0  0  0
  187.0770  178.2180  137.1680 C   0  0  0  0  0  2  0  0  0  0  0  0
  188.3230  178.0980  136.3120 C   0  0  0  0  0  1  0  0  0  0  0  0
  182.8260  178.6580  139.8190 C   0  0  0  0  0  2  0  0  0  0  0  0
  182.4890  179.1940  138.4360 C   0  0  0  0  0  2  0  0  0  0  0  0
  182.2060  180.6780  138.5250 C   0  0  0  0  0  2  0  0  0  0  0  0
  180.6930  182.3660  137.5510 C   0  0  0  0  0  2  0  0  0  0  0  0
  180.7840  180.9500  138.0810 C   0  0  0  0  0  3  0  0  0  0  0  0
  180.7710  181.2010  136.5880 C   0  0  0  0  0  2  0  0  0  0  0  0
  1 27  1  6  0  0  0
  2  5  1  0  0  0  0
  2  6  1  0  0  0  0
  3  1  1  6  0  0  0
  3 10  1  0  0  0  0
  4  7  2  0  0  0  0
  4  8  1  0  0  0  0
  7  9  1  0  0  0  0
  8  2  2  0  0  0  0
  9  5  2  0  0  0  0
 10  7  1  0  0  0  0
 10 15  1  0  0  0  0
 11  3  1  0  0  0  0
 11 12  1  0  0  0  0
 12  4  1  0  0  0  0
 13 15  1  0  0  0  0
 14 15  1  0  0  0  0
 15 16  1  0  0  0  0
 16 17  1  0  0  0  0
 18  1  1  0  0  0  0
 19 23  1  0  0  0  0
 20 25  1  0  0  0  0
 20 19  1  0  0  0  0
 20 26  1  0  0  0  0
 21 20  1  0  0  0  0
 22 24  1  0  0  0  0
 23 24  1  0  0  0  0
 24 18  1  0  0  0  0
 26 22  1  0  0  0  0
 27 28  1  0  0  0  0
 29 34  1  0  0  0  0
 31 29  2  0  0  0  0
 31 32  1  0  0  0  0
 32 38  1  6  0  0  0
 32 33  1  0  0  0  0
 33 30  1  0  0  0  0
 34 28  1  0  0  0  0
 34 30  2  0  0  0  0
 35 29  1  0  0  0  0
 36 35  1  0  0  0  0
 37 36  1  0  0  0  0
 39 40  1  0  0  0  0
 39 38  1  0  0  0  0
 41 42  1  0  0  0  0
 42 40  1  0  0  0  0
 43 41  1  0  0  0  0
 43 42  1  0  0  0  0
M  END
>  <MODEL>
7

>  <REMARK>
 VINA RESULT:      -7.1      3.110      7.779
  Name = 
  14 active torsions:
  status: ('A' for Active; 'I' for Inactive)
    1  A    between atoms: C_1  and  C_34
    2  A    between atoms: C_1  and  N_35
    3  A    between atoms: C_2  and  C_27
    4  A    between atoms: O_3  and  C_4
    5  A    between atoms: O_3  and  C_12
    6  A    between atoms: C_8  and  C_34
    7  A    between atoms: C_11  and  C_22
    8  A    between atoms: C_11  and  C_36
    9  A    between atoms: C_15  and  C_38
   10  A    between atoms: C_15  and  C_42
   11  A    between atoms: C_27  and  N_30
   12  A    between atoms: C_29  and  C_31
   13  A    between atoms: C_29  and  C_36
   14  A    between atoms: C_34  and  C_38
                            x       y       z     vdW  Elec       q    Type
                         _______ _______ _______ _____ _____    ______ ____

>  <TORSDO>
F 14

$$$$
=
 OpenBabel11052416153D

 43 47  0  0  1  0  0  0  0  0999 V2000
  190.2580  176.6670  138.0680 C   0  0  1  0  0  3  0  0  0  0  0  0
  184.5940  177.1030  137.3700 C   0  0  0  0  0  0  0  0  0  0  0  0
  189.6570  176.7540  136.6550 C   0  0  1  0  0  3  0  0  0  0  0  0
  186.9210  177.6180  136.9200 C   0  0  0  0  0  0  0  0  0  0  0  0
  184.8630  175.7430  137.2240 C   0  0  0  0  0  3  0  0  0  0  0  0
  183.2160  177.5590  137.6880 C   0  0  0  0  0  1  0  0  0  0  0  0
  187.2070  176.2400  136.7790 C   0  0  0  0  0  0  0  0  0  0  0  0
  185.6230  178.0370  137.2250 C   0  0  0  0  0  3  0  0  0  0  0  0
  186.1590  175.3160  136.9310 C   0  0  0  0  0  3  0  0  0  0  0  0
  188.5550  175.8020  136.4730 N   0  0  0  0  0  0  0  0  0  0  0  0
  189.2710  178.1550  136.1710 C   0  0  0  0  0  2  0  0  0  0  0  0
  188.0000  178.6610  136.8480 C   0  0  0  0  0  2  0  0  0  0  0  0
  187.7830  174.1830  134.9450 O   0  0  0  0  0  1  0  0  0  0  0  0
  189.9880  174.6620  134.9650 O   0  0  0  0  0  1  0  0  0  0  0  0
  188.8540  174.5330  135.7710 C   0  0  0  0  0  0  0  0  0  0  0  0
  189.0470  173.3930  136.7760 C   0  0  0  0  0  2  0  0  0  0  0  0
  187.9980  172.3000  136.6550 C   0  0  0  0  0  1  0  0  0  0  0  0
  191.7780  176.7300  138.0270 C   0  0  0  0  0  2  0  0  0  0  0  0
  194.1760  175.5290  135.4620 C   0  0  0  0  0  2  0  0  0  0  0  0
  194.3460  174.0890  135.9440 C   0  0  0  0  0  0  0  0  0  0  0  0
  194.7000  173.2930  134.8730 F   0  0  0  0  0  0  0  0  0  0  0  0
  192.5090  174.5430  137.5910 C   0  0  0  0  0  2  0  0  0  0  0  0
  193.5810  176.3950  136.5740 C   0  0  0  0  0  2  0  0  0  0  0  0
  192.2870  175.8550  136.9830 N   0  0  0  0  0  0  0  0  0  0  0  0
  195.3490  174.0310  136.8960 F   0  0  0  0  0  0  0  0  0  0  0  0
  193.0390  173.5670  136.5420 C   0  0  0  0  0  2  0  0  0  0  0  0
  189.7110  177.7110  139.0320 C   0  0  0  0  0  2  0  0  0  0  0  0
  188.8100  177.0680  140.0750 C   0  0  0  0  0  2  0  0  0  0  0  0
  188.9420  178.2530  142.3670 C   0  0  0  0  0  0  0  0  0  0  0  0
  190.3950  176.3800  141.8100 C   0  0  0  0  0  3  0  0  0  0  0  0
  189.6450  178.5360  143.4280 N   0  0  0  0  0  0  0  0  0  0  0  0
  190.9430  177.9080  143.6920 C   0  0  2  0  0  3  0  0  0  0  0  0
  190.9700  176.4570  143.1960 C   0  0  0  0  0  2  0  0  0  0  0  0
  189.4050  177.1980  141.4390 C   0  0  0  0  0  0  0  0  0  0  0  0
  187.7400  178.9210  142.1070 O   0  0  0  0  0  0  0  0  0  0  0  0
  186.4650  178.3390  142.3460 C   0  0  0  0  0  2  0  0  0  0  0  0
  185.4840  178.7600  141.2680 C   0  0  0  0  0  1  0  0  0  0  0  0
  191.3110  178.0130  145.1670 C   0  0  0  0  0  2  0  0  0  0  0  0
  191.3330  176.6530  145.8460 C   0  0  0  0  0  2  0  0  0  0  0  0
  190.5930  176.7340  147.1630 C   0  0  0  0  0  2  0  0  0  0  0  0
  188.2470  177.0650  147.8540 C   0  0  0  0  0  2  0  0  0  0  0  0
  189.3730  177.6180  147.0040 C   0  0  0  0  0  3  0  0  0  0  0  0
  189.0460  178.2550  148.3380 C   0  0  0  0  0  2  0  0  0  0  0  0
  1 18  1  6  0  0  0
  1 27  1  0  0  0  0
  2  6  1  0  0  0  0
  3  1  1  1  0  0  0
  4  8  2  0  0  0  0
  5  2  2  0  0  0  0
  7  4  1  0  0  0  0
  7  9  2  0  0  0  0
  8  2  1  0  0  0  0
  9  5  1  0  0  0  0
 10  3  1  0  0  0  0
 10  7  1  0  0  0  0
 11  3  1  0  0  0  0
 11 12  1  0  0  0  0
 12  4  1  0  0  0  0
 13 15  1  0  0  0  0
 14 15  1  0  0  0  0
 15 10  1  0  0  0  0
 15 16  1  0  0  0  0
 17 16  1  0  0  0  0
 19 20  1  0  0  0  0
 19 23  1  0  0  0  0
 20 26  1  0  0  0  0
 20 25  1  0  0  0  0
 21 20  1  0  0  0  0
 23 24  1  0  0  0  0
 24 22  1  0  0  0  0
 24 18  1  0  0  0  0
 26 22  1  0  0  0  0
 27 28  1  0  0  0  0
 28 34  1  0  0  0  0
 29 31  2  0  0  0  0
 30 33  1  0  0  0  0
 31 32  1  0  0  0  0
 32 38  1  1  0  0  0
 33 32  1  0  0  0  0
 34 30  2  0  0  0  0
 34 29  1  0  0  0  0
 35 36  1  0  0  0  0
 35 29  1  0  0  0  0
 37 36  1  0  0  0  0
 38 39  1  0  0  0  0
 39 40  1  0  0  0  0
 41 43  1  0  0  0  0
 42 40  1  0  0  0  0
 42 41  1  0  0  0  0
 42 43  1  0  0  0  0
M  END
>  <MODEL>
8

>  <REMARK>
 VINA RESULT:      -7.0      2.889      4.884
  Name = 
  14 active torsions:
  status: ('A' for Active; 'I' for Inactive)
    1  A    between atoms: C_1  and  C_34
    2  A    between atoms: C_1  and  N_35
    3  A    between atoms: C_2  and  C_27
    4  A    between atoms: O_3  and  C_4
    5  A    between atoms: O_3  and  C_12
    6  A    between atoms: C_8  and  C_34
    7  A    between atoms: C_11  and  C_22
    8  A    between atoms: C_11  and  C_36
    9  A    between atoms: C_15  and  C_38
   10  A    between atoms: C_15  and  C_42
   11  A    between atoms: C_27  and  N_30
   12  A    between atoms: C_29  and  C_31
   13  A    between atoms: C_29  and  C_36
   14  A    between atoms: C_34  and  C_38
                            x       y       z     vdW  Elec       q    Type
                         _______ _______ _______ _____ _____    ______ ____

>  <TORSDO>
F 14

$$$$
=
 OpenBabel11052416153D

 43 47  0  0  1  0  0  0  0  0999 V2000
  189.7770  176.4120  138.1270 C   0  0  1  0  0  3  0  0  0  0  0  0
  184.1340  176.9590  137.3380 C   0  0  0  0  0  0  0  0  0  0  0  0
  189.2000  176.5220  136.7040 C   0  0  1  0  0  3  0  0  0  0  0  0
  186.4770  177.4340  136.9320 C   0  0  0  0  0  0  0  0  0  0  0  0
  184.3800  175.5960  137.1850 C   0  0  0  0  0  3  0  0  0  0  0  0
  182.7590  177.4380  137.6370 C   0  0  0  0  0  1  0  0  0  0  0  0
  186.7400  176.0520  136.7840 C   0  0  0  0  0  0  0  0  0  0  0  0
  185.1820  177.8740  137.2180 C   0  0  0  0  0  3  0  0  0  0  0  0
  185.6730  175.1470  136.9110 C   0  0  0  0  0  3  0  0  0  0  0  0
  188.0850  175.5920  136.4970 N   0  0  0  0  0  0  0  0  0  0  0  0
  188.8490  177.9340  136.2260 C   0  0  0  0  0  2  0  0  0  0  0  0
  187.5760  178.4570  136.8860 C   0  0  0  0  0  2  0  0  0  0  0  0
  187.2730  173.9550  135.0100 O   0  0  0  0  0  1  0  0  0  0  0  0
  189.4700  174.4630  134.9370 O   0  0  0  0  0  1  0  0  0  0  0  0
  188.3720  174.3230  135.7890 C   0  0  0  0  0  0  0  0  0  0  0  0
  188.6220  173.1920  136.7910 C   0  0  0  0  0  2  0  0  0  0  0  0
  187.7710  171.9590  136.5300 C   0  0  0  0  0  1  0  0  0  0  0  0
  191.2730  176.6890  138.1410 C   0  0  0  0  0  2  0  0  0  0  0  0
  194.0790  175.6050  135.9670 C   0  0  0  0  0  2  0  0  0  0  0  0
  194.0460  174.1050  136.2580 C   0  0  0  0  0  0  0  0  0  0  0  0
  194.5680  173.4230  135.1770 F   0  0  0  0  0  0  0  0  0  0  0  0
  191.9330  174.5160  137.5470 C   0  0  0  0  0  2  0  0  0  0  0  0
  193.3190  176.3730  137.0500 C   0  0  0  0  0  2  0  0  0  0  0  0
  191.9340  175.9100  137.1050 N   0  0  0  0  0  0  0  0  0  0  0  0
  194.8160  173.8300  137.3750 F   0  0  0  0  0  0  0  0  0  0  0  0
  192.6100  173.6370  136.4960 C   0  0  0  0  0  2  0  0  0  0  0  0
  189.0660  177.2950  139.1450 C   0  0  0  0  0  2  0  0  0  0  0  0
  189.6540  177.1020  140.5340 C   0  0  0  0  0  2  0  0  0  0  0  0
  188.9700  177.3400  143.0140 C   0  0  0  0  0  0  0  0  0  0  0  0
  187.6000  178.2480  141.2160 C   0  0  0  0  0  3  0  0  0  0  0  0
  188.0190  177.5260  143.8870 N   0  0  0  0  0  0  0  0  0  0  0  0
  186.6570  177.8950  143.4890 C   0  0  2  0  0  3  0  0  0  0  0  0
  186.6670  178.8040  142.2540 C   0  0  0  0  0  2  0  0  0  0  0  0
  188.7110  177.5990  141.5800 C   0  0  0  0  0  0  0  0  0  0  0  0
  190.2410  176.9190  143.4210 O   0  0  0  0  0  0  0  0  0  0  0  0
  191.3690  177.7850  143.4500 C   0  0  0  0  0  2  0  0  0  0  0  0
  190.9710  179.1510  143.9750 C   0  0  0  0  0  1  0  0  0  0  0  0
  185.8990  178.5210  144.6520 C   0  0  0  0  0  2  0  0  0  0  0  0
  185.8970  177.6230  145.8790 C   0  0  0  0  0  2  0  0  0  0  0  0
  186.6580  178.2980  146.9990 C   0  0  0  0  0  2  0  0  0  0  0  0
  189.0590  178.1270  147.5380 C   0  0  0  0  0  2  0  0  0  0  0  0
  187.7460  177.3720  147.5020 C   0  0  0  0  0  3  0  0  0  0  0  0
  188.2800  177.9030  148.8150 C   0  0  0  0  0  2  0  0  0  0  0  0
  1 18  1  6  0  0  0
  1 27  1  0  0  0  0
  2  6  1  0  0  0  0
  3  1  1  1  0  0  0
  4  8  2  0  0  0  0
  5  2  2  0  0  0  0
  7  9  2  0  0  0  0
  7  4  1  0  0  0  0
  8  2  1  0  0  0  0
  9  5  1  0  0  0  0
 10  3  1  0  0  0  0
 10  7  1  0  0  0  0
 11  3  1  0  0  0  0
 11 12  1  0  0  0  0
 12  4  1  0  0  0  0
 13 15  1  0  0  0  0
 14 15  1  0  0  0  0
 15 10  1  0  0  0  0
 15 16  1  0  0  0  0
 17 16  1  0  0  0  0
 19 20  1  0  0  0  0
 19 23  1  0  0  0  0
 20 26  1  0  0  0  0
 20 25  1  0  0  0  0
 21 20  1  0  0  0  0
 23 24  1  0  0  0  0
 24 22  1  0  0  0  0
 24 18  1  0  0  0  0
 26 22  1  0  0  0  0
 27 28  1  0  0  0  0
 28 34  1  0  0  0  0
 29 35  1  0  0  0  0
 29 31  2  0  0  0  0
 30 34  2  0  0  0  0
 30 33  1  0  0  0  0
 32 31  1  0  0  0  0
 32 38  1  1  0  0  0
 33 32  1  0  0  0  0
 34 29  1  0  0  0  0
 35 36  1  0  0  0  0
 36 37  1  0  0  0  0
 38 39  1  0  0  0  0
 39 40  1  0  0  0  0
 40 42  1  0  0  0  0
 41 43  1  0  0  0  0
 42 41  1  0  0  0  0
 42 43  1  0  0  0  0
M  END
>  <MODEL>
9

>  <REMARK>
 VINA RESULT:      -7.0      2.873      4.825
  Name = 
  14 active torsions:
  status: ('A' for Active; 'I' for Inactive)
    1  A    between atoms: C_1  and  C_34
    2  A    between atoms: C_1  and  N_35
    3  A    between atoms: C_2  and  C_27
    4  A    between atoms: O_3  and  C_4
    5  A    between atoms: O_3  and  C_12
    6  A    between atoms: C_8  and  C_34
    7  A    between atoms: C_11  and  C_22
    8  A    between atoms: C_11  and  C_36
    9  A    between atoms: C_15  and  C_38
   10  A    between atoms: C_15  and  C_42
   11  A    between atoms: C_27  and  N_30
   12  A    between atoms: C_29  and  C_31
   13  A    between atoms: C_29  and  C_36
   14  A    between atoms: C_34  and  C_38
                            x       y       z     vdW  Elec       q    Type
                         _______ _______ _______ _____ _____    ______ ____

>  <TORSDO>
F 14

$$$$
