=
 OpenBabel11052414403D

 32 37  0  0  1  0  0  0  0  0999 V2000
  185.9660  178.5800  139.5980 C   0  0  0  0  0  0  0  0  0  0  0  0
  186.9840  178.5010  141.8700 C   0  0  2  0  0  3  0  0  0  0  0  0
  186.0350  178.4610  138.2430 N   0  0  0  0  0  0  0  0  0  0  0  0
  187.1090  178.3760  140.3780 C   0  0  0  0  0  0  0  0  0  0  0  0
  188.0840  177.7850  142.7090 C   0  0  1  0  0  3  0  0  0  0  0  0
  184.1900  178.9110  145.7800 C   0  0  0  0  0  3  0  0  0  0  0  0
  185.5280  178.2120  142.2780 C   0  0  2  0  0  3  0  0  0  0  0  0
  186.2730  177.6830  145.9490 C   0  0  0  0  0  3  0  0  0  0  0  0
  186.3820  177.6760  144.5560 C   0  0  0  0  0  0  0  0  0  0  0  0
  188.3120  178.0240  139.7630 C   0  0  0  0  0  0  0  0  0  0  0  0
  187.5250  176.9670  143.8870 C   0  0  0  0  0  2  0  0  0  0  0  0
  189.5120  177.7220  140.6020 C   0  0  0  0  0  2  0  0  0  0  0  0
  188.3700  177.9340  138.3700 C   0  0  0  0  0  3  0  0  0  0  0  0
  184.6980  179.1290  141.6000 O   0  0  0  0  0  0  0  0  0  0  0  0
  184.7080  178.7550  140.2810 N   0  0  0  0  0  0  0  0  0  0  0  0
  185.3920  178.2890  143.7690 C   0  0  0  0  0  0  0  0  0  0  0  0
  189.0900  176.9710  141.8700 C   0  0  1  0  0  3  0  0  0  0  0  0
  187.2100  178.1630  137.6210 C   0  0  0  0  0  3  0  0  0  0  0  0
  185.1800  178.3060  146.5610 C   0  0  0  0  0  3  0  0  0  0  0  0
  184.2900  178.8980  144.3850 C   0  0  0  0  0  3  0  0  0  0  0  0
  180.9660  178.9110  140.0050 C   0  0  1  0  0  3  0  0  0  0  0  0
  180.6800  176.3210  137.2790 O   0  0  0  0  0  1  0  0  0  0  0  0
  180.1030  179.9540  140.3440 O   0  0  0  0  0  1  0  0  0  0  0  0
  182.0870  176.2250  139.2110 C   0  0  0  0  0  2  0  0  0  0  0  0
  183.4670  178.3440  139.6370 C   0  0  1  0  0  3  0  0  0  0  0  0
  180.3870  178.1120  138.8320 C   0  0  0  0  0  2  0  0  0  0  0  0
  183.0230  176.9770  140.1720 C   0  0  0  0  0  2  0  0  0  0  0  0
  182.3980  179.4400  139.7990 C   0  0  1  0  0  3  0  0  0  0  0  0
  182.4820  180.4260  138.6440 C   0  0  0  0  0  1  0  0  0  0  0  0
  181.3620  177.1170  138.1980 C   0  0  2  0  0  3  0  0  0  0  0  0
  190.3210  176.5880  142.6860 C   0  0  0  0  0  2  0  0  0  0  0  0
  190.3940  175.2040  142.8550 O   0  0  0  0  0  1  0  0  0  0  0  0
  1 15  1  0  0  0  0
  1  4  1  0  0  0  0
  2  4  1  6  0  0  0
  2  7  1  0  0  0  0
  2  5  1  0  0  0  0
  3  1  2  0  0  0  0
  5 11  1  1  0  0  0
  6 19  1  0  0  0  0
  7 14  1  6  0  0  0
  7 16  1  0  0  0  0
  8 19  2  0  0  0  0
  9  8  1  0  0  0  0
 10  4  2  0  0  0  0
 10 12  1  0  0  0  0
 11  9  1  0  0  0  0
 12 17  1  0  0  0  0
 13 10  1  0  0  0  0
 15 14  1  0  0  0  0
 16 20  1  0  0  0  0
 16  9  2  0  0  0  0
 17 31  1  1  0  0  0
 17  5  1  0  0  0  0
 18  3  1  0  0  0  0
 18 13  2  0  0  0  0
 20  6  2  0  0  0  0
 21 23  1  6  0  0  0
 24 27  1  0  0  0  0
 25 28  1  0  0  0  0
 25 27  1  1  0  0  0
 25 15  1  0  0  0  0
 26 21  1  0  0  0  0
 28 29  1  6  0  0  0
 28 21  1  0  0  0  0
 30 22  1  6  0  0  0
 30 26  1  0  0  0  0
 30 24  1  0  0  0  0
 31 32  1  0  0  0  0
M  END
>  <MODEL>
1

>  <REMARK>
 VINA RESULT:     -10.6      0.000      0.000
  Name = 
  2 active torsions:
  status: ('A' for Active; 'I' for Inactive)
    1  A    between atoms: C_13  and  C_29
    2  A    between atoms: C_16  and  N_27
                            x       y       z     vdW  Elec       q    Type
                         _______ _______ _______ _____ _____    ______ ____

>  <TORSDO>
F 2

$$$$
=
 OpenBabel11052414403D

 32 37  0  0  1  0  0  0  0  0999 V2000
  186.0830  178.7360  139.6130 C   0  0  0  0  0  0  0  0  0  0  0  0
  187.1160  178.4230  141.8580 C   0  0  2  0  0  3  0  0  0  0  0  0
  186.1150  178.6700  138.2530 N   0  0  0  0  0  0  0  0  0  0  0  0
  187.2010  178.3520  140.3600 C   0  0  0  0  0  0  0  0  0  0  0  0
  188.1260  177.5340  142.6420 C   0  0  1  0  0  3  0  0  0  0  0  0
  184.4570  179.0130  145.8380 C   0  0  0  0  0  3  0  0  0  0  0  0
  185.6410  178.3060  142.2830 C   0  0  2  0  0  3  0  0  0  0  0  0
  186.3650  177.5190  145.9110 C   0  0  0  0  0  3  0  0  0  0  0  0
  186.4520  177.5620  144.5180 C   0  0  0  0  0  0  0  0  0  0  0  0
  188.3390  177.8750  139.7050 C   0  0  0  0  0  0  0  0  0  0  0  0
  187.4830  176.7430  143.7960 C   0  0  0  0  0  2  0  0  0  0  0  0
  189.5020  177.3830  140.5060 C   0  0  0  0  0  2  0  0  0  0  0  0
  188.3640  177.8420  138.3090 C   0  0  0  0  0  3  0  0  0  0  0  0
  184.9270  179.3530  141.6620 O   0  0  0  0  0  0  0  0  0  0  0  0
  184.8690  179.0410  140.3290 N   0  0  0  0  0  0  0  0  0  0  0  0
  185.5380  178.3330  143.7780 C   0  0  0  0  0  0  0  0  0  0  0  0
  189.0050  176.6370  141.7490 C   0  0  1  0  0  3  0  0  0  0  0  0
  187.2320  178.2520  137.5940 C   0  0  0  0  0  3  0  0  0  0  0  0
  185.3710  178.2500  146.5720 C   0  0  0  0  0  3  0  0  0  0  0  0
  184.5340  179.0500  144.4430 C   0  0  0  0  0  3  0  0  0  0  0  0
  182.7670  177.4020  137.6820 C   0  0  1  0  0  3  0  0  0  0  0  0
  179.5650  179.1740  138.5930 O   0  0  0  0  0  1  0  0  0  0  0  0
  182.9630  176.1810  137.0370 O   0  0  0  0  0  1  0  0  0  0  0  0
  181.7510  180.1360  138.4580 C   0  0  0  0  0  2  0  0  0  0  0  0
  183.5750  178.8230  139.6930 C   0  0  1  0  0  3  0  0  0  0  0  0
  181.2670  177.7030  137.7930 C   0  0  0  0  0  2  0  0  0  0  0  0
  183.2540  179.9800  138.7390 C   0  0  0  0  0  2  0  0  0  0  0  0
  183.5470  177.4430  139.0100 C   0  0  1  0  0  3  0  0  0  0  0  0
  183.0630  176.3860  139.9900 C   0  0  0  0  0  1  0  0  0  0  0  0
  180.9200  178.8730  138.7160 C   0  0  2  0  0  3  0  0  0  0  0  0
  190.1880  176.0620  142.5220 C   0  0  0  0  0  2  0  0  0  0  0  0
  191.2550  176.9630  142.5400 O   0  0  0  0  0  1  0  0  0  0  0  0
  1 15  1  0  0  0  0
  1  4  1  0  0  0  0
  2  4  1  6  0  0  0
  2  7  1  0  0  0  0
  2  5  1  0  0  0  0
  3  1  2  0  0  0  0
  5 11  1  1  0  0  0
  6 19  1  0  0  0  0
  7 14  1  6  0  0  0
  7 16  1  0  0  0  0
  8 19  2  0  0  0  0
  9  8  1  0  0  0  0
 10  4  2  0  0  0  0
 10 12  1  0  0  0  0
 11  9  1  0  0  0  0
 12 17  1  0  0  0  0
 13 10  1  0  0  0  0
 15 14  1  0  0  0  0
 16 20  1  0  0  0  0
 16  9  2  0  0  0  0
 17 31  1  1  0  0  0
 17  5  1  0  0  0  0
 18  3  1  0  0  0  0
 18 13  2  0  0  0  0
 20  6  2  0  0  0  0
 21 23  1  1  0  0  0
 21 26  1  0  0  0  0
 21 28  1  0  0  0  0
 24 30  1  0  0  0  0
 24 27  1  0  0  0  0
 25 27  1  6  0  0  0
 25 15  1  0  0  0  0
 26 30  1  0  0  0  0
 28 25  1  0  0  0  0
 28 29  1  1  0  0  0
 30 22  1  6  0  0  0
 31 32  1  0  0  0  0
M  END
>  <MODEL>
2

>  <REMARK>
 VINA RESULT:      -9.4      0.835      1.920
  Name = 
  2 active torsions:
  status: ('A' for Active; 'I' for Inactive)
    1  A    between atoms: C_13  and  C_29
    2  A    between atoms: C_16  and  N_27
                            x       y       z     vdW  Elec       q    Type
                         _______ _______ _______ _____ _____    ______ ____

>  <TORSDO>
F 2

$$$$
=
 OpenBabel11052414403D

 32 37  0  0  1  0  0  0  0  0999 V2000
  187.5940  178.2400  139.0710 C   0  0  0  0  0  0  0  0  0  0  0  0
  188.0130  178.2300  141.5270 C   0  0  2  0  0  3  0  0  0  0  0  0
  187.9770  178.0140  137.7830 N   0  0  0  0  0  0  0  0  0  0  0  0
  188.4820  177.9820  140.1210 C   0  0  0  0  0  0  0  0  0  0  0  0
  188.7860  177.4720  142.6470 C   0  0  1  0  0  3  0  0  0  0  0  0
  184.4180  179.2090  144.5890 C   0  0  0  0  0  3  0  0  0  0  0  0
  186.4780  178.1190  141.5710 C   0  0  2  0  0  3  0  0  0  0  0  0
  186.2410  177.7940  145.3320 C   0  0  0  0  0  3  0  0  0  0  0  0
  186.6840  177.6720  144.0130 C   0  0  0  0  0  0  0  0  0  0  0  0
  189.7500  177.4660  139.8430 C   0  0  0  0  0  0  0  0  0  0  0  0
  187.8660  176.8050  143.6850 C   0  0  0  0  0  2  0  0  0  0  0  0
  190.6660  177.1090  140.9690 C   0  0  0  0  0  2  0  0  0  0  0  0
  190.1340  177.2670  138.5150 C   0  0  0  0  0  3  0  0  0  0  0  0
  185.9500  179.0620  140.6640 O   0  0  0  0  0  0  0  0  0  0  0  0
  186.2380  178.5920  139.4090 N   0  0  0  0  0  0  0  0  0  0  0  0
  185.9930  178.3210  142.9740 C   0  0  0  0  0  0  0  0  0  0  0  0
  189.8640  176.5020  142.1260 C   0  0  1  0  0  3  0  0  0  0  0  0
  189.2250  177.5540  137.4900 C   0  0  0  0  0  3  0  0  0  0  0  0
  185.1120  178.5680  145.6210 C   0  0  0  0  0  3  0  0  0  0  0  0
  184.8520  179.0820  143.2660 C   0  0  0  0  0  3  0  0  0  0  0  0
  182.6910  177.5120  138.8090 C   0  0  1  0  0  3  0  0  0  0  0  0
  182.9840  177.3250  135.0540 O   0  0  0  0  0  1  0  0  0  0  0  0
  181.5660  177.7060  139.6110 O   0  0  0  0  0  1  0  0  0  0  0  0
  184.5830  176.5610  136.6590 C   0  0  0  0  0  2  0  0  0  0  0  0
  185.1510  178.2590  138.4950 C   0  0  1  0  0  3  0  0  0  0  0  0
  182.2820  177.4830  137.3310 C   0  0  0  0  0  2  0  0  0  0  0  0
  185.3080  176.8200  137.9900 C   0  0  0  0  0  2  0  0  0  0  0  0
  183.7930  178.5260  139.1680 C   0  0  1  0  0  3  0  0  0  0  0  0
  183.3550  179.9600  138.9110 C   0  0  0  0  0  1  0  0  0  0  0  0
  183.4520  177.5480  136.3460 C   0  0  2  0  0  3  0  0  0  0  0  0
  190.8070  176.0590  143.2410 C   0  0  0  0  0  2  0  0  0  0  0  0
  191.6010  177.1250  143.6720 O   0  0  0  0  0  1  0  0  0  0  0  0
  1 15  1  0  0  0  0
  1  4  1  0  0  0  0
  2  4  1  6  0  0  0
  2  7  1  0  0  0  0
  2  5  1  0  0  0  0
  3  1  2  0  0  0  0
  5 11  1  6  0  0  0
  6 19  1  0  0  0  0
  7 14  1  6  0  0  0
  7 16  1  0  0  0  0
  8 19  2  0  0  0  0
  9  8  1  0  0  0  0
 10  4  2  0  0  0  0
 10 12  1  0  0  0  0
 11  9  1  0  0  0  0
 12 17  1  0  0  0  0
 13 10  1  0  0  0  0
 15 14  1  0  0  0  0
 16 20  1  0  0  0  0
 16  9  2  0  0  0  0
 17  5  1  0  0  0  0
 17 31  1  1  0  0  0
 18  3  1  0  0  0  0
 18 13  2  0  0  0  0
 20  6  2  0  0  0  0
 21 28  1  0  0  0  0
 21 23  1  1  0  0  0
 24 27  1  0  0  0  0
 25 27  1  1  0  0  0
 25 28  1  0  0  0  0
 25 15  1  0  0  0  0
 26 21  1  0  0  0  0
 28 29  1  6  0  0  0
 30 22  1  6  0  0  0
 30 24  1  0  0  0  0
 30 26  1  0  0  0  0
 31 32  1  0  0  0  0
M  END
>  <MODEL>
3

>  <REMARK>
 VINA RESULT:      -9.4      1.586      1.895
  Name = 
  2 active torsions:
  status: ('A' for Active; 'I' for Inactive)
    1  A    between atoms: C_13  and  C_29
    2  A    between atoms: C_16  and  N_27
                            x       y       z     vdW  Elec       q    Type
                         _______ _______ _______ _____ _____    ______ ____

>  <TORSDO>
F 2

$$$$
=
 OpenBabel11052414403D

 32 37  0  0  1  0  0  0  0  0999 V2000
  187.4420  178.6060  140.9710 C   0  0  0  0  0  0  0  0  0  0  0  0
  188.6390  177.8610  138.9180 C   0  0  2  0  0  3  0  0  0  0  0  0
  186.3110  178.9590  141.6440 N   0  0  0  0  0  0  0  0  0  0  0  0
  187.3710  178.2610  139.6180 C   0  0  0  0  0  0  0  0  0  0  0  0
  188.4660  177.0120  137.6240 C   0  0  1  0  0  3  0  0  0  0  0  0
  193.3040  176.6600  139.1510 C   0  0  0  0  0  3  0  0  0  0  0  0
  189.6350  177.3150  139.9570 C   0  0  2  0  0  3  0  0  0  0  0  0
  191.9160  175.6500  137.4400 C   0  0  0  0  0  3  0  0  0  0  0  0
  190.7720  176.1240  138.0870 C   0  0  0  0  0  0  0  0  0  0  0  0
  186.1340  178.2530  138.9690 C   0  0  0  0  0  0  0  0  0  0  0  0
  189.4070  175.7950  137.5560 C   0  0  0  0  0  2  0  0  0  0  0  0
  186.0470  177.8000  137.5470 C   0  0  0  0  0  2  0  0  0  0  0  0
  184.9900  178.6440  139.6690 C   0  0  0  0  0  3  0  0  0  0  0  0
  189.8570  178.3240  140.9170 O   0  0  0  0  0  0  0  0  0  0  0  0
  188.7010  178.4200  141.6480 N   0  0  0  0  0  0  0  0  0  0  0  0
  190.8930  176.8710  139.2730 C   0  0  0  0  0  0  0  0  0  0  0  0
  187.0070  176.6290  137.3090 C   0  0  1  0  0  3  0  0  0  0  0  0
  185.1020  179.0020  141.0180 C   0  0  0  0  0  3  0  0  0  0  0  0
  193.1820  175.9230  137.9680 C   0  0  0  0  0  3  0  0  0  0  0  0
  192.1630  177.1280  139.8080 C   0  0  0  0  0  3  0  0  0  0  0  0
  190.3310  176.8300  144.6340 C   0  0  1  0  0  3  0  0  0  0  0  0
  187.6190  177.7610  147.0840 O   0  0  0  0  0  1  0  0  0  0  0  0
  191.6800  176.5520  144.8540 O   0  0  0  0  0  1  0  0  0  0  0  0
  187.3230  176.9340  144.8590 C   0  0  0  0  0  2  0  0  0  0  0  0
  188.7230  178.1350  143.0770 C   0  0  1  0  0  3  0  0  0  0  0  0
  189.6320  177.1280  145.9670 C   0  0  0  0  0  2  0  0  0  0  0  0
  187.7920  176.9590  143.3950 C   0  0  0  0  0  2  0  0  0  0  0  0
  190.1710  177.9120  143.5500 C   0  0  1  0  0  3  0  0  0  0  0  0
  190.7930  179.2350  143.9680 C   0  0  0  0  0  1  0  0  0  0  0  0
  188.2230  177.7080  145.8300 C   0  0  2  0  0  3  0  0  0  0  0  0
  186.8570  176.1120  135.8810 C   0  0  0  0  0  2  0  0  0  0  0  0
  187.1920  177.1040  134.9560 O   0  0  0  0  0  1  0  0  0  0  0  0
  1  3  1  0  0  0  0
  1 15  1  0  0  0  0
  2  4  1  1  0  0  0
  2  7  1  0  0  0  0
  4  1  2  0  0  0  0
  5 11  1  1  0  0  0
  5  2  1  0  0  0  0
  6 20  1  0  0  0  0
  7 16  1  6  0  0  0
  7 14  1  0  0  0  0
  8 19  1  0  0  0  0
  8  9  2  0  0  0  0
  9 16  1  0  0  0  0
 10  4  1  0  0  0  0
 10 13  2  0  0  0  0
 11  9  1  0  0  0  0
 12 10  1  0  0  0  0
 13 18  1  0  0  0  0
 14 15  1  0  0  0  0
 16 20  2  0  0  0  0
 17 31  1  6  0  0  0
 17 12  1  0  0  0  0
 17  5  1  0  0  0  0
 18  3  2  0  0  0  0
 19  6  2  0  0  0  0
 21 23  1  1  0  0  0
 21 26  1  0  0  0  0
 24 30  1  0  0  0  0
 25 15  1  6  0  0  0
 25 27  1  0  0  0  0
 25 28  1  0  0  0  0
 27 24  1  0  0  0  0
 28 29  1  1  0  0  0
 28 21  1  0  0  0  0
 30 26  1  0  0  0  0
 30 22  1  1  0  0  0
 32 31  1  0  0  0  0
M  END
>  <MODEL>
4

>  <REMARK>
 VINA RESULT:      -9.3      3.291      7.804
  Name = 
  2 active torsions:
  status: ('A' for Active; 'I' for Inactive)
    1  A    between atoms: C_13  and  C_29
    2  A    between atoms: C_16  and  N_27
                            x       y       z     vdW  Elec       q    Type
                         _______ _______ _______ _____ _____    ______ ____

>  <TORSDO>
F 2

$$$$
=
 OpenBabel11052414403D

 32 37  0  0  1  0  0  0  0  0999 V2000
  190.2260  177.7800  140.0210 C   0  0  0  0  0  0  0  0  0  0  0  0
  189.1420  178.2380  142.2170 C   0  0  2  0  0  3  0  0  0  0  0  0
  191.2940  177.4140  139.2580 N   0  0  0  0  0  0  0  0  0  0  0  0
  190.3500  177.8470  141.4120 C   0  0  0  0  0  0  0  0  0  0  0  0
  189.1530  177.8110  143.7140 C   0  0  1  0  0  3  0  0  0  0  0  0
  184.4000  179.0880  142.4330 C   0  0  0  0  0  3  0  0  0  0  0  0
  187.8730  177.8820  141.4220 C   0  0  2  0  0  3  0  0  0  0  0  0
  185.5120  178.1360  144.3660 C   0  0  0  0  0  3  0  0  0  0  0  0
  186.6430  177.8780  143.5880 C   0  0  0  0  0  0  0  0  0  0  0  0
  191.5640  177.5110  142.0150 C   0  0  0  0  0  0  0  0  0  0  0  0
  187.8310  177.1780  144.1830 C   0  0  0  0  0  2  0  0  0  0  0  0
  191.6710  177.5000  143.5070 C   0  0  0  0  0  2  0  0  0  0  0  0
  192.6550  177.1660  141.2150 C   0  0  0  0  0  3  0  0  0  0  0  0
  187.9300  178.5630  140.1870 O   0  0  0  0  0  0  0  0  0  0  0  0
  188.9110  177.9500  139.4540 N   0  0  0  0  0  0  0  0  0  0  0  0
  186.6550  178.2250  142.2250 C   0  0  0  0  0  0  0  0  0  0  0  0
  190.3740  176.9630  144.1210 C   0  0  1  0  0  3  0  0  0  0  0  0
  192.4990  177.1280  139.8240 C   0  0  0  0  0  3  0  0  0  0  0  0
  184.3930  178.7470  143.7900 C   0  0  0  0  0  3  0  0  0  0  0  0
  185.5260  178.8220  141.6480 C   0  0  0  0  0  3  0  0  0  0  0  0
  186.3460  176.6750  137.0240 C   0  0  1  0  0  3  0  0  0  0  0  0
  188.8250  175.1650  134.6170 O   0  0  0  0  0  1  0  0  0  0  0  0
  185.0450  177.1270  136.8040 O   0  0  0  0  0  1  0  0  0  0  0  0
  188.8870  175.0480  137.0050 C   0  0  0  0  0  2  0  0  0  0  0  0
  188.5720  177.2980  138.1950 C   0  0  1  0  0  3  0  0  0  0  0  0
  186.9340  176.1150  135.7240 C   0  0  0  0  0  2  0  0  0  0  0  0
  188.6810  175.7750  138.3430 C   0  0  0  0  0  2  0  0  0  0  0  0
  187.1890  177.7670  137.7110 C   0  0  1  0  0  3  0  0  0  0  0  0
  187.3320  179.0080  136.8430 C   0  0  0  0  0  1  0  0  0  0  0  0
  188.4390  175.8410  135.7720 C   0  0  2  0  0  3  0  0  0  0  0  0
  190.5130  176.8710  145.6390 C   0  0  0  0  0  2  0  0  0  0  0  0
  191.8490  177.0060  146.0240 O   0  0  0  0  0  1  0  0  0  0  0  0
  1  4  1  0  0  0  0
  2  4  1  6  0  0  0
  2  5  1  0  0  0  0
  3 18  1  0  0  0  0
  3  1  2  0  0  0  0
  4 10  2  0  0  0  0
  5 17  1  0  0  0  0
  5 11  1  6  0  0  0
  6 19  1  0  0  0  0
  7 14  1  6  0  0  0
  7  2  1  0  0  0  0
  7 16  1  0  0  0  0
  9 11  1  0  0  0  0
  9  8  1  0  0  0  0
 10 12  1  0  0  0  0
 12 17  1  0  0  0  0
 13 10  1  0  0  0  0
 15  1  1  0  0  0  0
 15 14  1  0  0  0  0
 16  9  2  0  0  0  0
 17 31  1  1  0  0  0
 18 13  2  0  0  0  0
 19  8  2  0  0  0  0
 20 16  1  0  0  0  0
 20  6  2  0  0  0  0
 21 23  1  6  0  0  0
 21 28  1  0  0  0  0
 24 27  1  0  0  0  0
 25 27  1  1  0  0  0
 25 15  1  0  0  0  0
 26 30  1  0  0  0  0
 26 21  1  0  0  0  0
 28 29  1  6  0  0  0
 28 25  1  0  0  0  0
 30 22  1  6  0  0  0
 30 24  1  0  0  0  0
 31 32  1  0  0  0  0
M  END
>  <MODEL>
5

>  <REMARK>
 VINA RESULT:      -9.0      3.071      4.737
  Name = 
  2 active torsions:
  status: ('A' for Active; 'I' for Inactive)
    1  A    between atoms: C_13  and  C_29
    2  A    between atoms: C_16  and  N_27
                            x       y       z     vdW  Elec       q    Type
                         _______ _______ _______ _____ _____    ______ ____

>  <TORSDO>
F 2

$$$$
=
 OpenBabel11052414403D

 32 37  0  0  1  0  0  0  0  0999 V2000
  181.1260  179.2780  140.9200 C   0  0  0  0  0  0  0  0  0  0  0  0
  183.3950  178.4060  141.4640 C   0  0  2  0  0  3  0  0  0  0  0  0
  179.8910  179.7270  141.2780 N   0  0  0  0  0  0  0  0  0  0  0  0
  182.0380  178.8790  141.9020 C   0  0  0  0  0  0  0  0  0  0  0  0
  184.5210  178.4700  142.5390 C   0  0  1  0  0  3  0  0  0  0  0  0
  186.6820  177.8950  137.9720 C   0  0  0  0  0  3  0  0  0  0  0  0
  183.7290  179.0330  140.0990 C   0  0  2  0  0  3  0  0  0  0  0  0
  187.4330  178.2830  140.2440 C   0  0  0  0  0  3  0  0  0  0  0  0
  186.1320  178.6280  140.6160 C   0  0  0  0  0  0  0  0  0  0  0  0
  181.6870  178.9710  143.2510 C   0  0  0  0  0  0  0  0  0  0  0  0
  185.8360  179.0770  142.0180 C   0  0  0  0  0  2  0  0  0  0  0  0
  182.6910  178.6280  144.3040 C   0  0  0  0  0  2  0  0  0  0  0  0
  180.4060  179.4090  143.5980 C   0  0  0  0  0  3  0  0  0  0  0  0
  182.7180  178.6550  139.1900 O   0  0  0  0  0  0  0  0  0  0  0  0
  181.5920  179.3450  139.5580 N   0  0  0  0  0  0  0  0  0  0  0  0
  185.0980  178.6070  139.6630 C   0  0  0  0  0  0  0  0  0  0  0  0
  184.0840  179.1050  143.8740 C   0  0  1  0  0  3  0  0  0  0  0  0
  179.5130  179.7810  142.5860 C   0  0  0  0  0  3  0  0  0  0  0  0
  187.7070  177.9100  138.9240 C   0  0  0  0  0  3  0  0  0  0  0  0
  185.3800  178.2490  138.3370 C   0  0  0  0  0  3  0  0  0  0  0  0
  180.8060  180.4310  136.0490 C   0  0  1  0  0  3  0  0  0  0  0  0
  179.2100  183.7080  137.0180 O   0  0  0  0  0  1  0  0  0  0  0  0
  180.6250  179.6490  134.9080 O   0  0  0  0  0  1  0  0  0  0  0  0
  181.2040  182.7550  137.9320 C   0  0  0  0  0  2  0  0  0  0  0  0
  180.9920  180.2970  138.6300 C   0  0  1  0  0  3  0  0  0  0  0  0
  179.9450  181.6970  135.9600 C   0  0  0  0  0  2  0  0  0  0  0  0
  181.9310  181.4910  138.4180 C   0  0  0  0  0  2  0  0  0  0  0  0
  180.6030  179.5860  137.3210 C   0  0  1  0  0  3  0  0  0  0  0  0
  179.1870  179.0400  137.4250 C   0  0  0  0  0  1  0  0  0  0  0  0
  179.8500  182.4950  137.2620 C   0  0  2  0  0  3  0  0  0  0  0  0
  185.0950  178.8300  144.9840 C   0  0  0  0  0  2  0  0  0  0  0  0
  184.5120  179.0010  146.2410 O   0  0  0  0  0  1  0  0  0  0  0  0
  1  3  2  0  0  0  0
  1  4  1  0  0  0  0
  2  4  1  1  0  0  0
  2  5  1  0  0  0  0
  3 18  1  0  0  0  0
  4 10  2  0  0  0  0
  5 11  1  6  0  0  0
  5 17  1  0  0  0  0
  6 20  2  0  0  0  0
  6 19  1  0  0  0  0
  7 14  1  6  0  0  0
  7  2  1  0  0  0  0
  8  9  1  0  0  0  0
  9 11  1  0  0  0  0
 10 13  1  0  0  0  0
 10 12  1  0  0  0  0
 14 15  1  0  0  0  0
 15  1  1  0  0  0  0
 16  7  1  0  0  0  0
 16  9  2  0  0  0  0
 17 12  1  0  0  0  0
 17 31  1  1  0  0  0
 18 13  2  0  0  0  0
 19  8  2  0  0  0  0
 20 16  1  0  0  0  0
 21 23  1  6  0  0  0
 21 28  1  0  0  0  0
 24 27  1  0  0  0  0
 25 27  1  6  0  0  0
 25 15  1  0  0  0  0
 26 21  1  0  0  0  0
 26 30  1  0  0  0  0
 28 29  1  1  0  0  0
 28 25  1  0  0  0  0
 30 22  1  6  0  0  0
 30 24  1  0  0  0  0
 31 32  1  0  0  0  0
M  END
>  <MODEL>
6

>  <REMARK>
 VINA RESULT:      -8.7      2.645      5.861
  Name = 
  2 active torsions:
  status: ('A' for Active; 'I' for Inactive)
    1  A    between atoms: C_13  and  C_29
    2  A    between atoms: C_16  and  N_27
                            x       y       z     vdW  Elec       q    Type
                         _______ _______ _______ _____ _____    ______ ____

>  <TORSDO>
F 2

$$$$
=
 OpenBabel11052414403D

 32 37  0  0  1  0  0  0  0  0999 V2000
  188.3430  178.3870  140.8850 C   0  0  0  0  0  0  0  0  0  0  0  0
  188.9800  177.6110  138.6060 C   0  0  2  0  0  3  0  0  0  0  0  0
  187.4290  178.8200  141.7980 N   0  0  0  0  0  0  0  0  0  0  0  0
  187.9440  178.1030  139.5760 C   0  0  0  0  0  0  0  0  0  0  0  0
  188.4430  176.8330  137.3680 C   0  0  1  0  0  3  0  0  0  0  0  0
  193.4360  175.9600  137.7800 C   0  0  0  0  0  3  0  0  0  0  0  0
  190.1180  176.9320  139.3890 C   0  0  2  0  0  3  0  0  0  0  0  0
  191.6110  175.1550  136.4020 C   0  0  0  0  0  3  0  0  0  0  0  0
  190.6920  175.7110  137.2940 C   0  0  0  0  0  0  0  0  0  0  0  0
  186.6000  178.2390  139.2170 C   0  0  0  0  0  0  0  0  0  0  0  0
  189.2170  175.5350  137.0740 C   0  0  0  0  0  2  0  0  0  0  0  0
  186.1580  177.8520  137.8420 C   0  0  0  0  0  2  0  0  0  0  0  0
  185.6830  178.7110  140.1590 C   0  0  0  0  0  3  0  0  0  0  0  0
  190.6460  177.8780  140.2930 O   0  0  0  0  0  0  0  0  0  0  0  0
  189.6940  178.0560  141.2630 N   0  0  0  0  0  0  0  0  0  0  0  0
  191.1440  176.3970  138.4360 C   0  0  0  0  0  0  0  0  0  0  0  0
  186.9190  176.6050  137.3780 C   0  0  1  0  0  3  0  0  0  0  0  0
  186.1230  179.0030  141.4560 C   0  0  0  0  0  3  0  0  0  0  0  0
  192.9840  175.2850  136.6420 C   0  0  0  0  0  3  0  0  0  0  0  0
  192.5190  176.5100  138.6810 C   0  0  0  0  0  3  0  0  0  0  0  0
  188.6340  177.7090  144.8500 C   0  0  1  0  0  3  0  0  0  0  0  0
  192.0400  176.7530  146.1580 O   0  0  0  0  0  1  0  0  0  0  0  0
  187.3680  177.4410  145.3690 O   0  0  0  0  0  1  0  0  0  0  0  0
  191.5430  178.4570  144.5560 C   0  0  0  0  0  2  0  0  0  0  0  0
  189.9990  177.7140  142.6480 C   0  0  1  0  0  3  0  0  0  0  0  0
  189.7130  177.1280  145.7720 C   0  0  0  0  0  2  0  0  0  0  0  0
  190.7130  178.8850  143.3350 C   0  0  0  0  0  2  0  0  0  0  0  0
  188.7200  177.2670  143.3760 C   0  0  1  0  0  3  0  0  0  0  0  0
  188.5270  175.7660  143.2180 C   0  0  0  0  0  1  0  0  0  0  0  0
  191.1230  177.1200  145.1760 C   0  0  2  0  0  3  0  0  0  0  0  0
  186.4090  176.1600  136.0100 C   0  0  0  0  0  2  0  0  0  0  0  0
  186.3210  177.2450  135.1360 O   0  0  0  0  0  1  0  0  0  0  0  0
  1 15  1  0  0  0  0
  1  3  1  0  0  0  0
  2  7  1  0  0  0  0
  2  4  1  1  0  0  0
  4  1  2  0  0  0  0
  5 11  1  1  0  0  0
  5 17  1  0  0  0  0
  5  2  1  0  0  0  0
  6 20  1  0  0  0  0
  7 16  1  6  0  0  0
  7 14  1  0  0  0  0
  8 19  1  0  0  0  0
  8  9  2  0  0  0  0
  9 16  1  0  0  0  0
 10  4  1  0  0  0  0
 10 13  2  0  0  0  0
 11  9  1  0  0  0  0
 12 10  1  0  0  0  0
 13 18  1  0  0  0  0
 14 15  1  0  0  0  0
 16 20  2  0  0  0  0
 17 31  1  6  0  0  0
 17 12  1  0  0  0  0
 18  3  2  0  0  0  0
 19  6  2  0  0  0  0
 21 23  1  1  0  0  0
 21 26  1  0  0  0  0
 24 30  1  0  0  0  0
 25 15  1  6  0  0  0
 25 27  1  0  0  0  0
 25 28  1  0  0  0  0
 27 24  1  0  0  0  0
 28 29  1  1  0  0  0
 28 21  1  0  0  0  0
 30 26  1  0  0  0  0
 30 22  1  1  0  0  0
 32 31  1  0  0  0  0
M  END
>  <MODEL>
7

>  <REMARK>
 VINA RESULT:      -8.2      3.507      8.236
  Name = 
  2 active torsions:
  status: ('A' for Active; 'I' for Inactive)
    1  A    between atoms: C_13  and  C_29
    2  A    between atoms: C_16  and  N_27
                            x       y       z     vdW  Elec       q    Type
                         _______ _______ _______ _____ _____    ______ ____

>  <TORSDO>
F 2

$$$$
=
 OpenBabel11052414403D

 32 37  0  0  1  0  0  0  0  0999 V2000
  189.7930  178.0830  141.2080 C   0  0  0  0  0  0  0  0  0  0  0  0
  187.5900  178.5820  142.2570 C   0  0  2  0  0  3  0  0  0  0  0  0
  191.1000  177.7030  141.2730 N   0  0  0  0  0  0  0  0  0  0  0  0
  189.0320  178.1770  142.3770 C   0  0  0  0  0  0  0  0  0  0  0  0
  186.6680  178.1840  143.4480 C   0  0  1  0  0  3  0  0  0  0  0  0
  183.7370  179.4350  139.4840 C   0  0  0  0  0  3  0  0  0  0  0  0
  187.0790  178.2110  140.8530 C   0  0  2  0  0  3  0  0  0  0  0  0
  183.4070  178.5210  141.7050 C   0  0  0  0  0  3  0  0  0  0  0  0
  184.7730  178.2480  141.7960 C   0  0  0  0  0  0  0  0  0  0  0  0
  189.6100  177.8530  143.6070 C   0  0  0  0  0  0  0  0  0  0  0  0
  185.3310  177.5590  143.0090 C   0  0  0  0  0  2  0  0  0  0  0  0
  188.7730  177.8690  144.8460 C   0  0  0  0  0  2  0  0  0  0  0  0
  190.9580  177.4930  143.6580 C   0  0  0  0  0  3  0  0  0  0  0  0
  187.8940  178.8690  139.9080 O   0  0  0  0  0  0  0  0  0  0  0  0
  189.1120  178.2420  139.9470 N   0  0  0  0  0  0  0  0  0  0  0  0
  185.6290  178.5690  140.7280 C   0  0  0  0  0  0  0  0  0  0  0  0
  187.3670  177.3440  144.5350 C   0  0  1  0  0  3  0  0  0  0  0  0
  191.6940  177.4280  142.4680 C   0  0  0  0  0  3  0  0  0  0  0  0
  182.8900  179.1200  140.5510 C   0  0  0  0  0  3  0  0  0  0  0  0
  185.1040  179.1540  139.5670 C   0  0  0  0  0  3  0  0  0  0  0  0
  188.5010  176.5080  136.6720 C   0  0  1  0  0  3  0  0  0  0  0  0
  192.1120  175.6340  136.0280 O   0  0  0  0  0  1  0  0  0  0  0  0
  187.4450  176.6740  135.7750 O   0  0  0  0  0  1  0  0  0  0  0  0
  190.9430  175.4700  138.1080 C   0  0  0  0  0  2  0  0  0  0  0  0
  189.6160  177.5660  138.7580 C   0  0  1  0  0  3  0  0  0  0  0  0
  189.7780  176.1230  135.9150 C   0  0  0  0  0  2  0  0  0  0  0  0
  189.9300  176.0990  139.0780 C   0  0  0  0  0  2  0  0  0  0  0  0
  188.6260  177.7380  137.5920 C   0  0  1  0  0  3  0  0  0  0  0  0
  188.9510  179.0030  136.8130 C   0  0  0  0  0  1  0  0  0  0  0  0
  191.0560  176.1800  136.7540 C   0  0  2  0  0  3  0  0  0  0  0  0
  186.5370  177.2810  145.8150 C   0  0  0  0  0  2  0  0  0  0  0  0
  186.2720  178.5650  146.2980 O   0  0  0  0  0  1  0  0  0  0  0  0
  1  3  2  0  0  0  0
  1  4  1  0  0  0  0
  2  4  1  1  0  0  0
  2  5  1  0  0  0  0
  3 18  1  0  0  0  0
  4 10  2  0  0  0  0
  5 11  1  6  0  0  0
  5 17  1  0  0  0  0
  6 20  2  0  0  0  0
  6 19  1  0  0  0  0
  7 14  1  6  0  0  0
  7  2  1  0  0  0  0
  8  9  1  0  0  0  0
  9 11  1  0  0  0  0
 10 13  1  0  0  0  0
 10 12  1  0  0  0  0
 14 15  1  0  0  0  0
 15  1  1  0  0  0  0
 16  7  1  0  0  0  0
 16  9  2  0  0  0  0
 17 12  1  0  0  0  0
 17 31  1  1  0  0  0
 18 13  2  0  0  0  0
 19  8  2  0  0  0  0
 20 16  1  0  0  0  0
 21 23  1  6  0  0  0
 21 28  1  0  0  0  0
 24 27  1  0  0  0  0
 25 27  1  1  0  0  0
 25 15  1  0  0  0  0
 26 21  1  0  0  0  0
 26 30  1  0  0  0  0
 28 29  1  6  0  0  0
 28 25  1  0  0  0  0
 30 22  1  6  0  0  0
 30 24  1  0  0  0  0
 31 32  1  0  0  0  0
M  END
>  <MODEL>
8

>  <REMARK>
 VINA RESULT:      -8.2      2.874      6.127
  Name = 
  2 active torsions:
  status: ('A' for Active; 'I' for Inactive)
    1  A    between atoms: C_13  and  C_29
    2  A    between atoms: C_16  and  N_27
                            x       y       z     vdW  Elec       q    Type
                         _______ _______ _______ _____ _____    ______ ____

>  <TORSDO>
F 2

$$$$
=
 OpenBabel11052414403D

 32 37  0  0  1  0  0  0  0  0999 V2000
  185.3630  178.8370  142.1190 C   0  0  0  0  0  0  0  0  0  0  0  0
  185.2470  178.7240  139.6330 C   0  0  2  0  0  3  0  0  0  0  0  0
  184.7840  178.8420  143.3520 N   0  0  0  0  0  0  0  0  0  0  0  0
  184.5670  178.7440  140.9730 C   0  0  0  0  0  0  0  0  0  0  0  0
  184.4250  178.1140  138.4590 C   0  0  1  0  0  3  0  0  0  0  0  0
  189.3020  178.3850  137.0450 C   0  0  0  0  0  3  0  0  0  0  0  0
  186.6790  178.1870  139.8050 C   0  0  2  0  0  3  0  0  0  0  0  0
  187.2490  177.4730  136.1350 C   0  0  0  0  0  3  0  0  0  0  0  0
  186.6390  177.5980  137.3850 C   0  0  0  0  0  0  0  0  0  0  0  0
  183.1810  178.6280  141.1010 C   0  0  0  0  0  0  0  0  0  0  0  0
  185.2280  177.1270  137.5930 C   0  0  0  0  0  2  0  0  0  0  0  0
  182.3370  178.4410  139.8800 C   0  0  0  0  0  2  0  0  0  0  0  0
  182.6030  178.6630  142.3720 C   0  0  0  0  0  3  0  0  0  0  0  0
  187.3470  179.0220  140.7260 O   0  0  0  0  0  0  0  0  0  0  0  0
  186.7930  178.7650  141.9520 N   0  0  0  0  0  0  0  0  0  0  0  0
  187.3620  178.1190  138.4730 C   0  0  0  0  0  0  0  0  0  0  0  0
  183.0600  177.5330  138.8780 C   0  0  1  0  0  3  0  0  0  0  0  0
  183.4310  178.7770  143.4960 C   0  0  0  0  0  3  0  0  0  0  0  0
  188.5790  177.8730  135.9630 C   0  0  0  0  0  3  0  0  0  0  0  0
  188.6990  178.5030  138.3010 C   0  0  0  0  0  3  0  0  0  0  0  0
  189.3300  176.2840  143.1820 C   0  0  1  0  0  3  0  0  0  0  0  0
  189.2630  177.4250  146.7750 O   0  0  0  0  0  1  0  0  0  0  0  0
  190.3340  175.6280  142.4690 O   0  0  0  0  0  1  0  0  0  0  0  0
  187.3830  177.1280  145.3270 C   0  0  0  0  0  2  0  0  0  0  0  0
  187.6230  178.2260  143.0230 C   0  0  1  0  0  3  0  0  0  0  0  0
  189.7760  176.5050  144.6330 C   0  0  0  0  0  2  0  0  0  0  0  0
  186.7940  177.2970  143.9180 C   0  0  0  0  0  2  0  0  0  0  0  0
  188.8740  177.5500  142.4330 C   0  0  1  0  0  3  0  0  0  0  0  0
  189.9980  178.5650  142.2900 C   0  0  0  0  0  1  0  0  0  0  0  0
  188.8780  177.4480  145.4370 C   0  0  2  0  0  3  0  0  0  0  0  0
  182.1660  177.2730  137.6690 C   0  0  0  0  0  2  0  0  0  0  0  0
  181.9160  178.4580  136.9720 O   0  0  0  0  0  1  0  0  0  0  0  0
  1  3  1  0  0  0  0
  2  7  1  0  0  0  0
  2  4  1  1  0  0  0
  3 18  2  0  0  0  0
  4 10  1  0  0  0  0
  4  1  2  0  0  0  0
  5 11  1  1  0  0  0
  5 17  1  0  0  0  0
  5  2  1  0  0  0  0
  6 20  1  0  0  0  0
  7 16  1  6  0  0  0
  7 14  1  0  0  0  0
  8  9  2  0  0  0  0
  9 11  1  0  0  0  0
  9 16  1  0  0  0  0
 10 13  2  0  0  0  0
 12 10  1  0  0  0  0
 13 18  1  0  0  0  0
 14 15  1  0  0  0  0
 15  1  1  0  0  0  0
 17 31  1  6  0  0  0
 17 12  1  0  0  0  0
 19  8  1  0  0  0  0
 19  6  2  0  0  0  0
 20 16  2  0  0  0  0
 21 23  1  6  0  0  0
 21 26  1  0  0  0  0
 24 30  1  0  0  0  0
 25 15  1  6  0  0  0
 25 27  1  0  0  0  0
 26 30  1  0  0  0  0
 27 24  1  0  0  0  0
 28 29  1  1  0  0  0
 28 25  1  0  0  0  0
 28 21  1  0  0  0  0
 30 22  1  1  0  0  0
 32 31  1  0  0  0  0
M  END
>  <MODEL>
9

>  <REMARK>
 VINA RESULT:      -7.8      1.838      7.725
  Name = 
  2 active torsions:
  status: ('A' for Active; 'I' for Inactive)
    1  A    between atoms: C_13  and  C_29
    2  A    between atoms: C_16  and  N_27
                            x       y       z     vdW  Elec       q    Type
                         _______ _______ _______ _____ _____    ______ ____

>  <TORSDO>
F 2

$$$$
