=
 OpenBabel11052413253D

 28 31  0  0  1  0  0  0  0  0999 V2000
  185.1580  177.7520  138.6890 C   0  0  1  0  0  3  0  0  0  0  0  0
  189.0390  177.5070  136.8700 N   0  0  0  0  0  1  0  0  0  0  0  0
  187.1730  178.0210  141.4470 C   0  0  1  0  0  3  0  0  0  0  0  0
  187.6700  177.9520  138.8440 C   0  0  2  0  0  3  0  0  0  0  0  0
  186.1790  178.7150  140.7220 O   0  0  0  0  0  0  0  0  0  0  0  0
  186.6290  177.2790  136.6870 C   0  0  0  0  0  2  0  0  0  0  0  0
  188.7870  178.6700  139.5880 C   0  0  0  0  0  2  0  0  0  0  0  0
  187.7760  178.0650  137.3240 C   0  0  2  0  0  3  0  0  0  0  0  0
  188.5930  178.5160  141.1010 C   0  0  0  0  0  2  0  0  0  0  0  0
  185.2690  177.7960  137.1620 C   0  0  0  0  0  2  0  0  0  0  0  0
  186.3240  178.5320  139.3160 C   0  0  2  0  0  3  0  0  0  0  0  0
  185.3740  178.3200  143.1430 C   0  0  0  0  0  2  0  0  0  0  0  0
  187.6350  177.1700  145.2100 C   0  0  0  0  0  3  0  0  0  0  0  0
  185.8300  178.9230  145.5360 C   0  0  2  0  0  3  0  0  0  0  0  0
  186.8740  178.0510  142.9520 C   0  0  1  0  0  3  0  0  0  0  0  0
  188.5730  176.1310  143.2080 C   0  0  0  0  0  1  0  0  0  0  0  0
  186.9640  178.0430  145.9820 C   0  0  0  0  0  3  0  0  0  0  0  0
  187.3420  176.8240  143.7720 C   0  0  1  0  0  3  0  0  0  0  0  0
  185.1190  179.3600  146.6530 O   0  0  0  0  0  1  0  0  0  0  0  0
  184.8910  178.1970  144.5880 C   0  0  0  0  0  2  0  0  0  0  0  0
  183.7650  178.2210  139.1440 C   0  0  1  0  0  3  0  0  0  0  0  0
  183.5580  179.6700  138.6960 C   0  0  0  0  0  2  0  0  0  0  0  0
  181.2570  177.9460  138.8900 C   0  0  0  0  0  0  0  0  0  0  0  0
  182.2300  180.2010  139.2140 C   0  0  0  0  0  2  0  0  0  0  0  0
  182.6820  175.9610  139.4280 C   0  0  0  0  0  1  0  0  0  0  0  0
  182.6100  177.2950  138.6950 C   0  0  2  0  0  3  0  0  0  0  0  0
  180.2720  177.2760  139.1640 O   0  0  0  0  0  0  0  0  0  0  0  0
  181.0850  179.4060  138.6040 C   0  0  0  0  0  2  0  0  0  0  0  0
  1 10  1  6  0  0  0
  1 21  1  0  0  0  0
  1 11  1  0  0  0  0
  3  9  1  1  0  0  0
  3 15  1  0  0  0  0
  4 11  1  0  0  0  0
  4  7  1  1  0  0  0
  5  3  1  0  0  0  0
  6 10  1  0  0  0  0
  6  8  1  0  0  0  0
  7  9  1  0  0  0  0
  8  2  1  6  0  0  0
  8  4  1  0  0  0  0
 11  5  1  1  0  0  0
 12 20  1  0  0  0  0
 13 17  2  0  0  0  0
 14 17  1  0  0  0  0
 14 19  1  1  0  0  0
 15 12  1  6  0  0  0
 15 18  1  0  0  0  0
 18 16  1  6  0  0  0
 18 13  1  0  0  0  0
 20 14  1  0  0  0  0
 21 22  1  6  0  0  0
 22 24  1  0  0  0  0
 23 27  2  0  0  0  0
 26 23  1  0  0  0  0
 26 21  1  0  0  0  0
 26 25  1  1  0  0  0
 28 23  1  0  0  0  0
 28 24  1  0  0  0  0
M  END
>  <MODEL>
1

>  <REMARK>
 VINA RESULT:      -8.1      0.000      0.000
  Name = 
  2 active torsions:
  status: ('A' for Active; 'I' for Inactive)
    1  A    between atoms: C_1  and  C_2
    2  A    between atoms: C_10  and  C_13
                            x       y       z     vdW  Elec       q    Type
                         _______ _______ _______ _____ _____    ______ ____

>  <TORSDO>
F 2

$$$$
=
 OpenBabel11052413253D

 28 31  0  0  1  0  0  0  0  0999 V2000
  188.8740  177.3350  145.3780 C   0  0  1  0  0  3  0  0  0  0  0  0
  187.4240  177.5110  149.4150 N   0  0  0  0  0  1  0  0  0  0  0  0
  185.5920  178.1610  144.8420 C   0  0  1  0  0  3  0  0  0  0  0  0
  187.0620  177.9260  147.0350 C   0  0  2  0  0  3  0  0  0  0  0  0
  186.9080  178.6260  144.6220 O   0  0  0  0  0  0  0  0  0  0  0  0
  189.1800  176.9060  147.8510 C   0  0  0  0  0  2  0  0  0  0  0  0
  185.8910  178.8710  147.2680 C   0  0  0  0  0  2  0  0  0  0  0  0
  188.0740  177.9120  148.1780 C   0  0  2  0  0  3  0  0  0  0  0  0
  184.9380  178.8300  146.0680 C   0  0  0  0  0  2  0  0  0  0  0  0
  189.8760  177.2530  146.5330 C   0  0  0  0  0  2  0  0  0  0  0  0
  187.7630  178.3370  145.7260 C   0  0  2  0  0  3  0  0  0  0  0  0
  183.3520  178.7930  143.9520 C   0  0  0  0  0  2  0  0  0  0  0  0
  184.8730  178.6760  141.0570 C   0  0  0  0  0  3  0  0  0  0  0  0
  182.5040  178.0450  141.7120 C   0  0  2  0  0  3  0  0  0  0  0  0
  184.7490  178.2850  143.5650 C   0  0  1  0  0  3  0  0  0  0  0  0
  186.8810  179.1140  142.3790 C   0  0  0  0  0  1  0  0  0  0  0  0
  183.6370  178.2500  140.7450 C   0  0  0  0  0  3  0  0  0  0  0  0
  185.3600  179.1210  142.4140 C   0  0  1  0  0  3  0  0  0  0  0  0
  181.2990  178.0180  141.0120 O   0  0  0  0  0  1  0  0  0  0  0  0
  182.4550  179.1400  142.7650 C   0  0  0  0  0  2  0  0  0  0  0  0
  189.5990  177.6300  144.0520 C   0  0  1  0  0  3  0  0  0  0  0  0
  190.9840  178.2010  144.3600 C   0  0  0  0  0  2  0  0  0  0  0  0
  190.6350  176.6570  141.9520 C   0  0  0  0  0  0  0  0  0  0  0  0
  191.6920  178.5970  143.0730 C   0  0  0  0  0  2  0  0  0  0  0  0
  188.2720  176.0960  142.5520 C   0  0  0  0  0  1  0  0  0  0  0  0
  189.6610  176.4210  143.0870 C   0  0  2  0  0  3  0  0  0  0  0  0
  190.4380  176.1770  140.8460 O   0  0  0  0  0  0  0  0  0  0  0  0
  191.9300  177.3620  142.2160 C   0  0  0  0  0  2  0  0  0  0  0  0
  1 11  1  0  0  0  0
  1 10  1  1  0  0  0
  3  9  1  1  0  0  0
  4  7  1  1  0  0  0
  4  8  1  0  0  0  0
  5  3  1  0  0  0  0
  6  8  1  0  0  0  0
  8  2  1  1  0  0  0
  9  7  1  0  0  0  0
 10  6  1  0  0  0  0
 11  5  1  6  0  0  0
 11  4  1  0  0  0  0
 13 18  1  0  0  0  0
 14 19  1  6  0  0  0
 14 20  1  0  0  0  0
 15 12  1  1  0  0  0
 15  3  1  0  0  0  0
 17 13  2  0  0  0  0
 17 14  1  0  0  0  0
 18 16  1  6  0  0  0
 18 15  1  0  0  0  0
 20 12  1  0  0  0  0
 21 22  1  1  0  0  0
 21  1  1  0  0  0  0
 23 28  1  0  0  0  0
 23 26  1  0  0  0  0
 24 22  1  0  0  0  0
 26 25  1  6  0  0  0
 26 21  1  0  0  0  0
 27 23  2  0  0  0  0
 28 24  1  0  0  0  0
M  END
>  <MODEL>
2

>  <REMARK>
 VINA RESULT:      -7.8      3.570      7.824
  Name = 
  2 active torsions:
  status: ('A' for Active; 'I' for Inactive)
    1  A    between atoms: C_1  and  C_2
    2  A    between atoms: C_10  and  C_13
                            x       y       z     vdW  Elec       q    Type
                         _______ _______ _______ _____ _____    ______ ____

>  <TORSDO>
F 2

$$$$
=
 OpenBabel11052413253D

 28 31  0  0  1  0  0  0  0  0999 V2000
  185.7450  178.5900  144.0580 C   0  0  1  0  0  3  0  0  0  0  0  0
  187.1310  178.3380  148.1140 N   0  0  0  0  0  1  0  0  0  0  0  0
  188.9700  177.5420  143.5670 C   0  0  1  0  0  3  0  0  0  0  0  0
  187.4930  177.8870  145.7410 C   0  0  2  0  0  3  0  0  0  0  0  0
  187.6290  177.1650  143.3340 O   0  0  0  0  0  0  0  0  0  0  0  0
  185.4390  179.0510  146.5260 C   0  0  0  0  0  2  0  0  0  0  0  0
  188.5950  176.8670  145.9920 C   0  0  0  0  0  2  0  0  0  0  0  0
  186.4700  177.9750  146.8710 C   0  0  2  0  0  3  0  0  0  0  0  0
  189.5630  176.8360  144.8040 C   0  0  0  0  0  2  0  0  0  0  0  0
  184.7370  178.7450  145.2010 C   0  0  0  0  0  2  0  0  0  0  0  0
  186.7820  177.5170  144.4250 C   0  0  2  0  0  3  0  0  0  0  0  0
  188.9050  177.5030  141.0770 C   0  0  0  0  0  2  0  0  0  0  0  0
  192.1640  177.5960  141.3530 C   0  0  0  0  0  3  0  0  0  0  0  0
  190.6750  176.4110  139.6740 C   0  0  2  0  0  3  0  0  0  0  0  0
  189.8190  177.3540  142.3020 C   0  0  1  0  0  3  0  0  0  0  0  0
  191.6980  178.6310  143.5160 C   0  0  0  0  0  1  0  0  0  0  0  0
  191.9940  176.8400  140.2540 C   0  0  0  0  0  3  0  0  0  0  0  0
  191.0810  178.2420  142.1810 C   0  0  1  0  0  3  0  0  0  0  0  0
  190.8600  176.0220  138.3480 O   0  0  0  0  0  1  0  0  0  0  0  0
  189.6410  177.5220  139.7390 C   0  0  0  0  0  2  0  0  0  0  0  0
  185.0190  178.3370  142.7250 C   0  0  1  0  0  3  0  0  0  0  0  0
  183.5160  178.2270  142.9920 C   0  0  0  0  0  2  0  0  0  0  0  0
  184.3920  179.2740  140.4530 C   0  0  0  0  0  0  0  0  0  0  0  0
  182.7740  177.8800  141.7100 C   0  0  0  0  0  2  0  0  0  0  0  0
  186.7910  179.2190  141.1620 C   0  0  0  0  0  1  0  0  0  0  0  0
  185.3480  179.3740  141.6230 C   0  0  2  0  0  3  0  0  0  0  0  0
  184.7630  179.5260  139.3170 O   0  0  0  0  0  0  0  0  0  0  0  0
  182.9390  179.0060  140.6990 C   0  0  0  0  0  2  0  0  0  0  0  0
  1 11  1  0  0  0  0
  1 10  1  1  0  0  0
  3  9  1  1  0  0  0
  4  7  1  1  0  0  0
  4  8  1  0  0  0  0
  5  3  1  0  0  0  0
  6  8  1  0  0  0  0
  8  2  1  1  0  0  0
  9  7  1  0  0  0  0
 10  6  1  0  0  0  0
 11  5  1  6  0  0  0
 11  4  1  0  0  0  0
 13 18  1  0  0  0  0
 14 19  1  6  0  0  0
 14 20  1  0  0  0  0
 14 17  1  0  0  0  0
 15 12  1  6  0  0  0
 15  3  1  0  0  0  0
 17 13  2  0  0  0  0
 18 15  1  0  0  0  0
 18 16  1  1  0  0  0
 20 12  1  0  0  0  0
 21 22  1  1  0  0  0
 21  1  1  0  0  0  0
 23 28  1  0  0  0  0
 23 26  1  0  0  0  0
 24 22  1  0  0  0  0
 26 25  1  6  0  0  0
 26 21  1  0  0  0  0
 27 23  2  0  0  0  0
 28 24  1  0  0  0  0
M  END
>  <MODEL>
3

>  <REMARK>
 VINA RESULT:      -7.8      3.252      6.274
  Name = 
  2 active torsions:
  status: ('A' for Active; 'I' for Inactive)
    1  A    between atoms: C_1  and  C_2
    2  A    between atoms: C_10  and  C_13
                            x       y       z     vdW  Elec       q    Type
                         _______ _______ _______ _____ _____    ______ ____

>  <TORSDO>
F 2

$$$$
=
 OpenBabel11052413253D

 28 31  0  0  1  0  0  0  0  0999 V2000
  189.6570  176.0450  138.1130 C   0  0  1  0  0  3  0  0  0  0  0  0
  193.9370  176.1300  137.7830 N   0  0  0  0  0  1  0  0  0  0  0  0
  190.5260  176.9410  141.3050 C   0  0  1  0  0  3  0  0  0  0  0  0
  191.9210  176.6190  139.0740 C   0  0  2  0  0  3  0  0  0  0  0  0
  189.7970  177.3900  140.1810 O   0  0  0  0  0  0  0  0  0  0  0  0
  191.7810  175.5400  136.8360 C   0  0  0  0  0  2  0  0  0  0  0  0
  192.6310  177.5760  140.0220 C   0  0  0  0  0  2  0  0  0  0  0  0
  192.5510  176.5550  137.6840 C   0  0  2  0  0  3  0  0  0  0  0  0
  191.9250  177.5870  141.3820 C   0  0  0  0  0  2  0  0  0  0  0  0
  190.3000  175.9130  136.7300 C   0  0  0  0  0  2  0  0  0  0  0  0
  190.4490  177.0550  138.9580 C   0  0  2  0  0  3  0  0  0  0  0  0
  188.2200  176.9650  142.2470 C   0  0  0  0  0  2  0  0  0  0  0  0
  189.7850  176.8550  145.1190 C   0  0  0  0  0  3  0  0  0  0  0  0
  187.6440  178.0380  144.4410 C   0  0  2  0  0  3  0  0  0  0  0  0
  189.7090  177.1160  142.5920 C   0  0  1  0  0  3  0  0  0  0  0  0
  191.5810  175.8360  143.8140 C   0  0  0  0  0  1  0  0  0  0  0  0
  188.7080  177.6050  145.4110 C   0  0  0  0  0  3  0  0  0  0  0  0
  190.1090  176.2200  143.7890 C   0  0  1  0  0  3  0  0  0  0  0  0
  186.5030  178.4170  145.1460 O   0  0  0  0  0  1  0  0  0  0  0  0
  187.2910  176.9330  143.4600 C   0  0  0  0  0  2  0  0  0  0  0  0
  188.1580  176.3640  137.9860 C   0  0  1  0  0  3  0  0  0  0  0  0
  187.9850  177.8740  137.8020 C   0  0  0  0  0  2  0  0  0  0  0  0
  186.0570  176.1100  136.5880 C   0  0  0  0  0  0  0  0  0  0  0  0
  186.5090  178.2390  137.7710 C   0  0  0  0  0  2  0  0  0  0  0  0
  187.3470  174.0810  137.2820 C   0  0  0  0  0  1  0  0  0  0  0  0
  187.4320  175.5510  136.8870 C   0  0  2  0  0  3  0  0  0  0  0  0
  185.1420  175.3760  136.2480 O   0  0  0  0  0  0  0  0  0  0  0  0
  185.8450  177.5920  136.5640 C   0  0  0  0  0  2  0  0  0  0  0  0
  1 10  1  6  0  0  0
  1 11  1  0  0  0  0
  3  9  1  1  0  0  0
  3 15  1  0  0  0  0
  4  7  1  1  0  0  0
  5  3  1  0  0  0  0
  6  8  1  0  0  0  0
  7  9  1  0  0  0  0
  8  2  1  1  0  0  0
  8  4  1  0  0  0  0
 10  6  1  0  0  0  0
 11  4  1  0  0  0  0
 11  5  1  1  0  0  0
 12 20  1  0  0  0  0
 13 17  2  0  0  0  0
 14 19  1  1  0  0  0
 14 17  1  0  0  0  0
 15 12  1  6  0  0  0
 15 18  1  0  0  0  0
 18 16  1  1  0  0  0
 18 13  1  0  0  0  0
 20 14  1  0  0  0  0
 21 22  1  6  0  0  0
 21  1  1  0  0  0  0
 23 26  1  0  0  0  0
 24 22  1  0  0  0  0
 26 25  1  1  0  0  0
 26 21  1  0  0  0  0
 27 23  2  0  0  0  0
 28 23  1  0  0  0  0
 28 24  1  0  0  0  0
M  END
>  <MODEL>
4

>  <REMARK>
 VINA RESULT:      -7.5      3.077      4.321
  Name = 
  2 active torsions:
  status: ('A' for Active; 'I' for Inactive)
    1  A    between atoms: C_1  and  C_2
    2  A    between atoms: C_10  and  C_13
                            x       y       z     vdW  Elec       q    Type
                         _______ _______ _______ _____ _____    ______ ____

>  <TORSDO>
F 2

$$$$
=
 OpenBabel11052413253D

 28 31  0  0  1  0  0  0  0  0999 V2000
  190.5410  177.0640  139.7800 C   0  0  1  0  0  3  0  0  0  0  0  0
  193.9710  176.7350  137.2190 N   0  0  0  0  0  1  0  0  0  0  0  0
  189.0500  176.1660  136.8280 C   0  0  1  0  0  3  0  0  0  0  0  0
  191.5820  176.3780  137.5830 C   0  0  2  0  0  3  0  0  0  0  0  0
  189.2180  175.7430  138.1660 O   0  0  0  0  0  0  0  0  0  0  0  0
  193.0040  177.4310  139.3330 C   0  0  0  0  0  2  0  0  0  0  0  0
  191.4430  175.3960  136.4280 C   0  0  0  0  0  2  0  0  0  0  0  0
  192.9730  176.3870  138.2150 C   0  0  2  0  0  3  0  0  0  0  0  0
  190.0180  175.4450  135.8670 C   0  0  0  0  0  2  0  0  0  0  0  0
  191.9410  177.1400  140.3960 C   0  0  0  0  0  2  0  0  0  0  0  0
  190.5290  176.0230  138.6490 C   0  0  2  0  0  3  0  0  0  0  0  0
  186.9230  174.9250  137.2040 C   0  0  0  0  0  2  0  0  0  0  0  0
  185.6160  177.3670  135.4620 C   0  0  0  0  0  3  0  0  0  0  0  0
  185.0390  174.8970  135.5470 C   0  0  2  0  0  3  0  0  0  0  0  0
  187.5810  176.0560  136.4000 C   0  0  1  0  0  3  0  0  0  0  0  0
  187.5550  178.6280  136.2470 C   0  0  0  0  0  1  0  0  0  0  0  0
  184.8570  176.3200  135.0960 C   0  0  0  0  0  3  0  0  0  0  0  0
  186.7450  177.3580  136.4620 C   0  0  1  0  0  3  0  0  0  0  0  0
  183.8600  174.1880  135.3230 O   0  0  0  0  0  1  0  0  0  0  0  0
  185.4110  174.8150  137.0170 C   0  0  0  0  0  2  0  0  0  0  0  0
  189.4820  176.8270  140.8700 C   0  0  1  0  0  3  0  0  0  0  0  0
  190.1810  176.3650  142.1500 C   0  0  0  0  0  2  0  0  0  0  0  0
  187.7380  177.8780  142.3830 C   0  0  0  0  0  0  0  0  0  0  0  0
  189.1550  176.0260  143.2210 C   0  0  0  0  0  2  0  0  0  0  0  0
  187.6340  178.2530  139.9110 C   0  0  0  0  0  1  0  0  0  0  0  0
  188.5460  178.0370  141.1120 C   0  0  2  0  0  3  0  0  0  0  0  0
  186.6120  178.3410  142.4710 O   0  0  0  0  0  0  0  0  0  0  0  0
  188.3730  177.2760  143.5990 C   0  0  0  0  0  2  0  0  0  0  0  0
  1 10  1  1  0  0  0
  1 21  1  0  0  0  0
  3  9  1  6  0  0  0
  3  5  1  0  0  0  0
  4  7  1  6  0  0  0
  4  8  1  0  0  0  0
  4 11  1  0  0  0  0
  6 10  1  0  0  0  0
  8  2  1  6  0  0  0
  8  6  1  0  0  0  0
  9  7  1  0  0  0  0
 11  5  1  6  0  0  0
 11  1  1  0  0  0  0
 13 18  1  0  0  0  0
 14 19  1  1  0  0  0
 14 20  1  0  0  0  0
 15 18  1  0  0  0  0
 15  3  1  0  0  0  0
 15 12  1  1  0  0  0
 17 13  2  0  0  0  0
 17 14  1  0  0  0  0
 18 16  1  6  0  0  0
 20 12  1  0  0  0  0
 21 26  1  0  0  0  0
 21 22  1  1  0  0  0
 22 24  1  0  0  0  0
 23 27  2  0  0  0  0
 23 28  1  0  0  0  0
 24 28  1  0  0  0  0
 26 25  1  6  0  0  0
 26 23  1  0  0  0  0
M  END
>  <MODEL>
5

>  <REMARK>
 VINA RESULT:      -7.4      3.361      7.495
  Name = 
  2 active torsions:
  status: ('A' for Active; 'I' for Inactive)
    1  A    between atoms: C_1  and  C_2
    2  A    between atoms: C_10  and  C_13
                            x       y       z     vdW  Elec       q    Type
                         _______ _______ _______ _____ _____    ______ ____

>  <TORSDO>
F 2

$$$$
=
 OpenBabel11052413253D

 28 31  0  0  1  0  0  0  0  0999 V2000
  182.4650  178.6210  139.8480 C   0  0  1  0  0  3  0  0  0  0  0  0
  179.7000  180.8210  142.2860 N   0  0  0  0  0  1  0  0  0  0  0  0
  184.0710  178.5320  142.8740 C   0  0  1  0  0  3  0  0  0  0  0  0
  181.6880  179.4110  142.1170 C   0  0  2  0  0  3  0  0  0  0  0  0
  183.5120  177.6930  141.8840 O   0  0  0  0  0  0  0  0  0  0  0  0
  180.4300  180.1040  140.0860 C   0  0  0  0  0  2  0  0  0  0  0  0
  181.6850  179.0450  143.5950 C   0  0  0  0  0  2  0  0  0  0  0  0
  180.2990  179.7150  141.5590 C   0  0  2  0  0  3  0  0  0  0  0  0
  183.1130  178.7430  144.0630 C   0  0  0  0  0  2  0  0  0  0  0  0
  181.0950  178.9900  139.2730 C   0  0  0  0  0  2  0  0  0  0  0  0
  182.3210  178.2470  141.3310 C   0  0  2  0  0  3  0  0  0  0  0  0
  186.4250  178.2190  142.1200 C   0  0  0  0  0  2  0  0  0  0  0  0
  186.9840  177.6680  145.2970 C   0  0  0  0  0  3  0  0  0  0  0  0
  188.0200  176.6290  143.2270 C   0  0  2  0  0  3  0  0  0  0  0  0
  185.4580  178.0280  143.2970 C   0  0  1  0  0  3  0  0  0  0  0  0
  184.9770  179.0220  145.6250 C   0  0  0  0  0  1  0  0  0  0  0  0
  187.8650  176.8420  144.7070 C   0  0  0  0  0  3  0  0  0  0  0  0
  186.0330  178.6160  144.6090 C   0  0  1  0  0  3  0  0  0  0  0  0
  189.2670  176.0590  142.9710 O   0  0  0  0  0  1  0  0  0  0  0  0
  187.8880  177.9300  142.4530 C   0  0  0  0  0  2  0  0  0  0  0  0
  183.1410  177.5400  138.9870 C   0  0  1  0  0  3  0  0  0  0  0  0
  182.0600  176.7030  138.3000 C   0  0  0  0  0  2  0  0  0  0  0  0
  184.5870  177.0550  136.9600 C   0  0  0  0  0  0  0  0  0  0  0  0
  182.6900  175.5620  137.5160 C   0  0  0  0  0  2  0  0  0  0  0  0
  185.4010  178.6310  138.7250 C   0  0  0  0  0  1  0  0  0  0  0  0
  184.1820  178.0950  137.9840 C   0  0  2  0  0  3  0  0  0  0  0  0
  185.7150  177.0410  136.4930 O   0  0  0  0  0  0  0  0  0  0  0  0
  183.5580  176.1220  136.3990 C   0  0  0  0  0  2  0  0  0  0  0  0
  1 10  1  6  0  0  0
  1 11  1  0  0  0  0
  3 15  1  0  0  0  0
  3  9  1  1  0  0  0
  4  7  1  1  0  0  0
  5  3  1  0  0  0  0
  6  8  1  0  0  0  0
  7  9  1  0  0  0  0
  8  4  1  0  0  0  0
  8  2  1  1  0  0  0
 10  6  1  0  0  0  0
 11  5  1  1  0  0  0
 11  4  1  0  0  0  0
 12 20  1  0  0  0  0
 14 19  1  1  0  0  0
 14 17  1  0  0  0  0
 15 12  1  6  0  0  0
 15 18  1  0  0  0  0
 17 13  2  0  0  0  0
 18 13  1  0  0  0  0
 18 16  1  1  0  0  0
 20 14  1  0  0  0  0
 21 22  1  6  0  0  0
 21  1  1  0  0  0  0
 23 26  1  0  0  0  0
 24 22  1  0  0  0  0
 26 25  1  1  0  0  0
 26 21  1  0  0  0  0
 27 23  2  0  0  0  0
 28 23  1  0  0  0  0
 28 24  1  0  0  0  0
M  END
>  <MODEL>
6

>  <REMARK>
 VINA RESULT:      -7.3      2.984      5.114
  Name = 
  2 active torsions:
  status: ('A' for Active; 'I' for Inactive)
    1  A    between atoms: C_1  and  C_2
    2  A    between atoms: C_10  and  C_13
                            x       y       z     vdW  Elec       q    Type
                         _______ _______ _______ _____ _____    ______ ____

>  <TORSDO>
F 2

$$$$
=
 OpenBabel11052413253D

 28 31  0  0  1  0  0  0  0  0999 V2000
  187.3670  177.7590  140.2130 C   0  0  1  0  0  3  0  0  0  0  0  0
  187.4660  177.2400  144.4740 N   0  0  0  0  0  1  0  0  0  0  0  0
  184.1360  178.5590  141.0290 C   0  0  1  0  0  3  0  0  0  0  0  0
  186.2870  178.0200  142.4810 C   0  0  2  0  0  3  0  0  0  0  0  0
  185.2990  179.0930  140.4300 O   0  0  0  0  0  0  0  0  0  0  0  0
  188.5260  176.9490  142.3100 C   0  0  0  0  0  2  0  0  0  0  0  0
  185.3060  178.8790  143.2670 C   0  0  0  0  0  2  0  0  0  0  0  0
  187.6410  177.8540  143.1680 C   0  0  2  0  0  3  0  0  0  0  0  0
  183.9850  179.0020  142.4980 C   0  0  0  0  0  2  0  0  0  0  0  0
  188.7130  177.5240  140.9040 C   0  0  0  0  0  2  0  0  0  0  0  0
  186.4840  178.6580  141.0930 C   0  0  2  0  0  3  0  0  0  0  0  0
  183.1670  180.1280  139.3540 C   0  0  0  0  0  2  0  0  0  0  0  0
  180.8900  177.8000  139.0320 C   0  0  0  0  0  3  0  0  0  0  0  0
  180.7020  180.3280  138.9270 C   0  0  2  0  0  3  0  0  0  0  0  0
  182.8960  178.8600  140.1770 C   0  0  1  0  0  3  0  0  0  0  0  0
  182.6530  176.3170  139.8430 C   0  0  0  0  0  1  0  0  0  0  0  0
  180.1760  178.9230  138.8390 C   0  0  0  0  0  3  0  0  0  0  0  0
  182.3730  177.7050  139.2880 C   0  0  1  0  0  3  0  0  0  0  0  0
  179.8270  181.1900  138.2670 O   0  0  0  0  0  1  0  0  0  0  0  0
  182.0900  180.4510  138.3200 C   0  0  0  0  0  2  0  0  0  0  0  0
  187.5770  178.2850  138.7820 C   0  0  1  0  0  3  0  0  0  0  0  0
  189.0550  178.6290  138.5910 C   0  0  0  0  0  2  0  0  0  0  0  0
  187.5420  177.7370  136.3060 C   0  0  0  0  0  0  0  0  0  0  0  0
  189.2830  179.2440  137.2190 C   0  0  0  0  0  2  0  0  0  0  0  0
  185.5220  177.2860  137.7130 C   0  0  0  0  0  1  0  0  0  0  0  0
  187.0440  177.3380  137.6800 C   0  0  2  0  0  3  0  0  0  0  0  0
  186.8550  177.5530  135.3130 O   0  0  0  0  0  0  0  0  0  0  0  0
  188.9470  178.2280  136.1370 C   0  0  0  0  0  2  0  0  0  0  0  0
  1 10  1  1  0  0  0
  1 11  1  0  0  0  0
  3  9  1  1  0  0  0
  4  8  1  0  0  0  0
  4  7  1  1  0  0  0
  5  3  1  0  0  0  0
  6  8  1  0  0  0  0
  8  2  1  1  0  0  0
  9  7  1  0  0  0  0
 10  6  1  0  0  0  0
 11  5  1  6  0  0  0
 11  4  1  0  0  0  0
 13 18  1  0  0  0  0
 14 19  1  6  0  0  0
 15 12  1  6  0  0  0
 15  3  1  0  0  0  0
 17 14  1  0  0  0  0
 17 13  2  0  0  0  0
 18 16  1  1  0  0  0
 18 15  1  0  0  0  0
 20 14  1  0  0  0  0
 20 12  1  0  0  0  0
 21 22  1  6  0  0  0
 21  1  1  0  0  0  0
 23 26  1  0  0  0  0
 24 22  1  0  0  0  0
 26 25  1  6  0  0  0
 26 21  1  0  0  0  0
 27 23  2  0  0  0  0
 28 23  1  0  0  0  0
 28 24  1  0  0  0  0
M  END
>  <MODEL>
7

>  <REMARK>
 VINA RESULT:      -7.2      2.366      6.255
  Name = 
  2 active torsions:
  status: ('A' for Active; 'I' for Inactive)
    1  A    between atoms: C_1  and  C_2
    2  A    between atoms: C_10  and  C_13
                            x       y       z     vdW  Elec       q    Type
                         _______ _______ _______ _____ _____    ______ ____

>  <TORSDO>
F 2

$$$$
=
 OpenBabel11052413253D

 28 31  0  0  1  0  0  0  0  0999 V2000
  185.6430  179.2020  143.8380 C   0  0  1  0  0  3  0  0  0  0  0  0
  187.3100  178.1220  147.6440 N   0  0  0  0  0  1  0  0  0  0  0  0
  188.5370  177.6540  142.8520 C   0  0  1  0  0  3  0  0  0  0  0  0
  187.3590  177.9550  145.2080 C   0  0  2  0  0  3  0  0  0  0  0  0
  187.1320  177.5700  142.7310 O   0  0  0  0  0  0  0  0  0  0  0  0
  185.6590  179.3560  146.3620 C   0  0  0  0  0  2  0  0  0  0  0  0
  188.2540  176.7220  145.2040 C   0  0  0  0  0  2  0  0  0  0  0  0
  186.4810  178.0700  146.4520 C   0  0  2  0  0  3  0  0  0  0  0  0
  189.0850  176.6820  143.9170 C   0  0  0  0  0  2  0  0  0  0  0  0
  184.7940  179.3770  145.1000 C   0  0  0  0  0  2  0  0  0  0  0  0
  186.4740  177.9140  143.9480 C   0  0  2  0  0  3  0  0  0  0  0  0
  188.3820  178.2520  140.4390 C   0  0  0  0  0  2  0  0  0  0  0  0
  191.4490  177.1140  140.3350 C   0  0  0  0  0  3  0  0  0  0  0  0
  189.5730  176.9830  138.6310 C   0  0  2  0  0  3  0  0  0  0  0  0
  189.2140  177.4940  141.4840 C   0  0  1  0  0  3  0  0  0  0  0  0
  191.4710  177.6840  142.7100 C   0  0  0  0  0  1  0  0  0  0  0  0
  190.9740  176.7620  139.1270 C   0  0  0  0  0  3  0  0  0  0  0  0
  190.7120  177.8780  141.4070 C   0  0  1  0  0  3  0  0  0  0  0  0
  189.5570  176.8920  137.2400 O   0  0  0  0  0  1  0  0  0  0  0  0
  189.0300  178.3360  139.0570 C   0  0  0  0  0  2  0  0  0  0  0  0
  184.7640  179.2810  142.5770 C   0  0  1  0  0  3  0  0  0  0  0  0
  185.6320  179.0030  141.3480 C   0  0  0  0  0  2  0  0  0  0  0  0
  182.8510  178.2510  141.2700 C   0  0  0  0  0  0  0  0  0  0  0  0
  184.8170  179.1690  140.0750 C   0  0  0  0  0  2  0  0  0  0  0  0
  182.5190  178.9030  143.6630 C   0  0  0  0  0  1  0  0  0  0  0  0
  183.5080  178.3790  142.6280 C   0  0  2  0  0  3  0  0  0  0  0  0
  181.6410  178.1180  141.1690 O   0  0  0  0  0  0  0  0  0  0  0  0
  183.6990  178.1370  140.0410 C   0  0  0  0  0  2  0  0  0  0  0  0
  1 11  1  0  0  0  0
  1 10  1  1  0  0  0
  3  9  1  1  0  0  0
  4  7  1  1  0  0  0
  4  8  1  0  0  0  0
  5  3  1  0  0  0  0
  6  8  1  0  0  0  0
  8  2  1  1  0  0  0
  9  7  1  0  0  0  0
 10  6  1  0  0  0  0
 11  5  1  6  0  0  0
 11  4  1  0  0  0  0
 13 18  1  0  0  0  0
 14 19  1  6  0  0  0
 14 20  1  0  0  0  0
 14 17  1  0  0  0  0
 15 12  1  6  0  0  0
 15  3  1  0  0  0  0
 17 13  2  0  0  0  0
 18 15  1  0  0  0  0
 18 16  1  1  0  0  0
 20 12  1  0  0  0  0
 21 22  1  6  0  0  0
 21 26  1  0  0  0  0
 21  1  1  0  0  0  0
 23 26  1  0  0  0  0
 24 22  1  0  0  0  0
 26 25  1  1  0  0  0
 27 23  2  0  0  0  0
 28 24  1  0  0  0  0
 28 23  1  0  0  0  0
M  END
>  <MODEL>
8

>  <REMARK>
 VINA RESULT:      -7.2      2.952      5.992
  Name = 
  2 active torsions:
  status: ('A' for Active; 'I' for Inactive)
    1  A    between atoms: C_1  and  C_2
    2  A    between atoms: C_10  and  C_13
                            x       y       z     vdW  Elec       q    Type
                         _______ _______ _______ _____ _____    ______ ____

>  <TORSDO>
F 2

$$$$
=
 OpenBabel11052413253D

 28 31  0  0  1  0  0  0  0  0999 V2000
  188.5820  177.5580  141.8590 C   0  0  1  0  0  3  0  0  0  0  0  0
  184.8930  178.5930  139.9220 N   0  0  0  0  0  1  0  0  0  0  0  0
  189.4260  177.0680  138.5740 C   0  0  1  0  0  3  0  0  0  0  0  0
  187.2700  178.0560  139.7590 C   0  0  2  0  0  3  0  0  0  0  0  0
  189.7760  177.8270  139.7130 O   0  0  0  0  0  0  0  0  0  0  0  0
  186.1130  178.0960  141.9610 C   0  0  0  0  0  2  0  0  0  0  0  0
  187.4050  178.5990  138.3430 C   0  0  0  0  0  2  0  0  0  0  0  0
  186.1810  178.7450  140.5780 C   0  0  2  0  0  3  0  0  0  0  0  0
  188.5270  177.8610  137.6040 C   0  0  0  0  0  2  0  0  0  0  0  0
  187.4580  178.1880  142.6860 C   0  0  0  0  0  2  0  0  0  0  0  0
  188.6290  178.2090  140.4680 C   0  0  2  0  0  3  0  0  0  0  0  0
  191.8890  176.7700  138.7980 C   0  0  0  0  0  2  0  0  0  0  0  0
  191.4940  174.6780  136.3130 C   0  0  0  0  0  3  0  0  0  0  0  0
  193.3940  176.2710  136.8530 C   0  0  2  0  0  3  0  0  0  0  0  0
  190.6760  176.4860  137.9000 C   0  0  1  0  0  3  0  0  0  0  0  0
  189.2060  174.5060  137.1530 C   0  0  0  0  0  1  0  0  0  0  0  0
  192.7070  175.1960  136.0570 C   0  0  0  0  0  3  0  0  0  0  0  0
  190.6070  174.9950  137.4910 C   0  0  1  0  0  3  0  0  0  0  0  0
  194.7590  176.2530  136.5710 O   0  0  0  0  0  1  0  0  0  0  0  0
  193.1810  176.0910  138.3460 C   0  0  0  0  0  2  0  0  0  0  0  0
  189.9140  177.6110  142.6270 C   0  0  1  0  0  3  0  0  0  0  0  0
  190.0810  179.0030  143.2380 C   0  0  0  0  0  2  0  0  0  0  0  0
  191.2440  176.7500  144.6080 C   0  0  0  0  0  0  0  0  0  0  0  0
  191.4340  179.1230  143.9240 C   0  0  0  0  0  2  0  0  0  0  0  0
  190.2370  175.1340  142.9840 C   0  0  0  0  0  1  0  0  0  0  0  0
  190.0820  176.4830  143.6750 C   0  0  2  0  0  3  0  0  0  0  0  0
  191.8970  175.8300  145.0740 O   0  0  0  0  0  0  0  0  0  0  0  0
  191.5100  178.1440  145.0860 C   0  0  0  0  0  2  0  0  0  0  0  0
  1 21  1  0  0  0  0
  1 10  1  1  0  0  0
  3  9  1  6  0  0  0
  3  5  1  0  0  0  0
  4  7  1  6  0  0  0
  4 11  1  0  0  0  0
  4  8  1  0  0  0  0
  6 10  1  0  0  0  0
  8  2  1  6  0  0  0
  8  6  1  0  0  0  0
  9  7  1  0  0  0  0
 11  5  1  6  0  0  0
 11  1  1  0  0  0  0
 13 18  1  0  0  0  0
 14 19  1  1  0  0  0
 14 20  1  0  0  0  0
 15  3  1  0  0  0  0
 15 12  1  1  0  0  0
 17 13  2  0  0  0  0
 17 14  1  0  0  0  0
 18 16  1  6  0  0  0
 18 15  1  0  0  0  0
 20 12  1  0  0  0  0
 21 22  1  1  0  0  0
 21 26  1  0  0  0  0
 22 24  1  0  0  0  0
 23 27  2  0  0  0  0
 23 28  1  0  0  0  0
 24 28  1  0  0  0  0
 26 25  1  6  0  0  0
 26 23  1  0  0  0  0
M  END
>  <MODEL>
9

>  <REMARK>
 VINA RESULT:      -7.1      4.010      8.253
  Name = 
  2 active torsions:
  status: ('A' for Active; 'I' for Inactive)
    1  A    between atoms: C_1  and  C_2
    2  A    between atoms: C_10  and  C_13
                            x       y       z     vdW  Elec       q    Type
                         _______ _______ _______ _____ _____    ______ ____

>  <TORSDO>
F 2

$$$$
