=
 OpenBabel11052414303D

 32 35  0  0  1  0  0  0  0  0999 V2000
  181.2800  178.2310  139.4480 C   0  0  1  0  0  3  0  0  0  0  0  0
  179.9590  181.0710  140.3280 C   0  0  0  0  0  3  0  0  0  0  0  0
  180.6210  179.6620  135.0970 C   0  0  0  0  0  2  0  0  0  0  0  0
  180.2640  179.1530  138.7400 C   0  0  1  0  0  3  0  0  0  0  0  0
  180.7600  181.9260  135.7520 O   0  0  0  0  0  0  0  0  0  0  0  0
  180.7510  181.1420  136.8790 C   0  0  0  0  0  0  0  0  0  0  0  0
  180.3040  180.6280  139.1160 C   0  0  0  0  0  0  0  0  0  0  0  0
  180.5050  181.5830  138.0690 N   0  0  0  0  0  0  0  0  0  0  0  0
  180.9390  179.7070  136.5860 C   0  0  1  0  0  3  0  0  0  0  0  0
  180.8190  181.1050  134.5960 C   0  0  0  0  0  2  0  0  0  0  0  0
  180.0650  178.9010  137.3510 O   0  0  0  0  0  0  0  0  0  0  0  0
  179.5650  180.1840  141.4650 C   0  0  0  0  0  2  0  0  0  0  0  0
  179.9150  180.7710  142.6800 O   0  0  0  0  0  1  0  0  0  0  0  0
  180.7150  176.5260  139.4570 S   0  0  0  0  0  0  0  0  0  0  0  0
  179.1390  176.4330  140.2750 C   0  0  0  0  0  1  0  0  0  0  0  0
  181.6890  175.6500  140.1910 O   0  0  0  0  0  0  0  0  0  0  0  0
  180.5610  176.0270  138.0480 O   0  0  0  0  0  0  0  0  0  0  0  0
  183.0760  179.5900  138.4930 O   0  0  0  0  0  1  0  0  0  0  0  0
  182.8150  178.4480  139.2610 C   0  0  1  0  0  0  0  0  0  0  0  0
  185.3250  179.1990  142.0780 C   0  0  0  0  0  3  0  0  0  0  0  0
  183.1460  178.8430  143.0580 C   0  0  0  0  0  3  0  0  0  0  0  0
  183.4270  178.6660  140.6390 C   0  0  0  0  0  0  0  0  0  0  0  0
  184.5080  179.1180  143.2120 C   0  0  0  0  0  0  0  0  0  0  0  0
  182.6150  178.6170  141.7870 C   0  0  0  0  0  3  0  0  0  0  0  0
  184.7980  178.9730  140.8020 C   0  0  0  0  0  0  0  0  0  0  0  0
  185.6530  179.0560  139.7080 O   0  0  0  0  0  1  0  0  0  0  0  0
  185.0710  179.4110  144.5690 C   0  0  0  0  0  3  0  0  0  0  0  0
  185.6750  178.1560  145.1780 C   0  0  0  0  0  2  0  0  0  0  0  0
  184.3170  178.6350  145.6360 C   0  0  0  0  0  2  0  0  0  0  0  0
  183.4540  177.2790  138.6290 N   0  0  0  0  0  2  0  0  0  0  0  0
  183.7340  177.5060  137.2180 C   0  0  0  0  0  2  0  0  0  0  0  0
  185.0920  176.9320  136.8740 C   0  0  0  0  0  1  0  0  0  0  0  0
  1 14  1  6  0  0  0
  2 12  1  0  0  0  0
  4  7  1  0  0  0  0
  4  1  1  6  0  0  0
  5  6  1  0  0  0  0
  6  8  2  0  0  0  0
  7  2  2  0  0  0  0
  8  7  1  0  0  0  0
  9  3  1  6  0  0  0
  9  6  1  0  0  0  0
  9 11  1  0  0  0  0
 10  3  1  0  0  0  0
 10  5  1  0  0  0  0
 11  4  1  0  0  0  0
 12 13  1  0  0  0  0
 14 16  2  0  0  0  0
 14 15  1  0  0  0  0
 17 14  2  0  0  0  0
 19 18  1  6  0  0  0
 19  1  1  0  0  0  0
 19 22  1  0  0  0  0
 20 23  1  0  0  0  0
 21 23  2  0  0  0  0
 22 25  1  0  0  0  0
 22 24  2  0  0  0  0
 23 27  1  0  0  0  0
 24 21  1  0  0  0  0
 25 20  2  0  0  0  0
 26 25  1  0  0  0  0
 27 28  1  0  0  0  0
 27 29  1  0  0  0  0
 28 29  1  0  0  0  0
 30 19  1  0  0  0  0
 31 30  1  0  0  0  0
 32 31  1  0  0  0  0
M  END
>  <MODEL>
1

>  <REMARK>
 VINA RESULT:      -6.2      0.000      0.000
  Name = 
  8 active torsions:
  status: ('A' for Active; 'I' for Inactive)
    1  A    between atoms: N_1  and  C_4
    2  A    between atoms: N_1  and  C_27
    3  A    between atoms: S_2  and  C_5
    4  A    between atoms: C_5  and  C_10
    5  A    between atoms: C_5  and  C_27
    6  A    between atoms: C_6  and  C_25
    7  A    between atoms: C_7  and  C_19
    8  A    between atoms: C_16  and  C_27
                            x       y       z     vdW  Elec       q    Type
                         _______ _______ _______ _____ _____    ______ ____

>  <TORSDO>
F 8

$$$$
=
 OpenBabel11052414303D

 32 35  0  0  1  0  0  0  0  0999 V2000
  181.9740  178.7900  139.1010 C   0  0  1  0  0  3  0  0  0  0  0  0
  184.6910  177.5030  137.8590 C   0  0  0  0  0  3  0  0  0  0  0  0
  179.7600  176.4820  135.7570 C   0  0  0  0  0  2  0  0  0  0  0  0
  182.3290  178.3230  137.6720 C   0  0  1  0  0  3  0  0  0  0  0  0
  181.4570  174.8420  135.6760 O   0  0  0  0  0  0  0  0  0  0  0  0
  181.8660  175.8580  136.5040 C   0  0  0  0  0  0  0  0  0  0  0  0
  183.4150  177.2630  137.5510 C   0  0  0  0  0  0  0  0  0  0  0  0
  183.0900  176.0430  136.8770 N   0  0  0  0  0  0  0  0  0  0  0  0
  180.7810  176.8010  136.8410 C   0  0  1  0  0  3  0  0  0  0  0  0
  180.1150  175.0640  135.2690 C   0  0  0  0  0  2  0  0  0  0  0  0
  181.2230  178.1420  136.7900 O   0  0  0  0  0  0  0  0  0  0  0  0
  185.1920  178.7970  138.4160 C   0  0  0  0  0  2  0  0  0  0  0  0
  186.4650  178.6310  138.9590 O   0  0  0  0  0  1  0  0  0  0  0  0
  180.8370  180.1800  139.0680 S   0  0  0  0  0  0  0  0  0  0  0  0
  181.4420  181.4070  137.9310 C   0  0  0  0  0  1  0  0  0  0  0  0
  180.7230  180.8030  140.4290 O   0  0  0  0  0  0  0  0  0  0  0  0
  179.4800  179.7250  138.6130 O   0  0  0  0  0  0  0  0  0  0  0  0
  182.2230  176.4820  139.8740 O   0  0  0  0  0  1  0  0  0  0  0  0
  181.7590  177.7510  140.2470 C   0  0  1  0  0  0  0  0  0  0  0  0
  182.7270  179.0270  143.7430 C   0  0  0  0  0  3  0  0  0  0  0  0
  184.7470  178.5390  142.5120 C   0  0  0  0  0  3  0  0  0  0  0  0
  182.5740  178.2070  141.4500 C   0  0  0  0  0  0  0  0  0  0  0  0
  184.1240  178.9950  143.6780 C   0  0  0  0  0  0  0  0  0  0  0  0
  183.9790  178.1540  141.4120 C   0  0  0  0  0  3  0  0  0  0  0  0
  181.9520  178.6440  142.6440 C   0  0  0  0  0  0  0  0  0  0  0  0
  180.5680  178.7030  142.7560 O   0  0  0  0  0  1  0  0  0  0  0  0
  184.9440  179.3600  144.8790 C   0  0  0  0  0  3  0  0  0  0  0  0
  185.8110  178.1870  145.3080 C   0  0  0  0  0  2  0  0  0  0  0  0
  184.5480  178.5080  146.0730 C   0  0  0  0  0  2  0  0  0  0  0  0
  180.3390  177.6560  140.6330 N   0  0  0  0  0  2  0  0  0  0  0  0
  179.6890  176.4920  140.0460 C   0  0  0  0  0  2  0  0  0  0  0  0
  179.2410  175.5560  141.1480 C   0  0  0  0  0  1  0  0  0  0  0  0
  1 14  1  6  0  0  0
  1 19  1  0  0  0  0
  2 12  1  0  0  0  0
  4  1  1  1  0  0  0
  5  6  1  0  0  0  0
  6  9  1  0  0  0  0
  6  8  2  0  0  0  0
  7  4  1  0  0  0  0
  7  2  2  0  0  0  0
  8  7  1  0  0  0  0
  9  3  1  6  0  0  0
 10  5  1  0  0  0  0
 10  3  1  0  0  0  0
 11  9  1  0  0  0  0
 11  4  1  0  0  0  0
 12 13  1  0  0  0  0
 14 16  2  0  0  0  0
 15 14  1  0  0  0  0
 17 14  2  0  0  0  0
 19 18  1  6  0  0  0
 19 30  1  0  0  0  0
 19 22  1  0  0  0  0
 21 23  2  0  0  0  0
 22 25  1  0  0  0  0
 23 20  1  0  0  0  0
 23 27  1  0  0  0  0
 24 22  2  0  0  0  0
 24 21  1  0  0  0  0
 25 26  1  0  0  0  0
 25 20  2  0  0  0  0
 27 28  1  0  0  0  0
 27 29  1  0  0  0  0
 28 29  1  0  0  0  0
 31 30  1  0  0  0  0
 31 32  1  0  0  0  0
M  END
>  <MODEL>
2

>  <REMARK>
 VINA RESULT:      -5.0      2.107      4.396
  Name = 
  8 active torsions:
  status: ('A' for Active; 'I' for Inactive)
    1  A    between atoms: N_1  and  C_4
    2  A    between atoms: N_1  and  C_27
    3  A    between atoms: S_2  and  C_5
    4  A    between atoms: C_5  and  C_10
    5  A    between atoms: C_5  and  C_27
    6  A    between atoms: C_6  and  C_25
    7  A    between atoms: C_7  and  C_19
    8  A    between atoms: C_16  and  C_27
                            x       y       z     vdW  Elec       q    Type
                         _______ _______ _______ _____ _____    ______ ____

>  <TORSDO>
F 8

$$$$
=
 OpenBabel11052414303D

 32 35  0  0  1  0  0  0  0  0999 V2000
  181.3920  178.1360  138.9180 C   0  0  1  0  0  3  0  0  0  0  0  0
  179.1470  175.8590  139.5140 C   0  0  0  0  0  3  0  0  0  0  0  0
  180.1250  179.9620  142.9770 C   0  0  0  0  0  2  0  0  0  0  0  0
  180.0880  178.1720  139.7440 C   0  0  1  0  0  3  0  0  0  0  0  0
  179.4420  177.8520  143.7860 O   0  0  0  0  0  0  0  0  0  0  0  0
  179.7550  177.7320  142.4550 C   0  0  0  0  0  0  0  0  0  0  0  0
  179.5940  176.8430  140.2980 C   0  0  0  0  0  0  0  0  0  0  0  0
  179.3990  176.7360  141.7110 N   0  0  0  0  0  0  0  0  0  0  0  0
  180.4480  178.9180  141.9150 C   0  0  1  0  0  3  0  0  0  0  0  0
  179.7640  179.1580  144.2400 C   0  0  0  0  0  2  0  0  0  0  0  0
  179.9550  179.2740  140.6390 O   0  0  0  0  0  0  0  0  0  0  0  0
  179.1400  175.9130  138.0200 C   0  0  0  0  0  2  0  0  0  0  0  0
  179.1730  174.6240  137.4890 O   0  0  0  0  0  1  0  0  0  0  0  0
  181.4090  179.4290  137.6710 S   0  0  0  0  0  0  0  0  0  0  0  0
  179.7490  180.0010  137.3940 C   0  0  0  0  0  1  0  0  0  0  0  0
  181.9590  178.9070  136.3750 O   0  0  0  0  0  0  0  0  0  0  0  0
  182.2490  180.5840  138.1380 O   0  0  0  0  0  0  0  0  0  0  0  0
  182.6300  176.7890  140.5410 O   0  0  0  0  0  1  0  0  0  0  0  0
  182.7590  177.8220  139.6050 C   0  0  1  0  0  0  0  0  0  0  0  0
  184.4100  175.7550  136.8130 C   0  0  0  0  0  3  0  0  0  0  0  0
  185.7120  177.7580  137.1650 C   0  0  0  0  0  3  0  0  0  0  0  0
  183.7260  177.3530  138.5260 C   0  0  0  0  0  0  0  0  0  0  0  0
  185.5180  176.5480  136.4920 C   0  0  0  0  0  0  0  0  0  0  0  0
  184.8280  178.1520  138.1710 C   0  0  0  0  0  3  0  0  0  0  0  0
  183.5220  176.1440  137.8210 C   0  0  0  0  0  0  0  0  0  0  0  0
  182.4420  175.3160  138.1080 O   0  0  0  0  0  1  0  0  0  0  0  0
  186.4350  176.1480  135.3770 C   0  0  0  0  0  3  0  0  0  0  0  0
  187.6420  175.4010  135.9230 C   0  0  0  0  0  2  0  0  0  0  0  0
  187.7770  176.8500  135.5140 C   0  0  0  0  0  2  0  0  0  0  0  0
  183.3180  179.0150  140.2690 N   0  0  0  0  0  2  0  0  0  0  0  0
  183.8890  178.6980  141.5700 C   0  0  0  0  0  2  0  0  0  0  0  0
  185.3380  179.1350  141.6050 C   0  0  0  0  0  1  0  0  0  0  0  0
  1 14  1  1  0  0  0
  1 19  1  0  0  0  0
  2  7  2  0  0  0  0
  3 10  1  0  0  0  0
  4  1  1  1  0  0  0
  4  7  1  0  0  0  0
  4 11  1  0  0  0  0
  5 10  1  0  0  0  0
  6  5  1  0  0  0  0
  7  8  1  0  0  0  0
  8  6  2  0  0  0  0
  9  6  1  0  0  0  0
  9  3  1  1  0  0  0
 11  9  1  0  0  0  0
 12  2  1  0  0  0  0
 13 12  1  0  0  0  0
 14 17  2  0  0  0  0
 15 14  1  0  0  0  0
 16 14  2  0  0  0  0
 19 30  1  0  0  0  0
 19 18  1  1  0  0  0
 20 25  1  0  0  0  0
 21 24  2  0  0  0  0
 22 19  1  0  0  0  0
 23 20  2  0  0  0  0
 23 21  1  0  0  0  0
 24 22  1  0  0  0  0
 25 26  1  0  0  0  0
 25 22  2  0  0  0  0
 27 29  1  0  0  0  0
 27 28  1  0  0  0  0
 27 23  1  0  0  0  0
 29 28  1  0  0  0  0
 30 31  1  0  0  0  0
 31 32  1  0  0  0  0
M  END
>  <MODEL>
3

>  <REMARK>
 VINA RESULT:      -4.5      2.309      6.056
  Name = 
  8 active torsions:
  status: ('A' for Active; 'I' for Inactive)
    1  A    between atoms: N_1  and  C_4
    2  A    between atoms: N_1  and  C_27
    3  A    between atoms: S_2  and  C_5
    4  A    between atoms: C_5  and  C_10
    5  A    between atoms: C_5  and  C_27
    6  A    between atoms: C_6  and  C_25
    7  A    between atoms: C_7  and  C_19
    8  A    between atoms: C_16  and  C_27
                            x       y       z     vdW  Elec       q    Type
                         _______ _______ _______ _____ _____    ______ ____

>  <TORSDO>
F 8

$$$$
=
 OpenBabel11052414303D

 32 35  0  0  1  0  0  0  0  0999 V2000
  181.0600  176.9370  137.5300 C   0  0  1  0  0  3  0  0  0  0  0  0
  179.5290  177.9010  140.2330 C   0  0  0  0  0  3  0  0  0  0  0  0
  180.5660  181.3100  136.0990 C   0  0  0  0  0  2  0  0  0  0  0  0
  180.0340  178.0620  137.7810 C   0  0  1  0  0  3  0  0  0  0  0  0
  180.5360  182.1020  138.3230 O   0  0  0  0  0  0  0  0  0  0  0  0
  180.5090  180.7290  138.3450 C   0  0  0  0  0  0  0  0  0  0  0  0
  179.9670  178.6200  139.1970 C   0  0  0  0  0  0  0  0  0  0  0  0
  180.1710  180.0250  139.3750 N   0  0  0  0  0  0  0  0  0  0  0  0
  180.7960  180.1250  137.0290 C   0  0  1  0  0  3  0  0  0  0  0  0
  180.7080  182.5580  136.9900 C   0  0  0  0  0  2  0  0  0  0  0  0
  179.9300  179.0440  136.7520 O   0  0  0  0  0  0  0  0  0  0  0  0
  179.1230  176.4640  140.1460 C   0  0  0  0  0  2  0  0  0  0  0  0
  179.0860  175.8940  141.4180 O   0  0  0  0  0  1  0  0  0  0  0  0
  180.3660  175.6420  136.4960 S   0  0  0  0  0  0  0  0  0  0  0  0
  180.4280  176.1520  134.7940 C   0  0  0  0  0  1  0  0  0  0  0  0
  178.9350  175.3790  136.8660 O   0  0  0  0  0  0  0  0  0  0  0  0
  181.1610  174.3770  136.6530 O   0  0  0  0  0  0  0  0  0  0  0  0
  182.7180  178.2840  136.3370 O   0  0  0  0  0  1  0  0  0  0  0  0
  182.5670  177.2730  137.2950 C   0  0  1  0  0  0  0  0  0  0  0  0
  183.6100  177.5240  140.9880 C   0  0  0  0  0  3  0  0  0  0  0  0
  184.3890  179.4940  139.8300 C   0  0  0  0  0  3  0  0  0  0  0  0
  183.1410  177.7880  138.6080 C   0  0  0  0  0  0  0  0  0  0  0  0
  184.2670  178.7590  141.0130 C   0  0  0  0  0  0  0  0  0  0  0  0
  183.8290  179.0140  138.6450 C   0  0  0  0  0  3  0  0  0  0  0  0
  183.0460  177.0390  139.8040 C   0  0  0  0  0  0  0  0  0  0  0  0
  182.3960  175.8100  139.8350 O   0  0  0  0  0  1  0  0  0  0  0  0
  184.9120  179.2470  142.2750 C   0  0  0  0  0  3  0  0  0  0  0  0
  186.0760  178.3480  142.6600 C   0  0  0  0  0  2  0  0  0  0  0  0
  184.7550  178.2190  143.3830 C   0  0  0  0  0  2  0  0  0  0  0  0
  183.3280  176.0820  136.8710 N   0  0  0  0  0  2  0  0  0  0  0  0
  184.3730  176.4150  135.9120 C   0  0  0  0  0  2  0  0  0  0  0  0
  185.7260  176.2910  136.5790 C   0  0  0  0  0  1  0  0  0  0  0  0
  1 14  1  6  0  0  0
  3 10  1  0  0  0  0
  4  1  1  1  0  0  0
  4  7  1  0  0  0  0
  5  6  1  0  0  0  0
  6  8  2  0  0  0  0
  7  8  1  0  0  0  0
  7  2  2  0  0  0  0
  9  3  1  6  0  0  0
  9  6  1  0  0  0  0
 10  5  1  0  0  0  0
 11  9  1  0  0  0  0
 11  4  1  0  0  0  0
 12  2  1  0  0  0  0
 12 13  1  0  0  0  0
 14 17  2  0  0  0  0
 14 16  2  0  0  0  0
 15 14  1  0  0  0  0
 19 18  1  6  0  0  0
 19  1  1  0  0  0  0
 19 22  1  0  0  0  0
 20 23  1  0  0  0  0
 21 23  2  0  0  0  0
 22 24  2  0  0  0  0
 22 25  1  0  0  0  0
 23 27  1  0  0  0  0
 24 21  1  0  0  0  0
 25 26  1  0  0  0  0
 25 20  2  0  0  0  0
 27 28  1  0  0  0  0
 27 29  1  0  0  0  0
 28 29  1  0  0  0  0
 30 19  1  0  0  0  0
 31 32  1  0  0  0  0
 31 30  1  0  0  0  0
M  END
>  <MODEL>
4

>  <REMARK>
 VINA RESULT:      -4.4      1.971      2.863
  Name = 
  8 active torsions:
  status: ('A' for Active; 'I' for Inactive)
    1  A    between atoms: N_1  and  C_4
    2  A    between atoms: N_1  and  C_27
    3  A    between atoms: S_2  and  C_5
    4  A    between atoms: C_5  and  C_10
    5  A    between atoms: C_5  and  C_27
    6  A    between atoms: C_6  and  C_25
    7  A    between atoms: C_7  and  C_19
    8  A    between atoms: C_16  and  C_27
                            x       y       z     vdW  Elec       q    Type
                         _______ _______ _______ _____ _____    ______ ____

>  <TORSDO>
F 8

$$$$
=
 OpenBabel11052414303D

 32 35  0  0  1  0  0  0  0  0999 V2000
  181.8410  177.9350  138.5290 C   0  0  1  0  0  3  0  0  0  0  0  0
  179.5720  175.9180  139.6970 C   0  0  0  0  0  3  0  0  0  0  0  0
  184.1750  174.1050  137.3920 C   0  0  0  0  0  2  0  0  0  0  0  0
  181.9360  176.5020  139.0950 C   0  0  1  0  0  3  0  0  0  0  0  0
  182.1750  172.8650  137.2050 O   0  0  0  0  0  0  0  0  0  0  0  0
  181.8780  174.1020  137.7190 C   0  0  0  0  0  0  0  0  0  0  0  0
  180.6790  175.6470  139.0020 C   0  0  0  0  0  0  0  0  0  0  0  0
  180.7690  174.3940  138.3160 N   0  0  0  0  0  0  0  0  0  0  0  0
  183.0050  175.0510  137.6270 C   0  0  1  0  0  3  0  0  0  0  0  0
  183.5470  172.8110  136.8420 C   0  0  0  0  0  2  0  0  0  0  0  0
  183.1480  175.8070  138.8130 O   0  0  0  0  0  0  0  0  0  0  0  0
  179.4090  177.1100  140.5850 C   0  0  0  0  0  2  0  0  0  0  0  0
  179.3610  176.7160  141.9210 O   0  0  0  0  0  1  0  0  0  0  0  0
  180.6580  178.0260  137.1810 S   0  0  0  0  0  0  0  0  0  0  0  0
  181.2470  179.1740  135.9570 C   0  0  0  0  0  1  0  0  0  0  0  0
  179.3220  178.4990  137.6780 O   0  0  0  0  0  0  0  0  0  0  0  0
  180.5010  176.6750  136.5420 O   0  0  0  0  0  0  0  0  0  0  0  0
  180.7290  179.2710  140.2510 O   0  0  0  0  0  1  0  0  0  0  0  0
  181.8960  179.1710  139.4820 C   0  0  1  0  0  0  0  0  0  0  0  0
  185.4580  178.9700  140.9190 C   0  0  0  0  0  3  0  0  0  0  0  0
  183.8820  178.5210  142.6930 C   0  0  0  0  0  3  0  0  0  0  0  0
  183.0650  178.9730  140.4370 C   0  0  0  0  0  0  0  0  0  0  0  0
  185.2050  178.6490  142.2570 C   0  0  0  0  0  0  0  0  0  0  0  0
  182.8280  178.6790  141.7920 C   0  0  0  0  0  3  0  0  0  0  0  0
  184.4060  179.1270  140.0110 C   0  0  0  0  0  0  0  0  0  0  0  0
  184.7110  179.4370  138.6900 O   0  0  0  0  0  1  0  0  0  0  0  0
  186.3360  178.5320  143.2330 C   0  0  0  0  0  3  0  0  0  0  0  0
  186.6380  177.0710  143.5250 C   0  0  0  0  0  2  0  0  0  0  0  0
  185.8590  177.8920  144.5260 C   0  0  0  0  0  2  0  0  0  0  0  0
  182.0940  180.4250  138.7310 N   0  0  0  0  0  2  0  0  0  0  0  0
  181.0020  181.3670  138.9430 C   0  0  0  0  0  2  0  0  0  0  0  0
  181.0520  182.4440  137.8800 C   0  0  0  0  0  1  0  0  0  0  0  0
  1 14  1  1  0  0  0
  1 19  1  0  0  0  0
  2 12  1  0  0  0  0
  4  1  1  6  0  0  0
  5  6  1  0  0  0  0
  6  8  2  0  0  0  0
  7  4  1  0  0  0  0
  7  2  2  0  0  0  0
  8  7  1  0  0  0  0
  9  3  1  1  0  0  0
  9  6  1  0  0  0  0
  9 11  1  0  0  0  0
 10  5  1  0  0  0  0
 10  3  1  0  0  0  0
 11  4  1  0  0  0  0
 12 13  1  0  0  0  0
 14 16  2  0  0  0  0
 15 14  1  0  0  0  0
 17 14  2  0  0  0  0
 19 18  1  1  0  0  0
 19 22  1  0  0  0  0
 20 23  1  0  0  0  0
 22 24  2  0  0  0  0
 23 21  2  0  0  0  0
 23 27  1  0  0  0  0
 24 21  1  0  0  0  0
 25 22  1  0  0  0  0
 25 20  2  0  0  0  0
 26 25  1  0  0  0  0
 27 28  1  0  0  0  0
 27 29  1  0  0  0  0
 28 29  1  0  0  0  0
 30 31  1  0  0  0  0
 30 19  1  0  0  0  0
 32 31  1  0  0  0  0
M  END
>  <MODEL>
5

>  <REMARK>
 VINA RESULT:      -4.2      2.140      4.453
  Name = 
  8 active torsions:
  status: ('A' for Active; 'I' for Inactive)
    1  A    between atoms: N_1  and  C_4
    2  A    between atoms: N_1  and  C_27
    3  A    between atoms: S_2  and  C_5
    4  A    between atoms: C_5  and  C_10
    5  A    between atoms: C_5  and  C_27
    6  A    between atoms: C_6  and  C_25
    7  A    between atoms: C_7  and  C_19
    8  A    between atoms: C_16  and  C_27
                            x       y       z     vdW  Elec       q    Type
                         _______ _______ _______ _____ _____    ______ ____

>  <TORSDO>
F 8

$$$$
=
 OpenBabel11052414303D

 32 35  0  0  1  0  0  0  0  0999 V2000
  188.0240  177.2780  137.6090 C   0  0  1  0  0  3  0  0  0  0  0  0
  186.2970  178.2870  140.1740 C   0  0  0  0  0  3  0  0  0  0  0  0
  191.7060  177.5900  140.3950 C   0  0  0  0  0  2  0  0  0  0  0  0
  188.4070  178.1490  138.8250 C   0  0  1  0  0  3  0  0  0  0  0  0
  190.3720  177.2100  142.3060 O   0  0  0  0  0  0  0  0  0  0  0  0
  189.5480  177.3570  141.2170 C   0  0  0  0  0  0  0  0  0  0  0  0
  187.5860  177.9500  140.0920 C   0  0  0  0  0  0  0  0  0  0  0  0
  188.2800  177.5960  141.2930 N   0  0  0  0  0  0  0  0  0  0  0  0
  190.2770  177.3280  139.9340 C   0  0  1  0  0  3  0  0  0  0  0  0
  191.7280  177.2030  141.8860 C   0  0  0  0  0  2  0  0  0  0  0  0
  189.8050  178.3200  139.0450 O   0  0  0  0  0  0  0  0  0  0  0  0
  185.4960  178.8290  139.0330 C   0  0  0  0  0  2  0  0  0  0  0  0
  184.6780  179.8700  139.4680 O   0  0  0  0  0  1  0  0  0  0  0  0
  187.8410  178.2750  136.1260 S   0  0  0  0  0  0  0  0  0  0  0  0
  186.5040  177.6320  135.1460 C   0  0  0  0  0  1  0  0  0  0  0  0
  189.0970  178.2390  135.3050 O   0  0  0  0  0  0  0  0  0  0  0  0
  187.5290  179.6970  136.4970 O   0  0  0  0  0  0  0  0  0  0  0  0
  189.3990  175.4810  138.5380 O   0  0  0  0  0  1  0  0  0  0  0  0
  188.6540  175.8630  137.4150 C   0  0  1  0  0  0  0  0  0  0  0  0
  186.6990  172.5950  136.8750 C   0  0  0  0  0  3  0  0  0  0  0  0
  185.1240  174.3780  137.2950 C   0  0  0  0  0  3  0  0  0  0  0  0
  187.5170  174.8640  137.2510 C   0  0  0  0  0  0  0  0  0  0  0  0
  185.3760  173.0330  137.0090 C   0  0  0  0  0  0  0  0  0  0  0  0
  186.1830  175.2800  137.4110 C   0  0  0  0  0  3  0  0  0  0  0  0
  187.7630  173.4950  136.9890 C   0  0  0  0  0  0  0  0  0  0  0  0
  189.0580  173.0120  136.8390 O   0  0  0  0  0  1  0  0  0  0  0  0
  184.2450  172.0520  136.9350 C   0  0  0  0  0  3  0  0  0  0  0  0
  183.5620  172.1290  135.5790 C   0  0  0  0  0  2  0  0  0  0  0  0
  182.9190  172.7800  136.7820 C   0  0  0  0  0  2  0  0  0  0  0  0
  189.5160  175.8130  136.2190 N   0  0  0  0  0  2  0  0  0  0  0  0
  190.9310  175.8270  136.5640 C   0  0  0  0  0  2  0  0  0  0  0  0
  191.7460  175.3860  135.3670 C   0  0  0  0  0  1  0  0  0  0  0  0
  1 14  1  6  0  0  0
  3 10  1  0  0  0  0
  4  1  1  6  0  0  0
  4 11  1  0  0  0  0
  4  7  1  0  0  0  0
  6  8  2  0  0  0  0
  6  5  1  0  0  0  0
  7  2  2  0  0  0  0
  7  8  1  0  0  0  0
  9  3  1  1  0  0  0
  9  6  1  0  0  0  0
 10  5  1  0  0  0  0
 11  9  1  0  0  0  0
 12 13  1  0  0  0  0
 12  2  1  0  0  0  0
 14 17  2  0  0  0  0
 15 14  1  0  0  0  0
 16 14  2  0  0  0  0
 19  1  1  0  0  0  0
 19 18  1  1  0  0  0
 20 25  2  0  0  0  0
 20 23  1  0  0  0  0
 21 24  1  0  0  0  0
 22 24  2  0  0  0  0
 22 19  1  0  0  0  0
 23 21  2  0  0  0  0
 25 22  1  0  0  0  0
 26 25  1  0  0  0  0
 27 23  1  0  0  0  0
 28 29  1  0  0  0  0
 28 27  1  0  0  0  0
 29 27  1  0  0  0  0
 30 31  1  0  0  0  0
 30 19  1  0  0  0  0
 32 31  1  0  0  0  0
M  END
>  <MODEL>
6

>  <REMARK>
 VINA RESULT:      -4.2      5.142      8.858
  Name = 
  8 active torsions:
  status: ('A' for Active; 'I' for Inactive)
    1  A    between atoms: N_1  and  C_4
    2  A    between atoms: N_1  and  C_27
    3  A    between atoms: S_2  and  C_5
    4  A    between atoms: C_5  and  C_10
    5  A    between atoms: C_5  and  C_27
    6  A    between atoms: C_6  and  C_25
    7  A    between atoms: C_7  and  C_19
    8  A    between atoms: C_16  and  C_27
                            x       y       z     vdW  Elec       q    Type
                         _______ _______ _______ _____ _____    ______ ____

>  <TORSDO>
F 8

$$$$
=
 OpenBabel11052414303D

 32 35  0  0  1  0  0  0  0  0999 V2000
  188.2370  176.5760  136.8710 C   0  0  1  0  0  3  0  0  0  0  0  0
  189.1810  173.4670  137.0190 C   0  0  0  0  0  3  0  0  0  0  0  0
  184.0530  174.9010  135.8220 C   0  0  0  0  0  2  0  0  0  0  0  0
  187.7110  175.3090  136.1630 C   0  0  1  0  0  3  0  0  0  0  0  0
  184.4930  172.8960  136.9890 O   0  0  0  0  0  0  0  0  0  0  0  0
  185.6470  173.6370  136.9390 C   0  0  0  0  0  0  0  0  0  0  0  0
  187.9590  173.9820  136.8660 C   0  0  0  0  0  0  0  0  0  0  0  0
  186.8270  173.1620  137.1730 N   0  0  0  0  0  0  0  0  0  0  0  0
  185.4250  175.0200  136.4730 C   0  0  1  0  0  3  0  0  0  0  0  0
  183.4160  173.6450  136.4470 C   0  0  0  0  0  2  0  0  0  0  0  0
  186.4240  175.4300  135.5610 O   0  0  0  0  0  0  0  0  0  0  0  0
  190.4400  174.1500  136.5880 C   0  0  0  0  0  2  0  0  0  0  0  0
  191.4000  174.0760  137.5960 O   0  0  0  0  0  1  0  0  0  0  0  0
  188.7500  177.8210  135.6820 S   0  0  0  0  0  0  0  0  0  0  0  0
  189.9730  177.1270  134.5940 C   0  0  0  0  0  1  0  0  0  0  0  0
  189.3490  179.0070  136.3810 O   0  0  0  0  0  0  0  0  0  0  0  0
  187.5710  178.2690  134.8650 O   0  0  0  0  0  0  0  0  0  0  0  0
  186.5960  176.1960  138.6450 O   0  0  0  0  0  1  0  0  0  0  0  0
  187.5500  177.1050  138.1700 C   0  0  1  0  0  0  0  0  0  0  0  0
  189.3540  177.9720  141.4540 C   0  0  0  0  0  3  0  0  0  0  0  0
  190.8990  176.8090  140.0080 C   0  0  0  0  0  3  0  0  0  0  0  0
  188.6240  177.2520  139.2390 C   0  0  0  0  0  0  0  0  0  0  0  0
  190.6330  177.4550  141.2190 C   0  0  0  0  0  0  0  0  0  0  0  0
  189.9060  176.7130  139.0310 C   0  0  0  0  0  3  0  0  0  0  0  0
  188.3560  177.8800  140.4790 C   0  0  0  0  0  0  0  0  0  0  0  0
  187.1040  178.4170  140.7590 O   0  0  0  0  0  1  0  0  0  0  0  0
  191.6800  177.5140  142.2890 C   0  0  0  0  0  3  0  0  0  0  0  0
  191.4000  176.4780  143.3650 C   0  0  0  0  0  2  0  0  0  0  0  0
  191.0620  177.9290  143.6140 C   0  0  0  0  0  2  0  0  0  0  0  0
  186.9070  178.4140  137.9480 N   0  0  0  0  0  2  0  0  0  0  0  0
  185.4860  178.2830  137.6590 C   0  0  0  0  0  2  0  0  0  0  0  0
  184.6860  179.0030  138.7230 C   0  0  0  0  0  1  0  0  0  0  0  0
  1 14  1  6  0  0  0
  1 19  1  0  0  0  0
  3 10  1  0  0  0  0
  4  7  1  0  0  0  0
  4  1  1  1  0  0  0
  6  5  1  0  0  0  0
  6  8  2  0  0  0  0
  7  2  2  0  0  0  0
  7  8  1  0  0  0  0
  9  3  1  6  0  0  0
  9  6  1  0  0  0  0
 10  5  1  0  0  0  0
 11  4  1  0  0  0  0
 11  9  1  0  0  0  0
 12  2  1  0  0  0  0
 12 13  1  0  0  0  0
 14 16  2  0  0  0  0
 15 14  1  0  0  0  0
 17 14  2  0  0  0  0
 19 18  1  1  0  0  0
 19 22  1  0  0  0  0
 21 23  2  0  0  0  0
 22 25  1  0  0  0  0
 23 20  1  0  0  0  0
 23 27  1  0  0  0  0
 24 22  2  0  0  0  0
 24 21  1  0  0  0  0
 25 26  1  0  0  0  0
 25 20  2  0  0  0  0
 27 28  1  0  0  0  0
 27 29  1  0  0  0  0
 28 29  1  0  0  0  0
 30 19  1  0  0  0  0
 31 30  1  0  0  0  0
 31 32  1  0  0  0  0
M  END
>  <MODEL>
7

>  <REMARK>
 VINA RESULT:      -4.1      5.160      8.119
  Name = 
  8 active torsions:
  status: ('A' for Active; 'I' for Inactive)
    1  A    between atoms: N_1  and  C_4
    2  A    between atoms: N_1  and  C_27
    3  A    between atoms: S_2  and  C_5
    4  A    between atoms: C_5  and  C_10
    5  A    between atoms: C_5  and  C_27
    6  A    between atoms: C_6  and  C_25
    7  A    between atoms: C_7  and  C_19
    8  A    between atoms: C_16  and  C_27
                            x       y       z     vdW  Elec       q    Type
                         _______ _______ _______ _____ _____    ______ ____

>  <TORSDO>
F 8

$$$$
=
 OpenBabel11052414303D

 32 35  0  0  1  0  0  0  0  0999 V2000
  181.6220  178.1830  138.4360 C   0  0  1  0  0  3  0  0  0  0  0  0
  181.1590  176.0870  135.9930 C   0  0  0  0  0  3  0  0  0  0  0  0
  179.0160  175.3010  140.9500 C   0  0  0  0  0  2  0  0  0  0  0  0
  180.4710  177.2000  138.1320 C   0  0  1  0  0  3  0  0  0  0  0  0
  179.6550  173.4590  139.6180 O   0  0  0  0  0  0  0  0  0  0  0  0
  180.1390  174.6080  139.0410 C   0  0  0  0  0  0  0  0  0  0  0  0
  180.8180  175.9870  137.2790 C   0  0  0  0  0  0  0  0  0  0  0  0
  180.5540  174.6880  137.8200 N   0  0  0  0  0  0  0  0  0  0  0  0
  180.0330  175.7860  139.9240 C   0  0  1  0  0  3  0  0  0  0  0  0
  179.0620  173.7640  140.8710 C   0  0  0  0  0  2  0  0  0  0  0  0
  179.5890  176.9270  139.2190 O   0  0  0  0  0  0  0  0  0  0  0  0
  181.3070  177.3830  135.2610 C   0  0  0  0  0  2  0  0  0  0  0  0
  182.6560  177.6770  135.0650 O   0  0  0  0  0  1  0  0  0  0  0  0
  181.0070  179.8580  138.6480 S   0  0  0  0  0  0  0  0  0  0  0  0
  179.6470  180.1300  137.5360 C   0  0  0  0  0  1  0  0  0  0  0  0
  182.0840  180.8600  138.3420 O   0  0  0  0  0  0  0  0  0  0  0  0
  180.5290  180.0570  140.0580 O   0  0  0  0  0  0  0  0  0  0  0  0
  182.5340  176.5480  140.0110 O   0  0  0  0  0  1  0  0  0  0  0  0
  182.8050  177.7610  139.3640 C   0  0  1  0  0  0  0  0  0  0  0  0
  186.1690  178.3160  137.5850 C   0  0  0  0  0  3  0  0  0  0  0  0
  185.3530  176.1130  137.0250 C   0  0  0  0  0  3  0  0  0  0  0  0
  184.0340  177.5550  138.4880 C   0  0  0  0  0  0  0  0  0  0  0  0
  186.3260  177.1090  136.8940 C   0  0  0  0  0  0  0  0  0  0  0  0
  184.2210  176.3370  137.8100 C   0  0  0  0  0  3  0  0  0  0  0  0
  185.0370  178.5460  138.3720 C   0  0  0  0  0  0  0  0  0  0  0  0
  184.9250  179.7660  139.0300 O   0  0  0  0  0  1  0  0  0  0  0  0
  187.5670  176.8520  136.0940 C   0  0  0  0  0  3  0  0  0  0  0  0
  188.4970  175.9100  136.8420 C   0  0  0  0  0  2  0  0  0  0  0  0
  188.7880  177.3920  136.8190 C   0  0  0  0  0  2  0  0  0  0  0  0
  183.0990  178.7960  140.3720 N   0  0  0  0  0  2  0  0  0  0  0  0
  183.1300  178.2510  141.7220 C   0  0  0  0  0  2  0  0  0  0  0  0
  184.5270  178.3840  142.2890 C   0  0  0  0  0  1  0  0  0  0  0  0
  1 14  1  1  0  0  0
  1 19  1  0  0  0  0
  2  7  2  0  0  0  0
  4  1  1  1  0  0  0
  4 11  1  0  0  0  0
  5 10  1  0  0  0  0
  6  5  1  0  0  0  0
  6  9  1  0  0  0  0
  7  8  1  0  0  0  0
  7  4  1  0  0  0  0
  8  6  2  0  0  0  0
  9  3  1  1  0  0  0
 10  3  1  0  0  0  0
 11  9  1  0  0  0  0
 12  2  1  0  0  0  0
 13 12  1  0  0  0  0
 14 17  2  0  0  0  0
 15 14  1  0  0  0  0
 16 14  2  0  0  0  0
 19 18  1  1  0  0  0
 19 30  1  0  0  0  0
 20 25  1  0  0  0  0
 21 24  2  0  0  0  0
 22 19  1  0  0  0  0
 23 21  1  0  0  0  0
 23 20  2  0  0  0  0
 24 22  1  0  0  0  0
 25 22  2  0  0  0  0
 25 26  1  0  0  0  0
 27 29  1  0  0  0  0
 27 28  1  0  0  0  0
 27 23  1  0  0  0  0
 29 28  1  0  0  0  0
 30 31  1  0  0  0  0
 31 32  1  0  0  0  0
M  END
>  <MODEL>
8

>  <REMARK>
 VINA RESULT:      -4.0      2.312      5.987
  Name = 
  8 active torsions:
  status: ('A' for Active; 'I' for Inactive)
    1  A    between atoms: N_1  and  C_4
    2  A    between atoms: N_1  and  C_27
    3  A    between atoms: S_2  and  C_5
    4  A    between atoms: C_5  and  C_10
    5  A    between atoms: C_5  and  C_27
    6  A    between atoms: C_6  and  C_25
    7  A    between atoms: C_7  and  C_19
    8  A    between atoms: C_16  and  C_27
                            x       y       z     vdW  Elec       q    Type
                         _______ _______ _______ _____ _____    ______ ____

>  <TORSDO>
F 8

$$$$
=
 OpenBabel11052414303D

 32 35  0  0  1  0  0  0  0  0999 V2000
  181.3180  177.4150  138.9630 C   0  0  1  0  0  3  0  0  0  0  0  0
  183.6160  179.3790  140.1650 C   0  0  0  0  0  3  0  0  0  0  0  0
  179.1550  181.2980  137.6750 C   0  0  0  0  0  2  0  0  0  0  0  0
  181.2540  178.8630  139.4970 C   0  0  1  0  0  3  0  0  0  0  0  0
  181.2010  182.4660  137.5290 O   0  0  0  0  0  0  0  0  0  0  0  0
  181.4390  181.2300  138.0770 C   0  0  0  0  0  0  0  0  0  0  0  0
  182.5420  179.6720  139.4280 C   0  0  0  0  0  0  0  0  0  0  0  0
  182.5170  180.9130  138.7160 N   0  0  0  0  0  0  0  0  0  0  0  0
  180.2840  180.3180  137.9660 C   0  0  1  0  0  3  0  0  0  0  0  0
  179.8450  182.5590  137.1210 C   0  0  0  0  0  2  0  0  0  0  0  0
  180.0760  179.5920  139.1610 O   0  0  0  0  0  0  0  0  0  0  0  0
  183.7100  178.2000  141.0800 C   0  0  0  0  0  2  0  0  0  0  0  0
  183.5600  178.6040  142.4060 O   0  0  0  0  0  1  0  0  0  0  0  0
  180.1540  176.3520  139.8230 S   0  0  0  0  0  0  0  0  0  0  0  0
  179.6700  177.1240  141.3500 C   0  0  0  0  0  1  0  0  0  0  0  0
  180.7810  175.0240  140.1350 O   0  0  0  0  0  0  0  0  0  0  0  0
  178.9310  176.1380  138.9780 O   0  0  0  0  0  0  0  0  0  0  0  0
  182.3260  178.1080  136.8440 O   0  0  0  0  0  1  0  0  0  0  0  0
  181.5070  177.1390  137.4370 C   0  0  1  0  0  0  0  0  0  0  0  0
  184.1780  174.3710  137.4750 C   0  0  0  0  0  3  0  0  0  0  0  0
  182.0740  173.4060  136.7850 C   0  0  0  0  0  3  0  0  0  0  0  0
  182.2020  175.7910  137.2900 C   0  0  0  0  0  0  0  0  0  0  0  0
  183.4380  173.2600  137.0560 C   0  0  0  0  0  0  0  0  0  0  0  0
  181.4670  174.6580  136.8980 C   0  0  0  0  0  3  0  0  0  0  0  0
  183.5750  175.6280  137.5890 C   0  0  0  0  0  0  0  0  0  0  0  0
  184.3560  176.7020  138.0000 O   0  0  0  0  0  1  0  0  0  0  0  0
  184.0810  171.9070  136.9850 C   0  0  0  0  0  3  0  0  0  0  0  0
  184.3170  171.5060  135.5380 C   0  0  0  0  0  2  0  0  0  0  0  0
  183.1550  170.9140  136.3020 C   0  0  0  0  0  2  0  0  0  0  0  0
  180.2130  177.0940  136.7300 N   0  0  0  0  0  2  0  0  0  0  0  0
  180.2970  177.6810  135.4000 C   0  0  0  0  0  2  0  0  0  0  0  0
  179.0020  178.3970  135.0810 C   0  0  0  0  0  1  0  0  0  0  0  0
  1 14  1  6  0  0  0
  2 12  1  0  0  0  0
  4  1  1  6  0  0  0
  5  6  1  0  0  0  0
  6  8  2  0  0  0  0
  7  4  1  0  0  0  0
  7  2  2  0  0  0  0
  8  7  1  0  0  0  0
  9  3  1  1  0  0  0
  9  6  1  0  0  0  0
  9 11  1  0  0  0  0
 10  5  1  0  0  0  0
 10  3  1  0  0  0  0
 11  4  1  0  0  0  0
 12 13  1  0  0  0  0
 14 16  2  0  0  0  0
 14 15  1  0  0  0  0
 17 14  2  0  0  0  0
 19 18  1  6  0  0  0
 19  1  1  0  0  0  0
 20 25  1  0  0  0  0
 21 24  2  0  0  0  0
 21 23  1  0  0  0  0
 22 19  1  0  0  0  0
 22 25  2  0  0  0  0
 23 20  2  0  0  0  0
 24 22  1  0  0  0  0
 25 26  1  0  0  0  0
 27 23  1  0  0  0  0
 28 29  1  0  0  0  0
 28 27  1  0  0  0  0
 29 27  1  0  0  0  0
 30 19  1  0  0  0  0
 31 30  1  0  0  0  0
 32 31  1  0  0  0  0
M  END
>  <MODEL>
9

>  <REMARK>
 VINA RESULT:      -4.0      2.810      5.242
  Name = 
  8 active torsions:
  status: ('A' for Active; 'I' for Inactive)
    1  A    between atoms: N_1  and  C_4
    2  A    between atoms: N_1  and  C_27
    3  A    between atoms: S_2  and  C_5
    4  A    between atoms: C_5  and  C_10
    5  A    between atoms: C_5  and  C_27
    6  A    between atoms: C_6  and  C_25
    7  A    between atoms: C_7  and  C_19
    8  A    between atoms: C_16  and  C_27
                            x       y       z     vdW  Elec       q    Type
                         _______ _______ _______ _____ _____    ______ ____

>  <TORSDO>
F 8

$$$$
