=
 OpenBabel11052412453D

 25 29  0  0  1  0  0  0  0  0999 V2000
  187.0360  177.9910  145.8510 C   0  0  0  0  0  0  0  0  0  0  0  0
  188.3170  177.5510  145.5140 C   0  0  0  0  0  0  0  0  0  0  0  0
  187.5870  178.0150  148.1950 C   0  0  0  0  0  3  0  0  0  0  0  0
  185.9170  178.2880  145.1040 C   0  0  0  0  0  0  0  0  0  0  0  0
  183.3750  179.0370  144.3010 C   0  0  0  0  0  3  0  0  0  0  0  0
  188.8430  177.5830  147.8740 N   0  0  0  0  0  0  0  0  0  0  0  0
  184.9660  178.6720  146.0250 C   0  0  0  0  0  0  0  0  0  0  0  0
  183.7650  179.0300  145.6910 N   0  0  0  0  0  0  0  0  0  0  0  0
  190.5610  176.8940  146.2780 N   0  0  0  0  0  0  0  0  0  0  0  0
  191.5370  176.6690  147.3310 C   0  0  0  0  0  1  0  0  0  0  0  0
  188.6890  177.3220  144.2480 C   0  0  0  0  0  3  0  0  0  0  0  0
  184.2370  178.6760  143.3310 C   0  0  0  0  0  3  0  0  0  0  0  0
  186.6780  178.2190  147.1620 C   0  0  0  0  0  0  0  0  0  0  0  0
  185.4310  178.6280  147.2570 O   0  0  0  0  0  0  0  0  0  0  0  0
  190.9380  176.6560  144.9140 C   0  0  0  0  0  3  0  0  0  0  0  0
  185.6600  178.2440  143.6290 C   0  0  0  0  0  2  0  0  0  0  0  0
  190.0590  176.8530  143.9260 C   0  0  0  0  0  0  0  0  0  0  0  0
  189.2290  177.3480  146.5780 C   0  0  0  0  0  0  0  0  0  0  0  0
  190.4770  176.6000  142.5420 C   0  0  0  0  0  3  0  0  0  0  0  0
  189.8840  177.1810  141.5040 C   0  0  0  0  0  3  0  0  0  0  0  0
  190.3320  176.8980  140.1090 C   0  0  2  0  0  3  0  0  0  0  0  0
  191.6830  177.2220  139.9910 O   0  0  0  0  0  1  0  0  0  0  0  0
  189.5260  177.7190  139.1130 C   0  0  0  0  0  3  0  0  0  0  0  0
  188.7050  176.7910  138.2390 C   0  0  0  0  0  2  0  0  0  0  0  0
  189.9830  177.3980  137.7040 C   0  0  0  0  0  2  0  0  0  0  0  0
  1 13  1  0  0  0  0
  2  1  1  0  0  0  0
  2 18  1  0  0  0  0
  4  1  2  0  0  0  0
  4  7  1  0  0  0  0
  5  8  1  0  0  0  0
  6  3  1  0  0  0  0
  7 14  1  0  0  0  0
  8  7  2  0  0  0  0
  9 18  1  0  0  0  0
  9 10  1  0  0  0  0
 11  2  2  0  0  0  0
 12 16  1  0  0  0  0
 12  5  2  0  0  0  0
 13 14  1  0  0  0  0
 13  3  2  0  0  0  0
 15  9  1  0  0  0  0
 16  4  1  0  0  0  0
 17 11  1  0  0  0  0
 17 15  2  0  0  0  0
 18  6  2  0  0  0  0
 19 17  1  0  0  0  0
 20 19  2  0  0  0  0
 21 22  1  1  0  0  0
 21 20  1  0  0  0  0
 23 21  1  0  0  0  0
 24 23  1  0  0  0  0
 25 24  1  0  0  0  0
 25 23  1  0  0  0  0
M  END
>  <MODEL>
1

>  <REMARK>
 VINA RESULT:     -10.5      0.000      0.000
  Name = 
  3 active torsions:
  status: ('A' for Active; 'I' for Inactive)
    1  A    between atoms: C_2  and  C_21
    2  A    between atoms: C_6  and  C_23
    3  A    between atoms: C_15  and  C_21
                            x       y       z     vdW  Elec       q    Type
                         _______ _______ _______ _____ _____    ______ ____

>  <TORSDO>
F 3

$$$$
=
 OpenBabel11052412453D

 25 29  0  0  1  0  0  0  0  0999 V2000
  187.1090  177.8890  145.5490 C   0  0  0  0  0  0  0  0  0  0  0  0
  188.3260  177.4750  145.0060 C   0  0  0  0  0  0  0  0  0  0  0  0
  187.9910  177.7770  147.7860 C   0  0  0  0  0  3  0  0  0  0  0  0
  185.8950  178.2250  144.9890 C   0  0  0  0  0  0  0  0  0  0  0  0
  183.2670  179.0090  144.6060 C   0  0  0  0  0  3  0  0  0  0  0  0
  189.1860  177.3710  147.2630 N   0  0  0  0  0  0  0  0  0  0  0  0
  185.0880  178.5510  146.0580 C   0  0  0  0  0  0  0  0  0  0  0  0
  183.8530  178.9220  145.9220 N   0  0  0  0  0  0  0  0  0  0  0  0
  190.6530  176.7840  145.3980 N   0  0  0  0  0  0  0  0  0  0  0  0
  191.7700  176.5010  146.2850 C   0  0  0  0  0  1  0  0  0  0  0  0
  188.5110  177.3230  143.6880 C   0  0  0  0  0  3  0  0  0  0  0  0
  183.9790  178.7100  143.5020 C   0  0  0  0  0  3  0  0  0  0  0  0
  186.9440  178.0380  146.9080 C   0  0  0  0  0  0  0  0  0  0  0  0
  185.7250  178.4360  147.2050 O   0  0  0  0  0  0  0  0  0  0  0  0
  190.8290  176.6280  143.9830 C   0  0  0  0  0  3  0  0  0  0  0  0
  185.4280  178.2670  143.5660 C   0  0  0  0  0  2  0  0  0  0  0  0
  189.8180  176.8800  143.1450 C   0  0  0  0  0  0  0  0  0  0  0  0
  189.3810  177.2140  145.9130 C   0  0  0  0  0  0  0  0  0  0  0  0
  190.0310  176.7100  141.7030 C   0  0  0  0  0  3  0  0  0  0  0  0
  189.5100  177.5410  140.8050 C   0  0  0  0  0  3  0  0  0  0  0  0
  189.7430  177.3370  139.3460 C   0  0  2  0  0  3  0  0  0  0  0  0
  188.5400  176.9780  138.7390 O   0  0  0  0  0  1  0  0  0  0  0  0
  190.7720  176.2400  139.1180 C   0  0  0  0  0  3  0  0  0  0  0  0
  191.6240  176.5870  137.9130 C   0  0  0  0  0  2  0  0  0  0  0  0
  190.5120  175.5700  137.7830 C   0  0  0  0  0  2  0  0  0  0  0  0
  1 13  1  0  0  0  0
  2  1  1  0  0  0  0
  2 18  1  0  0  0  0
  4  1  2  0  0  0  0
  4  7  1  0  0  0  0
  5  8  1  0  0  0  0
  6  3  1  0  0  0  0
  7 14  1  0  0  0  0
  8  7  2  0  0  0  0
  9 18  1  0  0  0  0
  9 10  1  0  0  0  0
 11  2  2  0  0  0  0
 12 16  1  0  0  0  0
 12  5  2  0  0  0  0
 13 14  1  0  0  0  0
 13  3  2  0  0  0  0
 15  9  1  0  0  0  0
 16  4  1  0  0  0  0
 17 11  1  0  0  0  0
 17 15  2  0  0  0  0
 18  6  2  0  0  0  0
 19 17  1  0  0  0  0
 20 19  2  0  0  0  0
 21 22  1  6  0  0  0
 21 20  1  0  0  0  0
 23 21  1  0  0  0  0
 24 23  1  0  0  0  0
 25 24  1  0  0  0  0
 25 23  1  0  0  0  0
M  END
>  <MODEL>
2

>  <REMARK>
 VINA RESULT:     -10.2      1.049      1.211
  Name = 
  3 active torsions:
  status: ('A' for Active; 'I' for Inactive)
    1  A    between atoms: C_2  and  C_21
    2  A    between atoms: C_6  and  C_23
    3  A    between atoms: C_15  and  C_21
                            x       y       z     vdW  Elec       q    Type
                         _______ _______ _______ _____ _____    ______ ____

>  <TORSDO>
F 3

$$$$
=
 OpenBabel11052412453D

 25 29  0  0  1  0  0  0  0  0999 V2000
  185.6720  178.2360  144.8500 C   0  0  0  0  0  0  0  0  0  0  0  0
  187.0150  177.8550  144.8710 C   0  0  0  0  0  0  0  0  0  0  0  0
  185.6350  178.4860  147.2440 C   0  0  0  0  0  3  0  0  0  0  0  0
  184.7570  178.3970  143.8330 C   0  0  0  0  0  0  0  0  0  0  0  0
  182.4560  178.9100  142.3800 C   0  0  0  0  0  3  0  0  0  0  0  0
  186.9490  178.1130  147.2750 N   0  0  0  0  0  0  0  0  0  0  0  0
  183.5940  178.7920  144.4600 C   0  0  0  0  0  0  0  0  0  0  0  0
  182.4960  179.0410  143.8170 N   0  0  0  0  0  0  0  0  0  0  0  0
  189.0320  177.4110  146.2060 N   0  0  0  0  0  0  0  0  0  0  0  0
  189.7320  177.3370  147.4780 C   0  0  0  0  0  1  0  0  0  0  0  0
  187.6930  177.5500  143.7570 C   0  0  0  0  0  3  0  0  0  0  0  0
  183.5430  178.5290  141.6820 C   0  0  0  0  0  3  0  0  0  0  0  0
  184.9970  178.5450  146.0100 C   0  0  0  0  0  0  0  0  0  0  0  0
  183.7470  178.8780  145.7660 O   0  0  0  0  0  0  0  0  0  0  0  0
  189.7390  177.0880  145.0000 C   0  0  0  0  0  3  0  0  0  0  0  0
  184.8680  178.2170  142.3500 C   0  0  0  0  0  2  0  0  0  0  0  0
  189.1200  177.1470  143.8170 C   0  0  0  0  0  0  0  0  0  0  0  0
  187.6490  177.7990  146.1350 C   0  0  0  0  0  0  0  0  0  0  0  0
  189.8720  176.8110  142.6030 C   0  0  0  0  0  3  0  0  0  0  0  0
  189.4780  177.1960  141.3930 C   0  0  0  0  0  3  0  0  0  0  0  0
  190.2650  176.8340  140.1790 C   0  0  2  0  0  3  0  0  0  0  0  0
  191.5920  177.2220  140.3640 O   0  0  0  0  0  1  0  0  0  0  0  0
  189.7010  177.5310  138.9500 C   0  0  0  0  0  3  0  0  0  0  0  0
  189.0560  176.5050  138.0380 C   0  0  0  0  0  2  0  0  0  0  0  0
  190.4310  177.0450  137.7130 C   0  0  0  0  0  2  0  0  0  0  0  0
  1  2  1  0  0  0  0
  1 13  1  0  0  0  0
  2 18  1  0  0  0  0
  3  6  1  0  0  0  0
  4  7  1  0  0  0  0
  4  1  2  0  0  0  0
  5  8  1  0  0  0  0
  7 14  1  0  0  0  0
  8  7  2  0  0  0  0
  9 10  1  0  0  0  0
 11 17  1  0  0  0  0
 11  2  2  0  0  0  0
 12 16  1  0  0  0  0
 12  5  2  0  0  0  0
 13  3  2  0  0  0  0
 14 13  1  0  0  0  0
 15  9  1  0  0  0  0
 16  4  1  0  0  0  0
 17 15  2  0  0  0  0
 18  9  1  0  0  0  0
 18  6  2  0  0  0  0
 19 17  1  0  0  0  0
 20 19  2  0  0  0  0
 21 22  1  1  0  0  0
 21 20  1  0  0  0  0
 23 21  1  0  0  0  0
 24 23  1  0  0  0  0
 25 24  1  0  0  0  0
 25 23  1  0  0  0  0
M  END
>  <MODEL>
3

>  <REMARK>
 VINA RESULT:      -9.7      1.183      1.558
  Name = 
  3 active torsions:
  status: ('A' for Active; 'I' for Inactive)
    1  A    between atoms: C_2  and  C_21
    2  A    between atoms: C_6  and  C_23
    3  A    between atoms: C_15  and  C_21
                            x       y       z     vdW  Elec       q    Type
                         _______ _______ _______ _____ _____    ______ ____

>  <TORSDO>
F 3

$$$$
=
 OpenBabel11052412453D

 25 29  0  0  1  0  0  0  0  0999 V2000
  189.8450  177.4670  143.4580 C   0  0  0  0  0  0  0  0  0  0  0  0
  188.7870  177.7900  142.6070 C   0  0  0  0  0  0  0  0  0  0  0  0
  191.3740  177.3060  141.6050 C   0  0  0  0  0  3  0  0  0  0  0  0
  189.9400  177.3120  144.8240 C   0  0  0  0  0  0  0  0  0  0  0  0
  190.8680  176.8490  147.3910 C   0  0  0  0  0  3  0  0  0  0  0  0
  190.3430  177.6210  140.7650 N   0  0  0  0  0  0  0  0  0  0  0  0
  191.2610  176.9910  145.0550 C   0  0  0  0  0  0  0  0  0  0  0  0
  191.7350  176.7670  146.2400 N   0  0  0  0  0  0  0  0  0  0  0  0
  188.0110  178.1910  140.3080 N   0  0  0  0  0  0  0  0  0  0  0  0
  188.2480  178.2780  138.8770 C   0  0  0  0  0  1  0  0  0  0  0  0
  187.5470  178.0250  143.0580 C   0  0  0  0  0  3  0  0  0  0  0  0
  189.5620  177.1560  147.2630 C   0  0  0  0  0  3  0  0  0  0  0  0
  191.1110  177.2300  142.9690 C   0  0  0  0  0  0  0  0  0  0  0  0
  191.9560  176.9450  143.9370 O   0  0  0  0  0  0  0  0  0  0  0  0
  186.6910  178.4390  140.8130 C   0  0  0  0  0  3  0  0  0  0  0  0
  188.9220  177.4330  145.9170 C   0  0  0  0  0  3  0  0  0  0  0  0
  186.4460  178.3640  142.1260 C   0  0  0  0  0  0  0  0  0  0  0  0
  189.0710  177.8620  141.2230 C   0  0  2  0  0  3  0  0  0  0  0  0
  185.0840  178.6230  142.6090 C   0  0  0  0  0  3  0  0  0  0  0  0
  184.8450  179.1950  143.7850 C   0  0  0  0  0  3  0  0  0  0  0  0
  183.4480  179.4400  144.2480 C   0  0  2  0  0  3  0  0  0  0  0  0
  183.3560  179.1230  145.6040 O   0  0  0  0  0  1  0  0  0  0  0  0
  182.4670  178.5840  143.4610 C   0  0  0  0  0  3  0  0  0  0  0  0
  181.3570  179.4600  142.9140 C   0  0  0  0  0  2  0  0  0  0  0  0
  181.1120  178.6110  144.1420 C   0  0  0  0  0  2  0  0  0  0  0  0
  1  4  1  0  0  0  0
  2 11  2  0  0  0  0
  2  1  1  0  0  0  0
  3 13  1  0  0  0  0
  4  7  1  0  0  0  0
  4 16  2  0  0  0  0
  6  3  2  0  0  0  0
  7  8  2  0  0  0  0
  8  5  1  0  0  0  0
  9 15  1  0  0  0  0
  9 18  1  0  0  0  0
 10  9  1  0  0  0  0
 12  5  2  0  0  0  0
 13  1  2  0  0  0  0
 13 14  1  0  0  0  0
 14  7  1  0  0  0  0
 15 17  2  0  0  0  0
 16 12  1  0  0  0  0
 17 19  1  0  0  0  0
 17 11  1  0  0  0  0
 18  6  1  1  0  0  0
 18  2  1  0  0  0  0
 19 20  2  0  0  0  0
 20 21  1  0  0  0  0
 21 22  1  1  0  0  0
 23 25  1  0  0  0  0
 23 21  1  0  0  0  0
 24 23  1  0  0  0  0
 24 25  1  0  0  0  0
M  END
>  <MODEL>
4

>  <REMARK>
 VINA RESULT:      -9.5      2.388      7.002
  Name = 
  3 active torsions:
  status: ('A' for Active; 'I' for Inactive)
    1  A    between atoms: C_2  and  C_21
    2  A    between atoms: C_6  and  C_23
    3  A    between atoms: C_15  and  C_21
                            x       y       z     vdW  Elec       q    Type
                         _______ _______ _______ _____ _____    ______ ____

>  <TORSDO>
F 3

$$$$
=
 OpenBabel11052412453D

 25 29  0  0  1  0  0  0  0  0999 V2000
  187.8920  177.7120  145.6420 C   0  0  0  0  0  0  0  0  0  0  0  0
  186.9990  178.0410  144.6210 C   0  0  0  0  0  0  0  0  0  0  0  0
  186.2420  178.1850  147.3300 C   0  0  0  0  0  3  0  0  0  0  0  0
  189.2010  177.2840  145.6440 C   0  0  0  0  0  0  0  0  0  0  0  0
  191.7220  176.4340  146.4120 C   0  0  0  0  0  3  0  0  0  0  0  0
  185.3610  178.5090  146.3370 N   0  0  0  0  0  0  0  0  0  0  0  0
  189.5230  177.1290  146.9750 C   0  0  0  0  0  0  0  0  0  0  0  0
  190.6910  176.7340  147.3770 N   0  0  0  0  0  0  0  0  0  0  0  0
  184.7460  178.7990  143.9890 N   0  0  0  0  0  0  0  0  0  0  0  0
  183.3990  179.2260  144.3300 C   0  0  0  0  0  1  0  0  0  0  0  0
  187.3340  177.9810  143.3250 C   0  0  0  0  0  3  0  0  0  0  0  0
  191.5000  176.5580  145.0890 C   0  0  0  0  0  3  0  0  0  0  0  0
  187.5220  177.7820  146.9670 C   0  0  0  0  0  0  0  0  0  0  0  0
  188.5100  177.4290  147.7620 O   0  0  0  0  0  0  0  0  0  0  0  0
  185.1270  178.7280  142.6080 C   0  0  0  0  0  3  0  0  0  0  0  0
  190.1660  177.0130  144.5300 C   0  0  0  0  0  3  0  0  0  0  0  0
  186.3600  178.3390  142.2660 C   0  0  0  0  0  0  0  0  0  0  0  0
  185.7000  178.4500  145.0070 C   0  0  2  0  0  3  0  0  0  0  0  0
  186.7170  178.2780  140.8440 C   0  0  0  0  0  3  0  0  0  0  0  0
  187.9780  178.1930  140.4310 C   0  0  0  0  0  3  0  0  0  0  0  0
  188.3060  178.1360  138.9770 C   0  0  2  0  0  3  0  0  0  0  0  0
  189.0370  179.2720  138.6310 O   0  0  0  0  0  1  0  0  0  0  0  0
  187.0340  178.0800  138.1440 C   0  0  0  0  0  3  0  0  0  0  0  0
  187.1470  176.9670  137.1210 C   0  0  0  0  0  2  0  0  0  0  0  0
  187.3590  178.4040  136.6990 C   0  0  0  0  0  2  0  0  0  0  0  0
  1  4  1  0  0  0  0
  1 13  2  0  0  0  0
  2  1  1  0  0  0  0
  4  7  1  0  0  0  0
  5  8  1  0  0  0  0
  6  3  2  0  0  0  0
  7  8  2  0  0  0  0
  7 14  1  0  0  0  0
  9 10  1  0  0  0  0
  9 18  1  0  0  0  0
 11  2  2  0  0  0  0
 12  5  2  0  0  0  0
 13  3  1  0  0  0  0
 13 14  1  0  0  0  0
 15  9  1  0  0  0  0
 16 12  1  0  0  0  0
 16  4  2  0  0  0  0
 17 15  2  0  0  0  0
 17 11  1  0  0  0  0
 18  2  1  6  0  0  0
 18  6  1  0  0  0  0
 19 17  1  0  0  0  0
 20 19  2  0  0  0  0
 21 22  1  6  0  0  0
 21 20  1  0  0  0  0
 23 21  1  0  0  0  0
 24 23  1  0  0  0  0
 25 24  1  0  0  0  0
 25 23  1  0  0  0  0
M  END
>  <MODEL>
5

>  <REMARK>
 VINA RESULT:      -9.5      1.731      4.737
  Name = 
  3 active torsions:
  status: ('A' for Active; 'I' for Inactive)
    1  A    between atoms: C_2  and  C_21
    2  A    between atoms: C_6  and  C_23
    3  A    between atoms: C_15  and  C_21
                            x       y       z     vdW  Elec       q    Type
                         _______ _______ _______ _____ _____    ______ ____

>  <TORSDO>
F 3

$$$$
=
 OpenBabel11052412453D

 25 29  0  0  1  0  0  0  0  0999 V2000
  187.0350  178.2360  141.5120 C   0  0  0  0  0  0  0  0  0  0  0  0
  186.6480  178.2100  142.8520 C   0  0  0  0  0  0  0  0  0  0  0  0
  184.8660  179.0290  140.8300 C   0  0  0  0  0  3  0  0  0  0  0  0
  188.2120  177.9240  140.8670 C   0  0  0  0  0  0  0  0  0  0  0  0
  190.1650  177.5010  138.9500 C   0  0  0  0  0  3  0  0  0  0  0  0
  184.4790  179.0060  142.1400 N   0  0  0  0  0  0  0  0  0  0  0  0
  187.9600  178.1590  139.5320 C   0  0  0  0  0  0  0  0  0  0  0  0
  188.8460  177.9740  138.6040 N   0  0  0  0  0  0  0  0  0  0  0  0
  184.8800  178.6010  144.5170 N   0  0  0  0  0  0  0  0  0  0  0  0
  183.5300  179.0030  144.8770 C   0  0  0  0  0  1  0  0  0  0  0  0
  187.4760  177.8250  143.8330 C   0  0  0  0  0  3  0  0  0  0  0  0
  190.5020  177.2430  140.2280 C   0  0  0  0  0  3  0  0  0  0  0  0
  186.1650  178.6370  140.5220 C   0  0  0  0  0  0  0  0  0  0  0  0
  186.7300  178.5870  139.3340 O   0  0  0  0  0  0  0  0  0  0  0  0
  185.7830  178.1850  145.5510 C   0  0  0  0  0  3  0  0  0  0  0  0
  189.5310  177.4300  141.3770 C   0  0  0  0  0  2  0  0  0  0  0  0
  187.0300  177.8090  145.2470 C   0  0  0  0  0  0  0  0  0  0  0  0
  185.3230  178.6120  143.1480 C   0  0  0  0  0  0  0  0  0  0  0  0
  187.9290  177.3880  146.3290 C   0  0  0  0  0  3  0  0  0  0  0  0
  189.2270  177.1780  146.1330 C   0  0  0  0  0  3  0  0  0  0  0  0
  190.1120  176.7480  147.2540 C   0  0  2  0  0  3  0  0  0  0  0  0
  189.9650  177.6390  148.3160 O   0  0  0  0  0  1  0  0  0  0  0  0
  191.5660  176.7270  146.8080 C   0  0  0  0  0  3  0  0  0  0  0  0
  192.0150  175.2920  146.6110 C   0  0  0  0  0  2  0  0  0  0  0  0
  192.4100  176.0410  147.8640 C   0  0  0  0  0  2  0  0  0  0  0  0
  1  2  1  0  0  0  0
  2 18  1  0  0  0  0
  2 11  2  0  0  0  0
  3  6  1  0  0  0  0
  4 16  1  0  0  0  0
  4  1  2  0  0  0  0
  5 12  2  0  0  0  0
  6 18  2  0  0  0  0
  7  4  1  0  0  0  0
  8  5  1  0  0  0  0
  8  7  2  0  0  0  0
  9 10  1  0  0  0  0
  9 15  1  0  0  0  0
 11 17  1  0  0  0  0
 12 16  1  0  0  0  0
 13  3  2  0  0  0  0
 13  1  1  0  0  0  0
 14  7  1  0  0  0  0
 14 13  1  0  0  0  0
 17 15  2  0  0  0  0
 17 19  1  0  0  0  0
 18  9  1  0  0  0  0
 20 19  2  0  0  0  0
 20 21  1  0  0  0  0
 21 22  1  1  0  0  0
 23 21  1  0  0  0  0
 23 25  1  0  0  0  0
 24 23  1  0  0  0  0
 24 25  1  0  0  0  0
M  END
>  <MODEL>
6

>  <REMARK>
 VINA RESULT:      -9.4      2.615      6.831
  Name = 
  3 active torsions:
  status: ('A' for Active; 'I' for Inactive)
    1  A    between atoms: C_2  and  C_21
    2  A    between atoms: C_6  and  C_23
    3  A    between atoms: C_15  and  C_21
                            x       y       z     vdW  Elec       q    Type
                         _______ _______ _______ _____ _____    ______ ____

>  <TORSDO>
F 3

$$$$
=
 OpenBabel11052412453D

 25 29  0  0  1  0  0  0  0  0999 V2000
  187.9550  177.6220  145.4860 C   0  0  0  0  0  0  0  0  0  0  0  0
  187.2160  177.9580  144.3500 C   0  0  0  0  0  0  0  0  0  0  0  0
  186.0600  178.0160  146.9180 C   0  0  0  0  0  3  0  0  0  0  0  0
  189.2600  177.2230  145.6740 C   0  0  0  0  0  0  0  0  0  0  0  0
  191.6580  176.4070  146.7930 C   0  0  0  0  0  3  0  0  0  0  0  0
  185.3290  178.3470  145.8110 N   0  0  0  0  0  0  0  0  0  0  0  0
  189.3830  177.0410  147.0350 C   0  0  0  0  0  0  0  0  0  0  0  0
  190.4870  176.6600  147.5980 N   0  0  0  0  0  0  0  0  0  0  0  0
  185.0650  178.6840  143.4050 N   0  0  0  0  0  0  0  0  0  0  0  0
  183.6720  179.0730  143.5500 C   0  0  0  0  0  1  0  0  0  0  0  0
  187.7420  177.9390  143.1180 C   0  0  0  0  0  3  0  0  0  0  0  0
  191.6320  176.5590  145.4550 C   0  0  0  0  0  3  0  0  0  0  0  0
  187.3900  177.6500  146.7420 C   0  0  0  0  0  0  0  0  0  0  0  0
  188.2570  177.2990  147.6680 O   0  0  0  0  0  0  0  0  0  0  0  0
  185.6490  178.6560  142.0950 C   0  0  0  0  0  3  0  0  0  0  0  0
  190.3860  177.0000  144.7120 C   0  0  0  0  0  3  0  0  0  0  0  0
  186.9280  178.3030  141.9330 C   0  0  0  0  0  0  0  0  0  0  0  0
  185.8640  178.3290  144.5470 C   0  0  2  0  0  3  0  0  0  0  0  0
  187.4950  178.2850  140.5800 C   0  0  0  0  0  3  0  0  0  0  0  0
  188.8010  178.1730  140.3570 C   0  0  0  0  0  3  0  0  0  0  0  0
  189.3440  178.1620  138.9680 C   0  0  2  0  0  3  0  0  0  0  0  0
  188.9410  179.3250  138.3130 O   0  0  0  0  0  1  0  0  0  0  0  0
  188.8330  176.9490  138.2050 C   0  0  0  0  0  3  0  0  0  0  0  0
  190.0080  176.0970  137.7630 C   0  0  0  0  0  2  0  0  0  0  0  0
  189.3210  177.0100  136.7710 C   0  0  0  0  0  2  0  0  0  0  0  0
  1  4  1  0  0  0  0
  1 13  2  0  0  0  0
  2  1  1  0  0  0  0
  4  7  1  0  0  0  0
  5  8  1  0  0  0  0
  6  3  2  0  0  0  0
  7  8  2  0  0  0  0
  7 14  1  0  0  0  0
  9 10  1  0  0  0  0
  9 18  1  0  0  0  0
 11  2  2  0  0  0  0
 12  5  2  0  0  0  0
 13  3  1  0  0  0  0
 13 14  1  0  0  0  0
 15  9  1  0  0  0  0
 16 12  1  0  0  0  0
 16  4  2  0  0  0  0
 17 15  2  0  0  0  0
 17 11  1  0  0  0  0
 18  2  1  6  0  0  0
 18  6  1  0  0  0  0
 19 17  1  0  0  0  0
 20 19  2  0  0  0  0
 21 22  1  6  0  0  0
 21 20  1  0  0  0  0
 23 21  1  0  0  0  0
 24 23  1  0  0  0  0
 25 24  1  0  0  0  0
 25 23  1  0  0  0  0
M  END
>  <MODEL>
7

>  <REMARK>
 VINA RESULT:      -9.4      1.623      4.641
  Name = 
  3 active torsions:
  status: ('A' for Active; 'I' for Inactive)
    1  A    between atoms: C_2  and  C_21
    2  A    between atoms: C_6  and  C_23
    3  A    between atoms: C_15  and  C_21
                            x       y       z     vdW  Elec       q    Type
                         _______ _______ _______ _____ _____    ______ ____

>  <TORSDO>
F 3

$$$$
=
 OpenBabel11052412453D

 25 29  0  0  1  0  0  0  0  0999 V2000
  189.5920  177.4140  143.7930 C   0  0  0  0  0  0  0  0  0  0  0  0
  188.5510  177.6170  144.7000 C   0  0  0  0  0  0  0  0  0  0  0  0
  191.1390  176.9300  145.5730 C   0  0  0  0  0  3  0  0  0  0  0  0
  189.6660  177.4740  142.4180 C   0  0  0  0  0  0  0  0  0  0  0  0
  190.5530  177.4070  139.7960 C   0  0  0  0  0  3  0  0  0  0  0  0
  190.1260  177.1280  146.4680 N   0  0  0  0  0  0  0  0  0  0  0  0
  190.9770  177.1690  142.1190 C   0  0  0  0  0  0  0  0  0  0  0  0
  191.4320  177.1280  140.9060 N   0  0  0  0  0  0  0  0  0  0  0  0
  187.8120  177.6640  147.0450 N   0  0  0  0  0  0  0  0  0  0  0  0
  188.0680  177.5190  148.4680 C   0  0  0  0  0  1  0  0  0  0  0  0
  187.3110  177.9450  144.3110 C   0  0  0  0  0  3  0  0  0  0  0  0
  189.2560  177.7160  139.9910 C   0  0  0  0  0  3  0  0  0  0  0  0
  190.8580  177.0780  144.2180 C   0  0  0  0  0  0  0  0  0  0  0  0
  191.6840  176.9330  143.2050 O   0  0  0  0  0  0  0  0  0  0  0  0
  186.4920  178.0140  146.6060 C   0  0  0  0  0  3  0  0  0  0  0  0
  188.6380  177.7880  141.3740 C   0  0  0  0  0  2  0  0  0  0  0  0
  186.2290  178.1540  145.3020 C   0  0  0  0  0  0  0  0  0  0  0  0
  188.8540  177.4640  146.0740 C   0  0  0  0  0  0  0  0  0  0  0  0
  184.8680  178.5130  144.8870 C   0  0  0  0  0  3  0  0  0  0  0  0
  184.5230  178.6330  143.6080 C   0  0  0  0  0  3  0  0  0  0  0  0
  183.1310  179.0030  143.2200 C   0  0  2  0  0  3  0  0  0  0  0  0
  182.2850  178.7910  144.3090 O   0  0  0  0  0  1  0  0  0  0  0  0
  182.6630  178.1590  142.0440 C   0  0  0  0  0  3  0  0  0  0  0  0
  182.5380  179.0340  140.8120 C   0  0  0  0  0  2  0  0  0  0  0  0
  181.3000  178.6400  141.5870 C   0  0  0  0  0  2  0  0  0  0  0  0
  1 13  1  0  0  0  0
  1  2  1  0  0  0  0
  2 18  1  0  0  0  0
  3  6  1  0  0  0  0
  4  1  2  0  0  0  0
  5 12  2  0  0  0  0
  5  8  1  0  0  0  0
  7  4  1  0  0  0  0
  7 14  1  0  0  0  0
  8  7  2  0  0  0  0
  9 10  1  0  0  0  0
 11  2  2  0  0  0  0
 11 17  1  0  0  0  0
 12 16  1  0  0  0  0
 13  3  2  0  0  0  0
 14 13  1  0  0  0  0
 15  9  1  0  0  0  0
 16  4  1  0  0  0  0
 17 15  2  0  0  0  0
 18  6  2  0  0  0  0
 18  9  1  0  0  0  0
 19 17  1  0  0  0  0
 20 19  2  0  0  0  0
 21 20  1  0  0  0  0
 21 22  1  1  0  0  0
 23 21  1  0  0  0  0
 24 25  1  0  0  0  0
 24 23  1  0  0  0  0
 25 23  1  0  0  0  0
M  END
>  <MODEL>
8

>  <REMARK>
 VINA RESULT:      -9.1      1.995      6.086
  Name = 
  3 active torsions:
  status: ('A' for Active; 'I' for Inactive)
    1  A    between atoms: C_2  and  C_21
    2  A    between atoms: C_6  and  C_23
    3  A    between atoms: C_15  and  C_21
                            x       y       z     vdW  Elec       q    Type
                         _______ _______ _______ _____ _____    ______ ____

>  <TORSDO>
F 3

$$$$
=
 OpenBabel11052412453D

 25 29  0  0  1  0  0  0  0  0999 V2000
  189.3910  177.5180  144.3010 C   0  0  0  0  0  0  0  0  0  0  0  0
  188.9890  177.7120  142.9790 C   0  0  0  0  0  0  0  0  0  0  0  0
  191.6070  176.8840  143.6060 C   0  0  0  0  0  3  0  0  0  0  0  0
  188.7430  177.6510  145.5100 C   0  0  0  0  0  0  0  0  0  0  0  0
  188.1300  177.6910  148.2100 C   0  0  0  0  0  3  0  0  0  0  0  0
  191.2220  177.0700  142.3080 N   0  0  0  0  0  0  0  0  0  0  0  0
  189.6860  177.3130  146.4580 C   0  0  0  0  0  0  0  0  0  0  0  0
  189.4390  177.3190  147.7310 N   0  0  0  0  0  0  0  0  0  0  0  0
  189.5830  177.6600  140.5920 N   0  0  0  0  0  0  0  0  0  0  0  0
  190.5330  177.4280  139.5180 C   0  0  0  0  0  1  0  0  0  0  0  0
  187.7500  178.1050  142.6540 C   0  0  0  0  0  3  0  0  0  0  0  0
  187.1450  178.0360  147.3570 C   0  0  0  0  0  3  0  0  0  0  0  0
  190.6710  177.1130  144.6090 C   0  0  0  0  0  0  0  0  0  0  0  0
  190.8390  176.9930  145.9080 O   0  0  0  0  0  0  0  0  0  0  0  0
  188.2510  178.0820  140.2680 C   0  0  0  0  0  3  0  0  0  0  0  0
  187.3430  178.0570  145.8540 C   0  0  0  0  0  3  0  0  0  0  0  0
  187.3570  178.3010  141.2380 C   0  0  0  0  0  0  0  0  0  0  0  0
  189.9530  177.4730  141.9700 C   0  0  2  0  0  3  0  0  0  0  0  0
  186.0020  178.7310  140.8710 C   0  0  0  0  0  3  0  0  0  0  0  0
  185.5400  178.6400  139.6280 C   0  0  0  0  0  3  0  0  0  0  0  0
  184.1590  179.0900  139.2890 C   0  0  2  0  0  3  0  0  0  0  0  0
  184.1660  180.4720  139.0960 O   0  0  0  0  0  1  0  0  0  0  0  0
  183.1930  178.7410  140.4110 C   0  0  0  0  0  3  0  0  0  0  0  0
  182.1630  177.7510  139.9030 C   0  0  0  0  0  2  0  0  0  0  0  0
  181.7990  179.2120  140.0450 C   0  0  0  0  0  2  0  0  0  0  0  0
  1 13  2  0  0  0  0
  1  4  1  0  0  0  0
  2  1  1  0  0  0  0
  3 13  1  0  0  0  0
  4 16  2  0  0  0  0
  4  7  1  0  0  0  0
  6  3  2  0  0  0  0
  7  8  2  0  0  0  0
  8  5  1  0  0  0  0
  9 18  1  0  0  0  0
 10  9  1  0  0  0  0
 11  2  2  0  0  0  0
 12  5  2  0  0  0  0
 13 14  1  0  0  0  0
 14  7  1  0  0  0  0
 15  9  1  0  0  0  0
 15 17  2  0  0  0  0
 16 12  1  0  0  0  0
 17 11  1  0  0  0  0
 18  6  1  1  0  0  0
 18  2  1  0  0  0  0
 19 17  1  0  0  0  0
 20 19  2  0  0  0  0
 21 22  1  1  0  0  0
 21 20  1  0  0  0  0
 21 23  1  0  0  0  0
 24 25  1  0  0  0  0
 24 23  1  0  0  0  0
 25 23  1  0  0  0  0
M  END
>  <MODEL>
9

>  <REMARK>
 VINA RESULT:      -9.0      3.210      5.624
  Name = 
  3 active torsions:
  status: ('A' for Active; 'I' for Inactive)
    1  A    between atoms: C_2  and  C_21
    2  A    between atoms: C_6  and  C_23
    3  A    between atoms: C_15  and  C_21
                            x       y       z     vdW  Elec       q    Type
                         _______ _______ _______ _____ _____    ______ ____

>  <TORSDO>
F 3

$$$$
