=
 OpenBabel11052413443D

 27 31  0  0  1  0  0  0  0  0999 V2000
  187.7440  178.9620  142.0210 C   0  0  0  0  0  2  0  0  0  0  0  0
  189.2920  177.8620  140.6730 C   0  0  2  0  0  3  0  0  0  0  0  0
  187.1880  178.1170  139.3090 N   0  0  0  0  0  2  0  0  0  0  0  0
  190.6370  175.9270  136.6600 C   0  0  0  0  0  3  0  0  0  0  0  0
  189.8980  177.1080  134.6800 C   0  0  0  0  0  1  0  0  0  0  0  0
  189.9620  176.6260  140.2600 N   0  0  0  0  0  2  0  0  0  0  0  0
  189.2510  177.8510  136.9310 C   0  0  0  0  0  0  0  0  0  0  0  0
  183.8130  177.7470  140.2640 C   0  0  0  0  0  3  0  0  0  0  0  0
  188.5820  178.7980  136.4350 O   0  0  0  0  0  0  0  0  0  0  0  0
  183.4670  177.9140  141.5380 C   0  0  0  0  0  3  0  0  0  0  0  0
  189.3120  177.6810  138.3150 C   0  0  0  0  0  0  0  0  0  0  0  0
  188.3720  177.6570  141.8060 N   0  0  1  0  0  0  0  0  0  0  0  0
  189.9270  176.9680  136.1280 N   0  0  0  0  0  0  0  0  0  0  0  0
  190.0170  176.6440  138.8510 C   0  0  0  0  0  0  0  0  0  0  0  0
  186.3660  178.9650  141.4490 C   0  0  0  0  0  0  0  0  0  0  0  0
  188.6130  178.4390  139.3880 C   0  0  2  0  0  3  0  0  0  0  0  0
  184.7710  178.6590  139.5720 C   0  0  0  0  0  2  0  0  0  0  0  0
  190.6990  175.7350  138.0490 C   0  0  0  0  0  3  0  0  0  0  0  0
  184.0430  178.9370  142.4290 C   0  0  0  0  0  3  0  0  0  0  0  0
  185.3000  179.3980  142.3800 C   0  0  0  0  0  3  0  0  0  0  0  0
  186.1390  178.5880  140.1710 C   0  0  0  0  0  0  0  0  0  0  0  0
  190.4040  176.9390  145.4850 C   0  0  0  0  0  2  0  0  0  0  0  0
  189.1430  177.3110  143.0200 C   0  0  0  0  0  3  0  0  0  0  0  0
  188.2090  177.1250  144.2350 C   0  0  0  0  0  2  0  0  0  0  0  0
  188.9130  177.2440  145.5940 C   0  0  0  0  0  2  0  0  0  0  0  0
  191.0970  177.9150  144.5250 C   0  0  0  0  0  2  0  0  0  0  0  0
  190.1940  178.3790  143.3750 C   0  0  0  0  0  2  0  0  0  0  0  0
  2  6  1  6  0  0  0
  2 12  1  0  0  0  0
  3 16  1  0  0  0  0
  3 21  1  0  0  0  0
  4 18  2  0  0  0  0
  5 13  1  0  0  0  0
  7 11  1  0  0  0  0
  8 10  2  0  0  0  0
  9  7  2  0  0  0  0
 10 19  1  0  0  0  0
 11 14  2  0  0  0  0
 12  1  1  0  0  0  0
 12 23  1  1  0  0  0
 13  4  1  0  0  0  0
 13  7  1  0  0  0  0
 14  6  1  0  0  0  0
 15  1  1  0  0  0  0
 15 20  1  0  0  0  0
 16 11  1  6  0  0  0
 16  2  1  0  0  0  0
 17 21  1  0  0  0  0
 17  8  1  0  0  0  0
 18 14  1  0  0  0  0
 20 19  2  0  0  0  0
 21 15  2  0  0  0  0
 22 25  1  0  0  0  0
 23 27  1  0  0  0  0
 23 24  1  0  0  0  0
 24 25  1  0  0  0  0
 26 22  1  0  0  0  0
 27 26  1  0  0  0  0
M  END
>  <MODEL>
1

>  <REMARK>
 VINA RESULT:      -8.6      0.000      0.000
  Name = 
  1 active torsions:
  status: ('A' for Active; 'I' for Inactive)
    1  A    between atoms: C_9  and  N_15
                            x       y       z     vdW  Elec       q    Type
                         _______ _______ _______ _____ _____    ______ ____

>  <TORSDO>
F 1

$$$$
=
 OpenBabel11052413443D

 27 31  0  0  1  0  0  0  0  0999 V2000
  186.3310  177.1670  145.1790 C   0  0  0  0  0  2  0  0  0  0  0  0
  186.8440  177.6360  142.9560 C   0  0  2  0  0  3  0  0  0  0  0  0
  189.0350  177.2680  144.1480 N   0  0  0  0  0  2  0  0  0  0  0  0
  189.8350  178.1660  139.4290 C   0  0  0  0  0  3  0  0  0  0  0  0
  191.6570  176.5710  139.4110 C   0  0  0  0  0  1  0  0  0  0  0  0
  187.0620  178.6100  141.8820 N   0  0  0  0  0  2  0  0  0  0  0  0
  189.9850  176.5860  141.2130 C   0  0  0  0  0  0  0  0  0  0  0  0
  190.0700  178.3100  147.3530 C   0  0  0  0  0  3  0  0  0  0  0  0
  190.5760  175.6280  141.7810 O   0  0  0  0  0  0  0  0  0  0  0  0
  189.1590  178.5580  148.2920 C   0  0  0  0  0  3  0  0  0  0  0  0
  188.8310  177.1340  141.7750 C   0  0  0  0  0  0  0  0  0  0  0  0
  186.4180  178.2680  144.2170 N   0  0  1  0  0  0  0  0  0  0  0  0
  190.4610  177.1130  140.0390 N   0  0  0  0  0  0  0  0  0  0  0  0
  188.2040  178.1850  141.1720 C   0  0  0  0  0  0  0  0  0  0  0  0
  187.5270  177.1730  146.0700 C   0  0  0  0  0  0  0  0  0  0  0  0
  188.1650  176.8060  143.0640 C   0  0  2  0  0  3  0  0  0  0  0  0
  189.9800  177.1280  146.4470 C   0  0  0  0  0  2  0  0  0  0  0  0
  188.6800  178.7360  139.9870 C   0  0  0  0  0  3  0  0  0  0  0  0
  187.9310  177.7670  148.4860 C   0  0  0  0  0  3  0  0  0  0  0  0
  187.2310  177.1590  147.5200 C   0  0  0  0  0  3  0  0  0  0  0  0
  188.7800  177.1950  145.5600 C   0  0  0  0  0  0  0  0  0  0  0  0
  182.3840  179.6020  143.8700 C   0  0  0  0  0  2  0  0  0  0  0  0
  185.0670  178.8480  144.0560 C   0  0  0  0  0  3  0  0  0  0  0  0
  184.2150  178.6280  145.3240 C   0  0  0  0  0  2  0  0  0  0  0  0
  182.7010  178.7480  145.0930 C   0  0  0  0  0  2  0  0  0  0  0  0
  182.9920  178.9930  142.6000 C   0  0  0  0  0  2  0  0  0  0  0  0
  184.3110  178.2520  142.8530 C   0  0  0  0  0  2  0  0  0  0  0  0
  1 15  1  0  0  0  0
  2  6  1  6  0  0  0
  2 16  1  0  0  0  0
  2 12  1  0  0  0  0
  3 21  1  0  0  0  0
  4 18  2  0  0  0  0
  4 13  1  0  0  0  0
  5 13  1  0  0  0  0
  7 11  1  0  0  0  0
  7  9  2  0  0  0  0
  8 10  2  0  0  0  0
 10 19  1  0  0  0  0
 12 23  1  6  0  0  0
 12  1  1  0  0  0  0
 13  7  1  0  0  0  0
 14 11  2  0  0  0  0
 14  6  1  0  0  0  0
 15 20  1  0  0  0  0
 16 11  1  6  0  0  0
 16  3  1  0  0  0  0
 17  8  1  0  0  0  0
 18 14  1  0  0  0  0
 20 19  2  0  0  0  0
 21 15  2  0  0  0  0
 21 17  1  0  0  0  0
 22 25  1  0  0  0  0
 23 24  1  0  0  0  0
 25 24  1  0  0  0  0
 26 27  1  0  0  0  0
 26 22  1  0  0  0  0
 27 23  1  0  0  0  0
M  END
>  <MODEL>
2

>  <REMARK>
 VINA RESULT:      -8.0      2.495      5.807
  Name = 
  1 active torsions:
  status: ('A' for Active; 'I' for Inactive)
    1  A    between atoms: C_9  and  N_15
                            x       y       z     vdW  Elec       q    Type
                         _______ _______ _______ _____ _____    ______ ____

>  <TORSDO>
F 1

$$$$
=
 OpenBabel11052413443D

 27 31  0  0  1  0  0  0  0  0999 V2000
  187.4870  176.9370  143.5930 C   0  0  0  0  0  2  0  0  0  0  0  0
  187.4270  177.5670  141.3520 C   0  0  2  0  0  3  0  0  0  0  0  0
  189.8400  177.1050  141.9150 N   0  0  0  0  0  2  0  0  0  0  0  0
  189.4300  178.3470  137.2240 C   0  0  0  0  0  3  0  0  0  0  0  0
  191.1530  176.7530  136.6280 C   0  0  0  0  0  1  0  0  0  0  0  0
  187.3850  178.6170  140.3300 N   0  0  0  0  0  2  0  0  0  0  0  0
  189.9960  176.6400  138.7940 C   0  0  0  0  0  0  0  0  0  0  0  0
  191.6810  177.9050  144.8140 C   0  0  0  0  0  3  0  0  0  0  0  0
  190.6910  175.6400  139.1230 O   0  0  0  0  0  0  0  0  0  0  0  0
  191.0450  178.0850  145.9700 C   0  0  0  0  0  3  0  0  0  0  0  0
  189.0350  177.1480  139.6700 C   0  0  0  0  0  0  0  0  0  0  0  0
  187.3500  178.1060  142.7220 N   0  0  1  0  0  0  0  0  0  0  0  0
  190.1690  177.2510  137.5770 N   0  0  0  0  0  0  0  0  0  0  0  0
  188.2980  178.2430  139.3230 C   0  0  0  0  0  0  0  0  0  0  0  0
  188.8710  176.8730  144.1470 C   0  0  0  0  0  0  0  0  0  0  0  0
  188.7130  176.7280  141.0600 C   0  0  2  0  0  3  0  0  0  0  0  0
  191.3370  176.7930  143.8800 C   0  0  0  0  0  2  0  0  0  0  0  0
  188.4690  178.8780  138.0980 C   0  0  0  0  0  3  0  0  0  0  0  0
  189.8900  177.2860  146.4150 C   0  0  0  0  0  3  0  0  0  0  0  0
  188.9530  176.7530  145.6200 C   0  0  0  0  0  3  0  0  0  0  0  0
  189.9520  176.9290  143.3360 C   0  0  0  0  0  0  0  0  0  0  0  0
  183.4280  179.5180  143.6150 C   0  0  0  0  0  2  0  0  0  0  0  0
  186.0150  178.6990  142.9530 C   0  0  0  0  0  3  0  0  0  0  0  0
  185.6990  178.7810  144.4610 C   0  0  0  0  0  2  0  0  0  0  0  0
  184.2040  178.9180  144.7840 C   0  0  0  0  0  2  0  0  0  0  0  0
  183.5460  178.6360  142.3650 C   0  0  0  0  0  2  0  0  0  0  0  0
  184.8910  177.9050  142.2620 C   0  0  0  0  0  2  0  0  0  0  0  0
  1 15  1  0  0  0  0
  2  6  1  6  0  0  0
  2 12  1  0  0  0  0
  3 21  1  0  0  0  0
  4 13  1  0  0  0  0
  4 18  2  0  0  0  0
  5 13  1  0  0  0  0
  7  9  2  0  0  0  0
  7 11  1  0  0  0  0
  8 10  2  0  0  0  0
 10 19  1  0  0  0  0
 12 23  1  6  0  0  0
 12  1  1  0  0  0  0
 13  7  1  0  0  0  0
 14 11  2  0  0  0  0
 14  6  1  0  0  0  0
 15 20  1  0  0  0  0
 16 11  1  6  0  0  0
 16  2  1  0  0  0  0
 16  3  1  0  0  0  0
 17  8  1  0  0  0  0
 18 14  1  0  0  0  0
 20 19  2  0  0  0  0
 21 17  1  0  0  0  0
 21 15  2  0  0  0  0
 22 25  1  0  0  0  0
 23 24  1  0  0  0  0
 24 25  1  0  0  0  0
 26 22  1  0  0  0  0
 27 26  1  0  0  0  0
 27 23  1  0  0  0  0
M  END
>  <MODEL>
3

>  <REMARK>
 VINA RESULT:      -7.6      1.641      4.944
  Name = 
  1 active torsions:
  status: ('A' for Active; 'I' for Inactive)
    1  A    between atoms: C_9  and  N_15
                            x       y       z     vdW  Elec       q    Type
                         _______ _______ _______ _____ _____    ______ ____

>  <TORSDO>
F 1

$$$$
=
 OpenBabel11052413443D

 27 31  0  0  1  0  0  0  0  0999 V2000
  190.7720  177.5810  139.2700 C   0  0  0  0  0  2  0  0  0  0  0  0
  189.0150  177.2370  137.7800 C   0  0  2  0  0  3  0  0  0  0  0  0
  187.9950  177.4420  140.0760 N   0  0  0  0  0  2  0  0  0  0  0  0
  184.4970  176.8190  136.7470 C   0  0  0  0  0  3  0  0  0  0  0  0
  183.0480  178.3390  137.9520 C   0  0  0  0  0  1  0  0  0  0  0  0
  188.1850  176.3270  136.9870 N   0  0  0  0  0  2  0  0  0  0  0  0
  185.4680  178.2730  138.3720 C   0  0  0  0  0  0  0  0  0  0  0  0
  189.1010  176.1540  143.1670 C   0  0  0  0  0  3  0  0  0  0  0  0
  185.3490  179.1690  139.2510 O   0  0  0  0  0  0  0  0  0  0  0  0
  190.3930  175.8830  143.3440 C   0  0  0  0  0  3  0  0  0  0  0  0
  186.7230  177.7360  138.0800 C   0  0  0  0  0  0  0  0  0  0  0  0
  190.1130  176.5420  138.4770 N   0  0  1  0  0  0  0  0  0  0  0  0
  184.3750  177.8050  137.6880 N   0  0  0  0  0  0  0  0  0  0  0  0
  186.8500  176.7510  137.1440 C   0  0  0  0  0  0  0  0  0  0  0  0
  190.3580  177.4710  140.6990 C   0  0  0  0  0  0  0  0  0  0  0  0
  188.0350  178.0060  138.7260 C   0  0  2  0  0  3  0  0  0  0  0  0
  188.6340  177.3960  142.4830 C   0  0  0  0  0  2  0  0  0  0  0  0
  185.7490  176.2600  136.4500 C   0  0  0  0  0  3  0  0  0  0  0  0
  191.4940  176.7070  142.8160 C   0  0  0  0  0  3  0  0  0  0  0  0
  191.4720  177.4030  141.6720 C   0  0  0  0  0  3  0  0  0  0  0  0
  189.0530  177.4330  141.0490 C   0  0  0  0  0  0  0  0  0  0  0  0
  193.0550  174.8340  135.9090 C   0  0  0  0  0  2  0  0  0  0  0  0
  191.0860  176.0280  137.4900 C   0  0  0  0  0  3  0  0  0  0  0  0
  191.0890  174.4850  137.4660 C   0  0  0  0  0  2  0  0  0  0  0  0
  192.3570  173.8660  136.8590 C   0  0  0  0  0  2  0  0  0  0  0  0
  193.4770  176.1160  136.6390 C   0  0  0  0  0  2  0  0  0  0  0  0
  192.5210  176.5120  137.7710 C   0  0  0  0  0  2  0  0  0  0  0  0
  1 15  1  0  0  0  0
  2  6  1  1  0  0  0
  2 12  1  0  0  0  0
  2 16  1  0  0  0  0
  3 21  1  0  0  0  0
  4 13  1  0  0  0  0
  6 14  1  0  0  0  0
  7  9  2  0  0  0  0
  8 10  2  0  0  0  0
 11  7  1  0  0  0  0
 12 23  1  6  0  0  0
 12  1  1  0  0  0  0
 13  5  1  0  0  0  0
 13  7  1  0  0  0  0
 14 11  2  0  0  0  0
 15 21  2  0  0  0  0
 15 20  1  0  0  0  0
 16 11  1  6  0  0  0
 16  3  1  0  0  0  0
 17  8  1  0  0  0  0
 18  4  2  0  0  0  0
 18 14  1  0  0  0  0
 19 10  1  0  0  0  0
 20 19  2  0  0  0  0
 21 17  1  0  0  0  0
 22 26  1  0  0  0  0
 22 25  1  0  0  0  0
 23 27  1  0  0  0  0
 24 23  1  0  0  0  0
 25 24  1  0  0  0  0
 26 27  1  0  0  0  0
M  END
>  <MODEL>
4

>  <REMARK>
 VINA RESULT:      -7.5      2.308      5.889
  Name = 
  1 active torsions:
  status: ('A' for Active; 'I' for Inactive)
    1  A    between atoms: C_9  and  N_15
                            x       y       z     vdW  Elec       q    Type
                         _______ _______ _______ _____ _____    ______ ____

>  <TORSDO>
F 1

$$$$
=
 OpenBabel11052413443D

 27 31  0  0  1  0  0  0  0  0999 V2000
  184.7300  179.2810  140.6040 C   0  0  0  0  0  2  0  0  0  0  0  0
  186.6550  178.5040  141.6610 C   0  0  2  0  0  3  0  0  0  0  0  0
  186.8570  177.8810  139.2270 N   0  0  0  0  0  2  0  0  0  0  0  0
  190.8320  176.4520  141.6490 C   0  0  0  0  0  3  0  0  0  0  0  0
  192.2210  177.0160  139.7470 C   0  0  0  0  0  1  0  0  0  0  0  0
  187.3400  177.4830  142.4570 N   0  0  0  0  0  2  0  0  0  0  0  0
  189.9300  177.8780  139.9610 C   0  0  0  0  0  0  0  0  0  0  0  0
  184.4160  176.6580  136.9950 C   0  0  0  0  0  3  0  0  0  0  0  0
  190.0460  178.4830  138.8600 O   0  0  0  0  0  0  0  0  0  0  0  0
  183.1290  176.9140  137.2190 C   0  0  0  0  0  3  0  0  0  0  0  0
  188.7410  177.9610  140.6880 C   0  0  0  0  0  0  0  0  0  0  0  0
  185.2220  178.2140  141.4780 N   0  0  1  0  0  0  0  0  0  0  0  0
  190.9600  177.1260  140.4650 N   0  0  0  0  0  0  0  0  0  0  0  0
  188.6070  177.2890  141.8670 C   0  0  0  0  0  0  0  0  0  0  0  0
  184.5800  178.7710  139.2110 C   0  0  0  0  0  0  0  0  0  0  0  0
  187.4630  178.6310  140.3280 C   0  0  2  0  0  3  0  0  0  0  0  0
  185.4770  177.6940  137.1620 C   0  0  0  0  0  2  0  0  0  0  0  0
  189.6390  176.5150  142.3860 C   0  0  0  0  0  3  0  0  0  0  0  0
  182.6160  178.1940  137.7400 C   0  0  0  0  0  3  0  0  0  0  0  0
  183.2540  179.0020  138.5960 C   0  0  0  0  0  3  0  0  0  0  0  0
  185.5990  178.1420  138.5830 C   0  0  0  0  0  0  0  0  0  0  0  0
  183.0550  178.8510  145.0940 C   0  0  0  0  0  2  0  0  0  0  0  0
  184.5200  178.3190  142.7750 C   0  0  0  0  0  3  0  0  0  0  0  0
  183.0220  178.6280  142.5710 C   0  0  0  0  0  2  0  0  0  0  0  0
  182.3270  179.2220  143.8060 C   0  0  0  0  0  2  0  0  0  0  0  0
  184.4960  179.3780  145.0830 C   0  0  0  0  0  2  0  0  0  0  0  0
  185.1210  179.4090  143.6830 C   0  0  0  0  0  2  0  0  0  0  0  0
  1 12  1  0  0  0  0
  2  6  1  1  0  0  0
  4 18  2  0  0  0  0
  5 13  1  0  0  0  0
  7 13  1  0  0  0  0
  7 11  1  0  0  0  0
  8 17  1  0  0  0  0
  8 10  2  0  0  0  0
  9  7  2  0  0  0  0
 10 19  1  0  0  0  0
 11 14  2  0  0  0  0
 12  2  1  0  0  0  0
 12 23  1  1  0  0  0
 13  4  1  0  0  0  0
 14 18  1  0  0  0  0
 14  6  1  0  0  0  0
 15  1  1  0  0  0  0
 16  3  1  6  0  0  0
 16 11  1  0  0  0  0
 16  2  1  0  0  0  0
 17 21  1  0  0  0  0
 19 20  2  0  0  0  0
 20 15  1  0  0  0  0
 21 15  2  0  0  0  0
 21  3  1  0  0  0  0
 23 27  1  0  0  0  0
 24 23  1  0  0  0  0
 24 25  1  0  0  0  0
 25 22  1  0  0  0  0
 26 22  1  0  0  0  0
 27 26  1  0  0  0  0
M  END
>  <MODEL>
5

>  <REMARK>
 VINA RESULT:      -7.2      2.340      4.329
  Name = 
  1 active torsions:
  status: ('A' for Active; 'I' for Inactive)
    1  A    between atoms: C_9  and  N_15
                            x       y       z     vdW  Elec       q    Type
                         _______ _______ _______ _____ _____    ______ ____

>  <TORSDO>
F 1

$$$$
=
 OpenBabel11052413443D

 27 31  0  0  1  0  0  0  0  0999 V2000
  185.2420  179.2840  141.4520 C   0  0  0  0  0  2  0  0  0  0  0  0
  187.4500  178.5510  141.3330 C   0  0  2  0  0  3  0  0  0  0  0  0
  186.3090  177.7760  139.2230 N   0  0  0  0  0  2  0  0  0  0  0  0
  190.9940  176.4530  139.1680 C   0  0  0  0  0  3  0  0  0  0  0  0
  191.1110  176.8810  136.7870 C   0  0  0  0  0  1  0  0  0  0  0  0
  188.4820  177.5730  141.6850 N   0  0  0  0  0  2  0  0  0  0  0  0
  189.2850  177.7820  138.1640 C   0  0  0  0  0  0  0  0  0  0  0  0
  183.0760  176.4470  138.7560 C   0  0  0  0  0  3  0  0  0  0  0  0
  188.7690  178.3170  137.1440 O   0  0  0  0  0  0  0  0  0  0  0  0
  182.1130  176.7320  139.6300 C   0  0  0  0  0  3  0  0  0  0  0  0
  188.6820  177.9240  139.4150 C   0  0  0  0  0  0  0  0  0  0  0  0
  186.1550  178.2670  141.9780 N   0  0  1  0  0  0  0  0  0  0  0  0
  190.4420  177.0510  138.0680 N   0  0  0  0  0  0  0  0  0  0  0  0
  189.2280  177.3280  140.5140 C   0  0  0  0  0  0  0  0  0  0  0  0
  184.3700  178.6910  140.3980 C   0  0  0  0  0  0  0  0  0  0  0  0
  187.3980  178.5860  139.7710 C   0  0  2  0  0  3  0  0  0  0  0  0
  184.0320  177.4790  138.2580 C   0  0  0  0  0  2  0  0  0  0  0  0
  190.3940  176.5750  140.4300 C   0  0  0  0  0  3  0  0  0  0  0  0
  181.9360  178.0470  140.2700 C   0  0  0  0  0  3  0  0  0  0  0  0
  182.9180  178.8990  140.5930 C   0  0  0  0  0  3  0  0  0  0  0  0
  184.8970  178.0120  139.3540 C   0  0  0  0  0  0  0  0  0  0  0  0
  186.3380  178.4760  146.2310 C   0  0  0  0  0  2  0  0  0  0  0  0
  186.2700  178.4610  143.4390 C   0  0  0  0  0  3  0  0  0  0  0  0
  186.9790  177.2620  144.1030 C   0  0  0  0  0  2  0  0  0  0  0  0
  186.7220  177.1360  145.6120 C   0  0  0  0  0  2  0  0  0  0  0  0
  185.0560  179.0290  145.5960 C   0  0  0  0  0  2  0  0  0  0  0  0
  184.9000  178.6530  144.1170 C   0  0  0  0  0  2  0  0  0  0  0  0
  1 12  1  0  0  0  0
  2  6  1  6  0  0  0
  2 12  1  0  0  0  0
  3 21  1  0  0  0  0
  4 18  2  0  0  0  0
  5 13  1  0  0  0  0
  7 11  1  0  0  0  0
  8 10  2  0  0  0  0
  9  7  2  0  0  0  0
 10 19  1  0  0  0  0
 11 16  1  0  0  0  0
 11 14  2  0  0  0  0
 12 23  1  1  0  0  0
 13  7  1  0  0  0  0
 13  4  1  0  0  0  0
 14  6  1  0  0  0  0
 15 20  1  0  0  0  0
 15  1  1  0  0  0  0
 16  3  1  6  0  0  0
 16  2  1  0  0  0  0
 17  8  1  0  0  0  0
 17 21  1  0  0  0  0
 18 14  1  0  0  0  0
 19 20  2  0  0  0  0
 21 15  2  0  0  0  0
 23 24  1  0  0  0  0
 23 27  1  0  0  0  0
 24 25  1  0  0  0  0
 25 22  1  0  0  0  0
 26 22  1  0  0  0  0
 27 26  1  0  0  0  0
M  END
>  <MODEL>
6

>  <REMARK>
 VINA RESULT:      -7.1      1.803      2.720
  Name = 
  1 active torsions:
  status: ('A' for Active; 'I' for Inactive)
    1  A    between atoms: C_9  and  N_15
                            x       y       z     vdW  Elec       q    Type
                         _______ _______ _______ _____ _____    ______ ____

>  <TORSDO>
F 1

$$$$
=
 OpenBabel11052413443D

 27 31  0  0  1  0  0  0  0  0999 V2000
  188.9360  178.2680  139.9860 C   0  0  0  0  0  2  0  0  0  0  0  0
  187.2830  177.8780  138.3920 C   0  0  2  0  0  3  0  0  0  0  0  0
  186.1050  178.2500  140.5890 N   0  0  0  0  0  2  0  0  0  0  0  0
  182.8410  177.5140  137.0510 C   0  0  0  0  0  3  0  0  0  0  0  0
  181.3550  179.1420  138.0530 C   0  0  0  0  0  1  0  0  0  0  0  0
  186.4860  176.9420  137.5940 N   0  0  0  0  0  2  0  0  0  0  0  0
  183.7350  179.0400  138.6540 C   0  0  0  0  0  0  0  0  0  0  0  0
  186.9440  177.1270  143.8250 C   0  0  0  0  0  3  0  0  0  0  0  0
  183.5790  179.9910  139.4680 O   0  0  0  0  0  0  0  0  0  0  0  0
  188.2100  176.8330  144.1140 C   0  0  0  0  0  3  0  0  0  0  0  0
  184.9910  178.4530  138.4890 C   0  0  0  0  0  0  0  0  0  0  0  0
  188.3050  177.1990  139.2080 N   0  0  1  0  0  0  0  0  0  0  0  0
  182.6810  178.5590  137.9200 N   0  0  0  0  0  0  0  0  0  0  0  0
  185.1560  177.4100  137.6260 C   0  0  0  0  0  0  0  0  0  0  0  0
  188.4160  178.2560  141.3840 C   0  0  0  0  0  0  0  0  0  0  0  0
  186.2600  178.7280  139.2150 C   0  0  2  0  0  3  0  0  0  0  0  0
  186.5650  178.3350  143.0350 C   0  0  0  0  0  2  0  0  0  0  0  0
  184.0940  176.9060  136.8820 C   0  0  0  0  0  3  0  0  0  0  0  0
  189.3710  177.5950  143.6210 C   0  0  0  0  0  3  0  0  0  0  0  0
  189.4530  178.2200  142.4390 C   0  0  0  0  0  3  0  0  0  0  0  0
  187.0880  178.2730  141.6370 C   0  0  0  0  0  0  0  0  0  0  0  0
  191.5030  175.7490  136.7910 C   0  0  0  0  0  2  0  0  0  0  0  0
  189.3320  176.6000  138.3290 C   0  0  0  0  0  3  0  0  0  0  0  0
  190.6540  176.3780  139.0930 C   0  0  0  0  0  2  0  0  0  0  0  0
  191.8860  176.2260  138.1880 C   0  0  0  0  0  2  0  0  0  0  0  0
  190.5560  176.7460  136.1090 C   0  0  0  0  0  2  0  0  0  0  0  0
  189.6260  177.4680  137.0910 C   0  0  0  0  0  2  0  0  0  0  0  0
  1 15  1  0  0  0  0
  2  6  1  1  0  0  0
  2 12  1  0  0  0  0
  2 16  1  0  0  0  0
  3 21  1  0  0  0  0
  4 13  1  0  0  0  0
  6 14  1  0  0  0  0
  7  9  2  0  0  0  0
  8 10  2  0  0  0  0
 11  7  1  0  0  0  0
 12 23  1  6  0  0  0
 12  1  1  0  0  0  0
 13  5  1  0  0  0  0
 13  7  1  0  0  0  0
 14 11  2  0  0  0  0
 15 21  2  0  0  0  0
 15 20  1  0  0  0  0
 16 11  1  6  0  0  0
 16  3  1  0  0  0  0
 17  8  1  0  0  0  0
 18  4  2  0  0  0  0
 18 14  1  0  0  0  0
 19 10  1  0  0  0  0
 20 19  2  0  0  0  0
 21 17  1  0  0  0  0
 22 25  1  0  0  0  0
 23 24  1  0  0  0  0
 25 24  1  0  0  0  0
 26 22  1  0  0  0  0
 26 27  1  0  0  0  0
 27 23  1  0  0  0  0
M  END
>  <MODEL>
7

>  <REMARK>
 VINA RESULT:      -6.8      2.194      5.644
  Name = 
  1 active torsions:
  status: ('A' for Active; 'I' for Inactive)
    1  A    between atoms: C_9  and  N_15
                            x       y       z     vdW  Elec       q    Type
                         _______ _______ _______ _____ _____    ______ ____

>  <TORSDO>
F 1

$$$$
=
 OpenBabel11052413443D

 27 31  0  0  1  0  0  0  0  0999 V2000
  186.3330  179.0030  138.9280 C   0  0  0  0  0  2  0  0  0  0  0  0
  186.5250  178.7350  141.2330 C   0  0  2  0  0  3  0  0  0  0  0  0
  188.4210  177.4430  140.1890 N   0  0  0  0  0  2  0  0  0  0  0  0
  188.6630  177.1280  145.0420 C   0  0  0  0  0  3  0  0  0  0  0  0
  191.0800  177.2220  144.9500 C   0  0  0  0  0  1  0  0  0  0  0  0
  186.1280  178.0530  142.4680 N   0  0  0  0  0  2  0  0  0  0  0  0
  189.6980  177.9140  143.0400 C   0  0  0  0  0  0  0  0  0  0  0  0
  188.4590  175.4180  137.3020 C   0  0  0  0  0  3  0  0  0  0  0  0
  190.7350  178.1770  142.3730 O   0  0  0  0  0  0  0  0  0  0  0  0
  187.5580  175.6200  136.3430 C   0  0  0  0  0  3  0  0  0  0  0  0
  188.4330  178.1070  142.4800 C   0  0  0  0  0  0  0  0  0  0  0  0
  185.7510  178.2840  140.0630 N   0  0  1  0  0  0  0  0  0  0  0  0
  189.7850  177.4330  144.3220 N   0  0  0  0  0  0  0  0  0  0  0  0
  187.3110  177.8020  143.1930 C   0  0  0  0  0  0  0  0  0  0  0  0
  187.2310  178.0950  138.1560 C   0  0  0  0  0  0  0  0  0  0  0  0
  188.0700  178.5320  141.1020 C   0  0  2  0  0  3  0  0  0  0  0  0
  189.1600  176.5430  137.9880 C   0  0  0  0  0  2  0  0  0  0  0  0
  187.3850  177.3040  144.4900 C   0  0  0  0  0  3  0  0  0  0  0  0
  187.0840  176.9480  135.9160 C   0  0  0  0  0  3  0  0  0  0  0  0
  186.9530  178.0230  136.7040 C   0  0  0  0  0  3  0  0  0  0  0  0
  188.2140  177.3970  138.7680 C   0  0  0  0  0  0  0  0  0  0  0  0
  181.5950  179.2220  140.2200 C   0  0  0  0  0  2  0  0  0  0  0  0
  184.3400  178.7070  140.2020 C   0  0  0  0  0  3  0  0  0  0  0  0
  183.4310  177.5030  140.5240 C   0  0  0  0  0  2  0  0  0  0  0  0
  181.9440  177.7370  140.2140 C   0  0  0  0  0  2  0  0  0  0  0  0
  182.4060  179.9830  139.1640 C   0  0  0  0  0  2  0  0  0  0  0  0
  183.8050  179.3960  138.9330 C   0  0  0  0  0  2  0  0  0  0  0  0
  1 12  1  0  0  0  0
  2  6  1  1  0  0  0
  6 14  1  0  0  0  0
  7 13  1  0  0  0  0
  8 17  1  0  0  0  0
  9  7  2  0  0  0  0
 10  8  2  0  0  0  0
 11  7  1  0  0  0  0
 11 14  2  0  0  0  0
 12 23  1  1  0  0  0
 12  2  1  0  0  0  0
 13  5  1  0  0  0  0
 13  4  1  0  0  0  0
 14 18  1  0  0  0  0
 15 21  2  0  0  0  0
 15  1  1  0  0  0  0
 16  3  1  6  0  0  0
 16  2  1  0  0  0  0
 16 11  1  0  0  0  0
 17 21  1  0  0  0  0
 18  4  2  0  0  0  0
 19 10  1  0  0  0  0
 19 20  2  0  0  0  0
 20 15  1  0  0  0  0
 21  3  1  0  0  0  0
 23 24  1  0  0  0  0
 25 22  1  0  0  0  0
 25 24  1  0  0  0  0
 26 22  1  0  0  0  0
 27 26  1  0  0  0  0
 27 23  1  0  0  0  0
M  END
>  <MODEL>
8

>  <REMARK>
 VINA RESULT:      -6.8      2.121      6.493
  Name = 
  1 active torsions:
  status: ('A' for Active; 'I' for Inactive)
    1  A    between atoms: C_9  and  N_15
                            x       y       z     vdW  Elec       q    Type
                         _______ _______ _______ _____ _____    ______ ____

>  <TORSDO>
F 1

$$$$
=
 OpenBabel11052413443D

 27 31  0  0  1  0  0  0  0  0999 V2000
  188.4430  178.6630  140.1830 C   0  0  0  0  0  2  0  0  0  0  0  0
  186.1350  178.6640  139.8660 C   0  0  2  0  0  3  0  0  0  0  0  0
  186.5430  177.9630  142.2530 N   0  0  0  0  0  2  0  0  0  0  0  0
  181.7590  178.1480  141.3640 C   0  0  0  0  0  3  0  0  0  0  0  0
  181.3550  179.0030  143.5930 C   0  0  0  0  0  1  0  0  0  0  0  0
  184.9200  177.9970  139.3910 N   0  0  0  0  0  2  0  0  0  0  0  0
  183.5970  179.0540  142.5880 C   0  0  0  0  0  0  0  0  0  0  0  0
  189.0040  175.8230  143.5940 C   0  0  0  0  0  3  0  0  0  0  0  0
  184.0640  179.5780  143.6360 O   0  0  0  0  0  0  0  0  0  0  0  0
  190.1510  175.6460  142.9410 C   0  0  0  0  0  3  0  0  0  0  0  0
  184.4330  178.7850  141.5030 C   0  0  0  0  0  0  0  0  0  0  0  0
  187.3570  177.8930  139.5720 N   0  0  1  0  0  0  0  0  0  0  0  0
  182.2660  178.7350  142.4910 N   0  0  0  0  0  0  0  0  0  0  0  0
  183.9320  178.1980  140.3780 C   0  0  0  0  0  0  0  0  0  0  0  0
  188.8570  178.0290  141.4680 C   0  0  0  0  0  0  0  0  0  0  0  0
  185.9060  178.9550  141.3850 C   0  0  2  0  0  3  0  0  0  0  0  0
  188.3720  177.1670  143.7440 C   0  0  0  0  0  2  0  0  0  0  0  0
  182.5880  177.8600  140.2690 C   0  0  0  0  0  3  0  0  0  0  0  0
  190.8710  176.7130  142.2220 C   0  0  0  0  0  3  0  0  0  0  0  0
  190.3060  177.7510  141.5920 C   0  0  0  0  0  3  0  0  0  0  0  0
  187.9510  177.7350  142.4270 C   0  0  0  0  0  0  0  0  0  0  0  0
  188.2820  177.5130  135.4280 C   0  0  0  0  0  2  0  0  0  0  0  0
  187.5840  177.8530  138.1110 C   0  0  0  0  0  3  0  0  0  0  0  0
  187.5610  176.4020  137.5870 C   0  0  0  0  0  2  0  0  0  0  0  0
  188.2480  176.2130  136.2260 C   0  0  0  0  0  2  0  0  0  0  0  0
  189.0550  178.6020  136.1820 C   0  0  0  0  0  2  0  0  0  0  0  0
  188.9250  178.4950  137.7070 C   0  0  0  0  0  2  0  0  0  0  0  0
  1 15  1  0  0  0  0
  2  6  1  1  0  0  0
  2 16  1  0  0  0  0
  3 21  1  0  0  0  0
  4 13  1  0  0  0  0
  6 14  1  0  0  0  0
  7  9  2  0  0  0  0
  8 17  1  0  0  0  0
 10  8  2  0  0  0  0
 11  7  1  0  0  0  0
 12 23  1  6  0  0  0
 12  2  1  0  0  0  0
 12  1  1  0  0  0  0
 13  7  1  0  0  0  0
 13  5  1  0  0  0  0
 14 11  2  0  0  0  0
 15 20  1  0  0  0  0
 15 21  2  0  0  0  0
 16 11  1  6  0  0  0
 16  3  1  0  0  0  0
 18 14  1  0  0  0  0
 18  4  2  0  0  0  0
 19 10  1  0  0  0  0
 20 19  2  0  0  0  0
 21 17  1  0  0  0  0
 22 26  1  0  0  0  0
 22 25  1  0  0  0  0
 24 23  1  0  0  0  0
 25 24  1  0  0  0  0
 26 27  1  0  0  0  0
 27 23  1  0  0  0  0
M  END
>  <MODEL>
9

>  <REMARK>
 VINA RESULT:      -6.8      2.474      6.998
  Name = 
  1 active torsions:
  status: ('A' for Active; 'I' for Inactive)
    1  A    between atoms: C_9  and  N_15
                            x       y       z     vdW  Elec       q    Type
                         _______ _______ _______ _____ _____    ______ ____

>  <TORSDO>
F 1

$$$$
