=
 OpenBabel11052413263D

 28 31  0  0  1  0  0  0  0  0999 V2000
  185.6300  178.3460  144.8200 C   0  0  0  0  0  0  0  0  0  0  0  0
  182.2980  179.2660  142.4280 O   0  0  0  0  0  1  0  0  0  0  0  0
  187.2140  178.6630  141.4560 N   0  0  2  0  0  0  0  0  0  0  0  0
  184.6470  178.6880  142.6060 C   0  0  0  0  0  0  0  0  0  0  0  0
  187.0590  177.9910  142.7480 C   0  0  0  0  0  2  0  0  0  0  0  0
  183.2730  178.8920  144.5930 C   0  0  0  0  0  3  0  0  0  0  0  0
  184.7940  178.8030  141.1100 C   0  0  0  0  0  2  0  0  0  0  0  0
  183.4060  178.9510  143.2060 C   0  0  0  0  0  0  0  0  0  0  0  0
  186.1060  178.1880  140.6220 C   0  0  0  0  0  2  0  0  0  0  0  0
  184.3750  178.5880  145.3930 C   0  0  0  0  0  3  0  0  0  0  0  0
  185.7680  178.3930  143.4150 C   0  0  0  0  0  0  0  0  0  0  0  0
  189.0500  177.0110  141.5740 C   0  0  0  0  0  2  0  0  0  0  0  0
  189.2740  176.8730  138.8030 C   0  0  0  0  0  2  0  0  0  0  0  0
  191.2830  177.3520  140.3250 C   0  0  0  0  0  0  0  0  0  0  0  0
  188.4880  178.2400  140.8510 C   0  0  1  0  0  3  0  0  0  0  0  0
  188.4100  179.0820  138.6000 F   0  0  0  0  0  0  0  0  0  0  0  0
  190.6570  177.2650  139.0360 N   0  0  0  0  0  2  0  0  0  0  0  0
  188.3020  177.9240  139.3490 C   0  0  1  0  0  3  0  0  0  0  0  0
  192.4940  177.6890  140.3810 O   0  0  0  0  0  0  0  0  0  0  0  0
  190.5780  177.0370  141.6210 C   0  0  0  0  0  2  0  0  0  0  0  0
  186.7660  178.0270  145.7100 C   0  0  0  0  0  0  0  0  0  0  0  0
  187.8560  177.3110  145.1950 C   0  0  0  0  0  3  0  0  0  0  0  0
  187.8710  178.0960  147.8770 C   0  0  0  0  0  0  0  0  0  0  0  0
  188.9470  176.9970  146.0080 C   0  0  0  0  0  3  0  0  0  0  0  0
  185.6810  179.0710  147.6230 O   0  0  0  0  0  1  0  0  0  0  0  0
  186.7700  178.4060  147.0680 C   0  0  0  0  0  0  0  0  0  0  0  0
  187.8860  178.4650  149.1820 F   0  0  0  0  0  0  0  0  0  0  0  0
  188.9540  177.3930  147.3480 C   0  0  0  0  0  3  0  0  0  0  0  0
  1 10  1  0  0  0  0
  1 21  1  0  0  0  0
  2  8  1  0  0  0  0
  3  9  1  6  0  0  0
  3  5  1  0  0  0  0
  4  8  2  0  0  0  0
  4 11  1  0  0  0  0
  5 11  1  0  0  0  0
  6 10  2  0  0  0  0
  7  4  1  0  0  0  0
  8  6  1  0  0  0  0
  9  7  1  0  0  0  0
 11  1  2  0  0  0  0
 12 20  1  0  0  0  0
 13 17  1  0  0  0  0
 13 18  1  0  0  0  0
 14 19  2  0  0  0  0
 14 20  1  0  0  0  0
 15  3  1  0  0  0  0
 15 12  1  1  0  0  0
 17 14  1  0  0  0  0
 18 16  1  6  0  0  0
 18 15  1  0  0  0  0
 21 26  1  0  0  0  0
 22 21  2  0  0  0  0
 22 24  1  0  0  0  0
 23 27  1  0  0  0  0
 24 28  2  0  0  0  0
 26 25  1  0  0  0  0
 26 23  2  0  0  0  0
 28 23  1  0  0  0  0
M  END
>  <MODEL>
1

>  <REMARK>
 VINA RESULT:     -10.9      0.000      0.000
  Name = 
  2 active torsions:
  status: ('A' for Active; 'I' for Inactive)
    1  A    between atoms: C_1  and  C_2
    2  A    between atoms: N_10  and  C_13
                            x       y       z     vdW  Elec       q    Type
                         _______ _______ _______ _____ _____    ______ ____

>  <TORSDO>
F 2

$$$$
=
 OpenBabel11052413263D

 28 31  0  0  1  0  0  0  0  0999 V2000
  186.1610  178.2460  145.4610 C   0  0  0  0  0  0  0  0  0  0  0  0
  188.5670  177.9010  148.8920 O   0  0  0  0  0  1  0  0  0  0  0  0
  189.3090  176.8670  144.0070 N   0  0  2  0  0  0  0  0  0  0  0  0
  188.3410  177.7980  146.4780 C   0  0  0  0  0  0  0  0  0  0  0  0
  188.1660  177.7830  143.9700 C   0  0  0  0  0  2  0  0  0  0  0  0
  186.4420  178.3730  147.8720 C   0  0  0  0  0  3  0  0  0  0  0  0
  189.7810  177.3700  146.3560 C   0  0  0  0  0  2  0  0  0  0  0  0
  187.7860  178.0210  147.7470 C   0  0  0  0  0  0  0  0  0  0  0  0
  190.2830  177.4790  144.9170 C   0  0  0  0  0  2  0  0  0  0  0  0
  185.6370  178.4870  146.7380 C   0  0  0  0  0  3  0  0  0  0  0  0
  187.5250  177.9020  145.3290 C   0  0  0  0  0  0  0  0  0  0  0  0
  189.2060  177.7680  141.7060 C   0  0  0  0  0  2  0  0  0  0  0  0
  191.9730  177.6880  141.4160 C   0  0  0  0  0  2  0  0  0  0  0  0
  190.3780  176.6020  139.7250 C   0  0  0  0  0  0  0  0  0  0  0  0
  189.8950  176.7840  142.6590 C   0  0  1  0  0  3  0  0  0  0  0  0
  192.1120  175.9190  143.0030 F   0  0  0  0  0  0  0  0  0  0  0  0
  191.6870  176.8430  140.2640 N   0  0  0  0  0  2  0  0  0  0  0  0
  191.4130  177.0740  142.7030 C   0  0  1  0  0  3  0  0  0  0  0  0
  190.2750  175.8620  138.7120 O   0  0  0  0  0  0  0  0  0  0  0  0
  189.1160  177.2060  140.2880 C   0  0  0  0  0  2  0  0  0  0  0  0
  185.2690  178.3820  144.2910 C   0  0  0  0  0  0  0  0  0  0  0  0
  185.7700  178.0940  143.0140 C   0  0  0  0  0  3  0  0  0  0  0  0
  183.1160  178.9210  143.2940 C   0  0  0  0  0  0  0  0  0  0  0  0
  184.9520  178.2090  141.8880 C   0  0  0  0  0  3  0  0  0  0  0  0
  183.4220  179.1610  145.6730 O   0  0  0  0  0  1  0  0  0  0  0  0
  183.9340  178.8160  144.4260 C   0  0  0  0  0  0  0  0  0  0  0  0
  181.8280  179.3290  143.4160 F   0  0  0  0  0  0  0  0  0  0  0  0
  183.6250  178.6190  142.0290 C   0  0  0  0  0  3  0  0  0  0  0  0
  1 10  1  0  0  0  0
  3  5  1  6  0  0  0
  3  9  1  0  0  0  0
  4  8  2  0  0  0  0
  5 11  1  0  0  0  0
  7  4  1  0  0  0  0
  8  6  1  0  0  0  0
  8  2  1  0  0  0  0
  9  7  1  0  0  0  0
 10  6  2  0  0  0  0
 11  1  2  0  0  0  0
 11  4  1  0  0  0  0
 13 18  1  0  0  0  0
 14 17  1  0  0  0  0
 14 20  1  0  0  0  0
 15 12  1  6  0  0  0
 15 18  1  0  0  0  0
 15  3  1  0  0  0  0
 17 13  1  0  0  0  0
 18 16  1  6  0  0  0
 19 14  2  0  0  0  0
 20 12  1  0  0  0  0
 21 26  1  0  0  0  0
 21  1  1  0  0  0  0
 22 21  2  0  0  0  0
 23 27  1  0  0  0  0
 23 26  2  0  0  0  0
 24 28  2  0  0  0  0
 24 22  1  0  0  0  0
 26 25  1  0  0  0  0
 28 23  1  0  0  0  0
M  END
>  <MODEL>
2

>  <REMARK>
 VINA RESULT:     -10.8      2.542      4.802
  Name = 
  2 active torsions:
  status: ('A' for Active; 'I' for Inactive)
    1  A    between atoms: C_1  and  C_2
    2  A    between atoms: N_10  and  C_13
                            x       y       z     vdW  Elec       q    Type
                         _______ _______ _______ _____ _____    ______ ____

>  <TORSDO>
F 2

$$$$
=
 OpenBabel11052413263D

 28 31  0  0  1  0  0  0  0  0999 V2000
  187.3590  177.8930  144.8950 C   0  0  0  0  0  0  0  0  0  0  0  0
  183.4050  178.9510  145.8550 O   0  0  0  0  0  1  0  0  0  0  0  0
  186.1040  179.0890  141.5910 N   0  0  2  0  0  0  0  0  0  0  0  0
  185.1280  178.5980  144.1820 C   0  0  0  0  0  0  0  0  0  0  0  0
  186.8580  178.1430  142.4170 C   0  0  0  0  0  2  0  0  0  0  0  0
  185.5940  178.2240  146.5320 C   0  0  0  0  0  3  0  0  0  0  0  0
  184.1780  179.0460  143.1010 C   0  0  0  0  0  2  0  0  0  0  0  0
  184.7070  178.5940  145.5210 C   0  0  0  0  0  0  0  0  0  0  0  0
  184.6980  178.6910  141.7090 C   0  0  0  0  0  2  0  0  0  0  0  0
  186.9080  177.8740  146.2220 C   0  0  0  0  0  3  0  0  0  0  0  0
  186.4620  178.2550  143.8670 C   0  0  0  0  0  0  0  0  0  0  0  0
  187.6210  177.8710  140.0640 C   0  0  0  0  0  2  0  0  0  0  0  0
  185.7020  177.7500  138.0520 C   0  0  0  0  0  2  0  0  0  0  0  0
  188.0640  178.6680  137.6500 C   0  0  0  0  0  0  0  0  0  0  0  0
  186.5310  178.9420  140.1900 C   0  0  1  0  0  3  0  0  0  0  0  0
  184.6620  179.7200  138.8920 F   0  0  0  0  0  0  0  0  0  0  0  0
  186.7060  178.4330  137.2470 N   0  0  0  0  0  2  0  0  0  0  0  0
  185.3300  178.5750  139.2870 C   0  0  1  0  0  3  0  0  0  0  0  0
  188.8330  179.2580  136.8470 O   0  0  0  0  0  0  0  0  0  0  0  0
  188.6330  178.2250  138.9750 C   0  0  0  0  0  2  0  0  0  0  0  0
  188.7600  177.5110  144.6170 C   0  0  0  0  0  0  0  0  0  0  0  0
  189.7960  178.3240  145.0980 C   0  0  0  0  0  3  0  0  0  0  0  0
  190.4180  176.0300  143.6290 C   0  0  0  0  0  0  0  0  0  0  0  0
  191.1300  177.9910  144.8560 C   0  0  0  0  0  3  0  0  0  0  0  0
  188.0720  175.5660  143.3250 O   0  0  0  0  0  1  0  0  0  0  0  0
  189.0780  176.3640  143.8610 C   0  0  0  0  0  0  0  0  0  0  0  0
  190.7320  174.9230  142.9110 F   0  0  0  0  0  0  0  0  0  0  0  0
  191.4400  176.8420  144.1250 C   0  0  0  0  0  3  0  0  0  0  0  0
  1 10  1  0  0  0  0
  3  9  1  6  0  0  0
  3  5  1  0  0  0  0
  4  8  2  0  0  0  0
  5 11  1  0  0  0  0
  7  4  1  0  0  0  0
  8  2  1  0  0  0  0
  8  6  1  0  0  0  0
  9  7  1  0  0  0  0
 10  6  2  0  0  0  0
 11  4  1  0  0  0  0
 11  1  2  0  0  0  0
 13 18  1  0  0  0  0
 14 20  1  0  0  0  0
 15 12  1  1  0  0  0
 15  3  1  0  0  0  0
 17 14  1  0  0  0  0
 17 13  1  0  0  0  0
 18 16  1  6  0  0  0
 18 15  1  0  0  0  0
 19 14  2  0  0  0  0
 20 12  1  0  0  0  0
 21  1  1  0  0  0  0
 21 22  1  0  0  0  0
 23 26  1  0  0  0  0
 23 28  2  0  0  0  0
 24 22  2  0  0  0  0
 25 26  1  0  0  0  0
 26 21  2  0  0  0  0
 27 23  1  0  0  0  0
 28 24  1  0  0  0  0
M  END
>  <MODEL>
3

>  <REMARK>
 VINA RESULT:     -10.6      2.627      3.588
  Name = 
  2 active torsions:
  status: ('A' for Active; 'I' for Inactive)
    1  A    between atoms: C_1  and  C_2
    2  A    between atoms: N_10  and  C_13
                            x       y       z     vdW  Elec       q    Type
                         _______ _______ _______ _____ _____    ______ ____

>  <TORSDO>
F 2

$$$$
=
 OpenBabel11052413263D

 28 31  0  0  1  0  0  0  0  0999 V2000
  188.0550  177.6520  145.0780 C   0  0  0  0  0  0  0  0  0  0  0  0
  191.9700  176.7290  146.3010 O   0  0  0  0  0  1  0  0  0  0  0  0
  189.6350  176.7300  141.8260 N   0  0  2  0  0  0  0  0  0  0  0  0
  190.3710  177.1030  144.5150 C   0  0  0  0  0  0  0  0  0  0  0  0
  188.7670  177.5850  142.6400 C   0  0  0  0  0  2  0  0  0  0  0  0
  189.6980  177.3040  146.8350 C   0  0  0  0  0  3  0  0  0  0  0  0
  191.4280  176.7710  143.4920 C   0  0  0  0  0  2  0  0  0  0  0  0
  190.6820  177.0430  145.8820 C   0  0  0  0  0  0  0  0  0  0  0  0
  191.0030  177.1880  142.0840 C   0  0  0  0  0  2  0  0  0  0  0  0
  188.3960  177.6090  146.4370 C   0  0  0  0  0  3  0  0  0  0  0  0
  189.0510  177.4010  144.1090 C   0  0  0  0  0  0  0  0  0  0  0  0
  188.5540  178.2620  140.2130 C   0  0  0  0  0  2  0  0  0  0  0  0
  190.5100  177.8140  138.2840 C   0  0  0  0  0  2  0  0  0  0  0  0
  188.0060  177.5430  137.7960 C   0  0  0  0  0  0  0  0  0  0  0  0
  189.3150  176.9450  140.4050 C   0  0  1  0  0  3  0  0  0  0  0  0
  190.9570  175.6640  139.2040 F   0  0  0  0  0  0  0  0  0  0  0  0
  189.3920  177.3980  137.4490 N   0  0  0  0  0  2  0  0  0  0  0  0
  190.6030  176.9550  139.5490 C   0  0  1  0  0  3  0  0  0  0  0  0
  187.1390  177.1550  136.9710 O   0  0  0  0  0  0  0  0  0  0  0  0
  187.5260  178.1580  139.0870 C   0  0  0  0  0  2  0  0  0  0  0  0
  186.6630  177.9820  144.7070 C   0  0  0  0  0  0  0  0  0  0  0  0
  186.2710  177.8750  143.3650 C   0  0  0  0  0  3  0  0  0  0  0  0
  184.4130  178.7160  145.2760 C   0  0  0  0  0  0  0  0  0  0  0  0
  184.9630  178.1750  142.9820 C   0  0  0  0  0  3  0  0  0  0  0  0
  186.0990  178.5920  146.9950 O   0  0  0  0  0  1  0  0  0  0  0  0
  185.7270  178.4240  145.6650 C   0  0  0  0  0  0  0  0  0  0  0  0
  183.5050  179.1320  146.1930 F   0  0  0  0  0  0  0  0  0  0  0  0
  184.0340  178.5920  143.9380 C   0  0  0  0  0  3  0  0  0  0  0  0
  1 10  1  0  0  0  0
  3  9  1  6  0  0  0
  3  5  1  0  0  0  0
  4  8  2  0  0  0  0
  5 11  1  0  0  0  0
  7  4  1  0  0  0  0
  8  2  1  0  0  0  0
  8  6  1  0  0  0  0
  9  7  1  0  0  0  0
 10  6  2  0  0  0  0
 11  4  1  0  0  0  0
 11  1  2  0  0  0  0
 13 18  1  0  0  0  0
 14 20  1  0  0  0  0
 15 12  1  1  0  0  0
 15  3  1  0  0  0  0
 17 14  1  0  0  0  0
 17 13  1  0  0  0  0
 18 16  1  6  0  0  0
 18 15  1  0  0  0  0
 19 14  2  0  0  0  0
 20 12  1  0  0  0  0
 21  1  1  0  0  0  0
 21 26  1  0  0  0  0
 22 21  2  0  0  0  0
 23 26  2  0  0  0  0
 23 27  1  0  0  0  0
 24 22  1  0  0  0  0
 24 28  2  0  0  0  0
 26 25  1  0  0  0  0
 28 23  1  0  0  0  0
M  END
>  <MODEL>
4

>  <REMARK>
 VINA RESULT:     -10.5      2.457      4.751
  Name = 
  2 active torsions:
  status: ('A' for Active; 'I' for Inactive)
    1  A    between atoms: C_1  and  C_2
    2  A    between atoms: N_10  and  C_13
                            x       y       z     vdW  Elec       q    Type
                         _______ _______ _______ _____ _____    ______ ____

>  <TORSDO>
F 2

$$$$
=
 OpenBabel11052413263D

 28 31  0  0  1  0  0  0  0  0999 V2000
  187.5100  177.9930  145.6720 C   0  0  0  0  0  0  0  0  0  0  0  0
  183.4330  179.0040  145.8430 O   0  0  0  0  0  1  0  0  0  0  0  0
  186.6980  178.3590  142.0480 N   0  0  2  0  0  0  0  0  0  0  0  0
  185.3820  178.3930  144.5340 C   0  0  0  0  0  0  0  0  0  0  0  0
  187.3550  177.6620  143.1580 C   0  0  0  0  0  2  0  0  0  0  0  0
  185.5240  178.5730  146.9470 C   0  0  0  0  0  3  0  0  0  0  0  0
  184.5810  178.5360  143.2640 C   0  0  0  0  0  2  0  0  0  0  0  0
  184.7780  178.6580  145.7720 C   0  0  0  0  0  0  0  0  0  0  0  0
  185.3010  177.9150  142.0680 C   0  0  0  0  0  2  0  0  0  0  0  0
  186.8780  178.2390  146.8980 C   0  0  0  0  0  3  0  0  0  0  0  0
  186.7560  178.0670  144.4800 C   0  0  0  0  0  0  0  0  0  0  0  0
  186.6550  178.6280  139.5900 C   0  0  0  0  0  2  0  0  0  0  0  0
  189.4290  178.5020  139.4020 C   0  0  0  0  0  2  0  0  0  0  0  0
  187.8850  176.9970  138.0120 C   0  0  0  0  0  0  0  0  0  0  0  0
  187.3210  177.9330  140.7840 C   0  0  1  0  0  3  0  0  0  0  0  0
  189.5300  177.2090  141.3990 F   0  0  0  0  0  0  0  0  0  0  0  0
  189.1770  177.3840  138.5040 N   0  0  0  0  0  2  0  0  0  0  0  0
  188.8370  178.2390  140.7900 C   0  0  1  0  0  3  0  0  0  0  0  0
  187.8120  176.0180  137.2260 O   0  0  0  0  0  0  0  0  0  0  0  0
  186.6060  177.7150  138.3660 C   0  0  0  0  0  2  0  0  0  0  0  0
  188.9450  177.6420  145.6730 C   0  0  0  0  0  0  0  0  0  0  0  0
  189.7540  178.0750  144.6120 C   0  0  0  0  0  3  0  0  0  0  0  0
  190.8840  176.5620  146.6720 C   0  0  0  0  0  0  0  0  0  0  0  0
  191.1140  177.7640  144.5840 C   0  0  0  0  0  3  0  0  0  0  0  0
  188.7300  176.3740  147.7400 O   0  0  0  0  0  1  0  0  0  0  0  0
  189.5160  176.8630  146.7010 C   0  0  0  0  0  0  0  0  0  0  0  0
  191.4410  175.8220  147.6620 F   0  0  0  0  0  0  0  0  0  0  0  0
  191.6790  177.0100  145.6160 C   0  0  0  0  0  3  0  0  0  0  0  0
  1 21  1  0  0  0  0
  1 10  1  0  0  0  0
  3  9  1  6  0  0  0
  3  5  1  0  0  0  0
  4  8  2  0  0  0  0
  5 11  1  0  0  0  0
  7  4  1  0  0  0  0
  8  2  1  0  0  0  0
  8  6  1  0  0  0  0
  9  7  1  0  0  0  0
 10  6  2  0  0  0  0
 11  4  1  0  0  0  0
 11  1  2  0  0  0  0
 13 18  1  0  0  0  0
 14 20  1  0  0  0  0
 14 17  1  0  0  0  0
 15 12  1  6  0  0  0
 15 18  1  0  0  0  0
 15  3  1  0  0  0  0
 17 13  1  0  0  0  0
 18 16  1  6  0  0  0
 19 14  2  0  0  0  0
 20 12  1  0  0  0  0
 21 26  1  0  0  0  0
 22 21  2  0  0  0  0
 23 26  2  0  0  0  0
 23 27  1  0  0  0  0
 24 22  1  0  0  0  0
 24 28  2  0  0  0  0
 26 25  1  0  0  0  0
 28 23  1  0  0  0  0
M  END
>  <MODEL>
5

>  <REMARK>
 VINA RESULT:     -10.4      2.229      3.060
  Name = 
  2 active torsions:
  status: ('A' for Active; 'I' for Inactive)
    1  A    between atoms: C_1  and  C_2
    2  A    between atoms: N_10  and  C_13
                            x       y       z     vdW  Elec       q    Type
                         _______ _______ _______ _____ _____    ______ ____

>  <TORSDO>
F 2

$$$$
=
 OpenBabel11052413263D

 28 31  0  0  1  0  0  0  0  0999 V2000
  186.8010  178.2930  141.5610 C   0  0  0  0  0  0  0  0  0  0  0  0
  183.1780  179.1120  143.5290 O   0  0  0  0  0  1  0  0  0  0  0  0
  187.6200  177.2610  145.0520 N   0  0  2  0  0  0  0  0  0  0  0  0
  185.5170  178.4780  143.6350 C   0  0  0  0  0  0  0  0  0  0  0  0
  187.9640  177.9200  143.7890 C   0  0  0  0  0  2  0  0  0  0  0  0
  184.4640  178.9580  141.5050 C   0  0  0  0  0  3  0  0  0  0  0  0
  185.4110  178.3130  145.1300 C   0  0  0  0  0  2  0  0  0  0  0  0
  184.3850  178.8480  142.8930 C   0  0  0  0  0  0  0  0  0  0  0  0
  186.7870  178.2180  145.7880 C   0  0  0  0  0  2  0  0  0  0  0  0
  185.6630  178.6860  140.8440 C   0  0  0  0  0  3  0  0  0  0  0  0
  186.7290  178.1910  142.9680 C   0  0  0  0  0  0  0  0  0  0  0  0
  190.0380  177.7640  145.1810 C   0  0  0  0  0  2  0  0  0  0  0  0
  189.9900  177.8980  147.9610 C   0  0  0  0  0  2  0  0  0  0  0  0
  191.6410  176.4080  146.6820 C   0  0  0  0  0  0  0  0  0  0  0  0
  188.8570  177.0160  145.8120 C   0  0  1  0  0  3  0  0  0  0  0  0
  188.1160  176.4300  148.0230 F   0  0  0  0  0  0  0  0  0  0  0  0
  191.0040  176.8550  147.8880 N   0  0  0  0  0  2  0  0  0  0  0  0
  188.6900  177.4510  147.2860 C   0  0  1  0  0  3  0  0  0  0  0  0
  192.5160  175.5080  146.7650 O   0  0  0  0  0  0  0  0  0  0  0  0
  191.3400  176.9740  145.3160 C   0  0  0  0  0  2  0  0  0  0  0  0
  188.0470  178.0170  140.8160 C   0  0  0  0  0  0  0  0  0  0  0  0
  189.1710  177.5550  141.5140 C   0  0  0  0  0  3  0  0  0  0  0  0
  189.3350  177.9450  138.7520 C   0  0  0  0  0  0  0  0  0  0  0  0
  190.3630  177.2820  140.8400 C   0  0  0  0  0  3  0  0  0  0  0  0
  187.0580  178.7380  138.7110 O   0  0  0  0  0  1  0  0  0  0  0  0
  188.1390  178.2300  139.4240 C   0  0  0  0  0  0  0  0  0  0  0  0
  189.4280  178.1380  137.4130 F   0  0  0  0  0  0  0  0  0  0  0  0
  190.4420  177.4740  139.4590 C   0  0  0  0  0  3  0  0  0  0  0  0
  1 11  1  0  0  0  0
  3  5  1  6  0  0  0
  3  9  1  0  0  0  0
  3 15  1  0  0  0  0
  4  7  1  0  0  0  0
  6  8  2  0  0  0  0
  7  9  1  0  0  0  0
  8  2  1  0  0  0  0
  8  4  1  0  0  0  0
 10  6  1  0  0  0  0
 10  1  2  0  0  0  0
 11  4  2  0  0  0  0
 11  5  1  0  0  0  0
 12 20  1  0  0  0  0
 14 19  2  0  0  0  0
 14 17  1  0  0  0  0
 15 12  1  6  0  0  0
 15 18  1  0  0  0  0
 17 13  1  0  0  0  0
 18 13  1  0  0  0  0
 18 16  1  1  0  0  0
 20 14  1  0  0  0  0
 21 22  1  0  0  0  0
 21  1  1  0  0  0  0
 23 26  1  0  0  0  0
 23 28  2  0  0  0  0
 24 22  2  0  0  0  0
 25 26  1  0  0  0  0
 26 21  2  0  0  0  0
 27 23  1  0  0  0  0
 28 24  1  0  0  0  0
M  END
>  <MODEL>
6

>  <REMARK>
 VINA RESULT:     -10.3      2.613      6.211
  Name = 
  2 active torsions:
  status: ('A' for Active; 'I' for Inactive)
    1  A    between atoms: C_1  and  C_2
    2  A    between atoms: N_10  and  C_13
                            x       y       z     vdW  Elec       q    Type
                         _______ _______ _______ _____ _____    ______ ____

>  <TORSDO>
F 2

$$$$
=
 OpenBabel11052413263D

 28 31  0  0  1  0  0  0  0  0999 V2000
  184.1740  178.6990  142.9760 C   0  0  0  0  0  0  0  0  0  0  0  0
  184.9470  178.5070  147.1040 O   0  0  0  0  0  1  0  0  0  0  0  0
  187.5750  177.1630  143.0080 N   0  0  2  0  0  0  0  0  0  0  0  0
  185.7240  178.2640  144.8180 C   0  0  0  0  0  0  0  0  0  0  0  0
  186.5900  178.1010  142.4630 C   0  0  0  0  0  2  0  0  0  0  0  0
  183.4490  178.9640  145.2800 C   0  0  0  0  0  3  0  0  0  0  0  0
  187.0670  177.7970  145.3180 C   0  0  0  0  0  2  0  0  0  0  0  0
  184.7090  178.5760  145.7350 C   0  0  0  0  0  0  0  0  0  0  0  0
  188.1180  177.8070  144.2080 C   0  0  0  0  0  2  0  0  0  0  0  0
  183.1850  179.0280  143.9120 C   0  0  0  0  0  3  0  0  0  0  0  0
  185.4550  178.3160  143.4320 C   0  0  0  0  0  0  0  0  0  0  0  0
  188.6600  178.1340  141.0090 C   0  0  0  0  0  2  0  0  0  0  0  0
  191.2020  177.4100  141.8820 C   0  0  0  0  0  2  0  0  0  0  0  0
  190.3140  176.7860  139.5580 C   0  0  0  0  0  0  0  0  0  0  0  0
  188.6560  176.9860  142.0260 C   0  0  1  0  0  3  0  0  0  0  0  0
  190.2830  175.6100  143.1410 F   0  0  0  0  0  0  0  0  0  0  0  0
  191.2790  176.6940  140.6170 N   0  0  0  0  0  2  0  0  0  0  0  0
  190.0300  176.9070  142.7310 C   0  0  1  0  0  3  0  0  0  0  0  0
  190.5130  176.1230  138.5070 O   0  0  0  0  0  0  0  0  0  0  0  0
  189.0820  177.6540  139.6210 C   0  0  0  0  0  2  0  0  0  0  0  0
  183.8450  178.7830  141.5380 C   0  0  0  0  0  0  0  0  0  0  0  0
  184.8630  179.0840  140.6210 C   0  0  0  0  0  3  0  0  0  0  0  0
  182.2590  178.6700  139.6950 C   0  0  0  0  0  0  0  0  0  0  0  0
  184.5870  179.1680  139.2560 C   0  0  0  0  0  3  0  0  0  0  0  0
  181.4870  178.3460  141.9560 O   0  0  0  0  0  1  0  0  0  0  0  0
  182.5290  178.5930  141.0680 C   0  0  0  0  0  0  0  0  0  0  0  0
  180.9990  178.4780  139.2340 F   0  0  0  0  0  0  0  0  0  0  0  0
  183.2850  178.9580  138.7930 C   0  0  0  0  0  3  0  0  0  0  0  0
  1 11  2  0  0  0  0
  1 10  1  0  0  0  0
  3  5  1  6  0  0  0
  3  9  1  0  0  0  0
  4  7  1  0  0  0  0
  4  8  2  0  0  0  0
  5 11  1  0  0  0  0
  6  8  1  0  0  0  0
  8  2  1  0  0  0  0
  9  7  1  0  0  0  0
 10  6  2  0  0  0  0
 11  4  1  0  0  0  0
 13 18  1  0  0  0  0
 14 20  1  0  0  0  0
 14 17  1  0  0  0  0
 15 12  1  6  0  0  0
 15 18  1  0  0  0  0
 15  3  1  0  0  0  0
 17 13  1  0  0  0  0
 18 16  1  6  0  0  0
 19 14  2  0  0  0  0
 20 12  1  0  0  0  0
 21  1  1  0  0  0  0
 22 21  2  0  0  0  0
 23 26  2  0  0  0  0
 24 22  1  0  0  0  0
 26 21  1  0  0  0  0
 26 25  1  0  0  0  0
 27 23  1  0  0  0  0
 28 24  2  0  0  0  0
 28 23  1  0  0  0  0
M  END
>  <MODEL>
7

>  <REMARK>
 VINA RESULT:     -10.2      2.295      5.270
  Name = 
  2 active torsions:
  status: ('A' for Active; 'I' for Inactive)
    1  A    between atoms: C_1  and  C_2
    2  A    between atoms: N_10  and  C_13
                            x       y       z     vdW  Elec       q    Type
                         _______ _______ _______ _____ _____    ______ ____

>  <TORSDO>
F 2

$$$$
=
 OpenBabel11052413263D

 28 31  0  0  1  0  0  0  0  0999 V2000
  188.9950  177.4560  145.5670 C   0  0  0  0  0  0  0  0  0  0  0  0
  187.2210  178.2240  149.3000 O   0  0  0  0  0  1  0  0  0  0  0  0
  185.8010  179.0860  144.5330 N   0  0  2  0  0  0  0  0  0  0  0  0
  187.0620  178.1820  146.8790 C   0  0  0  0  0  0  0  0  0  0  0  0
  186.8290  178.0540  144.3790 C   0  0  0  0  0  2  0  0  0  0  0  0
  189.0970  177.4810  147.9940 C   0  0  0  0  0  3  0  0  0  0  0  0
  185.6690  178.7530  146.9550 C   0  0  0  0  0  2  0  0  0  0  0  0
  187.7910  177.9650  148.0580 C   0  0  0  0  0  0  0  0  0  0  0  0
  184.9330  178.6260  145.6220 C   0  0  0  0  0  2  0  0  0  0  0  0
  189.6930  177.2250  146.7590 C   0  0  0  0  0  3  0  0  0  0  0  0
  187.6670  177.9360  145.6260 C   0  0  0  0  0  0  0  0  0  0  0  0
  185.5540  178.1780  142.2460 C   0  0  0  0  0  2  0  0  0  0  0  0
  182.7750  178.2500  142.3830 C   0  0  0  0  0  2  0  0  0  0  0  0
  184.0880  179.3340  140.4640 C   0  0  0  0  0  0  0  0  0  0  0  0
  185.0150  179.1640  143.2910 C   0  0  1  0  0  3  0  0  0  0  0  0
  182.8750  180.0240  143.9680 F   0  0  0  0  0  0  0  0  0  0  0  0
  182.8790  179.0910  141.1980 N   0  0  0  0  0  2  0  0  0  0  0  0
  183.5230  178.8700  143.5670 C   0  0  1  0  0  3  0  0  0  0  0  0
  184.0330  180.0710  139.4460 O   0  0  0  0  0  0  0  0  0  0  0  0
  185.4240  178.7350  140.8290 C   0  0  0  0  0  2  0  0  0  0  0  0
  189.6690  177.1690  144.2830 C   0  0  0  0  0  0  0  0  0  0  0  0
  189.3960  175.9610  143.6250 C   0  0  0  0  0  3  0  0  0  0  0  0
  191.2070  177.7640  142.4940 C   0  0  0  0  0  0  0  0  0  0  0  0
  190.0130  175.6600  142.4090 C   0  0  0  0  0  3  0  0  0  0  0  0
  190.9300  179.2490  144.3730 O   0  0  0  0  0  1  0  0  0  0  0  0
  190.5970  178.0670  143.7180 C   0  0  0  0  0  0  0  0  0  0  0  0
  192.0930  178.6280  141.9390 F   0  0  0  0  0  0  0  0  0  0  0  0
  190.9160  176.5640  141.8430 C   0  0  0  0  0  3  0  0  0  0  0  0
  1 11  2  0  0  0  0
  1 10  1  0  0  0  0
  3  5  1  6  0  0  0
  3  9  1  0  0  0  0
  4  7  1  0  0  0  0
  4  8  2  0  0  0  0
  5 11  1  0  0  0  0
  6  8  1  0  0  0  0
  8  2  1  0  0  0  0
  9  7  1  0  0  0  0
 10  6  2  0  0  0  0
 11  4  1  0  0  0  0
 13 18  1  0  0  0  0
 14 20  1  0  0  0  0
 14 17  1  0  0  0  0
 15 12  1  6  0  0  0
 15 18  1  0  0  0  0
 15  3  1  0  0  0  0
 17 13  1  0  0  0  0
 18 16  1  6  0  0  0
 19 14  2  0  0  0  0
 20 12  1  0  0  0  0
 21  1  1  0  0  0  0
 22 21  2  0  0  0  0
 23 26  2  0  0  0  0
 24 22  1  0  0  0  0
 26 21  1  0  0  0  0
 26 25  1  0  0  0  0
 27 23  1  0  0  0  0
 28 24  2  0  0  0  0
 28 23  1  0  0  0  0
M  END
>  <MODEL>
8

>  <REMARK>
 VINA RESULT:     -10.0      2.919      5.930
  Name = 
  2 active torsions:
  status: ('A' for Active; 'I' for Inactive)
    1  A    between atoms: C_1  and  C_2
    2  A    between atoms: N_10  and  C_13
                            x       y       z     vdW  Elec       q    Type
                         _______ _______ _______ _____ _____    ______ ____

>  <TORSDO>
F 2

$$$$
=
 OpenBabel11052413263D

 28 31  0  0  1  0  0  0  0  0999 V2000
  185.8440  178.5480  141.6250 C   0  0  0  0  0  0  0  0  0  0  0  0
  188.1890  178.1430  138.1590 O   0  0  0  0  0  1  0  0  0  0  0  0
  189.2640  178.2540  143.0900 N   0  0  2  0  0  0  0  0  0  0  0  0
  188.0080  178.0940  140.5790 C   0  0  0  0  0  0  0  0  0  0  0  0
  187.8340  177.9340  143.0820 C   0  0  0  0  0  2  0  0  0  0  0  0
  186.0630  178.5530  139.2050 C   0  0  0  0  0  3  0  0  0  0  0  0
  189.4890  177.8310  140.6890 C   0  0  0  0  0  2  0  0  0  0  0  0
  187.4240  178.2640  139.3140 C   0  0  0  0  0  0  0  0  0  0  0  0
  189.8780  177.3700  142.0940 C   0  0  0  0  0  2  0  0  0  0  0  0
  185.2800  178.6910  140.3510 C   0  0  0  0  0  3  0  0  0  0  0  0
  187.2190  178.2450  141.7410 C   0  0  0  0  0  0  0  0  0  0  0  0
  188.9460  176.8900  145.1290 C   0  0  0  0  0  2  0  0  0  0  0  0
  191.6800  176.4510  145.4130 C   0  0  0  0  0  2  0  0  0  0  0  0
  190.2290  177.3760  147.3150 C   0  0  0  0  0  0  0  0  0  0  0  0
  189.8140  177.9370  144.4190 C   0  0  1  0  0  3  0  0  0  0  0  0
  192.1500  178.4840  144.2650 F   0  0  0  0  0  0  0  0  0  0  0  0
  191.4980  177.0510  146.7270 N   0  0  0  0  0  2  0  0  0  0  0  0
  191.2660  177.4200  144.3010 C   0  0  1  0  0  3  0  0  0  0  0  0
  190.2140  177.8770  148.4690 O   0  0  0  0  0  0  0  0  0  0  0  0
  188.9040  177.1270  146.6380 C   0  0  0  0  0  2  0  0  0  0  0  0
  184.9720  178.7020  142.8080 C   0  0  0  0  0  0  0  0  0  0  0  0
  185.5580  178.8980  144.0670 C   0  0  0  0  0  3  0  0  0  0  0  0
  182.7740  178.7970  143.8480 C   0  0  0  0  0  0  0  0  0  0  0  0
  184.7620  179.0500  145.2050 C   0  0  0  0  0  3  0  0  0  0  0  0
  182.9570  178.3880  141.4790 O   0  0  0  0  0  1  0  0  0  0  0  0
  183.5670  178.6340  142.7050 C   0  0  0  0  0  0  0  0  0  0  0  0
  181.4220  178.7420  143.7560 F   0  0  0  0  0  0  0  0  0  0  0  0
  183.3710  179.0030  145.0930 C   0  0  0  0  0  3  0  0  0  0  0  0
  1 11  1  0  0  0  0
  1 21  1  0  0  0  0
  2  8  1  0  0  0  0
  3  9  1  6  0  0  0
  3 15  1  0  0  0  0
  4  7  1  0  0  0  0
  4 11  2  0  0  0  0
  5  3  1  0  0  0  0
  6  8  2  0  0  0  0
  6 10  1  0  0  0  0
  7  9  1  0  0  0  0
  8  4  1  0  0  0  0
 10  1  2  0  0  0  0
 11  5  1  0  0  0  0
 12 20  1  0  0  0  0
 13 17  1  0  0  0  0
 14 19  2  0  0  0  0
 15 12  1  6  0  0  0
 17 14  1  0  0  0  0
 18 16  1  1  0  0  0
 18 15  1  0  0  0  0
 18 13  1  0  0  0  0
 20 14  1  0  0  0  0
 21 22  1  0  0  0  0
 22 24  2  0  0  0  0
 23 28  2  0  0  0  0
 25 26  1  0  0  0  0
 26 21  2  0  0  0  0
 26 23  1  0  0  0  0
 27 23  1  0  0  0  0
 28 24  1  0  0  0  0
M  END
>  <MODEL>
9

>  <REMARK>
 VINA RESULT:      -9.9      3.005      5.558
  Name = 
  2 active torsions:
  status: ('A' for Active; 'I' for Inactive)
    1  A    between atoms: C_1  and  C_2
    2  A    between atoms: N_10  and  C_13
                            x       y       z     vdW  Elec       q    Type
                         _______ _______ _______ _____ _____    ______ ____

>  <TORSDO>
F 2

$$$$
