=
 OpenBabel11052416463D

 32 37  0  0  1  0  0  0  0  0999 V2000
  181.1460  179.6950  143.1890 C   0  0  0  0  0  2  0  0  0  0  0  0
  185.9830  178.0980  142.9970 C   0  0  2  0  0  3  0  0  0  0  0  0
  187.5630  178.0420  147.7710 C   0  0  0  0  0  2  0  0  0  0  0  0
  188.9220  178.2500  147.0970 C   0  0  0  0  0  2  0  0  0  0  0  0
  188.1200  177.5670  141.6970 C   0  0  0  0  0  0  0  0  0  0  0  0
  187.9440  178.3780  140.5640 C   0  0  0  0  0  0  0  0  0  0  0  0
  183.6550  178.6640  142.3330 C   0  0  2  0  0  3  0  0  0  0  0  0
  184.4740  178.8620  144.7240 O   0  0  0  0  0  0  0  0  0  0  0  0
  190.3970  177.0810  141.0660 C   0  0  0  0  0  0  0  0  0  0  0  0
  182.2610  179.5130  144.1870 C   0  0  0  0  0  3  0  0  0  0  0  0
  186.3900  178.3530  146.8230 C   0  0  0  0  0  2  0  0  0  0  0  0
  185.5500  177.9660  144.4530 C   0  0  2  0  0  3  0  0  0  0  0  0
  186.7610  178.1980  145.3410 C   0  0  2  0  0  3  0  0  0  0  0  0
  187.8410  176.4480  143.7330 C   0  0  2  0  0  3  0  0  0  0  0  0
  190.2410  177.8770  139.9220 C   0  0  0  0  0  3  0  0  0  0  0  0
  183.4390  179.0210  143.7970 C   0  0  0  0  0  0  0  0  0  0  0  0
  189.0190  178.5250  139.6730 C   0  0  0  0  0  3  0  0  0  0  0  0
  182.3840  178.1500  141.7150 C   0  0  0  0  0  3  0  0  0  0  0  0
  181.2010  178.6340  142.1090 C   0  0  0  0  0  0  0  0  0  0  0  0
  189.0920  177.3410  145.8690 C   0  0  0  0  0  2  0  0  0  0  0  0
  187.7560  177.0390  145.1670 C   0  0  1  0  0  3  0  0  0  0  0  0
  189.2780  176.1940  143.2210 C   0  0  0  0  0  2  0  0  0  0  0  0
  184.8030  177.6720  142.1330 C   0  0  0  0  0  2  0  0  0  0  0  0
  186.7460  179.0320  140.3120 O   0  0  0  0  0  1  0  0  0  0  0  0
  191.5790  176.4660  141.3170 F   0  0  0  0  0  0  0  0  0  0  0  0
  187.1810  177.2980  142.7290 N   0  0  0  0  0  0  0  0  0  0  0  0
  189.3160  176.9440  141.9380 C   0  0  0  0  0  0  0  0  0  0  0  0
  180.0370  178.1560  141.4980 O   0  0  0  0  0  0  0  0  0  0  0  0
  180.0090  177.6810  140.1570 C   0  0  0  0  0  2  0  0  0  0  0  0
  179.5870  176.2220  140.1190 C   0  0  2  0  0  3  0  0  0  0  0  0
  179.0300  175.8590  141.3450 O   0  0  0  0  0  1  0  0  0  0  0  0
  180.7970  175.3560  139.8410 C   0  0  0  0  0  1  0  0  0  0  0  0
  1 10  1  0  0  0  0
  2 23  1  6  0  0  0
  2 12  1  0  0  0  0
  4  3  1  0  0  0  0
  5 27  1  0  0  0  0
  5 26  1  0  0  0  0
  6  5  2  0  0  0  0
  7 18  1  1  0  0  0
  7 16  1  0  0  0  0
  9 25  1  0  0  0  0
  9 27  2  0  0  0  0
 11  3  1  0  0  0  0
 12  8  1  1  0  0  0
 12 13  1  0  0  0  0
 13 11  1  1  0  0  0
 14 22  1  6  0  0  0
 14 21  1  0  0  0  0
 15  9  1  0  0  0  0
 16 10  2  0  0  0  0
 16  8  1  0  0  0  0
 17 15  2  0  0  0  0
 17  6  1  0  0  0  0
 18 19  2  0  0  0  0
 19  1  1  0  0  0  0
 20  4  1  0  0  0  0
 21 13  1  0  0  0  0
 21 20  1  6  0  0  0
 23  7  1  0  0  0  0
 24  6  1  0  0  0  0
 26  2  1  0  0  0  0
 26 14  1  0  0  0  0
 27 22  1  0  0  0  0
 28 19  1  0  0  0  0
 29 28  1  0  0  0  0
 30 32  1  1  0  0  0
 30 29  1  0  0  0  0
 30 31  1  0  0  0  0
M  END
>  <MODEL>
1

>  <REMARK>
 VINA RESULT:      -9.4      0.000      0.000
  Name = 
  3 active torsions:
  status: ('A' for Active; 'I' for Inactive)
    1  A    between atoms: C_1  and  C_10
    2  A    between atoms: C_10  and  O_19
    3  A    between atoms: O_19  and  C_24
                            x       y       z     vdW  Elec       q    Type
                         _______ _______ _______ _____ _____    ______ ____

>  <TORSDO>
F 3

$$$$
=
 OpenBabel11052416463D

 32 37  0  0  1  0  0  0  0  0999 V2000
  189.4470  178.2510  136.6910 C   0  0  0  0  0  2  0  0  0  0  0  0
  188.6830  177.7100  141.7010 C   0  0  2  0  0  3  0  0  0  0  0  0
  184.0060  179.3640  142.5260 C   0  0  0  0  0  2  0  0  0  0  0  0
  184.5830  179.6460  143.9170 C   0  0  0  0  0  2  0  0  0  0  0  0
  189.5490  177.2820  144.0690 C   0  0  0  0  0  0  0  0  0  0  0  0
  190.8900  177.6770  143.9310 C   0  0  0  0  0  0  0  0  0  0  0  0
  189.7020  177.5620  139.4380 C   0  0  2  0  0  3  0  0  0  0  0  0
  187.4280  178.6080  139.8410 O   0  0  0  0  0  0  0  0  0  0  0  0
  189.7840  177.1200  146.4640 C   0  0  0  0  0  0  0  0  0  0  0  0
  188.3440  178.6010  137.6560 C   0  0  0  0  0  3  0  0  0  0  0  0
  185.1080  179.1380  141.4760 C   0  0  0  0  0  2  0  0  0  0  0  0
  187.3050  177.9160  141.0820 C   0  0  2  0  0  3  0  0  0  0  0  0
  186.4260  178.6420  142.0870 C   0  0  2  0  0  3  0  0  0  0  0  0
  187.3000  176.7670  143.6800 C   0  0  2  0  0  3  0  0  0  0  0  0
  191.1280  177.5010  146.3490 C   0  0  0  0  0  3  0  0  0  0  0  0
  188.4500  178.2740  138.9450 C   0  0  0  0  0  0  0  0  0  0  0  0
  191.6790  177.7800  145.0870 C   0  0  0  0  0  3  0  0  0  0  0  0
  190.2430  176.6390  138.3820 C   0  0  0  0  0  3  0  0  0  0  0  0
  190.1310  176.9590  137.0880 C   0  0  0  0  0  0  0  0  0  0  0  0
  185.4450  178.4790  144.4230 C   0  0  0  0  0  2  0  0  0  0  0  0
  186.1370  177.7150  143.2790 C   0  0  1  0  0  3  0  0  0  0  0  0
  187.5720  176.6810  145.1990 C   0  0  0  0  0  2  0  0  0  0  0  0
  189.4750  176.8170  140.7550 C   0  0  0  0  0  2  0  0  0  0  0  0
  191.4430  177.9660  142.6910 O   0  0  0  0  0  1  0  0  0  0  0  0
  189.2450  176.8640  147.6810 F   0  0  0  0  0  0  0  0  0  0  0  0
  188.5760  177.1340  143.0440 N   0  0  0  0  0  0  0  0  0  0  0  0
  189.0160  177.0190  145.3030 C   0  0  0  0  0  0  0  0  0  0  0  0
  190.6670  176.0940  136.1280 O   0  0  0  0  0  0  0  0  0  0  0  0
  189.9410  174.9950  135.5900 C   0  0  0  0  0  2  0  0  0  0  0  0
  190.4640  173.6850  136.1550 C   0  0  2  0  0  3  0  0  0  0  0  0
  189.8070  173.3900  137.3500 O   0  0  0  0  0  1  0  0  0  0  0  0
  191.9490  173.8070  136.4160 C   0  0  0  0  0  1  0  0  0  0  0  0
  1 19  1  0  0  0  0
  1 10  1  0  0  0  0
  2 23  1  6  0  0  0
  2 26  1  0  0  0  0
  3  4  1  0  0  0  0
  4 20  1  0  0  0  0
  5 27  1  0  0  0  0
  6  5  2  0  0  0  0
  6 17  1  0  0  0  0
  7 18  1  6  0  0  0
  7 23  1  0  0  0  0
  9 25  1  0  0  0  0
 10 16  2  0  0  0  0
 11  3  1  0  0  0  0
 12  8  1  6  0  0  0
 12  2  1  0  0  0  0
 12 13  1  0  0  0  0
 13 11  1  6  0  0  0
 13 21  1  0  0  0  0
 14 22  1  1  0  0  0
 15  9  1  0  0  0  0
 16  7  1  0  0  0  0
 16  8  1  0  0  0  0
 17 15  2  0  0  0  0
 19 18  2  0  0  0  0
 21 14  1  0  0  0  0
 21 20  1  1  0  0  0
 22 27  1  0  0  0  0
 24  6  1  0  0  0  0
 26 14  1  0  0  0  0
 26  5  1  0  0  0  0
 27  9  2  0  0  0  0
 28 19  1  0  0  0  0
 29 28  1  0  0  0  0
 29 30  1  0  0  0  0
 30 32  1  1  0  0  0
 30 31  1  0  0  0  0
M  END
>  <MODEL>
2

>  <REMARK>
 VINA RESULT:      -9.2      3.414      7.100
  Name = 
  3 active torsions:
  status: ('A' for Active; 'I' for Inactive)
    1  A    between atoms: C_1  and  C_10
    2  A    between atoms: C_10  and  O_19
    3  A    between atoms: O_19  and  C_24
                            x       y       z     vdW  Elec       q    Type
                         _______ _______ _______ _____ _____    ______ ____

>  <TORSDO>
F 3

$$$$
=
 OpenBabel11052416463D

 32 37  0  0  1  0  0  0  0  0999 V2000
  191.0150  178.6520  144.3470 C   0  0  0  0  0  2  0  0  0  0  0  0
  189.5830  177.0850  139.7130 C   0  0  2  0  0  3  0  0  0  0  0  0
  193.8470  175.8890  137.3300 C   0  0  0  0  0  2  0  0  0  0  0  0
  193.0020  176.2320  136.1000 C   0  0  0  0  0  2  0  0  0  0  0  0
  187.8280  176.8480  137.8690 C   0  0  0  0  0  0  0  0  0  0  0  0
  186.9630  177.9050  138.1940 C   0  0  0  0  0  0  0  0  0  0  0  0
  189.5030  177.8200  142.0870 C   0  0  2  0  0  3  0  0  0  0  0  0
  191.6850  177.4400  140.8530 O   0  0  0  0  0  0  0  0  0  0  0  0
  186.6980  176.4950  135.7660 C   0  0  0  0  0  0  0  0  0  0  0  0
  191.7240  178.2260  143.0870 C   0  0  0  0  0  3  0  0  0  0  0  0
  193.2260  176.4290  138.6310 C   0  0  0  0  0  2  0  0  0  0  0  0
  191.0240  176.6200  139.8920 C   0  0  2  0  0  3  0  0  0  0  0  0
  191.7060  176.6210  138.5340 C   0  0  2  0  0  3  0  0  0  0  0  0
  189.5700  175.2850  137.8480 C   0  0  2  0  0  3  0  0  0  0  0  0
  185.8150  177.5400  136.0760 C   0  0  0  0  0  3  0  0  0  0  0  0
  191.0240  177.8260  142.0250 C   0  0  0  0  0  0  0  0  0  0  0  0
  185.9490  178.2430  137.2860 C   0  0  0  0  0  3  0  0  0  0  0  0
  189.0260  177.4820  143.4720 C   0  0  0  0  0  3  0  0  0  0  0  0
  189.7290  177.8740  144.5400 C   0  0  0  0  0  0  0  0  0  0  0  0
  191.5880  175.6360  136.1970 C   0  0  0  0  0  2  0  0  0  0  0  0
  191.0920  175.5240  137.6490 C   0  0  1  0  0  3  0  0  0  0  0  0
  188.7600  175.1410  136.5390 C   0  0  0  0  0  2  0  0  0  0  0  0
  188.8760  176.8890  141.0470 C   0  0  0  0  0  2  0  0  0  0  0  0
  187.0910  178.6140  139.3810 O   0  0  0  0  0  1  0  0  0  0  0  0
  186.5820  175.8240  134.5940 F   0  0  0  0  0  0  0  0  0  0  0  0
  188.9250  176.3560  138.6260 N   0  0  0  0  0  0  0  0  0  0  0  0
  187.6980  176.1710  136.6840 C   0  0  0  0  0  0  0  0  0  0  0  0
  189.2490  177.5670  145.8170 O   0  0  0  0  0  0  0  0  0  0  0  0
  187.8610  177.4660  146.1150 C   0  0  0  0  0  2  0  0  0  0  0  0
  187.6100  177.7510  147.5860 C   0  0  2  0  0  3  0  0  0  0  0  0
  186.6910  178.7920  147.7150 O   0  0  0  0  0  1  0  0  0  0  0  0
  188.9110  178.1450  148.2500 C   0  0  0  0  0  1  0  0  0  0  0  0
  1 19  1  0  0  0  0
  2 12  1  0  0  0  0
  2 23  1  1  0  0  0
  3 11  1  0  0  0  0
  4 20  1  0  0  0  0
  4  3  1  0  0  0  0
  5  6  1  0  0  0  0
  5 26  1  0  0  0  0
  6 24  1  0  0  0  0
  7 23  1  6  0  0  0
  7 18  1  0  0  0  0
  8 16  1  0  0  0  0
  9 15  2  0  0  0  0
  9 27  1  0  0  0  0
 10  1  1  0  0  0  0
 12  8  1  1  0  0  0
 13 11  1  1  0  0  0
 13 12  1  0  0  0  0
 14 22  1  6  0  0  0
 14 26  1  0  0  0  0
 15 17  1  0  0  0  0
 16  7  1  0  0  0  0
 16 10  2  0  0  0  0
 17  6  2  0  0  0  0
 18 19  2  0  0  0  0
 19 28  1  0  0  0  0
 21 20  1  6  0  0  0
 21 14  1  0  0  0  0
 21 13  1  0  0  0  0
 22 27  1  0  0  0  0
 25  9  1  0  0  0  0
 26  2  1  0  0  0  0
 27  5  2  0  0  0  0
 28 29  1  0  0  0  0
 29 30  1  0  0  0  0
 30 31  1  0  0  0  0
 30 32  1  6  0  0  0
M  END
>  <MODEL>
3

>  <REMARK>
 VINA RESULT:      -8.2      4.569      8.172
  Name = 
  3 active torsions:
  status: ('A' for Active; 'I' for Inactive)
    1  A    between atoms: C_1  and  C_10
    2  A    between atoms: C_10  and  O_19
    3  A    between atoms: O_19  and  C_24
                            x       y       z     vdW  Elec       q    Type
                         _______ _______ _______ _____ _____    ______ ____

>  <TORSDO>
F 3

$$$$
=
 OpenBabel11052416463D

 32 37  0  0  1  0  0  0  0  0999 V2000
  182.8490  179.8000  144.2260 C   0  0  0  0  0  2  0  0  0  0  0  0
  187.3490  177.9490  142.7080 C   0  0  2  0  0  3  0  0  0  0  0  0
  190.0590  177.4110  146.9100 C   0  0  0  0  0  2  0  0  0  0  0  0
  191.2190  177.5950  145.9280 C   0  0  0  0  0  2  0  0  0  0  0  0
  189.0470  177.4030  140.8760 C   0  0  0  0  0  0  0  0  0  0  0  0
  188.6580  178.3130  139.8800 C   0  0  0  0  0  0  0  0  0  0  0  0
  184.9790  178.7000  142.6960 C   0  0  2  0  0  3  0  0  0  0  0  0
  186.3810  178.6540  144.8080 O   0  0  0  0  0  0  0  0  0  0  0  0
  191.0520  176.8400  139.6570 C   0  0  0  0  0  0  0  0  0  0  0  0
  184.1600  179.4730  144.8940 C   0  0  0  0  0  3  0  0  0  0  0  0
  188.7150  177.8660  146.3130 C   0  0  0  0  0  2  0  0  0  0  0  0
  187.2840  177.7230  144.2140 C   0  0  2  0  0  3  0  0  0  0  0  0
  188.6920  177.8110  144.7790 C   0  0  2  0  0  3  0  0  0  0  0  0
  189.2010  176.1390  142.8390 C   0  0  2  0  0  3  0  0  0  0  0  0
  190.6760  177.7350  138.6440 C   0  0  0  0  0  3  0  0  0  0  0  0
  185.1620  178.9480  144.1860 C   0  0  0  0  0  0  0  0  0  0  0  0
  189.4840  178.4700  138.7570 C   0  0  0  0  0  3  0  0  0  0  0  0
  183.5590  178.3120  142.3890 C   0  0  0  0  0  3  0  0  0  0  0  0
  182.5520  178.8290  143.1010 C   0  0  0  0  0  0  0  0  0  0  0  0
  191.0080  176.7820  144.6400 C   0  0  0  0  0  2  0  0  0  0  0  0
  189.5210  176.6150  144.2830 C   0  0  1  0  0  3  0  0  0  0  0  0
  190.4410  175.8460  141.9640 C   0  0  0  0  0  2  0  0  0  0  0  0
  185.9620  177.6630  142.1470 C   0  0  0  0  0  2  0  0  0  0  0  0
  187.4880  179.0530  139.9840 O   0  0  0  0  0  1  0  0  0  0  0  0
  192.2090  176.1400  139.5600 F   0  0  0  0  0  0  0  0  0  0  0  0
  188.3780  177.1060  142.0930 N   0  0  0  0  0  0  0  0  0  0  0  0
  190.2150  176.6950  140.7640 C   0  0  0  0  0  0  0  0  0  0  0  0
  181.2400  178.4710  142.7770 O   0  0  0  0  0  0  0  0  0  0  0  0
  180.8780  177.9310  141.5110 C   0  0  0  0  0  2  0  0  0  0  0  0
  179.7130  178.7040  140.9160 C   0  0  2  0  0  3  0  0  0  0  0  0
  179.8000  178.6920  139.5240 O   0  0  0  0  0  1  0  0  0  0  0  0
  179.7550  180.1340  141.4090 C   0  0  0  0  0  1  0  0  0  0  0  0
  1 10  1  0  0  0  0
  2 23  1  6  0  0  0
  2 12  1  0  0  0  0
  4  3  1  0  0  0  0
  5 26  1  0  0  0  0
  6 24  1  0  0  0  0
  6  5  2  0  0  0  0
  7 23  1  1  0  0  0
  7 16  1  0  0  0  0
  9 27  2  0  0  0  0
 11  3  1  0  0  0  0
 12 13  1  0  0  0  0
 12  8  1  1  0  0  0
 13 11  1  1  0  0  0
 14 22  1  6  0  0  0
 14 21  1  0  0  0  0
 15 17  2  0  0  0  0
 15  9  1  0  0  0  0
 16  8  1  0  0  0  0
 16 10  2  0  0  0  0
 17  6  1  0  0  0  0
 18  7  1  0  0  0  0
 18 19  2  0  0  0  0
 19  1  1  0  0  0  0
 20  4  1  0  0  0  0
 21 20  1  6  0  0  0
 21 13  1  0  0  0  0
 25  9  1  0  0  0  0
 26  2  1  0  0  0  0
 26 14  1  0  0  0  0
 27  5  1  0  0  0  0
 27 22  1  0  0  0  0
 28 19  1  0  0  0  0
 29 28  1  0  0  0  0
 30 32  1  1  0  0  0
 30 29  1  0  0  0  0
 31 30  1  0  0  0  0
M  END
>  <MODEL>
4

>  <REMARK>
 VINA RESULT:      -7.6      1.541      2.055
  Name = 
  3 active torsions:
  status: ('A' for Active; 'I' for Inactive)
    1  A    between atoms: C_1  and  C_10
    2  A    between atoms: C_10  and  O_19
    3  A    between atoms: O_19  and  C_24
                            x       y       z     vdW  Elec       q    Type
                         _______ _______ _______ _____ _____    ______ ____

>  <TORSDO>
F 3

$$$$
=
 OpenBabel11052416463D

 32 37  0  0  1  0  0  0  0  0999 V2000
  189.6560  177.1190  139.0210 C   0  0  0  0  0  2  0  0  0  0  0  0
  185.6470  178.2250  141.9670 C   0  0  2  0  0  3  0  0  0  0  0  0
  187.3150  177.8390  146.6960 C   0  0  0  0  0  2  0  0  0  0  0  0
  185.8390  177.5340  146.9630 C   0  0  0  0  0  2  0  0  0  0  0  0
  183.1400  178.6140  142.2910 C   0  0  0  0  0  0  0  0  0  0  0  0
  182.6220  177.8930  141.2030 C   0  0  0  0  0  0  0  0  0  0  0  0
  187.1060  177.9390  139.9740 C   0  0  2  0  0  3  0  0  0  0  0  0
  187.9290  177.5180  142.3350 O   0  0  0  0  0  0  0  0  0  0  0  0
  180.9340  178.9030  143.2230 C   0  0  0  0  0  0  0  0  0  0  0  0
  189.3780  177.1280  140.5020 C   0  0  0  0  0  3  0  0  0  0  0  0
  187.6750  177.7040  145.2050 C   0  0  0  0  0  2  0  0  0  0  0  0
  186.8730  178.3150  142.8690 C   0  0  2  0  0  3  0  0  0  0  0  0
  186.4700  177.9090  144.2770 C   0  0  2  0  0  3  0  0  0  0  0  0
  184.5550  179.6320  143.8510 C   0  0  2  0  0  3  0  0  0  0  0  0
  180.3930  178.1960  142.1390 C   0  0  0  0  0  3  0  0  0  0  0  0
  188.1870  177.5200  140.9600 C   0  0  0  0  0  0  0  0  0  0  0  0
  181.2350  177.6910  141.1330 C   0  0  0  0  0  3  0  0  0  0  0  0
  187.7080  178.6150  138.7740 C   0  0  0  0  0  3  0  0  0  0  0  0
  188.9050  178.2320  138.3170 C   0  0  0  0  0  0  0  0  0  0  0  0
  184.9130  178.4920  146.1950 C   0  0  0  0  0  2  0  0  0  0  0  0
  185.5260  178.9690  144.8670 C   0  0  1  0  0  3  0  0  0  0  0  0
  183.0960  179.7690  144.3430 C   0  0  0  0  0  2  0  0  0  0  0  0
  186.0320  178.8200  140.6190 C   0  0  0  0  0  2  0  0  0  0  0  0
  183.4440  177.3800  140.2080 O   0  0  0  0  0  1  0  0  0  0  0  0
  180.1260  179.3780  144.2030 F   0  0  0  0  0  0  0  0  0  0  0  0
  184.5010  178.9140  142.5670 N   0  0  0  0  0  0  0  0  0  0  0  0
  182.3150  179.0960  143.2720 C   0  0  0  0  0  0  0  0  0  0  0  0
  189.4300  178.8600  137.1840 O   0  0  0  0  0  0  0  0  0  0  0  0
  189.4330  178.2530  135.8970 C   0  0  0  0  0  2  0  0  0  0  0  0
  188.2700  177.2840  135.7640 C   0  0  2  0  0  3  0  0  0  0  0  0
  188.7060  176.1040  135.1620 O   0  0  0  0  0  1  0  0  0  0  0  0
  187.1870  177.9110  134.9140 C   0  0  0  0  0  1  0  0  0  0  0  0
  1 10  1  0  0  0  0
  2 23  1  6  0  0  0
  2 26  1  0  0  0  0
  2 12  1  0  0  0  0
  3  4  1  0  0  0  0
  5 26  1  0  0  0  0
  5 27  1  0  0  0  0
  6  5  2  0  0  0  0
  7 18  1  6  0  0  0
  7 23  1  0  0  0  0
  7 16  1  0  0  0  0
  9 27  2  0  0  0  0
  9 25  1  0  0  0  0
 10 16  2  0  0  0  0
 11  3  1  0  0  0  0
 12  8  1  6  0  0  0
 12 13  1  0  0  0  0
 13 21  1  0  0  0  0
 13 11  1  1  0  0  0
 14 22  1  1  0  0  0
 14 21  1  0  0  0  0
 15  9  1  0  0  0  0
 16  8  1  0  0  0  0
 17  6  1  0  0  0  0
 17 15  2  0  0  0  0
 19 18  2  0  0  0  0
 19  1  1  0  0  0  0
 20  4  1  0  0  0  0
 21 20  1  1  0  0  0
 24  6  1  0  0  0  0
 26 14  1  0  0  0  0
 27 22  1  0  0  0  0
 28 19  1  0  0  0  0
 29 28  1  0  0  0  0
 30 32  1  6  0  0  0
 30 29  1  0  0  0  0
 31 30  1  0  0  0  0
M  END
>  <MODEL>
5

>  <REMARK>
 VINA RESULT:      -7.4      3.178      6.927
  Name = 
  3 active torsions:
  status: ('A' for Active; 'I' for Inactive)
    1  A    between atoms: C_1  and  C_10
    2  A    between atoms: C_10  and  O_19
    3  A    between atoms: O_19  and  C_24
                            x       y       z     vdW  Elec       q    Type
                         _______ _______ _______ _____ _____    ______ ____

>  <TORSDO>
F 3

$$$$
=
 OpenBabel11052416463D

 32 37  0  0  1  0  0  0  0  0999 V2000
  190.0200  176.6500  138.3230 C   0  0  0  0  0  2  0  0  0  0  0  0
  188.8100  177.4630  143.2070 C   0  0  2  0  0  3  0  0  0  0  0  0
  192.4980  175.3200  145.8720 C   0  0  0  0  0  2  0  0  0  0  0  0
  191.3850  175.2120  146.9180 C   0  0  0  0  0  2  0  0  0  0  0  0
  187.1490  178.1660  145.0200 C   0  0  0  0  0  0  0  0  0  0  0  0
  185.9310  177.9270  144.3630 C   0  0  0  0  0  0  0  0  0  0  0  0
  188.8000  177.5650  140.7230 C   0  0  2  0  0  3  0  0  0  0  0  0
  190.5580  176.2840  142.0250 O   0  0  0  0  0  0  0  0  0  0  0  0
  186.0130  178.5320  147.1160 C   0  0  0  0  0  0  0  0  0  0  0  0
  190.5910  176.2410  139.6560 C   0  0  0  0  0  3  0  0  0  0  0  0
  191.9440  175.6000  144.4630 C   0  0  0  0  0  2  0  0  0  0  0  0
  190.2770  177.0460  143.1970 C   0  0  2  0  0  3  0  0  0  0  0  0
  190.5750  176.2950  144.4840 C   0  0  2  0  0  3  0  0  0  0  0  0
  189.4170  178.3750  145.5560 C   0  0  2  0  0  3  0  0  0  0  0  0
  184.7840  178.3090  146.4790 C   0  0  0  0  0  3  0  0  0  0  0  0
  190.0310  176.6730  140.7880 C   0  0  0  0  0  0  0  0  0  0  0  0
  184.7430  178.0060  145.1070 C   0  0  0  0  0  3  0  0  0  0  0  0
  188.8550  178.4670  139.5210 C   0  0  0  0  0  3  0  0  0  0  0  0
  189.4230  178.0420  138.3870 C   0  0  0  0  0  0  0  0  0  0  0  0
  190.5670  176.5100  147.0140 C   0  0  0  0  0  2  0  0  0  0  0  0
  190.4980  177.2650  145.6750 C   0  0  1  0  0  3  0  0  0  0  0  0
  188.5820  178.6050  146.8370 C   0  0  0  0  0  2  0  0  0  0  0  0
  188.5900  178.3730  142.0060 C   0  0  0  0  0  2  0  0  0  0  0  0
  185.8780  177.6170  143.0110 O   0  0  0  0  0  1  0  0  0  0  0  0
  186.0570  178.8090  148.4420 F   0  0  0  0  0  0  0  0  0  0  0  0
  188.4580  178.1190  144.4690 N   0  0  0  0  0  0  0  0  0  0  0  0
  187.1820  178.4530  146.3590 C   0  0  0  0  0  0  0  0  0  0  0  0
  189.4380  178.8920  137.2770 O   0  0  0  0  0  0  0  0  0  0  0  0
  188.3080  179.0750  136.4310 C   0  0  0  0  0  2  0  0  0  0  0  0
  188.0290  177.8120  135.6340 C   0  0  2  0  0  3  0  0  0  0  0  0
  189.1030  177.5430  134.7860 O   0  0  0  0  0  1  0  0  0  0  0  0
  186.7750  178.0040  134.8110 C   0  0  0  0  0  1  0  0  0  0  0  0
  1 19  1  0  0  0  0
  1 10  1  0  0  0  0
  2 23  1  6  0  0  0
  2 26  1  0  0  0  0
  3  4  1  0  0  0  0
  4 20  1  0  0  0  0
  5 27  1  0  0  0  0
  6  5  2  0  0  0  0
  6 17  1  0  0  0  0
  7 18  1  6  0  0  0
  7 16  1  0  0  0  0
  7 23  1  0  0  0  0
  9 25  1  0  0  0  0
 10 16  2  0  0  0  0
 11  3  1  0  0  0  0
 12  8  1  6  0  0  0
 12  2  1  0  0  0  0
 12 13  1  0  0  0  0
 13 11  1  6  0  0  0
 13 21  1  0  0  0  0
 14 21  1  0  0  0  0
 14 22  1  1  0  0  0
 15  9  1  0  0  0  0
 16  8  1  0  0  0  0
 17 15  2  0  0  0  0
 19 18  2  0  0  0  0
 21 20  1  1  0  0  0
 24  6  1  0  0  0  0
 26  5  1  0  0  0  0
 26 14  1  0  0  0  0
 27 22  1  0  0  0  0
 27  9  2  0  0  0  0
 28 19  1  0  0  0  0
 29 28  1  0  0  0  0
 30 32  1  6  0  0  0
 30 29  1  0  0  0  0
 31 30  1  0  0  0  0
M  END
>  <MODEL>
6

>  <REMARK>
 VINA RESULT:      -7.3      3.778      6.896
  Name = 
  3 active torsions:
  status: ('A' for Active; 'I' for Inactive)
    1  A    between atoms: C_1  and  C_10
    2  A    between atoms: C_10  and  O_19
    3  A    between atoms: O_19  and  C_24
                            x       y       z     vdW  Elec       q    Type
                         _______ _______ _______ _____ _____    ______ ____

>  <TORSDO>
F 3

$$$$
=
 OpenBabel11052416463D

 32 37  0  0  1  0  0  0  0  0999 V2000
  181.5650  178.8520  137.3240 C   0  0  0  0  0  2  0  0  0  0  0  0
  185.9110  178.2210  139.9120 C   0  0  2  0  0  3  0  0  0  0  0  0
  189.1400  176.2020  136.6290 C   0  0  0  0  0  2  0  0  0  0  0  0
  189.7610  175.6440  137.9130 C   0  0  0  0  0  2  0  0  0  0  0  0
  187.2260  178.1500  142.1040 C   0  0  0  0  0  0  0  0  0  0  0  0
  186.1970  177.8600  143.0160 C   0  0  0  0  0  0  0  0  0  0  0  0
  183.6020  178.9200  139.3070 C   0  0  2  0  0  3  0  0  0  0  0  0
  185.1250  177.7030  137.6860 O   0  0  0  0  0  0  0  0  0  0  0  0
  188.9060  177.7830  143.7960 C   0  0  0  0  0  0  0  0  0  0  0  0
  182.9120  178.2430  137.0340 C   0  0  0  0  0  3  0  0  0  0  0  0
  187.7040  176.7110  136.8520 C   0  0  0  0  0  2  0  0  0  0  0  0
  186.2730  178.0930  138.4370 C   0  0  2  0  0  3  0  0  0  0  0  0
  187.4330  177.1200  138.3060 C   0  0  2  0  0  3  0  0  0  0  0  0
  188.4570  178.6300  140.1730 C   0  0  2  0  0  3  0  0  0  0  0  0
  187.8950  177.5020  144.7260 C   0  0  0  0  0  3  0  0  0  0  0  0
  183.8780  178.2780  137.9550 C   0  0  0  0  0  0  0  0  0  0  0  0
  186.5450  177.5390  144.3370 C   0  0  0  0  0  3  0  0  0  0  0  0
  182.6580  180.0810  139.1650 C   0  0  0  0  0  3  0  0  0  0  0  0
  181.6940  180.0540  138.2380 C   0  0  0  0  0  0  0  0  0  0  0  0
  189.8340  176.7090  139.0190 C   0  0  0  0  0  2  0  0  0  0  0  0
  188.6970  177.7410  138.9220 C   0  0  1  0  0  3  0  0  0  0  0  0
  189.4410  178.3870  141.3400 C   0  0  0  0  0  2  0  0  0  0  0  0
  184.8840  179.3400  140.0300 C   0  0  0  0  0  2  0  0  0  0  0  0
  184.8610  177.8830  142.6410 O   0  0  0  0  0  1  0  0  0  0  0  0
  190.2100  177.7330  144.1640 F   0  0  0  0  0  0  0  0  0  0  0  0
  187.1010  178.4760  140.7270 N   0  0  0  0  0  0  0  0  0  0  0  0
  188.5400  178.1040  142.4880 C   0  0  0  0  0  0  0  0  0  0  0  0
  180.8130  181.1360  138.1460 O   0  0  0  0  0  0  0  0  0  0  0  0
  181.2550  182.4770  137.9680 C   0  0  0  0  0  2  0  0  0  0  0  0
  180.5910  183.0990  136.7500 C   0  0  2  0  0  3  0  0  0  0  0  0
  180.8050  182.2930  135.6320 O   0  0  0  0  0  1  0  0  0  0  0  0
  181.1800  184.4700  136.5010 C   0  0  0  0  0  1  0  0  0  0  0  0
  1 19  1  0  0  0  0
  2 23  1  6  0  0  0
  2 26  1  0  0  0  0
  3 11  1  0  0  0  0
  3  4  1  0  0  0  0
  4 20  1  0  0  0  0
  5 27  2  0  0  0  0
  5  6  1  0  0  0  0
  6 17  2  0  0  0  0
  7 18  1  6  0  0  0
  7 23  1  0  0  0  0
  8 16  1  0  0  0  0
  9 25  1  0  0  0  0
  9 15  2  0  0  0  0
 10  1  1  0  0  0  0
 10 16  2  0  0  0  0
 12  8  1  6  0  0  0
 12  2  1  0  0  0  0
 13 11  1  6  0  0  0
 13 12  1  0  0  0  0
 13 21  1  0  0  0  0
 14 26  1  0  0  0  0
 14 22  1  1  0  0  0
 16  7  1  0  0  0  0
 17 15  1  0  0  0  0
 19 18  2  0  0  0  0
 21 20  1  1  0  0  0
 21 14  1  0  0  0  0
 22 27  1  0  0  0  0
 24  6  1  0  0  0  0
 26  5  1  0  0  0  0
 27  9  1  0  0  0  0
 28 19  1  0  0  0  0
 29 28  1  0  0  0  0
 30 32  1  6  0  0  0
 30 29  1  0  0  0  0
 31 30  1  0  0  0  0
M  END
>  <MODEL>
7

>  <REMARK>
 VINA RESULT:      -7.1      3.496      5.983
  Name = 
  3 active torsions:
  status: ('A' for Active; 'I' for Inactive)
    1  A    between atoms: C_1  and  C_10
    2  A    between atoms: C_10  and  O_19
    3  A    between atoms: O_19  and  C_24
                            x       y       z     vdW  Elec       q    Type
                         _______ _______ _______ _____ _____    ______ ____

>  <TORSDO>
F 3

$$$$
=
 OpenBabel11052416463D

 32 37  0  0  1  0  0  0  0  0999 V2000
  187.9130  177.3920  143.8670 C   0  0  0  0  0  2  0  0  0  0  0  0
  184.0590  178.4140  140.6920 C   0  0  2  0  0  3  0  0  0  0  0  0
  180.0410  179.0870  143.6400 C   0  0  0  0  0  2  0  0  0  0  0  0
  179.3070  178.6280  142.3760 C   0  0  0  0  0  2  0  0  0  0  0  0
  183.0490  178.4950  138.3450 C   0  0  0  0  0  0  0  0  0  0  0  0
  183.8330  177.5320  137.6900 C   0  0  0  0  0  0  0  0  0  0  0  0
  186.3470  177.9970  141.5720 C   0  0  2  0  0  3  0  0  0  0  0  0
  184.3090  178.1090  143.0770 O   0  0  0  0  0  0  0  0  0  0  0  0
  181.5400  178.6270  136.4660 C   0  0  0  0  0  0  0  0  0  0  0  0
  186.4300  177.6170  144.0110 C   0  0  0  0  0  3  0  0  0  0  0  0
  181.5420  178.7490  143.5940 C   0  0  0  0  0  2  0  0  0  0  0  0
  183.5860  178.8290  142.0810 C   0  0  2  0  0  3  0  0  0  0  0  0
  182.0830  178.6190  142.1630 C   0  0  2  0  0  3  0  0  0  0  0  0
  182.1240  179.9560  139.9210 C   0  0  2  0  0  3  0  0  0  0  0  0
  182.3160  177.6750  135.7880 C   0  0  0  0  0  3  0  0  0  0  0  0
  185.6880  177.9100  142.9410 C   0  0  0  0  0  0  0  0  0  0  0  0
  183.4570  177.1280  136.3990 C   0  0  0  0  0  3  0  0  0  0  0  0
  187.7470  178.5340  141.6860 C   0  0  0  0  0  3  0  0  0  0  0  0
  188.4910  178.2500  142.7600 C   0  0  0  0  0  0  0  0  0  0  0  0
  179.8730  179.2990  141.1150 C   0  0  0  0  0  2  0  0  0  0  0  0
  181.3730  179.6220  141.2390 C   0  0  1  0  0  3  0  0  0  0  0  0
  181.2370  179.9690  138.6550 C   0  0  0  0  0  2  0  0  0  0  0  0
  185.5240  178.8150  140.5740 C   0  0  0  0  0  2  0  0  0  0  0  0
  184.9570  176.9760  138.2860 O   0  0  0  0  0  1  0  0  0  0  0  0
  180.4300  179.1450  135.8870 F   0  0  0  0  0  0  0  0  0  0  0  0
  183.2330  179.0270  139.6490 N   0  0  0  0  0  0  0  0  0  0  0  0
  181.9320  179.0190  137.7470 C   0  0  0  0  0  0  0  0  0  0  0  0
  189.7980  178.7410  142.8270 O   0  0  0  0  0  0  0  0  0  0  0  0
  190.5290  178.8260  144.0450 C   0  0  0  0  0  2  0  0  0  0  0  0
  191.6660  177.8190  144.0560 C   0  0  2  0  0  3  0  0  0  0  0  0
  191.7810  177.2240  142.8000 O   0  0  0  0  0  1  0  0  0  0  0  0
  191.3830  176.7530  145.0920 C   0  0  0  0  0  1  0  0  0  0  0  0
  1 10  1  0  0  0  0
  2 23  1  6  0  0  0
  2 12  1  0  0  0  0
  4  3  1  0  0  0  0
  5 26  1  0  0  0  0
  6 24  1  0  0  0  0
  6  5  2  0  0  0  0
  7 23  1  6  0  0  0
  7 18  1  0  0  0  0
  7 16  1  0  0  0  0
  9 27  2  0  0  0  0
 11  3  1  0  0  0  0
 12 13  1  0  0  0  0
 12  8  1  1  0  0  0
 13 11  1  1  0  0  0
 14 22  1  6  0  0  0
 14 21  1  0  0  0  0
 15 17  2  0  0  0  0
 15  9  1  0  0  0  0
 16  8  1  0  0  0  0
 16 10  2  0  0  0  0
 17  6  1  0  0  0  0
 18 19  2  0  0  0  0
 19 28  1  0  0  0  0
 19  1  1  0  0  0  0
 20  4  1  0  0  0  0
 21 20  1  6  0  0  0
 21 13  1  0  0  0  0
 25  9  1  0  0  0  0
 26 14  1  0  0  0  0
 26  2  1  0  0  0  0
 27  5  1  0  0  0  0
 27 22  1  0  0  0  0
 28 29  1  0  0  0  0
 29 30  1  0  0  0  0
 30 32  1  1  0  0  0
 31 30  1  0  0  0  0
M  END
>  <MODEL>
8

>  <REMARK>
 VINA RESULT:      -7.0      3.641      8.003
  Name = 
  3 active torsions:
  status: ('A' for Active; 'I' for Inactive)
    1  A    between atoms: C_1  and  C_10
    2  A    between atoms: C_10  and  O_19
    3  A    between atoms: O_19  and  C_24
                            x       y       z     vdW  Elec       q    Type
                         _______ _______ _______ _____ _____    ______ ____

>  <TORSDO>
F 3

$$$$
