=
 OpenBabel11052416403D

 43 48  0  0  1  0  0  0  0  0999 V2000
  191.2060  177.1670  143.3940 C   0  0  0  0  0  0  0  0  0  0  0  0
  190.6230  176.2660  138.3650 C   0  0  1  0  0  3  0  0  0  0  0  0
  191.4630  177.2650  140.9880 C   0  0  0  0  0  0  0  0  0  0  0  0
  189.9060  176.6760  143.2370 C   0  0  0  0  0  3  0  0  0  0  0  0
  191.7140  177.3490  144.6350 F   0  0  0  0  0  0  0  0  0  0  0  0
  190.1530  176.7790  140.8280 C   0  0  0  0  0  0  0  0  0  0  0  0
  191.9870  177.4610  142.2690 C   0  0  0  0  0  3  0  0  0  0  0  0
  189.3780  176.4890  141.9570 C   0  0  0  0  0  3  0  0  0  0  0  0
  189.5640  176.6070  139.4550 C   0  0  1  0  0  3  0  0  0  0  0  0
  192.0990  176.4230  138.7770 C   0  0  0  0  0  2  0  0  0  0  0  0
  192.2910  177.5550  139.7830 C   0  0  0  0  0  2  0  0  0  0  0  0
  190.3750  174.9240  137.6610 C   0  0  2  0  0  3  0  0  0  0  0  0
  191.5290  174.1370  137.6330 O   0  0  0  0  0  1  0  0  0  0  0  0
  189.7240  175.0130  136.2740 C   0  0  0  0  0  2  0  0  0  0  0  0
  186.8300  172.6660  136.9820 C   0  0  0  0  0  3  0  0  0  0  0  0
  186.0250  172.9120  135.8680 C   0  0  0  0  0  0  0  0  0  0  0  0
  187.6360  174.4860  135.0660 N   0  0  0  0  0  0  0  0  0  0  0  0
  188.0420  173.3450  137.1250 C   0  0  0  0  0  3  0  0  0  0  0  0
  188.4420  174.2540  136.1400 C   0  0  0  0  0  0  0  0  0  0  0  0
  186.4480  173.8400  134.9120 C   0  0  0  0  0  3  0  0  0  0  0  0
  184.7480  172.1700  135.6870 C   0  0  0  0  0  2  0  0  0  0  0  0
  184.0240  172.0430  137.0140 C   0  0  0  0  0  1  0  0  0  0  0  0
  188.8480  177.8240  139.0850 N   0  0  0  0  0  2  0  0  0  0  0  0
  187.8970  178.6020  136.9130 C   0  0  1  0  0  3  0  0  0  0  0  0
  188.9340  179.5830  137.4150 C   0  0  0  0  0  2  0  0  0  0  0  0
  189.1260  178.1030  137.6790 C   0  0  1  0  0  3  0  0  0  0  0  0
  184.5590  177.7830  138.5920 N   0  0  0  0  0  2  0  0  0  0  0  0
  186.7070  178.6830  137.7500 N   0  0  0  0  0  2  0  0  0  0  0  0
  185.7250  177.6440  137.7810 C   0  0  0  0  0  0  0  0  0  0  0  0
  185.8790  176.6020  137.0900 O   0  0  0  0  0  0  0  0  0  0  0  0
  184.3540  178.9130  139.4000 N   0  0  0  0  0  0  0  0  0  0  0  0
  182.9020  178.9340  141.3780 N   0  0  0  0  0  2  0  0  0  0  0  0
  183.1970  179.6390  138.8570 C   0  0  0  0  0  2  0  0  0  0  0  0
  181.8720  178.9220  139.1390 C   0  0  0  0  0  2  0  0  0  0  0  0
  184.1510  178.4470  140.7900 C   0  0  2  0  0  3  0  0  0  0  0  0
  181.8030  178.4060  140.5770 C   0  0  0  0  0  2  0  0  0  0  0  0
  185.3330  178.8380  141.6690 C   0  0  0  0  0  2  0  0  0  0  0  0
  185.1720  178.3080  143.0150 N   0  0  0  0  0  0  0  0  0  0  0  0
  185.8580  178.4540  145.8230 C   0  0  0  0  0  2  0  0  0  0  0  0
  184.5210  178.9520  145.2910 C   0  0  0  0  0  2  0  0  0  0  0  0
  186.4310  177.3810  144.9050 C   0  0  0  0  0  2  0  0  0  0  0  0
  184.6920  179.4130  143.8450 C   0  0  0  0  0  2  0  0  0  0  0  0
  186.5070  177.9240  143.4790 C   0  0  0  0  0  2  0  0  0  0  0  0
  1  5  1  0  0  0  0
  2 12  1  1  0  0  0
  2 10  1  0  0  0  0
  2  9  1  0  0  0  0
  3  7  1  0  0  0  0
  4  1  1  0  0  0  0
  6  3  2  0  0  0  0
  6  8  1  0  0  0  0
  7  1  2  0  0  0  0
  8  4  2  0  0  0  0
  9 23  1  6  0  0  0
  9  6  1  0  0  0  0
 10 11  1  0  0  0  0
 11  3  1  0  0  0  0
 12 13  1  6  0  0  0
 14 12  1  0  0  0  0
 15 18  1  0  0  0  0
 16 15  2  0  0  0  0
 17 19  1  0  0  0  0
 19 14  1  0  0  0  0
 19 18  2  0  0  0  0
 20 17  2  0  0  0  0
 20 16  1  0  0  0  0
 21 16  1  0  0  0  0
 21 22  1  0  0  0  0
 24 25  1  0  0  0  0
 24 26  1  0  0  0  0
 24 28  1  1  0  0  0
 25 26  1  0  0  0  0
 26 23  1  1  0  0  0
 27 31  1  0  0  0  0
 28 29  1  0  0  0  0
 29 27  1  0  0  0  0
 30 29  2  0  0  0  0
 31 35  1  0  0  0  0
 33 34  1  0  0  0  0
 33 31  1  0  0  0  0
 34 36  1  0  0  0  0
 35 32  1  0  0  0  0
 35 37  1  1  0  0  0
 36 32  1  0  0  0  0
 37 38  1  0  0  0  0
 38 43  1  0  0  0  0
 38 42  1  0  0  0  0
 40 39  1  0  0  0  0
 41 39  1  0  0  0  0
 42 40  1  0  0  0  0
 43 41  1  0  0  0  0
M  END
>  <MODEL>
1

>  <REMARK>
 VINA RESULT:      -8.2      0.000      0.000
  Name = 
  10 active torsions:
  status: ('A' for Active; 'I' for Inactive)
    1  A    between atoms: C_1  and  C_34
    2  A    between atoms: C_1  and  C_35
    3  A    between atoms: C_2  and  N_6
    4  A    between atoms: N_3  and  N_4
    5  A    between atoms: C_8  and  C_34
    6  A    between atoms: N_11  and  C_14
    7  A    between atoms: C_13  and  N_27
    8  A    between atoms: C_14  and  C_41
    9  A    between atoms: C_19  and  C_25
   10  A    between atoms: N_27  and  C_30
                            x       y       z     vdW  Elec       q    Type
                         _______ _______ _______ _____ _____    ______ ____

>  <TORSDO>
F 10

$$$$
=
 OpenBabel11052416403D

 43 48  0  0  1  0  0  0  0  0999 V2000
  182.6960  171.3840  135.7120 C   0  0  0  0  0  0  0  0  0  0  0  0
  182.7320  176.0080  137.9600 C   0  0  1  0  0  3  0  0  0  0  0  0
  182.4290  173.7580  136.1100 C   0  0  0  0  0  0  0  0  0  0  0  0
  183.6920  171.3310  136.6910 C   0  0  0  0  0  3  0  0  0  0  0  0
  182.3370  170.2600  135.0510 F   0  0  0  0  0  0  0  0  0  0  0  0
  183.4370  173.7080  137.0890 C   0  0  0  0  0  0  0  0  0  0  0  0
  182.0620  172.5990  135.4200 C   0  0  0  0  0  3  0  0  0  0  0  0
  184.0670  172.4910  137.3740 C   0  0  0  0  0  3  0  0  0  0  0  0
  183.8700  174.9580  137.8040 C   0  0  1  0  0  3  0  0  0  0  0  0
  181.4490  175.7500  137.1470 C   0  0  0  0  0  2  0  0  0  0  0  0
  181.7480  175.0530  135.8220 C   0  0  0  0  0  2  0  0  0  0  0  0
  182.4100  176.3590  139.4200 C   0  0  2  0  0  3  0  0  0  0  0  0
  181.2510  175.7170  139.8610 O   0  0  0  0  0  1  0  0  0  0  0  0
  182.3800  177.8590  139.7510 C   0  0  0  0  0  2  0  0  0  0  0  0
  182.3630  178.9860  143.3710 C   0  0  0  0  0  3  0  0  0  0  0  0
  183.6970  178.7600  143.7150 C   0  0  0  0  0  0  0  0  0  0  0  0
  184.1210  177.9750  141.4970 N   0  0  0  0  0  0  0  0  0  0  0  0
  181.9200  178.6980  142.0790 C   0  0  0  0  0  3  0  0  0  0  0  0
  182.8260  178.1980  141.1370 C   0  0  0  0  0  0  0  0  0  0  0  0
  184.5700  178.2430  142.7540 C   0  0  0  0  0  3  0  0  0  0  0  0
  184.1880  179.0950  145.0790 C   0  0  0  0  0  2  0  0  0  0  0  0
  185.5440  178.4590  145.3170 C   0  0  0  0  0  1  0  0  0  0  0  0
  184.9960  175.5520  137.0900 N   0  0  0  0  0  2  0  0  0  0  0  0
  185.4630  177.9180  136.4520 C   0  0  1  0  0  3  0  0  0  0  0  0
  185.4510  177.0340  135.2240 C   0  0  0  0  0  2  0  0  0  0  0  0
  184.5090  176.7230  136.3690 C   0  0  1  0  0  3  0  0  0  0  0  0
  188.9210  178.1960  138.0620 N   0  0  0  0  0  2  0  0  0  0  0  0
  186.6530  177.6340  137.2430 N   0  0  0  0  0  2  0  0  0  0  0  0
  187.7630  178.5340  137.2990 C   0  0  0  0  0  0  0  0  0  0  0  0
  187.7290  179.6270  136.6750 O   0  0  0  0  0  0  0  0  0  0  0  0
  188.9970  177.0020  138.7970 N   0  0  0  0  0  0  0  0  0  0  0  0
  190.8220  176.4650  140.3470 N   0  0  0  0  0  2  0  0  0  0  0  0
  189.7440  176.0310  137.9840 C   0  0  0  0  0  2  0  0  0  0  0  0
  191.2410  176.3480  137.9220 C   0  0  0  0  0  2  0  0  0  0  0  0
  189.6520  177.3060  140.0890 C   0  0  2  0  0  3  0  0  0  0  0  0
  191.7960  176.7320  139.2950 C   0  0  0  0  0  2  0  0  0  0  0  0
  188.6570  177.1880  141.2390 C   0  0  0  0  0  2  0  0  0  0  0  0
  189.3490  177.1510  142.5190 N   0  0  0  0  0  0  0  0  0  0  0  0
  189.5690  178.1260  145.2350 C   0  0  0  0  0  2  0  0  0  0  0  0
  188.9870  176.7550  144.9120 C   0  0  0  0  0  2  0  0  0  0  0  0
  190.5250  178.5710  144.1350 C   0  0  0  0  0  2  0  0  0  0  0  0
  188.3500  176.7900  143.5250 C   0  0  0  0  0  2  0  0  0  0  0  0
  189.8080  178.5150  142.7880 C   0  0  0  0  0  2  0  0  0  0  0  0
  1  4  1  0  0  0  0
  2 12  1  1  0  0  0
  3  6  2  0  0  0  0
  4  8  2  0  0  0  0
  5  1  1  0  0  0  0
  6  8  1  0  0  0  0
  6  9  1  0  0  0  0
  7  1  2  0  0  0  0
  7  3  1  0  0  0  0
  9 23  1  6  0  0  0
  9  2  1  0  0  0  0
 10  2  1  0  0  0  0
 11  3  1  0  0  0  0
 11 10  1  0  0  0  0
 12 14  1  0  0  0  0
 12 13  1  6  0  0  0
 14 19  1  0  0  0  0
 15 16  1  0  0  0  0
 16 21  1  0  0  0  0
 17 20  1  0  0  0  0
 18 15  2  0  0  0  0
 19 17  2  0  0  0  0
 19 18  1  0  0  0  0
 20 16  2  0  0  0  0
 21 22  1  0  0  0  0
 24 28  1  1  0  0  0
 25 26  1  0  0  0  0
 25 24  1  0  0  0  0
 26 24  1  0  0  0  0
 26 23  1  1  0  0  0
 27 31  1  0  0  0  0
 28 29  1  0  0  0  0
 29 27  1  0  0  0  0
 30 29  2  0  0  0  0
 31 35  1  0  0  0  0
 33 31  1  0  0  0  0
 34 33  1  0  0  0  0
 34 36  1  0  0  0  0
 35 32  1  0  0  0  0
 35 37  1  1  0  0  0
 36 32  1  0  0  0  0
 37 38  1  0  0  0  0
 38 43  1  0  0  0  0
 38 42  1  0  0  0  0
 40 39  1  0  0  0  0
 41 39  1  0  0  0  0
 42 40  1  0  0  0  0
 43 41  1  0  0  0  0
M  END
>  <MODEL>
2

>  <REMARK>
 VINA RESULT:      -7.8      3.177      8.241
  Name = 
  10 active torsions:
  status: ('A' for Active; 'I' for Inactive)
    1  A    between atoms: C_1  and  C_34
    2  A    between atoms: C_1  and  C_35
    3  A    between atoms: C_2  and  N_6
    4  A    between atoms: N_3  and  N_4
    5  A    between atoms: C_8  and  C_34
    6  A    between atoms: N_11  and  C_14
    7  A    between atoms: C_13  and  N_27
    8  A    between atoms: C_14  and  C_41
    9  A    between atoms: C_19  and  C_25
   10  A    between atoms: N_27  and  C_30
                            x       y       z     vdW  Elec       q    Type
                         _______ _______ _______ _____ _____    ______ ____

>  <TORSDO>
F 10

$$$$
=
 OpenBabel11052416403D

 43 48  0  0  1  0  0  0  0  0999 V2000
  182.9600  178.4900  141.1730 C   0  0  0  0  0  0  0  0  0  0  0  0
  183.3220  176.4550  136.4640 C   0  0  1  0  0  3  0  0  0  0  0  0
  182.9980  176.9070  139.3400 C   0  0  0  0  0  0  0  0  0  0  0  0
  183.7550  179.3690  140.4310 C   0  0  0  0  0  3  0  0  0  0  0  0
  182.5510  178.8340  142.4150 F   0  0  0  0  0  0  0  0  0  0  0  0
  183.8040  177.7860  138.5960 C   0  0  0  0  0  0  0  0  0  0  0  0
  182.5800  177.2570  140.6270 C   0  0  0  0  0  3  0  0  0  0  0  0
  184.1810  179.0150  139.1480 C   0  0  0  0  0  3  0  0  0  0  0  0
  184.2960  177.3990  137.2280 C   0  0  1  0  0  3  0  0  0  0  0  0
  182.1730  175.8470  137.2910 C   0  0  0  0  0  2  0  0  0  0  0  0
  182.5830  175.6060  138.7420 C   0  0  0  0  0  2  0  0  0  0  0  0
  182.8140  177.0330  135.1360 C   0  0  2  0  0  3  0  0  0  0  0  0
  183.6240  178.0780  134.6860 O   0  0  0  0  0  1  0  0  0  0  0  0
  181.3290  177.4220  135.1060 C   0  0  0  0  0  2  0  0  0  0  0  0
  180.9240  180.5350  137.2340 C   0  0  0  0  0  3  0  0  0  0  0  0
  180.5640  181.4660  136.2580 C   0  0  0  0  0  0  0  0  0  0  0  0
  180.7040  179.7550  134.5940 N   0  0  0  0  0  0  0  0  0  0  0  0
  181.1750  179.2100  136.8710 C   0  0  0  0  0  3  0  0  0  0  0  0
  181.0470  178.8280  135.5310 C   0  0  0  0  0  0  0  0  0  0  0  0
  180.4620  181.0520  134.9260 C   0  0  0  0  0  3  0  0  0  0  0  0
  180.2610  182.8720  136.6370 C   0  0  0  0  0  2  0  0  0  0  0  0
  181.0540  183.8300  135.7700 C   0  0  0  0  0  1  0  0  0  0  0  0
  185.6050  176.7660  137.3520 N   0  0  0  0  0  2  0  0  0  0  0  0
  187.7910  177.1520  136.2120 C   0  0  1  0  0  3  0  0  0  0  0  0
  187.2860  175.7550  135.9240 C   0  0  0  0  0  2  0  0  0  0  0  0
  186.2890  176.8870  136.0680 C   0  0  1  0  0  3  0  0  0  0  0  0
  189.1080  178.4880  139.5450 N   0  0  0  0  0  2  0  0  0  0  0  0
  188.2160  177.2370  137.6030 N   0  0  0  0  0  2  0  0  0  0  0  0
  188.6700  178.4610  138.1870 C   0  0  0  0  0  0  0  0  0  0  0  0
  188.6910  179.5210  137.5080 O   0  0  0  0  0  0  0  0  0  0  0  0
  189.0790  177.3380  140.3520 N   0  0  0  0  0  0  0  0  0  0  0  0
  189.9220  177.2640  142.6550 N   0  0  0  0  0  2  0  0  0  0  0  0
  190.3420  176.6170  140.1370 C   0  0  0  0  0  2  0  0  0  0  0  0
  191.5350  177.3180  140.7940 C   0  0  0  0  0  2  0  0  0  0  0  0
  188.8870  177.7730  141.7530 C   0  0  2  0  0  3  0  0  0  0  0  0
  191.2000  177.8020  142.2060 C   0  0  0  0  0  2  0  0  0  0  0  0
  187.5050  177.3700  142.2590 C   0  0  0  0  0  2  0  0  0  0  0  0
  187.1910  178.0580  143.5020 N   0  0  0  0  0  0  0  0  0  0  0  0
  185.6770  178.1290  145.9680 C   0  0  0  0  0  2  0  0  0  0  0  0
  187.1520  177.7500  145.9360 C   0  0  0  0  0  2  0  0  0  0  0  0
  185.3280  179.0150  144.7780 C   0  0  0  0  0  2  0  0  0  0  0  0
  187.4820  177.1180  144.5850 C   0  0  0  0  0  2  0  0  0  0  0  0
  185.7490  178.3170  143.4860 C   0  0  0  0  0  2  0  0  0  0  0  0
  1  5  1  0  0  0  0
  2 12  1  6  0  0  0
  2  9  1  0  0  0  0
  2 10  1  0  0  0  0
  3  7  2  0  0  0  0
  4  1  2  0  0  0  0
  6  8  2  0  0  0  0
  6  3  1  0  0  0  0
  7  1  1  0  0  0  0
  8  4  1  0  0  0  0
  9 23  1  1  0  0  0
  9  6  1  0  0  0  0
 10 11  1  0  0  0  0
 11  3  1  0  0  0  0
 12 13  1  1  0  0  0
 14 12  1  0  0  0  0
 14 19  1  0  0  0  0
 16 21  1  0  0  0  0
 16 15  2  0  0  0  0
 17 20  2  0  0  0  0
 17 19  1  0  0  0  0
 18 15  1  0  0  0  0
 19 18  2  0  0  0  0
 20 16  1  0  0  0  0
 22 21  1  0  0  0  0
 24 28  1  1  0  0  0
 25 26  1  0  0  0  0
 25 24  1  0  0  0  0
 26 24  1  0  0  0  0
 26 23  1  1  0  0  0
 27 31  1  0  0  0  0
 28 29  1  0  0  0  0
 29 27  1  0  0  0  0
 30 29  2  0  0  0  0
 31 35  1  0  0  0  0
 33 31  1  0  0  0  0
 33 34  1  0  0  0  0
 34 36  1  0  0  0  0
 35 37  1  1  0  0  0
 35 32  1  0  0  0  0
 36 32  1  0  0  0  0
 37 38  1  0  0  0  0
 38 42  1  0  0  0  0
 40 39  1  0  0  0  0
 41 39  1  0  0  0  0
 42 40  1  0  0  0  0
 43 38  1  0  0  0  0
 43 41  1  0  0  0  0
M  END
>  <MODEL>
3

>  <REMARK>
 VINA RESULT:      -7.6      3.101      7.308
  Name = 
  10 active torsions:
  status: ('A' for Active; 'I' for Inactive)
    1  A    between atoms: C_1  and  C_34
    2  A    between atoms: C_1  and  C_35
    3  A    between atoms: C_2  and  N_6
    4  A    between atoms: N_3  and  N_4
    5  A    between atoms: C_8  and  C_34
    6  A    between atoms: N_11  and  C_14
    7  A    between atoms: C_13  and  N_27
    8  A    between atoms: C_14  and  C_41
    9  A    between atoms: C_19  and  C_25
   10  A    between atoms: N_27  and  C_30
                            x       y       z     vdW  Elec       q    Type
                         _______ _______ _______ _____ _____    ______ ____

>  <TORSDO>
F 10

$$$$
=
 OpenBabel11052416403D

 43 48  0  0  1  0  0  0  0  0999 V2000
  185.7550  178.5940  142.8230 C   0  0  0  0  0  0  0  0  0  0  0  0
  182.2200  178.5800  139.0890 C   0  0  1  0  0  3  0  0  0  0  0  0
  183.7950  178.0620  141.5040 C   0  0  0  0  0  0  0  0  0  0  0  0
  186.4030  179.0600  141.6740 C   0  0  0  0  0  3  0  0  0  0  0  0
  186.3870  178.6330  144.0180 F   0  0  0  0  0  0  0  0  0  0  0  0
  184.4480  178.5230  140.3460 C   0  0  0  0  0  0  0  0  0  0  0  0
  184.4490  178.0940  142.7380 C   0  0  0  0  0  3  0  0  0  0  0  0
  185.7530  179.0190  140.4380 C   0  0  0  0  0  3  0  0  0  0  0  0
  183.7690  178.4500  139.0060 C   0  0  1  0  0  3  0  0  0  0  0  0
  181.6020  178.4850  140.4970 C   0  0  0  0  0  2  0  0  0  0  0  0
  182.3980  177.5510  141.4050 C   0  0  0  0  0  2  0  0  0  0  0  0
  181.6560  179.7750  138.3070 C   0  0  2  0  0  3  0  0  0  0  0  0
  181.5370  179.4890  136.9450 O   0  0  0  0  0  1  0  0  0  0  0  0
  182.3700  181.1150  138.5380 C   0  0  0  0  0  2  0  0  0  0  0  0
  181.4370  184.6190  137.4280 C   0  0  0  0  0  3  0  0  0  0  0  0
  180.0460  184.5080  137.3770 C   0  0  0  0  0  0  0  0  0  0  0  0
  180.2150  182.2290  138.0810 N   0  0  0  0  0  0  0  0  0  0  0  0
  182.2080  183.5180  137.8080 C   0  0  0  0  0  3  0  0  0  0  0  0
  181.5730  182.3180  138.1470 C   0  0  0  0  0  0  0  0  0  0  0  0
  179.4470  183.2880  137.7070 C   0  0  0  0  0  3  0  0  0  0  0  0
  179.2120  185.6830  137.0070 C   0  0  0  0  0  2  0  0  0  0  0  0
  178.9390  186.5360  138.2310 C   0  0  0  0  0  1  0  0  0  0  0  0
  184.1260  177.1930  138.3560 N   0  0  0  0  0  2  0  0  0  0  0  0
  185.2210  177.3450  136.1190 C   0  0  1  0  0  3  0  0  0  0  0  0
  184.3750  176.0940  136.2070 C   0  0  0  0  0  2  0  0  0  0  0  0
  183.9160  177.3500  136.9210 C   0  0  1  0  0  3  0  0  0  0  0  0
  188.4900  178.0530  137.9750 N   0  0  0  0  0  2  0  0  0  0  0  0
  186.3990  177.1940  136.9640 N   0  0  0  0  0  2  0  0  0  0  0  0
  187.3330  178.2580  137.1650 C   0  0  0  0  0  0  0  0  0  0  0  0
  187.1450  179.3810  136.6270 O   0  0  0  0  0  0  0  0  0  0  0  0
  188.7310  176.8270  138.6180 N   0  0  0  0  0  0  0  0  0  0  0  0
  190.9320  176.1280  139.4450 N   0  0  0  0  0  2  0  0  0  0  0  0
  189.0920  175.8490  137.5820 C   0  0  0  0  0  2  0  0  0  0  0  0
  190.4990  176.0850  137.0200 C   0  0  0  0  0  2  0  0  0  0  0  0
  189.8020  177.0420  139.6160 C   0  0  2  0  0  3  0  0  0  0  0  0
  191.5090  176.3820  138.1300 C   0  0  0  0  0  2  0  0  0  0  0  0
  189.2490  176.9340  141.0330 C   0  0  0  0  0  2  0  0  0  0  0  0
  190.3080  177.1120  142.0160 N   0  0  0  0  0  0  0  0  0  0  0  0
  191.0890  177.2970  144.7960 C   0  0  0  0  0  2  0  0  0  0  0  0
  191.3500  176.0470  143.9640 C   0  0  0  0  0  2  0  0  0  0  0  0
  190.9960  178.5250  143.8990 C   0  0  0  0  0  2  0  0  0  0  0  0
  190.2810  175.9310  142.8790 C   0  0  0  0  0  2  0  0  0  0  0  0
  189.9440  178.2830  142.8170 C   0  0  0  0  0  2  0  0  0  0  0  0
  1  5  1  0  0  0  0
  2 12  1  1  0  0  0
  2 10  1  0  0  0  0
  3  7  2  0  0  0  0
  4  1  2  0  0  0  0
  6  8  2  0  0  0  0
  6  3  1  0  0  0  0
  7  1  1  0  0  0  0
  8  4  1  0  0  0  0
  9 23  1  1  0  0  0
  9  2  1  0  0  0  0
  9  6  1  0  0  0  0
 10 11  1  0  0  0  0
 11  3  1  0  0  0  0
 12 13  1  6  0  0  0
 12 14  1  0  0  0  0
 15 18  1  0  0  0  0
 16 15  2  0  0  0  0
 16 20  1  0  0  0  0
 17 19  1  0  0  0  0
 18 19  2  0  0  0  0
 19 14  1  0  0  0  0
 20 17  2  0  0  0  0
 21 16  1  0  0  0  0
 21 22  1  0  0  0  0
 24 25  1  0  0  0  0
 24 26  1  0  0  0  0
 24 28  1  1  0  0  0
 25 26  1  0  0  0  0
 26 23  1  1  0  0  0
 27 31  1  0  0  0  0
 28 29  1  0  0  0  0
 29 27  1  0  0  0  0
 30 29  2  0  0  0  0
 31 35  1  0  0  0  0
 32 35  1  0  0  0  0
 33 31  1  0  0  0  0
 34 33  1  0  0  0  0
 34 36  1  0  0  0  0
 35 37  1  1  0  0  0
 36 32  1  0  0  0  0
 37 38  1  0  0  0  0
 38 43  1  0  0  0  0
 38 42  1  0  0  0  0
 40 39  1  0  0  0  0
 41 39  1  0  0  0  0
 42 40  1  0  0  0  0
 43 41  1  0  0  0  0
M  END
>  <MODEL>
4

>  <REMARK>
 VINA RESULT:      -7.6      3.084      8.290
  Name = 
  10 active torsions:
  status: ('A' for Active; 'I' for Inactive)
    1  A    between atoms: C_1  and  C_34
    2  A    between atoms: C_1  and  C_35
    3  A    between atoms: C_2  and  N_6
    4  A    between atoms: N_3  and  N_4
    5  A    between atoms: C_8  and  C_34
    6  A    between atoms: N_11  and  C_14
    7  A    between atoms: C_13  and  N_27
    8  A    between atoms: C_14  and  C_41
    9  A    between atoms: C_19  and  C_25
   10  A    between atoms: N_27  and  C_30
                            x       y       z     vdW  Elec       q    Type
                         _______ _______ _______ _____ _____    ______ ____

>  <TORSDO>
F 10

$$$$
=
 OpenBabel11052416403D

 43 48  0  0  1  0  0  0  0  0999 V2000
  190.8310  176.8060  143.4670 C   0  0  0  0  0  0  0  0  0  0  0  0
  191.0010  176.5110  138.3360 C   0  0  1  0  0  3  0  0  0  0  0  0
  191.4530  177.1690  141.1540 C   0  0  0  0  0  0  0  0  0  0  0  0
  189.5600  176.3880  143.0600 C   0  0  0  0  0  3  0  0  0  0  0  0
  191.1480  176.8260  144.7810 F   0  0  0  0  0  0  0  0  0  0  0  0
  190.1730  176.7570  140.7440 C   0  0  0  0  0  0  0  0  0  0  0  0
  191.7800  177.1970  142.5130 C   0  0  0  0  0  3  0  0  0  0  0  0
  189.2300  176.3700  141.7030 C   0  0  0  0  0  3  0  0  0  0  0  0
  189.7960  176.7660  139.2880 C   0  0  1  0  0  3  0  0  0  0  0  0
  192.4010  176.5620  138.9770 C   0  0  0  0  0  2  0  0  0  0  0  0
  192.4610  177.5640  140.1290 C   0  0  0  0  0  2  0  0  0  0  0  0
  190.8350  175.2690  137.4480 C   0  0  2  0  0  3  0  0  0  0  0  0
  191.5110  174.1660  137.9740 O   0  0  0  0  0  1  0  0  0  0  0  0
  191.1610  175.4690  135.9600 C   0  0  0  0  0  2  0  0  0  0  0  0
  194.4220  173.9320  134.7880 C   0  0  0  0  0  3  0  0  0  0  0  0
  195.2830  175.0230  134.9260 C   0  0  0  0  0  0  0  0  0  0  0  0
  193.4580  176.3420  135.7290 N   0  0  0  0  0  0  0  0  0  0  0  0
  193.0740  174.0640  135.1230 C   0  0  0  0  0  3  0  0  0  0  0  0
  192.6030  175.2880  135.6110 C   0  0  0  0  0  0  0  0  0  0  0  0
  194.7740  176.2350  135.4000 C   0  0  0  0  0  3  0  0  0  0  0  0
  196.7280  174.8840  134.6040 C   0  0  0  0  0  2  0  0  0  0  0  0
  197.5710  175.5080  135.7000 C   0  0  0  0  0  1  0  0  0  0  0  0
  189.1710  178.0440  138.9640 N   0  0  0  0  0  2  0  0  0  0  0  0
  188.0130  178.6700  136.8440 C   0  0  1  0  0  3  0  0  0  0  0  0
  189.0290  179.7260  137.2200 C   0  0  0  0  0  2  0  0  0  0  0  0
  189.3230  178.2720  137.5300 C   0  0  1  0  0  3  0  0  0  0  0  0
  184.8010  177.8090  138.7330 N   0  0  0  0  0  2  0  0  0  0  0  0
  186.8890  178.7270  137.7690 N   0  0  0  0  0  2  0  0  0  0  0  0
  185.9030  177.6930  137.8340 C   0  0  0  0  0  0  0  0  0  0  0  0
  185.9970  176.6760  137.0970 O   0  0  0  0  0  0  0  0  0  0  0  0
  184.6650  178.9110  139.5940 N   0  0  0  0  0  0  0  0  0  0  0  0
  183.1800  178.9440  141.5470 N   0  0  0  0  0  2  0  0  0  0  0  0
  183.5760  179.7480  139.0710 C   0  0  0  0  0  2  0  0  0  0  0  0
  182.1960  179.1200  139.2950 C   0  0  0  0  0  2  0  0  0  0  0  0
  184.4000  178.3920  140.9550 C   0  0  2  0  0  3  0  0  0  0  0  0
  182.0600  178.5400  140.7040 C   0  0  0  0  0  2  0  0  0  0  0  0
  185.5910  178.6490  141.8720 C   0  0  0  0  0  2  0  0  0  0  0  0
  185.3100  178.1890  143.2240 N   0  0  0  0  0  0  0  0  0  0  0  0
  185.7390  178.4850  146.0710 C   0  0  0  0  0  2  0  0  0  0  0  0
  184.4540  178.9450  145.3940 C   0  0  0  0  0  2  0  0  0  0  0  0
  186.3960  177.3710  145.2650 C   0  0  0  0  0  2  0  0  0  0  0  0
  184.7550  179.3320  143.9480 C   0  0  0  0  0  2  0  0  0  0  0  0
  186.5990  177.8390  143.8250 C   0  0  0  0  0  2  0  0  0  0  0  0
  1  5  1  0  0  0  0
  2 12  1  1  0  0  0
  2 10  1  0  0  0  0
  2  9  1  0  0  0  0
  3  7  1  0  0  0  0
  4  1  1  0  0  0  0
  6  3  2  0  0  0  0
  6  8  1  0  0  0  0
  7  1  2  0  0  0  0
  8  4  2  0  0  0  0
  9 23  1  6  0  0  0
  9  6  1  0  0  0  0
 10 11  1  0  0  0  0
 11  3  1  0  0  0  0
 12 13  1  1  0  0  0
 14 12  1  0  0  0  0
 15 16  2  0  0  0  0
 15 18  1  0  0  0  0
 16 20  1  0  0  0  0
 18 19  2  0  0  0  0
 19 17  1  0  0  0  0
 19 14  1  0  0  0  0
 20 17  2  0  0  0  0
 21 16  1  0  0  0  0
 21 22  1  0  0  0  0
 24 25  1  0  0  0  0
 24 26  1  0  0  0  0
 24 28  1  1  0  0  0
 25 26  1  0  0  0  0
 26 23  1  1  0  0  0
 27 31  1  0  0  0  0
 28 29  1  0  0  0  0
 29 27  1  0  0  0  0
 30 29  2  0  0  0  0
 31 35  1  0  0  0  0
 33 34  1  0  0  0  0
 33 31  1  0  0  0  0
 34 36  1  0  0  0  0
 35 32  1  0  0  0  0
 35 37  1  1  0  0  0
 36 32  1  0  0  0  0
 37 38  1  0  0  0  0
 38 43  1  0  0  0  0
 38 42  1  0  0  0  0
 40 39  1  0  0  0  0
 41 39  1  0  0  0  0
 42 40  1  0  0  0  0
 43 41  1  0  0  0  0
M  END
>  <MODEL>
5

>  <REMARK>
 VINA RESULT:      -7.5      2.242      3.956
  Name = 
  10 active torsions:
  status: ('A' for Active; 'I' for Inactive)
    1  A    between atoms: C_1  and  C_34
    2  A    between atoms: C_1  and  C_35
    3  A    between atoms: C_2  and  N_6
    4  A    between atoms: N_3  and  N_4
    5  A    between atoms: C_8  and  C_34
    6  A    between atoms: N_11  and  C_14
    7  A    between atoms: C_13  and  N_27
    8  A    between atoms: C_14  and  C_41
    9  A    between atoms: C_19  and  C_25
   10  A    between atoms: N_27  and  C_30
                            x       y       z     vdW  Elec       q    Type
                         _______ _______ _______ _____ _____    ______ ____

>  <TORSDO>
F 10

$$$$
=
 OpenBabel11052416403D

 43 48  0  0  1  0  0  0  0  0999 V2000
  184.3050  178.6560  141.4860 C   0  0  0  0  0  0  0  0  0  0  0  0
  181.9230  176.7780  137.3340 C   0  0  1  0  0  3  0  0  0  0  0  0
  183.1300  177.1730  139.9730 C   0  0  0  0  0  0  0  0  0  0  0  0
  184.8000  179.3780  140.3960 C   0  0  0  0  0  3  0  0  0  0  0  0
  184.6280  179.0290  142.7450 F   0  0  0  0  0  0  0  0  0  0  0  0
  183.6340  177.8930  138.8750 C   0  0  0  0  0  0  0  0  0  0  0  0
  183.4680  177.5520  141.2760 C   0  0  0  0  0  3  0  0  0  0  0  0
  184.4710  178.9940  139.0930 C   0  0  0  0  0  3  0  0  0  0  0  0
  183.3130  177.4670  137.4690 C   0  0  1  0  0  3  0  0  0  0  0  0
  181.2220  176.3920  138.6500 C   0  0  0  0  0  2  0  0  0  0  0  0
  182.2240  176.0130  139.7380 C   0  0  0  0  0  2  0  0  0  0  0  0
  180.9640  177.5020  136.3780 C   0  0  2  0  0  3  0  0  0  0  0  0
  180.2630  176.6020  135.5720 O   0  0  0  0  0  1  0  0  0  0  0  0
  181.5860  178.6320  135.5450 C   0  0  0  0  0  2  0  0  0  0  0  0
  180.8010  181.6890  137.6470 C   0  0  0  0  0  3  0  0  0  0  0  0
  180.4250  182.5930  136.6510 C   0  0  0  0  0  0  0  0  0  0  0  0
  180.8040  180.9090  134.9970 N   0  0  0  0  0  0  0  0  0  0  0  0
  181.1810  180.3910  137.2990 C   0  0  0  0  0  3  0  0  0  0  0  0
  181.1660  180.0080  135.9530 C   0  0  0  0  0  0  0  0  0  0  0  0
  180.4380  182.1800  135.3160 C   0  0  0  0  0  3  0  0  0  0  0  0
  179.9870  183.9670  137.0130 C   0  0  0  0  0  2  0  0  0  0  0  0
  181.1630  184.9230  136.9590 C   0  0  0  0  0  1  0  0  0  0  0  0
  184.3590  176.5690  136.9910 N   0  0  0  0  0  2  0  0  0  0  0  0
  186.1100  177.4770  135.4630 C   0  0  1  0  0  3  0  0  0  0  0  0
  185.7880  176.0430  135.1010 C   0  0  0  0  0  2  0  0  0  0  0  0
  184.6830  176.9430  135.6180 C   0  0  1  0  0  3  0  0  0  0  0  0
  188.2830  178.6360  138.3890 N   0  0  0  0  0  2  0  0  0  0  0  0
  186.8390  177.5070  136.7240 N   0  0  0  0  0  2  0  0  0  0  0  0
  187.5560  178.6640  137.1610 C   0  0  0  0  0  0  0  0  0  0  0  0
  187.5550  179.7150  136.4660 O   0  0  0  0  0  0  0  0  0  0  0  0
  188.2930  177.4980  139.2130 N   0  0  0  0  0  0  0  0  0  0  0  0
  190.0820  176.9850  140.8120 N   0  0  0  0  0  2  0  0  0  0  0  0
  188.9890  176.4300  138.4810 C   0  0  0  0  0  2  0  0  0  0  0  0
  190.5020  176.6620  138.4050 C   0  0  0  0  0  2  0  0  0  0  0  0
  188.9590  177.8640  140.4830 C   0  0  2  0  0  3  0  0  0  0  0  0
  191.0720  177.1190  139.7490 C   0  0  0  0  0  2  0  0  0  0  0  0
  187.9550  177.8860  141.6310 C   0  0  0  0  0  2  0  0  0  0  0  0
  188.5710  177.4140  142.8630 N   0  0  0  0  0  0  0  0  0  0  0  0
  189.1700  177.8770  145.6570 C   0  0  0  0  0  2  0  0  0  0  0  0
  188.0770  176.9130  145.2130 C   0  0  0  0  0  2  0  0  0  0  0  0
  190.2260  178.0230  144.5670 C   0  0  0  0  0  2  0  0  0  0  0  0
  187.5120  177.3730  143.8710 C   0  0  0  0  0  2  0  0  0  0  0  0
  189.5500  178.4290  143.2590 C   0  0  0  0  0  2  0  0  0  0  0  0
  1  5  1  0  0  0  0
  2 12  1  1  0  0  0
  2  9  1  0  0  0  0
  2 10  1  0  0  0  0
  3  7  2  0  0  0  0
  4  1  2  0  0  0  0
  6  8  2  0  0  0  0
  6  3  1  0  0  0  0
  7  1  1  0  0  0  0
  8  4  1  0  0  0  0
  9 23  1  1  0  0  0
  9  6  1  0  0  0  0
 10 11  1  0  0  0  0
 11  3  1  0  0  0  0
 12 13  1  6  0  0  0
 14 19  1  0  0  0  0
 14 12  1  0  0  0  0
 16 21  1  0  0  0  0
 16 15  2  0  0  0  0
 17 20  2  0  0  0  0
 17 19  1  0  0  0  0
 18 15  1  0  0  0  0
 19 18  2  0  0  0  0
 20 16  1  0  0  0  0
 22 21  1  0  0  0  0
 24 26  1  0  0  0  0
 24 28  1  1  0  0  0
 25 24  1  0  0  0  0
 25 26  1  0  0  0  0
 26 23  1  1  0  0  0
 27 31  1  0  0  0  0
 28 29  1  0  0  0  0
 29 27  1  0  0  0  0
 30 29  2  0  0  0  0
 31 35  1  0  0  0  0
 33 31  1  0  0  0  0
 34 33  1  0  0  0  0
 34 36  1  0  0  0  0
 35 32  1  0  0  0  0
 35 37  1  1  0  0  0
 36 32  1  0  0  0  0
 37 38  1  0  0  0  0
 38 43  1  0  0  0  0
 38 42  1  0  0  0  0
 40 39  1  0  0  0  0
 41 39  1  0  0  0  0
 42 40  1  0  0  0  0
 43 41  1  0  0  0  0
M  END
>  <MODEL>
6

>  <REMARK>
 VINA RESULT:      -7.4      3.123      7.642
  Name = 
  10 active torsions:
  status: ('A' for Active; 'I' for Inactive)
    1  A    between atoms: C_1  and  C_34
    2  A    between atoms: C_1  and  C_35
    3  A    between atoms: C_2  and  N_6
    4  A    between atoms: N_3  and  N_4
    5  A    between atoms: C_8  and  C_34
    6  A    between atoms: N_11  and  C_14
    7  A    between atoms: C_13  and  N_27
    8  A    between atoms: C_14  and  C_41
    9  A    between atoms: C_19  and  C_25
   10  A    between atoms: N_27  and  C_30
                            x       y       z     vdW  Elec       q    Type
                         _______ _______ _______ _____ _____    ______ ____

>  <TORSDO>
F 10

$$$$
=
 OpenBabel11052416403D

 43 48  0  0  1  0  0  0  0  0999 V2000
  184.8100  178.7440  144.1790 C   0  0  0  0  0  0  0  0  0  0  0  0
  180.7260  179.1960  141.0870 C   0  0  1  0  0  3  0  0  0  0  0  0
  182.5400  178.7060  143.3340 C   0  0  0  0  0  0  0  0  0  0  0  0
  185.2980  178.6360  142.8730 C   0  0  0  0  0  3  0  0  0  0  0  0
  185.6710  178.8220  145.2180 F   0  0  0  0  0  0  0  0  0  0  0  0
  183.0300  178.5900  142.0210 C   0  0  0  0  0  0  0  0  0  0  0  0
  183.4280  178.7800  144.4110 C   0  0  0  0  0  3  0  0  0  0  0  0
  184.4110  178.5530  141.7970 C   0  0  0  0  0  3  0  0  0  0  0  0
  182.0820  178.4650  140.8600 C   0  0  1  0  0  3  0  0  0  0  0  0
  180.4460  179.6860  142.5200 C   0  0  0  0  0  2  0  0  0  0  0  0
  181.0680  178.7640  143.5670 C   0  0  0  0  0  2  0  0  0  0  0  0
  180.4320  180.2910  140.0510 C   0  0  2  0  0  3  0  0  0  0  0  0
  179.1280  180.2000  139.5610 O   0  0  0  0  0  1  0  0  0  0  0  0
  181.4530  180.4150  138.9100 C   0  0  0  0  0  2  0  0  0  0  0  0
  180.4300  181.8550  135.5540 C   0  0  0  0  0  3  0  0  0  0  0  0
  180.2970  183.2050  135.8860 C   0  0  0  0  0  0  0  0  0  0  0  0
  180.9210  182.6990  138.1380 N   0  0  0  0  0  0  0  0  0  0  0  0
  180.8090  180.9330  136.5330 C   0  0  0  0  0  3  0  0  0  0  0  0
  181.0660  181.3790  137.8340 C   0  0  0  0  0  0  0  0  0  0  0  0
  180.5460  183.6110  137.2000 C   0  0  0  0  0  3  0  0  0  0  0  0
  179.9280  184.2000  134.8450 C   0  0  0  0  0  2  0  0  0  0  0  0
  178.9310  185.1970  135.4040 C   0  0  0  0  0  1  0  0  0  0  0  0
  181.8430  177.0520  140.5870 N   0  0  0  0  0  2  0  0  0  0  0  0
  180.3490  176.0580  138.8530 C   0  0  1  0  0  3  0  0  0  0  0  0
  180.0610  175.4490  140.2070 C   0  0  0  0  0  2  0  0  0  0  0  0
  180.4670  176.9070  140.1230 C   0  0  1  0  0  3  0  0  0  0  0  0
  183.1050  174.6310  136.6170 N   0  0  0  0  0  2  0  0  0  0  0  0
  181.6400  175.5840  138.3710 N   0  0  0  0  0  2  0  0  0  0  0  0
  181.8290  175.1180  137.0330 C   0  0  0  0  0  0  0  0  0  0  0  0
  180.8730  175.1280  136.2140 O   0  0  0  0  0  0  0  0  0  0  0  0
  184.2090  174.6240  137.4850 N   0  0  0  0  0  0  0  0  0  0  0  0
  186.5420  174.5410  136.7270 N   0  0  0  0  0  2  0  0  0  0  0  0
  184.5240  173.2190  137.7850 C   0  0  0  0  0  2  0  0  0  0  0  0
  185.1700  172.4980  136.5970 C   0  0  0  0  0  2  0  0  0  0  0  0
  185.3180  175.3390  136.8150 C   0  0  2  0  0  3  0  0  0  0  0  0
  186.2410  173.3600  135.9260 C   0  0  0  0  0  2  0  0  0  0  0  0
  185.6040  176.6650  137.5120 C   0  0  0  0  0  2  0  0  0  0  0  0
  187.0160  177.0050  137.4140 N   0  0  0  0  0  0  0  0  0  0  0  0
  189.0540  179.0500  137.2200 C   0  0  0  0  0  2  0  0  0  0  0  0
  188.7830  178.3000  138.5180 C   0  0  0  0  0  2  0  0  0  0  0  0
  188.6350  178.2090  136.0200 C   0  0  0  0  0  2  0  0  0  0  0  0
  187.3180  177.8690  138.5550 C   0  0  0  0  0  2  0  0  0  0  0  0
  187.1770  177.7840  136.1850 C   0  0  0  0  0  2  0  0  0  0  0  0
  1  7  1  0  0  0  0
  1  5  1  0  0  0  0
  2 12  1  6  0  0  0
  2 10  1  0  0  0  0
  3 11  1  0  0  0  0
  3  7  2  0  0  0  0
  4  1  2  0  0  0  0
  6  3  1  0  0  0  0
  8  6  2  0  0  0  0
  8  4  1  0  0  0  0
  9 23  1  1  0  0  0
  9  2  1  0  0  0  0
  9  6  1  0  0  0  0
 10 11  1  0  0  0  0
 12 13  1  6  0  0  0
 14 12  1  0  0  0  0
 15 16  2  0  0  0  0
 15 18  1  0  0  0  0
 16 20  1  0  0  0  0
 18 19  2  0  0  0  0
 19 17  1  0  0  0  0
 19 14  1  0  0  0  0
 20 17  2  0  0  0  0
 21 22  1  0  0  0  0
 21 16  1  0  0  0  0
 24 28  1  1  0  0  0
 24 26  1  0  0  0  0
 24 25  1  0  0  0  0
 26 25  1  0  0  0  0
 26 23  1  1  0  0  0
 27 29  1  0  0  0  0
 27 31  1  0  0  0  0
 29 28  1  0  0  0  0
 30 29  2  0  0  0  0
 31 33  1  0  0  0  0
 32 35  1  0  0  0  0
 34 33  1  0  0  0  0
 35 31  1  0  0  0  0
 35 37  1  1  0  0  0
 36 34  1  0  0  0  0
 36 32  1  0  0  0  0
 38 37  1  0  0  0  0
 38 42  1  0  0  0  0
 39 40  1  0  0  0  0
 40 42  1  0  0  0  0
 41 43  1  0  0  0  0
 41 39  1  0  0  0  0
 43 38  1  0  0  0  0
M  END
>  <MODEL>
7

>  <REMARK>
 VINA RESULT:      -7.3      3.476      8.949
  Name = 
  10 active torsions:
  status: ('A' for Active; 'I' for Inactive)
    1  A    between atoms: C_1  and  C_34
    2  A    between atoms: C_1  and  C_35
    3  A    between atoms: C_2  and  N_6
    4  A    between atoms: N_3  and  N_4
    5  A    between atoms: C_8  and  C_34
    6  A    between atoms: N_11  and  C_14
    7  A    between atoms: C_13  and  N_27
    8  A    between atoms: C_14  and  C_41
    9  A    between atoms: C_19  and  C_25
   10  A    between atoms: N_27  and  C_30
                            x       y       z     vdW  Elec       q    Type
                         _______ _______ _______ _____ _____    ______ ____

>  <TORSDO>
F 10

$$$$
=
 OpenBabel11052416403D

 43 48  0  0  1  0  0  0  0  0999 V2000
  181.1860  180.1470  139.5770 C   0  0  0  0  0  0  0  0  0  0  0  0
  183.3030  175.7020  138.0930 C   0  0  1  0  0  3  0  0  0  0  0  0
  182.2980  177.9950  139.6130 C   0  0  0  0  0  0  0  0  0  0  0  0
  181.5820  180.3310  138.2490 C   0  0  0  0  0  3  0  0  0  0  0  0
  180.4490  181.0940  140.2000 F   0  0  0  0  0  0  0  0  0  0  0  0
  182.7050  178.1830  138.2800 C   0  0  0  0  0  0  0  0  0  0  0  0
  181.5430  178.9770  140.2610 C   0  0  0  0  0  3  0  0  0  0  0  0
  182.3460  179.3540  137.6040 C   0  0  0  0  0  3  0  0  0  0  0  0
  183.5560  177.1530  137.5890 C   0  0  1  0  0  3  0  0  0  0  0  0
  182.4570  175.5620  139.3730 C   0  0  0  0  0  2  0  0  0  0  0  0
  182.6670  176.7380  140.3240 C   0  0  0  0  0  2  0  0  0  0  0  0
  182.8260  174.7390  136.9960 C   0  0  2  0  0  3  0  0  0  0  0  0
  181.4910  174.9670  136.6570 O   0  0  0  0  0  1  0  0  0  0  0  0
  183.0920  173.2500  137.2580 C   0  0  0  0  0  2  0  0  0  0  0  0
  186.8190  172.5560  137.1850 C   0  0  0  0  0  3  0  0  0  0  0  0
  186.9190  171.8230  136.0010 C   0  0  0  0  0  0  0  0  0  0  0  0
  184.5610  172.0500  135.6780 N   0  0  0  0  0  0  0  0  0  0  0  0
  185.5750  173.0290  137.6060 C   0  0  0  0  0  3  0  0  0  0  0  0
  184.4430  172.7750  136.8250 C   0  0  0  0  0  0  0  0  0  0  0  0
  185.7630  171.5740  135.2540 C   0  0  0  0  0  3  0  0  0  0  0  0
  188.2440  171.3430  135.5240 C   0  0  0  0  0  2  0  0  0  0  0  0
  188.2060  169.8440  135.2980 C   0  0  0  0  0  1  0  0  0  0  0  0
  184.9630  177.5000  137.7620 N   0  0  0  0  0  2  0  0  0  0  0  0
  187.1220  177.5530  136.5120 C   0  0  1  0  0  3  0  0  0  0  0  0
  186.4050  176.2430  136.2690 C   0  0  0  0  0  2  0  0  0  0  0  0
  185.5920  177.5100  136.4450 C   0  0  1  0  0  3  0  0  0  0  0  0
  188.9250  178.6300  139.7090 N   0  0  0  0  0  2  0  0  0  0  0  0
  187.6240  177.5840  137.8800 N   0  0  0  0  0  2  0  0  0  0  0  0
  188.4290  178.6590  138.3710 C   0  0  0  0  0  0  0  0  0  0  0  0
  188.7080  179.6370  137.6280 O   0  0  0  0  0  0  0  0  0  0  0  0
  188.6190  177.5750  140.5850 N   0  0  0  0  0  0  0  0  0  0  0  0
  188.9050  177.6950  143.0190 N   0  0  0  0  0  2  0  0  0  0  0  0
  189.8350  176.7630  140.7380 C   0  0  0  0  0  2  0  0  0  0  0  0
  190.9000  177.4590  141.5930 C   0  0  0  0  0  2  0  0  0  0  0  0
  188.1480  178.1650  141.8580 C   0  0  2  0  0  3  0  0  0  0  0  0
  190.2920  178.1070  142.8380 C   0  0  0  0  0  2  0  0  0  0  0  0
  186.6600  177.8990  142.0570 C   0  0  0  0  0  2  0  0  0  0  0  0
  186.1440  178.6700  143.1800 N   0  0  0  0  0  0  0  0  0  0  0  0
  184.1060  179.0190  145.2040 C   0  0  0  0  0  2  0  0  0  0  0  0
  185.4880  178.4680  145.5350 C   0  0  0  0  0  2  0  0  0  0  0  0
  184.1640  179.8900  143.9550 C   0  0  0  0  0  2  0  0  0  0  0  0
  186.0500  177.7470  144.3120 C   0  0  0  0  0  2  0  0  0  0  0  0
  184.7920  179.0950  142.8120 C   0  0  0  0  0  2  0  0  0  0  0  0
  1  5  1  0  0  0  0
  1  7  1  0  0  0  0
  2 12  1  6  0  0  0
  2 10  1  0  0  0  0
  3  7  2  0  0  0  0
  3 11  1  0  0  0  0
  4  1  2  0  0  0  0
  6  3  1  0  0  0  0
  8  4  1  0  0  0  0
  8  6  2  0  0  0  0
  9 23  1  1  0  0  0
  9  2  1  0  0  0  0
  9  6  1  0  0  0  0
 10 11  1  0  0  0  0
 12 13  1  1  0  0  0
 12 14  1  0  0  0  0
 15 18  1  0  0  0  0
 16 15  2  0  0  0  0
 17 19  1  0  0  0  0
 19 14  1  0  0  0  0
 19 18  2  0  0  0  0
 20 17  2  0  0  0  0
 20 16  1  0  0  0  0
 21 16  1  0  0  0  0
 22 21  1  0  0  0  0
 24 28  1  1  0  0  0
 25 26  1  0  0  0  0
 25 24  1  0  0  0  0
 26 24  1  0  0  0  0
 26 23  1  1  0  0  0
 27 31  1  0  0  0  0
 28 29  1  0  0  0  0
 29 27  1  0  0  0  0
 30 29  2  0  0  0  0
 31 33  1  0  0  0  0
 31 35  1  0  0  0  0
 33 34  1  0  0  0  0
 34 36  1  0  0  0  0
 35 37  1  1  0  0  0
 35 32  1  0  0  0  0
 36 32  1  0  0  0  0
 37 38  1  0  0  0  0
 38 42  1  0  0  0  0
 39 40  1  0  0  0  0
 41 39  1  0  0  0  0
 42 40  1  0  0  0  0
 43 38  1  0  0  0  0
 43 41  1  0  0  0  0
M  END
>  <MODEL>
8

>  <REMARK>
 VINA RESULT:      -7.3      2.860      6.369
  Name = 
  10 active torsions:
  status: ('A' for Active; 'I' for Inactive)
    1  A    between atoms: C_1  and  C_34
    2  A    between atoms: C_1  and  C_35
    3  A    between atoms: C_2  and  N_6
    4  A    between atoms: N_3  and  N_4
    5  A    between atoms: C_8  and  C_34
    6  A    between atoms: N_11  and  C_14
    7  A    between atoms: C_13  and  N_27
    8  A    between atoms: C_14  and  C_41
    9  A    between atoms: C_19  and  C_25
   10  A    between atoms: N_27  and  C_30
                            x       y       z     vdW  Elec       q    Type
                         _______ _______ _______ _____ _____    ______ ____

>  <TORSDO>
F 10

$$$$
=
 OpenBabel11052416403D

 43 48  0  0  1  0  0  0  0  0999 V2000
  189.8080  177.6440  146.5220 C   0  0  0  0  0  0  0  0  0  0  0  0
  187.0190  177.8590  142.2070 C   0  0  1  0  0  3  0  0  0  0  0  0
  188.1410  177.1810  144.8270 C   0  0  0  0  0  0  0  0  0  0  0  0
  190.6390  178.2120  145.5510 C   0  0  0  0  0  3  0  0  0  0  0  0
  190.2090  177.6000  147.8130 F   0  0  0  0  0  0  0  0  0  0  0  0
  188.9790  177.7440  143.8480 C   0  0  0  0  0  0  0  0  0  0  0  0
  188.5570  177.1280  146.1600 C   0  0  0  0  0  3  0  0  0  0  0  0
  190.2290  178.2560  144.2160 C   0  0  0  0  0  3  0  0  0  0  0  0
  188.5610  177.7650  142.4040 C   0  0  1  0  0  3  0  0  0  0  0  0
  186.1570  177.6420  143.4650 C   0  0  0  0  0  2  0  0  0  0  0  0
  186.8040  176.6530  144.4330 C   0  0  0  0  0  2  0  0  0  0  0  0
  186.5690  179.1020  141.4260 C   0  0  2  0  0  3  0  0  0  0  0  0
  185.6810  179.8830  142.1680 O   0  0  0  0  0  1  0  0  0  0  0  0
  186.0360  178.8380  140.0100 C   0  0  0  0  0  2  0  0  0  0  0  0
  182.2960  178.3490  140.3970 C   0  0  0  0  0  3  0  0  0  0  0  0
  181.8180  179.3880  139.5960 C   0  0  0  0  0  0  0  0  0  0  0  0
  184.0700  180.0170  139.0940 N   0  0  0  0  0  0  0  0  0  0  0  0
  183.6720  178.1570  140.5390 C   0  0  0  0  0  3  0  0  0  0  0  0
  184.5570  179.0030  139.8630 C   0  0  0  0  0  0  0  0  0  0  0  0
  182.7330  180.2240  138.9490 C   0  0  0  0  0  3  0  0  0  0  0  0
  180.3560  179.5820  139.4100 C   0  0  0  0  0  2  0  0  0  0  0  0
  179.8070  180.4960  140.4890 C   0  0  0  0  0  1  0  0  0  0  0  0
  189.0720  176.5710  141.7390 N   0  0  0  0  0  2  0  0  0  0  0  0
  191.1030  176.4990  140.2910 C   0  0  1  0  0  3  0  0  0  0  0  0
  190.9330  177.8780  140.8910 C   0  0  0  0  0  2  0  0  0  0  0  0
  190.5280  176.6630  141.7020 C   0  0  1  0  0  3  0  0  0  0  0  0
  189.3240  176.0120  136.9400 N   0  0  0  0  0  2  0  0  0  0  0  0
  190.0720  176.2770  139.2860 N   0  0  0  0  0  2  0  0  0  0  0  0
  190.3730  176.1980  137.8900 C   0  0  0  0  0  0  0  0  0  0  0  0
  191.5630  176.2960  137.4890 O   0  0  0  0  0  0  0  0  0  0  0  0
  187.9850  175.8720  137.3390 N   0  0  0  0  0  0  0  0  0  0  0  0
  186.1160  175.5870  135.7750 N   0  0  0  0  0  2  0  0  0  0  0  0
  187.3980  177.2190  137.3960 C   0  0  0  0  0  2  0  0  0  0  0  0
  187.1540  177.8100  136.0040 C   0  0  0  0  0  2  0  0  0  0  0  0
  187.3130  174.9840  136.3650 C   0  0  2  0  0  3  0  0  0  0  0  0
  186.5360  176.7830  135.0530 C   0  0  0  0  0  2  0  0  0  0  0  0
  186.9640  173.6450  137.0060 C   0  0  0  0  0  2  0  0  0  0  0  0
  185.7250  173.1160  136.4540 N   0  0  0  0  0  0  0  0  0  0  0  0
  183.8460  170.9230  136.2660 C   0  0  0  0  0  2  0  0  0  0  0  0
  183.5610  172.1620  137.1050 C   0  0  0  0  0  2  0  0  0  0  0  0
  184.8200  171.2530  135.1410 C   0  0  0  0  0  2  0  0  0  0  0  0
  184.8810  172.7560  137.5940 C   0  0  0  0  0  2  0  0  0  0  0  0
  186.0760  171.8920  135.7300 C   0  0  0  0  0  2  0  0  0  0  0  0
  1  5  1  0  0  0  0
  2 12  1  1  0  0  0
  2  9  1  0  0  0  0
  2 10  1  0  0  0  0
  3  7  2  0  0  0  0
  4  1  2  0  0  0  0
  6  8  2  0  0  0  0
  6  3  1  0  0  0  0
  7  1  1  0  0  0  0
  8  4  1  0  0  0  0
  9 23  1  1  0  0  0
  9  6  1  0  0  0  0
 10 11  1  0  0  0  0
 11  3  1  0  0  0  0
 12 13  1  1  0  0  0
 14 12  1  0  0  0  0
 15 18  1  0  0  0  0
 16 15  2  0  0  0  0
 17 19  1  0  0  0  0
 19 14  1  0  0  0  0
 19 18  2  0  0  0  0
 20 17  2  0  0  0  0
 20 16  1  0  0  0  0
 21 16  1  0  0  0  0
 21 22  1  0  0  0  0
 24 28  1  6  0  0  0
 24 25  1  0  0  0  0
 24 26  1  0  0  0  0
 25 26  1  0  0  0  0
 26 23  1  6  0  0  0
 27 31  1  0  0  0  0
 27 29  1  0  0  0  0
 29 28  1  0  0  0  0
 30 29  2  0  0  0  0
 31 33  1  0  0  0  0
 32 35  1  0  0  0  0
 34 33  1  0  0  0  0
 35 37  1  1  0  0  0
 35 31  1  0  0  0  0
 36 32  1  0  0  0  0
 36 34  1  0  0  0  0
 38 37  1  0  0  0  0
 38 42  1  0  0  0  0
 39 40  1  0  0  0  0
 40 42  1  0  0  0  0
 41 43  1  0  0  0  0
 41 39  1  0  0  0  0
 43 38  1  0  0  0  0
M  END
>  <MODEL>
9

>  <REMARK>
 VINA RESULT:      -7.3      2.044      7.023
  Name = 
  10 active torsions:
  status: ('A' for Active; 'I' for Inactive)
    1  A    between atoms: C_1  and  C_34
    2  A    between atoms: C_1  and  C_35
    3  A    between atoms: C_2  and  N_6
    4  A    between atoms: N_3  and  N_4
    5  A    between atoms: C_8  and  C_34
    6  A    between atoms: N_11  and  C_14
    7  A    between atoms: C_13  and  N_27
    8  A    between atoms: C_14  and  C_41
    9  A    between atoms: C_19  and  C_25
   10  A    between atoms: N_27  and  C_30
                            x       y       z     vdW  Elec       q    Type
                         _______ _______ _______ _____ _____    ______ ____

>  <TORSDO>
F 10

$$$$
