=
 OpenBabel11052413063D

 31 34  0  0  0  0  0  0  0  0999 V2000
  191.1020  176.4340  147.3410 C   0  0  0  0  0  3  0  0  0  0  0  0
  188.2970  177.7780  143.8990 C   0  0  0  0  0  0  0  0  0  0  0  0
  186.9440  178.0960  144.3020 C   0  0  0  0  0  0  0  0  0  0  0  0
  185.1530  178.2780  146.0060 C   0  0  0  0  0  3  0  0  0  0  0  0
  189.3480  177.3680  144.8090 C   0  0  0  0  0  0  0  0  0  0  0  0
  191.8470  176.1720  146.3190 N   0  0  0  0  0  0  0  0  0  0  0  0
  186.5270  177.9820  145.5740 C   0  0  0  0  0  3  0  0  0  0  0  0
  189.8770  177.5090  142.0230 C   0  0  0  0  0  0  0  0  0  0  0  0
  189.8150  177.1100  147.3150 C   0  0  0  0  0  3  0  0  0  0  0  0
  186.3420  178.5770  141.9930 C   0  0  0  0  0  3  0  0  0  0  0  0
  184.2400  178.6920  145.1340 C   0  0  0  0  0  0  0  0  0  0  0  0
  190.8230  177.0330  142.9070 C   0  0  0  0  0  3  0  0  0  0  0  0
  188.6010  177.8590  142.5030 C   0  0  0  0  0  0  0  0  0  0  0  0
  189.1070  177.4860  146.2630 C   0  0  0  0  0  3  0  0  0  0  0  0
  182.9830  178.9580  145.5640 F   0  0  0  0  0  0  0  0  0  0  0  0
  190.5990  176.9480  144.2740 C   0  0  0  0  0  0  0  0  0  0  0  0
  191.6520  176.4460  144.9290 C   0  0  0  0  0  3  0  0  0  0  0  0
  187.6200  178.2470  141.5880 C   0  0  0  0  0  3  0  0  0  0  0  0
  185.9940  178.5090  143.3310 C   0  0  0  0  0  0  0  0  0  0  0  0
  184.5750  178.8850  143.6850 C   0  0  0  0  0  2  0  0  0  0  0  0
  190.2430  177.5730  140.6720 O   0  0  0  0  0  0  0  0  0  0  0  0
  190.9130  176.5250  139.9850 C   0  0  0  0  0  2  0  0  0  0  0  0
  190.3610  176.4090  138.5780 C   0  0  0  0  0  2  0  0  0  0  0  0
  189.3750  177.5340  138.2830 C   0  0  0  0  0  2  0  0  0  0  0  0
  187.9470  177.0250  138.0900 C   0  0  0  0  0  2  0  0  0  0  0  0
  187.1090  177.9760  135.7100 S   0  0  0  0  0  0  0  0  0  0  0  0
  187.0990  178.0050  137.3500 C   0  0  0  0  0  0  0  0  0  0  0  0
  184.8330  178.4320  138.4990 C   0  0  0  0  0  0  0  0  0  0  0  0
  184.2340  177.4050  137.9940 N   0  0  0  0  0  2  0  0  0  0  0  0
  184.0700  179.3550  139.3790 C   0  0  0  0  0  1  0  0  0  0  0  0
  186.1590  178.7940  138.0950 N   0  0  0  0  0  2  0  0  0  0  0  0
  2  3  1  0  0  0  0
  2  5  2  0  0  0  0
  3  7  2  0  0  0  0
  5 14  1  0  0  0  0
  6  1  2  0  0  0  0
  7  4  1  0  0  0  0
  8 13  1  0  0  0  0
  8 12  2  0  0  0  0
  9  1  1  0  0  0  0
 10 19  2  0  0  0  0
 11 15  1  0  0  0  0
 11  4  2  0  0  0  0
 12 16  1  0  0  0  0
 13  2  1  0  0  0  0
 14  9  2  0  0  0  0
 16  5  1  0  0  0  0
 16 17  2  0  0  0  0
 17  6  1  0  0  0  0
 18 10  1  0  0  0  0
 18 13  2  0  0  0  0
 19 20  1  0  0  0  0
 19  3  1  0  0  0  0
 20 11  1  0  0  0  0
 21  8  1  0  0  0  0
 22 21  1  0  0  0  0
 23 22  1  0  0  0  0
 24 23  1  0  0  0  0
 25 24  1  0  0  0  0
 26 27  2  0  0  0  0
 27 25  1  0  0  0  0
 27 31  1  0  0  0  0
 28 30  1  0  0  0  0
 29 28  2  0  0  0  0
 31 28  1  0  0  0  0
M  END
>  <MODEL>
1

>  <REMARK>
 VINA RESULT:      -9.6      0.000      0.000
  Name = 
  7 active torsions:
  status: ('A' for Active; 'I' for Inactive)
    1  A    between atoms: C_3  and  C_19
    2  A    between atoms: C_3  and  C_22
    3  A    between atoms: C_7  and  C_9
    4  A    between atoms: C_7  and  C_22
    5  A    between atoms: C_9  and  O_23
    6  A    between atoms: C_15  and  O_23
    7  A    between atoms: C_19  and  N_24
                            x       y       z     vdW  Elec       q    Type
                         _______ _______ _______ _____ _____    ______ ____

>  <TORSDO>
F 7

$$$$
=
 OpenBabel11052413063D

 31 34  0  0  0  0  0  0  0  0999 V2000
  191.1020  176.4500  147.3460 C   0  0  0  0  0  3  0  0  0  0  0  0
  188.3050  177.7760  143.8900 C   0  0  0  0  0  0  0  0  0  0  0  0
  186.9510  178.0970  144.2880 C   0  0  0  0  0  0  0  0  0  0  0  0
  185.1560  178.2890  145.9870 C   0  0  0  0  0  3  0  0  0  0  0  0
  189.3540  177.3710  144.8050 C   0  0  0  0  0  0  0  0  0  0  0  0
  191.8480  176.1830  146.3270 N   0  0  0  0  0  0  0  0  0  0  0  0
  186.5310  177.9900  145.5600 C   0  0  0  0  0  3  0  0  0  0  0  0
  189.8890  177.4960  142.0190 C   0  0  0  0  0  0  0  0  0  0  0  0
  189.8150  177.1260  147.3130 C   0  0  0  0  0  3  0  0  0  0  0  0
  186.3540  178.5650  141.9750 C   0  0  0  0  0  3  0  0  0  0  0  0
  184.2450  178.6980  145.1100 C   0  0  0  0  0  0  0  0  0  0  0  0
  190.8330  177.0240  142.9080 C   0  0  0  0  0  3  0  0  0  0  0  0
  188.6130  177.8490  142.4940 C   0  0  0  0  0  0  0  0  0  0  0  0
  189.1090  177.4970  146.2570 C   0  0  0  0  0  3  0  0  0  0  0  0
  182.9870  178.9670  145.5360 F   0  0  0  0  0  0  0  0  0  0  0  0
  190.6060  176.9470  144.2750 C   0  0  0  0  0  0  0  0  0  0  0  0
  191.6570  176.4480  144.9350 C   0  0  0  0  0  3  0  0  0  0  0  0
  187.6330  178.2330  141.5750 C   0  0  0  0  0  3  0  0  0  0  0  0
  186.0030  178.5040  143.3130 C   0  0  0  0  0  0  0  0  0  0  0  0
  184.5840  178.8830  143.6610 C   0  0  0  0  0  2  0  0  0  0  0  0
  190.2590  177.5530  140.6680 O   0  0  0  0  0  0  0  0  0  0  0  0
  190.5070  176.4040  139.8700 C   0  0  0  0  0  2  0  0  0  0  0  0
  191.0900  176.8320  138.5380 C   0  0  0  0  0  2  0  0  0  0  0  0
  191.0750  175.6800  137.5390 C   0  0  0  0  0  2  0  0  0  0  0  0
  189.6580  175.2260  137.1900 C   0  0  0  0  0  2  0  0  0  0  0  0
  189.3190  176.8810  135.0890 S   0  0  0  0  0  0  0  0  0  0  0  0
  188.8600  176.3180  136.5590 C   0  0  0  0  0  0  0  0  0  0  0  0
  187.2640  177.9490  137.7560 C   0  0  0  0  0  0  0  0  0  0  0  0
  188.1640  178.8310  138.0350 N   0  0  0  0  0  2  0  0  0  0  0  0
  185.8680  178.1660  138.2150 C   0  0  0  0  0  1  0  0  0  0  0  0
  187.6120  176.6900  137.1650 N   0  0  0  0  0  2  0  0  0  0  0  0
  2  3  1  0  0  0  0
  2  5  2  0  0  0  0
  3  7  2  0  0  0  0
  5 14  1  0  0  0  0
  6  1  2  0  0  0  0
  7  4  1  0  0  0  0
  8 13  1  0  0  0  0
  8 12  2  0  0  0  0
  9  1  1  0  0  0  0
 10 19  2  0  0  0  0
 11 15  1  0  0  0  0
 11  4  2  0  0  0  0
 12 16  1  0  0  0  0
 13  2  1  0  0  0  0
 14  9  2  0  0  0  0
 16  5  1  0  0  0  0
 16 17  2  0  0  0  0
 17  6  1  0  0  0  0
 18 10  1  0  0  0  0
 18 13  2  0  0  0  0
 19 20  1  0  0  0  0
 19  3  1  0  0  0  0
 20 11  1  0  0  0  0
 21  8  1  0  0  0  0
 22 21  1  0  0  0  0
 23 22  1  0  0  0  0
 24 23  1  0  0  0  0
 25 24  1  0  0  0  0
 26 27  2  0  0  0  0
 27 31  1  0  0  0  0
 27 25  1  0  0  0  0
 28 29  2  0  0  0  0
 28 30  1  0  0  0  0
 31 28  1  0  0  0  0
M  END
>  <MODEL>
2

>  <REMARK>
 VINA RESULT:      -9.3      1.083      1.452
  Name = 
  7 active torsions:
  status: ('A' for Active; 'I' for Inactive)
    1  A    between atoms: C_3  and  C_19
    2  A    between atoms: C_3  and  C_22
    3  A    between atoms: C_7  and  C_9
    4  A    between atoms: C_7  and  C_22
    5  A    between atoms: C_9  and  O_23
    6  A    between atoms: C_15  and  O_23
    7  A    between atoms: C_19  and  N_24
                            x       y       z     vdW  Elec       q    Type
                         _______ _______ _______ _____ _____    ______ ____

>  <TORSDO>
F 7

$$$$
=
 OpenBabel11052413063D

 31 34  0  0  1  0  0  0  0  0999 V2000
  184.3420  178.8410  145.4130 C   0  0  0  0  0  3  0  0  0  0  0  0
  188.5470  177.4240  144.0610 C   0  0  0  0  0  0  0  0  0  0  0  0
  189.4780  177.1600  145.1360 C   0  0  2  0  0  3  0  0  0  0  0  0
  190.0890  177.1000  147.5380 C   0  0  0  0  0  3  0  0  0  0  0  0
  187.1730  177.8450  144.2510 C   0  0  0  0  0  0  0  0  0  0  0  0
  184.2550  179.0390  144.1400 N   0  0  0  0  0  0  0  0  0  0  0  0
  189.1550  177.3400  146.4280 C   0  0  0  0  0  3  0  0  0  0  0  0
  188.2070  177.5700  141.6210 C   0  0  0  0  0  0  0  0  0  0  0  0
  185.4450  178.1990  146.1090 C   0  0  0  0  0  3  0  0  0  0  0  0
  191.2160  176.5960  143.5280 C   0  0  0  0  0  3  0  0  0  0  0  0
  191.3260  176.6730  147.3060 C   0  0  0  0  0  0  0  0  0  0  0  0
  186.9360  178.0580  141.8420 C   0  0  0  0  0  3  0  0  0  0  0  0
  189.0320  177.2750  142.7220 C   0  0  0  0  0  0  0  0  0  0  0  0
  186.6040  177.7960  145.6150 C   0  0  0  0  0  3  0  0  0  0  0  0
  192.1610  176.4590  148.3520 F   0  0  0  0  0  0  0  0  0  0  0  0
  186.3990  178.2090  143.1130 C   0  0  0  0  0  0  0  0  0  0  0  0
  185.1590  178.7100  143.0810 C   0  0  0  0  0  3  0  0  0  0  0  0
  190.3500  176.8730  142.4900 C   0  0  0  0  0  3  0  0  0  0  0  0
  190.7990  176.7310  144.8410 C   0  0  0  0  0  0  0  0  0  0  0  0
  191.8120  176.4080  145.9130 C   0  0  0  0  0  3  0  0  0  0  0  0
  188.6160  177.4370  140.2870 O   0  0  0  0  0  0  0  0  0  0  0  0
  188.0170  178.1370  139.2060 C   0  0  0  0  0  2  0  0  0  0  0  0
  189.0900  178.8540  138.4110 C   0  0  0  0  0  2  0  0  0  0  0  0
  188.9680  178.5450  136.9240 C   0  0  0  0  0  2  0  0  0  0  0  0
  188.4300  177.1380  136.6600 C   0  0  0  0  0  2  0  0  0  0  0  0
  189.0920  175.1210  134.9980 S   0  0  0  0  0  0  0  0  0  0  0  0
  189.4900  176.2220  136.1470 C   0  0  0  0  0  0  0  0  0  0  0  0
  191.5370  176.0040  137.6960 C   0  0  0  0  0  0  0  0  0  0  0  0
  190.8930  175.4950  138.6930 N   0  0  0  0  0  2  0  0  0  0  0  0
  192.9910  176.2750  137.8350 C   0  0  0  0  0  1  0  0  0  0  0  0
  190.8520  176.4710  136.5270 N   0  0  0  0  0  2  0  0  0  0  0  0
  1  9  1  0  0  0  0
  2  5  2  0  0  0  0
  2  3  1  0  0  0  0
  3  7  1  6  0  0  0
  5 14  1  0  0  0  0
  6  1  2  0  0  0  0
  7  4  2  0  0  0  0
  8 12  2  0  0  0  0
  8 13  1  0  0  0  0
 10 19  2  0  0  0  0
 11  4  1  0  0  0  0
 11 15  1  0  0  0  0
 12 16  1  0  0  0  0
 13  2  1  0  0  0  0
 14  9  2  0  0  0  0
 16  5  1  0  0  0  0
 17 16  2  0  0  0  0
 17  6  1  0  0  0  0
 18 13  2  0  0  0  0
 18 10  1  0  0  0  0
 19  3  1  0  0  0  0
 19 20  1  0  0  0  0
 20 11  2  0  0  0  0
 21  8  1  0  0  0  0
 22 21  1  0  0  0  0
 23 22  1  0  0  0  0
 24 23  1  0  0  0  0
 25 24  1  0  0  0  0
 26 27  2  0  0  0  0
 27 31  1  0  0  0  0
 27 25  1  0  0  0  0
 28 30  1  0  0  0  0
 28 29  2  0  0  0  0
 31 28  1  0  0  0  0
M  END
>  <MODEL>
3

>  <REMARK>
 VINA RESULT:      -9.3      3.065      5.258
  Name = 
  7 active torsions:
  status: ('A' for Active; 'I' for Inactive)
    1  A    between atoms: C_3  and  C_19
    2  A    between atoms: C_3  and  C_22
    3  A    between atoms: C_7  and  C_9
    4  A    between atoms: C_7  and  C_22
    5  A    between atoms: C_9  and  O_23
    6  A    between atoms: C_15  and  O_23
    7  A    between atoms: C_19  and  N_24
                            x       y       z     vdW  Elec       q    Type
                         _______ _______ _______ _____ _____    ______ ____

>  <TORSDO>
F 7

$$$$
=
 OpenBabel11052413063D

 31 34  0  0  1  0  0  0  0  0999 V2000
  184.4040  178.8550  145.2540 C   0  0  0  0  0  3  0  0  0  0  0  0
  188.6200  177.4300  143.9470 C   0  0  0  0  0  0  0  0  0  0  0  0
  189.5290  177.1320  145.0320 C   0  0  2  0  0  3  0  0  0  0  0  0
  190.0940  177.0120  147.4430 C   0  0  0  0  0  3  0  0  0  0  0  0
  187.2470  177.8590  144.1210 C   0  0  0  0  0  0  0  0  0  0  0  0
  184.3420  179.0820  143.9850 N   0  0  0  0  0  0  0  0  0  0  0  0
  189.1840  177.2870  146.3220 C   0  0  0  0  0  3  0  0  0  0  0  0
  188.3270  177.6340  141.5050 C   0  0  0  0  0  0  0  0  0  0  0  0
  185.4880  178.1880  145.9550 C   0  0  0  0  0  3  0  0  0  0  0  0
  191.2910  176.5880  143.4440 C   0  0  0  0  0  3  0  0  0  0  0  0
  191.3320  176.5790  147.2240 C   0  0  0  0  0  0  0  0  0  0  0  0
  187.0550  178.1290  141.7140 C   0  0  0  0  0  3  0  0  0  0  0  0
  189.1280  177.3060  142.6140 C   0  0  0  0  0  0  0  0  0  0  0  0
  186.6520  177.7850  145.4730 C   0  0  0  0  0  3  0  0  0  0  0  0
  192.1460  176.3340  148.2790 F   0  0  0  0  0  0  0  0  0  0  0  0
  186.4970  178.2560  142.9780 C   0  0  0  0  0  0  0  0  0  0  0  0
  185.2620  178.7700  142.9350 C   0  0  0  0  0  3  0  0  0  0  0  0
  190.4460  176.8970  142.3960 C   0  0  0  0  0  3  0  0  0  0  0  0
  190.8510  176.6980  144.7520 C   0  0  0  0  0  0  0  0  0  0  0  0
  191.8410  176.3410  145.8340 C   0  0  0  0  0  3  0  0  0  0  0  0
  188.7580  177.5270  140.1760 O   0  0  0  0  0  0  0  0  0  0  0  0
  188.7710  178.6140  139.2620 C   0  0  0  0  0  2  0  0  0  0  0  0
  188.9450  178.0860  137.8510 C   0  0  0  0  0  2  0  0  0  0  0  0
  187.6160  178.0740  137.1050 C   0  0  0  0  0  2  0  0  0  0  0  0
  186.6560  177.0080  137.6340 C   0  0  0  0  0  2  0  0  0  0  0  0
  184.7920  177.1570  135.6920 S   0  0  0  0  0  0  0  0  0  0  0  0
  185.2400  177.2970  137.2630 C   0  0  0  0  0  0  0  0  0  0  0  0
  184.0460  178.6740  139.0850 C   0  0  0  0  0  0  0  0  0  0  0  0
  184.8800  179.6600  139.0710 N   0  0  0  0  0  2  0  0  0  0  0  0
  182.9150  178.6950  140.0470 C   0  0  0  0  0  1  0  0  0  0  0  0
  184.2830  177.4870  138.3170 N   0  0  0  0  0  2  0  0  0  0  0  0
  1  9  1  0  0  0  0
  2  5  2  0  0  0  0
  2  3  1  0  0  0  0
  3  7  1  6  0  0  0
  5 14  1  0  0  0  0
  6  1  2  0  0  0  0
  7  4  2  0  0  0  0
  8 12  2  0  0  0  0
  8 13  1  0  0  0  0
 10 19  2  0  0  0  0
 11  4  1  0  0  0  0
 11 15  1  0  0  0  0
 12 16  1  0  0  0  0
 13  2  1  0  0  0  0
 14  9  2  0  0  0  0
 16  5  1  0  0  0  0
 17 16  2  0  0  0  0
 17  6  1  0  0  0  0
 18 13  2  0  0  0  0
 18 10  1  0  0  0  0
 19  3  1  0  0  0  0
 19 20  1  0  0  0  0
 20 11  2  0  0  0  0
 21  8  1  0  0  0  0
 22 21  1  0  0  0  0
 23 22  1  0  0  0  0
 24 25  1  0  0  0  0
 24 23  1  0  0  0  0
 26 27  2  0  0  0  0
 27 25  1  0  0  0  0
 27 31  1  0  0  0  0
 28 30  1  0  0  0  0
 29 28  2  0  0  0  0
 31 28  1  0  0  0  0
M  END
>  <MODEL>
4

>  <REMARK>
 VINA RESULT:      -9.1      2.559      4.523
  Name = 
  7 active torsions:
  status: ('A' for Active; 'I' for Inactive)
    1  A    between atoms: C_3  and  C_19
    2  A    between atoms: C_3  and  C_22
    3  A    between atoms: C_7  and  C_9
    4  A    between atoms: C_7  and  C_22
    5  A    between atoms: C_9  and  O_23
    6  A    between atoms: C_15  and  O_23
    7  A    between atoms: C_19  and  N_24
                            x       y       z     vdW  Elec       q    Type
                         _______ _______ _______ _____ _____    ______ ____

>  <TORSDO>
F 7

$$$$
=
 OpenBabel11052413063D

 31 34  0  0  0  0  0  0  0  0999 V2000
  191.2280  176.4020  147.1770 C   0  0  0  0  0  3  0  0  0  0  0  0
  188.2360  177.6950  143.8770 C   0  0  0  0  0  0  0  0  0  0  0  0
  186.9160  178.0490  144.3520 C   0  0  0  0  0  0  0  0  0  0  0  0
  185.2380  178.3130  146.1580 C   0  0  0  0  0  3  0  0  0  0  0  0
  189.3350  177.2930  144.7320 C   0  0  0  0  0  0  0  0  0  0  0  0
  191.9030  176.0970  146.1200 N   0  0  0  0  0  0  0  0  0  0  0  0
  186.5770  177.9800  145.6510 C   0  0  0  0  0  3  0  0  0  0  0  0
  189.6910  177.3430  141.9150 C   0  0  0  0  0  0  0  0  0  0  0  0
  189.9530  177.1000  147.2110 C   0  0  0  0  0  3  0  0  0  0  0  0
  186.1790  178.4730  142.0720 C   0  0  0  0  0  3  0  0  0  0  0  0
  184.2790  178.7170  145.3310 C   0  0  0  0  0  0  0  0  0  0  0  0
  190.6830  176.8760  142.7530 C   0  0  0  0  0  3  0  0  0  0  0  0
  188.4540  177.7300  142.4620 C   0  0  0  0  0  0  0  0  0  0  0  0
  189.1860  177.4580  146.1930 C   0  0  0  0  0  3  0  0  0  0  0  0
  183.0550  179.0190  145.8300 F   0  0  0  0  0  0  0  0  0  0  0  0
  190.5430  176.8350  144.1330 C   0  0  0  0  0  0  0  0  0  0  0  0
  191.6270  176.3340  144.7370 C   0  0  0  0  0  3  0  0  0  0  0  0
  187.4240  178.1090  141.5980 C   0  0  0  0  0  3  0  0  0  0  0  0
  185.9140  178.4500  143.4300 C   0  0  0  0  0  0  0  0  0  0  0  0
  184.5260  178.8620  143.8590 C   0  0  0  0  0  2  0  0  0  0  0  0
  189.9740  177.3620  140.5430 O   0  0  0  0  0  0  0  0  0  0  0  0
  191.2610  177.1060  139.9990 C   0  0  0  0  0  2  0  0  0  0  0  0
  191.1340  176.8040  138.5190 C   0  0  0  0  0  2  0  0  0  0  0  0
  192.0840  175.6860  138.1050 C   0  0  0  0  0  2  0  0  0  0  0  0
  193.3320  176.2100  137.3950 C   0  0  0  0  0  2  0  0  0  0  0  0
  193.5930  174.0640  135.7850 S   0  0  0  0  0  0  0  0  0  0  0  0
  194.2000  175.1030  136.8990 C   0  0  0  0  0  0  0  0  0  0  0  0
  196.2600  174.2430  138.1850 C   0  0  0  0  0  0  0  0  0  0  0  0
  195.6000  173.4960  139.0060 N   0  0  0  0  0  2  0  0  0  0  0  0
  197.7370  174.3390  138.3200 C   0  0  0  0  0  1  0  0  0  0  0  0
  195.5890  175.1100  137.2620 N   0  0  0  0  0  2  0  0  0  0  0  0
  1  9  1  0  0  0  0
  2  3  1  0  0  0  0
  2  5  2  0  0  0  0
  3  7  2  0  0  0  0
  5 14  1  0  0  0  0
  6  1  2  0  0  0  0
  7  4  1  0  0  0  0
  8 13  1  0  0  0  0
  8 12  2  0  0  0  0
 10 19  2  0  0  0  0
 11 15  1  0  0  0  0
 11  4  2  0  0  0  0
 12 16  1  0  0  0  0
 13  2  1  0  0  0  0
 14  9  2  0  0  0  0
 16  5  1  0  0  0  0
 16 17  2  0  0  0  0
 17  6  1  0  0  0  0
 18 10  1  0  0  0  0
 18 13  2  0  0  0  0
 19 20  1  0  0  0  0
 19  3  1  0  0  0  0
 20 11  1  0  0  0  0
 21  8  1  0  0  0  0
 22 21  1  0  0  0  0
 23 22  1  0  0  0  0
 24 23  1  0  0  0  0
 25 24  1  0  0  0  0
 26 27  2  0  0  0  0
 27 31  1  0  0  0  0
 27 25  1  0  0  0  0
 28 30  1  0  0  0  0
 28 29  2  0  0  0  0
 31 28  1  0  0  0  0
M  END
>  <MODEL>
5

>  <REMARK>
 VINA RESULT:      -9.1      3.388      4.982
  Name = 
  7 active torsions:
  status: ('A' for Active; 'I' for Inactive)
    1  A    between atoms: C_3  and  C_19
    2  A    between atoms: C_3  and  C_22
    3  A    between atoms: C_7  and  C_9
    4  A    between atoms: C_7  and  C_22
    5  A    between atoms: C_9  and  O_23
    6  A    between atoms: C_15  and  O_23
    7  A    between atoms: C_19  and  N_24
                            x       y       z     vdW  Elec       q    Type
                         _______ _______ _______ _____ _____    ______ ____

>  <TORSDO>
F 7

$$$$
=
 OpenBabel11052413063D

 31 34  0  0  0  0  0  0  0  0999 V2000
  191.3640  176.7580  147.6630 C   0  0  0  0  0  3  0  0  0  0  0  0
  188.3670  177.4660  144.1940 C   0  0  0  0  0  0  0  0  0  0  0  0
  187.0480  177.8980  144.6030 C   0  0  0  0  0  0  0  0  0  0  0  0
  185.3730  178.4680  146.3390 C   0  0  0  0  0  3  0  0  0  0  0  0
  189.4680  177.2170  145.1030 C   0  0  0  0  0  0  0  0  0  0  0  0
  192.0380  176.2760  146.6720 N   0  0  0  0  0  0  0  0  0  0  0  0
  186.7110  178.0520  145.8950 C   0  0  0  0  0  3  0  0  0  0  0  0
  189.8190  176.7810  142.3200 C   0  0  0  0  0  0  0  0  0  0  0  0
  190.0900  177.4520  147.5780 C   0  0  0  0  0  3  0  0  0  0  0  0
  186.3070  177.9240  142.2850 C   0  0  0  0  0  3  0  0  0  0  0  0
  184.4130  178.7250  145.4570 C   0  0  0  0  0  0  0  0  0  0  0  0
  190.8120  176.4650  143.2240 C   0  0  0  0  0  3  0  0  0  0  0  0
  188.5830  177.2570  142.7940 C   0  0  0  0  0  0  0  0  0  0  0  0
  189.3220  177.6300  146.5150 C   0  0  0  0  0  3  0  0  0  0  0  0
  183.1900  179.1080  145.8990 F   0  0  0  0  0  0  0  0  0  0  0  0
  190.6750  176.6620  144.5910 C   0  0  0  0  0  0  0  0  0  0  0  0
  191.7590  176.2710  145.2690 C   0  0  0  0  0  3  0  0  0  0  0  0
  187.5510  177.4830  141.8790 C   0  0  0  0  0  3  0  0  0  0  0  0
  186.0450  178.1350  143.6280 C   0  0  0  0  0  0  0  0  0  0  0  0
  184.6580  178.6150  143.9820 C   0  0  0  0  0  2  0  0  0  0  0  0
  190.0990  176.5640  140.9640 O   0  0  0  0  0  0  0  0  0  0  0  0
  190.7440  177.5160  140.1290 C   0  0  0  0  0  2  0  0  0  0  0  0
  189.7090  178.2220  139.2750 C   0  0  0  0  0  2  0  0  0  0  0  0
  188.9800  177.2340  138.3720 C   0  0  0  0  0  2  0  0  0  0  0  0
  189.1620  177.5520  136.8880 C   0  0  0  0  0  2  0  0  0  0  0  0
  189.3930  175.8200  134.8340 S   0  0  0  0  0  0  0  0  0  0  0  0
  189.9880  176.5220  136.1920 C   0  0  0  0  0  0  0  0  0  0  0  0
  191.8920  175.2210  137.3420 C   0  0  0  0  0  0  0  0  0  0  0  0
  191.1280  174.3570  137.9240 N   0  0  0  0  0  2  0  0  0  0  0  0
  193.3580  175.1640  137.5740 C   0  0  0  0  0  1  0  0  0  0  0  0
  191.3450  176.3310  136.6190 N   0  0  0  0  0  2  0  0  0  0  0  0
  2  3  1  0  0  0  0
  2  5  2  0  0  0  0
  3  7  2  0  0  0  0
  5 14  1  0  0  0  0
  6  1  2  0  0  0  0
  7  4  1  0  0  0  0
  8 13  1  0  0  0  0
  8 12  2  0  0  0  0
  9  1  1  0  0  0  0
 10 19  2  0  0  0  0
 11 15  1  0  0  0  0
 11  4  2  0  0  0  0
 12 16  1  0  0  0  0
 13  2  1  0  0  0  0
 14  9  2  0  0  0  0
 16  5  1  0  0  0  0
 16 17  2  0  0  0  0
 17  6  1  0  0  0  0
 18 10  1  0  0  0  0
 18 13  2  0  0  0  0
 19 20  1  0  0  0  0
 19  3  1  0  0  0  0
 20 11  1  0  0  0  0
 21  8  1  0  0  0  0
 22 21  1  0  0  0  0
 23 22  1  0  0  0  0
 24 23  1  0  0  0  0
 25 24  1  0  0  0  0
 26 27  2  0  0  0  0
 27 31  1  0  0  0  0
 27 25  1  0  0  0  0
 28 30  1  0  0  0  0
 28 29  2  0  0  0  0
 31 28  1  0  0  0  0
M  END
>  <MODEL>
6

>  <REMARK>
 VINA RESULT:      -9.1      2.184      3.102
  Name = 
  7 active torsions:
  status: ('A' for Active; 'I' for Inactive)
    1  A    between atoms: C_3  and  C_19
    2  A    between atoms: C_3  and  C_22
    3  A    between atoms: C_7  and  C_9
    4  A    between atoms: C_7  and  C_22
    5  A    between atoms: C_9  and  O_23
    6  A    between atoms: C_15  and  O_23
    7  A    between atoms: C_19  and  N_24
                            x       y       z     vdW  Elec       q    Type
                         _______ _______ _______ _____ _____    ______ ____

>  <TORSDO>
F 7

$$$$
=
 OpenBabel11052413063D

 31 34  0  0  1  0  0  0  0  0999 V2000
  190.3050  177.4730  139.8840 C   0  0  0  0  0  3  0  0  0  0  0  0
  188.7490  177.5340  144.2540 C   0  0  0  0  0  0  0  0  0  0  0  0
  189.7220  177.1550  145.2550 C   0  0  2  0  0  3  0  0  0  0  0  0
  191.9760  176.3760  145.9320 C   0  0  0  0  0  3  0  0  0  0  0  0
  189.0230  177.6150  142.8330 C   0  0  0  0  0  0  0  0  0  0  0  0
  189.0430  177.6500  139.6790 N   0  0  0  0  0  0  0  0  0  0  0  0
  190.9740  176.7860  144.9370 C   0  0  0  0  0  3  0  0  0  0  0  0
  186.4030  178.1460  143.7910 C   0  0  0  0  0  0  0  0  0  0  0  0
  190.9720  177.4650  141.1760 C   0  0  0  0  0  3  0  0  0  0  0  0
  188.0600  177.4270  147.0120 C   0  0  0  0  0  3  0  0  0  0  0  0
  191.6810  176.3610  147.2280 C   0  0  0  0  0  0  0  0  0  0  0  0
  186.6790  178.1220  142.4390 C   0  0  0  0  0  3  0  0  0  0  0  0
  187.4230  177.8280  144.7070 C   0  0  0  0  0  0  0  0  0  0  0  0
  190.4280  177.5230  142.3810 C   0  0  0  0  0  3  0  0  0  0  0  0
  192.6270  175.9810  148.1200 F   0  0  0  0  0  0  0  0  0  0  0  0
  187.9460  177.8630  141.9350 C   0  0  0  0  0  0  0  0  0  0  0  0
  187.9710  177.8790  140.5970 C   0  0  0  0  0  3  0  0  0  0  0  0
  187.1110  177.7610  146.0670 C   0  0  0  0  0  3  0  0  0  0  0  0
  189.3550  177.1270  146.6260 C   0  0  0  0  0  0  0  0  0  0  0  0
  190.3270  176.7720  147.7250 C   0  0  0  0  0  3  0  0  0  0  0  0
  185.0890  178.4520  144.1670 O   0  0  0  0  0  0  0  0  0  0  0  0
  184.2590  179.3650  143.4610 C   0  0  0  0  0  2  0  0  0  0  0  0
  183.0070  178.6500  142.9930 C   0  0  0  0  0  2  0  0  0  0  0  0
  182.9380  178.6070  141.4710 C   0  0  0  0  0  2  0  0  0  0  0  0
  184.2600  179.0040  140.8140 C   0  0  0  0  0  2  0  0  0  0  0  0
  182.7100  179.7300  138.7300 S   0  0  0  0  0  0  0  0  0  0  0  0
  184.1240  179.1610  139.3360 C   0  0  0  0  0  0  0  0  0  0  0  0
  185.5880  177.9450  137.5990 C   0  0  0  0  0  0  0  0  0  0  0  0
  184.9020  176.8500  137.5940 N   0  0  0  0  0  2  0  0  0  0  0  0
  186.8090  178.0390  136.7590 C   0  0  0  0  0  1  0  0  0  0  0  0
  185.2960  179.0020  138.5220 N   0  0  0  0  0  2  0  0  0  0  0  0
  1  9  1  0  0  0  0
  2 13  1  0  0  0  0
  2  3  1  0  0  0  0
  3  7  1  6  0  0  0
  3 19  1  0  0  0  0
  4 11  1  0  0  0  0
  5  2  2  0  0  0  0
  6  1  2  0  0  0  0
  6 17  1  0  0  0  0
  7  4  2  0  0  0  0
  8 21  1  0  0  0  0
  8 13  1  0  0  0  0
  9 14  2  0  0  0  0
 11 20  2  0  0  0  0
 11 15  1  0  0  0  0
 12  8  2  0  0  0  0
 13 18  2  0  0  0  0
 14  5  1  0  0  0  0
 16 12  1  0  0  0  0
 16  5  1  0  0  0  0
 17 16  2  0  0  0  0
 18 10  1  0  0  0  0
 19 10  2  0  0  0  0
 19 20  1  0  0  0  0
 22 21  1  0  0  0  0
 23 22  1  0  0  0  0
 24 23  1  0  0  0  0
 25 24  1  0  0  0  0
 26 27  2  0  0  0  0
 27 25  1  0  0  0  0
 28 31  1  0  0  0  0
 29 28  2  0  0  0  0
 30 28  1  0  0  0  0
 31 27  1  0  0  0  0
M  END
>  <MODEL>
7

>  <REMARK>
 VINA RESULT:      -8.9      2.919      5.589
  Name = 
  7 active torsions:
  status: ('A' for Active; 'I' for Inactive)
    1  A    between atoms: C_3  and  C_19
    2  A    between atoms: C_3  and  C_22
    3  A    between atoms: C_7  and  C_9
    4  A    between atoms: C_7  and  C_22
    5  A    between atoms: C_9  and  O_23
    6  A    between atoms: C_15  and  O_23
    7  A    between atoms: C_19  and  N_24
                            x       y       z     vdW  Elec       q    Type
                         _______ _______ _______ _____ _____    ______ ____

>  <TORSDO>
F 7

$$$$
=
 OpenBabel11052413063D

 31 34  0  0  1  0  0  0  0  0999 V2000
  190.2290  177.5020  139.8730 C   0  0  0  0  0  3  0  0  0  0  0  0
  188.7010  177.5560  144.2530 C   0  0  0  0  0  0  0  0  0  0  0  0
  189.6770  177.1630  145.2460 C   0  0  2  0  0  3  0  0  0  0  0  0
  191.9270  176.3580  145.9050 C   0  0  0  0  0  3  0  0  0  0  0  0
  188.9680  177.6420  142.8310 C   0  0  0  0  0  0  0  0  0  0  0  0
  188.9680  177.6930  139.6770 N   0  0  0  0  0  0  0  0  0  0  0  0
  190.9230  176.7820  144.9180 C   0  0  0  0  0  3  0  0  0  0  0  0
  186.3590  178.1940  143.8080 C   0  0  0  0  0  0  0  0  0  0  0  0
  190.9040  177.4800  141.1610 C   0  0  0  0  0  3  0  0  0  0  0  0
  188.0290  177.4420  147.0150 C   0  0  0  0  0  3  0  0  0  0  0  0
  191.6400  176.3390  147.2030 C   0  0  0  0  0  0  0  0  0  0  0  0
  186.6260  178.1740  142.4540 C   0  0  0  0  0  3  0  0  0  0  0  0
  187.3810  177.8610  144.7160 C   0  0  0  0  0  0  0  0  0  0  0  0
  190.3680  177.5380  142.3690 C   0  0  0  0  0  3  0  0  0  0  0  0
  192.5880  175.9440  148.0870 F   0  0  0  0  0  0  0  0  0  0  0  0
  187.8880  177.9050  141.9410 C   0  0  0  0  0  0  0  0  0  0  0  0
  187.9040  177.9280  140.6030 C   0  0  0  0  0  3  0  0  0  0  0  0
  187.0770  177.7900  146.0770 C   0  0  0  0  0  3  0  0  0  0  0  0
  189.3180  177.1310  146.6190 C   0  0  0  0  0  0  0  0  0  0  0  0
  190.2930  176.7600  147.7110 C   0  0  0  0  0  3  0  0  0  0  0  0
  185.0500  178.5120  144.1940 O   0  0  0  0  0  0  0  0  0  0  0  0
  183.9670  178.6330  143.2830 C   0  0  0  0  0  2  0  0  0  0  0  0
  182.8040  179.3210  143.9690 C   0  0  0  0  0  2  0  0  0  0  0  0
  181.4810  178.6650  143.5920 C   0  0  0  0  0  2  0  0  0  0  0  0
  180.5500  179.6140  142.8370 C   0  0  0  0  0  2  0  0  0  0  0  0
  180.0040  180.5240  140.3590 S   0  0  0  0  0  0  0  0  0  0  0  0
  180.5610  179.3570  141.3670 C   0  0  0  0  0  0  0  0  0  0  0  0
  180.6700  177.0490  140.2280 C   0  0  0  0  0  0  0  0  0  0  0  0
  179.3960  176.8400  140.2330 N   0  0  0  0  0  2  0  0  0  0  0  0
  181.5750  175.9990  139.6920 C   0  0  0  0  0  1  0  0  0  0  0  0
  181.2410  178.1890  140.8830 N   0  0  0  0  0  2  0  0  0  0  0  0
  1  9  1  0  0  0  0
  2 13  1  0  0  0  0
  2  3  1  0  0  0  0
  3  7  1  6  0  0  0
  3 19  1  0  0  0  0
  4 11  1  0  0  0  0
  5  2  2  0  0  0  0
  6  1  2  0  0  0  0
  6 17  1  0  0  0  0
  7  4  2  0  0  0  0
  8 21  1  0  0  0  0
  8 13  1  0  0  0  0
  9 14  2  0  0  0  0
 11 20  2  0  0  0  0
 11 15  1  0  0  0  0
 12  8  2  0  0  0  0
 13 18  2  0  0  0  0
 14  5  1  0  0  0  0
 16 12  1  0  0  0  0
 16  5  1  0  0  0  0
 17 16  2  0  0  0  0
 18 10  1  0  0  0  0
 19 10  2  0  0  0  0
 19 20  1  0  0  0  0
 22 23  1  0  0  0  0
 22 21  1  0  0  0  0
 24 23  1  0  0  0  0
 25 24  1  0  0  0  0
 26 27  2  0  0  0  0
 27 25  1  0  0  0  0
 28 29  2  0  0  0  0
 28 31  1  0  0  0  0
 30 28  1  0  0  0  0
 31 27  1  0  0  0  0
M  END
>  <MODEL>
8

>  <REMARK>
 VINA RESULT:      -8.8      3.507      6.367
  Name = 
  7 active torsions:
  status: ('A' for Active; 'I' for Inactive)
    1  A    between atoms: C_3  and  C_19
    2  A    between atoms: C_3  and  C_22
    3  A    between atoms: C_7  and  C_9
    4  A    between atoms: C_7  and  C_22
    5  A    between atoms: C_9  and  O_23
    6  A    between atoms: C_15  and  O_23
    7  A    between atoms: C_19  and  N_24
                            x       y       z     vdW  Elec       q    Type
                         _______ _______ _______ _____ _____    ______ ____

>  <TORSDO>
F 7

$$$$
=
 OpenBabel11052413063D

 31 34  0  0  1  0  0  0  0  0999 V2000
  184.4080  178.9030  144.4670 C   0  0  0  0  0  3  0  0  0  0  0  0
  188.7190  177.4940  143.4910 C   0  0  0  0  0  0  0  0  0  0  0  0
  189.5320  177.1700  144.6430 C   0  0  2  0  0  3  0  0  0  0  0  0
  189.8910  176.9950  147.0900 C   0  0  0  0  0  3  0  0  0  0  0  0
  187.3360  177.9240  143.5580 C   0  0  0  0  0  0  0  0  0  0  0  0
  184.4550  179.1580  143.2020 N   0  0  0  0  0  0  0  0  0  0  0  0
  189.0790  177.2970  145.9020 C   0  0  0  0  0  3  0  0  0  0  0  0
  188.6350  177.7530  141.0380 C   0  0  0  0  0  0  0  0  0  0  0  0
  185.4280  178.2170  145.2430 C   0  0  0  0  0  3  0  0  0  0  0  0
  191.4220  176.6560  143.1980 C   0  0  0  0  0  3  0  0  0  0  0  0
  191.1420  176.5630  146.9670 C   0  0  0  0  0  0  0  0  0  0  0  0
  187.3510  178.2470  141.1490 C   0  0  0  0  0  3  0  0  0  0  0  0
  189.3380  177.3990  142.2040 C   0  0  0  0  0  0  0  0  0  0  0  0
  186.6290  177.8210  144.8520 C   0  0  0  0  0  3  0  0  0  0  0  0
  191.8630  176.2920  148.0820 F   0  0  0  0  0  0  0  0  0  0  0  0
  186.6870  178.3470  142.3640 C   0  0  0  0  0  0  0  0  0  0  0  0
  185.4610  178.8660  142.2280 C   0  0  0  0  0  3  0  0  0  0  0  0
  190.6700  176.9910  142.0900 C   0  0  0  0  0  3  0  0  0  0  0  0
  190.8730  176.7380  144.4660 C   0  0  0  0  0  0  0  0  0  0  0  0
  191.7670  176.3550  145.6200 C   0  0  0  0  0  3  0  0  0  0  0  0
  189.1770  177.6740  139.7490 O   0  0  0  0  0  0  0  0  0  0  0  0
  189.1570  178.7480  138.8180 C   0  0  0  0  0  2  0  0  0  0  0  0
  189.0550  178.1940  137.4110 C   0  0  0  0  0  2  0  0  0  0  0  0
  187.6720  178.4460  136.8220 C   0  0  0  0  0  2  0  0  0  0  0  0
  186.6190  177.4800  137.3660 C   0  0  0  0  0  2  0  0  0  0  0  0
  186.7030  176.4630  134.8710 S   0  0  0  0  0  0  0  0  0  0  0  0
  186.4380  176.2930  136.4800 C   0  0  0  0  0  0  0  0  0  0  0  0
  185.0240  174.2510  137.1660 C   0  0  0  0  0  0  0  0  0  0  0  0
  183.8800  174.7870  136.8950 N   0  0  0  0  0  2  0  0  0  0  0  0
  185.0650  172.8800  137.7350 C   0  0  0  0  0  1  0  0  0  0  0  0
  186.2380  175.0090  137.0910 N   0  0  0  0  0  2  0  0  0  0  0  0
  1  9  1  0  0  0  0
  2  5  2  0  0  0  0
  2  3  1  0  0  0  0
  3  7  1  1  0  0  0
  5 14  1  0  0  0  0
  6  1  2  0  0  0  0
  7  4  2  0  0  0  0
  8 12  2  0  0  0  0
  8 13  1  0  0  0  0
 10 19  2  0  0  0  0
 11  4  1  0  0  0  0
 11 15  1  0  0  0  0
 12 16  1  0  0  0  0
 13  2  1  0  0  0  0
 14  9  2  0  0  0  0
 16  5  1  0  0  0  0
 17 16  2  0  0  0  0
 17  6  1  0  0  0  0
 18 13  2  0  0  0  0
 18 10  1  0  0  0  0
 19  3  1  0  0  0  0
 19 20  1  0  0  0  0
 20 11  2  0  0  0  0
 21  8  1  0  0  0  0
 22 21  1  0  0  0  0
 23 22  1  0  0  0  0
 24 25  1  0  0  0  0
 24 23  1  0  0  0  0
 26 27  2  0  0  0  0
 27 31  1  0  0  0  0
 27 25  1  0  0  0  0
 28 30  1  0  0  0  0
 29 28  2  0  0  0  0
 31 28  1  0  0  0  0
M  END
>  <MODEL>
9

>  <REMARK>
 VINA RESULT:      -8.8      2.744      4.772
  Name = 
  7 active torsions:
  status: ('A' for Active; 'I' for Inactive)
    1  A    between atoms: C_3  and  C_19
    2  A    between atoms: C_3  and  C_22
    3  A    between atoms: C_7  and  C_9
    4  A    between atoms: C_7  and  C_22
    5  A    between atoms: C_9  and  O_23
    6  A    between atoms: C_15  and  O_23
    7  A    between atoms: C_19  and  N_24
                            x       y       z     vdW  Elec       q    Type
                         _______ _______ _______ _____ _____    ______ ____

>  <TORSDO>
F 7

$$$$
