=
 OpenBabel11052414313D

 32 36  0  0  1  0  0  0  0  0999 V2000
  181.5140  178.2480  138.4780 C   0  0  2  0  0  3  0  0  0  0  0  0
  180.8000  174.5010  136.0450 C   0  0  0  0  0  2  0  0  0  0  0  0
  182.4770  177.6830  137.4140 C   0  0  1  0  0  3  0  0  0  0  0  0
  182.4190  173.4980  137.1610 O   0  0  0  0  0  0  0  0  0  0  0  0
  182.5930  174.8360  137.3390 C   0  0  0  0  0  0  0  0  0  0  0  0
  183.7290  176.9420  137.9570 C   0  0  1  0  0  3  0  0  0  0  0  0
  183.6290  175.4320  137.9200 C   0  0  0  0  0  3  0  0  0  0  0  0
  181.5480  175.5320  136.7480 N   0  0  0  0  0  0  0  0  0  0  0  0
  181.3170  173.2230  136.4310 O   0  0  0  0  0  0  0  0  0  0  0  0
  181.7090  176.9140  136.3300 C   0  0  0  0  0  2  0  0  0  0  0  0
  184.9780  177.3800  137.2060 C   0  0  0  0  0  2  0  0  0  0  0  0
  185.8710  178.2470  138.0780 C   0  0  0  0  0  2  0  0  0  0  0  0
  187.2970  177.7290  138.0590 C   0  0  0  0  0  1  0  0  0  0  0  0
  181.4070  179.7920  138.4550 C   0  0  0  0  0  0  0  0  0  0  0  0
  182.7180  180.4370  138.8660 C   0  0  0  0  0  1  0  0  0  0  0  0
  180.3020  180.2820  139.3750 C   0  0  0  0  0  1  0  0  0  0  0  0
  181.0620  180.2660  137.0540 C   0  0  0  0  0  1  0  0  0  0  0  0
  180.2570  176.9070  140.2950 N   0  0  0  0  0  0  0  0  0  0  0  0
  181.3590  176.2000  139.8330 O   0  0  0  0  0  0  0  0  0  0  0  0
  181.4950  177.5510  139.8760 C   0  0  1  0  0  0  0  0  0  0  0  0
  182.5280  179.1590  143.2040 C   0  0  0  0  0  3  0  0  0  0  0  0
  184.4970  178.3360  142.0710 C   0  0  0  0  0  3  0  0  0  0  0  0
  182.3080  178.0550  141.0460 C   0  0  0  0  0  0  0  0  0  0  0  0
  183.9170  178.9820  143.1680 C   0  0  0  0  0  0  0  0  0  0  0  0
  183.6990  177.8870  141.0170 C   0  0  0  0  0  3  0  0  0  0  0  0
  181.7260  178.7160  142.1500 C   0  0  0  0  0  0  0  0  0  0  0  0
  180.3600  178.9580  142.2070 O   0  0  0  0  0  1  0  0  0  0  0  0
  184.7640  179.4120  144.3270 C   0  0  0  0  0  3  0  0  0  0  0  0
  185.6370  178.2640  144.8050 C   0  0  0  0  0  2  0  0  0  0  0  0
  184.3920  178.6310  145.5760 C   0  0  0  0  0  2  0  0  0  0  0  0
  179.2580  176.8180  139.2370 C   0  0  0  0  0  2  0  0  0  0  0  0
  178.9310  175.4800  139.0180 O   0  0  0  0  0  1  0  0  0  0  0  0
  1 14  1  1  0  0  0
  2  9  1  0  0  0  0
  2  8  1  0  0  0  0
  3  6  1  0  0  0  0
  3  1  1  1  0  0  0
  4  5  1  0  0  0  0
  5  7  2  0  0  0  0
  6 11  1  6  0  0  0
  7  6  1  0  0  0  0
  8  5  1  0  0  0  0
  9  4  1  0  0  0  0
 10  8  1  0  0  0  0
 10  3  1  0  0  0  0
 11 12  1  0  0  0  0
 13 12  1  0  0  0  0
 14 15  1  0  0  0  0
 14 16  1  0  0  0  0
 17 14  1  0  0  0  0
 19 20  1  0  0  0  0
 19 18  1  0  0  0  0
 20  1  1  6  0  0  0
 20 18  1  0  0  0  0
 20 23  1  0  0  0  0
 22 24  2  0  0  0  0
 23 26  1  0  0  0  0
 24 21  1  0  0  0  0
 24 28  1  0  0  0  0
 25 23  2  0  0  0  0
 25 22  1  0  0  0  0
 26 27  1  0  0  0  0
 26 21  2  0  0  0  0
 28 29  1  0  0  0  0
 28 30  1  0  0  0  0
 29 30  1  0  0  0  0
 31 18  1  0  0  0  0
 32 31  1  0  0  0  0
M  END
>  <MODEL>
1

>  <REMARK>
 VINA RESULT:      -5.9      0.000      0.000
  Name = 
  8 active torsions:
  status: ('A' for Active; 'I' for Inactive)
    1  A    between atoms: N_1  and  C_4
    2  A    between atoms: C_2  and  C_5
    3  A    between atoms: C_5  and  C_10
    4  A    between atoms: C_5  and  C_27
    5  A    between atoms: C_6  and  C_13
    6  A    between atoms: C_6  and  C_25
    7  A    between atoms: C_7  and  C_19
    8  A    between atoms: C_16  and  C_27
                            x       y       z     vdW  Elec       q    Type
                         _______ _______ _______ _____ _____    ______ ____

>  <TORSDO>
F 8

$$$$
=
 OpenBabel11052414313D

 32 36  0  0  1  0  0  0  0  0999 V2000
  181.0280  178.1600  138.2520 C   0  0  2  0  0  3  0  0  0  0  0  0
  179.4220  180.9290  141.4490 C   0  0  0  0  0  2  0  0  0  0  0  0
  179.8390  177.8460  139.1820 C   0  0  1  0  0  3  0  0  0  0  0  0
  180.2010  179.5570  142.9940 O   0  0  0  0  0  0  0  0  0  0  0  0
  180.1370  178.8450  141.8350 C   0  0  0  0  0  0  0  0  0  0  0  0
  180.1320  176.8680  140.3530 C   0  0  1  0  0  3  0  0  0  0  0  0
  180.3350  177.5390  141.6940 C   0  0  0  0  0  3  0  0  0  0  0  0
  179.7510  179.6730  140.7920 N   0  0  0  0  0  0  0  0  0  0  0  0
  179.8340  180.8450  142.8180 O   0  0  0  0  0  0  0  0  0  0  0  0
  179.1150  179.1330  139.6020 C   0  0  0  0  0  2  0  0  0  0  0  0
  179.0240  175.8320  140.4740 C   0  0  0  0  0  2  0  0  0  0  0  0
  179.5890  174.4210  140.5090 C   0  0  0  0  0  2  0  0  0  0  0  0
  179.2380  173.7390  141.8180 C   0  0  0  0  0  1  0  0  0  0  0  0
  180.6110  178.4220  136.7850 C   0  0  0  0  0  0  0  0  0  0  0  0
  180.1040  179.8410  136.6060 C   0  0  0  0  0  1  0  0  0  0  0  0
  179.5350  177.4490  136.3350 C   0  0  0  0  0  1  0  0  0  0  0  0
  181.8030  178.2230  135.8650 C   0  0  0  0  0  1  0  0  0  0  0  0
  183.5520  178.1360  138.8120 N   0  0  0  0  0  0  0  0  0  0  0  0
  182.8300  177.4250  139.7600 O   0  0  0  0  0  0  0  0  0  0  0  0
  182.3560  177.3700  138.4870 C   0  0  1  0  0  0  0  0  0  0  0  0
  184.0940  174.6920  136.3570 C   0  0  0  0  0  3  0  0  0  0  0  0
  181.9910  173.8240  137.1710 C   0  0  0  0  0  3  0  0  0  0  0  0
  182.6740  176.0820  137.7630 C   0  0  0  0  0  0  0  0  0  0  0  0
  183.1630  173.6480  136.4270 C   0  0  0  0  0  0  0  0  0  0  0  0
  181.7470  175.0330  137.8230 C   0  0  0  0  0  3  0  0  0  0  0  0
  183.8520  175.9070  137.0040 C   0  0  0  0  0  0  0  0  0  0  0  0
  184.7800  176.9300  136.8650 O   0  0  0  0  0  1  0  0  0  0  0  0
  183.4550  172.3310  135.7740 C   0  0  0  0  0  3  0  0  0  0  0  0
  183.3150  171.1970  136.7760 C   0  0  0  0  0  2  0  0  0  0  0  0
  184.6890  171.6940  136.3910 C   0  0  0  0  0  2  0  0  0  0  0  0
  183.2870  179.5440  139.0860 C   0  0  0  0  0  2  0  0  0  0  0  0
  184.4930  180.2410  139.1430 O   0  0  0  0  0  1  0  0  0  0  0  0
  1 14  1  6  0  0  0
  2  9  1  0  0  0  0
  3  1  1  1  0  0  0
  3 10  1  0  0  0  0
  3  6  1  0  0  0  0
  5  4  1  0  0  0  0
  6 11  1  1  0  0  0
  6  7  1  0  0  0  0
  7  5  2  0  0  0  0
  8  2  1  0  0  0  0
  8  5  1  0  0  0  0
  9  4  1  0  0  0  0
 10  8  1  0  0  0  0
 11 12  1  0  0  0  0
 12 13  1  0  0  0  0
 15 14  1  0  0  0  0
 16 14  1  0  0  0  0
 17 14  1  0  0  0  0
 18 31  1  0  0  0  0
 18 19  1  0  0  0  0
 20  1  1  6  0  0  0
 20 18  1  0  0  0  0
 20 19  1  0  0  0  0
 21 24  2  0  0  0  0
 21 26  1  0  0  0  0
 22 25  2  0  0  0  0
 23 25  1  0  0  0  0
 23 20  1  0  0  0  0
 24 22  1  0  0  0  0
 26 23  2  0  0  0  0
 27 26  1  0  0  0  0
 28 30  1  0  0  0  0
 28 24  1  0  0  0  0
 28 29  1  0  0  0  0
 30 29  1  0  0  0  0
 31 32  1  0  0  0  0
M  END
>  <MODEL>
2

>  <REMARK>
 VINA RESULT:      -4.3      3.013      6.737
  Name = 
  8 active torsions:
  status: ('A' for Active; 'I' for Inactive)
    1  A    between atoms: N_1  and  C_4
    2  A    between atoms: C_2  and  C_5
    3  A    between atoms: C_5  and  C_10
    4  A    between atoms: C_5  and  C_27
    5  A    between atoms: C_6  and  C_13
    6  A    between atoms: C_6  and  C_25
    7  A    between atoms: C_7  and  C_19
    8  A    between atoms: C_16  and  C_27
                            x       y       z     vdW  Elec       q    Type
                         _______ _______ _______ _____ _____    ______ ____

>  <TORSDO>
F 8

$$$$
=
 OpenBabel11052414313D

 32 36  0  0  1  0  0  0  0  0999 V2000
  181.3840  177.7190  140.0870 C   0  0  2  0  0  3  0  0  0  0  0  0
  184.9260  176.8640  137.4050 C   0  0  0  0  0  2  0  0  0  0  0  0
  181.7990  178.5680  138.8680 C   0  0  1  0  0  3  0  0  0  0  0  0
  185.9420  178.6470  138.2210 O   0  0  0  0  0  0  0  0  0  0  0  0
  184.6180  178.7870  138.5060 C   0  0  0  0  0  0  0  0  0  0  0  0
  182.5220  179.9040  139.1860 C   0  0  1  0  0  3  0  0  0  0  0  0
  184.0250  179.8610  139.0160 C   0  0  0  0  0  3  0  0  0  0  0  0
  183.9260  177.6510  138.1110 N   0  0  0  0  0  0  0  0  0  0  0  0
  186.2060  177.4750  137.6030 O   0  0  0  0  0  0  0  0  0  0  0  0
  182.5060  177.7050  137.8120 C   0  0  0  0  0  2  0  0  0  0  0  0
  181.9540  181.0340  138.3400 C   0  0  0  0  0  2  0  0  0  0  0  0
  181.0820  180.4990  137.2160 C   0  0  0  0  0  2  0  0  0  0  0  0
  180.1010  181.5590  136.7530 C   0  0  0  0  0  1  0  0  0  0  0  0
  180.3780  176.5940  139.7410 C   0  0  0  0  0  0  0  0  0  0  0  0
  179.3920  177.0510  138.6800 C   0  0  0  0  0  1  0  0  0  0  0  0
  179.6110  176.1420  140.9710 C   0  0  0  0  0  1  0  0  0  0  0  0
  181.1210  175.3820  139.2080 C   0  0  0  0  0  1  0  0  0  0  0  0
  180.2550  179.5810  141.4800 N   0  0  0  0  0  0  0  0  0  0  0  0
  179.9460  178.3270  141.9890 O   0  0  0  0  0  0  0  0  0  0  0  0
  181.1860  178.4600  141.4480 C   0  0  1  0  0  0  0  0  0  0  0  0
  183.1100  178.9190  144.7370 C   0  0  0  0  0  3  0  0  0  0  0  0
  184.6830  178.6900  142.9170 C   0  0  0  0  0  3  0  0  0  0  0  0
  182.2940  178.6000  142.4660 C   0  0  0  0  0  0  0  0  0  0  0  0
  184.4330  178.8770  144.2810 C   0  0  0  0  0  0  0  0  0  0  0  0
  183.6220  178.5640  142.0190 C   0  0  0  0  0  3  0  0  0  0  0  0
  182.0440  178.7980  143.8410 C   0  0  0  0  0  0  0  0  0  0  0  0
  180.7490  178.8960  144.3320 O   0  0  0  0  0  1  0  0  0  0  0  0
  185.5700  178.9550  145.2540 C   0  0  0  0  0  3  0  0  0  0  0  0
  186.6640  177.9700  144.8760 C   0  0  0  0  0  2  0  0  0  0  0  0
  185.7170  177.6420  146.0060 C   0  0  0  0  0  2  0  0  0  0  0  0
  179.4660  179.7190  140.2620 C   0  0  0  0  0  2  0  0  0  0  0  0
  178.9580  181.0150  140.1830 O   0  0  0  0  0  1  0  0  0  0  0  0
  1 14  1  6  0  0  0
  2  9  1  0  0  0  0
  2  8  1  0  0  0  0
  3  6  1  0  0  0  0
  3  1  1  1  0  0  0
  4  5  1  0  0  0  0
  5  7  2  0  0  0  0
  6 11  1  6  0  0  0
  7  6  1  0  0  0  0
  8  5  1  0  0  0  0
  9  4  1  0  0  0  0
 10  8  1  0  0  0  0
 10  3  1  0  0  0  0
 12 11  1  0  0  0  0
 13 12  1  0  0  0  0
 14 16  1  0  0  0  0
 15 14  1  0  0  0  0
 17 14  1  0  0  0  0
 18 19  1  0  0  0  0
 20  1  1  6  0  0  0
 20 18  1  0  0  0  0
 20 19  1  0  0  0  0
 20 23  1  0  0  0  0
 22 24  2  0  0  0  0
 23 26  1  0  0  0  0
 24 21  1  0  0  0  0
 24 28  1  0  0  0  0
 25 23  2  0  0  0  0
 25 22  1  0  0  0  0
 26 27  1  0  0  0  0
 26 21  2  0  0  0  0
 28 30  1  0  0  0  0
 29 28  1  0  0  0  0
 29 30  1  0  0  0  0
 31 18  1  0  0  0  0
 32 31  1  0  0  0  0
M  END
>  <MODEL>
3

>  <REMARK>
 VINA RESULT:      -4.3      2.324      3.853
  Name = 
  8 active torsions:
  status: ('A' for Active; 'I' for Inactive)
    1  A    between atoms: N_1  and  C_4
    2  A    between atoms: C_2  and  C_5
    3  A    between atoms: C_5  and  C_10
    4  A    between atoms: C_5  and  C_27
    5  A    between atoms: C_6  and  C_13
    6  A    between atoms: C_6  and  C_25
    7  A    between atoms: C_7  and  C_19
    8  A    between atoms: C_16  and  C_27
                            x       y       z     vdW  Elec       q    Type
                         _______ _______ _______ _____ _____    ______ ____

>  <TORSDO>
F 8

$$$$
=
 OpenBabel11052414313D

 32 36  0  0  1  0  0  0  0  0999 V2000
  180.6540  177.7020  138.8210 C   0  0  2  0  0  3  0  0  0  0  0  0
  179.5220  182.0790  138.9910 C   0  0  0  0  0  2  0  0  0  0  0  0
  181.3360  178.7610  139.7100 C   0  0  1  0  0  3  0  0  0  0  0  0
  181.4230  182.5840  137.9870 O   0  0  0  0  0  0  0  0  0  0  0  0
  181.5690  181.3290  138.4950 C   0  0  0  0  0  0  0  0  0  0  0  0
  182.7200  179.2670  139.2220 C   0  0  1  0  0  3  0  0  0  0  0  0
  182.6890  180.6150  138.5350 C   0  0  0  0  0  3  0  0  0  0  0  0
  180.3740  180.9020  139.0540 N   0  0  0  0  0  0  0  0  0  0  0  0
  180.1840  183.0760  138.2050 O   0  0  0  0  0  0  0  0  0  0  0  0
  180.3530  179.8790  140.0860 C   0  0  0  0  0  2  0  0  0  0  0  0
  183.7090  179.3170  140.3780 C   0  0  0  0  0  2  0  0  0  0  0  0
  183.4200  178.2290  141.4000 C   0  0  0  0  0  2  0  0  0  0  0  0
  184.4820  178.2220  142.4840 C   0  0  0  0  0  1  0  0  0  0  0  0
  180.2090  176.4390  139.5970 C   0  0  0  0  0  0  0  0  0  0  0  0
  181.3850  175.5120  139.8500 C   0  0  0  0  0  1  0  0  0  0  0  0
  179.1310  175.6790  138.8440 C   0  0  0  0  0  1  0  0  0  0  0  0
  179.6200  176.8370  140.9380 C   0  0  0  0  0  1  0  0  0  0  0  0
  180.3250  177.7100  136.2560 N   0  0  0  0  0  0  0  0  0  0  0  0
  181.3010  178.6230  136.6320 O   0  0  0  0  0  0  0  0  0  0  0  0
  181.2250  177.4910  137.3820 C   0  0  1  0  0  0  0  0  0  0  0  0
  183.0390  174.3030  136.2540 C   0  0  0  0  0  3  0  0  0  0  0  0
  184.6550  175.8760  137.1190 C   0  0  0  0  0  3  0  0  0  0  0  0
  182.2960  176.4710  137.0740 C   0  0  0  0  0  0  0  0  0  0  0  0
  184.3660  174.6270  136.5610 C   0  0  0  0  0  0  0  0  0  0  0  0
  183.6270  176.7830  137.3820 C   0  0  0  0  0  3  0  0  0  0  0  0
  182.0050  175.2050  136.5190 C   0  0  0  0  0  0  0  0  0  0  0  0
  180.7000  174.8210  136.2440 O   0  0  0  0  0  1  0  0  0  0  0  0
  185.4730  173.6740  136.2250 C   0  0  0  0  0  3  0  0  0  0  0  0
  185.0170  172.2370  136.4210 C   0  0  0  0  0  2  0  0  0  0  0  0
  185.8960  172.8940  137.4590 C   0  0  0  0  0  2  0  0  0  0  0  0
  179.0520  178.3130  136.6360 C   0  0  0  0  0  2  0  0  0  0  0  0
  178.9390  179.5690  136.0410 O   0  0  0  0  0  1  0  0  0  0  0  0
  1 14  1  1  0  0  0
  2  8  1  0  0  0  0
  3  1  1  6  0  0  0
  3 10  1  0  0  0  0
  4  9  1  0  0  0  0
  4  5  1  0  0  0  0
  5  7  2  0  0  0  0
  5  8  1  0  0  0  0
  6  3  1  0  0  0  0
  6 11  1  1  0  0  0
  7  6  1  0  0  0  0
  8 10  1  0  0  0  0
  9  2  1  0  0  0  0
 11 12  1  0  0  0  0
 12 13  1  0  0  0  0
 14 15  1  0  0  0  0
 14 17  1  0  0  0  0
 16 14  1  0  0  0  0
 18 19  1  0  0  0  0
 18 31  1  0  0  0  0
 18 20  1  0  0  0  0
 19 20  1  0  0  0  0
 20  1  1  1  0  0  0
 21 26  2  0  0  0  0
 21 24  1  0  0  0  0
 22 25  1  0  0  0  0
 23 25  2  0  0  0  0
 23 20  1  0  0  0  0
 24 22  2  0  0  0  0
 26 23  1  0  0  0  0
 27 26  1  0  0  0  0
 28 29  1  0  0  0  0
 28 24  1  0  0  0  0
 28 30  1  0  0  0  0
 29 30  1  0  0  0  0
 32 31  1  0  0  0  0
M  END
>  <MODEL>
4

>  <REMARK>
 VINA RESULT:      -4.2      2.569      6.206
  Name = 
  8 active torsions:
  status: ('A' for Active; 'I' for Inactive)
    1  A    between atoms: N_1  and  C_4
    2  A    between atoms: C_2  and  C_5
    3  A    between atoms: C_5  and  C_10
    4  A    between atoms: C_5  and  C_27
    5  A    between atoms: C_6  and  C_13
    6  A    between atoms: C_6  and  C_25
    7  A    between atoms: C_7  and  C_19
    8  A    between atoms: C_16  and  C_27
                            x       y       z     vdW  Elec       q    Type
                         _______ _______ _______ _____ _____    ______ ____

>  <TORSDO>
F 8

$$$$
=
 OpenBabel11052414313D

 32 36  0  0  1  0  0  0  0  0999 V2000
  181.2800  177.1860  137.9290 C   0  0  2  0  0  3  0  0  0  0  0  0
  178.9310  181.0250  137.4690 C   0  0  0  0  0  2  0  0  0  0  0  0
  180.9140  178.1460  139.0790 C   0  0  1  0  0  3  0  0  0  0  0  0
  180.7650  182.1710  137.9130 O   0  0  0  0  0  0  0  0  0  0  0  0
  180.9780  180.9040  138.3620 C   0  0  0  0  0  0  0  0  0  0  0  0
  182.0620  179.0560  139.5940 C   0  0  1  0  0  3  0  0  0  0  0  0
  182.0110  180.4790  139.0820 C   0  0  0  0  0  3  0  0  0  0  0  0
  179.9020  180.0950  138.0250 N   0  0  0  0  0  0  0  0  0  0  0  0
  179.5630  182.3000  137.3100 O   0  0  0  0  0  0  0  0  0  0  0  0
  179.6050  178.8900  138.7790 C   0  0  0  0  0  2  0  0  0  0  0  0
  182.0900  179.0720  141.1150 C   0  0  0  0  0  2  0  0  0  0  0  0
  183.2460  178.2450  141.6550 C   0  0  0  0  0  2  0  0  0  0  0  0
  184.5570  178.9910  141.4880 C   0  0  0  0  0  1  0  0  0  0  0  0
  181.3970  175.7080  138.3730 C   0  0  0  0  0  0  0  0  0  0  0  0
  182.7000  175.4620  139.1130 C   0  0  0  0  0  1  0  0  0  0  0  0
  181.3150  174.7660  137.1840 C   0  0  0  0  0  1  0  0  0  0  0  0
  180.2490  175.3540  139.3010 C   0  0  0  0  0  1  0  0  0  0  0  0
  181.8650  177.7420  135.4730 N   0  0  0  0  0  0  0  0  0  0  0  0
  181.9670  178.8720  136.2730 O   0  0  0  0  0  0  0  0  0  0  0  0
  182.3030  177.6940  136.8620 C   0  0  1  0  0  0  0  0  0  0  0  0
  185.8570  176.3190  136.4110 C   0  0  0  0  0  3  0  0  0  0  0  0
  185.8870  178.0780  138.0660 C   0  0  0  0  0  3  0  0  0  0  0  0
  183.7910  177.4680  136.9910 C   0  0  0  0  0  0  0  0  0  0  0  0
  186.5670  177.1070  137.3250 C   0  0  0  0  0  0  0  0  0  0  0  0
  184.5110  178.2480  137.9060 C   0  0  0  0  0  3  0  0  0  0  0  0
  184.4780  176.4810  136.2510 C   0  0  0  0  0  0  0  0  0  0  0  0
  183.8070  175.6430  135.3700 O   0  0  0  0  0  1  0  0  0  0  0  0
  188.0540  176.9620  137.4510 C   0  0  0  0  0  3  0  0  0  0  0  0
  188.6630  178.2200  138.0480 C   0  0  0  0  0  2  0  0  0  0  0  0
  188.7640  177.9690  136.5620 C   0  0  0  0  0  2  0  0  0  0  0  0
  180.4360  177.5060  135.3020 C   0  0  0  0  0  2  0  0  0  0  0  0
  179.8670  178.5780  134.6160 O   0  0  0  0  0  1  0  0  0  0  0  0
  1 14  1  1  0  0  0
  2  8  1  0  0  0  0
  3  1  1  6  0  0  0
  3  6  1  0  0  0  0
  4  5  1  0  0  0  0
  5  7  2  0  0  0  0
  6 11  1  1  0  0  0
  7  6  1  0  0  0  0
  8  5  1  0  0  0  0
  8 10  1  0  0  0  0
  9  2  1  0  0  0  0
  9  4  1  0  0  0  0
 10  3  1  0  0  0  0
 11 12  1  0  0  0  0
 13 12  1  0  0  0  0
 14 15  1  0  0  0  0
 14 17  1  0  0  0  0
 16 14  1  0  0  0  0
 18 19  1  0  0  0  0
 18 20  1  0  0  0  0
 19 20  1  0  0  0  0
 20 23  1  0  0  0  0
 20  1  1  1  0  0  0
 21 24  1  0  0  0  0
 23 25  2  0  0  0  0
 24 28  1  0  0  0  0
 24 22  2  0  0  0  0
 25 22  1  0  0  0  0
 26 21  2  0  0  0  0
 26 23  1  0  0  0  0
 27 26  1  0  0  0  0
 28 29  1  0  0  0  0
 30 28  1  0  0  0  0
 30 29  1  0  0  0  0
 31 18  1  0  0  0  0
 32 31  1  0  0  0  0
M  END
>  <MODEL>
5

>  <REMARK>
 VINA RESULT:      -4.1      2.462      5.894
  Name = 
  8 active torsions:
  status: ('A' for Active; 'I' for Inactive)
    1  A    between atoms: N_1  and  C_4
    2  A    between atoms: C_2  and  C_5
    3  A    between atoms: C_5  and  C_10
    4  A    between atoms: C_5  and  C_27
    5  A    between atoms: C_6  and  C_13
    6  A    between atoms: C_6  and  C_25
    7  A    between atoms: C_7  and  C_19
    8  A    between atoms: C_16  and  C_27
                            x       y       z     vdW  Elec       q    Type
                         _______ _______ _______ _____ _____    ______ ____

>  <TORSDO>
F 8

$$$$
=
 OpenBabel11052414313D

 32 36  0  0  1  0  0  0  0  0999 V2000
  182.0700  176.1890  136.7770 C   0  0  2  0  0  3  0  0  0  0  0  0
  183.0210  172.1260  135.0280 C   0  0  0  0  0  2  0  0  0  0  0  0
  183.4570  175.7430  136.2710 C   0  0  1  0  0  3  0  0  0  0  0  0
  184.2040  171.6540  136.8320 O   0  0  0  0  0  0  0  0  0  0  0  0
  184.0660  173.0080  136.7980 C   0  0  0  0  0  0  0  0  0  0  0  0
  184.4920  175.3740  137.3680 C   0  0  1  0  0  3  0  0  0  0  0  0
  184.6690  173.8880  137.5910 C   0  0  0  0  0  3  0  0  0  0  0  0
  183.2440  173.3740  135.7420 N   0  0  0  0  0  0  0  0  0  0  0  0
  183.5470  171.0530  135.8160 O   0  0  0  0  0  0  0  0  0  0  0  0
  183.3250  174.6990  135.1520 C   0  0  0  0  0  2  0  0  0  0  0  0
  185.8450  175.9980  137.0580 C   0  0  0  0  0  2  0  0  0  0  0  0
  185.7110  177.4800  136.7440 C   0  0  0  0  0  2  0  0  0  0  0  0
  186.8970  178.2500  137.2960 C   0  0  0  0  0  1  0  0  0  0  0  0
  181.6630  177.6020  136.2950 C   0  0  0  0  0  0  0  0  0  0  0  0
  182.1150  177.8430  134.8660 C   0  0  0  0  0  1  0  0  0  0  0  0
  182.2500  178.6800  137.1900 C   0  0  0  0  0  1  0  0  0  0  0  0
  180.1540  177.7530  136.3490 C   0  0  0  0  0  1  0  0  0  0  0  0
  180.5660  174.8490  138.3980 N   0  0  0  0  0  0  0  0  0  0  0  0
  181.8970  174.4840  138.5440 O   0  0  0  0  0  0  0  0  0  0  0  0
  181.6690  175.7880  138.2330 C   0  0  1  0  0  0  0  0  0  0  0  0
  180.8690  178.2380  141.0760 C   0  0  0  0  0  3  0  0  0  0  0  0
  183.2570  177.8890  140.9720 C   0  0  0  0  0  3  0  0  0  0  0  0
  181.8000  176.7360  139.4020 C   0  0  0  0  0  0  0  0  0  0  0  0
  182.1530  178.5100  141.5640 C   0  0  0  0  0  0  0  0  0  0  0  0
  183.0800  177.0190  139.8950 C   0  0  0  0  0  3  0  0  0  0  0  0
  180.6860  177.3720  139.9950 C   0  0  0  0  0  0  0  0  0  0  0  0
  179.4000  177.1710  139.5130 O   0  0  0  0  0  1  0  0  0  0  0  0
  182.3340  179.3990  142.7570 C   0  0  0  0  0  3  0  0  0  0  0  0
  183.5290  178.9480  143.5810 C   0  0  0  0  0  2  0  0  0  0  0  0
  182.1300  178.6130  144.0420 C   0  0  0  0  0  2  0  0  0  0  0  0
  180.1240  174.2420  137.1480 C   0  0  0  0  0  2  0  0  0  0  0  0
  178.9310  173.5540  137.3620 O   0  0  0  0  0  1  0  0  0  0  0  0
  1 14  1  1  0  0  0
  2  8  1  0  0  0  0
  2  9  1  0  0  0  0
  3  1  1  1  0  0  0
  3  6  1  0  0  0  0
  5  4  1  0  0  0  0
  5  7  2  0  0  0  0
  6 11  1  6  0  0  0
  6  7  1  0  0  0  0
  8  5  1  0  0  0  0
  9  4  1  0  0  0  0
 10  8  1  0  0  0  0
 10  3  1  0  0  0  0
 12 11  1  0  0  0  0
 12 13  1  0  0  0  0
 14 17  1  0  0  0  0
 14 16  1  0  0  0  0
 15 14  1  0  0  0  0
 18 19  1  0  0  0  0
 20  1  1  6  0  0  0
 20 18  1  0  0  0  0
 20 19  1  0  0  0  0
 20 23  1  0  0  0  0
 21 24  1  0  0  0  0
 22 24  2  0  0  0  0
 23 25  2  0  0  0  0
 23 26  1  0  0  0  0
 24 28  1  0  0  0  0
 25 22  1  0  0  0  0
 26 21  2  0  0  0  0
 27 26  1  0  0  0  0
 28 29  1  0  0  0  0
 28 30  1  0  0  0  0
 29 30  1  0  0  0  0
 31 32  1  0  0  0  0
 31 18  1  0  0  0  0
M  END
>  <MODEL>
6

>  <REMARK>
 VINA RESULT:      -4.1      1.769      2.690
  Name = 
  8 active torsions:
  status: ('A' for Active; 'I' for Inactive)
    1  A    between atoms: N_1  and  C_4
    2  A    between atoms: C_2  and  C_5
    3  A    between atoms: C_5  and  C_10
    4  A    between atoms: C_5  and  C_27
    5  A    between atoms: C_6  and  C_13
    6  A    between atoms: C_6  and  C_25
    7  A    between atoms: C_7  and  C_19
    8  A    between atoms: C_16  and  C_27
                            x       y       z     vdW  Elec       q    Type
                         _______ _______ _______ _____ _____    ______ ____

>  <TORSDO>
F 8

$$$$
=
 OpenBabel11052414313D

 32 36  0  0  1  0  0  0  0  0999 V2000
  189.7660  177.4630  143.8730 C   0  0  2  0  0  3  0  0  0  0  0  0
  189.0390  178.2390  148.2710 C   0  0  0  0  0  2  0  0  0  0  0  0
  188.5540  178.2210  144.4520 C   0  0  1  0  0  3  0  0  0  0  0  0
  187.3500  176.8180  148.2170 O   0  0  0  0  0  0  0  0  0  0  0  0
  187.6000  177.1770  146.9270 C   0  0  0  0  0  0  0  0  0  0  0  0
  187.2180  177.4290  144.4990 C   0  0  1  0  0  3  0  0  0  0  0  0
  186.8660  176.8740  145.8620 C   0  0  0  0  0  3  0  0  0  0  0  0
  188.7200  177.9940  146.8730 N   0  0  0  0  0  0  0  0  0  0  0  0
  188.2230  177.3840  149.0780 O   0  0  0  0  0  0  0  0  0  0  0  0
  188.9200  178.9190  145.7700 C   0  0  0  0  0  2  0  0  0  0  0  0
  186.0690  178.2910  143.9970 C   0  0  0  0  0  2  0  0  0  0  0  0
  185.1820  178.7520  145.1420 C   0  0  0  0  0  2  0  0  0  0  0  0
  183.7490  178.9190  144.6720 C   0  0  0  0  0  1  0  0  0  0  0  0
  191.0820  178.2760  143.9220 C   0  0  0  0  0  0  0  0  0  0  0  0
  190.8030  179.7680  143.9140 C   0  0  0  0  0  1  0  0  0  0  0  0
  191.9860  177.9330  142.7510 C   0  0  0  0  0  1  0  0  0  0  0  0
  191.8490  177.9430  145.1900 C   0  0  0  0  0  1  0  0  0  0  0  0
  190.1390  175.2480  142.5920 N   0  0  0  0  0  0  0  0  0  0  0  0
  188.7890  175.4510  142.8460 O   0  0  0  0  0  0  0  0  0  0  0  0
  189.5250  176.5700  142.6140 C   0  0  1  0  0  0  0  0  0  0  0  0
  190.0370  177.4390  138.9110 C   0  0  0  0  0  3  0  0  0  0  0  0
  188.0720  178.5780  139.7330 C   0  0  0  0  0  3  0  0  0  0  0  0
  189.3520  177.1490  141.2290 C   0  0  0  0  0  0  0  0  0  0  0  0
  188.9550  178.3000  138.6860 C   0  0  0  0  0  0  0  0  0  0  0  0
  188.2760  178.0150  140.9940 C   0  0  0  0  0  3  0  0  0  0  0  0
  190.2490  176.8760  140.1720 C   0  0  0  0  0  0  0  0  0  0  0  0
  191.3620  176.0690  140.3620 O   0  0  0  0  0  1  0  0  0  0  0  0
  188.7060  178.8570  137.3170 C   0  0  0  0  0  3  0  0  0  0  0  0
  187.2720  178.5930  136.8880 C   0  0  0  0  0  2  0  0  0  0  0  0
  188.3890  177.7380  136.3380 C   0  0  0  0  0  2  0  0  0  0  0  0
  190.7270  174.8570  143.8680 C   0  0  0  0  0  2  0  0  0  0  0  0
  192.1140  174.7940  143.7400 O   0  0  0  0  0  1  0  0  0  0  0  0
  1 14  1  6  0  0  0
  2  9  1  0  0  0  0
  3  1  1  1  0  0  0
  3  6  1  0  0  0  0
  3 10  1  0  0  0  0
  4  9  1  0  0  0  0
  5  4  1  0  0  0  0
  6 11  1  1  0  0  0
  6  7  1  0  0  0  0
  7  5  2  0  0  0  0
  8  5  1  0  0  0  0
  8  2  1  0  0  0  0
 10  8  1  0  0  0  0
 11 12  1  0  0  0  0
 13 12  1  0  0  0  0
 14 17  1  0  0  0  0
 15 14  1  0  0  0  0
 16 14  1  0  0  0  0
 18 20  1  0  0  0  0
 18 19  1  0  0  0  0
 18 31  1  0  0  0  0
 20 19  1  0  0  0  0
 20  1  1  1  0  0  0
 21 26  1  0  0  0  0
 22 25  2  0  0  0  0
 23 20  1  0  0  0  0
 24 21  2  0  0  0  0
 24 22  1  0  0  0  0
 25 23  1  0  0  0  0
 26 27  1  0  0  0  0
 26 23  2  0  0  0  0
 28 24  1  0  0  0  0
 29 28  1  0  0  0  0
 30 29  1  0  0  0  0
 30 28  1  0  0  0  0
 32 31  1  0  0  0  0
M  END
>  <MODEL>
7

>  <REMARK>
 VINA RESULT:      -3.9      6.085     10.197
  Name = 
  8 active torsions:
  status: ('A' for Active; 'I' for Inactive)
    1  A    between atoms: N_1  and  C_4
    2  A    between atoms: C_2  and  C_5
    3  A    between atoms: C_5  and  C_10
    4  A    between atoms: C_5  and  C_27
    5  A    between atoms: C_6  and  C_13
    6  A    between atoms: C_6  and  C_25
    7  A    between atoms: C_7  and  C_19
    8  A    between atoms: C_16  and  C_27
                            x       y       z     vdW  Elec       q    Type
                         _______ _______ _______ _____ _____    ______ ____

>  <TORSDO>
F 8

$$$$
=
 OpenBabel11052414313D

 32 36  0  0  1  0  0  0  0  0999 V2000
  181.1450  177.9840  140.1280 C   0  0  2  0  0  3  0  0  0  0  0  0
  185.0440  178.0630  142.4210 C   0  0  0  0  0  2  0  0  0  0  0  0
  182.5160  177.5590  139.5630 C   0  0  1  0  0  3  0  0  0  0  0  0
  185.7270  179.7380  141.1540 O   0  0  0  0  0  0  0  0  0  0  0  0
  184.7000  179.1380  140.4910 C   0  0  0  0  0  0  0  0  0  0  0  0
  183.2010  178.5750  138.6090 C   0  0  1  0  0  3  0  0  0  0  0  0
  184.2990  179.3950  139.2500 C   0  0  0  0  0  3  0  0  0  0  0  0
  184.1500  178.1350  141.2760 N   0  0  0  0  0  0  0  0  0  0  0  0
  185.9510  179.1690  142.3590 O   0  0  0  0  0  0  0  0  0  0  0  0
  183.4280  177.0260  140.6770 C   0  0  0  0  0  2  0  0  0  0  0  0
  183.7550  177.8660  137.3820 C   0  0  0  0  0  2  0  0  0  0  0  0
  185.1790  177.3870  137.6170 C   0  0  0  0  0  2  0  0  0  0  0  0
  185.8750  177.1170  136.2960 C   0  0  0  0  0  1  0  0  0  0  0  0
  179.9500  177.2710  139.4500 C   0  0  0  0  0  0  0  0  0  0  0  0
  178.9350  178.2750  138.9350 C   0  0  0  0  0  1  0  0  0  0  0  0
  179.2620  176.3150  140.4090 C   0  0  0  0  0  1  0  0  0  0  0  0
  180.4410  176.4460  138.2740 C   0  0  0  0  0  1  0  0  0  0  0  0
  180.4400  179.7910  141.8370 N   0  0  0  0  0  0  0  0  0  0  0  0
  181.7780  179.9300  141.4960 O   0  0  0  0  0  0  0  0  0  0  0  0
  180.9560  179.4880  140.5080 C   0  0  1  0  0  0  0  0  0  0  0  0
  179.3660  182.5280  138.7880 C   0  0  0  0  0  3  0  0  0  0  0  0
  180.8490  181.4190  137.2370 C   0  0  0  0  0  3  0  0  0  0  0  0
  180.5870  180.5430  139.4910 C   0  0  0  0  0  0  0  0  0  0  0  0
  179.9450  182.4490  137.5150 C   0  0  0  0  0  0  0  0  0  0  0  0
  181.1570  180.4710  138.2130 C   0  0  0  0  0  3  0  0  0  0  0  0
  179.6670  181.5790  139.7680 C   0  0  0  0  0  0  0  0  0  0  0  0
  179.0310  181.6680  140.9990 O   0  0  0  0  0  1  0  0  0  0  0  0
  179.6570  183.5010  136.4880 C   0  0  0  0  0  3  0  0  0  0  0  0
  180.9450  183.9780  135.8380 C   0  0  0  0  0  2  0  0  0  0  0  0
  180.2790  184.8270  136.8950 C   0  0  0  0  0  2  0  0  0  0  0  0
  180.3740  178.6300  142.7170 C   0  0  0  0  0  2  0  0  0  0  0  0
  179.1480  178.6210  143.3820 O   0  0  0  0  0  1  0  0  0  0  0  0
  1 14  1  6  0  0  0
  3  1  1  1  0  0  0
  3 10  1  0  0  0  0
  4  9  1  0  0  0  0
  5  4  1  0  0  0  0
  5  8  1  0  0  0  0
  6 11  1  6  0  0  0
  6  7  1  0  0  0  0
  6  3  1  0  0  0  0
  7  5  2  0  0  0  0
  8  2  1  0  0  0  0
  9  2  1  0  0  0  0
 10  8  1  0  0  0  0
 11 12  1  0  0  0  0
 13 12  1  0  0  0  0
 14 16  1  0  0  0  0
 15 14  1  0  0  0  0
 17 14  1  0  0  0  0
 18 31  1  0  0  0  0
 19 18  1  0  0  0  0
 20  1  1  6  0  0  0
 20 19  1  0  0  0  0
 20 18  1  0  0  0  0
 21 26  1  0  0  0  0
 22 24  1  0  0  0  0
 22 25  2  0  0  0  0
 23 26  2  0  0  0  0
 23 20  1  0  0  0  0
 24 21  2  0  0  0  0
 25 23  1  0  0  0  0
 26 27  1  0  0  0  0
 28 30  1  0  0  0  0
 28 24  1  0  0  0  0
 29 28  1  0  0  0  0
 29 30  1  0  0  0  0
 31 32  1  0  0  0  0
M  END
>  <MODEL>
8

>  <REMARK>
 VINA RESULT:      -3.9      3.101      5.793
  Name = 
  8 active torsions:
  status: ('A' for Active; 'I' for Inactive)
    1  A    between atoms: N_1  and  C_4
    2  A    between atoms: C_2  and  C_5
    3  A    between atoms: C_5  and  C_10
    4  A    between atoms: C_5  and  C_27
    5  A    between atoms: C_6  and  C_13
    6  A    between atoms: C_6  and  C_25
    7  A    between atoms: C_7  and  C_19
    8  A    between atoms: C_16  and  C_27
                            x       y       z     vdW  Elec       q    Type
                         _______ _______ _______ _____ _____    ______ ____

>  <TORSDO>
F 8

$$$$
=
 OpenBabel11052414313D

 32 36  0  0  1  0  0  0  0  0999 V2000
  181.6020  177.4590  138.9550 C   0  0  2  0  0  3  0  0  0  0  0  0
  185.4400  175.8080  137.2200 C   0  0  0  0  0  2  0  0  0  0  0  0
  181.6950  176.5430  137.7180 C   0  0  1  0  0  3  0  0  0  0  0  0
  185.1850  177.1250  135.4660 O   0  0  0  0  0  0  0  0  0  0  0  0
  183.9670  177.0360  136.0700 C   0  0  0  0  0  0  0  0  0  0  0  0
  181.5200  177.2420  136.3420 C   0  0  1  0  0  3  0  0  0  0  0  0
  182.8140  177.5030  135.6030 C   0  0  0  0  0  3  0  0  0  0  0  0
  184.0730  176.3030  137.2430 N   0  0  0  0  0  0  0  0  0  0  0  0
  186.1360  176.4470  136.1450 O   0  0  0  0  0  0  0  0  0  0  0  0
  182.9200  175.6220  137.8060 C   0  0  0  0  0  2  0  0  0  0  0  0
  180.5860  176.4380  135.4490 C   0  0  0  0  0  2  0  0  0  0  0  0
  179.5290  175.7120  136.2660 C   0  0  0  0  0  2  0  0  0  0  0  0
  178.9960  174.5140  135.5020 C   0  0  0  0  0  1  0  0  0  0  0  0
  180.2890  177.2830  139.7560 C   0  0  0  0  0  0  0  0  0  0  0  0
  180.4110  177.8840  141.1450 C   0  0  0  0  0  1  0  0  0  0  0  0
  179.9110  175.8170  139.8800 C   0  0  0  0  0  1  0  0  0  0  0  0
  179.1470  177.9780  139.0360 C   0  0  0  0  0  1  0  0  0  0  0  0
  183.1970  179.3230  139.7710 N   0  0  0  0  0  0  0  0  0  0  0  0
  183.4760  178.9740  138.4570 O   0  0  0  0  0  0  0  0  0  0  0  0
  182.1690  178.9090  138.8240 C   0  0  1  0  0  0  0  0  0  0  0  0
  179.9060  182.0060  138.7130 C   0  0  0  0  0  3  0  0  0  0  0  0
  180.4170  181.3100  136.4570 C   0  0  0  0  0  3  0  0  0  0  0  0
  181.3310  180.0690  138.3380 C   0  0  0  0  0  0  0  0  0  0  0  0
  179.7670  182.1870  137.3310 C   0  0  0  0  0  0  0  0  0  0  0  0
  181.1820  180.2560  136.9580 C   0  0  0  0  0  3  0  0  0  0  0  0
  180.6660  180.9490  139.2200 C   0  0  0  0  0  0  0  0  0  0  0  0
  180.7340  180.7790  140.5960 O   0  0  0  0  0  1  0  0  0  0  0  0
  178.9930  183.3540  136.7960 C   0  0  0  0  0  3  0  0  0  0  0  0
  179.5990  183.8430  135.4910 C   0  0  0  0  0  2  0  0  0  0  0  0
  179.8610  184.6010  136.7710 C   0  0  0  0  0  2  0  0  0  0  0  0
  183.7120  178.2310  140.5880 C   0  0  0  0  0  2  0  0  0  0  0  0
  183.7460  178.6280  141.9250 O   0  0  0  0  0  1  0  0  0  0  0  0
  1 14  1  6  0  0  0
  2  8  1  0  0  0  0
  3 10  1  0  0  0  0
  3  1  1  1  0  0  0
  4  5  1  0  0  0  0
  4  9  1  0  0  0  0
  5  8  1  0  0  0  0
  6 11  1  6  0  0  0
  6  3  1  0  0  0  0
  7  5  2  0  0  0  0
  7  6  1  0  0  0  0
  8 10  1  0  0  0  0
  9  2  1  0  0  0  0
 11 12  1  0  0  0  0
 13 12  1  0  0  0  0
 14 16  1  0  0  0  0
 14 15  1  0  0  0  0
 17 14  1  0  0  0  0
 18 31  1  0  0  0  0
 19 20  1  0  0  0  0
 19 18  1  0  0  0  0
 20  1  1  1  0  0  0
 20 18  1  0  0  0  0
 21 26  1  0  0  0  0
 22 25  2  0  0  0  0
 22 24  1  0  0  0  0
 23 20  1  0  0  0  0
 23 26  2  0  0  0  0
 24 21  2  0  0  0  0
 25 23  1  0  0  0  0
 26 27  1  0  0  0  0
 28 24  1  0  0  0  0
 29 30  1  0  0  0  0
 29 28  1  0  0  0  0
 30 28  1  0  0  0  0
 31 32  1  0  0  0  0
M  END
>  <MODEL>
9

>  <REMARK>
 VINA RESULT:      -3.8      2.801      5.724
  Name = 
  8 active torsions:
  status: ('A' for Active; 'I' for Inactive)
    1  A    between atoms: N_1  and  C_4
    2  A    between atoms: C_2  and  C_5
    3  A    between atoms: C_5  and  C_10
    4  A    between atoms: C_5  and  C_27
    5  A    between atoms: C_6  and  C_13
    6  A    between atoms: C_6  and  C_25
    7  A    between atoms: C_7  and  C_19
    8  A    between atoms: C_16  and  C_27
                            x       y       z     vdW  Elec       q    Type
                         _______ _______ _______ _____ _____    ______ ____

>  <TORSDO>
F 8

$$$$
