=
 OpenBabel11052414023D

 34 38  0  0  1  0  0  0  0  0999 V2000
  190.3160  175.9320  137.4620 C   0  0  0  0  0  0  0  0  0  0  0  0
  192.4340  176.4060  138.7780 C   0  0  2  0  0  3  0  0  0  0  0  0
  190.1340  177.2450  139.5110 C   0  0  0  0  0  0  0  0  0  0  0  0
  190.3170  178.5370  143.1670 C   0  0  0  0  0  1  0  0  0  0  0  0
  193.1310  176.6260  137.5890 O   0  0  0  0  0  1  0  0  0  0  0  0
  192.1280  177.3110  141.0830 C   0  0  0  0  0  2  0  0  0  0  0  0
  190.9370  176.5630  138.5610 C   0  0  0  0  0  0  0  0  0  0  0  0
  189.7420  177.8340  141.9370 C   0  0  1  0  0  0  0  0  0  0  0  0
  188.7470  177.4040  139.2930 C   0  0  0  0  0  0  0  0  0  0  0  0
  188.9330  176.0590  137.2810 C   0  0  0  0  0  3  0  0  0  0  0  0
  192.9910  177.3520  139.8380 C   0  0  0  0  0  2  0  0  0  0  0  0
  188.5440  178.6600  141.4860 C   0  0  0  0  0  2  0  0  0  0  0  0
  187.9350  178.1190  140.2600 N   0  0  0  0  0  0  0  0  0  0  0  0
  190.7400  177.8610  140.7530 C   0  0  2  0  0  3  0  0  0  0  0  0
  188.1620  176.7880  138.1810 C   0  0  0  0  0  3  0  0  0  0  0  0
  184.2590  178.5510  140.9440 C   0  0  0  0  0  0  0  0  0  0  0  0
  183.7640  178.2960  139.6280 N   0  0  0  0  0  2  0  0  0  0  0  0
  186.5560  178.4510  140.0080 C   0  0  0  0  0  0  0  0  0  0  0  0
  184.6090  178.5920  138.4770 C   0  0  0  0  0  2  0  0  0  0  0  0
  185.6820  178.9830  141.1230 C   0  0  0  0  0  2  0  0  0  0  0  0
  186.0390  178.2530  138.7830 C   0  0  0  0  0  3  0  0  0  0  0  0
  183.5030  178.4240  141.9420 O   0  0  0  0  0  0  0  0  0  0  0  0
  191.1760  173.7580  136.6350 C   0  0  0  0  0  1  0  0  0  0  0  0
  191.0820  175.1750  136.5660 O   0  0  0  0  0  0  0  0  0  0  0  0
  189.2600  176.5330  142.2490 O   0  0  0  0  0  0  0  0  0  0  0  0
  188.8200  176.4660  143.5800 C   0  0  0  0  0  2  0  0  0  0  0  0
  187.3020  176.4430  143.6020 C   0  0  0  0  0  2  0  0  0  0  0  0
  184.8810  178.6650  145.5000 C   0  0  0  0  0  2  0  0  0  0  0  0
  186.7850  177.0890  144.8730 C   0  0  0  0  0  3  0  0  0  0  0  0
  186.0130  178.3550  144.5170 C   0  0  0  0  0  2  0  0  0  0  0  0
  186.6130  178.8700  147.3590 C   0  0  0  0  0  2  0  0  0  0  0  0
  187.5760  177.6990  147.1990 C   0  0  0  0  0  2  0  0  0  0  0  0
  187.9750  177.4720  145.7440 C   0  0  0  0  0  2  0  0  0  0  0  0
  185.2070  178.4290  146.9780 C   0  0  0  0  0  2  0  0  0  0  0  0
  1  7  1  0  0  0  0
  2  5  1  6  0  0  0
  2 11  1  0  0  0  0
  3 14  1  0  0  0  0
  7  2  1  0  0  0  0
  7  3  2  0  0  0  0
  8 25  1  0  0  0  0
  8  4  1  1  0  0  0
  9  3  1  0  0  0  0
  9 13  1  0  0  0  0
 10  1  2  0  0  0  0
 10 15  1  0  0  0  0
 11  6  1  0  0  0  0
 12  8  1  0  0  0  0
 13 12  1  0  0  0  0
 14  6  1  1  0  0  0
 14  8  1  0  0  0  0
 15  9  2  0  0  0  0
 16 20  1  0  0  0  0
 16 22  2  0  0  0  0
 17 16  1  0  0  0  0
 18 13  1  0  0  0  0
 18 20  1  0  0  0  0
 19 21  1  0  0  0  0
 19 17  1  0  0  0  0
 21 18  2  0  0  0  0
 24 23  1  0  0  0  0
 24  1  1  0  0  0  0
 25 26  1  0  0  0  0
 26 27  1  0  0  0  0
 27 29  1  0  0  0  0
 28 34  1  0  0  0  0
 29 33  1  0  0  0  0
 30 29  1  0  0  0  0
 30 28  1  0  0  0  0
 32 31  1  0  0  0  0
 33 32  1  0  0  0  0
 34 31  1  0  0  0  0
M  END
>  <MODEL>
1

>  <REMARK>
 VINA RESULT:      -8.9      0.000      0.000
  Name = 
  6 active torsions:
  status: ('A' for Active; 'I' for Inactive)
    1  A    between atoms: C_1  and  O_19
    2  A    between atoms: C_3  and  C_13
    3  A    between atoms: C_3  and  C_17
    4  A    between atoms: C_12  and  N_28
    5  A    between atoms: C_17  and  O_29
    6  A    between atoms: C_18  and  O_29
                            x       y       z     vdW  Elec       q    Type
                         _______ _______ _______ _____ _____    ______ ____

>  <TORSDO>
F 6

$$$$
=
 OpenBabel11052414023D

 34 38  0  0  1  0  0  0  0  0999 V2000
  185.7140  177.4690  137.4490 C   0  0  0  0  0  0  0  0  0  0  0  0
  188.2260  177.7670  137.2250 C   0  0  2  0  0  3  0  0  0  0  0  0
  186.9660  178.2440  139.3970 C   0  0  0  0  0  0  0  0  0  0  0  0
  189.4940  178.6440  142.3150 C   0  0  0  0  0  1  0  0  0  0  0  0
  188.0530  178.3110  135.9510 O   0  0  0  0  0  1  0  0  0  0  0  0
  189.4990  178.0770  139.3480 C   0  0  0  0  0  2  0  0  0  0  0  0
  186.9390  177.8650  138.0300 C   0  0  0  0  0  0  0  0  0  0  0  0
  188.2180  178.2130  141.5910 C   0  0  1  0  0  0  0  0  0  0  0  0
  185.7650  178.3510  140.1330 C   0  0  0  0  0  0  0  0  0  0  0  0
  184.5360  177.5370  138.2040 C   0  0  0  0  0  3  0  0  0  0  0  0
  189.4050  178.4720  137.8880 C   0  0  0  0  0  2  0  0  0  0  0  0
  187.0820  179.0350  142.1880 C   0  0  0  0  0  2  0  0  0  0  0  0
  185.7970  178.7580  141.5260 N   0  0  0  0  0  0  0  0  0  0  0  0
  188.2650  178.5900  140.0900 C   0  0  2  0  0  3  0  0  0  0  0  0
  184.5610  177.9760  139.5230 C   0  0  0  0  0  3  0  0  0  0  0  0
  183.5520  179.1650  144.5190 C   0  0  0  0  0  0  0  0  0  0  0  0
  182.3130  178.8010  143.9090 N   0  0  0  0  0  2  0  0  0  0  0  0
  184.5970  179.0420  142.2710 C   0  0  0  0  0  0  0  0  0  0  0  0
  182.1250  179.0270  142.4800 C   0  0  0  0  0  2  0  0  0  0  0  0
  184.6840  179.6380  143.6590 C   0  0  0  0  0  2  0  0  0  0  0  0
  183.4000  178.7410  141.7400 C   0  0  0  0  0  3  0  0  0  0  0  0
  183.6880  179.0970  145.7680 O   0  0  0  0  0  0  0  0  0  0  0  0
  184.8820  175.9050  135.7150 C   0  0  0  0  0  1  0  0  0  0  0  0
  185.6860  177.0020  136.1300 O   0  0  0  0  0  0  0  0  0  0  0  0
  187.9130  176.8440  141.8280 O   0  0  0  0  0  0  0  0  0  0  0  0
  188.2850  176.4640  143.1270 C   0  0  0  0  0  2  0  0  0  0  0  0
  187.1180  176.6960  144.0680 C   0  0  0  0  0  2  0  0  0  0  0  0
  186.8060  178.2730  147.5060 C   0  0  0  0  0  2  0  0  0  0  0  0
  187.6210  176.9660  145.4730 C   0  0  0  0  0  3  0  0  0  0  0  0
  187.0060  178.2630  145.9880 C   0  0  0  0  0  2  0  0  0  0  0  0
  189.3260  178.0130  147.7920 C   0  0  0  0  0  2  0  0  0  0  0  0
  189.7790  176.9510  146.7970 C   0  0  0  0  0  2  0  0  0  0  0  0
  189.1350  177.1300  145.4250 C   0  0  0  0  0  2  0  0  0  0  0  0
  187.9450  177.6580  148.3250 C   0  0  0  0  0  2  0  0  0  0  0  0
  1  7  2  0  0  0  0
  1 10  1  0  0  0  0
  2  5  1  6  0  0  0
  2 11  1  0  0  0  0
  2  7  1  0  0  0  0
  3 14  1  0  0  0  0
  3  9  2  0  0  0  0
  7  3  1  0  0  0  0
  8 25  1  0  0  0  0
  8 12  1  0  0  0  0
  8  4  1  1  0  0  0
  9 13  1  0  0  0  0
 10 15  2  0  0  0  0
 11  6  1  0  0  0  0
 13 12  1  0  0  0  0
 13 18  1  0  0  0  0
 14  6  1  6  0  0  0
 14  8  1  0  0  0  0
 15  9  1  0  0  0  0
 16 22  2  0  0  0  0
 17 16  1  0  0  0  0
 18 20  1  0  0  0  0
 19 17  1  0  0  0  0
 20 16  1  0  0  0  0
 21 18  2  0  0  0  0
 21 19  1  0  0  0  0
 23 24  1  0  0  0  0
 24  1  1  0  0  0  0
 25 26  1  0  0  0  0
 26 27  1  0  0  0  0
 27 29  1  0  0  0  0
 28 34  1  0  0  0  0
 29 30  1  0  0  0  0
 30 28  1  0  0  0  0
 31 34  1  0  0  0  0
 32 31  1  0  0  0  0
 33 29  1  0  0  0  0
 33 32  1  0  0  0  0
M  END
>  <MODEL>
2

>  <REMARK>
 VINA RESULT:      -8.3      2.345      3.543
  Name = 
  6 active torsions:
  status: ('A' for Active; 'I' for Inactive)
    1  A    between atoms: C_1  and  O_19
    2  A    between atoms: C_3  and  C_13
    3  A    between atoms: C_3  and  C_17
    4  A    between atoms: C_12  and  N_28
    5  A    between atoms: C_17  and  O_29
    6  A    between atoms: C_18  and  O_29
                            x       y       z     vdW  Elec       q    Type
                         _______ _______ _______ _____ _____    ______ ____

>  <TORSDO>
F 6

$$$$
=
 OpenBabel11052414023D

 34 38  0  0  1  0  0  0  0  0999 V2000
  186.5710  177.5150  144.6790 C   0  0  0  0  0  0  0  0  0  0  0  0
  184.3150  178.5490  145.2120 C   0  0  2  0  0  3  0  0  0  0  0  0
  185.2700  178.4610  142.8430 C   0  0  0  0  0  0  0  0  0  0  0  0
  182.4930  179.3440  140.2790 C   0  0  0  0  0  1  0  0  0  0  0  0
  184.8440  179.1200  146.3710 O   0  0  0  0  0  1  0  0  0  0  0  0
  182.8350  179.0440  143.2660 C   0  0  0  0  0  2  0  0  0  0  0  0
  185.4230  178.2020  144.2300 C   0  0  0  0  0  0  0  0  0  0  0  0
  183.7040  178.6190  140.8660 C   0  0  1  0  0  0  0  0  0  0  0  0
  186.3120  178.1540  141.9390 C   0  0  0  0  0  0  0  0  0  0  0  0
  187.5770  177.1750  143.7650 C   0  0  0  0  0  3  0  0  0  0  0  0
  183.2810  179.5110  144.6370 C   0  0  0  0  0  2  0  0  0  0  0  0
  184.9050  179.0240  140.0180 C   0  0  0  0  0  2  0  0  0  0  0  0
  186.1560  178.4390  140.5240 N   0  0  0  0  0  0  0  0  0  0  0  0
  184.0180  179.1140  142.3000 C   0  0  2  0  0  3  0  0  0  0  0  0
  187.4500  177.4940  142.4170 C   0  0  0  0  0  3  0  0  0  0  0  0
  188.0800  177.1310  137.5650 C   0  0  0  0  0  0  0  0  0  0  0  0
  189.4020  177.2760  138.0870 N   0  0  0  0  0  2  0  0  0  0  0  0
  187.2440  178.2990  139.5900 C   0  0  0  0  0  0  0  0  0  0  0  0
  189.6700  178.3160  139.0740 C   0  0  0  0  0  2  0  0  0  0  0  0
  186.9670  177.9500  138.1440 C   0  0  0  0  0  2  0  0  0  0  0  0
  188.5090  178.4460  140.0170 C   0  0  0  0  0  3  0  0  0  0  0  0
  187.8550  176.3280  136.6230 O   0  0  0  0  0  0  0  0  0  0  0  0
  187.8420  177.4770  146.8080 C   0  0  0  0  0  1  0  0  0  0  0  0
  186.6930  177.1670  146.0300 O   0  0  0  0  0  0  0  0  0  0  0  0
  183.5770  177.2070  140.7630 O   0  0  0  0  0  0  0  0  0  0  0  0
  182.3820  176.8560  140.1160 C   0  0  0  0  0  2  0  0  0  0  0  0
  182.5780  175.5410  139.3850 C   0  0  0  0  0  2  0  0  0  0  0  0
  183.1730  177.3550  136.1040 C   0  0  0  0  0  2  0  0  0  0  0  0
  183.3400  175.7660  138.0930 C   0  0  0  0  0  3  0  0  0  0  0  0
  182.4230  176.4420  137.0780 C   0  0  0  0  0  2  0  0  0  0  0  0
  184.4820  175.3270  135.2850 C   0  0  0  0  0  2  0  0  0  0  0  0
  184.8990  174.5390  136.5210 C   0  0  0  0  0  2  0  0  0  0  0  0
  183.7680  174.4140  137.5370 C   0  0  0  0  0  2  0  0  0  0  0  0
  184.5130  176.8170  135.5950 C   0  0  0  0  0  2  0  0  0  0  0  0
  1 24  1  0  0  0  0
  2  5  1  1  0  0  0
  3  7  2  0  0  0  0
  6 11  1  0  0  0  0
  7  1  1  0  0  0  0
  7  2  1  0  0  0  0
  8  4  1  6  0  0  0
  8 14  1  0  0  0  0
  9 15  2  0  0  0  0
  9  3  1  0  0  0  0
 10  1  2  0  0  0  0
 11  2  1  0  0  0  0
 12 13  1  0  0  0  0
 12  8  1  0  0  0  0
 13  9  1  0  0  0  0
 14  3  1  0  0  0  0
 14  6  1  1  0  0  0
 15 10  1  0  0  0  0
 16 17  1  0  0  0  0
 16 20  1  0  0  0  0
 17 19  1  0  0  0  0
 18 21  2  0  0  0  0
 18 13  1  0  0  0  0
 19 21  1  0  0  0  0
 20 18  1  0  0  0  0
 22 16  2  0  0  0  0
 24 23  1  0  0  0  0
 25  8  1  0  0  0  0
 26 25  1  0  0  0  0
 27 26  1  0  0  0  0
 28 30  1  0  0  0  0
 29 27  1  0  0  0  0
 30 29  1  0  0  0  0
 31 34  1  0  0  0  0
 31 32  1  0  0  0  0
 32 33  1  0  0  0  0
 33 29  1  0  0  0  0
 34 28  1  0  0  0  0
M  END
>  <MODEL>
3

>  <REMARK>
 VINA RESULT:      -7.9      2.576      8.009
  Name = 
  6 active torsions:
  status: ('A' for Active; 'I' for Inactive)
    1  A    between atoms: C_1  and  O_19
    2  A    between atoms: C_3  and  C_13
    3  A    between atoms: C_3  and  C_17
    4  A    between atoms: C_12  and  N_28
    5  A    between atoms: C_17  and  O_29
    6  A    between atoms: C_18  and  O_29
                            x       y       z     vdW  Elec       q    Type
                         _______ _______ _______ _____ _____    ______ ____

>  <TORSDO>
F 6

$$$$
=
 OpenBabel11052414023D

 34 38  0  0  1  0  0  0  0  0999 V2000
  185.7370  174.2590  137.1770 C   0  0  0  0  0  0  0  0  0  0  0  0
  187.0320  176.4130  136.8170 C   0  0  2  0  0  3  0  0  0  0  0  0
  184.6300  176.3730  137.6880 C   0  0  0  0  0  0  0  0  0  0  0  0
  183.6830  179.8730  139.0760 C   0  0  0  0  0  1  0  0  0  0  0  0
  187.5640  175.9020  135.6320 O   0  0  0  0  0  1  0  0  0  0  0  0
  186.0450  178.4790  137.8080 C   0  0  0  0  0  2  0  0  0  0  0  0
  185.7610  175.6710  137.2000 C   0  0  0  0  0  0  0  0  0  0  0  0
  183.7510  178.3480  138.9980 C   0  0  1  0  0  0  0  0  0  0  0  0
  183.4460  175.6790  138.0230 C   0  0  0  0  0  0  0  0  0  0  0  0
  184.5720  173.5800  137.5550 C   0  0  0  0  0  3  0  0  0  0  0  0
  186.8210  177.9130  136.6360 C   0  0  0  0  0  2  0  0  0  0  0  0
  182.3420  177.8670  138.6710 C   0  0  0  0  0  2  0  0  0  0  0  0
  182.2860  176.4060  138.5040 N   0  0  0  0  0  0  0  0  0  0  0  0
  184.6370  177.8810  137.8170 C   0  0  2  0  0  3  0  0  0  0  0  0
  183.4430  174.2800  137.9670 C   0  0  0  0  0  3  0  0  0  0  0  0
  179.6770  174.2230  140.1150 C   0  0  0  0  0  0  0  0  0  0  0  0
  178.9530  173.8510  138.9410 N   0  0  0  0  0  2  0  0  0  0  0  0
  181.0080  175.7690  138.7010 C   0  0  0  0  0  0  0  0  0  0  0  0
  178.9320  174.7560  137.7970 C   0  0  0  0  0  2  0  0  0  0  0  0
  180.5160  175.4640  140.0990 C   0  0  0  0  0  2  0  0  0  0  0  0
  180.2720  175.4150  137.6350 C   0  0  0  0  0  3  0  0  0  0  0  0
  179.6030  173.5190  141.1550 O   0  0  0  0  0  0  0  0  0  0  0  0
  186.8280  172.4070  135.9410 C   0  0  0  0  0  1  0  0  0  0  0  0
  186.8790  173.5470  136.7880 O   0  0  0  0  0  0  0  0  0  0  0  0
  184.1110  177.7700  140.2470 O   0  0  0  0  0  0  0  0  0  0  0  0
  184.6080  178.7440  141.1260 C   0  0  0  0  0  2  0  0  0  0  0  0
  183.9100  178.6090  142.4670 C   0  0  0  0  0  2  0  0  0  0  0  0
  185.2680  178.6940  146.0100 C   0  0  0  0  0  2  0  0  0  0  0  0
  184.9010  178.1920  143.5360 C   0  0  0  0  0  3  0  0  0  0  0  0
  184.9490  179.2610  144.6230 C   0  0  0  0  0  2  0  0  0  0  0  0
  187.5110  177.8820  145.1090 C   0  0  0  0  0  2  0  0  0  0  0  0
  187.2400  177.2470  143.7510 C   0  0  0  0  0  2  0  0  0  0  0  0
  186.2830  178.0790  142.9030 C   0  0  0  0  0  2  0  0  0  0  0  0
  186.3430  177.6030  146.0450 C   0  0  0  0  0  2  0  0  0  0  0  0
  1  7  2  0  0  0  0
  1 10  1  0  0  0  0
  2  5  1  6  0  0  0
  2  7  1  0  0  0  0
  3 14  1  0  0  0  0
  3  9  2  0  0  0  0
  7  3  1  0  0  0  0
  8  4  1  1  0  0  0
  8 25  1  0  0  0  0
  9 13  1  0  0  0  0
 10 15  2  0  0  0  0
 11  2  1  0  0  0  0
 11  6  1  0  0  0  0
 12  8  1  0  0  0  0
 13 12  1  0  0  0  0
 13 18  1  0  0  0  0
 14  6  1  1  0  0  0
 14  8  1  0  0  0  0
 15  9  1  0  0  0  0
 16 22  2  0  0  0  0
 17 16  1  0  0  0  0
 18 20  1  0  0  0  0
 19 17  1  0  0  0  0
 20 16  1  0  0  0  0
 21 19  1  0  0  0  0
 21 18  2  0  0  0  0
 23 24  1  0  0  0  0
 24  1  1  0  0  0  0
 25 26  1  0  0  0  0
 26 27  1  0  0  0  0
 27 29  1  0  0  0  0
 28 34  1  0  0  0  0
 29 30  1  0  0  0  0
 30 28  1  0  0  0  0
 31 34  1  0  0  0  0
 32 31  1  0  0  0  0
 33 29  1  0  0  0  0
 33 32  1  0  0  0  0
M  END
>  <MODEL>
4

>  <REMARK>
 VINA RESULT:      -7.9      3.530      5.515
  Name = 
  6 active torsions:
  status: ('A' for Active; 'I' for Inactive)
    1  A    between atoms: C_1  and  O_19
    2  A    between atoms: C_3  and  C_13
    3  A    between atoms: C_3  and  C_17
    4  A    between atoms: C_12  and  N_28
    5  A    between atoms: C_17  and  O_29
    6  A    between atoms: C_18  and  O_29
                            x       y       z     vdW  Elec       q    Type
                         _______ _______ _______ _____ _____    ______ ____

>  <TORSDO>
F 6

$$$$
=
 OpenBabel11052414023D

 34 38  0  0  1  0  0  0  0  0999 V2000
  186.7140  177.5360  144.7030 C   0  0  0  0  0  0  0  0  0  0  0  0
  184.4500  178.5370  145.2660 C   0  0  2  0  0  3  0  0  0  0  0  0
  185.3620  178.4370  142.8810 C   0  0  0  0  0  0  0  0  0  0  0  0
  182.5220  179.2400  140.3590 C   0  0  0  0  0  1  0  0  0  0  0  0
  184.9900  179.1310  146.4070 O   0  0  0  0  0  1  0  0  0  0  0  0
  182.9250  178.9830  143.3420 C   0  0  0  0  0  2  0  0  0  0  0  0
  185.5450  178.1980  144.2670 C   0  0  0  0  0  0  0  0  0  0  0  0
  183.7570  178.5440  140.9320 C   0  0  1  0  0  0  0  0  0  0  0  0
  186.3920  178.1370  141.9610 C   0  0  0  0  0  0  0  0  0  0  0  0
  187.7080  177.2030  143.7740 C   0  0  0  0  0  3  0  0  0  0  0  0
  183.3880  179.4740  144.6990 C   0  0  0  0  0  2  0  0  0  0  0  0
  184.9340  178.9590  140.0570 C   0  0  0  0  0  2  0  0  0  0  0  0
  186.2050  178.4020  140.5460 N   0  0  0  0  0  0  0  0  0  0  0  0
  184.0890  179.0610  142.3530 C   0  0  2  0  0  3  0  0  0  0  0  0
  187.5510  177.5040  142.4250 C   0  0  0  0  0  3  0  0  0  0  0  0
  188.0620  177.1500  137.5200 C   0  0  0  0  0  0  0  0  0  0  0  0
  189.3930  177.2510  138.0290 N   0  0  0  0  0  2  0  0  0  0  0  0
  187.2770  178.2700  139.5930 C   0  0  0  0  0  0  0  0  0  0  0  0
  189.6960  178.2530  139.0450 C   0  0  0  0  0  2  0  0  0  0  0  0
  186.9740  177.9740  138.1400 C   0  0  0  0  0  2  0  0  0  0  0  0
  188.5510  178.3760  140.0070 C   0  0  0  0  0  3  0  0  0  0  0  0
  187.8080  176.3830  136.5560 O   0  0  0  0  0  0  0  0  0  0  0  0
  188.0450  177.5020  146.7940 C   0  0  0  0  0  1  0  0  0  0  0  0
  186.8670  177.2070  146.0550 O   0  0  0  0  0  0  0  0  0  0  0  0
  183.6530  177.1280  140.8480 O   0  0  0  0  0  0  0  0  0  0  0  0
  182.7490  176.7500  139.8430 C   0  0  0  0  0  2  0  0  0  0  0  0
  183.4980  176.5930  138.5330 C   0  0  0  0  0  2  0  0  0  0  0  0
  185.0980  173.3760  137.3110 C   0  0  0  0  0  2  0  0  0  0  0  0
  183.4300  175.1550  138.0560 C   0  0  0  0  0  3  0  0  0  0  0  0
  184.6660  174.8420  137.2190 C   0  0  0  0  0  2  0  0  0  0  0  0
  182.8490  172.6990  136.3210 C   0  0  0  0  0  2  0  0  0  0  0  0
  181.7840  173.5280  137.0300 C   0  0  0  0  0  2  0  0  0  0  0  0
  182.1930  174.9900  137.1810 C   0  0  0  0  0  2  0  0  0  0  0  0
  183.9600  172.3510  137.3000 C   0  0  0  0  0  2  0  0  0  0  0  0
  1 24  1  0  0  0  0
  2  5  1  1  0  0  0
  3  7  2  0  0  0  0
  6 11  1  0  0  0  0
  7  1  1  0  0  0  0
  7  2  1  0  0  0  0
  8  4  1  6  0  0  0
  8 14  1  0  0  0  0
  9 15  2  0  0  0  0
  9  3  1  0  0  0  0
 10  1  2  0  0  0  0
 11  2  1  0  0  0  0
 12 13  1  0  0  0  0
 12  8  1  0  0  0  0
 13  9  1  0  0  0  0
 14  3  1  0  0  0  0
 14  6  1  1  0  0  0
 15 10  1  0  0  0  0
 16 17  1  0  0  0  0
 16 20  1  0  0  0  0
 17 19  1  0  0  0  0
 18 21  2  0  0  0  0
 18 13  1  0  0  0  0
 19 21  1  0  0  0  0
 20 18  1  0  0  0  0
 22 16  2  0  0  0  0
 24 23  1  0  0  0  0
 25  8  1  0  0  0  0
 26 25  1  0  0  0  0
 27 26  1  0  0  0  0
 29 27  1  0  0  0  0
 30 28  1  0  0  0  0
 30 29  1  0  0  0  0
 31 32  1  0  0  0  0
 31 34  1  0  0  0  0
 32 33  1  0  0  0  0
 33 29  1  0  0  0  0
 34 28  1  0  0  0  0
M  END
>  <MODEL>
5

>  <REMARK>
 VINA RESULT:      -7.7      2.986      8.070
  Name = 
  6 active torsions:
  status: ('A' for Active; 'I' for Inactive)
    1  A    between atoms: C_1  and  O_19
    2  A    between atoms: C_3  and  C_13
    3  A    between atoms: C_3  and  C_17
    4  A    between atoms: C_12  and  N_28
    5  A    between atoms: C_17  and  O_29
    6  A    between atoms: C_18  and  O_29
                            x       y       z     vdW  Elec       q    Type
                         _______ _______ _______ _____ _____    ______ ____

>  <TORSDO>
F 6

$$$$
=
 OpenBabel11052414023D

 34 38  0  0  1  0  0  0  0  0999 V2000
  186.5500  177.5610  144.6870 C   0  0  0  0  0  0  0  0  0  0  0  0
  184.2800  178.5590  145.2290 C   0  0  2  0  0  3  0  0  0  0  0  0
  185.2180  178.4670  142.8540 C   0  0  0  0  0  0  0  0  0  0  0  0
  182.4060  179.2790  140.3030 C   0  0  0  0  0  1  0  0  0  0  0  0
  184.8070  179.1500  146.3780 O   0  0  0  0  0  1  0  0  0  0  0  0
  182.7760  179.0120  143.2900 C   0  0  0  0  0  2  0  0  0  0  0  0
  185.3860  178.2230  144.2410 C   0  0  0  0  0  0  0  0  0  0  0  0
  183.6350  178.5810  140.8870 C   0  0  1  0  0  0  0  0  0  0  0  0
  186.2580  178.1710  141.9440 C   0  0  0  0  0  0  0  0  0  0  0  0
  187.5540  177.2300  143.7690 C   0  0  0  0  0  3  0  0  0  0  0  0
  183.2240  179.4980  144.6530 C   0  0  0  0  0  2  0  0  0  0  0  0
  184.8210  178.9990  140.0270 C   0  0  0  0  0  2  0  0  0  0  0  0
  186.0870  178.4400  140.5280 N   0  0  0  0  0  0  0  0  0  0  0  0
  183.9510  179.0930  142.3140 C   0  0  2  0  0  3  0  0  0  0  0  0
  187.4120  177.5360  142.4190 C   0  0  0  0  0  3  0  0  0  0  0  0
  187.9940  177.1680  137.5430 C   0  0  0  0  0  0  0  0  0  0  0  0
  189.3190  177.3060  138.0600 N   0  0  0  0  0  2  0  0  0  0  0  0
  187.1690  178.3120  139.5860 C   0  0  0  0  0  0  0  0  0  0  0  0
  189.5930  178.3340  139.0590 C   0  0  0  0  0  2  0  0  0  0  0  0
  186.8850  177.9810  138.1370 C   0  0  0  0  0  2  0  0  0  0  0  0
  188.4370  178.4530  140.0090 C   0  0  0  0  0  3  0  0  0  0  0  0
  187.7640  176.3770  136.5920 O   0  0  0  0  0  0  0  0  0  0  0  0
  187.8740  177.4800  146.7820 C   0  0  0  0  0  1  0  0  0  0  0  0
  186.6880  177.2270  146.0400 O   0  0  0  0  0  0  0  0  0  0  0  0
  183.5320  177.1650  140.7980 O   0  0  0  0  0  0  0  0  0  0  0  0
  182.4390  176.7910  140.0010 C   0  0  0  0  0  2  0  0  0  0  0  0
  182.9370  175.9750  138.8220 C   0  0  0  0  0  2  0  0  0  0  0  0
  181.6600  173.1240  136.6680 C   0  0  0  0  0  2  0  0  0  0  0  0
  181.9860  174.8300  138.5360 C   0  0  0  0  0  3  0  0  0  0  0  0
  181.9270  174.5870  137.0310 C   0  0  0  0  0  2  0  0  0  0  0  0
  179.4260  173.2780  137.8870 C   0  0  0  0  0  2  0  0  0  0  0  0
  179.6870  174.0050  139.2010 C   0  0  0  0  0  2  0  0  0  0  0  0
  180.5950  175.2180  139.0220 C   0  0  0  0  0  2  0  0  0  0  0  0
  180.6250  172.4060  137.5390 C   0  0  0  0  0  2  0  0  0  0  0  0
  1 24  1  0  0  0  0
  2  5  1  1  0  0  0
  3  7  2  0  0  0  0
  6 11  1  0  0  0  0
  7  1  1  0  0  0  0
  7  2  1  0  0  0  0
  8  4  1  6  0  0  0
  8 14  1  0  0  0  0
  9 15  2  0  0  0  0
  9  3  1  0  0  0  0
 10  1  2  0  0  0  0
 11  2  1  0  0  0  0
 12 13  1  0  0  0  0
 12  8  1  0  0  0  0
 13  9  1  0  0  0  0
 14  3  1  0  0  0  0
 14  6  1  1  0  0  0
 15 10  1  0  0  0  0
 16 17  1  0  0  0  0
 16 20  1  0  0  0  0
 17 19  1  0  0  0  0
 18 21  2  0  0  0  0
 18 13  1  0  0  0  0
 19 21  1  0  0  0  0
 20 18  1  0  0  0  0
 22 16  2  0  0  0  0
 24 23  1  0  0  0  0
 25  8  1  0  0  0  0
 26 25  1  0  0  0  0
 27 26  1  0  0  0  0
 28 30  1  0  0  0  0
 28 34  1  0  0  0  0
 29 27  1  0  0  0  0
 29 33  1  0  0  0  0
 30 29  1  0  0  0  0
 31 32  1  0  0  0  0
 33 32  1  0  0  0  0
 34 31  1  0  0  0  0
M  END
>  <MODEL>
6

>  <REMARK>
 VINA RESULT:      -7.6      3.404      8.191
  Name = 
  6 active torsions:
  status: ('A' for Active; 'I' for Inactive)
    1  A    between atoms: C_1  and  O_19
    2  A    between atoms: C_3  and  C_13
    3  A    between atoms: C_3  and  C_17
    4  A    between atoms: C_12  and  N_28
    5  A    between atoms: C_17  and  O_29
    6  A    between atoms: C_18  and  O_29
                            x       y       z     vdW  Elec       q    Type
                         _______ _______ _______ _____ _____    ______ ____

>  <TORSDO>
F 6

$$$$
=
 OpenBabel11052414023D

 34 38  0  0  1  0  0  0  0  0999 V2000
  187.7150  172.9850  136.4660 C   0  0  0  0  0  0  0  0  0  0  0  0
  190.0000  174.0090  136.0450 C   0  0  2  0  0  3  0  0  0  0  0  0
  187.9500  175.4080  136.6530 C   0  0  0  0  0  0  0  0  0  0  0  0
  189.0550  179.0080  137.5940 C   0  0  0  0  0  1  0  0  0  0  0  0
  190.2020  173.1320  134.9770 O   0  0  0  0  0  1  0  0  0  0  0  0
  190.2900  176.3910  136.7250 C   0  0  0  0  0  2  0  0  0  0  0  0
  188.5180  174.1420  136.3580 C   0  0  0  0  0  0  0  0  0  0  0  0
  188.2680  177.7000  137.6690 C   0  0  1  0  0  0  0  0  0  0  0  0
  186.5680  175.5270  136.9230 C   0  0  0  0  0  0  0  0  0  0  0  0
  186.3560  173.1120  136.7790 C   0  0  0  0  0  3  0  0  0  0  0  0
  190.6640  175.3380  135.7010 C   0  0  0  0  0  2  0  0  0  0  0  0
  186.8420  178.0270  137.2390 C   0  0  0  0  0  2  0  0  0  0  0  0
  185.9900  176.8280  137.2060 N   0  0  0  0  0  0  0  0  0  0  0  0
  188.7890  176.6670  136.6390 C   0  0  2  0  0  3  0  0  0  0  0  0
  185.7910  174.3650  137.0000 C   0  0  0  0  0  3  0  0  0  0  0  0
  182.5240  176.5280  138.6420 C   0  0  0  0  0  0  0  0  0  0  0  0
  181.7800  176.6060  137.4250 N   0  0  0  0  0  2  0  0  0  0  0  0
  184.5680  177.0260  137.3240 C   0  0  0  0  0  0  0  0  0  0  0  0
  182.3340  177.3420  136.2940 C   0  0  0  0  0  2  0  0  0  0  0  0
  183.9160  177.0800  138.6890 C   0  0  0  0  0  2  0  0  0  0  0  0
  183.8170  177.1280  136.2140 C   0  0  0  0  0  3  0  0  0  0  0  0
  182.0100  176.0090  139.6670 O   0  0  0  0  0  0  0  0  0  0  0  0
  187.7020  170.7330  135.4290 C   0  0  0  0  0  1  0  0  0  0  0  0
  188.2830  171.7200  136.2710 O   0  0  0  0  0  0  0  0  0  0  0  0
  188.1990  177.1980  138.9970 O   0  0  0  0  0  0  0  0  0  0  0  0
  188.6960  178.1380  139.9140 C   0  0  0  0  0  2  0  0  0  0  0  0
  187.6740  178.3460  141.0170 C   0  0  0  0  0  2  0  0  0  0  0  0
  190.7290  178.1260  143.2590 C   0  0  0  0  0  2  0  0  0  0  0  0
  188.3390  178.2400  142.3760 C   0  0  0  0  0  3  0  0  0  0  0  0
  189.7270  177.6290  142.2130 C   0  0  0  0  0  2  0  0  0  0  0  0
  189.2500  177.1280  145.0800 C   0  0  0  0  0  2  0  0  0  0  0  0
  187.8130  177.5020  144.7400 C   0  0  0  0  0  2  0  0  0  0  0  0
  187.5020  177.3210  143.2580 C   0  0  0  0  0  2  0  0  0  0  0  0
  190.1810  178.2640  144.6830 C   0  0  0  0  0  2  0  0  0  0  0  0
  1 10  1  0  0  0  0
  2  5  1  6  0  0  0
  2  7  1  0  0  0  0
  3  9  2  0  0  0  0
  7  1  2  0  0  0  0
  7  3  1  0  0  0  0
  8  4  1  6  0  0  0
  8 25  1  0  0  0  0
  9 15  1  0  0  0  0
  9 13  1  0  0  0  0
 10 15  2  0  0  0  0
 11  2  1  0  0  0  0
 11  6  1  0  0  0  0
 12  8  1  0  0  0  0
 13 12  1  0  0  0  0
 13 18  1  0  0  0  0
 14  3  1  0  0  0  0
 14  6  1  1  0  0  0
 14  8  1  0  0  0  0
 16 20  1  0  0  0  0
 16 22  2  0  0  0  0
 17 16  1  0  0  0  0
 18 20  1  0  0  0  0
 19 17  1  0  0  0  0
 21 19  1  0  0  0  0
 21 18  2  0  0  0  0
 23 24  1  0  0  0  0
 24  1  1  0  0  0  0
 25 26  1  0  0  0  0
 26 27  1  0  0  0  0
 27 29  1  0  0  0  0
 28 34  1  0  0  0  0
 29 33  1  0  0  0  0
 30 29  1  0  0  0  0
 30 28  1  0  0  0  0
 32 31  1  0  0  0  0
 33 32  1  0  0  0  0
 34 31  1  0  0  0  0
M  END
>  <MODEL>
7

>  <REMARK>
 VINA RESULT:      -7.4      2.506      4.185
  Name = 
  6 active torsions:
  status: ('A' for Active; 'I' for Inactive)
    1  A    between atoms: C_1  and  O_19
    2  A    between atoms: C_3  and  C_13
    3  A    between atoms: C_3  and  C_17
    4  A    between atoms: C_12  and  N_28
    5  A    between atoms: C_17  and  O_29
    6  A    between atoms: C_18  and  O_29
                            x       y       z     vdW  Elec       q    Type
                         _______ _______ _______ _____ _____    ______ ____

>  <TORSDO>
F 6

$$$$
=
 OpenBabel11052414023D

 34 38  0  0  1  0  0  0  0  0999 V2000
  185.7550  178.4140  138.9290 C   0  0  0  0  0  0  0  0  0  0  0  0
  186.1080  177.3380  136.6570 C   0  0  2  0  0  3  0  0  0  0  0  0
  183.7920  177.6660  137.6860 C   0  0  0  0  0  0  0  0  0  0  0  0
  181.0660  177.0600  134.9900 C   0  0  0  0  0  1  0  0  0  0  0  0
  187.2180  176.6500  137.1500 O   0  0  0  0  0  1  0  0  0  0  0  0
  184.0770  177.0500  135.2390 C   0  0  0  0  0  2  0  0  0  0  0  0
  185.2020  177.7810  137.7950 C   0  0  0  0  0  0  0  0  0  0  0  0
  181.7620  177.7160  136.1820 C   0  0  1  0  0  0  0  0  0  0  0  0
  182.9570  178.0610  138.7550 C   0  0  0  0  0  0  0  0  0  0  0  0
  184.9120  178.8430  139.9630 C   0  0  0  0  0  3  0  0  0  0  0  0
  185.4060  176.4440  135.6410 C   0  0  0  0  0  2  0  0  0  0  0  0
  180.9140  177.3970  137.4080 C   0  0  0  0  0  2  0  0  0  0  0  0
  181.5160  177.9230  138.6440 N   0  0  0  0  0  0  0  0  0  0  0  0
  183.1460  177.0760  136.4510 C   0  0  2  0  0  3  0  0  0  0  0  0
  183.5350  178.6640  139.8790 C   0  0  0  0  0  3  0  0  0  0  0  0
  179.9460  179.7360  141.5440 C   0  0  0  0  0  0  0  0  0  0  0  0
  179.6200  178.6050  142.3530 N   0  0  0  0  0  2  0  0  0  0  0  0
  180.6350  178.1540  139.7600 C   0  0  0  0  0  0  0  0  0  0  0  0
  179.3530  177.3220  141.7140 C   0  0  0  0  0  2  0  0  0  0  0  0
  180.1490  179.5530  140.0710 C   0  0  0  0  0  2  0  0  0  0  0  0
  180.2750  177.1250  140.5460 C   0  0  0  0  0  3  0  0  0  0  0  0
  180.0540  180.8780  142.0630 O   0  0  0  0  0  0  0  0  0  0  0  0
  187.9090  178.2580  140.1460 C   0  0  0  0  0  1  0  0  0  0  0  0
  187.1370  178.6210  139.0100 O   0  0  0  0  0  0  0  0  0  0  0  0
  181.8010  179.1320  136.0590 O   0  0  0  0  0  0  0  0  0  0  0  0
  180.5040  179.6670  136.0020 C   0  0  0  0  0  2  0  0  0  0  0  0
  180.4520  180.7380  134.9280 C   0  0  0  0  0  2  0  0  0  0  0  0
  181.2260  183.0260  137.8550 C   0  0  0  0  0  2  0  0  0  0  0  0
  180.7450  182.0990  135.5280 C   0  0  0  0  0  3  0  0  0  0  0  0
  180.3600  182.0930  137.0040 C   0  0  0  0  0  2  0  0  0  0  0  0
  180.3880  184.9930  136.4660 C   0  0  0  0  0  2  0  0  0  0  0  0
  180.4340  184.5570  135.0060 C   0  0  0  0  0  2  0  0  0  0  0  0
  179.8990  183.1410  134.8080 C   0  0  0  0  0  2  0  0  0  0  0  0
  181.5600  184.3790  137.2190 C   0  0  0  0  0  2  0  0  0  0  0  0
  1 24  1  0  0  0  0
  1 10  1  0  0  0  0
  2  5  1  1  0  0  0
  2  7  1  0  0  0  0
  3  7  1  0  0  0  0
  3  9  2  0  0  0  0
  6 11  1  0  0  0  0
  7  1  2  0  0  0  0
  8  4  1  6  0  0  0
  8 14  1  0  0  0  0
  8 12  1  0  0  0  0
  9 15  1  0  0  0  0
 11  2  1  0  0  0  0
 12 13  1  0  0  0  0
 13  9  1  0  0  0  0
 13 18  1  0  0  0  0
 14  6  1  6  0  0  0
 14  3  1  0  0  0  0
 15 10  2  0  0  0  0
 16 22  2  0  0  0  0
 16 17  1  0  0  0  0
 18 20  1  0  0  0  0
 18 21  2  0  0  0  0
 19 17  1  0  0  0  0
 20 16  1  0  0  0  0
 21 19  1  0  0  0  0
 24 23  1  0  0  0  0
 25  8  1  0  0  0  0
 26 25  1  0  0  0  0
 27 29  1  0  0  0  0
 27 26  1  0  0  0  0
 29 30  1  0  0  0  0
 30 28  1  0  0  0  0
 31 34  1  0  0  0  0
 32 31  1  0  0  0  0
 33 32  1  0  0  0  0
 33 29  1  0  0  0  0
 34 28  1  0  0  0  0
M  END
>  <MODEL>
8

>  <REMARK>
 VINA RESULT:      -6.8      4.596      8.931
  Name = 
  6 active torsions:
  status: ('A' for Active; 'I' for Inactive)
    1  A    between atoms: C_1  and  O_19
    2  A    between atoms: C_3  and  C_13
    3  A    between atoms: C_3  and  C_17
    4  A    between atoms: C_12  and  N_28
    5  A    between atoms: C_17  and  O_29
    6  A    between atoms: C_18  and  O_29
                            x       y       z     vdW  Elec       q    Type
                         _______ _______ _______ _____ _____    ______ ____

>  <TORSDO>
F 6

$$$$
=
 OpenBabel11052414023D

 34 38  0  0  1  0  0  0  0  0999 V2000
  189.8950  177.3540  140.6700 C   0  0  0  0  0  0  0  0  0  0  0  0
  187.6420  177.9820  139.6820 C   0  0  2  0  0  3  0  0  0  0  0  0
  189.5030  176.9040  138.3030 C   0  0  0  0  0  0  0  0  0  0  0  0
  188.0780  175.6970  134.8990 C   0  0  0  0  0  1  0  0  0  0  0  0
  187.6440  179.1690  140.4180 O   0  0  0  0  0  1  0  0  0  0  0  0
  187.1260  177.0620  137.4220 C   0  0  0  0  0  2  0  0  0  0  0  0
  189.0540  177.4360  139.5380 C   0  0  0  0  0  0  0  0  0  0  0  0
  188.9170  175.6690  136.1770 C   0  0  1  0  0  0  0  0  0  0  0  0
  190.8220  176.4160  138.1710 C   0  0  0  0  0  0  0  0  0  0  0  0
  191.1850  176.8270  140.5370 C   0  0  0  0  0  3  0  0  0  0  0  0
  186.9620  178.2530  138.3440 C   0  0  0  0  0  2  0  0  0  0  0  0
  190.3690  175.8350  135.7460 C   0  0  0  0  0  2  0  0  0  0  0  0
  191.2820  175.8900  136.8990 N   0  0  0  0  0  0  0  0  0  0  0  0
  188.6070  176.8860  137.0840 C   0  0  2  0  0  3  0  0  0  0  0  0
  191.6430  176.3700  139.3050 C   0  0  0  0  0  3  0  0  0  0  0  0
  194.6670  174.3860  137.5670 C   0  0  0  0  0  0  0  0  0  0  0  0
  195.4670  175.3350  136.8580 N   0  0  0  0  0  2  0  0  0  0  0  0
  192.6590  175.5360  136.6670 C   0  0  0  0  0  0  0  0  0  0  0  0
  194.8940  176.0440  135.7190 C   0  0  0  0  0  2  0  0  0  0  0  0
  193.2170  174.2420  137.2190 C   0  0  0  0  0  2  0  0  0  0  0  0
  193.4560  176.3780  135.9880 C   0  0  0  0  0  3  0  0  0  0  0  0
  195.1790  173.6730  138.4680 O   0  0  0  0  0  0  0  0  0  0  0  0
  188.9900  176.8960  142.9320 C   0  0  0  0  0  1  0  0  0  0  0  0
  189.4310  177.7890  141.9180 O   0  0  0  0  0  0  0  0  0  0  0  0
  188.8200  174.4180  136.8460 O   0  0  0  0  0  0  0  0  0  0  0  0
  187.8930  173.5790  136.2100 C   0  0  0  0  0  2  0  0  0  0  0  0
  187.3460  172.5850  137.2180 C   0  0  0  0  0  2  0  0  0  0  0  0
  183.9770  171.1960  136.1580 C   0  0  0  0  0  2  0  0  0  0  0  0
  185.8300  172.6020  137.2040 C   0  0  0  0  0  3  0  0  0  0  0  0
  185.3280  171.8860  135.9540 C   0  0  0  0  0  2  0  0  0  0  0  0
  182.9440  173.4720  136.6610 C   0  0  0  0  0  2  0  0  0  0  0  0
  183.9040  174.1990  137.5940 C   0  0  0  0  0  2  0  0  0  0  0  0
  185.3590  174.0510  137.1580 C   0  0  0  0  0  2  0  0  0  0  0  0
  182.9510  171.9830  136.9790 C   0  0  0  0  0  2  0  0  0  0  0  0
  1 24  1  0  0  0  0
  2  5  1  1  0  0  0
  3  7  1  0  0  0  0
  6 11  1  0  0  0  0
  7  2  1  0  0  0  0
  7  1  2  0  0  0  0
  8  4  1  6  0  0  0
  8 25  1  0  0  0  0
  8 14  1  0  0  0  0
  9  3  2  0  0  0  0
  9 15  1  0  0  0  0
 10  1  1  0  0  0  0
 11  2  1  0  0  0  0
 12  8  1  0  0  0  0
 12 13  1  0  0  0  0
 13  9  1  0  0  0  0
 14  6  1  1  0  0  0
 14  3  1  0  0  0  0
 15 10  2  0  0  0  0
 16 22  2  0  0  0  0
 17 16  1  0  0  0  0
 18 13  1  0  0  0  0
 18 20  1  0  0  0  0
 19 21  1  0  0  0  0
 19 17  1  0  0  0  0
 20 16  1  0  0  0  0
 21 18  2  0  0  0  0
 24 23  1  0  0  0  0
 26 25  1  0  0  0  0
 26 27  1  0  0  0  0
 28 34  1  0  0  0  0
 29 27  1  0  0  0  0
 30 28  1  0  0  0  0
 30 29  1  0  0  0  0
 31 34  1  0  0  0  0
 31 32  1  0  0  0  0
 33 29  1  0  0  0  0
 33 32  1  0  0  0  0
M  END
>  <MODEL>
9

>  <REMARK>
 VINA RESULT:      -6.7      3.632      8.249
  Name = 
  6 active torsions:
  status: ('A' for Active; 'I' for Inactive)
    1  A    between atoms: C_1  and  O_19
    2  A    between atoms: C_3  and  C_13
    3  A    between atoms: C_3  and  C_17
    4  A    between atoms: C_12  and  N_28
    5  A    between atoms: C_17  and  O_29
    6  A    between atoms: C_18  and  O_29
                            x       y       z     vdW  Elec       q    Type
                         _______ _______ _______ _____ _____    ______ ____

>  <TORSDO>
F 6

$$$$
