=
 OpenBabel11052412333D

 30 33  0  0  1  0  0  0  0  0999 V2000
  184.7060  178.7580  140.6830 C   0  0  0  0  0  3  0  0  0  0  0  0
  185.8320  178.4560  141.6540 C   0  0  2  0  0  3  0  0  0  0  0  0
  180.9990  178.8050  143.9000 C   0  0  0  0  0  2  0  0  0  0  0  0
  182.2040  179.1110  140.4100 C   0  0  0  0  0  0  0  0  0  0  0  0
  179.5010  178.7180  143.5740 C   0  0  0  0  0  2  0  0  0  0  0  0
  185.4120  178.3050  143.1170 C   0  0  0  0  0  0  0  0  0  0  0  0
  186.8060  179.4310  141.5400 F   0  0  0  0  0  0  0  0  0  0  0  0
  181.7970  178.7770  142.6360 C   0  0  0  0  0  0  0  0  0  0  0  0
  186.4550  178.0170  144.1370 C   0  0  0  0  0  1  0  0  0  0  0  0
  183.4520  178.8270  141.1190 C   0  0  0  0  0  0  0  0  0  0  0  0
  181.2310  179.1080  141.3270 C   0  0  0  0  0  0  0  0  0  0  0  0
  179.1070  179.7170  142.4760 C   0  0  0  0  0  2  0  0  0  0  0  0
  179.7690  179.3710  141.1340 C   0  0  0  0  0  2  0  0  0  0  0  0
  184.1320  178.3790  143.5130 C   0  0  0  0  0  3  0  0  0  0  0  0
  183.1070  178.6330  142.5040 C   0  0  0  0  0  0  0  0  0  0  0  0
  180.8920  178.8380  137.0820 O   0  0  0  0  0  0  0  0  0  0  0  0
  181.6110  178.4620  138.0470 C   0  0  0  0  0  0  0  0  0  0  0  0
  182.0640  179.4290  139.0120 N   0  0  0  0  0  0  0  0  0  0  0  0
  181.1640  176.0910  138.3020 N   0  0  0  0  0  0  0  0  0  0  0  0
  183.3520  176.5910  138.0040 N   0  0  0  0  0  2  0  0  0  0  0  0
  182.0100  177.0460  138.1320 C   0  0  0  0  0  0  0  0  0  0  0  0
  181.8540  174.8780  138.3190 N   0  0  0  0  0  0  0  0  0  0  0  0
  183.2730  175.1440  138.1330 C   0  0  0  0  0  3  0  0  0  0  0  0
  182.3420  180.7900  138.5720 C   0  0  0  0  0  2  0  0  0  0  0  0
  181.0790  181.6330  138.6480 C   0  0  0  0  0  2  0  0  0  0  0  0
  180.8220  182.3090  137.3140 C   0  0  0  0  0  2  0  0  0  0  0  0
  179.9630  183.4680  137.5050 N   0  0  0  0  0  2  0  0  0  0  0  0
  181.5210  184.9890  136.6560 O   0  0  0  0  0  0  0  0  0  0  0  0
  180.3800  184.7860  137.1510 C   0  0  0  0  0  0  0  0  0  0  0  0
  179.4590  185.9310  137.3710 C   0  0  0  0  0  1  0  0  0  0  0  0
  1 10  2  0  0  0  0
  1  2  1  0  0  0  0
  2  7  1  1  0  0  0
  2  6  1  0  0  0  0
  4 10  1  0  0  0  0
  4 11  2  0  0  0  0
  5  3  1  0  0  0  0
  6 14  2  0  0  0  0
  6  9  1  0  0  0  0
  8  3  1  0  0  0  0
 10 15  1  0  0  0  0
 11  8  1  0  0  0  0
 12  5  1  0  0  0  0
 13 11  1  0  0  0  0
 13 12  1  0  0  0  0
 15  8  2  0  0  0  0
 15 14  1  0  0  0  0
 16 17  2  0  0  0  0
 17 21  1  0  0  0  0
 17 18  1  0  0  0  0
 18  4  1  0  0  0  0
 19 22  1  0  0  0  0
 20 21  1  0  0  0  0
 20 23  1  0  0  0  0
 21 19  2  0  0  0  0
 23 22  2  0  0  0  0
 24 25  1  0  0  0  0
 24 18  1  0  0  0  0
 26 27  1  0  0  0  0
 26 25  1  0  0  0  0
 28 29  2  0  0  0  0
 29 30  1  0  0  0  0
 29 27  1  0  0  0  0
M  END
>  <MODEL>
1

>  <REMARK>
 VINA RESULT:      -6.6      0.000      0.000
  Name = 
  6 active torsions:
  status: ('A' for Active; 'I' for Inactive)
    1  A    between atoms: C_4  and  N_13
    2  A    between atoms: N_7  and  C_16
    3  A    between atoms: C_8  and  C_12
    4  A    between atoms: N_13  and  C_27
    5  A    between atoms: C_16  and  C_30
    6  A    between atoms: C_27  and  C_30
                            x       y       z     vdW  Elec       q    Type
                         _______ _______ _______ _____ _____    ______ ____

>  <TORSDO>
F 6

$$$$
=
 OpenBabel11052412333D

 30 33  0  0  1  0  0  0  0  0999 V2000
  185.1030  178.3830  138.4380 C   0  0  0  0  0  3  0  0  0  0  0  0
  186.5800  178.2860  138.1040 C   0  0  0  0  0  0  0  0  0  0  0  0
  185.5110  178.7620  143.3150 C   0  0  0  0  0  2  0  0  0  0  0  0
  183.3760  178.5750  140.2930 C   0  0  0  0  0  0  0  0  0  0  0  0
  184.3930  178.5570  144.3470 C   0  0  0  0  0  2  0  0  0  0  0  0
  187.5270  178.3460  139.3030 C   0  0  0  0  0  0  0  0  0  0  0  0
  186.9060  179.2750  137.1930 F   0  0  0  0  0  0  0  0  0  0  0  0
  184.9700  178.5730  141.9340 C   0  0  0  0  0  0  0  0  0  0  0  0
  188.9930  178.2680  139.0640 C   0  0  0  0  0  1  0  0  0  0  0  0
  184.7120  178.4620  139.7060 C   0  0  0  0  0  0  0  0  0  0  0  0
  183.5430  178.6710  141.6160 C   0  0  2  0  0  3  0  0  0  0  0  0
  183.1340  179.3540  143.9750 C   0  0  0  0  0  2  0  0  0  0  0  0
  182.4990  178.8340  142.6770 C   0  0  0  0  0  2  0  0  0  0  0  0
  187.0890  178.4230  140.5680 C   0  0  0  0  0  3  0  0  0  0  0  0
  185.6470  178.4700  140.8010 C   0  0  0  0  0  0  0  0  0  0  0  0
  180.2570  177.4220  138.9450 O   0  0  0  0  0  0  0  0  0  0  0  0
  181.5150  177.5190  138.9600 C   0  0  0  0  0  0  0  0  0  0  0  0
  182.1290  178.6650  139.5780 N   0  0  0  0  0  0  0  0  0  0  0  0
  182.8340  175.4840  138.9340 N   0  0  0  0  0  0  0  0  0  0  0  0
  182.5820  176.4460  136.9000 N   0  0  0  0  0  2  0  0  0  0  0  0
  182.3200  176.4770  138.2980 C   0  0  0  0  0  0  0  0  0  0  0  0
  183.5150  174.6740  138.0240 N   0  0  0  0  0  0  0  0  0  0  0  0
  183.3860  175.2510  136.6940 C   0  0  0  0  0  3  0  0  0  0  0  0
  181.4440  179.9500  139.5230 C   0  0  0  0  0  2  0  0  0  0  0  0
  181.7980  180.6760  138.2340 C   0  0  0  0  0  2  0  0  0  0  0  0
  181.5310  182.1620  138.3820 C   0  0  0  0  0  2  0  0  0  0  0  0
  181.0300  182.7010  137.1270 N   0  0  0  0  0  2  0  0  0  0  0  0
  182.0740  184.7750  137.3910 O   0  0  0  0  0  0  0  0  0  0  0  0
  181.3440  184.0230  136.6910 C   0  0  0  0  0  0  0  0  0  0  0  0
  180.8030  184.5190  135.3990 C   0  0  0  0  0  1  0  0  0  0  0  0
  1 10  1  0  0  0  0
  2  1  2  0  0  0  0
  2  6  1  0  0  0  0
  3  5  1  0  0  0  0
  4 11  1  0  0  0  0
  6 14  2  0  0  0  0
  7  2  1  0  0  0  0
  8  3  1  0  0  0  0
  9  6  1  0  0  0  0
 10  4  2  0  0  0  0
 10 15  1  0  0  0  0
 11  8  1  0  0  0  0
 11 13  1  1  0  0  0
 12  5  1  0  0  0  0
 13 12  1  0  0  0  0
 14 15  1  0  0  0  0
 15  8  2  0  0  0  0
 16 17  2  0  0  0  0
 17 18  1  0  0  0  0
 18  4  1  0  0  0  0
 20 21  1  0  0  0  0
 21 19  2  0  0  0  0
 21 17  1  0  0  0  0
 22 19  1  0  0  0  0
 23 20  1  0  0  0  0
 23 22  2  0  0  0  0
 24 18  1  0  0  0  0
 25 26  1  0  0  0  0
 25 24  1  0  0  0  0
 27 26  1  0  0  0  0
 29 27  1  0  0  0  0
 29 28  2  0  0  0  0
 30 29  1  0  0  0  0
M  END
>  <MODEL>
2

>  <REMARK>
 VINA RESULT:      -6.4      1.804      2.877
  Name = 
  6 active torsions:
  status: ('A' for Active; 'I' for Inactive)
    1  A    between atoms: C_4  and  N_13
    2  A    between atoms: N_7  and  C_16
    3  A    between atoms: C_8  and  C_12
    4  A    between atoms: N_13  and  C_27
    5  A    between atoms: C_16  and  C_30
    6  A    between atoms: C_27  and  C_30
                            x       y       z     vdW  Elec       q    Type
                         _______ _______ _______ _____ _____    ______ ____

>  <TORSDO>
F 6

$$$$
=
 OpenBabel11052412333D

 30 33  0  0  1  0  0  0  0  0999 V2000
  184.4690  178.0620  142.0200 C   0  0  0  0  0  3  0  0  0  0  0  0
  185.1350  177.9930  143.3810 C   0  0  2  0  0  3  0  0  0  0  0  0
  180.2380  180.1250  143.4130 C   0  0  0  0  0  2  0  0  0  0  0  0
  182.3760  178.7180  140.7340 C   0  0  0  0  0  0  0  0  0  0  0  0
  178.9360  180.1840  142.6020 C   0  0  0  0  0  2  0  0  0  0  0  0
  184.3090  178.5470  144.5430 C   0  0  0  0  0  0  0  0  0  0  0  0
  186.3590  178.6350  143.3220 F   0  0  0  0  0  0  0  0  0  0  0  0
  181.2980  179.4260  142.6250 C   0  0  0  0  0  0  0  0  0  0  0  0
  184.8910  178.5260  145.9110 C   0  0  0  0  0  1  0  0  0  0  0  0
  183.2310  178.5340  141.9080 C   0  0  0  0  0  0  0  0  0  0  0  0
  181.2420  179.2770  141.1690 C   0  0  0  0  0  0  0  0  0  0  0  0
  179.1890  180.6860  141.1730 C   0  0  0  0  0  2  0  0  0  0  0  0
  180.0460  179.6970  140.3700 C   0  0  0  0  0  2  0  0  0  0  0  0
  183.0610  179.0120  144.3850 C   0  0  0  0  0  3  0  0  0  0  0  0
  182.4810  179.0040  143.0440 C   0  0  0  0  0  0  0  0  0  0  0  0
  181.8090  178.0580  137.2540 O   0  0  0  0  0  0  0  0  0  0  0  0
  181.8450  177.7380  138.4740 C   0  0  0  0  0  0  0  0  0  0  0  0
  182.7280  178.4430  139.3660 N   0  0  0  0  0  0  0  0  0  0  0  0
  181.4840  175.6440  139.6450 N   0  0  0  0  0  0  0  0  0  0  0  0
  179.6160  176.5070  138.6990 N   0  0  0  0  0  2  0  0  0  0  0  0
  181.0140  176.6150  138.9430 C   0  0  0  0  0  0  0  0  0  0  0  0
  180.4440  174.7610  139.9420 N   0  0  0  0  0  0  0  0  0  0  0  0
  179.2140  175.2700  139.3530 C   0  0  0  0  0  3  0  0  0  0  0  0
  183.9990  178.9400  138.8550 C   0  0  0  0  0  2  0  0  0  0  0  0
  184.7290  177.8370  138.1070 C   0  0  0  0  0  2  0  0  0  0  0  0
  186.1920  178.2010  137.9360 C   0  0  0  0  0  2  0  0  0  0  0  0
  186.7630  178.5720  139.2220 N   0  0  0  0  0  2  0  0  0  0  0  0
  188.6460  177.2100  138.9850 O   0  0  0  0  0  0  0  0  0  0  0  0
  188.0000  178.0350  139.6860 C   0  0  0  0  0  0  0  0  0  0  0  0
  188.5320  178.4510  141.0090 C   0  0  0  0  0  1  0  0  0  0  0  0
  1  2  1  0  0  0  0
  2  7  1  6  0  0  0
  2  6  1  0  0  0  0
  4 11  2  0  0  0  0
  4 10  1  0  0  0  0
  5  3  1  0  0  0  0
  6  9  1  0  0  0  0
  8 15  2  0  0  0  0
  8  3  1  0  0  0  0
 10  1  2  0  0  0  0
 10 15  1  0  0  0  0
 11  8  1  0  0  0  0
 12  5  1  0  0  0  0
 13 11  1  0  0  0  0
 13 12  1  0  0  0  0
 14  6  2  0  0  0  0
 15 14  1  0  0  0  0
 16 17  2  0  0  0  0
 17 21  1  0  0  0  0
 17 18  1  0  0  0  0
 18  4  1  0  0  0  0
 19 22  1  0  0  0  0
 20 21  1  0  0  0  0
 20 23  1  0  0  0  0
 21 19  2  0  0  0  0
 23 22  2  0  0  0  0
 24 18  1  0  0  0  0
 25 24  1  0  0  0  0
 26 25  1  0  0  0  0
 26 27  1  0  0  0  0
 27 29  1  0  0  0  0
 28 29  2  0  0  0  0
 29 30  1  0  0  0  0
M  END
>  <MODEL>
3

>  <REMARK>
 VINA RESULT:      -6.3      2.797      4.509
  Name = 
  6 active torsions:
  status: ('A' for Active; 'I' for Inactive)
    1  A    between atoms: C_4  and  N_13
    2  A    between atoms: N_7  and  C_16
    3  A    between atoms: C_8  and  C_12
    4  A    between atoms: N_13  and  C_27
    5  A    between atoms: C_16  and  C_30
    6  A    between atoms: C_27  and  C_30
                            x       y       z     vdW  Elec       q    Type
                         _______ _______ _______ _____ _____    ______ ____

>  <TORSDO>
F 6

$$$$
=
 OpenBabel11052412333D

 30 33  0  0  1  0  0  0  0  0999 V2000
  189.1140  177.0100  145.1390 C   0  0  0  0  0  3  0  0  0  0  0  0
  189.1850  176.9780  146.6540 C   0  0  2  0  0  3  0  0  0  0  0  0
  184.5960  178.8760  144.6870 C   0  0  0  0  0  2  0  0  0  0  0  0
  187.6820  177.5620  143.1130 C   0  0  0  0  0  0  0  0  0  0  0  0
  183.7240  178.8710  143.4240 C   0  0  0  0  0  2  0  0  0  0  0  0
  187.9420  177.4970  147.3780 C   0  0  0  0  0  0  0  0  0  0  0  0
  190.3020  177.6770  147.0720 F   0  0  0  0  0  0  0  0  0  0  0  0
  185.9110  178.2250  144.4010 C   0  0  0  0  0  0  0  0  0  0  0  0
  187.9310  177.5090  148.8650 C   0  0  0  0  0  1  0  0  0  0  0  0
  188.0050  177.4230  144.5330 C   0  0  0  0  0  0  0  0  0  0  0  0
  186.4460  178.0680  143.0470 C   0  0  0  0  0  0  0  0  0  0  0  0
  184.5040  179.3790  142.2020 C   0  0  0  0  0  2  0  0  0  0  0  0
  185.6520  178.4280  141.8290 C   0  0  0  0  0  2  0  0  0  0  0  0
  186.8420  177.9020  146.7270 C   0  0  0  0  0  3  0  0  0  0  0  0
  186.8450  177.8610  145.2660 C   0  0  0  0  0  0  0  0  0  0  0  0
  190.6080  176.3230  141.4460 O   0  0  0  0  0  0  0  0  0  0  0  0
  189.9820  177.1460  142.1690 C   0  0  0  0  0  0  0  0  0  0  0  0
  188.5610  177.2980  142.0030 N   0  0  0  0  0  0  0  0  0  0  0  0
  191.6790  177.4920  143.8690 N   0  0  0  0  0  0  0  0  0  0  0  0
  190.5220  179.3610  143.3250 N   0  0  0  0  0  2  0  0  0  0  0  0
  190.7360  177.9670  143.1340 C   0  0  0  0  0  0  0  0  0  0  0  0
  192.1990  178.5230  144.6520 N   0  0  0  0  0  0  0  0  0  0  0  0
  191.4860  179.7530  144.3430 C   0  0  0  0  0  3  0  0  0  0  0  0
  187.9820  177.1290  140.6760 C   0  0  0  0  0  2  0  0  0  0  0  0
  188.5800  178.1410  139.7130 C   0  0  0  0  0  2  0  0  0  0  0  0
  188.8740  177.4820  138.3780 C   0  0  0  0  0  2  0  0  0  0  0  0
  190.3070  177.4950  138.1250 N   0  0  0  0  0  2  0  0  0  0  0  0
  190.5510  175.1820  138.3430 O   0  0  0  0  0  0  0  0  0  0  0  0
  191.0860  176.3010  138.1220 C   0  0  0  0  0  0  0  0  0  0  0  0
  192.5470  176.3780  137.8580 C   0  0  0  0  0  1  0  0  0  0  0  0
  1  2  1  0  0  0  0
  2  7  1  1  0  0  0
  2  6  1  0  0  0  0
  4 10  1  0  0  0  0
  5  3  1  0  0  0  0
  6  9  1  0  0  0  0
  8  3  1  0  0  0  0
  8 15  2  0  0  0  0
 10  1  2  0  0  0  0
 10 15  1  0  0  0  0
 11  4  2  0  0  0  0
 11  8  1  0  0  0  0
 12  5  1  0  0  0  0
 13 12  1  0  0  0  0
 13 11  1  0  0  0  0
 14  6  2  0  0  0  0
 15 14  1  0  0  0  0
 16 17  2  0  0  0  0
 17 21  1  0  0  0  0
 18 17  1  0  0  0  0
 18  4  1  0  0  0  0
 19 22  1  0  0  0  0
 20 23  1  0  0  0  0
 21 20  1  0  0  0  0
 21 19  2  0  0  0  0
 23 22  2  0  0  0  0
 24 18  1  0  0  0  0
 25 24  1  0  0  0  0
 26 25  1  0  0  0  0
 27 26  1  0  0  0  0
 29 27  1  0  0  0  0
 29 28  2  0  0  0  0
 30 29  1  0  0  0  0
M  END
>  <MODEL>
4

>  <REMARK>
 VINA RESULT:      -6.2      6.180      8.768
  Name = 
  6 active torsions:
  status: ('A' for Active; 'I' for Inactive)
    1  A    between atoms: C_4  and  N_13
    2  A    between atoms: N_7  and  C_16
    3  A    between atoms: C_8  and  C_12
    4  A    between atoms: N_13  and  C_27
    5  A    between atoms: C_16  and  C_30
    6  A    between atoms: C_27  and  C_30
                            x       y       z     vdW  Elec       q    Type
                         _______ _______ _______ _____ _____    ______ ____

>  <TORSDO>
F 6

$$$$
=
 OpenBabel11052412333D

 30 33  0  0  1  0  0  0  0  0999 V2000
  182.4450  179.1340  142.9660 C   0  0  0  0  0  3  0  0  0  0  0  0
  183.3030  179.0630  144.2150 C   0  0  2  0  0  3  0  0  0  0  0  0
  185.9360  178.1420  139.6610 C   0  0  0  0  0  2  0  0  0  0  0  0
  182.4070  178.9700  140.4300 C   0  0  0  0  0  0  0  0  0  0  0  0
  185.8570  178.3790  138.1460 C   0  0  0  0  0  2  0  0  0  0  0  0
  184.7780  178.7340  143.9790 C   0  0  0  0  0  0  0  0  0  0  0  0
  182.7510  178.1510  145.0960 F   0  0  0  0  0  0  0  0  0  0  0  0
  184.6550  178.5610  140.3080 C   0  0  0  0  0  0  0  0  0  0  0  0
  185.6880  178.6360  145.1510 C   0  0  0  0  0  1  0  0  0  0  0  0
  182.9980  178.9640  141.7690 C   0  0  0  0  0  0  0  0  0  0  0  0
  183.3970  178.7000  139.5720 C   0  0  0  0  0  0  0  0  0  0  0  0
  184.5580  177.8120  137.5560 C   0  0  0  0  0  2  0  0  0  0  0  0
  183.3240  178.5620  138.0830 C   0  0  0  0  0  2  0  0  0  0  0  0
  185.2950  178.5730  142.7520 C   0  0  0  0  0  3  0  0  0  0  0  0
  184.4030  178.7000  141.6010 C   0  0  0  0  0  0  0  0  0  0  0  0
  178.9310  178.0970  140.2760 O   0  0  0  0  0  0  0  0  0  0  0  0
  180.1340  178.0170  139.9040 C   0  0  0  0  0  0  0  0  0  0  0  0
  181.0140  179.1370  140.1080 N   0  0  0  0  0  0  0  0  0  0  0  0
  181.0170  175.7580  139.8630 N   0  0  0  0  0  0  0  0  0  0  0  0
  180.5830  176.6170  137.8140 N   0  0  0  0  0  2  0  0  0  0  0  0
  180.5930  176.7920  139.2250 C   0  0  0  0  0  0  0  0  0  0  0  0
  181.3540  174.7680  138.9380 N   0  0  0  0  0  0  0  0  0  0  0  0
  181.0950  175.2720  137.5970 C   0  0  0  0  0  3  0  0  0  0  0  0
  180.4690  180.4870  140.0350 C   0  0  0  0  0  2  0  0  0  0  0  0
  180.3400  180.9210  138.5840 C   0  0  0  0  0  2  0  0  0  0  0  0
  181.3710  181.9870  138.2630 C   0  0  0  0  0  2  0  0  0  0  0  0
  180.8950  182.8240  137.1730 N   0  0  0  0  0  2  0  0  0  0  0  0
  182.3430  184.5920  137.6560 O   0  0  0  0  0  0  0  0  0  0  0  0
  181.4300  184.1230  136.9260 C   0  0  0  0  0  0  0  0  0  0  0  0
  180.9020  184.9330  135.7980 C   0  0  0  0  0  1  0  0  0  0  0  0
  1  2  1  0  0  0  0
  2  7  1  1  0  0  0
  3  8  1  0  0  0  0
  4 10  1  0  0  0  0
  5  3  1  0  0  0  0
  6  2  1  0  0  0  0
  6  9  1  0  0  0  0
  8 15  2  0  0  0  0
 10  1  2  0  0  0  0
 11  8  1  0  0  0  0
 11  4  2  0  0  0  0
 12 13  1  0  0  0  0
 12  5  1  0  0  0  0
 13 11  1  0  0  0  0
 14  6  2  0  0  0  0
 15 10  1  0  0  0  0
 15 14  1  0  0  0  0
 17 18  1  0  0  0  0
 17 16  2  0  0  0  0
 18  4  1  0  0  0  0
 20 21  1  0  0  0  0
 21 19  2  0  0  0  0
 21 17  1  0  0  0  0
 22 19  1  0  0  0  0
 23 20  1  0  0  0  0
 23 22  2  0  0  0  0
 24 18  1  0  0  0  0
 25 24  1  0  0  0  0
 26 25  1  0  0  0  0
 27 26  1  0  0  0  0
 29 27  1  0  0  0  0
 29 28  2  0  0  0  0
 30 29  1  0  0  0  0
M  END
>  <MODEL>
5

>  <REMARK>
 VINA RESULT:      -6.2      1.960      3.357
  Name = 
  6 active torsions:
  status: ('A' for Active; 'I' for Inactive)
    1  A    between atoms: C_4  and  N_13
    2  A    between atoms: N_7  and  C_16
    3  A    between atoms: C_8  and  C_12
    4  A    between atoms: N_13  and  C_27
    5  A    between atoms: C_16  and  C_30
    6  A    between atoms: C_27  and  C_30
                            x       y       z     vdW  Elec       q    Type
                         _______ _______ _______ _____ _____    ______ ____

>  <TORSDO>
F 6

$$$$
=
 OpenBabel11052412333D

 30 33  0  0  1  0  0  0  0  0999 V2000
  189.1470  176.9620  145.0660 C   0  0  0  0  0  3  0  0  0  0  0  0
  189.2100  176.9120  146.5810 C   0  0  2  0  0  3  0  0  0  0  0  0
  184.6200  178.8040  144.6130 C   0  0  0  0  0  2  0  0  0  0  0  0
  187.7230  177.5300  143.0390 C   0  0  0  0  0  0  0  0  0  0  0  0
  183.7550  178.8090  143.3450 C   0  0  0  0  0  2  0  0  0  0  0  0
  187.9600  177.4130  147.3050 C   0  0  0  0  0  0  0  0  0  0  0  0
  190.3210  177.6130  147.0150 F   0  0  0  0  0  0  0  0  0  0  0  0
  185.9410  178.1650  144.3260 C   0  0  0  0  0  0  0  0  0  0  0  0
  187.9410  177.4070  148.7920 C   0  0  0  0  0  1  0  0  0  0  0  0
  188.0390  177.3750  144.4600 C   0  0  0  0  0  0  0  0  0  0  0  0
  186.4840  178.0280  142.9730 C   0  0  0  0  0  0  0  0  0  0  0  0
  184.5390  179.3370  142.1340 C   0  0  0  0  0  2  0  0  0  0  0  0
  185.6940  178.3980  141.7550 C   0  0  0  0  0  2  0  0  0  0  0  0
  186.8610  177.8190  146.6530 C   0  0  0  0  0  3  0  0  0  0  0  0
  186.8720  177.7960  145.1920 C   0  0  0  0  0  0  0  0  0  0  0  0
  190.6730  176.3430  141.3760 O   0  0  0  0  0  0  0  0  0  0  0  0
  190.0330  177.1530  142.1020 C   0  0  0  0  0  0  0  0  0  0  0  0
  188.6100  177.2850  141.9310 N   0  0  0  0  0  0  0  0  0  0  0  0
  191.7410  177.5210  143.7850 N   0  0  0  0  0  0  0  0  0  0  0  0
  190.5100  179.3580  143.3010 N   0  0  0  0  0  2  0  0  0  0  0  0
  190.7710  177.9780  143.0750 C   0  0  0  0  0  0  0  0  0  0  0  0
  192.2360  178.5520  144.5850 N   0  0  0  0  0  0  0  0  0  0  0  0
  191.4750  179.7620  144.3140 C   0  0  0  0  0  3  0  0  0  0  0  0
  188.0380  177.1160  140.6010 C   0  0  0  0  0  2  0  0  0  0  0  0
  188.5700  178.1890  139.6640 C   0  0  0  0  0  2  0  0  0  0  0  0
  187.8950  178.0800  138.3090 C   0  0  0  0  0  2  0  0  0  0  0  0
  186.4980  178.4720  138.4200 N   0  0  0  0  0  2  0  0  0  0  0  0
  185.6930  176.5950  137.2860 O   0  0  0  0  0  0  0  0  0  0  0  0
  185.4430  177.6770  137.8820 C   0  0  0  0  0  0  0  0  0  0  0  0
  184.0350  178.1290  138.0260 C   0  0  0  0  0  1  0  0  0  0  0  0
  1  2  1  0  0  0  0
  2  7  1  1  0  0  0
  2  6  1  0  0  0  0
  4 10  1  0  0  0  0
  5  3  1  0  0  0  0
  6  9  1  0  0  0  0
  8  3  1  0  0  0  0
  8 15  2  0  0  0  0
 10  1  2  0  0  0  0
 10 15  1  0  0  0  0
 11  4  2  0  0  0  0
 11  8  1  0  0  0  0
 12  5  1  0  0  0  0
 13 12  1  0  0  0  0
 13 11  1  0  0  0  0
 14  6  2  0  0  0  0
 15 14  1  0  0  0  0
 16 17  2  0  0  0  0
 17 21  1  0  0  0  0
 18 17  1  0  0  0  0
 18  4  1  0  0  0  0
 19 22  1  0  0  0  0
 20 23  1  0  0  0  0
 21 20  1  0  0  0  0
 21 19  2  0  0  0  0
 23 22  2  0  0  0  0
 24 18  1  0  0  0  0
 25 24  1  0  0  0  0
 26 27  1  0  0  0  0
 26 25  1  0  0  0  0
 28 29  2  0  0  0  0
 29 30  1  0  0  0  0
 29 27  1  0  0  0  0
M  END
>  <MODEL>
6

>  <REMARK>
 VINA RESULT:      -6.2      5.051      7.806
  Name = 
  6 active torsions:
  status: ('A' for Active; 'I' for Inactive)
    1  A    between atoms: C_4  and  N_13
    2  A    between atoms: N_7  and  C_16
    3  A    between atoms: C_8  and  C_12
    4  A    between atoms: N_13  and  C_27
    5  A    between atoms: C_16  and  C_30
    6  A    between atoms: C_27  and  C_30
                            x       y       z     vdW  Elec       q    Type
                         _______ _______ _______ _____ _____    ______ ____

>  <TORSDO>
F 6

$$$$
=
 OpenBabel11052412333D

 30 33  0  0  1  0  0  0  0  0999 V2000
  184.6500  177.9300  141.9820 C   0  0  0  0  0  3  0  0  0  0  0  0
  185.4840  178.1790  143.2250 C   0  0  2  0  0  3  0  0  0  0  0  0
  180.3350  179.5190  143.7000 C   0  0  0  0  0  2  0  0  0  0  0  0
  182.3320  178.0500  140.9460 C   0  0  0  0  0  0  0  0  0  0  0  0
  178.9520  179.2510  143.0920 C   0  0  0  0  0  2  0  0  0  0  0  0
  184.7260  178.7770  144.4110 C   0  0  0  0  0  0  0  0  0  0  0  0
  186.5610  178.9820  142.8970 F   0  0  0  0  0  0  0  0  0  0  0  0
  181.3930  178.8740  142.8630 C   0  0  0  0  0  0  0  0  0  0  0  0
  185.4700  179.0620  145.6670 C   0  0  0  0  0  1  0  0  0  0  0  0
  183.3460  178.1850  141.9930 C   0  0  0  0  0  0  0  0  0  0  0  0
  181.1810  178.4900  141.4660 C   0  0  0  0  0  0  0  0  0  0  0  0
  178.9330  179.5540  141.5860 C   0  0  0  0  0  2  0  0  0  0  0  0
  179.8410  178.5930  140.8050 C   0  0  0  0  0  2  0  0  0  0  0  0
  183.4070  179.0160  144.3810 C   0  0  0  0  0  3  0  0  0  0  0  0
  182.6740  178.7080  143.1550 C   0  0  0  0  0  0  0  0  0  0  0  0
  183.8130  178.0700  137.6790 O   0  0  0  0  0  0  0  0  0  0  0  0
  183.0360  178.5100  138.5700 C   0  0  0  0  0  0  0  0  0  0  0  0
  182.5510  177.6180  139.5900 N   0  0  0  0  0  0  0  0  0  0  0  0
  183.3490  180.8910  138.9160 N   0  0  0  0  0  0  0  0  0  0  0  0
  181.3590  180.3470  137.9840 N   0  0  0  0  0  2  0  0  0  0  0  0
  182.6080  179.9190  138.5130 C   0  0  0  0  0  0  0  0  0  0  0  0
  182.6660  182.0910  138.7090 N   0  0  0  0  0  0  0  0  0  0  0  0
  181.3720  181.7970  138.1110 C   0  0  0  0  0  3  0  0  0  0  0  0
  182.3210  176.2180  139.2550 C   0  0  0  0  0  2  0  0  0  0  0  0
  181.0740  176.0850  138.3960 C   0  0  0  0  0  2  0  0  0  0  0  0
  180.6350  174.6340  138.3340 C   0  0  0  0  0  2  0  0  0  0  0  0
  181.4910  173.8980  137.4160 N   0  0  0  0  0  2  0  0  0  0  0  0
  180.4640  171.8390  137.8240 O   0  0  0  0  0  0  0  0  0  0  0  0
  181.3480  172.4930  137.2090 C   0  0  0  0  0  0  0  0  0  0  0  0
  182.2520  171.7950  136.2590 C   0  0  0  0  0  1  0  0  0  0  0  0
  1 10  2  0  0  0  0
  1  2  1  0  0  0  0
  2  7  1  6  0  0  0
  2  6  1  0  0  0  0
  4 11  2  0  0  0  0
  4 10  1  0  0  0  0
  5  3  1  0  0  0  0
  6  9  1  0  0  0  0
  8 15  2  0  0  0  0
  8  3  1  0  0  0  0
 10 15  1  0  0  0  0
 11  8  1  0  0  0  0
 12  5  1  0  0  0  0
 13 11  1  0  0  0  0
 13 12  1  0  0  0  0
 14  6  2  0  0  0  0
 15 14  1  0  0  0  0
 16 17  2  0  0  0  0
 17 18  1  0  0  0  0
 18  4  1  0  0  0  0
 20 23  1  0  0  0  0
 20 21  1  0  0  0  0
 21 17  1  0  0  0  0
 21 19  2  0  0  0  0
 22 19  1  0  0  0  0
 23 22  2  0  0  0  0
 24 18  1  0  0  0  0
 25 24  1  0  0  0  0
 26 25  1  0  0  0  0
 27 26  1  0  0  0  0
 29 27  1  0  0  0  0
 29 28  2  0  0  0  0
 30 29  1  0  0  0  0
M  END
>  <MODEL>
7

>  <REMARK>
 VINA RESULT:      -6.1      2.213      5.588
  Name = 
  6 active torsions:
  status: ('A' for Active; 'I' for Inactive)
    1  A    between atoms: C_4  and  N_13
    2  A    between atoms: N_7  and  C_16
    3  A    between atoms: C_8  and  C_12
    4  A    between atoms: N_13  and  C_27
    5  A    between atoms: C_16  and  C_30
    6  A    between atoms: C_27  and  C_30
                            x       y       z     vdW  Elec       q    Type
                         _______ _______ _______ _____ _____    ______ ____

>  <TORSDO>
F 6

$$$$
=
 OpenBabel11052412333D

 30 33  0  0  1  0  0  0  0  0999 V2000
  182.8010  179.0580  142.2780 C   0  0  0  0  0  3  0  0  0  0  0  0
  182.9400  178.9980  143.7880 C   0  0  2  0  0  3  0  0  0  0  0  0
  187.4960  178.2280  141.1090 C   0  0  0  0  0  2  0  0  0  0  0  0
  184.0150  178.9270  140.0490 C   0  0  0  0  0  0  0  0  0  0  0  0
  188.1610  178.4830  139.7500 C   0  0  0  0  0  2  0  0  0  0  0  0
  184.3530  178.7230  144.3050 C   0  0  0  0  0  0  0  0  0  0  0  0
  182.0600  178.0560  144.2890 F   0  0  0  0  0  0  0  0  0  0  0  0
  186.0480  178.5960  141.0450 C   0  0  0  0  0  0  0  0  0  0  0  0
  184.5760  178.6390  145.7730 C   0  0  0  0  0  1  0  0  0  0  0  0
  183.8750  178.9230  141.5060 C   0  0  0  0  0  0  0  0  0  0  0  0
  185.3070  178.7020  139.7870 C   0  0  0  0  0  0  0  0  0  0  0  0
  187.3380  177.8820  138.6020 C   0  0  0  0  0  2  0  0  0  0  0  0
  185.9780  178.5810  138.4530 C   0  0  0  0  0  2  0  0  0  0  0  0
  185.4090  178.5960  143.4890 C   0  0  0  0  0  3  0  0  0  0  0  0
  185.1910  178.7080  142.0480 C   0  0  0  0  0  0  0  0  0  0  0  0
  181.0590  177.9660  138.2580 O   0  0  0  0  0  0  0  0  0  0  0  0
  182.2920  177.9040  138.5200 C   0  0  0  0  0  0  0  0  0  0  0  0
  182.9530  179.0510  139.0850 N   0  0  0  0  0  0  0  0  0  0  0  0
  182.9980  175.6210  138.9360 N   0  0  0  0  0  0  0  0  0  0  0  0
  183.8230  176.5100  137.0240 N   0  0  0  0  0  2  0  0  0  0  0  0
  183.0320  176.6720  138.1950 C   0  0  0  0  0  0  0  0  0  0  0  0
  183.7820  174.6300  138.3440 N   0  0  0  0  0  0  0  0  0  0  0  0
  184.3420  175.1520  137.1060 C   0  0  0  0  0  3  0  0  0  0  0  0
  182.5020  180.3850  138.7080 C   0  0  0  0  0  2  0  0  0  0  0  0
  181.2820  180.7740  139.5270 C   0  0  0  0  0  2  0  0  0  0  0  0
  180.3160  181.5780  138.6750 C   0  0  0  0  0  2  0  0  0  0  0  0
  181.0260  182.6630  138.0150 N   0  0  0  0  0  2  0  0  0  0  0  0
  179.2020  183.2960  136.6980 O   0  0  0  0  0  0  0  0  0  0  0  0
  180.4030  183.4870  137.0310 C   0  0  0  0  0  0  0  0  0  0  0  0
  181.1780  184.5800  136.3900 C   0  0  0  0  0  1  0  0  0  0  0  0
  1  2  1  0  0  0  0
  2  7  1  6  0  0  0
  2  6  1  0  0  0  0
  4 10  1  0  0  0  0
  5  3  1  0  0  0  0
  6  9  1  0  0  0  0
  8  3  1  0  0  0  0
  8 15  2  0  0  0  0
 10 15  1  0  0  0  0
 10  1  2  0  0  0  0
 11  4  2  0  0  0  0
 11  8  1  0  0  0  0
 12  5  1  0  0  0  0
 13 12  1  0  0  0  0
 13 11  1  0  0  0  0
 14  6  2  0  0  0  0
 15 14  1  0  0  0  0
 16 17  2  0  0  0  0
 17 18  1  0  0  0  0
 18  4  1  0  0  0  0
 20 23  1  0  0  0  0
 20 21  1  0  0  0  0
 21 17  1  0  0  0  0
 21 19  2  0  0  0  0
 22 19  1  0  0  0  0
 23 22  2  0  0  0  0
 24 18  1  0  0  0  0
 24 25  1  0  0  0  0
 26 25  1  0  0  0  0
 27 26  1  0  0  0  0
 28 29  2  0  0  0  0
 29 27  1  0  0  0  0
 30 29  1  0  0  0  0
M  END
>  <MODEL>
8

>  <REMARK>
 VINA RESULT:      -6.1      1.966      3.749
  Name = 
  6 active torsions:
  status: ('A' for Active; 'I' for Inactive)
    1  A    between atoms: C_4  and  N_13
    2  A    between atoms: N_7  and  C_16
    3  A    between atoms: C_8  and  C_12
    4  A    between atoms: N_13  and  C_27
    5  A    between atoms: C_16  and  C_30
    6  A    between atoms: C_27  and  C_30
                            x       y       z     vdW  Elec       q    Type
                         _______ _______ _______ _____ _____    ______ ____

>  <TORSDO>
F 6

$$$$
=
 OpenBabel11052412333D

 30 33  0  0  1  0  0  0  0  0999 V2000
  181.9760  175.7680  138.9590 C   0  0  0  0  0  3  0  0  0  0  0  0
  181.0160  174.7490  138.3730 C   0  0  0  0  0  0  0  0  0  0  0  0
  180.0400  179.8000  136.9370 C   0  0  0  0  0  2  0  0  0  0  0  0
  182.6300  178.2210  139.0650 C   0  0  0  0  0  0  0  0  0  0  0  0
  180.7070  181.1780  136.8220 C   0  0  0  0  0  2  0  0  0  0  0  0
  179.9210  175.3240  137.4720 C   0  0  0  0  0  0  0  0  0  0  0  0
  180.4480  174.0150  139.3980 F   0  0  0  0  0  0  0  0  0  0  0  0
  180.9570  178.8480  137.6350 C   0  0  0  0  0  0  0  0  0  0  0  0
  178.9320  174.3960  136.8640 C   0  0  0  0  0  1  0  0  0  0  0  0
  181.8590  177.0530  138.6390 C   0  0  2  0  0  3  0  0  0  0  0  0
  182.0660  179.2860  138.4860 C   0  0  0  0  0  0  0  0  0  0  0  0
  181.2920  181.6320  138.1680 C   0  0  0  0  0  2  0  0  0  0  0  0
  182.4510  180.7280  138.6130 C   0  0  0  0  0  2  0  0  0  0  0  0
  179.8420  176.6290  137.1730 C   0  0  0  0  0  3  0  0  0  0  0  0
  180.8340  177.5350  137.7500 C   0  0  0  0  0  0  0  0  0  0  0  0
  185.7830  179.2390  140.4410 O   0  0  0  0  0  0  0  0  0  0  0  0
  185.0580  178.6120  139.6210 C   0  0  0  0  0  0  0  0  0  0  0  0
  183.7220  178.2340  140.0030 N   0  0  0  0  0  0  0  0  0  0  0  0
  186.5340  178.9250  137.7220 N   0  0  0  0  0  0  0  0  0  0  0  0
  185.2260  177.0820  137.5810 N   0  0  0  0  0  0  0  0  0  0  0  0
  185.6170  178.2400  138.3090 C   0  0  0  0  0  0  0  0  0  0  0  0
  186.8560  178.3010  136.5160 N   0  0  0  0  0  2  0  0  0  0  0  0
  186.0380  177.1060  136.3730 C   0  0  0  0  0  3  0  0  0  0  0  0
  183.4530  177.9000  141.3960 C   0  0  0  0  0  2  0  0  0  0  0  0
  182.4430  178.8750  141.9810 C   0  0  0  0  0  2  0  0  0  0  0  0
  182.7540  179.1340  143.4430 C   0  0  0  0  0  2  0  0  0  0  0  0
  184.1070  178.6930  143.7460 N   0  0  0  0  0  2  0  0  0  0  0  0
  183.8830  178.9940  146.0520 O   0  0  0  0  0  0  0  0  0  0  0  0
  184.6080  178.6480  145.0810 C   0  0  0  0  0  0  0  0  0  0  0  0
  186.0000  178.1900  145.3280 C   0  0  0  0  0  1  0  0  0  0  0  0
  2  1  2  0  0  0  0
  2  7  1  0  0  0  0
  3  8  1  0  0  0  0
  4 18  1  0  0  0  0
  5  3  1  0  0  0  0
  5 12  1  0  0  0  0
  6  2  1  0  0  0  0
  8 15  2  0  0  0  0
  8 11  1  0  0  0  0
  9  6  1  0  0  0  0
 10  1  1  1  0  0  0
 10  4  1  0  0  0  0
 11 13  1  0  0  0  0
 11  4  2  0  0  0  0
 12 13  1  0  0  0  0
 14  6  2  0  0  0  0
 14 15  1  0  0  0  0
 15 10  1  0  0  0  0
 17 18  1  0  0  0  0
 17 16  2  0  0  0  0
 18 24  1  0  0  0  0
 19 21  2  0  0  0  0
 20 21  1  0  0  0  0
 21 17  1  0  0  0  0
 22 19  1  0  0  0  0
 23 22  1  0  0  0  0
 23 20  2  0  0  0  0
 24 25  1  0  0  0  0
 25 26  1  0  0  0  0
 26 27  1  0  0  0  0
 27 29  1  0  0  0  0
 29 30  1  0  0  0  0
 29 28  2  0  0  0  0
M  END
>  <MODEL>
9

>  <REMARK>
 VINA RESULT:      -6.0      3.459      6.754
  Name = 
  6 active torsions:
  status: ('A' for Active; 'I' for Inactive)
    1  A    between atoms: C_4  and  N_13
    2  A    between atoms: N_7  and  C_16
    3  A    between atoms: C_8  and  C_12
    4  A    between atoms: N_13  and  C_27
    5  A    between atoms: C_16  and  C_30
    6  A    between atoms: C_27  and  C_30
                            x       y       z     vdW  Elec       q    Type
                         _______ _______ _______ _____ _____    ______ ____

>  <TORSDO>
F 6

$$$$
