=
 OpenBabel11052413213D

 28 32  0  0  1  0  0  0  0  0999 V2000
  183.9270  178.3670  142.2630 C   0  0  0  0  0  0  0  0  0  0  0  0
  185.5530  178.6020  146.9600 C   0  0  0  0  0  1  0  0  0  0  0  0
  187.2300  177.6760  143.7030 C   0  0  0  0  0  0  0  0  0  0  0  0
  184.7040  178.4930  144.5760 C   0  0  0  0  0  0  0  0  0  0  0  0
  186.2000  177.8260  142.8230 N   0  0  0  0  0  0  0  0  0  0  0  0
  182.4020  179.0400  144.0330 C   0  0  0  0  0  3  0  0  0  0  0  0
  185.7480  178.3400  145.5040 C   0  0  0  0  0  0  0  0  0  0  0  0
  183.4230  178.9000  144.9750 C   0  0  0  0  0  3  0  0  0  0  0  0
  187.0050  177.9290  145.0630 C   0  0  0  0  0  3  0  0  0  0  0  0
  182.6520  178.7740  142.6850 C   0  0  0  0  0  3  0  0  0  0  0  0
  184.9580  178.2240  143.2110 C   0  0  0  0  0  0  0  0  0  0  0  0
  188.9180  175.9560  143.4920 C   0  0  0  0  0  3  0  0  0  0  0  0
  190.7700  178.1980  142.5540 C   0  0  0  0  0  3  0  0  0  0  0  0
  191.3620  176.0470  143.6550 C   0  0  0  0  0  0  0  0  0  0  0  0
  188.5590  177.2190  143.2220 C   0  0  0  0  0  0  0  0  0  0  0  0
  188.8350  179.0490  141.5730 O   0  0  0  0  0  1  0  0  0  0  0  0
  191.6280  177.3220  143.3740 C   0  0  0  0  0  3  0  0  0  0  0  0
  189.4340  178.1440  142.4400 C   0  0  0  0  0  0  0  0  0  0  0  0
  192.2220  175.3490  144.4350 F   0  0  0  0  0  0  0  0  0  0  0  0
  190.1990  175.3370  143.0460 C   0  0  0  0  0  2  0  0  0  0  0  0
  184.1840  178.0760  140.8110 C   0  0  2  0  0  3  0  0  0  0  0  0
  184.9810  179.2090  140.1480 C   0  0  0  0  0  2  0  0  0  0  0  0
  183.0140  178.0130  138.5570 C   0  0  1  0  0  3  0  0  0  0  0  0
  184.1200  180.0360  139.4090 O   0  0  0  0  0  0  0  0  0  0  0  0
  182.4690  176.4760  140.3070 O   0  0  0  0  0  1  0  0  0  0  0  0
  182.8720  177.7880  140.0650 C   0  0  1  0  0  3  0  0  0  0  0  0
  182.2580  179.2580  138.1390 C   0  0  0  0  0  2  0  0  0  0  0  0
  183.7690  179.3190  138.2460 C   0  0  2  0  0  3  0  0  0  0  0  0
  1 10  2  0  0  0  0
  1 11  1  0  0  0  0
  3  9  1  0  0  0  0
  4  8  1  0  0  0  0
  4  7  1  0  0  0  0
  5 11  1  0  0  0  0
  5  3  2  0  0  0  0
  6  8  2  0  0  0  0
  7  2  1  0  0  0  0
  9  7  2  0  0  0  0
 10  6  1  0  0  0  0
 11  4  2  0  0  0  0
 13 17  1  0  0  0  0
 14 19  1  0  0  0  0
 15 12  2  0  0  0  0
 15  3  1  0  0  0  0
 16 18  1  0  0  0  0
 17 14  2  0  0  0  0
 18 13  2  0  0  0  0
 18 15  1  0  0  0  0
 20 12  1  0  0  0  0
 20 14  1  0  0  0  0
 21  1  1  1  0  0  0
 22 21  1  0  0  0  0
 23 27  1  6  0  0  0
 23 26  1  0  0  0  0
 24 22  1  0  0  0  0
 26 25  1  6  0  0  0
 26 21  1  0  0  0  0
 28 27  1  6  0  0  0
 28 23  1  0  0  0  0
 28 24  1  0  0  0  0
M  END
>  <MODEL>
1

>  <REMARK>
 VINA RESULT:      -9.9      0.000      0.000
  Name = 
  2 active torsions:
  status: ('A' for Active; 'I' for Inactive)
    1  A    between atoms: C_1  and  C_2
    2  A    between atoms: C_10  and  C_13
                            x       y       z     vdW  Elec       q    Type
                         _______ _______ _______ _____ _____    ______ ____

>  <TORSDO>
F 2

$$$$
=
 OpenBabel11052413213D

 28 32  0  0  1  0  0  0  0  0999 V2000
  186.9610  177.6670  143.7300 C   0  0  0  0  0  0  0  0  0  0  0  0
  182.3870  179.3730  144.6910 C   0  0  0  0  0  1  0  0  0  0  0  0
  184.0390  178.0740  141.5500 C   0  0  0  0  0  0  0  0  0  0  0  0
  184.7210  178.5050  144.2260 C   0  0  0  0  0  0  0  0  0  0  0  0
  185.2900  177.7870  142.0080 N   0  0  0  0  0  0  0  0  0  0  0  0
  186.3960  178.3970  145.9790 C   0  0  0  0  0  3  0  0  0  0  0  0
  183.4260  178.8140  143.7770 C   0  0  0  0  0  0  0  0  0  0  0  0
  185.1010  178.7080  145.5600 C   0  0  0  0  0  3  0  0  0  0  0  0
  183.0920  178.6000  142.4400 C   0  0  0  0  0  3  0  0  0  0  0  0
  187.3210  177.8800  145.0690 C   0  0  0  0  0  3  0  0  0  0  0  0
  185.6570  177.9820  143.3050 C   0  0  0  0  0  0  0  0  0  0  0  0
  182.7650  176.9450  139.8310 C   0  0  0  0  0  3  0  0  0  0  0  0
  184.7430  178.1870  137.8600 C   0  0  0  0  0  3  0  0  0  0  0  0
  183.4070  176.1020  137.6210 C   0  0  0  0  0  0  0  0  0  0  0  0
  183.7030  177.8590  140.1190 C   0  0  0  0  0  0  0  0  0  0  0  0
  184.7020  179.9880  139.3380 O   0  0  0  0  0  1  0  0  0  0  0  0
  184.4760  176.8380  137.3240 C   0  0  0  0  0  3  0  0  0  0  0  0
  184.3780  178.6660  139.0590 C   0  0  0  0  0  0  0  0  0  0  0  0
  183.2820  174.8680  137.0760 F   0  0  0  0  0  0  0  0  0  0  0  0
  182.2900  176.6410  138.4510 C   0  0  0  0  0  2  0  0  0  0  0  0
  187.9670  177.1190  142.7560 C   0  0  2  0  0  3  0  0  0  0  0  0
  188.6840  175.8890  143.3310 C   0  0  0  0  0  2  0  0  0  0  0  0
  190.2630  177.6040  141.7830 C   0  0  1  0  0  3  0  0  0  0  0  0
  189.9540  176.2500  143.8100 O   0  0  0  0  0  0  0  0  0  0  0  0
  188.3790  179.0100  141.3390 O   0  0  0  0  0  1  0  0  0  0  0  0
  188.9600  178.2060  142.3180 C   0  0  1  0  0  3  0  0  0  0  0  0
  191.3920  177.8390  142.7650 C   0  0  0  0  0  2  0  0  0  0  0  0
  190.7700  176.4590  142.6790 C   0  0  2  0  0  3  0  0  0  0  0  0
  1 10  1  0  0  0  0
  3  5  2  0  0  0  0
  3  9  1  0  0  0  0
  4  8  2  0  0  0  0
  5 11  1  0  0  0  0
  7  4  1  0  0  0  0
  7  2  1  0  0  0  0
  8  6  1  0  0  0  0
  9  7  2  0  0  0  0
 10  6  2  0  0  0  0
 11  1  2  0  0  0  0
 11  4  1  0  0  0  0
 12 15  2  0  0  0  0
 13 18  2  0  0  0  0
 14 20  1  0  0  0  0
 15  3  1  0  0  0  0
 17 14  2  0  0  0  0
 17 13  1  0  0  0  0
 18 16  1  0  0  0  0
 18 15  1  0  0  0  0
 19 14  1  0  0  0  0
 20 12  1  0  0  0  0
 21 22  1  0  0  0  0
 21  1  1  1  0  0  0
 22 24  1  0  0  0  0
 23 26  1  0  0  0  0
 23 28  1  0  0  0  0
 23 27  1  1  0  0  0
 26 25  1  6  0  0  0
 26 21  1  0  0  0  0
 28 27  1  1  0  0  0
 28 24  1  0  0  0  0
M  END
>  <MODEL>
2

>  <REMARK>
 VINA RESULT:      -9.6      2.526      6.526
  Name = 
  2 active torsions:
  status: ('A' for Active; 'I' for Inactive)
    1  A    between atoms: C_1  and  C_2
    2  A    between atoms: C_10  and  C_13
                            x       y       z     vdW  Elec       q    Type
                         _______ _______ _______ _____ _____    ______ ____

>  <TORSDO>
F 2

$$$$
=
 OpenBabel11052413213D

 28 32  0  0  1  0  0  0  0  0999 V2000
  187.6800  177.8840  144.2860 C   0  0  0  0  0  0  0  0  0  0  0  0
  182.8620  178.8770  145.0300 C   0  0  0  0  0  1  0  0  0  0  0  0
  184.9800  178.6130  141.9120 C   0  0  0  0  0  0  0  0  0  0  0  0
  185.3170  178.3660  144.6750 C   0  0  0  0  0  0  0  0  0  0  0  0
  186.1990  178.3200  142.4450 N   0  0  0  0  0  0  0  0  0  0  0  0
  186.7960  177.9320  146.5500 C   0  0  0  0  0  3  0  0  0  0  0  0
  184.0500  178.6740  144.1510 C   0  0  0  0  0  0  0  0  0  0  0  0
  185.5260  178.2350  146.0550 C   0  0  0  0  0  3  0  0  0  0  0  0
  183.8880  178.7990  142.7720 C   0  0  0  0  0  3  0  0  0  0  0  0
  187.8670  177.7590  145.6710 C   0  0  0  0  0  3  0  0  0  0  0  0
  186.4010  178.1900  143.7840 C   0  0  0  0  0  0  0  0  0  0  0  0
  183.6430  179.1920  139.9800 C   0  0  0  0  0  3  0  0  0  0  0  0
  185.8560  177.8800  138.3320 C   0  0  0  0  0  3  0  0  0  0  0  0
  183.4490  178.1560  137.7670 C   0  0  0  0  0  0  0  0  0  0  0  0
  184.8260  178.7620  140.4420 C   0  0  0  0  0  0  0  0  0  0  0  0
  187.2590  178.7660  139.9680 O   0  0  0  0  0  1  0  0  0  0  0  0
  184.6050  177.5060  137.6440 C   0  0  0  0  0  3  0  0  0  0  0  0
  185.9740  178.4660  139.5330 C   0  0  0  0  0  0  0  0  0  0  0  0
  182.3630  177.7050  137.0960 F   0  0  0  0  0  0  0  0  0  0  0  0
  183.3440  179.4290  138.5390 C   0  0  0  0  0  2  0  0  0  0  0  0
  188.8410  177.7030  143.3480 C   0  0  2  0  0  3  0  0  0  0  0  0
  188.7410  176.3720  142.5890 C   0  0  0  0  0  2  0  0  0  0  0  0
  191.3220  177.1550  143.3350 C   0  0  1  0  0  3  0  0  0  0  0  0
  189.5910  175.4190  143.1730 O   0  0  0  0  0  0  0  0  0  0  0  0
  190.4800  179.1840  144.2850 O   0  0  0  0  0  1  0  0  0  0  0  0
  190.1780  177.8360  144.0930 C   0  0  1  0  0  3  0  0  0  0  0  0
  191.7520  175.8950  144.0580 C   0  0  0  0  0  2  0  0  0  0  0  0
  190.9070  175.7700  142.8070 C   0  0  2  0  0  3  0  0  0  0  0  0
  1 10  1  0  0  0  0
  3  5  2  0  0  0  0
  3  9  1  0  0  0  0
  4  8  2  0  0  0  0
  5 11  1  0  0  0  0
  7  4  1  0  0  0  0
  7  2  1  0  0  0  0
  8  6  1  0  0  0  0
  9  7  2  0  0  0  0
 10  6  2  0  0  0  0
 11  1  2  0  0  0  0
 11  4  1  0  0  0  0
 12 15  2  0  0  0  0
 13 18  2  0  0  0  0
 14 20  1  0  0  0  0
 15  3  1  0  0  0  0
 17 14  2  0  0  0  0
 17 13  1  0  0  0  0
 18 16  1  0  0  0  0
 18 15  1  0  0  0  0
 19 14  1  0  0  0  0
 20 12  1  0  0  0  0
 21 26  1  0  0  0  0
 21  1  1  1  0  0  0
 22 24  1  0  0  0  0
 22 21  1  0  0  0  0
 23 27  1  1  0  0  0
 23 26  1  0  0  0  0
 26 25  1  6  0  0  0
 28 24  1  0  0  0  0
 28 23  1  0  0  0  0
 28 27  1  1  0  0  0
M  END
>  <MODEL>
3

>  <REMARK>
 VINA RESULT:      -9.3      2.823      6.792
  Name = 
  2 active torsions:
  status: ('A' for Active; 'I' for Inactive)
    1  A    between atoms: C_1  and  C_2
    2  A    between atoms: C_10  and  C_13
                            x       y       z     vdW  Elec       q    Type
                         _______ _______ _______ _____ _____    ______ ____

>  <TORSDO>
F 2

$$$$
=
 OpenBabel11052413213D

 28 32  0  0  1  0  0  0  0  0999 V2000
  188.2870  177.2080  144.0680 C   0  0  0  0  0  0  0  0  0  0  0  0
  184.9190  178.8990  147.3170 C   0  0  0  0  0  1  0  0  0  0  0  0
  184.8480  178.3870  143.5740 C   0  0  0  0  0  0  0  0  0  0  0  0
  186.6490  178.0320  145.6820 C   0  0  0  0  0  0  0  0  0  0  0  0
  186.1020  177.9030  143.3490 N   0  0  0  0  0  0  0  0  0  0  0  0
  188.8510  177.3390  146.4280 C   0  0  0  0  0  3  0  0  0  0  0  0
  185.3630  178.5380  145.9390 C   0  0  0  0  0  0  0  0  0  0  0  0
  187.5800  177.8400  146.7120 C   0  0  0  0  0  3  0  0  0  0  0  0
  184.4700  178.7170  144.8830 C   0  0  0  0  0  3  0  0  0  0  0  0
  189.2040  177.0260  145.1140 C   0  0  0  0  0  3  0  0  0  0  0  0
  187.0040  177.7140  144.3500 C   0  0  0  0  0  0  0  0  0  0  0  0
  182.5990  178.5760  142.7010 C   0  0  0  0  0  3  0  0  0  0  0  0
  183.8890  178.3460  139.9410 C   0  0  0  0  0  3  0  0  0  0  0  0
  181.5800  177.7350  140.6370 C   0  0  0  0  0  0  0  0  0  0  0  0
  183.9140  178.5900  142.4370 C   0  0  0  0  0  0  0  0  0  0  0  0
  185.6210  179.5560  140.9220 O   0  0  0  0  0  1  0  0  0  0  0  0
  182.6290  177.5840  139.8310 C   0  0  0  0  0  3  0  0  0  0  0  0
  184.4450  178.8300  141.0610 C   0  0  0  0  0  0  0  0  0  0  0  0
  180.4830  176.9630  140.4450 F   0  0  0  0  0  0  0  0  0  0  0  0
  181.5390  178.8030  141.6790 C   0  0  0  0  0  2  0  0  0  0  0  0
  188.6780  176.8750  142.6550 C   0  0  2  0  0  3  0  0  0  0  0  0
  189.5280  175.5980  142.5980 C   0  0  0  0  0  2  0  0  0  0  0  0
  190.2460  177.6160  140.7980 C   0  0  1  0  0  3  0  0  0  0  0  0
  190.8870  175.9280  142.4640 O   0  0  0  0  0  0  0  0  0  0  0  0
  188.4430  178.9950  141.5560 O   0  0  0  0  0  1  0  0  0  0  0  0
  189.3860  178.0620  141.9840 C   0  0  1  0  0  3  0  0  0  0  0  0
  191.7160  177.7300  141.1430 C   0  0  0  0  0  2  0  0  0  0  0  0
  191.0700  176.3600  141.1340 C   0  0  2  0  0  3  0  0  0  0  0  0
  1 11  2  0  0  0  0
  1 10  1  0  0  0  0
  3  9  1  0  0  0  0
  4  7  1  0  0  0  0
  4  8  2  0  0  0  0
  5  3  2  0  0  0  0
  5 11  1  0  0  0  0
  6  8  1  0  0  0  0
  7  2  1  0  0  0  0
  9  7  2  0  0  0  0
 10  6  2  0  0  0  0
 11  4  1  0  0  0  0
 13 18  2  0  0  0  0
 14 20  1  0  0  0  0
 15 12  2  0  0  0  0
 15  3  1  0  0  0  0
 16 18  1  0  0  0  0
 17 13  1  0  0  0  0
 17 14  2  0  0  0  0
 18 15  1  0  0  0  0
 19 14  1  0  0  0  0
 20 12  1  0  0  0  0
 21  1  1  1  0  0  0
 22 21  1  0  0  0  0
 23 28  1  0  0  0  0
 23 27  1  1  0  0  0
 23 26  1  0  0  0  0
 24 22  1  0  0  0  0
 26 25  1  6  0  0  0
 26 21  1  0  0  0  0
 28 27  1  1  0  0  0
 28 24  1  0  0  0  0
M  END
>  <MODEL>
4

>  <REMARK>
 VINA RESULT:      -9.0      2.774      6.650
  Name = 
  2 active torsions:
  status: ('A' for Active; 'I' for Inactive)
    1  A    between atoms: C_1  and  C_2
    2  A    between atoms: C_10  and  C_13
                            x       y       z     vdW  Elec       q    Type
                         _______ _______ _______ _____ _____    ______ ____

>  <TORSDO>
F 2

$$$$
=
 OpenBabel11052413213D

 28 32  0  0  1  0  0  0  0  0999 V2000
  189.9690  177.7750  141.6900 C   0  0  0  0  0  0  0  0  0  0  0  0
  187.8420  177.5560  137.1970 C   0  0  0  0  0  1  0  0  0  0  0  0
  186.5590  178.5780  140.6010 C   0  0  0  0  0  0  0  0  0  0  0  0
  188.9470  177.6630  139.4740 C   0  0  0  0  0  0  0  0  0  0  0  0
  187.6690  178.3910  141.3690 N   0  0  0  0  0  0  0  0  0  0  0  0
  191.2710  177.0320  139.7760 C   0  0  0  0  0  3  0  0  0  0  0  0
  187.8150  177.8420  138.6610 C   0  0  0  0  0  0  0  0  0  0  0  0
  190.1620  177.2050  138.9460 C   0  0  0  0  0  3  0  0  0  0  0  0
  186.6250  178.2950  139.2300 C   0  0  0  0  0  3  0  0  0  0  0  0
  191.1750  177.3140  141.1400 C   0  0  0  0  0  3  0  0  0  0  0  0
  188.8490  177.9500  140.8550 C   0  0  0  0  0  0  0  0  0  0  0  0
  185.2650  179.1680  142.5580 C   0  0  0  0  0  3  0  0  0  0  0  0
  182.8420  179.1210  140.6980 C   0  0  0  0  0  3  0  0  0  0  0  0
  182.9270  178.7350  143.1540 C   0  0  0  0  0  0  0  0  0  0  0  0
  185.2930  179.0430  141.2240 C   0  0  0  0  0  0  0  0  0  0  0  0
  184.3430  179.9600  139.1260 O   0  0  0  0  0  1  0  0  0  0  0  0
  182.3510  178.5510  141.9670 C   0  0  0  0  0  3  0  0  0  0  0  0
  184.1160  179.3820  140.3690 C   0  0  0  0  0  0  0  0  0  0  0  0
  182.3900  178.1450  144.2480 F   0  0  0  0  0  0  0  0  0  0  0  0
  184.0860  179.6590  143.3270 C   0  0  0  0  0  2  0  0  0  0  0  0
  189.8730  178.0690  143.1610 C   0  0  2  0  0  3  0  0  0  0  0  0
  191.0520  178.9320  143.6340 C   0  0  0  0  0  2  0  0  0  0  0  0
  190.1810  176.9730  145.4320 C   0  0  1  0  0  3  0  0  0  0  0  0
  192.0120  178.1290  144.2730 O   0  0  0  0  0  0  0  0  0  0  0  0
  188.4390  176.3080  143.9330 O   0  0  0  0  0  1  0  0  0  0  0  0
  189.7520  176.7720  143.9760 C   0  0  1  0  0  3  0  0  0  0  0  0
  191.5040  176.2810  145.6900 C   0  0  0  0  0  2  0  0  0  0  0  0
  191.4830  177.7890  145.5340 C   0  0  2  0  0  3  0  0  0  0  0  0
  2  7  1  0  0  0  0
  3 15  1  0  0  0  0
  3  5  2  0  0  0  0
  4 11  1  0  0  0  0
  6 10  2  0  0  0  0
  7  9  2  0  0  0  0
  7  4  1  0  0  0  0
  8  4  2  0  0  0  0
  8  6  1  0  0  0  0
  9  3  1  0  0  0  0
 10  1  1  0  0  0  0
 11  5  1  0  0  0  0
 11  1  2  0  0  0  0
 12 20  1  0  0  0  0
 13 17  1  0  0  0  0
 14 20  1  0  0  0  0
 14 19  1  0  0  0  0
 15 12  2  0  0  0  0
 16 18  1  0  0  0  0
 17 14  2  0  0  0  0
 18 13  2  0  0  0  0
 18 15  1  0  0  0  0
 21  1  1  6  0  0  0
 21 22  1  0  0  0  0
 21 26  1  0  0  0  0
 22 24  1  0  0  0  0
 23 28  1  0  0  0  0
 23 27  1  6  0  0  0
 24 28  1  0  0  0  0
 26 25  1  1  0  0  0
 26 23  1  0  0  0  0
 28 27  1  6  0  0  0
M  END
>  <MODEL>
5

>  <REMARK>
 VINA RESULT:      -8.7      2.971      7.844
  Name = 
  2 active torsions:
  status: ('A' for Active; 'I' for Inactive)
    1  A    between atoms: C_1  and  C_2
    2  A    between atoms: C_10  and  C_13
                            x       y       z     vdW  Elec       q    Type
                         _______ _______ _______ _____ _____    ______ ____

>  <TORSDO>
F 2

$$$$
=
 OpenBabel11052413213D

 28 32  0  0  1  0  0  0  0  0999 V2000
  189.0540  177.4600  139.5760 C   0  0  0  0  0  0  0  0  0  0  0  0
  189.6270  177.4820  144.5190 C   0  0  0  0  0  1  0  0  0  0  0  0
  186.7300  178.3740  142.2630 C   0  0  0  0  0  0  0  0  0  0  0  0
  189.3580  177.4600  142.0000 C   0  0  0  0  0  0  0  0  0  0  0  0
  187.2690  178.1390  141.0340 N   0  0  0  0  0  0  0  0  0  0  0  0
  191.1760  176.7750  140.5460 C   0  0  0  0  0  3  0  0  0  0  0  0
  188.8270  177.7000  143.2790 C   0  0  0  0  0  0  0  0  0  0  0  0
  190.6710  177.0020  141.8270 C   0  0  0  0  0  3  0  0  0  0  0  0
  187.5160  178.1600  143.4040 C   0  0  0  0  0  3  0  0  0  0  0  0
  190.3730  177.0040  139.4260 C   0  0  0  0  0  3  0  0  0  0  0  0
  188.5440  177.6910  140.8670 C   0  0  0  0  0  0  0  0  0  0  0  0
  184.8750  179.1490  143.6100 C   0  0  0  0  0  3  0  0  0  0  0  0
  183.1990  178.8590  141.0720 C   0  0  0  0  0  3  0  0  0  0  0  0
  182.4640  178.7410  143.4460 C   0  0  0  0  0  0  0  0  0  0  0  0
  185.3390  178.8820  142.3800 C   0  0  0  0  0  0  0  0  0  0  0  0
  185.1490  179.5510  140.0010 O   0  0  0  0  0  1  0  0  0  0  0  0
  182.3070  178.4210  142.1630 C   0  0  0  0  0  3  0  0  0  0  0  0
  184.5150  179.1060  141.1550 C   0  0  0  0  0  0  0  0  0  0  0  0
  181.5860  178.2630  144.3590 F   0  0  0  0  0  0  0  0  0  0  0  0
  183.5180  179.6990  143.8910 C   0  0  0  0  0  2  0  0  0  0  0  0
  188.2000  177.7120  138.3650 C   0  0  2  0  0  3  0  0  0  0  0  0
  187.6310  176.4010  137.8030 C   0  0  0  0  0  2  0  0  0  0  0  0
  188.3680  178.3180  135.9030 C   0  0  1  0  0  3  0  0  0  0  0  0
  188.3780  175.9890  136.6870 O   0  0  0  0  0  0  0  0  0  0  0  0
  188.9880  179.8550  137.6290 O   0  0  0  0  0  1  0  0  0  0  0  0
  188.9750  178.5010  137.2980 C   0  0  1  0  0  3  0  0  0  0  0  0
  189.2780  177.4630  135.0440 C   0  0  0  0  0  2  0  0  0  0  0  0
  188.0220  176.8440  135.6230 C   0  0  2  0  0  3  0  0  0  0  0  0
  1 11  1  0  0  0  0
  3 15  1  0  0  0  0
  3  9  1  0  0  0  0
  4  7  1  0  0  0  0
  5  3  2  0  0  0  0
  6  8  2  0  0  0  0
  7  9  2  0  0  0  0
  7  2  1  0  0  0  0
  8  4  1  0  0  0  0
 10  1  2  0  0  0  0
 10  6  1  0  0  0  0
 11  5  1  0  0  0  0
 11  4  2  0  0  0  0
 12 20  1  0  0  0  0
 13 18  2  0  0  0  0
 13 17  1  0  0  0  0
 14 20  1  0  0  0  0
 14 19  1  0  0  0  0
 15 12  2  0  0  0  0
 16 18  1  0  0  0  0
 17 14  2  0  0  0  0
 18 15  1  0  0  0  0
 21  1  1  1  0  0  0
 22 21  1  0  0  0  0
 23 27  1  6  0  0  0
 23 26  1  0  0  0  0
 24 22  1  0  0  0  0
 26 25  1  1  0  0  0
 26 21  1  0  0  0  0
 28 27  1  6  0  0  0
 28 23  1  0  0  0  0
 28 24  1  0  0  0  0
M  END
>  <MODEL>
6

>  <REMARK>
 VINA RESULT:      -8.7      3.721      6.520
  Name = 
  2 active torsions:
  status: ('A' for Active; 'I' for Inactive)
    1  A    between atoms: C_1  and  C_2
    2  A    between atoms: C_10  and  C_13
                            x       y       z     vdW  Elec       q    Type
                         _______ _______ _______ _____ _____    ______ ____

>  <TORSDO>
F 2

$$$$
=
 OpenBabel11052413213D

 28 32  0  0  1  0  0  0  0  0999 V2000
  183.1770  178.4910  141.6580 C   0  0  0  0  0  0  0  0  0  0  0  0
  184.7330  178.6420  146.3810 C   0  0  0  0  0  1  0  0  0  0  0  0
  186.5440  178.2320  143.0910 C   0  0  0  0  0  0  0  0  0  0  0  0
  183.9180  178.5710  143.9840 C   0  0  0  0  0  0  0  0  0  0  0  0
  185.5060  178.2790  142.2100 N   0  0  0  0  0  0  0  0  0  0  0  0
  181.5600  178.7820  143.4490 C   0  0  0  0  0  3  0  0  0  0  0  0
  184.9700  178.5200  144.9140 C   0  0  0  0  0  0  0  0  0  0  0  0
  182.5870  178.7390  144.3930 C   0  0  0  0  0  3  0  0  0  0  0  0
  186.2790  178.3470  144.4620 C   0  0  0  0  0  3  0  0  0  0  0  0
  181.8520  178.6570  142.0900 C   0  0  0  0  0  3  0  0  0  0  0  0
  184.2150  178.4460  142.6070 C   0  0  0  0  0  0  0  0  0  0  0  0
  188.1660  178.2450  141.2950 C   0  0  0  0  0  3  0  0  0  0  0  0
  190.0050  176.7740  143.2420 C   0  0  0  0  0  3  0  0  0  0  0  0
  190.0060  176.7200  140.7550 C   0  0  0  0  0  0  0  0  0  0  0  0
  187.9310  178.0290  142.5970 C   0  0  0  0  0  0  0  0  0  0  0  0
  188.9770  178.1200  144.8430 O   0  0  0  0  0  1  0  0  0  0  0  0
  190.2740  176.1540  141.9300 C   0  0  0  0  0  3  0  0  0  0  0  0
  189.0140  177.6270  143.5440 C   0  0  0  0  0  0  0  0  0  0  0  0
  190.2850  176.0410  139.6160 F   0  0  0  0  0  0  0  0  0  0  0  0
  189.5070  178.1220  140.6560 C   0  0  0  0  0  2  0  0  0  0  0  0
  183.4810  178.3490  140.1930 C   0  0  2  0  0  3  0  0  0  0  0  0
  183.5060  179.7160  139.4950 C   0  0  0  0  0  2  0  0  0  0  0  0
  182.4240  177.6110  138.0030 C   0  0  1  0  0  3  0  0  0  0  0  0
  182.3010  179.9300  138.8070 O   0  0  0  0  0  0  0  0  0  0  0  0
  182.8790  176.0650  139.7720 O   0  0  0  0  0  1  0  0  0  0  0  0
  182.4980  177.3810  139.5160 C   0  0  1  0  0  3  0  0  0  0  0  0
  181.0960  178.2410  137.6340 C   0  0  0  0  0  2  0  0  0  0  0  0
  182.3370  179.1100  137.6600 C   0  0  2  0  0  3  0  0  0  0  0  0
  1 10  2  0  0  0  0
  1 11  1  0  0  0  0
  3  9  1  0  0  0  0
  4  8  1  0  0  0  0
  4  7  1  0  0  0  0
  5 11  1  0  0  0  0
  5  3  2  0  0  0  0
  6  8  2  0  0  0  0
  7  2  1  0  0  0  0
  9  7  2  0  0  0  0
 10  6  1  0  0  0  0
 11  4  2  0  0  0  0
 12 15  2  0  0  0  0
 13 18  2  0  0  0  0
 14 17  2  0  0  0  0
 15  3  1  0  0  0  0
 15 18  1  0  0  0  0
 17 13  1  0  0  0  0
 18 16  1  0  0  0  0
 19 14  1  0  0  0  0
 20 14  1  0  0  0  0
 20 12  1  0  0  0  0
 21  1  1  1  0  0  0
 22 21  1  0  0  0  0
 23 27  1  1  0  0  0
 23 26  1  0  0  0  0
 24 22  1  0  0  0  0
 26 25  1  6  0  0  0
 26 21  1  0  0  0  0
 28 27  1  1  0  0  0
 28 23  1  0  0  0  0
 28 24  1  0  0  0  0
M  END
>  <MODEL>
7

>  <REMARK>
 VINA RESULT:      -8.4      1.649      1.998
  Name = 
  2 active torsions:
  status: ('A' for Active; 'I' for Inactive)
    1  A    between atoms: C_1  and  C_2
    2  A    between atoms: C_10  and  C_13
                            x       y       z     vdW  Elec       q    Type
                         _______ _______ _______ _____ _____    ______ ____

>  <TORSDO>
F 2

$$$$
=
 OpenBabel11052413213D

 28 32  0  0  1  0  0  0  0  0999 V2000
  187.9420  177.8980  143.1310 C   0  0  0  0  0  0  0  0  0  0  0  0
  183.3070  178.7570  141.5410 C   0  0  0  0  0  1  0  0  0  0  0  0
  186.5850  178.2250  139.7390 C   0  0  0  0  0  0  0  0  0  0  0  0
  185.6580  178.3170  142.3740 C   0  0  0  0  0  0  0  0  0  0  0  0
  187.4380  178.0510  140.7870 N   0  0  0  0  0  0  0  0  0  0  0  0
  186.1460  178.1720  144.7470 C   0  0  0  0  0  3  0  0  0  0  0  0
  184.7590  178.5060  141.3110 C   0  0  0  0  0  0  0  0  0  0  0  0
  185.2320  178.3580  143.7090 C   0  0  0  0  0  3  0  0  0  0  0  0
  185.2270  178.4620  139.9980 C   0  0  0  0  0  3  0  0  0  0  0  0
  187.4940  177.9450  144.4600 C   0  0  0  0  0  3  0  0  0  0  0  0
  187.0220  178.0870  142.0830 C   0  0  0  0  0  0  0  0  0  0  0  0
  186.2240  177.9500  137.3620 C   0  0  0  0  0  3  0  0  0  0  0  0
  189.2680  177.8260  137.1390 C   0  0  0  0  0  3  0  0  0  0  0  0
  187.5540  176.8330  135.6340 C   0  0  0  0  0  0  0  0  0  0  0  0
  187.1010  178.1950  138.3460 C   0  0  0  0  0  0  0  0  0  0  0  0
  189.2120  179.3840  138.8700 O   0  0  0  0  0  1  0  0  0  0  0  0
  188.7790  176.8400  136.1550 C   0  0  0  0  0  3  0  0  0  0  0  0
  188.5460  178.4600  138.0750 C   0  0  0  0  0  0  0  0  0  0  0  0
  187.2180  175.8630  134.7500 F   0  0  0  0  0  0  0  0  0  0  0  0
  186.5770  177.9250  135.9140 C   0  0  0  0  0  2  0  0  0  0  0  0
  189.3960  177.6610  142.8330 C   0  0  2  0  0  3  0  0  0  0  0  0
  189.6540  176.1970  142.4480 C   0  0  0  0  0  2  0  0  0  0  0  0
  191.6500  177.4200  143.9820 C   0  0  1  0  0  3  0  0  0  0  0  0
  190.1850  175.4960  143.5430 O   0  0  0  0  0  0  0  0  0  0  0  0
  190.4490  179.4900  143.9750 O   0  0  0  0  0  1  0  0  0  0  0  0
  190.2810  178.1060  144.0080 C   0  0  1  0  0  3  0  0  0  0  0  0
  191.7470  176.4020  145.1000 C   0  0  0  0  0  2  0  0  0  0  0  0
  191.5250  175.9150  143.6820 C   0  0  2  0  0  3  0  0  0  0  0  0
  1 10  1  0  0  0  0
  3  9  1  0  0  0  0
  3  5  2  0  0  0  0
  4  8  2  0  0  0  0
  5 11  1  0  0  0  0
  7  2  1  0  0  0  0
  7  4  1  0  0  0  0
  8  6  1  0  0  0  0
  9  7  2  0  0  0  0
 10  6  2  0  0  0  0
 11  4  1  0  0  0  0
 11  1  2  0  0  0  0
 12 15  2  0  0  0  0
 13 18  2  0  0  0  0
 14 20  1  0  0  0  0
 14 17  2  0  0  0  0
 15  3  1  0  0  0  0
 17 13  1  0  0  0  0
 18 15  1  0  0  0  0
 18 16  1  0  0  0  0
 19 14  1  0  0  0  0
 20 12  1  0  0  0  0
 21  1  1  1  0  0  0
 21 26  1  0  0  0  0
 22 21  1  0  0  0  0
 22 24  1  0  0  0  0
 23 26  1  0  0  0  0
 23 27  1  1  0  0  0
 24 28  1  0  0  0  0
 26 25  1  6  0  0  0
 28 23  1  0  0  0  0
 28 27  1  1  0  0  0
M  END
>  <MODEL>
8

>  <REMARK>
 VINA RESULT:      -8.1      3.383      6.804
  Name = 
  2 active torsions:
  status: ('A' for Active; 'I' for Inactive)
    1  A    between atoms: C_1  and  C_2
    2  A    between atoms: C_10  and  C_13
                            x       y       z     vdW  Elec       q    Type
                         _______ _______ _______ _____ _____    ______ ____

>  <TORSDO>
F 2

$$$$
=
 OpenBabel11052413213D

 28 32  0  0  1  0  0  0  0  0999 V2000
  185.7080  178.0650  143.4530 C   0  0  0  0  0  0  0  0  0  0  0  0
  180.9940  179.6530  143.5690 C   0  0  0  0  0  1  0  0  0  0  0  0
  183.0570  177.9170  140.9220 C   0  0  0  0  0  0  0  0  0  0  0  0
  183.3960  178.8500  143.5340 C   0  0  0  0  0  0  0  0  0  0  0  0
  184.2530  177.7870  141.5620 N   0  0  0  0  0  0  0  0  0  0  0  0
  184.8500  179.1450  145.4550 C   0  0  0  0  0  3  0  0  0  0  0  0
  182.1540  179.0020  142.8940 C   0  0  0  0  0  0  0  0  0  0  0  0
  183.6050  179.3050  144.8440 C   0  0  0  0  0  3  0  0  0  0  0  0
  181.9920  178.5380  141.5890 C   0  0  0  0  0  3  0  0  0  0  0  0
  185.8960  178.5300  144.7640 C   0  0  0  0  0  3  0  0  0  0  0  0
  184.4540  178.2260  142.8340 C   0  0  0  0  0  0  0  0  0  0  0  0
  183.6950  177.9790  138.5880 C   0  0  0  0  0  3  0  0  0  0  0  0
  181.1790  176.3200  138.0850 C   0  0  0  0  0  3  0  0  0  0  0  0
  182.3630  177.8640  136.5350 C   0  0  0  0  0  0  0  0  0  0  0  0
  182.9040  177.4360  139.5250 C   0  0  0  0  0  0  0  0  0  0  0  0
  181.7020  175.3570  140.1420 O   0  0  0  0  0  1  0  0  0  0  0  0
  181.2550  177.2440  136.9370 C   0  0  0  0  0  3  0  0  0  0  0  0
  181.9170  176.3600  139.2050 C   0  0  0  0  0  0  0  0  0  0  0  0
  182.3010  178.7040  135.4740 F   0  0  0  0  0  0  0  0  0  0  0  0
  183.6900  177.5770  137.1530 C   0  0  0  0  0  2  0  0  0  0  0  0
  186.8420  177.4110  142.7140 C   0  0  2  0  0  3  0  0  0  0  0  0
  187.5580  176.3770  143.5950 C   0  0  0  0  0  2  0  0  0  0  0  0
  189.2010  177.8650  141.8880 C   0  0  1  0  0  3  0  0  0  0  0  0
  188.7460  176.9210  144.1100 O   0  0  0  0  0  0  0  0  0  0  0  0
  187.3040  179.0100  140.9860 O   0  0  0  0  0  1  0  0  0  0  0  0
  187.8170  178.4610  142.1600 C   0  0  1  0  0  3  0  0  0  0  0  0
  190.2010  178.3740  142.9060 C   0  0  0  0  0  2  0  0  0  0  0  0
  189.6680  176.9620  143.0450 C   0  0  2  0  0  3  0  0  0  0  0  0
  1 10  1  0  0  0  0
  3  5  2  0  0  0  0
  3  9  1  0  0  0  0
  4  8  2  0  0  0  0
  5 11  1  0  0  0  0
  7  4  1  0  0  0  0
  7  2  1  0  0  0  0
  8  6  1  0  0  0  0
  9  7  2  0  0  0  0
 10  6  2  0  0  0  0
 11  1  2  0  0  0  0
 11  4  1  0  0  0  0
 12 15  2  0  0  0  0
 13 18  2  0  0  0  0
 14 17  2  0  0  0  0
 14 20  1  0  0  0  0
 15  3  1  0  0  0  0
 17 13  1  0  0  0  0
 18 15  1  0  0  0  0
 18 16  1  0  0  0  0
 19 14  1  0  0  0  0
 20 12  1  0  0  0  0
 21  1  1  1  0  0  0
 21 22  1  0  0  0  0
 22 24  1  0  0  0  0
 23 26  1  0  0  0  0
 23 27  1  1  0  0  0
 23 28  1  0  0  0  0
 26 25  1  6  0  0  0
 26 21  1  0  0  0  0
 28 27  1  1  0  0  0
 28 24  1  0  0  0  0
M  END
>  <MODEL>
9

>  <REMARK>
 VINA RESULT:      -7.8      3.007      7.102
  Name = 
  2 active torsions:
  status: ('A' for Active; 'I' for Inactive)
    1  A    between atoms: C_1  and  C_2
    2  A    between atoms: C_10  and  C_13
                            x       y       z     vdW  Elec       q    Type
                         _______ _______ _______ _____ _____    ______ ____

>  <TORSDO>
F 2

$$$$
