=
 OpenBabel11052412433D

 25 28  0  0  1  0  0  0  0  0999 V2000
  189.2380  177.6160  141.6710 C   0  0  0  0  0  0  0  0  0  0  0  0
  187.8920  177.9430  141.9170 C   0  0  0  0  0  0  0  0  0  0  0  0
  188.9350  178.2690  139.3620 C   0  0  0  0  0  3  0  0  0  0  0  0
  185.5280  178.0080  144.7480 N   0  0  0  0  0  2  0  0  0  0  0  0
  187.6330  178.5650  139.6130 N   0  0  0  0  0  0  0  0  0  0  0  0
  185.7500  178.7400  141.1040 C   0  0  0  0  0  0  0  0  0  0  0  0
  184.8570  179.2410  140.0210 C   0  0  0  0  0  1  0  0  0  0  0  0
  187.3580  177.8250  143.1620 N   0  0  0  0  0  0  0  0  0  0  0  0
  189.7590  177.7940  140.3850 C   0  0  0  0  0  3  0  0  0  0  0  0
  185.2350  178.5990  142.3960 C   0  0  0  0  0  3  0  0  0  0  0  0
  186.0590  178.1390  143.4240 C   0  0  0  0  0  0  0  0  0  0  0  0
  187.0930  178.4180  140.8540 C   0  0  0  0  0  0  0  0  0  0  0  0
  190.1190  177.1100  142.7410 C   0  0  0  0  0  0  0  0  0  0  0  0
  191.7960  176.0770  144.7380 C   0  0  0  0  0  3  0  0  0  0  0  0
  190.7670  177.9800  143.6440 C   0  0  0  0  0  0  0  0  0  0  0  0
  191.6010  177.4560  144.6360 C   0  0  0  0  0  3  0  0  0  0  0  0
  191.1500  175.2120  143.8520 C   0  0  0  0  0  3  0  0  0  0  0  0
  190.5210  179.7210  143.6010 Cl  0  0  0  0  0  0  0  0  0  0  0  0
  190.3120  175.7280  142.8600 C   0  0  0  0  0  3  0  0  0  0  0  0
  188.5930  177.6570  146.9790 C   0  0  0  0  0  2  0  0  0  0  0  0
  185.8100  178.2600  147.1910 C   0  0  0  0  0  2  0  0  0  0  0  0
  187.8370  178.2840  148.1620 C   0  0  0  0  0  2  0  0  0  0  0  0
  186.2970  177.5650  145.9070 C   0  0  2  0  0  3  0  0  0  0  0  0
  186.7940  179.1160  147.7180 O   0  0  0  0  0  0  0  0  0  0  0  0
  187.7990  177.7620  145.6740 C   0  0  0  0  0  2  0  0  0  0  0  0
  1  2  1  0  0  0  0
  1 13  1  0  0  0  0
  2  8  1  0  0  0  0
  3  5  2  0  0  0  0
  3  9  1  0  0  0  0
  5 12  1  0  0  0  0
  6 10  2  0  0  0  0
  7  6  1  0  0  0  0
  8 11  2  0  0  0  0
  9  1  2  0  0  0  0
 10 11  1  0  0  0  0
 11  4  1  0  0  0  0
 12  6  1  0  0  0  0
 12  2  2  0  0  0  0
 13 19  2  0  0  0  0
 13 15  1  0  0  0  0
 15 16  2  0  0  0  0
 16 14  1  0  0  0  0
 17 14  2  0  0  0  0
 18 15  1  0  0  0  0
 19 17  1  0  0  0  0
 20 22  1  0  0  0  0
 21 24  1  0  0  0  0
 23  4  1  6  0  0  0
 23 21  1  0  0  0  0
 24 22  1  0  0  0  0
 25 23  1  0  0  0  0
 25 20  1  0  0  0  0
M  END
>  <MODEL>
1

>  <REMARK>
 VINA RESULT:     -10.3      0.000      0.000
  Name = 
  2 active torsions:
  status: ('A' for Active; 'I' for Inactive)
    1  A    between atoms: C_1  and  C_5
    2  A    between atoms: N_6  and  C_15
                            x       y       z     vdW  Elec       q    Type
                         _______ _______ _______ _____ _____    ______ ____

>  <TORSDO>
F 2

$$$$
=
 OpenBabel11052412433D

 25 28  0  0  1  0  0  0  0  0999 V2000
  187.4860  177.7030  145.8280 C   0  0  0  0  0  0  0  0  0  0  0  0
  188.7740  177.2710  145.4680 C   0  0  0  0  0  0  0  0  0  0  0  0
  188.1650  177.6630  148.1500 C   0  0  0  0  0  3  0  0  0  0  0  0
  190.6880  176.5180  142.4060 N   0  0  0  0  0  2  0  0  0  0  0  0
  189.4000  177.2290  147.7850 N   0  0  0  0  0  0  0  0  0  0  0  0
  191.0130  176.5960  146.1130 C   0  0  0  0  0  0  0  0  0  0  0  0
  192.0610  176.3200  147.1380 C   0  0  0  0  0  1  0  0  0  0  0  0
  189.1160  177.0990  144.1620 N   0  0  0  0  0  0  0  0  0  0  0  0
  187.1900  177.9100  147.1810 C   0  0  0  0  0  3  0  0  0  0  0  0
  191.3250  176.4240  144.7620 C   0  0  0  0  0  3  0  0  0  0  0  0
  190.3590  176.6850  143.7890 C   0  0  0  0  0  0  0  0  0  0  0  0
  189.7300  177.0300  146.4790 C   0  0  0  0  0  0  0  0  0  0  0  0
  186.4460  177.9660  144.8160 C   0  0  0  0  0  0  0  0  0  0  0  0
  184.5160  178.4330  142.8340 C   0  0  0  0  0  3  0  0  0  0  0  0
  185.1280  178.3170  145.1780 C   0  0  0  0  0  0  0  0  0  0  0  0
  184.1730  178.5480  144.1830 C   0  0  0  0  0  3  0  0  0  0  0  0
  185.8210  178.0940  142.4720 C   0  0  0  0  0  3  0  0  0  0  0  0
  184.6470  178.5300  146.8560 Cl  0  0  0  0  0  0  0  0  0  0  0  0
  186.7820  177.8650  143.4600 C   0  0  0  0  0  3  0  0  0  0  0  0
  188.6300  178.6460  140.0120 C   0  0  0  0  0  2  0  0  0  0  0  0
  190.4190  176.4210  139.9500 C   0  0  0  0  0  2  0  0  0  0  0  0
  189.3550  178.0350  138.8020 C   0  0  0  0  0  2  0  0  0  0  0  0
  189.7740  176.7850  141.2990 C   0  0  2  0  0  3  0  0  0  0  0  0
  190.6310  177.5630  139.1560 O   0  0  0  0  0  0  0  0  0  0  0  0
  189.2820  178.2360  141.3360 C   0  0  0  0  0  2  0  0  0  0  0  0
  1  9  1  0  0  0  0
  2  1  2  0  0  0  0
  2 12  1  0  0  0  0
  4 11  1  0  0  0  0
  5  3  1  0  0  0  0
  6 12  1  0  0  0  0
  6  7  1  0  0  0  0
  8  2  1  0  0  0  0
  9  3  2  0  0  0  0
 10  6  2  0  0  0  0
 11  8  2  0  0  0  0
 11 10  1  0  0  0  0
 12  5  2  0  0  0  0
 13 15  1  0  0  0  0
 13  1  1  0  0  0  0
 14 16  1  0  0  0  0
 15 18  1  0  0  0  0
 16 15  2  0  0  0  0
 17 14  2  0  0  0  0
 17 19  1  0  0  0  0
 19 13  2  0  0  0  0
 20 25  1  0  0  0  0
 21 23  1  0  0  0  0
 22 24  1  0  0  0  0
 22 20  1  0  0  0  0
 23 25  1  0  0  0  0
 23  4  1  1  0  0  0
 24 21  1  0  0  0  0
M  END
>  <MODEL>
2

>  <REMARK>
 VINA RESULT:     -10.3      2.905      6.897
  Name = 
  2 active torsions:
  status: ('A' for Active; 'I' for Inactive)
    1  A    between atoms: C_1  and  C_5
    2  A    between atoms: N_6  and  C_15
                            x       y       z     vdW  Elec       q    Type
                         _______ _______ _______ _____ _____    ______ ____

>  <TORSDO>
F 2

$$$$
=
 OpenBabel11052412433D

 25 28  0  0  1  0  0  0  0  0999 V2000
  187.9920  177.9250  144.7030 C   0  0  0  0  0  0  0  0  0  0  0  0
  186.9160  178.1980  143.8410 C   0  0  0  0  0  0  0  0  0  0  0  0
  186.4480  177.9280  146.5660 C   0  0  0  0  0  3  0  0  0  0  0  0
  186.3060  178.6680  140.2330 N   0  0  0  0  0  2  0  0  0  0  0  0
  185.4230  178.2080  145.7200 N   0  0  0  0  0  0  0  0  0  0  0  0
  184.5490  178.6180  143.5140 C   0  0  0  0  0  0  0  0  0  0  0  0
  183.1590  178.7880  144.0270 C   0  0  0  0  0  1  0  0  0  0  0  0
  187.1030  178.3060  142.4970 N   0  0  0  0  0  0  0  0  0  0  0  0
  187.7460  177.7790  146.0730 C   0  0  0  0  0  3  0  0  0  0  0  0
  184.7820  178.7280  142.1410 C   0  0  0  0  0  3  0  0  0  0  0  0
  186.0760  178.5650  141.6430 C   0  0  0  0  0  0  0  0  0  0  0  0
  185.6190  178.3440  144.3800 C   0  0  0  0  0  0  0  0  0  0  0  0
  189.3690  177.7680  144.1980 C   0  0  0  0  0  0  0  0  0  0  0  0
  192.0090  177.5330  143.2810 C   0  0  0  0  0  3  0  0  0  0  0  0
  189.7870  176.5950  143.5340 C   0  0  0  0  0  0  0  0  0  0  0  0
  191.1060  176.4880  143.0800 C   0  0  0  0  0  3  0  0  0  0  0  0
  191.5970  178.6980  143.9300 C   0  0  0  0  0  3  0  0  0  0  0  0
  188.6850  175.2660  143.2030 Cl  0  0  0  0  0  0  0  0  0  0  0  0
  190.2800  178.8150  144.3830 C   0  0  0  0  0  3  0  0  0  0  0  0
  189.7220  177.0940  139.6420 C   0  0  0  0  0  2  0  0  0  0  0  0
  187.4450  177.9640  138.1540 C   0  0  0  0  0  2  0  0  0  0  0  0
  189.3540  176.7770  138.1840 C   0  0  0  0  0  2  0  0  0  0  0  0
  187.6060  178.4900  139.5920 C   0  0  2  0  0  3  0  0  0  0  0  0
  187.9620  176.6620  138.0220 O   0  0  0  0  0  0  0  0  0  0  0  0
  188.5150  177.5930  140.4410 C   0  0  0  0  0  2  0  0  0  0  0  0
  1  9  1  0  0  0  0
  2 12  1  0  0  0  0
  2  1  2  0  0  0  0
  4 11  1  0  0  0  0
  5  3  1  0  0  0  0
  6  7  1  0  0  0  0
  6 12  1  0  0  0  0
  8  2  1  0  0  0  0
  9  3  2  0  0  0  0
 10  6  2  0  0  0  0
 11 10  1  0  0  0  0
 11  8  2  0  0  0  0
 12  5  2  0  0  0  0
 13 19  1  0  0  0  0
 13  1  1  0  0  0  0
 14 17  1  0  0  0  0
 15 13  2  0  0  0  0
 16 14  2  0  0  0  0
 16 15  1  0  0  0  0
 17 19  2  0  0  0  0
 18 15  1  0  0  0  0
 20 25  1  0  0  0  0
 21 23  1  0  0  0  0
 22 20  1  0  0  0  0
 23  4  1  1  0  0  0
 23 25  1  0  0  0  0
 24 21  1  0  0  0  0
 24 22  1  0  0  0  0
M  END
>  <MODEL>
3

>  <REMARK>
 VINA RESULT:     -10.1      2.555      5.278
  Name = 
  2 active torsions:
  status: ('A' for Active; 'I' for Inactive)
    1  A    between atoms: C_1  and  C_5
    2  A    between atoms: N_6  and  C_15
                            x       y       z     vdW  Elec       q    Type
                         _______ _______ _______ _____ _____    ______ ____

>  <TORSDO>
F 2

$$$$
=
 OpenBabel11052412433D

 25 28  0  0  1  0  0  0  0  0999 V2000
  187.4330  178.0330  145.3010 C   0  0  0  0  0  0  0  0  0  0  0  0
  186.6850  178.2960  144.1400 C   0  0  0  0  0  0  0  0  0  0  0  0
  185.3930  178.1520  146.5950 C   0  0  0  0  0  3  0  0  0  0  0  0
  187.2320  178.6300  140.5070 N   0  0  0  0  0  2  0  0  0  0  0  0
  184.6880  178.4210  145.4650 N   0  0  0  0  0  0  0  0  0  0  0  0
  184.5500  178.7610  143.0860 C   0  0  0  0  0  0  0  0  0  0  0  0
  183.0770  178.9870  143.1390 C   0  0  0  0  0  1  0  0  0  0  0  0
  187.2800  178.3430  142.9170 N   0  0  0  0  0  0  0  0  0  0  0  0
  186.7730  177.9500  146.5320 C   0  0  0  0  0  3  0  0  0  0  0  0
  185.1980  178.8080  141.8490 C   0  0  0  0  0  3  0  0  0  0  0  0
  186.5760  178.5920  141.7790 C   0  0  0  0  0  0  0  0  0  0  0  0
  185.2910  178.4960  144.2470 C   0  0  0  0  0  0  0  0  0  0  0  0
  188.8920  177.8200  145.2500 C   0  0  0  0  0  0  0  0  0  0  0  0
  191.6700  177.4670  145.0910 C   0  0  0  0  0  3  0  0  0  0  0  0
  189.5880  177.1890  146.3030 C   0  0  0  0  0  0  0  0  0  0  0  0
  190.9730  177.0170  146.2140 C   0  0  0  0  0  3  0  0  0  0  0  0
  190.9840  178.0850  144.0440 C   0  0  0  0  0  3  0  0  0  0  0  0
  188.7620  176.5540  147.7190 Cl  0  0  0  0  0  0  0  0  0  0  0  0
  189.5990  178.2560  144.1220 C   0  0  0  0  0  3  0  0  0  0  0  0
  190.4340  176.5830  140.2750 C   0  0  0  0  0  2  0  0  0  0  0  0
  189.0540  178.6270  138.8360 C   0  0  0  0  0  2  0  0  0  0  0  0
  190.6680  177.0620  138.8340 C   0  0  0  0  0  2  0  0  0  0  0  0
  188.6580  178.3930  140.3050 C   0  0  2  0  0  3  0  0  0  0  0  0
  189.4600  177.4310  138.2160 O   0  0  0  0  0  0  0  0  0  0  0  0
  189.0550  176.9970  140.7990 C   0  0  0  0  0  2  0  0  0  0  0  0
  1  9  1  0  0  0  0
  2 12  1  0  0  0  0
  2  1  2  0  0  0  0
  4 11  1  0  0  0  0
  5  3  1  0  0  0  0
  6  7  1  0  0  0  0
  6 12  1  0  0  0  0
  8  2  1  0  0  0  0
  9  3  2  0  0  0  0
 10  6  2  0  0  0  0
 11 10  1  0  0  0  0
 11  8  2  0  0  0  0
 12  5  2  0  0  0  0
 13  1  1  0  0  0  0
 13 15  1  0  0  0  0
 14 16  1  0  0  0  0
 15 18  1  0  0  0  0
 16 15  2  0  0  0  0
 17 19  1  0  0  0  0
 17 14  2  0  0  0  0
 19 13  2  0  0  0  0
 20 25  1  0  0  0  0
 21 23  1  0  0  0  0
 22 20  1  0  0  0  0
 23  4  1  6  0  0  0
 23 25  1  0  0  0  0
 24 22  1  0  0  0  0
 24 21  1  0  0  0  0
M  END
>  <MODEL>
4

>  <REMARK>
 VINA RESULT:     -10.0      2.626      5.275
  Name = 
  2 active torsions:
  status: ('A' for Active; 'I' for Inactive)
    1  A    between atoms: C_1  and  C_5
    2  A    between atoms: N_6  and  C_15
                            x       y       z     vdW  Elec       q    Type
                         _______ _______ _______ _____ _____    ______ ____

>  <TORSDO>
F 2

$$$$
=
 OpenBabel11052412433D

 25 28  0  0  1  0  0  0  0  0999 V2000
  185.5150  178.4070  144.5690 C   0  0  0  0  0  0  0  0  0  0  0  0
  186.8390  177.9690  144.7450 C   0  0  0  0  0  0  0  0  0  0  0  0
  185.3280  178.6760  146.9660 C   0  0  0  0  0  3  0  0  0  0  0  0
  189.6990  176.8920  142.6780 N   0  0  0  0  0  2  0  0  0  0  0  0
  186.6030  178.2350  147.1180 N   0  0  0  0  0  0  0  0  0  0  0  0
  188.6920  177.4420  146.2200 C   0  0  0  0  0  0  0  0  0  0  0  0
  189.3040  177.3260  147.5740 C   0  0  0  0  0  1  0  0  0  0  0  0
  187.6180  177.6440  143.6770 N   0  0  0  0  0  0  0  0  0  0  0  0
  184.7640  178.7730  145.6920 C   0  0  0  0  0  3  0  0  0  0  0  0
  189.4590  177.1110  145.0990 C   0  0  0  0  0  3  0  0  0  0  0  0
  188.9040  177.2220  143.8230 C   0  0  0  0  0  0  0  0  0  0  0  0
  187.3710  177.8830  146.0500 C   0  0  0  0  0  0  0  0  0  0  0  0
  184.9060  178.5120  143.2300 C   0  0  0  0  0  0  0  0  0  0  0  0
  183.8180  178.6920  140.6500 C   0  0  0  0  0  3  0  0  0  0  0  0
  183.5080  178.5880  143.0530 C   0  0  0  0  0  0  0  0  0  0  0  0
  182.9750  178.6770  141.7630 C   0  0  0  0  0  3  0  0  0  0  0  0
  185.2020  178.6260  140.8210 C   0  0  0  0  0  3  0  0  0  0  0  0
  182.3960  178.6270  144.4150 Cl  0  0  0  0  0  0  0  0  0  0  0  0
  185.7430  178.5400  142.1070 C   0  0  0  0  0  3  0  0  0  0  0  0
  188.7740  178.6390  139.4240 C   0  0  0  0  0  2  0  0  0  0  0  0
  190.2670  176.3780  140.3270 C   0  0  0  0  0  2  0  0  0  0  0  0
  189.8050  177.8030  138.6510 C   0  0  0  0  0  2  0  0  0  0  0  0
  189.2400  176.9930  141.2960 C   0  0  2  0  0  3  0  0  0  0  0  0
  190.8390  177.3580  139.4940 O   0  0  0  0  0  0  0  0  0  0  0  0
  188.9000  178.4440  140.9380 C   0  0  0  0  0  2  0  0  0  0  0  0
  1  2  2  0  0  0  0
  1  9  1  0  0  0  0
  2 12  1  0  0  0  0
  3  5  1  0  0  0  0
  4 11  1  0  0  0  0
  6  7  1  0  0  0  0
  8 11  2  0  0  0  0
  8  2  1  0  0  0  0
  9  3  2  0  0  0  0
 10  6  2  0  0  0  0
 11 10  1  0  0  0  0
 12  6  1  0  0  0  0
 12  5  2  0  0  0  0
 13  1  1  0  0  0  0
 14 17  2  0  0  0  0
 14 16  1  0  0  0  0
 15 13  1  0  0  0  0
 15 18  1  0  0  0  0
 16 15  2  0  0  0  0
 17 19  1  0  0  0  0
 19 13  2  0  0  0  0
 20 25  1  0  0  0  0
 21 23  1  0  0  0  0
 22 20  1  0  0  0  0
 22 24  1  0  0  0  0
 23  4  1  1  0  0  0
 24 21  1  0  0  0  0
 25 23  1  0  0  0  0
M  END
>  <MODEL>
5

>  <REMARK>
 VINA RESULT:      -9.9      3.007      6.902
  Name = 
  2 active torsions:
  status: ('A' for Active; 'I' for Inactive)
    1  A    between atoms: C_1  and  C_5
    2  A    between atoms: N_6  and  C_15
                            x       y       z     vdW  Elec       q    Type
                         _______ _______ _______ _____ _____    ______ ____

>  <TORSDO>
F 2

$$$$
=
 OpenBabel11052412433D

 25 28  0  0  1  0  0  0  0  0999 V2000
  188.6740  177.7480  143.7080 C   0  0  0  0  0  0  0  0  0  0  0  0
  187.3380  177.9560  144.0930 C   0  0  0  0  0  0  0  0  0  0  0  0
  189.3160  177.8250  146.0390 C   0  0  0  0  0  3  0  0  0  0  0  0
  184.0110  178.2200  142.5220 N   0  0  0  0  0  2  0  0  0  0  0  0
  188.0220  178.0410  146.3920 N   0  0  0  0  0  0  0  0  0  0  0  0
  185.6950  178.3180  145.8400 C   0  0  0  0  0  0  0  0  0  0  0  0
  185.3110  178.4910  147.2700 C   0  0  0  0  0  1  0  0  0  0  0  0
  186.3390  177.9940  143.1690 N   0  0  0  0  0  0  0  0  0  0  0  0
  189.6630  177.6710  144.6950 C   0  0  0  0  0  3  0  0  0  0  0  0
  184.6980  178.3580  144.8620 C   0  0  0  0  0  3  0  0  0  0  0  0
  185.0380  178.1900  143.5190 C   0  0  0  0  0  0  0  0  0  0  0  0
  187.0290  178.1080  145.4620 C   0  0  0  0  0  0  0  0  0  0  0  0
  189.0560  177.5870  142.2920 C   0  0  0  0  0  0  0  0  0  0  0  0
  189.7480  177.3530  139.5830 C   0  0  0  0  0  3  0  0  0  0  0  0
  189.9750  176.6000  141.8770 C   0  0  0  0  0  0  0  0  0  0  0  0
  190.3130  176.4910  140.5250 C   0  0  0  0  0  3  0  0  0  0  0  0
  188.8320  178.3250  139.9890 C   0  0  0  0  0  3  0  0  0  0  0  0
  190.6810  175.4510  143.0050 Cl  0  0  0  0  0  0  0  0  0  0  0  0
  188.4850  178.4390  141.3380 C   0  0  0  0  0  3  0  0  0  0  0  0
  183.0590  177.7140  138.8700 C   0  0  0  0  0  2  0  0  0  0  0  0
  184.8280  179.3010  140.4530 C   0  0  0  0  0  2  0  0  0  0  0  0
  183.8270  178.9820  138.4660 C   0  0  0  0  0  2  0  0  0  0  0  0
  184.2390  178.0300  141.0920 C   0  0  2  0  0  3  0  0  0  0  0  0
  183.9280  179.8830  139.5420 O   0  0  0  0  0  0  0  0  0  0  0  0
  182.9560  177.5680  140.3920 C   0  0  0  0  0  2  0  0  0  0  0  0
  1  2  2  0  0  0  0
  1  9  1  0  0  0  0
  2 12  1  0  0  0  0
  3  5  1  0  0  0  0
  4 11  1  0  0  0  0
  6  7  1  0  0  0  0
  8 11  2  0  0  0  0
  8  2  1  0  0  0  0
  9  3  2  0  0  0  0
 10  6  2  0  0  0  0
 11 10  1  0  0  0  0
 12  6  1  0  0  0  0
 12  5  2  0  0  0  0
 13  1  1  0  0  0  0
 14 17  2  0  0  0  0
 14 16  1  0  0  0  0
 15 13  1  0  0  0  0
 15 18  1  0  0  0  0
 16 15  2  0  0  0  0
 17 19  1  0  0  0  0
 19 13  2  0  0  0  0
 20 25  1  0  0  0  0
 21 23  1  0  0  0  0
 22 20  1  0  0  0  0
 22 24  1  0  0  0  0
 23  4  1  1  0  0  0
 24 21  1  0  0  0  0
 25 23  1  0  0  0  0
M  END
>  <MODEL>
6

>  <REMARK>
 VINA RESULT:      -9.8      2.497      5.522
  Name = 
  2 active torsions:
  status: ('A' for Active; 'I' for Inactive)
    1  A    between atoms: C_1  and  C_5
    2  A    between atoms: N_6  and  C_15
                            x       y       z     vdW  Elec       q    Type
                         _______ _______ _______ _____ _____    ______ ____

>  <TORSDO>
F 2

$$$$
=
 OpenBabel11052412433D

 25 28  0  0  1  0  0  0  0  0999 V2000
  185.9760  178.4030  142.3690 C   0  0  0  0  0  0  0  0  0  0  0  0
  187.1720  178.0830  141.7020 C   0  0  0  0  0  0  0  0  0  0  0  0
  184.9990  179.0110  140.2420 C   0  0  0  0  0  3  0  0  0  0  0  0
  190.5210  176.7600  142.5020 N   0  0  0  0  0  2  0  0  0  0  0  0
  186.1670  178.7120  139.6160 N   0  0  0  0  0  0  0  0  0  0  0  0
  188.4450  177.9330  139.6430 C   0  0  0  0  0  0  0  0  0  0  0  0
  188.5860  178.0990  138.1680 C   0  0  0  0  0  1  0  0  0  0  0  0
  188.2450  177.5960  142.3820 N   0  0  0  0  0  0  0  0  0  0  0  0
  184.8820  178.8590  141.6250 C   0  0  0  0  0  3  0  0  0  0  0  0
  189.5280  177.4420  140.3770 C   0  0  0  0  0  3  0  0  0  0  0  0
  189.4110  177.2740  141.7570 C   0  0  0  0  0  0  0  0  0  0  0  0
  187.2490  178.2530  140.3030 C   0  0  0  0  0  0  0  0  0  0  0  0
  185.8390  178.2510  143.8300 C   0  0  0  0  0  0  0  0  0  0  0  0
  185.6580  177.9430  146.6120 C   0  0  0  0  0  3  0  0  0  0  0  0
  184.6870  178.6850  144.5180 C   0  0  0  0  0  0  0  0  0  0  0  0
  184.6050  178.5280  145.9050 C   0  0  0  0  0  3  0  0  0  0  0  0
  186.7960  177.5040  145.9340 C   0  0  0  0  0  3  0  0  0  0  0  0
  183.3060  179.3800  143.6800 Cl  0  0  0  0  0  0  0  0  0  0  0  0
  186.8840  177.6540  144.5470 C   0  0  0  0  0  3  0  0  0  0  0  0
  191.9110  175.6410  145.8650 C   0  0  0  0  0  2  0  0  0  0  0  0
  190.4900  177.8400  144.7260 C   0  0  0  0  0  2  0  0  0  0  0  0
  191.6810  177.0400  146.4560 C   0  0  0  0  0  2  0  0  0  0  0  0
  190.5100  176.5160  143.9410 C   0  0  2  0  0  3  0  0  0  0  0  0
  191.6800  178.0250  145.4530 O   0  0  0  0  0  0  0  0  0  0  0  0
  191.6800  175.6150  144.3510 C   0  0  0  0  0  2  0  0  0  0  0  0
  1 13  1  0  0  0  0
  2  1  1  0  0  0  0
  2  8  1  0  0  0  0
  3  9  1  0  0  0  0
  5  3  2  0  0  0  0
  5 12  1  0  0  0  0
  6 12  1  0  0  0  0
  6 10  2  0  0  0  0
  7  6  1  0  0  0  0
  9  1  2  0  0  0  0
 10 11  1  0  0  0  0
 11  8  2  0  0  0  0
 11  4  1  0  0  0  0
 12  2  2  0  0  0  0
 13 15  2  0  0  0  0
 13 19  1  0  0  0  0
 15 16  1  0  0  0  0
 16 14  2  0  0  0  0
 17 14  1  0  0  0  0
 18 15  1  0  0  0  0
 19 17  2  0  0  0  0
 20 22  1  0  0  0  0
 21 24  1  0  0  0  0
 23  4  1  6  0  0  0
 23 25  1  0  0  0  0
 23 21  1  0  0  0  0
 24 22  1  0  0  0  0
 25 20  1  0  0  0  0
M  END
>  <MODEL>
7

>  <REMARK>
 VINA RESULT:      -9.6      2.215      4.694
  Name = 
  2 active torsions:
  status: ('A' for Active; 'I' for Inactive)
    1  A    between atoms: C_1  and  C_5
    2  A    between atoms: N_6  and  C_15
                            x       y       z     vdW  Elec       q    Type
                         _______ _______ _______ _____ _____    ______ ____

>  <TORSDO>
F 2

$$$$
=
 OpenBabel11052412433D

 25 28  0  0  1  0  0  0  0  0999 V2000
  187.9250  177.8430  142.6650 C   0  0  0  0  0  0  0  0  0  0  0  0
  186.9520  178.1060  143.6450 C   0  0  0  0  0  0  0  0  0  0  0  0
  186.4300  178.7500  140.9940 C   0  0  0  0  0  3  0  0  0  0  0  0
  186.5420  177.7870  147.2970 N   0  0  0  0  0  2  0  0  0  0  0  0
  185.4950  178.9820  141.9510 N   0  0  0  0  0  0  0  0  0  0  0  0
  184.7530  178.9380  144.2420 C   0  0  0  0  0  0  0  0  0  0  0  0
  183.4330  179.5370  143.8930 C   0  0  0  0  0  1  0  0  0  0  0  0
  187.1870  177.8320  144.9570 N   0  0  0  0  0  0  0  0  0  0  0  0
  187.6590  178.1810  141.3330 C   0  0  0  0  0  3  0  0  0  0  0  0
  185.0280  178.6370  145.5780 C   0  0  0  0  0  3  0  0  0  0  0  0
  186.2610  178.0820  145.9240 C   0  0  0  0  0  0  0  0  0  0  0  0
  185.7210  178.6800  143.2600 C   0  0  0  0  0  0  0  0  0  0  0  0
  189.2270  177.2400  143.0080 C   0  0  0  0  0  0  0  0  0  0  0  0
  191.6770  176.0230  143.6290 C   0  0  0  0  0  3  0  0  0  0  0  0
  190.3390  178.0280  143.3730 C   0  0  0  0  0  0  0  0  0  0  0  0
  191.5560  177.4130  143.6810 C   0  0  0  0  0  3  0  0  0  0  0  0
  190.5770  175.2380  143.2770 C   0  0  0  0  0  3  0  0  0  0  0  0
  190.2360  179.7790  143.5070 Cl  0  0  0  0  0  0  0  0  0  0  0  0
  189.3560  175.8450  142.9710 C   0  0  0  0  0  3  0  0  0  0  0  0
  190.2070  176.7710  147.1270 C   0  0  0  0  0  2  0  0  0  0  0  0
  188.4060  178.1200  148.8860 C   0  0  0  0  0  2  0  0  0  0  0  0
  190.5370  177.6590  148.3370 C   0  0  0  0  0  2  0  0  0  0  0  0
  187.8010  177.2320  147.7830 C   0  0  2  0  0  3  0  0  0  0  0  0
  189.6120  178.7110  148.4660 O   0  0  0  0  0  0  0  0  0  0  0  0
  188.7780  176.9970  146.6250 C   0  0  0  0  0  2  0  0  0  0  0  0
  1 13  1  0  0  0  0
  1  2  1  0  0  0  0
  2  8  1  0  0  0  0
  3  9  1  0  0  0  0
  3  5  2  0  0  0  0
  5 12  1  0  0  0  0
  6 10  2  0  0  0  0
  7  6  1  0  0  0  0
  8 11  2  0  0  0  0
  9  1  2  0  0  0  0
 10 11  1  0  0  0  0
 11  4  1  0  0  0  0
 12  2  2  0  0  0  0
 12  6  1  0  0  0  0
 13 15  1  0  0  0  0
 14 16  1  0  0  0  0
 15 18  1  0  0  0  0
 15 16  2  0  0  0  0
 17 14  2  0  0  0  0
 19 13  2  0  0  0  0
 19 17  1  0  0  0  0
 20 22  1  0  0  0  0
 22 24  1  0  0  0  0
 23  4  1  6  0  0  0
 23 21  1  0  0  0  0
 24 21  1  0  0  0  0
 25 20  1  0  0  0  0
 25 23  1  0  0  0  0
M  END
>  <MODEL>
8

>  <REMARK>
 VINA RESULT:      -9.6      1.509      2.343
  Name = 
  2 active torsions:
  status: ('A' for Active; 'I' for Inactive)
    1  A    between atoms: C_1  and  C_5
    2  A    between atoms: N_6  and  C_15
                            x       y       z     vdW  Elec       q    Type
                         _______ _______ _______ _____ _____    ______ ____

>  <TORSDO>
F 2

$$$$
=
 OpenBabel11052412433D

 25 28  0  0  1  0  0  0  0  0999 V2000
  191.0280  177.1250  142.2300 C   0  0  0  0  0  0  0  0  0  0  0  0
  189.7230  177.4510  141.8210 C   0  0  0  0  0  0  0  0  0  0  0  0
  191.7900  177.5020  139.9650 C   0  0  0  0  0  3  0  0  0  0  0  0
  186.3610  177.7950  143.2980 N   0  0  0  0  0  2  0  0  0  0  0  0
  190.5200  177.7990  139.5840 N   0  0  0  0  0  0  0  0  0  0  0  0
  188.1820  178.1070  140.0660 C   0  0  0  0  0  0  0  0  0  0  0  0
  187.8710  178.4620  138.6520 C   0  0  0  0  0  1  0  0  0  0  0  0
  188.6930  177.4660  142.7100 N   0  0  0  0  0  0  0  0  0  0  0  0
  192.0660  177.1640  141.2920 C   0  0  0  0  0  3  0  0  0  0  0  0
  187.1480  178.1050  141.0070 C   0  0  0  0  0  3  0  0  0  0  0  0
  187.4220  177.7830  142.3370 C   0  0  0  0  0  0  0  0  0  0  0  0
  189.4860  177.7850  140.4700 C   0  0  0  0  0  0  0  0  0  0  0  0
  191.3340  176.7630  143.6270 C   0  0  0  0  0  0  0  0  0  0  0  0
  191.9420  176.0030  146.2580 C   0  0  0  0  0  3  0  0  0  0  0  0
  191.3770  177.7310  144.6530 C   0  0  0  0  0  0  0  0  0  0  0  0
  191.6800  177.3420  145.9610 C   0  0  0  0  0  3  0  0  0  0  0  0
  191.8930  175.0410  145.2470 C   0  0  0  0  0  3  0  0  0  0  0  0
  191.0060  179.4230  144.3550 Cl  0  0  0  0  0  0  0  0  0  0  0  0
  191.5860  175.4200  143.9370 C   0  0  0  0  0  3  0  0  0  0  0  0
  188.0540  177.8890  146.7070 C   0  0  0  0  0  2  0  0  0  0  0  0
  185.4600  178.2250  145.5610 C   0  0  0  0  0  2  0  0  0  0  0  0
  186.8000  178.5100  147.3430 C   0  0  0  0  0  2  0  0  0  0  0  0
  186.5290  177.5030  144.7190 C   0  0  2  0  0  3  0  0  0  0  0  0
  186.0350  179.2060  146.3900 O   0  0  0  0  0  0  0  0  0  0  0  0
  187.9530  177.8330  145.1800 C   0  0  0  0  0  2  0  0  0  0  0  0
  1 13  1  0  0  0  0
  2  1  1  0  0  0  0
  2  8  1  0  0  0  0
  3  9  1  0  0  0  0
  5  3  2  0  0  0  0
  5 12  1  0  0  0  0
  6 12  1  0  0  0  0
  6 10  2  0  0  0  0
  7  6  1  0  0  0  0
  9  1  2  0  0  0  0
 10 11  1  0  0  0  0
 11  8  2  0  0  0  0
 11  4  1  0  0  0  0
 12  2  2  0  0  0  0
 13 19  2  0  0  0  0
 13 15  1  0  0  0  0
 15 16  2  0  0  0  0
 16 14  1  0  0  0  0
 17 14  2  0  0  0  0
 18 15  1  0  0  0  0
 19 17  1  0  0  0  0
 20 22  1  0  0  0  0
 21 24  1  0  0  0  0
 23  4  1  6  0  0  0
 23 25  1  0  0  0  0
 23 21  1  0  0  0  0
 24 22  1  0  0  0  0
 25 20  1  0  0  0  0
M  END
>  <MODEL>
9

>  <REMARK>
 VINA RESULT:      -9.5      1.374      1.944
  Name = 
  2 active torsions:
  status: ('A' for Active; 'I' for Inactive)
    1  A    between atoms: C_1  and  C_5
    2  A    between atoms: N_6  and  C_15
                            x       y       z     vdW  Elec       q    Type
                         _______ _______ _______ _____ _____    ______ ____

>  <TORSDO>
F 2

$$$$
