=
 OpenBabel11052416163D

 43 47  0  0  1  0  0  0  0  0999 V2000
  181.2280  177.3530  137.9260 C   0  0  0  0  0  0  0  0  0  0  0  0
  180.7810  177.5600  136.7640 O   0  0  0  0  0  0  0  0  0  0  0  0
  180.9870  178.3280  138.9630 N   0  0  0  0  0  0  0  0  0  0  0  0
  181.2530  178.9840  142.6320 O   0  0  0  0  0  0  0  0  0  0  0  0
  182.6430  178.9200  142.7420 C   0  0  0  0  0  0  0  0  0  0  0  0
  184.9240  178.6420  141.5620 C   0  0  0  0  0  2  0  0  0  0  0  0
  180.6010  178.8380  141.3670 C   0  0  2  0  0  3  0  0  0  0  0  0
  183.2450  179.3420  143.8540 C   0  0  0  0  0  3  0  0  0  0  0  0
  182.8210  178.7880  140.3650 O   0  0  0  0  0  0  0  0  0  0  0  0
  179.3440  178.0090  141.5380 C   0  0  0  0  0  1  0  0  0  0  0  0
  184.7360  179.3060  143.9980 C   0  0  2  0  0  3  0  0  0  0  0  0
  181.5380  178.2090  140.3140 C   0  0  2  0  0  3  0  0  0  0  0  0
  185.3800  179.6250  142.6480 C   0  0  0  0  0  2  0  0  0  0  0  0
  183.4110  178.3580  141.5650 C   0  0  2  0  0  3  0  0  0  0  0  0
  185.2070  177.9560  144.5240 C   0  0  0  0  0  2  0  0  0  0  0  0
  186.5880  178.0800  145.1420 C   0  0  0  0  0  2  0  0  0  0  0  0
  186.5330  177.7230  146.4900 O   0  0  0  0  0  0  0  0  0  0  0  0
  187.8660  177.5030  146.8490 C   0  0  0  0  0  2  0  0  0  0  0  0
  189.2200  178.3940  148.6000 O   0  0  0  0  0  1  0  0  0  0  0  0
  188.0390  177.6950  148.3450 C   0  0  0  0  0  2  0  0  0  0  0  0
  180.0010  179.3810  138.7490 C   0  0  0  0  0  2  0  0  0  0  0  0
  180.1380  181.9670  135.9150 C   0  0  0  0  0  2  0  0  0  0  0  0
  180.4230  183.2240  136.7450 C   0  0  0  0  0  0  0  0  0  0  0  0
  181.1190  184.2350  135.8600 C   0  0  0  0  0  1  0  0  0  0  0  0
  180.7980  181.7390  138.7680 C   0  0  0  0  0  2  0  0  0  0  0  0
  179.5970  180.8260  136.7780 C   0  0  0  0  0  2  0  0  0  0  0  0
  180.5750  180.5020  137.9000 C   0  0  0  0  0  3  0  0  0  0  0  0
  179.1240  183.8400  137.2430 C   0  0  0  0  0  1  0  0  0  0  0  0
  181.3450  182.8940  137.9240 C   0  0  0  0  0  2  0  0  0  0  0  0
  181.9850  176.0760  138.2000 C   0  0  1  0  0  3  0  0  0  0  0  0
  179.8130  172.5340  137.0180 C   0  0  0  0  0  0  0  0  0  0  0  0
  180.3530  174.1940  138.7050 C   0  0  0  0  0  0  0  0  0  0  0  0
  180.6850  173.1540  136.1220 C   0  0  0  0  0  3  0  0  0  0  0  0
  178.9320  171.1030  136.5300 Cl  0  0  0  0  0  0  0  0  0  0  0  0
  181.2160  174.8430  137.7930 C   0  0  0  0  0  0  0  0  0  0  0  0
  179.6520  173.0510  138.3070 C   0  0  0  0  0  3  0  0  0  0  0  0
  181.3820  174.3010  136.5090 C   0  0  0  0  0  3  0  0  0  0  0  0
  180.1980  174.6700  140.1090 C   0  0  0  0  0  1  0  0  0  0  0  0
  183.5610  176.9200  136.5450 O   0  0  0  0  0  0  0  0  0  0  0  0
  184.1740  177.3510  137.7400 C   0  0  0  0  0  2  0  0  0  0  0  0
  183.4250  176.0800  137.6630 C   0  0  1  0  0  0  0  0  0  0  0  0
  184.2510  174.8100  137.5050 C   0  0  0  0  0  2  0  0  0  0  0  0
  184.6330  174.6400  136.1770 O   0  0  0  0  0  1  0  0  0  0  0  0
  1  3  1  0  0  0  0
  2  1  2  0  0  0  0
  4  5  1  0  0  0  0
  5  8  2  0  0  0  0
  6 13  1  0  0  0  0
  7 10  1  1  0  0  0
  7  4  1  0  0  0  0
  8 11  1  0  0  0  0
  9 14  1  0  0  0  0
 11 15  1  6  0  0  0
 12  3  1  6  0  0  0
 12  9  1  0  0  0  0
 12  7  1  0  0  0  0
 13 11  1  0  0  0  0
 14  6  1  6  0  0  0
 14  5  1  0  0  0  0
 15 16  1  0  0  0  0
 16 17  1  0  0  0  0
 17 18  1  0  0  0  0
 18 20  1  0  0  0  0
 20 19  1  0  0  0  0
 21  3  1  0  0  0  0
 22 23  1  0  0  0  0
 22 26  1  0  0  0  0
 23 28  1  0  0  0  0
 23 29  1  0  0  0  0
 24 23  1  0  0  0  0
 26 27  1  0  0  0  0
 27 21  1  0  0  0  0
 27 25  1  0  0  0  0
 29 25  1  0  0  0  0
 30  1  1  6  0  0  0
 31 36  1  0  0  0  0
 32 38  1  0  0  0  0
 33 37  1  0  0  0  0
 33 31  2  0  0  0  0
 34 31  1  0  0  0  0
 35 30  1  0  0  0  0
 35 32  1  0  0  0  0
 36 32  2  0  0  0  0
 37 35  2  0  0  0  0
 39 41  1  0  0  0  0
 39 40  1  0  0  0  0
 41 42  1  1  0  0  0
 41 40  1  0  0  0  0
 41 30  1  0  0  0  0
 43 42  1  0  0  0  0
M  END
>  <MODEL>
1

>  <REMARK>
 VINA RESULT:      -6.6      0.000      0.000
  Name = 
  12 active torsions:
  status: ('A' for Active; 'I' for Inactive)
    1  A    between atoms: C_1  and  N_34
    2  A    between atoms: C_1  and  C_35
    3  A    between atoms: C_2  and  C_27
    4  A    between atoms: C_8  and  C_30
    5  A    between atoms: C_11  and  C_22
    6  A    between atoms: C_11  and  C_36
    7  A    between atoms: C_21  and  C_30
    8  A    between atoms: C_27  and  C_30
    9  A    between atoms: O_29  and  C_31
   10  A    between atoms: O_29  and  C_36
   11  A    between atoms: C_31  and  C_40
   12  A    between atoms: N_34  and  C_38
                            x       y       z     vdW  Elec       q    Type
                         _______ _______ _______ _____ _____    ______ ____

>  <TORSDO>
F 12

$$$$
=
 OpenBabel11052416163D

 43 47  0  0  1  0  0  0  0  0999 V2000
  183.5470  177.6010  137.3340 C   0  0  0  0  0  0  0  0  0  0  0  0
  183.3510  177.8230  136.1080 O   0  0  0  0  0  0  0  0  0  0  0  0
  182.6260  178.1360  138.3090 N   0  0  0  0  0  0  0  0  0  0  0  0
  181.7480  178.3890  141.9320 O   0  0  0  0  0  0  0  0  0  0  0  0
  183.0240  178.6650  142.4240 C   0  0  0  0  0  0  0  0  0  0  0  0
  185.5170  179.1170  141.9190 C   0  0  0  0  0  2  0  0  0  0  0  0
  181.5090  178.2370  140.5300 C   0  0  2  0  0  3  0  0  0  0  0  0
  183.1790  179.0880  143.6780 C   0  0  0  0  0  3  0  0  0  0  0  0
  183.8360  178.8710  140.1890 O   0  0  0  0  0  0  0  0  0  0  0  0
  180.5300  177.1040  140.3020 C   0  0  0  0  0  1  0  0  0  0  0  0
  184.5340  179.4130  144.2330 C   0  0  2  0  0  3  0  0  0  0  0  0
  182.8210  177.9980  139.7520 C   0  0  2  0  0  3  0  0  0  0  0  0
  185.3890  180.0450  143.1340 C   0  0  0  0  0  2  0  0  0  0  0  0
  184.1930  178.4620  141.4840 C   0  0  2  0  0  3  0  0  0  0  0  0
  185.2070  178.1720  144.8060 C   0  0  0  0  0  2  0  0  0  0  0  0
  186.0890  178.5430  145.9830 C   0  0  0  0  0  2  0  0  0  0  0  0
  187.0570  177.5570  146.1750 O   0  0  0  0  0  0  0  0  0  0  0  0
  187.4650  177.2090  144.8850 C   0  0  0  0  0  2  0  0  0  0  0  0
  189.4680  178.1000  143.9420 O   0  0  0  0  0  1  0  0  0  0  0  0
  188.9800  177.1320  144.8220 C   0  0  0  0  0  2  0  0  0  0  0  0
  181.3410  178.6690  137.8710 C   0  0  0  0  0  2  0  0  0  0  0  0
  180.6450  181.6550  135.5600 C   0  0  0  0  0  2  0  0  0  0  0  0
  180.3920  182.7310  136.6210 C   0  0  0  0  0  0  0  0  0  0  0  0
  180.7020  184.0830  136.0170 C   0  0  0  0  0  1  0  0  0  0  0  0
  181.1890  181.0980  138.3920 C   0  0  0  0  0  2  0  0  0  0  0  0
  180.5280  180.2450  136.1400 C   0  0  0  0  0  2  0  0  0  0  0  0
  181.4950  180.0700  137.3050 C   0  0  0  0  0  3  0  0  0  0  0  0
  178.9320  182.7240  137.0510 C   0  0  0  0  0  1  0  0  0  0  0  0
  181.3060  182.5190  137.8330 C   0  0  0  0  0  2  0  0  0  0  0  0
  184.7320  176.7590  137.7440 C   0  0  1  0  0  3  0  0  0  0  0  0
  184.6120  172.7530  136.1320 C   0  0  0  0  0  0  0  0  0  0  0  0
  183.6340  174.4770  137.5340 C   0  0  0  0  0  0  0  0  0  0  0  0
  185.6600  173.6130  135.7990 C   0  0  0  0  0  3  0  0  0  0  0  0
  184.5670  171.1340  135.4700 Cl  0  0  0  0  0  0  0  0  0  0  0  0
  184.6770  175.3610  137.1790 C   0  0  0  0  0  0  0  0  0  0  0  0
  183.6050  173.1840  137.0010 C   0  0  0  0  0  3  0  0  0  0  0  0
  185.6920  174.9080  136.3210 C   0  0  0  0  0  3  0  0  0  0  0  0
  182.5740  174.8680  138.5070 C   0  0  0  0  0  1  0  0  0  0  0  0
  186.0760  178.7840  137.9200 O   0  0  0  0  0  0  0  0  0  0  0  0
  186.8390  177.8890  138.6990 C   0  0  0  0  0  2  0  0  0  0  0  0
  186.0890  177.4410  137.5080 C   0  0  1  0  0  0  0  0  0  0  0  0
  186.8900  177.2630  136.2240 C   0  0  0  0  0  2  0  0  0  0  0  0
  186.5340  178.2340  135.2910 O   0  0  0  0  0  1  0  0  0  0  0  0
  1  3  1  0  0  0  0
  2  1  2  0  0  0  0
  4  5  1  0  0  0  0
  5  8  2  0  0  0  0
  6 13  1  0  0  0  0
  7 10  1  1  0  0  0
  7  4  1  0  0  0  0
  8 11  1  0  0  0  0
  9 14  1  0  0  0  0
 11 15  1  6  0  0  0
 12  3  1  6  0  0  0
 12  9  1  0  0  0  0
 12  7  1  0  0  0  0
 13 11  1  0  0  0  0
 14  6  1  1  0  0  0
 14  5  1  0  0  0  0
 15 16  1  0  0  0  0
 16 17  1  0  0  0  0
 18 17  1  0  0  0  0
 19 20  1  0  0  0  0
 20 18  1  0  0  0  0
 21  3  1  0  0  0  0
 22 26  1  0  0  0  0
 22 23  1  0  0  0  0
 23 28  1  0  0  0  0
 23 29  1  0  0  0  0
 24 23  1  0  0  0  0
 26 27  1  0  0  0  0
 27 21  1  0  0  0  0
 27 25  1  0  0  0  0
 29 25  1  0  0  0  0
 30  1  1  6  0  0  0
 31 36  1  0  0  0  0
 32 38  1  0  0  0  0
 33 31  2  0  0  0  0
 33 37  1  0  0  0  0
 34 31  1  0  0  0  0
 35 32  1  0  0  0  0
 35 30  1  0  0  0  0
 36 32  2  0  0  0  0
 37 35  2  0  0  0  0
 39 40  1  0  0  0  0
 41 42  1  6  0  0  0
 41 30  1  0  0  0  0
 41 39  1  0  0  0  0
 41 40  1  0  0  0  0
 43 42  1  0  0  0  0
M  END
>  <MODEL>
2

>  <REMARK>
 VINA RESULT:      -6.5      1.955      2.637
  Name = 
  12 active torsions:
  status: ('A' for Active; 'I' for Inactive)
    1  A    between atoms: C_1  and  N_34
    2  A    between atoms: C_1  and  C_35
    3  A    between atoms: C_2  and  C_27
    4  A    between atoms: C_8  and  C_30
    5  A    between atoms: C_11  and  C_22
    6  A    between atoms: C_11  and  C_36
    7  A    between atoms: C_21  and  C_30
    8  A    between atoms: C_27  and  C_30
    9  A    between atoms: O_29  and  C_31
   10  A    between atoms: O_29  and  C_36
   11  A    between atoms: C_31  and  C_40
   12  A    between atoms: N_34  and  C_38
                            x       y       z     vdW  Elec       q    Type
                         _______ _______ _______ _____ _____    ______ ____

>  <TORSDO>
F 12

$$$$
=
 OpenBabel11052416163D

 43 47  0  0  1  0  0  0  0  0999 V2000
  182.4600  177.5620  137.0390 C   0  0  0  0  0  0  0  0  0  0  0  0
  182.0880  177.8730  135.8740 O   0  0  0  0  0  0  0  0  0  0  0  0
  181.9280  178.2840  138.1710 N   0  0  0  0  0  0  0  0  0  0  0  0
  181.7550  178.4260  141.9000 O   0  0  0  0  0  0  0  0  0  0  0  0
  183.1230  178.5420  142.1550 C   0  0  0  0  0  0  0  0  0  0  0  0
  185.5160  178.7640  141.2110 C   0  0  0  0  0  2  0  0  0  0  0  0
  181.2510  178.3760  140.5630 C   0  0  2  0  0  3  0  0  0  0  0  0
  183.5490  178.8770  143.3730 C   0  0  0  0  0  3  0  0  0  0  0  0
  183.5330  178.7870  139.8170 O   0  0  0  0  0  0  0  0  0  0  0  0
  180.1280  177.3630  140.4820 C   0  0  0  0  0  1  0  0  0  0  0  0
  185.0080  179.0300  143.6760 C   0  0  2  0  0  3  0  0  0  0  0  0
  182.3660  178.0470  139.5470 C   0  0  2  0  0  3  0  0  0  0  0  0
  185.7150  179.6320  142.4610 C   0  0  0  0  0  2  0  0  0  0  0  0
  184.0720  178.2720  141.0080 C   0  0  2  0  0  3  0  0  0  0  0  0
  185.6330  177.6980  144.0700 C   0  0  0  0  0  2  0  0  0  0  0  0
  187.0960  177.8830  144.4290 C   0  0  0  0  0  2  0  0  0  0  0  0
  187.8350  176.7930  143.9690 O   0  0  0  0  0  0  0  0  0  0  0  0
  188.9730  177.3590  143.3900 C   0  0  0  0  0  2  0  0  0  0  0  0
  190.2470  175.4760  142.6670 O   0  0  0  0  0  1  0  0  0  0  0  0
  190.1800  176.4730  143.6410 C   0  0  0  0  0  2  0  0  0  0  0  0
  180.7680  179.1490  137.9930 C   0  0  0  0  0  2  0  0  0  0  0  0
  180.5900  182.2360  135.7160 C   0  0  0  0  0  2  0  0  0  0  0  0
  180.5930  183.3300  136.7880 C   0  0  0  0  0  0  0  0  0  0  0  0
  181.1410  184.6010  136.1750 C   0  0  0  0  0  1  0  0  0  0  0  0
  181.1180  181.5560  138.5250 C   0  0  0  0  0  2  0  0  0  0  0  0
  180.2180  180.8710  136.2980 C   0  0  0  0  0  2  0  0  0  0  0  0
  181.1750  180.4980  137.4240 C   0  0  0  0  0  3  0  0  0  0  0  0
  179.1780  183.6070  137.2730 C   0  0  0  0  0  1  0  0  0  0  0  0
  181.4910  182.9310  137.9640 C   0  0  0  0  0  2  0  0  0  0  0  0
  183.4400  176.4260  137.2150 C   0  0  1  0  0  3  0  0  0  0  0  0
  182.0600  172.7600  135.3940 C   0  0  0  0  0  0  0  0  0  0  0  0
  183.5020  173.8960  136.9820 C   0  0  0  0  0  0  0  0  0  0  0  0
  181.5390  173.9870  134.9820 C   0  0  0  0  0  3  0  0  0  0  0  0
  181.4920  171.2780  134.6550 Cl  0  0  0  0  0  0  0  0  0  0  0  0
  182.9580  175.1390  136.5900 C   0  0  0  0  0  0  0  0  0  0  0  0
  183.0430  172.7160  136.3880 C   0  0  0  0  0  3  0  0  0  0  0  0
  181.9860  175.1690  135.5780 C   0  0  0  0  0  3  0  0  0  0  0  0
  184.5960  173.8040  137.9900 C   0  0  0  0  0  1  0  0  0  0  0  0
  185.2490  178.0560  137.2620 O   0  0  0  0  0  0  0  0  0  0  0  0
  185.8650  176.9560  137.8950 C   0  0  0  0  0  2  0  0  0  0  0  0
  184.8800  176.7790  136.8100 C   0  0  1  0  0  0  0  0  0  0  0  0
  185.4380  176.5000  135.4200 C   0  0  0  0  0  2  0  0  0  0  0  0
  185.2920  177.6190  134.6040 O   0  0  0  0  0  1  0  0  0  0  0  0
  1  3  1  0  0  0  0
  2  1  2  0  0  0  0
  4  5  1  0  0  0  0
  5  8  2  0  0  0  0
  6 13  1  0  0  0  0
  7 10  1  1  0  0  0
  7  4  1  0  0  0  0
  8 11  1  0  0  0  0
  9 14  1  0  0  0  0
 11 15  1  6  0  0  0
 12  3  1  6  0  0  0
 12  9  1  0  0  0  0
 12  7  1  0  0  0  0
 13 11  1  0  0  0  0
 14  6  1  1  0  0  0
 14  5  1  0  0  0  0
 15 16  1  0  0  0  0
 17 16  1  0  0  0  0
 18 20  1  0  0  0  0
 18 17  1  0  0  0  0
 19 20  1  0  0  0  0
 21  3  1  0  0  0  0
 22 26  1  0  0  0  0
 22 23  1  0  0  0  0
 23 28  1  0  0  0  0
 23 29  1  0  0  0  0
 24 23  1  0  0  0  0
 26 27  1  0  0  0  0
 27 21  1  0  0  0  0
 27 25  1  0  0  0  0
 29 25  1  0  0  0  0
 30  1  1  6  0  0  0
 31 36  1  0  0  0  0
 32 38  1  0  0  0  0
 33 31  2  0  0  0  0
 33 37  1  0  0  0  0
 34 31  1  0  0  0  0
 35 32  1  0  0  0  0
 35 30  1  0  0  0  0
 36 32  2  0  0  0  0
 37 35  2  0  0  0  0
 39 40  1  0  0  0  0
 41 42  1  6  0  0  0
 41 30  1  0  0  0  0
 41 39  1  0  0  0  0
 41 40  1  0  0  0  0
 43 42  1  0  0  0  0
M  END
>  <MODEL>
3

>  <REMARK>
 VINA RESULT:      -6.4      1.927      2.314
  Name = 
  12 active torsions:
  status: ('A' for Active; 'I' for Inactive)
    1  A    between atoms: C_1  and  N_34
    2  A    between atoms: C_1  and  C_35
    3  A    between atoms: C_2  and  C_27
    4  A    between atoms: C_8  and  C_30
    5  A    between atoms: C_11  and  C_22
    6  A    between atoms: C_11  and  C_36
    7  A    between atoms: C_21  and  C_30
    8  A    between atoms: C_27  and  C_30
    9  A    between atoms: O_29  and  C_31
   10  A    between atoms: O_29  and  C_36
   11  A    between atoms: C_31  and  C_40
   12  A    between atoms: N_34  and  C_38
                            x       y       z     vdW  Elec       q    Type
                         _______ _______ _______ _____ _____    ______ ____

>  <TORSDO>
F 12

$$$$
=
 OpenBabel11052416163D

 43 47  0  0  1  0  0  0  0  0999 V2000
  182.7160  178.3960  138.0890 C   0  0  0  0  0  0  0  0  0  0  0  0
  182.0990  179.4160  138.5020 O   0  0  0  0  0  0  0  0  0  0  0  0
  184.1370  178.2840  138.3180 N   0  0  0  0  0  0  0  0  0  0  0  0
  186.1520  176.3830  135.8110 O   0  0  0  0  0  0  0  0  0  0  0  0
  185.7710  175.0950  136.1900 C   0  0  0  0  0  0  0  0  0  0  0  0
  184.3180  173.5990  137.7130 C   0  0  0  0  0  2  0  0  0  0  0  0
  185.6090  177.5380  136.4560 C   0  0  2  0  0  3  0  0  0  0  0  0
  186.0540  174.0570  135.4030 C   0  0  0  0  0  3  0  0  0  0  0  0
  184.1550  176.0170  137.6840 O   0  0  0  0  0  0  0  0  0  0  0  0
  186.6990  178.5720  136.6480 C   0  0  0  0  0  1  0  0  0  0  0  0
  185.6420  172.6630  135.7690 C   0  0  2  0  0  3  0  0  0  0  0  0
  184.9440  177.1780  137.8020 C   0  0  2  0  0  3  0  0  0  0  0  0
  184.2810  172.7070  136.4650 C   0  0  0  0  0  2  0  0  0  0  0  0
  185.0410  174.9420  137.5060 C   0  0  2  0  0  3  0  0  0  0  0  0
  186.6870  171.9920  136.6510 C   0  0  0  0  0  2  0  0  0  0  0  0
  188.0640  172.1070  136.0240 C   0  0  0  0  0  2  0  0  0  0  0  0
  188.9180  172.7980  136.8850 O   0  0  0  0  0  0  0  0  0  0  0  0
  189.6340  173.6610  136.0510 C   0  0  0  0  0  2  0  0  0  0  0  0
  190.8400  174.3450  137.9930 O   0  0  0  0  0  1  0  0  0  0  0  0
  190.1840  174.8240  136.8580 C   0  0  0  0  0  2  0  0  0  0  0  0
  184.7880  179.1840  139.2620 C   0  0  0  0  0  2  0  0  0  0  0  0
  186.4690  178.3950  142.6230 C   0  0  0  0  0  2  0  0  0  0  0  0
  185.2780  178.6420  143.5550 C   0  0  0  0  0  0  0  0  0  0  0  0
  185.4790  177.8310  144.8170 C   0  0  0  0  0  1  0  0  0  0  0  0
  183.7850  178.8300  141.5130 C   0  0  0  0  0  2  0  0  0  0  0  0
  186.2600  179.0360  141.2510 C   0  0  0  0  0  2  0  0  0  0  0  0
  184.9780  178.5140  140.6120 C   0  0  0  0  0  3  0  0  0  0  0  0
  185.1980  180.1110  143.9410 C   0  0  0  0  0  1  0  0  0  0  0  0
  183.9710  178.1930  142.8920 C   0  0  0  0  0  2  0  0  0  0  0  0
  181.9400  177.3090  137.3820 C   0  0  1  0  0  3  0  0  0  0  0  0
  179.7950  174.7560  140.1290 C   0  0  0  0  0  0  0  0  0  0  0  0
  180.8180  175.1020  137.9540 C   0  0  0  0  0  0  0  0  0  0  0  0
  180.1430  176.0550  140.5030 C   0  0  0  0  0  3  0  0  0  0  0  0
  178.9310  173.7250  141.2490 Cl  0  0  0  0  0  0  0  0  0  0  0  0
  181.1980  176.4070  138.3380 C   0  0  0  0  0  0  0  0  0  0  0  0
  180.1280  174.2840  138.8550 C   0  0  0  0  0  3  0  0  0  0  0  0
  180.8400  176.8740  139.6130 C   0  0  0  0  0  3  0  0  0  0  0  0
  181.0940  174.5770  136.5870 C   0  0  0  0  0  1  0  0  0  0  0  0
  181.6550  178.8840  135.5460 O   0  0  0  0  0  0  0  0  0  0  0  0
  181.5500  177.6550  134.8610 C   0  0  0  0  0  2  0  0  0  0  0  0
  181.0490  177.8240  136.2400 C   0  0  1  0  0  0  0  0  0  0  0  0
  179.5510  178.0500  136.4000 C   0  0  0  0  0  2  0  0  0  0  0  0
  179.3060  179.2950  136.9740 O   0  0  0  0  0  1  0  0  0  0  0  0
  1  3  1  0  0  0  0
  1  2  2  0  0  0  0
  3 21  1  0  0  0  0
  4  5  1  0  0  0  0
  4  7  1  0  0  0  0
  5 14  1  0  0  0  0
  7 10  1  1  0  0  0
  7 12  1  0  0  0  0
  8 11  1  0  0  0  0
  8  5  2  0  0  0  0
  9 12  1  0  0  0  0
 11 13  1  0  0  0  0
 11 15  1  1  0  0  0
 12  3  1  6  0  0  0
 13  6  1  0  0  0  0
 14  9  1  0  0  0  0
 14  6  1  6  0  0  0
 16 15  1  0  0  0  0
 16 17  1  0  0  0  0
 18 20  1  0  0  0  0
 18 17  1  0  0  0  0
 20 19  1  0  0  0  0
 21 27  1  0  0  0  0
 22 23  1  0  0  0  0
 23 28  1  0  0  0  0
 23 24  1  0  0  0  0
 25 29  1  0  0  0  0
 26 22  1  0  0  0  0
 27 26  1  0  0  0  0
 27 25  1  0  0  0  0
 29 23  1  0  0  0  0
 30  1  1  1  0  0  0
 30 35  1  0  0  0  0
 31 33  1  0  0  0  0
 31 34  1  0  0  0  0
 32 35  2  0  0  0  0
 32 36  1  0  0  0  0
 35 37  1  0  0  0  0
 36 31  2  0  0  0  0
 37 33  2  0  0  0  0
 38 32  1  0  0  0  0
 39 41  1  0  0  0  0
 40 39  1  0  0  0  0
 40 41  1  0  0  0  0
 41 42  1  1  0  0  0
 41 30  1  0  0  0  0
 42 43  1  0  0  0  0
M  END
>  <MODEL>
4

>  <REMARK>
 VINA RESULT:      -5.5      3.555      7.341
  Name = 
  12 active torsions:
  status: ('A' for Active; 'I' for Inactive)
    1  A    between atoms: C_1  and  N_34
    2  A    between atoms: C_1  and  C_35
    3  A    between atoms: C_2  and  C_27
    4  A    between atoms: C_8  and  C_30
    5  A    between atoms: C_11  and  C_22
    6  A    between atoms: C_11  and  C_36
    7  A    between atoms: C_21  and  C_30
    8  A    between atoms: C_27  and  C_30
    9  A    between atoms: O_29  and  C_31
   10  A    between atoms: O_29  and  C_36
   11  A    between atoms: C_31  and  C_40
   12  A    between atoms: N_34  and  C_38
                            x       y       z     vdW  Elec       q    Type
                         _______ _______ _______ _____ _____    ______ ____

>  <TORSDO>
F 12

$$$$
=
 OpenBabel11052416163D

 43 47  0  0  1  0  0  0  0  0999 V2000
  188.1880  175.5790  136.3000 C   0  0  0  0  0  0  0  0  0  0  0  0
  188.6490  175.2970  135.1600 O   0  0  0  0  0  0  0  0  0  0  0  0
  188.9130  176.4910  137.1530 N   0  0  0  0  0  0  0  0  0  0  0  0
  187.7060  178.6380  139.9630 O   0  0  0  0  0  0  0  0  0  0  0  0
  188.4180  178.0260  140.9960 C   0  0  0  0  0  0  0  0  0  0  0  0
  190.1370  176.2370  141.7130 C   0  0  0  0  0  2  0  0  0  0  0  0
  187.8480  178.2060  138.6060 C   0  0  2  0  0  3  0  0  0  0  0  0
  188.5010  178.6150  142.1890 C   0  0  0  0  0  3  0  0  0  0  0  0
  189.5940  176.7020  139.3960 O   0  0  0  0  0  0  0  0  0  0  0  0
  186.4950  178.2190  137.9260 C   0  0  0  0  0  1  0  0  0  0  0  0
  189.2730  177.9960  143.3140 C   0  0  2  0  0  3  0  0  0  0  0  0
  188.4970  176.8080  138.5190 C   0  0  2  0  0  3  0  0  0  0  0  0
  190.5140  177.3020  142.7520 C   0  0  0  0  0  2  0  0  0  0  0  0
  189.0710  176.6940  140.7000 C   0  0  2  0  0  3  0  0  0  0  0  0
  188.4110  177.0220  144.1050 C   0  0  0  0  0  2  0  0  0  0  0  0
  187.6050  177.7600  145.1590 C   0  0  0  0  0  2  0  0  0  0  0  0
  186.2460  177.4980  144.9810 O   0  0  0  0  0  0  0  0  0  0  0  0
  185.6600  178.7590  144.8420 C   0  0  0  0  0  2  0  0  0  0  0  0
  183.4140  179.2610  145.4690 O   0  0  0  0  0  1  0  0  0  0  0  0
  184.1880  178.6140  144.5050 C   0  0  0  0  0  2  0  0  0  0  0  0
  189.9950  177.2950  136.5960 C   0  0  0  0  0  2  0  0  0  0  0  0
  192.4590  174.5250  137.5940 C   0  0  0  0  0  2  0  0  0  0  0  0
  192.9520  174.1230  136.2000 C   0  0  0  0  0  0  0  0  0  0  0  0
  194.3310  173.5150  136.3350 C   0  0  0  0  0  1  0  0  0  0  0  0
  191.7360  176.1360  135.2460 C   0  0  0  0  0  2  0  0  0  0  0  0
  191.1490  175.3110  137.5290 C   0  0  0  0  0  2  0  0  0  0  0  0
  191.3160  176.5490  136.6560 C   0  0  0  0  0  3  0  0  0  0  0  0
  192.0290  173.0800  135.5880 C   0  0  0  0  0  1  0  0  0  0  0  0
  193.0500  175.3510  135.2870 C   0  0  0  0  0  2  0  0  0  0  0  0
  186.8770  174.9670  136.7300 C   0  0  1  0  0  3  0  0  0  0  0  0
  183.4640  177.1400  135.2150 C   0  0  0  0  0  0  0  0  0  0  0  0
  184.4120  175.5810  136.8170 C   0  0  0  0  0  0  0  0  0  0  0  0
  184.7090  177.2680  134.5970 C   0  0  0  0  0  3  0  0  0  0  0  0
  182.0870  178.0280  134.6000 Cl  0  0  0  0  0  0  0  0  0  0  0  0
  185.6800  175.7290  136.2130 C   0  0  0  0  0  0  0  0  0  0  0  0
  183.3160  176.2950  136.3200 C   0  0  0  0  0  3  0  0  0  0  0  0
  185.8090  176.5660  135.0940 C   0  0  0  0  0  3  0  0  0  0  0  0
  184.1910  174.6440  137.9550 C   0  0  0  0  0  1  0  0  0  0  0  0
  187.9780  172.7940  136.7720 O   0  0  0  0  0  0  0  0  0  0  0  0
  186.8820  172.5530  137.6270 C   0  0  0  0  0  2  0  0  0  0  0  0
  186.7790  173.4560  136.4620 C   0  0  1  0  0  0  0  0  0  0  0  0
  186.1360  172.8810  135.2070 C   0  0  0  0  0  2  0  0  0  0  0  0
  185.1330  171.9770  135.5450 O   0  0  0  0  0  1  0  0  0  0  0  0
  1  3  1  0  0  0  0
  2  1  2  0  0  0  0
  4  5  1  0  0  0  0
  5  8  2  0  0  0  0
  6 13  1  0  0  0  0
  7 10  1  1  0  0  0
  7  4  1  0  0  0  0
  8 11  1  0  0  0  0
  9 14  1  0  0  0  0
 11 15  1  6  0  0  0
 12  3  1  6  0  0  0
 12  7  1  0  0  0  0
 12  9  1  0  0  0  0
 13 11  1  0  0  0  0
 14  5  1  0  0  0  0
 14  6  1  1  0  0  0
 15 16  1  0  0  0  0
 17 16  1  0  0  0  0
 18 17  1  0  0  0  0
 20 18  1  0  0  0  0
 20 19  1  0  0  0  0
 21 27  1  0  0  0  0
 21  3  1  0  0  0  0
 23 24  1  0  0  0  0
 23 22  1  0  0  0  0
 25 29  1  0  0  0  0
 25 27  1  0  0  0  0
 26 22  1  0  0  0  0
 27 26  1  0  0  0  0
 28 23  1  0  0  0  0
 29 23  1  0  0  0  0
 30  1  1  6  0  0  0
 31 36  1  0  0  0  0
 32 38  1  0  0  0  0
 33 37  1  0  0  0  0
 33 31  2  0  0  0  0
 34 31  1  0  0  0  0
 35 30  1  0  0  0  0
 35 32  1  0  0  0  0
 36 32  2  0  0  0  0
 37 35  2  0  0  0  0
 39 40  1  0  0  0  0
 41 42  1  6  0  0  0
 41 30  1  0  0  0  0
 41 39  1  0  0  0  0
 41 40  1  0  0  0  0
 42 43  1  0  0  0  0
M  END
>  <MODEL>
5

>  <REMARK>
 VINA RESULT:      -5.3      5.052      8.279
  Name = 
  12 active torsions:
  status: ('A' for Active; 'I' for Inactive)
    1  A    between atoms: C_1  and  N_34
    2  A    between atoms: C_1  and  C_35
    3  A    between atoms: C_2  and  C_27
    4  A    between atoms: C_8  and  C_30
    5  A    between atoms: C_11  and  C_22
    6  A    between atoms: C_11  and  C_36
    7  A    between atoms: C_21  and  C_30
    8  A    between atoms: C_27  and  C_30
    9  A    between atoms: O_29  and  C_31
   10  A    between atoms: O_29  and  C_36
   11  A    between atoms: C_31  and  C_40
   12  A    between atoms: N_34  and  C_38
                            x       y       z     vdW  Elec       q    Type
                         _______ _______ _______ _____ _____    ______ ____

>  <TORSDO>
F 12

$$$$
=
 OpenBabel11052416163D

 43 47  0  0  1  0  0  0  0  0999 V2000
  191.0820  175.7670  137.2790 C   0  0  0  0  0  0  0  0  0  0  0  0
  192.0330  175.8630  138.1030 O   0  0  0  0  0  0  0  0  0  0  0  0
  189.8780  176.5340  137.4930 N   0  0  0  0  0  0  0  0  0  0  0  0
  187.2600  177.6850  135.0870 O   0  0  0  0  0  0  0  0  0  0  0  0
  186.1980  176.9240  135.5770 C   0  0  0  0  0  0  0  0  0  0  0  0
  185.3290  175.2570  137.3470 C   0  0  0  0  0  2  0  0  0  0  0  0
  188.5480  177.6480  135.7100 C   0  0  2  0  0  3  0  0  0  0  0  0
  184.9520  177.1840  135.1790 C   0  0  0  0  0  3  0  0  0  0  0  0
  187.5450  176.2380  137.4230 O   0  0  0  0  0  0  0  0  0  0  0  0
  189.6260  177.6590  134.6460 C   0  0  0  0  0  1  0  0  0  0  0  0
  183.7850  176.4000  135.6990 C   0  0  2  0  0  3  0  0  0  0  0  0
  188.6970  176.4220  136.6360 C   0  0  2  0  0  3  0  0  0  0  0  0
  184.0280  176.0510  137.1680 C   0  0  0  0  0  2  0  0  0  0  0  0
  186.5240  175.8170  136.5550 C   0  0  2  0  0  3  0  0  0  0  0  0
  183.5490  175.1450  134.8690 C   0  0  0  0  0  2  0  0  0  0  0  0
  182.2760  174.4470  135.3110 C   0  0  0  0  0  2  0  0  0  0  0  0
  182.4520  173.0640  135.2510 O   0  0  0  0  0  0  0  0  0  0  0  0
  182.5160  172.6600  136.5870 C   0  0  0  0  0  2  0  0  0  0  0  0
  184.0220  170.9740  135.8230 O   0  0  0  0  0  1  0  0  0  0  0  0
  183.8100  171.9060  136.8400 C   0  0  0  0  0  2  0  0  0  0  0  0
  189.8760  177.6170  138.4710 C   0  0  0  0  0  2  0  0  0  0  0  0
  189.9190  176.3560  142.0970 C   0  0  0  0  0  2  0  0  0  0  0  0
  189.0110  177.4140  142.7330 C   0  0  0  0  0  0  0  0  0  0  0  0
  188.3790  176.8200  143.9740 C   0  0  0  0  0  1  0  0  0  0  0  0
  188.4490  178.2560  140.4070 C   0  0  0  0  0  2  0  0  0  0  0  0
  190.4590  176.8120  140.7410 C   0  0  0  0  0  2  0  0  0  0  0  0
  189.3080  177.1490  139.8000 C   0  0  0  0  0  3  0  0  0  0  0  0
  189.8210  178.6330  143.1490 C   0  0  0  0  0  1  0  0  0  0  0  0
  187.8940  177.8190  141.7650 C   0  0  0  0  0  2  0  0  0  0  0  0
  191.2430  174.8640  136.0800 C   0  0  1  0  0  3  0  0  0  0  0  0
  195.2480  173.3000  135.6620 C   0  0  0  0  0  0  0  0  0  0  0  0
  193.6350  175.0650  135.2440 C   0  0  0  0  0  0  0  0  0  0  0  0
  194.2690  172.5560  136.3230 C   0  0  0  0  0  3  0  0  0  0  0  0
  196.8700  172.6620  135.5020 Cl  0  0  0  0  0  0  0  0  0  0  0  0
  192.6470  174.3290  135.9360 C   0  0  0  0  0  0  0  0  0  0  0  0
  194.9290  174.5490  135.1200 C   0  0  0  0  0  3  0  0  0  0  0  0
  192.9770  173.0690  136.4580 C   0  0  0  0  0  3  0  0  0  0  0  0
  193.3260  176.3700  134.5940 C   0  0  0  0  0  1  0  0  0  0  0  0
  189.1900  174.0720  135.0340 O   0  0  0  0  0  0  0  0  0  0  0  0
  190.0760  173.0230  134.7100 C   0  0  0  0  0  2  0  0  0  0  0  0
  190.1760  173.7610  135.9850 C   0  0  1  0  0  0  0  0  0  0  0  0
  189.5720  173.0900  137.2120 C   0  0  0  0  0  2  0  0  0  0  0  0
  188.2100  172.8690  137.0230 O   0  0  0  0  0  1  0  0  0  0  0  0
  1  3  1  0  0  0  0
  1  2  2  0  0  0  0
  3 21  1  0  0  0  0
  4  5  1  0  0  0  0
  4  7  1  0  0  0  0
  5 14  1  0  0  0  0
  7 10  1  6  0  0  0
  7 12  1  0  0  0  0
  8  5  2  0  0  0  0
  8 11  1  0  0  0  0
 11 15  1  6  0  0  0
 11 13  1  0  0  0  0
 12  9  1  0  0  0  0
 12  3  1  1  0  0  0
 13  6  1  0  0  0  0
 14  6  1  1  0  0  0
 14  9  1  0  0  0  0
 15 16  1  0  0  0  0
 17 16  1  0  0  0  0
 17 18  1  0  0  0  0
 18 20  1  0  0  0  0
 19 20  1  0  0  0  0
 21 27  1  0  0  0  0
 22 23  1  0  0  0  0
 23 28  1  0  0  0  0
 23 24  1  0  0  0  0
 25 29  1  0  0  0  0
 26 22  1  0  0  0  0
 27 25  1  0  0  0  0
 27 26  1  0  0  0  0
 29 23  1  0  0  0  0
 30  1  1  1  0  0  0
 31 33  1  0  0  0  0
 32 35  2  0  0  0  0
 33 37  2  0  0  0  0
 34 31  1  0  0  0  0
 35 30  1  0  0  0  0
 35 37  1  0  0  0  0
 36 32  1  0  0  0  0
 36 31  2  0  0  0  0
 38 32  1  0  0  0  0
 39 41  1  0  0  0  0
 40 39  1  0  0  0  0
 40 41  1  0  0  0  0
 41 30  1  0  0  0  0
 41 42  1  1  0  0  0
 43 42  1  0  0  0  0
M  END
>  <MODEL>
6

>  <REMARK>
 VINA RESULT:      -5.1      6.426     11.008
  Name = 
  12 active torsions:
  status: ('A' for Active; 'I' for Inactive)
    1  A    between atoms: C_1  and  N_34
    2  A    between atoms: C_1  and  C_35
    3  A    between atoms: C_2  and  C_27
    4  A    between atoms: C_8  and  C_30
    5  A    between atoms: C_11  and  C_22
    6  A    between atoms: C_11  and  C_36
    7  A    between atoms: C_21  and  C_30
    8  A    between atoms: C_27  and  C_30
    9  A    between atoms: O_29  and  C_31
   10  A    between atoms: O_29  and  C_36
   11  A    between atoms: C_31  and  C_40
   12  A    between atoms: N_34  and  C_38
                            x       y       z     vdW  Elec       q    Type
                         _______ _______ _______ _____ _____    ______ ____

>  <TORSDO>
F 12

$$$$
=
 OpenBabel11052416163D

 43 47  0  0  1  0  0  0  0  0999 V2000
  183.0050  179.4020  138.6100 C   0  0  0  0  0  0  0  0  0  0  0  0
  183.6010  180.4760  138.8970 O   0  0  0  0  0  0  0  0  0  0  0  0
  183.7730  178.2530  138.1920 N   0  0  0  0  0  0  0  0  0  0  0  0
  181.7100  175.9990  136.0420 O   0  0  0  0  0  0  0  0  0  0  0  0
  181.2290  175.1570  137.0460 C   0  0  0  0  0  0  0  0  0  0  0  0
  181.1090  174.5960  139.5640 C   0  0  0  0  0  2  0  0  0  0  0  0
  182.5530  177.1140  136.3480 C   0  0  2  0  0  3  0  0  0  0  0  0
  180.2280  174.3150  136.7890 C   0  0  0  0  0  3  0  0  0  0  0  0
  182.1910  176.5850  138.6980 O   0  0  0  0  0  0  0  0  0  0  0  0
  183.6390  177.2310  135.2990 C   0  0  0  0  0  1  0  0  0  0  0  0
  179.6740  173.4120  137.8490 C   0  0  2  0  0  3  0  0  0  0  0  0
  183.1600  176.9960  137.7620 C   0  0  2  0  0  3  0  0  0  0  0  0
  179.6920  174.1410  139.1920 C   0  0  0  0  0  2  0  0  0  0  0  0
  181.8880  175.2460  138.4060 C   0  0  2  0  0  3  0  0  0  0  0  0
  180.4550  172.1060  137.9240 C   0  0  0  0  0  2  0  0  0  0  0  0
  180.9410  171.6970  136.5450 C   0  0  0  0  0  2  0  0  0  0  0  0
  182.2930  171.3580  136.6040 O   0  0  0  0  0  0  0  0  0  0  0  0
  182.8980  172.1560  135.6300 C   0  0  0  0  0  2  0  0  0  0  0  0
  184.1990  172.6180  137.5760 O   0  0  0  0  0  1  0  0  0  0  0  0
  184.1510  172.8020  136.1930 C   0  0  0  0  0  2  0  0  0  0  0  0
  185.2190  178.2430  138.3840 C   0  0  0  0  0  2  0  0  0  0  0  0
  187.7330  177.9240  135.4990 C   0  0  0  0  0  2  0  0  0  0  0  0
  188.3620  176.5770  135.8720 C   0  0  0  0  0  0  0  0  0  0  0  0
  188.9150  175.9420  134.6150 C   0  0  0  0  0  1  0  0  0  0  0  0
  186.5660  176.2860  137.6400 C   0  0  0  0  0  2  0  0  0  0  0  0
  186.9920  178.5520  136.6810 C   0  0  0  0  0  2  0  0  0  0  0  0
  185.9210  177.6000  137.2010 C   0  0  0  0  0  3  0  0  0  0  0  0
  189.5110  176.7770  136.8490 C   0  0  0  0  0  1  0  0  0  0  0  0
  187.3090  175.6370  136.4700 C   0  0  0  0  0  2  0  0  0  0  0  0
  181.5010  179.3460  138.7320 C   0  0  1  0  0  3  0  0  0  0  0  0
  180.2000  178.3080  142.7190 C   0  0  0  0  0  0  0  0  0  0  0  0
  179.8360  178.2640  140.3190 C   0  0  0  0  0  0  0  0  0  0  0  0
  181.3790  179.0310  142.5310 C   0  0  0  0  0  3  0  0  0  0  0  0
  179.6820  177.8860  144.3370 Cl  0  0  0  0  0  0  0  0  0  0  0  0
  181.0430  178.9710  140.1210 C   0  0  0  0  0  0  0  0  0  0  0  0
  179.4290  177.9300  141.6150 C   0  0  0  0  0  3  0  0  0  0  0  0
  181.7960  179.3600  141.2400 C   0  0  0  0  0  3  0  0  0  0  0  0
  178.9480  177.8970  139.1800 C   0  0  0  0  0  1  0  0  0  0  0  0
  181.2380  180.9320  136.9030 O   0  0  0  0  0  0  0  0  0  0  0  0
  179.9270  180.4180  137.0000 C   0  0  0  0  0  2  0  0  0  0  0  0
  180.7860  180.5930  138.1890 C   0  0  1  0  0  0  0  0  0  0  0  0
  180.5370  181.8360  139.0340 C   0  0  0  0  0  2  0  0  0  0  0  0
  179.3470  181.7080  139.7460 O   0  0  0  0  0  1  0  0  0  0  0  0
  1  2  2  0  0  0  0
  3 21  1  0  0  0  0
  3  1  1  0  0  0  0
  4  7  1  0  0  0  0
  4  5  1  0  0  0  0
  5 14  1  0  0  0  0
  7 10  1  6  0  0  0
  7 12  1  0  0  0  0
  8  5  2  0  0  0  0
  8 11  1  0  0  0  0
 11 15  1  1  0  0  0
 11 13  1  0  0  0  0
 12  3  1  1  0  0  0
 12  9  1  0  0  0  0
 13  6  1  0  0  0  0
 14  9  1  0  0  0  0
 14  6  1  1  0  0  0
 16 17  1  0  0  0  0
 16 15  1  0  0  0  0
 18 20  1  0  0  0  0
 18 17  1  0  0  0  0
 20 19  1  0  0  0  0
 22 23  1  0  0  0  0
 22 26  1  0  0  0  0
 23 29  1  0  0  0  0
 23 28  1  0  0  0  0
 24 23  1  0  0  0  0
 26 27  1  0  0  0  0
 27 25  1  0  0  0  0
 27 21  1  0  0  0  0
 29 25  1  0  0  0  0
 30  1  1  1  0  0  0
 30 35  1  0  0  0  0
 31 34  1  0  0  0  0
 32 36  1  0  0  0  0
 33 31  1  0  0  0  0
 35 32  2  0  0  0  0
 35 37  1  0  0  0  0
 36 31  2  0  0  0  0
 37 33  2  0  0  0  0
 38 32  1  0  0  0  0
 39 40  1  0  0  0  0
 39 41  1  0  0  0  0
 40 41  1  0  0  0  0
 41 30  1  0  0  0  0
 41 42  1  1  0  0  0
 42 43  1  0  0  0  0
M  END
>  <MODEL>
7

>  <REMARK>
 VINA RESULT:      -5.1      3.950      8.203
  Name = 
  12 active torsions:
  status: ('A' for Active; 'I' for Inactive)
    1  A    between atoms: C_1  and  N_34
    2  A    between atoms: C_1  and  C_35
    3  A    between atoms: C_2  and  C_27
    4  A    between atoms: C_8  and  C_30
    5  A    between atoms: C_11  and  C_22
    6  A    between atoms: C_11  and  C_36
    7  A    between atoms: C_21  and  C_30
    8  A    between atoms: C_27  and  C_30
    9  A    between atoms: O_29  and  C_31
   10  A    between atoms: O_29  and  C_36
   11  A    between atoms: C_31  and  C_40
   12  A    between atoms: N_34  and  C_38
                            x       y       z     vdW  Elec       q    Type
                         _______ _______ _______ _____ _____    ______ ____

>  <TORSDO>
F 12

$$$$
=
 OpenBabel11052416163D

 43 47  0  0  1  0  0  0  0  0999 V2000
  185.9470  177.8490  137.3770 C   0  0  0  0  0  0  0  0  0  0  0  0
  185.2470  178.2990  136.4280 O   0  0  0  0  0  0  0  0  0  0  0  0
  185.7420  178.3540  138.7140 N   0  0  0  0  0  0  0  0  0  0  0  0
  187.2990  178.6470  142.0970 O   0  0  0  0  0  0  0  0  0  0  0  0
  188.5120  178.0190  141.8090 C   0  0  0  0  0  0  0  0  0  0  0  0
  190.0380  176.9040  140.0490 C   0  0  0  0  0  2  0  0  0  0  0  0
  186.3070  178.8460  141.0860 C   0  0  2  0  0  3  0  0  0  0  0  0
  189.5270  178.1000  142.6690 C   0  0  0  0  0  3  0  0  0  0  0  0
  187.9250  177.9550  139.4970 O   0  0  0  0  0  0  0  0  0  0  0  0
  184.9320  178.5900  141.6670 C   0  0  0  0  0  1  0  0  0  0  0  0
  190.8490  177.4550  142.3830 C   0  0  2  0  0  3  0  0  0  0  0  0
  186.5630  177.9490  139.8550 C   0  0  2  0  0  3  0  0  0  0  0  0
  191.1460  177.5580  140.8860 C   0  0  0  0  0  2  0  0  0  0  0  0
  188.6110  177.2580  140.5040 C   0  0  2  0  0  3  0  0  0  0  0  0
  190.8660  176.0040  142.8460 C   0  0  0  0  0  2  0  0  0  0  0  0
  191.6710  175.8650  144.1250 C   0  0  0  0  0  2  0  0  0  0  0  0
  191.6380  177.0660  144.8350 O   0  0  0  0  0  0  0  0  0  0  0  0
  191.4610  176.6820  146.1670 C   0  0  0  0  0  2  0  0  0  0  0  0
  189.4100  176.3860  147.3490 O   0  0  0  0  0  1  0  0  0  0  0  0
  190.2210  177.3440  146.7380 C   0  0  0  0  0  2  0  0  0  0  0  0
  184.5540  179.1470  139.0100 C   0  0  0  0  0  2  0  0  0  0  0  0
  181.9230  176.3580  138.7970 C   0  0  0  0  0  2  0  0  0  0  0  0
  180.6650  177.1880  139.0730 C   0  0  0  0  0  0  0  0  0  0  0  0
  179.4790  176.4830  138.4510 C   0  0  0  0  0  1  0  0  0  0  0  0
  182.0720  179.2900  138.8790 C   0  0  0  0  0  2  0  0  0  0  0  0
  183.1940  177.0870  139.2360 C   0  0  0  0  0  2  0  0  0  0  0  0
  183.2950  178.4400  138.5390 C   0  0  0  0  0  3  0  0  0  0  0  0
  180.4200  177.3030  140.5700 C   0  0  0  0  0  1  0  0  0  0  0  0
  180.7880  178.5800  138.4430 C   0  0  0  0  0  2  0  0  0  0  0  0
  186.9680  176.7750  137.0850 C   0  0  1  0  0  3  0  0  0  0  0  0
  185.1630  172.9020  136.4530 C   0  0  0  0  0  0  0  0  0  0  0  0
  187.0890  174.2370  137.0870 C   0  0  0  0  0  0  0  0  0  0  0  0
  184.4300  174.0650  136.2150 C   0  0  0  0  0  3  0  0  0  0  0  0
  184.4230  171.3360  136.2010 Cl  0  0  0  0  0  0  0  0  0  0  0  0
  186.3430  175.4180  136.8750 C   0  0  0  0  0  0  0  0  0  0  0  0
  186.4910  172.9890  136.8840 C   0  0  0  0  0  3  0  0  0  0  0  0
  185.0180  175.3150  136.4240 C   0  0  0  0  0  3  0  0  0  0  0  0
  188.5250  174.2790  137.4840 C   0  0  0  0  0  1  0  0  0  0  0  0
  187.9300  176.2260  134.9150 O   0  0  0  0  0  0  0  0  0  0  0  0
  187.4010  177.5070  134.6540 C   0  0  0  0  0  2  0  0  0  0  0  0
  187.9620  177.1490  135.9730 C   0  0  1  0  0  0  0  0  0  0  0  0
  189.3840  177.6150  136.2590 C   0  0  0  0  0  2  0  0  0  0  0  0
  189.3720  178.8800  136.8420 O   0  0  0  0  0  1  0  0  0  0  0  0
  1  3  1  0  0  0  0
  2  1  2  0  0  0  0
  3 21  1  0  0  0  0
  5  4  1  0  0  0  0
  5  8  2  0  0  0  0
  6 13  1  0  0  0  0
  7 10  1  1  0  0  0
  7  4  1  0  0  0  0
  9 12  1  0  0  0  0
  9 14  1  0  0  0  0
 11  8  1  0  0  0  0
 11 15  1  6  0  0  0
 12  3  1  6  0  0  0
 12  7  1  0  0  0  0
 13 11  1  0  0  0  0
 14  6  1  6  0  0  0
 14  5  1  0  0  0  0
 15 16  1  0  0  0  0
 16 17  1  0  0  0  0
 17 18  1  0  0  0  0
 18 20  1  0  0  0  0
 20 19  1  0  0  0  0
 22 23  1  0  0  0  0
 22 26  1  0  0  0  0
 23 28  1  0  0  0  0
 24 23  1  0  0  0  0
 27 25  1  0  0  0  0
 27 21  1  0  0  0  0
 27 26  1  0  0  0  0
 29 25  1  0  0  0  0
 29 23  1  0  0  0  0
 30  1  1  6  0  0  0
 31 36  1  0  0  0  0
 32 38  1  0  0  0  0
 33 37  1  0  0  0  0
 33 31  2  0  0  0  0
 34 31  1  0  0  0  0
 35 30  1  0  0  0  0
 35 32  1  0  0  0  0
 36 32  2  0  0  0  0
 37 35  2  0  0  0  0
 39 41  1  0  0  0  0
 40 39  1  0  0  0  0
 40 41  1  0  0  0  0
 41 42  1  1  0  0  0
 41 30  1  0  0  0  0
 42 43  1  0  0  0  0
M  END
>  <MODEL>
8

>  <REMARK>
 VINA RESULT:      -5.1      3.612      5.566
  Name = 
  12 active torsions:
  status: ('A' for Active; 'I' for Inactive)
    1  A    between atoms: C_1  and  N_34
    2  A    between atoms: C_1  and  C_35
    3  A    between atoms: C_2  and  C_27
    4  A    between atoms: C_8  and  C_30
    5  A    between atoms: C_11  and  C_22
    6  A    between atoms: C_11  and  C_36
    7  A    between atoms: C_21  and  C_30
    8  A    between atoms: C_27  and  C_30
    9  A    between atoms: O_29  and  C_31
   10  A    between atoms: O_29  and  C_36
   11  A    between atoms: C_31  and  C_40
   12  A    between atoms: N_34  and  C_38
                            x       y       z     vdW  Elec       q    Type
                         _______ _______ _______ _____ _____    ______ ____

>  <TORSDO>
F 12

$$$$
=
 OpenBabel11052416163D

 43 47  0  0  1  0  0  0  0  0999 V2000
  180.2590  178.1690  138.9170 C   0  0  0  0  0  0  0  0  0  0  0  0
  179.4680  177.9300  137.9630 O   0  0  0  0  0  0  0  0  0  0  0  0
  180.0700  177.4960  140.1810 N   0  0  0  0  0  0  0  0  0  0  0  0
  181.2490  179.4080  143.1660 O   0  0  0  0  0  0  0  0  0  0  0  0
  182.6030  179.0760  143.0890 C   0  0  0  0  0  0  0  0  0  0  0  0
  184.4920  177.8640  141.8110 C   0  0  0  0  0  2  0  0  0  0  0  0
  180.3140  178.9480  142.1860 C   0  0  2  0  0  3  0  0  0  0  0  0
  183.4960  179.7380  143.8250 C   0  0  0  0  0  3  0  0  0  0  0  0
  182.2190  178.0220  140.9820 O   0  0  0  0  0  0  0  0  0  0  0  0
  179.0200  178.5540  142.8660 C   0  0  0  0  0  1  0  0  0  0  0  0
  184.9590  179.4210  143.7510 C   0  0  2  0  0  3  0  0  0  0  0  0
  180.8860  177.7740  141.3630 C   0  0  2  0  0  3  0  0  0  0  0  0
  185.3220  179.0530  142.3120 C   0  0  0  0  0  2  0  0  0  0  0  0
  182.9930  177.9530  142.1520 C   0  0  2  0  0  3  0  0  0  0  0  0
  185.3300  178.3010  144.7140 C   0  0  0  0  0  2  0  0  0  0  0  0
  185.1560  178.7560  146.1510 C   0  0  0  0  0  2  0  0  0  0  0  0
  186.4040  179.0260  146.7140 O   0  0  0  0  0  0  0  0  0  0  0  0
  186.9890  177.7690  146.8900 C   0  0  0  0  0  2  0  0  0  0  0  0
  188.8790  178.6100  148.0780 O   0  0  0  0  0  1  0  0  0  0  0  0
  187.7890  177.7450  148.1800 C   0  0  0  0  0  2  0  0  0  0  0  0
  179.1710  176.3500  140.2610 C   0  0  0  0  0  2  0  0  0  0  0  0
  179.5960  173.1460  138.1880 C   0  0  0  0  0  2  0  0  0  0  0  0
  180.9560  173.4470  137.5500 C   0  0  0  0  0  0  0  0  0  0  0  0
  181.6220  172.1350  137.1970 C   0  0  0  0  0  1  0  0  0  0  0  0
  181.1750  175.4550  139.0860 C   0  0  0  0  0  2  0  0  0  0  0  0
  178.9330  174.4100  138.7380 C   0  0  0  0  0  2  0  0  0  0  0  0
  179.8480  175.0900  139.7500 C   0  0  0  0  0  3  0  0  0  0  0  0
  180.7790  174.2500  136.2700 C   0  0  0  0  0  1  0  0  0  0  0  0
  181.8590  174.2020  138.5330 C   0  0  0  0  0  2  0  0  0  0  0  0
  181.3950  179.1390  138.6990 C   0  0  1  0  0  3  0  0  0  0  0  0
  184.7540  177.3310  136.6720 C   0  0  0  0  0  0  0  0  0  0  0  0
  183.8930  178.9420  138.2710 C   0  0  0  0  0  0  0  0  0  0  0  0
  183.4540  176.9160  136.3820 C   0  0  0  0  0  3  0  0  0  0  0  0
  186.1110  176.5900  135.8510 Cl  0  0  0  0  0  0  0  0  0  0  0  0
  182.5760  178.5070  138.0020 C   0  0  0  0  0  0  0  0  0  0  0  0
  184.9720  178.3450  137.6110 C   0  0  0  0  0  3  0  0  0  0  0  0
  182.3720  177.5020  137.0440 C   0  0  0  0  0  3  0  0  0  0  0  0
  184.1700  180.0620  139.2140 C   0  0  0  0  0  1  0  0  0  0  0  0
  179.8650  181.0350  138.7150 O   0  0  0  0  0  0  0  0  0  0  0  0
  181.1050  181.6920  138.8630 C   0  0  0  0  0  2  0  0  0  0  0  0
  180.9650  180.4650  138.0520 C   0  0  1  0  0  0  0  0  0  0  0  0
  180.8600  180.6510  136.5440 C   0  0  0  0  0  2  0  0  0  0  0  0
  179.5250  180.6970  136.1520 O   0  0  0  0  0  1  0  0  0  0  0  0
  1  3  1  0  0  0  0
  2  1  2  0  0  0  0
  3 21  1  0  0  0  0
  5  4  1  0  0  0  0
  5  8  2  0  0  0  0
  6 13  1  0  0  0  0
  7 10  1  1  0  0  0
  7  4  1  0  0  0  0
  9 12  1  0  0  0  0
  9 14  1  0  0  0  0
 11  8  1  0  0  0  0
 11 15  1  1  0  0  0
 12  3  1  6  0  0  0
 12  7  1  0  0  0  0
 13 11  1  0  0  0  0
 14  6  1  6  0  0  0
 14  5  1  0  0  0  0
 15 16  1  0  0  0  0
 16 17  1  0  0  0  0
 17 18  1  0  0  0  0
 18 20  1  0  0  0  0
 19 20  1  0  0  0  0
 22 26  1  0  0  0  0
 23 22  1  0  0  0  0
 23 29  1  0  0  0  0
 24 23  1  0  0  0  0
 25 27  1  0  0  0  0
 26 27  1  0  0  0  0
 27 21  1  0  0  0  0
 28 23  1  0  0  0  0
 29 25  1  0  0  0  0
 30  1  1  6  0  0  0
 31 36  1  0  0  0  0
 32 38  1  0  0  0  0
 33 31  2  0  0  0  0
 33 37  1  0  0  0  0
 34 31  1  0  0  0  0
 35 32  1  0  0  0  0
 35 30  1  0  0  0  0
 36 32  2  0  0  0  0
 37 35  2  0  0  0  0
 39 40  1  0  0  0  0
 41 42  1  6  0  0  0
 41 30  1  0  0  0  0
 41 39  1  0  0  0  0
 41 40  1  0  0  0  0
 43 42  1  0  0  0  0
M  END
>  <MODEL>
9

>  <REMARK>
 VINA RESULT:      -5.0      2.282      5.241
  Name = 
  12 active torsions:
  status: ('A' for Active; 'I' for Inactive)
    1  A    between atoms: C_1  and  N_34
    2  A    between atoms: C_1  and  C_35
    3  A    between atoms: C_2  and  C_27
    4  A    between atoms: C_8  and  C_30
    5  A    between atoms: C_11  and  C_22
    6  A    between atoms: C_11  and  C_36
    7  A    between atoms: C_21  and  C_30
    8  A    between atoms: C_27  and  C_30
    9  A    between atoms: O_29  and  C_31
   10  A    between atoms: O_29  and  C_36
   11  A    between atoms: C_31  and  C_40
   12  A    between atoms: N_34  and  C_38
                            x       y       z     vdW  Elec       q    Type
                         _______ _______ _______ _____ _____    ______ ____

>  <TORSDO>
F 12

$$$$
