=
 OpenBabel11052416493D

 32 38  0  0  1  0  0  0  0  0999 V2000
  183.3180  179.3670  145.0880 C   0  0  0  0  0  2  0  0  0  0  0  0
  187.6920  177.6790  143.1200 C   0  0  0  0  0  0  0  0  0  0  0  0
  190.6990  176.8250  146.8800 C   0  0  0  0  0  3  0  0  0  0  0  0
  191.7390  176.5550  145.9880 C   0  0  0  0  0  3  0  0  0  0  0  0
  188.9550  177.4310  140.7850 C   0  0  0  0  0  0  0  0  0  0  0  0
  188.2460  177.8760  139.7290 C   0  0  0  0  0  0  0  0  0  0  0  0
  185.3270  178.2000  143.4370 C   0  0  0  0  0  0  0  0  0  0  0  0
  186.7560  177.7630  145.4800 C   0  0  0  0  0  3  0  0  0  0  0  0
  190.9310  176.8540  139.2810 C   0  0  0  0  0  0  0  0  0  0  0  0
  184.4480  178.6130  145.7760 C   0  0  0  0  0  2  0  0  0  0  0  0
  189.4350  177.1790  146.4000 C   0  0  0  0  0  3  0  0  0  0  0  0
  187.9120  177.6050  144.5190 C   0  0  0  0  0  0  0  0  0  0  0  0
  189.1960  177.2740  145.0190 C   0  0  0  0  0  0  0  0  0  0  0  0
  190.0170  177.0910  142.7520 C   0  0  0  0  0  0  0  0  0  0  0  0
  190.2010  177.1980  138.2170 C   0  0  0  0  0  3  0  0  0  0  0  0
  185.5490  178.3140  144.8600 N   0  0  0  0  0  0  0  0  0  0  0  0
  188.7490  177.6240  138.3200 C   0  0  0  0  0  3  0  0  0  0  0  0
  184.0100  178.5650  142.8230 C   0  0  0  0  0  2  0  0  0  0  0  0
  182.8830  178.5860  143.8570 C   0  0  2  0  0  3  0  0  0  0  0  0
  191.5200  176.6410  144.6110 C   0  0  0  0  0  3  0  0  0  0  0  0
  190.2590  177.0010  144.1220 C   0  0  0  0  0  0  0  0  0  0  0  0
  190.9550  176.7790  141.7240 N   0  0  0  0  0  0  0  0  0  0  0  0
  186.3380  177.9210  142.6210 C   0  0  0  0  0  3  0  0  0  0  0  0
  186.7610  178.8000  139.8500 Cl  0  0  0  0  0  0  0  0  0  0  0  0
  192.3490  176.4370  139.1050 C   0  0  0  0  0  1  0  0  0  0  0  0
  188.7840  177.4730  142.2520 C   0  0  0  0  0  0  0  0  0  0  0  0
  190.3230  176.9540  140.6100 C   0  0  0  0  0  0  0  0  0  0  0  0
  179.2840  178.5080  142.9630 C   0  0  0  0  0  2  0  0  0  0  0  0
  181.5770  179.1510  143.2910 C   0  0  0  0  0  3  0  0  0  0  0  0
  180.0040  178.2550  141.6560 C   0  0  0  0  0  2  0  0  0  0  0  0
  181.3860  178.8640  141.8070 C   0  0  0  0  0  2  0  0  0  0  0  0
  180.3690  178.5810  144.0100 C   0  0  0  0  0  2  0  0  0  0  0  0
  1 10  1  0  0  0  0
  2 12  1  0  0  0  0
  4  3  2  0  0  0  0
  5 26  1  0  0  0  0
  6 24  1  0  0  0  0
  6  5  2  0  0  0  0
  7 16  1  0  0  0  0
  9 27  2  0  0  0  0
 11  3  1  0  0  0  0
 12 13  1  0  0  0  0
 12  8  2  0  0  0  0
 13 11  2  0  0  0  0
 14 21  1  0  0  0  0
 15 17  2  0  0  0  0
 15  9  1  0  0  0  0
 16  8  1  0  0  0  0
 16 10  1  0  0  0  0
 17  6  1  0  0  0  0
 18  7  1  0  0  0  0
 18 19  1  0  0  0  0
 19 29  1  6  0  0  0
 19  1  1  0  0  0  0
 20  4  1  0  0  0  0
 21 20  2  0  0  0  0
 21 13  1  0  0  0  0
 22 14  2  0  0  0  0
 23  2  1  0  0  0  0
 23  7  2  0  0  0  0
 25  9  1  0  0  0  0
 26 14  1  0  0  0  0
 26  2  2  0  0  0  0
 27  5  1  0  0  0  0
 27 22  1  0  0  0  0
 28 32  1  0  0  0  0
 29 32  1  0  0  0  0
 30 31  1  0  0  0  0
 30 28  1  0  0  0  0
 31 29  1  0  0  0  0
M  END
>  <MODEL>
1

>  <REMARK>
 VINA RESULT:     -12.3      0.000      0.000
  Name = 
  1 active torsions:
  status: ('A' for Active; 'I' for Inactive)
    1  A    between atoms: C_10  and  C_24
                            x       y       z     vdW  Elec       q    Type
                         _______ _______ _______ _____ _____    ______ ____

>  <TORSDO>
F 1

$$$$
=
 OpenBabel11052416493D

 32 38  0  0  1  0  0  0  0  0999 V2000
  189.4290  178.0460  137.7050 C   0  0  0  0  0  2  0  0  0  0  0  0
  188.0120  177.7590  142.5800 C   0  0  0  0  0  0  0  0  0  0  0  0
  183.3000  179.0560  142.7610 C   0  0  0  0  0  3  0  0  0  0  0  0
  183.3390  179.0030  144.1560 C   0  0  0  0  0  3  0  0  0  0  0  0
  189.0390  177.4680  145.0230 C   0  0  0  0  0  0  0  0  0  0  0  0
  190.3800  177.3390  145.0410 C   0  0  0  0  0  0  0  0  0  0  0  0
  189.1780  177.3870  140.4660 C   0  0  0  0  0  0  0  0  0  0  0  0
  186.7330  178.0360  140.4020 C   0  0  0  0  0  3  0  0  0  0  0  0
  188.9410  177.3570  147.5670 C   0  0  0  0  0  0  0  0  0  0  0  0
  188.0250  177.9740  138.2890 C   0  0  0  0  0  2  0  0  0  0  0  0
  184.4470  178.7680  142.0140 C   0  0  0  0  0  3  0  0  0  0  0  0
  186.8130  178.1120  141.9100 C   0  0  0  0  0  0  0  0  0  0  0  0
  185.6500  178.4310  142.6550 C   0  0  0  0  0  0  0  0  0  0  0  0
  186.8750  178.0440  144.7040 C   0  0  0  0  0  0  0  0  0  0  0  0
  190.2560  177.1280  147.5920 C   0  0  0  0  0  3  0  0  0  0  0  0
  188.0390  177.9140  139.7510 N   0  0  0  0  0  0  0  0  0  0  0  0
  191.0860  176.9730  146.3320 C   0  0  0  0  0  3  0  0  0  0  0  0
  190.4580  177.0580  139.7580 C   0  0  0  0  0  2  0  0  0  0  0  0
  190.2510  176.8880  138.2520 C   0  0  2  0  0  3  0  0  0  0  0  0
  184.5260  178.6660  144.8110 C   0  0  0  0  0  3  0  0  0  0  0  0
  185.6800  178.3840  144.0720 C   0  0  0  0  0  0  0  0  0  0  0  0
  187.0510  177.8830  146.1090 N   0  0  0  0  0  0  0  0  0  0  0  0
  189.1710  177.3340  141.7940 C   0  0  0  0  0  3  0  0  0  0  0  0
  191.4220  177.6190  143.6600 Cl  0  0  0  0  0  0  0  0  0  0  0  0
  188.1860  177.4910  148.8440 C   0  0  0  0  0  1  0  0  0  0  0  0
  188.0330  177.7890  143.9890 C   0  0  0  0  0  0  0  0  0  0  0  0
  188.2840  177.5290  146.2700 C   0  0  0  0  0  0  0  0  0  0  0  0
  193.0310  175.0500  136.6260 C   0  0  0  0  0  2  0  0  0  0  0  0
  191.5720  176.7530  137.4890 C   0  0  0  0  0  3  0  0  0  0  0  0
  193.5900  175.4690  137.9680 C   0  0  0  0  0  2  0  0  0  0  0  0
  192.7920  176.6860  138.3990 C   0  0  0  0  0  2  0  0  0  0  0  0
  191.5910  175.5030  136.6330 C   0  0  0  0  0  2  0  0  0  0  0  0
  1 19  1  0  0  0  0
  1 10  1  0  0  0  0
  2 26  2  0  0  0  0
  3  4  1  0  0  0  0
  4 20  2  0  0  0  0
  5  6  2  0  0  0  0
  5 27  1  0  0  0  0
  6 17  1  0  0  0  0
  7 23  2  0  0  0  0
  8 12  2  0  0  0  0
  9 15  1  0  0  0  0
  9 25  1  0  0  0  0
 10 16  1  0  0  0  0
 11 13  1  0  0  0  0
 11  3  2  0  0  0  0
 12  2  1  0  0  0  0
 12 13  1  0  0  0  0
 13 21  2  0  0  0  0
 14 22  2  0  0  0  0
 16  8  1  0  0  0  0
 16  7  1  0  0  0  0
 17 15  2  0  0  0  0
 18  7  1  0  0  0  0
 19 29  1  6  0  0  0
 19 18  1  0  0  0  0
 21 14  1  0  0  0  0
 21 20  1  0  0  0  0
 22 27  1  0  0  0  0
 23  2  1  0  0  0  0
 24  6  1  0  0  0  0
 26 14  1  0  0  0  0
 26  5  1  0  0  0  0
 27  9  2  0  0  0  0
 28 32  1  0  0  0  0
 28 30  1  0  0  0  0
 29 31  1  0  0  0  0
 30 31  1  0  0  0  0
 32 29  1  0  0  0  0
M  END
>  <MODEL>
2

>  <REMARK>
 VINA RESULT:     -12.2      1.933      8.196
  Name = 
  1 active torsions:
  status: ('A' for Active; 'I' for Inactive)
    1  A    between atoms: C_10  and  C_24
                            x       y       z     vdW  Elec       q    Type
                         _______ _______ _______ _____ _____    ______ ____

>  <TORSDO>
F 1

$$$$
=
 OpenBabel11052416493D

 32 38  0  0  1  0  0  0  0  0999 V2000
  190.4660  176.9170  137.9550 C   0  0  0  0  0  2  0  0  0  0  0  0
  188.5230  177.6470  142.5970 C   0  0  0  0  0  0  0  0  0  0  0  0
  191.9430  176.2430  145.7980 C   0  0  0  0  0  3  0  0  0  0  0  0
  191.0410  176.4350  146.8470 C   0  0  0  0  0  3  0  0  0  0  0  0
  186.2190  178.2090  143.8150 C   0  0  0  0  0  0  0  0  0  0  0  0
  185.1810  178.3760  142.9720 C   0  0  0  0  0  0  0  0  0  0  0  0
  188.9810  177.8410  140.2060 C   0  0  0  0  0  0  0  0  0  0  0  0
  190.8570  177.1200  141.7440 C   0  0  0  0  0  3  0  0  0  0  0  0
  184.7050  178.5700  145.8340 C   0  0  0  0  0  0  0  0  0  0  0  0
  191.1910  177.0070  139.2910 C   0  0  0  0  0  2  0  0  0  0  0  0
  191.5500  176.4870  144.4790 C   0  0  0  0  0  3  0  0  0  0  0  0
  189.8420  177.1960  142.8610 C   0  0  0  0  0  0  0  0  0  0  0  0
  190.2450  176.9200  144.1910 C   0  0  0  0  0  0  0  0  0  0  0  0
  188.0440  177.5430  144.9730 C   0  0  0  0  0  0  0  0  0  0  0  0
  183.6920  178.8370  145.0060 C   0  0  0  0  0  3  0  0  0  0  0  0
  190.2670  177.2130  140.4070 N   0  0  0  0  0  0  0  0  0  0  0  0
  183.8550  178.8890  143.4990 C   0  0  0  0  0  3  0  0  0  0  0  0
  188.4640  178.1330  138.8300 C   0  0  0  0  0  2  0  0  0  0  0  0
  189.5840  178.1460  137.7890 C   0  0  2  0  0  3  0  0  0  0  0  0
  189.7400  176.8690  146.5810 C   0  0  0  0  0  3  0  0  0  0  0  0
  189.3360  177.1080  145.2620 C   0  0  0  0  0  0  0  0  0  0  0  0
  187.0380  177.8480  145.9370 N   0  0  0  0  0  0  0  0  0  0  0  0
  188.1570  178.0250  141.2310 C   0  0  0  0  0  3  0  0  0  0  0  0
  185.2190  177.9910  141.2630 Cl  0  0  0  0  0  0  0  0  0  0  0  0
  184.4750  178.5420  147.3040 C   0  0  0  0  0  1  0  0  0  0  0  0
  187.6190  177.7580  143.6730 C   0  0  0  0  0  0  0  0  0  0  0  0
  186.0140  178.2510  145.2590 C   0  0  0  0  0  0  0  0  0  0  0  0
  187.0360  177.8500  135.1100 C   0  0  0  0  0  2  0  0  0  0  0  0
  189.0540  178.2430  136.3550 C   0  0  0  0  0  3  0  0  0  0  0  0
  187.9000  176.6190  134.9480 C   0  0  0  0  0  2  0  0  0  0  0  0
  189.2500  176.9640  135.5510 C   0  0  0  0  0  2  0  0  0  0  0  0
  187.5710  178.5560  136.3330 C   0  0  0  0  0  2  0  0  0  0  0  0
  1 10  1  0  0  0  0
  2 12  1  0  0  0  0
  2 26  2  0  0  0  0
  3  4  1  0  0  0  0
  5 27  1  0  0  0  0
  6 17  1  0  0  0  0
  6  5  2  0  0  0  0
  7 16  1  0  0  0  0
  7 23  2  0  0  0  0
  8 12  2  0  0  0  0
  9 25  1  0  0  0  0
 10 16  1  0  0  0  0
 11  3  2  0  0  0  0
 12 13  1  0  0  0  0
 13 11  1  0  0  0  0
 13 21  2  0  0  0  0
 14 21  1  0  0  0  0
 14 22  2  0  0  0  0
 15  9  1  0  0  0  0
 16  8  1  0  0  0  0
 17 15  2  0  0  0  0
 18  7  1  0  0  0  0
 19 29  1  6  0  0  0
 19  1  1  0  0  0  0
 19 18  1  0  0  0  0
 20  4  2  0  0  0  0
 21 20  1  0  0  0  0
 23  2  1  0  0  0  0
 24  6  1  0  0  0  0
 26  5  1  0  0  0  0
 26 14  1  0  0  0  0
 27  9  2  0  0  0  0
 27 22  1  0  0  0  0
 28 32  1  0  0  0  0
 30 28  1  0  0  0  0
 30 31  1  0  0  0  0
 31 29  1  0  0  0  0
 32 29  1  0  0  0  0
M  END
>  <MODEL>
3

>  <REMARK>
 VINA RESULT:     -11.9      1.671      6.839
  Name = 
  1 active torsions:
  status: ('A' for Active; 'I' for Inactive)
    1  A    between atoms: C_10  and  C_24
                            x       y       z     vdW  Elec       q    Type
                         _______ _______ _______ _____ _____    ______ ____

>  <TORSDO>
F 1

$$$$
=
 OpenBabel11052416493D

 32 38  0  0  1  0  0  0  0  0999 V2000
  181.5380  179.4320  143.2120 C   0  0  0  0  0  2  0  0  0  0  0  0
  186.4360  178.0680  143.3260 C   0  0  0  0  0  0  0  0  0  0  0  0
  187.7740  177.9930  148.0290 C   0  0  0  0  0  3  0  0  0  0  0  0
  189.0950  177.7520  147.6490 C   0  0  0  0  0  3  0  0  0  0  0  0
  188.5280  177.7160  141.7110 C   0  0  0  0  0  0  0  0  0  0  0  0
  188.2620  177.9560  140.4110 C   0  0  0  0  0  0  0  0  0  0  0  0
  184.1070  178.3360  142.6400 C   0  0  0  0  0  0  0  0  0  0  0  0
  184.6440  178.2980  145.1120 C   0  0  0  0  0  3  0  0  0  0  0  0
  190.9680  177.2150  141.1740 C   0  0  0  0  0  0  0  0  0  0  0  0
  182.3550  178.8970  144.3810 C   0  0  0  0  0  2  0  0  0  0  0  0
  186.7790  178.1400  147.0570 C   0  0  0  0  0  3  0  0  0  0  0  0
  186.0930  178.1740  144.6980 C   0  0  0  0  0  0  0  0  0  0  0  0
  187.0960  178.0540  145.6920 C   0  0  0  0  0  0  0  0  0  0  0  0
  188.7510  177.7220  143.9610 C   0  0  0  0  0  0  0  0  0  0  0  0
  190.6930  177.3520  139.8740 C   0  0  0  0  0  3  0  0  0  0  0  0
  183.7440  178.6310  144.0070 N   0  0  0  0  0  0  0  0  0  0  0  0
  189.2930  177.6120  139.3540 C   0  0  0  0  0  3  0  0  0  0  0  0
  183.1160  178.4740  141.5240 C   0  0  0  0  0  2  0  0  0  0  0  0
  181.6740  178.4740  142.0370 C   0  0  2  0  0  3  0  0  0  0  0  0
  189.4300  177.6590  146.2970 C   0  0  0  0  0  3  0  0  0  0  0  0
  188.4420  177.8120  145.3170 C   0  0  0  0  0  0  0  0  0  0  0  0
  190.0360  177.4120  143.4250 N   0  0  0  0  0  0  0  0  0  0  0  0
  185.3730  178.0920  142.3200 C   0  0  0  0  0  3  0  0  0  0  0  0
  186.7910  178.7050  139.8210 Cl  0  0  0  0  0  0  0  0  0  0  0  0
  192.3660  176.9530  141.6140 C   0  0  0  0  0  1  0  0  0  0  0  0
  187.7910  177.8980  142.9790 C   0  0  0  0  0  0  0  0  0  0  0  0
  189.8830  177.3880  142.1410 C   0  0  0  0  0  0  0  0  0  0  0  0
  180.5240  180.0400  138.8770 C   0  0  0  0  0  2  0  0  0  0  0  0
  180.6610  178.8150  140.9400 C   0  0  0  0  0  3  0  0  0  0  0  0
  179.9930  180.9480  139.9650 C   0  0  0  0  0  2  0  0  0  0  0  0
  179.8810  180.0950  141.2140 C   0  0  0  0  0  2  0  0  0  0  0  0
  181.3370  178.9900  139.5950 C   0  0  0  0  0  2  0  0  0  0  0  0
  1 10  1  0  0  0  0
  2 12  1  0  0  0  0
  4  3  1  0  0  0  0
  5 27  1  0  0  0  0
  5 26  1  0  0  0  0
  6  5  2  0  0  0  0
  7 16  1  0  0  0  0
  9 25  1  0  0  0  0
  9 27  2  0  0  0  0
 11  3  2  0  0  0  0
 12  8  2  0  0  0  0
 12 13  1  0  0  0  0
 13 11  1  0  0  0  0
 14 21  1  0  0  0  0
 15  9  1  0  0  0  0
 16 10  1  0  0  0  0
 16  8  1  0  0  0  0
 17 15  2  0  0  0  0
 17  6  1  0  0  0  0
 18 19  1  0  0  0  0
 18  7  1  0  0  0  0
 19 29  1  6  0  0  0
 19  1  1  0  0  0  0
 20  4  2  0  0  0  0
 21 13  2  0  0  0  0
 21 20  1  0  0  0  0
 22 14  2  0  0  0  0
 23  7  2  0  0  0  0
 23  2  1  0  0  0  0
 24  6  1  0  0  0  0
 26  2  2  0  0  0  0
 26 14  1  0  0  0  0
 27 22  1  0  0  0  0
 28 32  1  0  0  0  0
 28 30  1  0  0  0  0
 29 31  1  0  0  0  0
 30 31  1  0  0  0  0
 32 29  1  0  0  0  0
M  END
>  <MODEL>
4

>  <REMARK>
 VINA RESULT:     -11.5      1.457      2.359
  Name = 
  1 active torsions:
  status: ('A' for Active; 'I' for Inactive)
    1  A    between atoms: C_10  and  C_24
                            x       y       z     vdW  Elec       q    Type
                         _______ _______ _______ _____ _____    ______ ____

>  <TORSDO>
F 1

$$$$
=
 OpenBabel11052416493D

 32 38  0  0  1  0  0  0  0  0999 V2000
  190.3000  177.0570  139.5730 C   0  0  0  0  0  2  0  0  0  0  0  0
  186.2730  178.2260  142.4500 C   0  0  0  0  0  0  0  0  0  0  0  0
  187.7160  177.8780  147.1100 C   0  0  0  0  0  3  0  0  0  0  0  0
  186.4030  178.1000  147.5330 C   0  0  0  0  0  3  0  0  0  0  0  0
  183.6430  178.6280  142.2700 C   0  0  0  0  0  0  0  0  0  0  0  0
  183.1550  178.5020  141.0200 C   0  0  0  0  0  0  0  0  0  0  0  0
  187.8480  178.0990  140.5880 C   0  0  0  0  0  0  0  0  0  0  0  0
  188.7460  177.9210  142.9470 C   0  0  0  0  0  3  0  0  0  0  0  0
  181.3110  179.0800  143.1930 C   0  0  0  0  0  0  0  0  0  0  0  0
  190.2590  177.4670  141.0390 C   0  0  0  0  0  2  0  0  0  0  0  0
  188.0180  177.8450  145.7450 C   0  0  0  0  0  3  0  0  0  0  0  0
  187.3070  178.0240  143.3990 C   0  0  0  0  0  0  0  0  0  0  0  0
  187.0090  178.0280  144.7850 C   0  0  0  0  0  0  0  0  0  0  0  0
  184.6820  178.4350  144.2700 C   0  0  0  0  0  0  0  0  0  0  0  0
  180.8310  179.0570  141.9470 C   0  0  0  0  0  3  0  0  0  0  0  0
  188.8940  177.7100  141.5060 N   0  0  0  0  0  0  0  0  0  0  0  0
  181.7180  178.8910  140.7290 C   0  0  0  0  0  3  0  0  0  0  0  0
  188.0700  178.0870  139.1060 C   0  0  0  0  0  2  0  0  0  0  0  0
  189.5570  178.0990  138.7490 C   0  0  2  0  0  3  0  0  0  0  0  0
  185.3870  178.2870  146.5940 C   0  0  0  0  0  3  0  0  0  0  0  0
  185.6800  178.2490  145.2250 C   0  0  0  0  0  0  0  0  0  0  0  0
  183.3170  178.7390  144.5480 N   0  0  0  0  0  0  0  0  0  0  0  0
  186.6160  178.3220  141.0300 C   0  0  0  0  0  3  0  0  0  0  0  0
  184.0570  177.8570  139.6630 Cl  0  0  0  0  0  0  0  0  0  0  0  0
  180.3830  179.2550  144.3430 C   0  0  0  0  0  1  0  0  0  0  0  0
  184.9500  178.3730  142.9130 C   0  0  0  0  0  0  0  0  0  0  0  0
  182.7460  178.8710  143.3950 C   0  0  0  0  0  0  0  0  0  0  0  0
  188.6020  177.3130  135.2530 C   0  0  0  0  0  2  0  0  0  0  0  0
  189.8050  177.8840  137.2530 C   0  0  0  0  0  3  0  0  0  0  0  0
  189.2280  176.0360  135.7700 C   0  0  0  0  0  2  0  0  0  0  0  0
  190.1560  176.4440  136.8990 C   0  0  0  0  0  2  0  0  0  0  0  0
  188.5880  178.2570  136.4300 C   0  0  0  0  0  2  0  0  0  0  0  0
  1 10  1  0  0  0  0
  2 26  2  0  0  0  0
  2 12  1  0  0  0  0
  3  4  1  0  0  0  0
  5 26  1  0  0  0  0
  5 27  1  0  0  0  0
  6  5  2  0  0  0  0
  7 23  2  0  0  0  0
  7 16  1  0  0  0  0
  8 12  2  0  0  0  0
  9 27  2  0  0  0  0
  9 25  1  0  0  0  0
 10 16  1  0  0  0  0
 11  3  2  0  0  0  0
 12 13  1  0  0  0  0
 13 21  2  0  0  0  0
 13 11  1  0  0  0  0
 14 22  2  0  0  0  0
 14 21  1  0  0  0  0
 15  9  1  0  0  0  0
 16  8  1  0  0  0  0
 17  6  1  0  0  0  0
 17 15  2  0  0  0  0
 18  7  1  0  0  0  0
 19 29  1  6  0  0  0
 19 18  1  0  0  0  0
 19  1  1  0  0  0  0
 20  4  2  0  0  0  0
 21 20  1  0  0  0  0
 23  2  1  0  0  0  0
 24  6  1  0  0  0  0
 26 14  1  0  0  0  0
 27 22  1  0  0  0  0
 28 30  1  0  0  0  0
 28 32  1  0  0  0  0
 30 31  1  0  0  0  0
 31 29  1  0  0  0  0
 32 29  1  0  0  0  0
M  END
>  <MODEL>
5

>  <REMARK>
 VINA RESULT:     -11.2      1.710      7.368
  Name = 
  1 active torsions:
  status: ('A' for Active; 'I' for Inactive)
    1  A    between atoms: C_10  and  C_24
                            x       y       z     vdW  Elec       q    Type
                         _______ _______ _______ _____ _____    ______ ____

>  <TORSDO>
F 1

$$$$
=
 OpenBabel11052416493D

 32 38  0  0  1  0  0  0  0  0999 V2000
  182.7610  178.5650  140.8720 C   0  0  0  0  0  2  0  0  0  0  0  0
  187.3970  177.8940  142.8490 C   0  0  0  0  0  0  0  0  0  0  0  0
  190.4950  177.4920  139.0870 C   0  0  0  0  0  3  0  0  0  0  0  0
  191.5320  177.1900  139.9720 C   0  0  0  0  0  3  0  0  0  0  0  0
  188.6070  177.3760  145.1680 C   0  0  0  0  0  0  0  0  0  0  0  0
  187.7610  177.2450  146.2090 C   0  0  0  0  0  0  0  0  0  0  0  0
  185.0650  178.5550  142.5490 C   0  0  0  0  0  0  0  0  0  0  0  0
  186.5540  178.4080  140.5090 C   0  0  0  0  0  3  0  0  0  0  0  0
  190.6080  176.8700  146.6630 C   0  0  0  0  0  0  0  0  0  0  0  0
  184.1190  178.7500  140.2080 C   0  0  0  0  0  2  0  0  0  0  0  0
  189.2060  177.7370  139.5710 C   0  0  0  0  0  3  0  0  0  0  0  0
  187.6410  177.9480  141.4530 C   0  0  0  0  0  0  0  0  0  0  0  0
  188.9370  177.6760  140.9480 C   0  0  0  0  0  0  0  0  0  0  0  0
  189.7250  177.3090  143.2040 C   0  0  0  0  0  0  0  0  0  0  0  0
  189.7910  176.8370  147.7190 C   0  0  0  0  0  3  0  0  0  0  0  0
  185.2240  178.4430  141.1180 N   0  0  0  0  0  0  0  0  0  0  0  0
  188.3090  177.1420  147.6200 C   0  0  0  0  0  3  0  0  0  0  0  0
  183.7230  178.8050  143.1670 C   0  0  0  0  0  2  0  0  0  0  0  0
  182.7260  179.3780  142.1580 C   0  0  2  0  0  3  0  0  0  0  0  0
  191.2840  177.1280  141.3450 C   0  0  0  0  0  3  0  0  0  0  0  0
  189.9950  177.3640  141.8380 C   0  0  0  0  0  0  0  0  0  0  0  0
  190.6890  177.0820  144.2290 N   0  0  0  0  0  0  0  0  0  0  0  0
  186.0810  178.2780  143.3600 C   0  0  0  0  0  3  0  0  0  0  0  0
  186.0180  177.1270  146.0630 Cl  0  0  0  0  0  0  0  0  0  0  0  0
  192.0550  176.5670  146.8350 C   0  0  0  0  0  1  0  0  0  0  0  0
  188.4510  177.5130  143.7050 C   0  0  0  0  0  0  0  0  0  0  0  0
  190.0380  177.1500  145.3440 C   0  0  0  0  0  0  0  0  0  0  0  0
  179.7410  178.1090  143.9560 C   0  0  0  0  0  2  0  0  0  0  0  0
  181.3020  179.4500  142.7150 C   0  0  0  0  0  3  0  0  0  0  0  0
  179.4020  177.9380  142.4910 C   0  0  0  0  0  2  0  0  0  0  0  0
  180.2440  178.9500  141.7380 C   0  0  0  0  0  2  0  0  0  0  0  0
  181.1580  178.6280  143.9800 C   0  0  0  0  0  2  0  0  0  0  0  0
  1 19  1  0  0  0  0
  2 23  1  0  0  0  0
  2 26  2  0  0  0  0
  3 11  2  0  0  0  0
  3  4  1  0  0  0  0
  4 20  2  0  0  0  0
  5 27  2  0  0  0  0
  5  6  1  0  0  0  0
  6 17  2  0  0  0  0
  7 18  1  0  0  0  0
  7 23  2  0  0  0  0
  8 16  1  0  0  0  0
  8 12  2  0  0  0  0
  9 25  1  0  0  0  0
  9 15  2  0  0  0  0
 10  1  1  0  0  0  0
 10 16  1  0  0  0  0
 11 13  1  0  0  0  0
 12  2  1  0  0  0  0
 13 12  1  0  0  0  0
 13 21  2  0  0  0  0
 14 26  1  0  0  0  0
 14 22  2  0  0  0  0
 16  7  1  0  0  0  0
 17 15  1  0  0  0  0
 19 29  1  1  0  0  0
 19 18  1  0  0  0  0
 20 21  1  0  0  0  0
 21 14  1  0  0  0  0
 22 27  1  0  0  0  0
 24  6  1  0  0  0  0
 26  5  1  0  0  0  0
 27  9  1  0  0  0  0
 28 32  1  0  0  0  0
 29 32  1  0  0  0  0
 30 28  1  0  0  0  0
 31 30  1  0  0  0  0
 31 29  1  0  0  0  0
M  END
>  <MODEL>
6

>  <REMARK>
 VINA RESULT:     -10.9      1.768      4.726
  Name = 
  1 active torsions:
  status: ('A' for Active; 'I' for Inactive)
    1  A    between atoms: C_10  and  C_24
                            x       y       z     vdW  Elec       q    Type
                         _______ _______ _______ _____ _____    ______ ____

>  <TORSDO>
F 1

$$$$
=
 OpenBabel11052416493D

 32 38  0  0  1  0  0  0  0  0999 V2000
  181.1940  179.3640  142.4640 C   0  0  0  0  0  2  0  0  0  0  0  0
  186.0900  178.0810  142.9480 C   0  0  0  0  0  0  0  0  0  0  0  0
  187.0930  178.1140  147.7340 C   0  0  0  0  0  3  0  0  0  0  0  0
  188.4420  177.8870  147.4530 C   0  0  0  0  0  3  0  0  0  0  0  0
  188.2960  177.7340  141.4910 C   0  0  0  0  0  0  0  0  0  0  0  0
  188.1190  177.9450  140.1720 C   0  0  0  0  0  0  0  0  0  0  0  0
  183.8120  178.2990  142.0950 C   0  0  0  0  0  0  0  0  0  0  0  0
  184.1740  178.3150  144.6000 C   0  0  0  0  0  3  0  0  0  0  0  0
  190.7750  177.2620  141.1380 C   0  0  0  0  0  0  0  0  0  0  0  0
  181.9330  178.8630  143.6970 C   0  0  0  0  0  2  0  0  0  0  0  0
  186.1680  178.2270  146.6920 C   0  0  0  0  0  3  0  0  0  0  0  0
  185.6490  178.2070  144.2900 C   0  0  0  0  0  0  0  0  0  0  0  0
  186.5820  178.1210  145.3550 C   0  0  0  0  0  0  0  0  0  0  0  0
  188.3600  177.7840  143.7510 C   0  0  0  0  0  0  0  0  0  0  0  0
  190.5910  177.3700  139.8190 C   0  0  0  0  0  3  0  0  0  0  0  0
  183.3490  178.6140  143.4270 N   0  0  0  0  0  0  0  0  0  0  0  0
  189.2280  177.5990  139.1970 C   0  0  0  0  0  3  0  0  0  0  0  0
  182.9000  178.4000  140.9100 C   0  0  0  0  0  2  0  0  0  0  0  0
  181.4260  178.3870  141.3200 C   0  0  2  0  0  3  0  0  0  0  0  0
  188.8730  177.7750  146.1300 C   0  0  0  0  0  3  0  0  0  0  0  0
  187.9540  177.8940  145.0800 C   0  0  0  0  0  0  0  0  0  0  0  0
  189.6830  177.4860  143.3130 N   0  0  0  0  0  0  0  0  0  0  0  0
  185.1010  178.0690  141.8700 C   0  0  0  0  0  3  0  0  0  0  0  0
  186.6830  178.6590  139.4660 Cl  0  0  0  0  0  0  0  0  0  0  0  0
  192.1420  177.0300  141.6800 C   0  0  0  0  0  1  0  0  0  0  0  0
  187.4690  177.9260  142.7010 C   0  0  0  0  0  0  0  0  0  0  0  0
  189.6220  177.4350  142.0220 C   0  0  0  0  0  0  0  0  0  0  0  0
  179.7020  177.6870  138.1110 C   0  0  0  0  0  2  0  0  0  0  0  0
  180.4880  178.6920  140.1480 C   0  0  0  0  0  3  0  0  0  0  0  0
  180.8380  178.6140  137.7360 C   0  0  0  0  0  2  0  0  0  0  0  0
  181.1770  179.4000  138.9890 C   0  0  0  0  0  2  0  0  0  0  0  0
  179.8710  177.4250  139.5880 C   0  0  0  0  0  2  0  0  0  0  0  0
  1 10  1  0  0  0  0
  2 12  1  0  0  0  0
  4  3  1  0  0  0  0
  5 27  1  0  0  0  0
  5 26  1  0  0  0  0
  6  5  2  0  0  0  0
  7 16  1  0  0  0  0
  9 25  1  0  0  0  0
  9 27  2  0  0  0  0
 11  3  2  0  0  0  0
 12  8  2  0  0  0  0
 12 13  1  0  0  0  0
 13 11  1  0  0  0  0
 14 21  1  0  0  0  0
 15  9  1  0  0  0  0
 16 10  1  0  0  0  0
 16  8  1  0  0  0  0
 17 15  2  0  0  0  0
 17  6  1  0  0  0  0
 18 19  1  0  0  0  0
 18  7  1  0  0  0  0
 19 29  1  6  0  0  0
 19  1  1  0  0  0  0
 20  4  2  0  0  0  0
 21 13  2  0  0  0  0
 21 20  1  0  0  0  0
 22 14  2  0  0  0  0
 23  7  2  0  0  0  0
 23  2  1  0  0  0  0
 24  6  1  0  0  0  0
 26  2  2  0  0  0  0
 26 14  1  0  0  0  0
 27 22  1  0  0  0  0
 28 32  1  0  0  0  0
 30 28  1  0  0  0  0
 30 31  1  0  0  0  0
 31 29  1  0  0  0  0
 32 29  1  0  0  0  0
M  END
>  <MODEL>
7

>  <REMARK>
 VINA RESULT:     -10.9      1.659      2.756
  Name = 
  1 active torsions:
  status: ('A' for Active; 'I' for Inactive)
    1  A    between atoms: C_10  and  C_24
                            x       y       z     vdW  Elec       q    Type
                         _______ _______ _______ _____ _____    ______ ____

>  <TORSDO>
F 1

$$$$
=
 OpenBabel11052416493D

 32 38  0  0  1  0  0  0  0  0999 V2000
  183.9280  178.3860  138.2840 C   0  0  0  0  0  2  0  0  0  0  0  0
  187.1540  178.2140  142.2100 C   0  0  0  0  0  0  0  0  0  0  0  0
  191.5720  177.2150  140.3680 C   0  0  0  0  0  3  0  0  0  0  0  0
  192.0870  177.1080  141.6620 C   0  0  0  0  0  3  0  0  0  0  0  0
  187.1730  178.1600  144.8760 C   0  0  0  0  0  0  0  0  0  0  0  0
  185.9470  178.1990  145.4330 C   0  0  0  0  0  0  0  0  0  0  0  0
  185.2410  178.7450  140.7880 C   0  0  0  0  0  0  0  0  0  0  0  0
  187.4710  178.2680  139.6910 C   0  0  0  0  0  3  0  0  0  0  0  0
  188.2690  177.9910  147.1710 C   0  0  0  0  0  0  0  0  0  0  0  0
  185.4480  178.4830  138.2770 C   0  0  0  0  0  2  0  0  0  0  0  0
  190.2190  177.5090  140.1720 C   0  0  0  0  0  3  0  0  0  0  0  0
  187.9950  178.0180  141.0860 C   0  0  0  0  0  0  0  0  0  0  0  0
  189.3630  177.6930  141.2700 C   0  0  0  0  0  0  0  0  0  0  0  0
  189.0430  177.7660  143.6660 C   0  0  0  0  0  0  0  0  0  0  0  0
  187.0670  178.1290  147.7370 C   0  0  0  0  0  3  0  0  0  0  0  0
  186.0130  178.3770  139.6230 N   0  0  0  0  0  0  0  0  0  0  0  0
  185.8040  178.3710  146.9330 C   0  0  0  0  0  3  0  0  0  0  0  0
  183.7810  179.0680  140.6850 C   0  0  0  0  0  2  0  0  0  0  0  0
  183.3720  179.4180  139.2530 C   0  0  2  0  0  3  0  0  0  0  0  0
  191.2520  177.2900  142.7650 C   0  0  0  0  0  3  0  0  0  0  0  0
  189.8950  177.5780  142.5790 C   0  0  0  0  0  0  0  0  0  0  0  0
  189.4350  177.7570  145.0360 N   0  0  0  0  0  0  0  0  0  0  0  0
  185.7720  178.6490  142.0020 C   0  0  0  0  0  3  0  0  0  0  0  0
  184.4480  178.0090  144.5450 Cl  0  0  0  0  0  0  0  0  0  0  0  0
  189.4680  177.7630  148.0220 C   0  0  0  0  0  1  0  0  0  0  0  0
  187.6930  178.0240  143.4990 C   0  0  0  0  0  0  0  0  0  0  0  0
  188.3610  178.0090  145.7100 C   0  0  0  0  0  0  0  0  0  0  0  0
  180.1070  181.1700  139.4120 C   0  0  0  0  0  2  0  0  0  0  0  0
  181.8550  179.5530  139.0910 C   0  0  0  0  0  3  0  0  0  0  0  0
  180.1240  180.2900  140.6430 C   0  0  0  0  0  2  0  0  0  0  0  0
  181.0760  179.1490  140.3360 C   0  0  0  0  0  2  0  0  0  0  0  0
  181.4570  180.9780  138.7640 C   0  0  0  0  0  2  0  0  0  0  0  0
  1 19  1  0  0  0  0
  2 26  2  0  0  0  0
  3  4  1  0  0  0  0
  4 20  2  0  0  0  0
  5  6  2  0  0  0  0
  5 27  1  0  0  0  0
  6 17  1  0  0  0  0
  7 23  2  0  0  0  0
  8 12  2  0  0  0  0
  9 15  1  0  0  0  0
  9 25  1  0  0  0  0
 10  1  1  0  0  0  0
 10 16  1  0  0  0  0
 11  3  2  0  0  0  0
 11 13  1  0  0  0  0
 12 13  1  0  0  0  0
 12  2  1  0  0  0  0
 13 21  2  0  0  0  0
 14 22  2  0  0  0  0
 16  8  1  0  0  0  0
 16  7  1  0  0  0  0
 17 15  2  0  0  0  0
 18  7  1  0  0  0  0
 19 29  1  1  0  0  0
 19 18  1  0  0  0  0
 21 20  1  0  0  0  0
 21 14  1  0  0  0  0
 22 27  1  0  0  0  0
 23  2  1  0  0  0  0
 24  6  1  0  0  0  0
 26 14  1  0  0  0  0
 26  5  1  0  0  0  0
 27  9  2  0  0  0  0
 28 30  1  0  0  0  0
 29 31  1  0  0  0  0
 31 30  1  0  0  0  0
 32 29  1  0  0  0  0
 32 28  1  0  0  0  0
M  END
>  <MODEL>
8

>  <REMARK>
 VINA RESULT:     -10.8      2.467      5.305
  Name = 
  1 active torsions:
  status: ('A' for Active; 'I' for Inactive)
    1  A    between atoms: C_10  and  C_24
                            x       y       z     vdW  Elec       q    Type
                         _______ _______ _______ _____ _____    ______ ____

>  <TORSDO>
F 1

$$$$
=
 OpenBabel11052416493D

 32 38  0  0  1  0  0  0  0  0999 V2000
  190.1880  177.6700  145.0470 C   0  0  0  0  0  2  0  0  0  0  0  0
  186.7830  178.0910  141.2940 C   0  0  0  0  0  0  0  0  0  0  0  0
  189.3090  178.3220  137.1130 C   0  0  0  0  0  3  0  0  0  0  0  0
  188.1270  178.5680  136.4120 C   0  0  0  0  0  3  0  0  0  0  0  0
  184.1870  178.5450  140.8920 C   0  0  0  0  0  0  0  0  0  0  0  0
  183.4810  178.7220  142.0260 C   0  0  0  0  0  0  0  0  0  0  0  0
  187.8450  177.5570  143.4280 C   0  0  0  0  0  0  0  0  0  0  0  0
  189.2790  177.6210  141.3440 C   0  0  0  0  0  3  0  0  0  0  0  0
  182.1080  178.9430  139.4720 C   0  0  0  0  0  0  0  0  0  0  0  0
  190.3700  177.4120  143.5580 C   0  0  0  0  0  2  0  0  0  0  0  0
  189.2810  178.1470  138.5000 C   0  0  0  0  0  3  0  0  0  0  0  0
  188.0220  178.0230  140.6070 C   0  0  0  0  0  0  0  0  0  0  0  0
  188.0680  178.2240  139.2050 C   0  0  0  0  0  0  0  0  0  0  0  0
  185.6720  178.5500  139.1870 C   0  0  0  0  0  0  0  0  0  0  0  0
  181.3800  179.0210  140.5880 C   0  0  0  0  0  3  0  0  0  0  0  0
  189.1430  177.6590  142.8010 N   0  0  0  0  0  0  0  0  0  0  0  0
  181.9670  178.7960  141.9690 C   0  0  0  0  0  3  0  0  0  0  0  0
  187.7080  177.3800  144.9100 C   0  0  0  0  0  2  0  0  0  0  0  0
  188.9990  176.8620  145.5460 C   0  0  2  0  0  3  0  0  0  0  0  0
  186.9110  178.6450  137.0950 C   0  0  0  0  0  3  0  0  0  0  0  0
  186.8740  178.4790  138.4840 C   0  0  0  0  0  0  0  0  0  0  0  0
  184.3830  178.7250  138.6040 N   0  0  0  0  0  0  0  0  0  0  0  0
  186.7410  177.7790  142.7240 C   0  0  0  0  0  3  0  0  0  0  0  0
  184.1900  178.9340  143.6140 Cl  0  0  0  0  0  0  0  0  0  0  0  0
  181.4650  179.1670  138.1480 C   0  0  0  0  0  1  0  0  0  0  0  0
  185.6220  178.4150  140.5640 C   0  0  0  0  0  0  0  0  0  0  0  0
  183.5460  178.6940  139.5890 C   0  0  0  0  0  0  0  0  0  0  0  0
  188.1540  178.2390  148.8840 C   0  0  0  0  0  2  0  0  0  0  0  0
  188.9430  176.8670  147.0760 C   0  0  0  0  0  3  0  0  0  0  0  0
  189.6260  178.5430  148.7110 C   0  0  0  0  0  2  0  0  0  0  0  0
  190.1580  177.5210  147.7230 C   0  0  0  0  0  2  0  0  0  0  0  0
  187.7210  177.6050  147.5840 C   0  0  0  0  0  2  0  0  0  0  0  0
  1 19  1  0  0  0  0
  2 23  1  0  0  0  0
  3 11  1  0  0  0  0
  4 20  1  0  0  0  0
  4  3  2  0  0  0  0
  5  6  1  0  0  0  0
  6 24  1  0  0  0  0
  7 18  1  0  0  0  0
  8 16  1  0  0  0  0
  9 27  1  0  0  0  0
  9 15  2  0  0  0  0
 10  1  1  0  0  0  0
 11 13  2  0  0  0  0
 12  2  1  0  0  0  0
 12  8  2  0  0  0  0
 13 12  1  0  0  0  0
 14 26  1  0  0  0  0
 15 17  1  0  0  0  0
 16  7  1  0  0  0  0
 16 10  1  0  0  0  0
 17  6  2  0  0  0  0
 18 19  1  0  0  0  0
 19 29  1  1  0  0  0
 20 21  2  0  0  0  0
 21 14  1  0  0  0  0
 21 13  1  0  0  0  0
 22 14  2  0  0  0  0
 22 27  1  0  0  0  0
 23  7  2  0  0  0  0
 25  9  1  0  0  0  0
 26  5  1  0  0  0  0
 26  2  2  0  0  0  0
 27  5  2  0  0  0  0
 29 32  1  0  0  0  0
 29 31  1  0  0  0  0
 30 28  1  0  0  0  0
 31 30  1  0  0  0  0
 32 28  1  0  0  0  0
M  END
>  <MODEL>
9

>  <REMARK>
 VINA RESULT:     -10.7      2.247      7.401
  Name = 
  1 active torsions:
  status: ('A' for Active; 'I' for Inactive)
    1  A    between atoms: C_10  and  C_24
                            x       y       z     vdW  Elec       q    Type
                         _______ _______ _______ _____ _____    ______ ____

>  <TORSDO>
F 1

$$$$
