=
 OpenBabel11052415443D

 34 37  0  0  1  0  0  0  0  0999 V2000
  188.4130  177.3540  144.1660 C   0  0  1  0  0  0  0  0  0  0  0  0
  185.4820  177.9520  146.4120 C   0  0  0  0  0  2  0  0  0  0  0  0
  187.8010  177.9950  146.8500 C   0  0  0  0  0  2  0  0  0  0  0  0
  188.4460  178.7170  143.8540 O   0  0  0  0  0  1  0  0  0  0  0  0
  190.7510  176.6380  144.9300 C   0  0  0  0  0  3  0  0  0  0  0  0
  191.3620  176.7730  147.2700 C   0  0  0  0  0  3  0  0  0  0  0  0
  191.6960  176.4690  145.9470 C   0  0  0  0  0  3  0  0  0  0  0  0
  189.1400  177.4130  146.5590 C   0  0  0  0  0  0  0  0  0  0  0  0
  189.4550  177.0930  145.2330 C   0  0  0  0  0  0  0  0  0  0  0  0
  190.0860  177.2540  147.5750 C   0  0  0  0  0  3  0  0  0  0  0  0
  185.3000  179.1090  145.4350 C   0  0  0  0  0  2  0  0  0  0  0  0
  185.1210  178.5770  144.0170 C   0  0  2  0  0  3  0  0  0  0  0  0
  186.7420  177.2400  146.1680 N   0  0  2  0  0  0  0  0  0  0  0  0
  185.8160  177.2340  143.7740 C   0  0  0  0  0  2  0  0  0  0  0  0
  187.0070  176.9670  144.7190 C   0  0  1  0  0  3  0  0  0  0  0  0
  188.7260  176.5230  142.9080 C   0  0  0  0  0  2  0  0  0  0  0  0
  188.8150  177.3600  141.6370 C   0  0  0  0  0  2  0  0  0  0  0  0
  190.2550  177.4500  141.1590 C   0  0  0  0  0  2  0  0  0  0  0  0
  190.5610  176.3680  140.1330 C   0  0  0  0  0  2  0  0  0  0  0  0
  191.3230  175.1900  136.4510 C   0  0  1  0  0  3  0  0  0  0  0  0
  190.2090  176.2430  136.4810 C   0  0  0  0  0  2  0  0  0  0  0  0
  189.7270  176.4970  137.9150 C   0  0  1  0  0  3  0  0  0  0  0  0
  192.1520  176.5590  138.4010 C   0  0  0  0  0  2  0  0  0  0  0  0
  190.7990  176.9610  138.8220 N   0  0  0  0  0  0  0  0  0  0  0  0
  192.1720  175.1840  137.7310 C   0  0  0  0  0  2  0  0  0  0  0  0
  190.7490  173.8080  136.1370 C   0  0  1  0  0  3  0  0  0  0  0  0
  191.8480  172.8460  135.7230 C   0  0  0  0  0  1  0  0  0  0  0  0
  190.0540  173.2910  137.2340 O   0  0  0  0  0  1  0  0  0  0  0  0
  188.5460  177.4640  137.9250 C   0  0  0  0  0  2  0  0  0  0  0  0
  188.9930  178.9130  137.8100 C   0  0  0  0  0  1  0  0  0  0  0  0
  185.6680  179.8130  142.8030 S   0  0  0  0  0  0  0  0  0  0  0  0
  184.7870  178.9940  141.4360 C   0  0  0  0  0  2  0  0  0  0  0  0
  185.7010  178.8220  140.2330 C   0  0  0  0  0  2  0  0  0  0  0  0
  184.8860  178.5180  138.9900 C   0  0  0  0  0  1  0  0  0  0  0  0
  1  4  1  6  0  0  0
  1 15  1  0  0  0  0
  1  9  1  0  0  0  0
  5  9  2  0  0  0  0
  5  7  1  0  0  0  0
  6 10  1  0  0  0  0
  7  6  2  0  0  0  0
  8  3  1  0  0  0  0
  8 10  2  0  0  0  0
  9  8  1  0  0  0  0
 11  2  1  0  0  0  0
 12 31  1  6  0  0  0
 12 11  1  0  0  0  0
 13  2  1  6  0  0  0
 13  3  1  0  0  0  0
 14 12  1  0  0  0  0
 15 14  1  6  0  0  0
 15 13  1  0  0  0  0
 16  1  1  0  0  0  0
 17 16  1  0  0  0  0
 18 17  1  0  0  0  0
 19 18  1  0  0  0  0
 20 26  1  1  0  0  0
 20 21  1  0  0  0  0
 20 25  1  0  0  0  0
 21 22  1  0  0  0  0
 22 29  1  6  0  0  0
 22 24  1  0  0  0  0
 23 24  1  0  0  0  0
 24 19  1  0  0  0  0
 25 23  1  0  0  0  0
 26 27  1  1  0  0  0
 26 28  1  0  0  0  0
 30 29  1  0  0  0  0
 32 31  1  0  0  0  0
 33 32  1  0  0  0  0
 34 33  1  0  0  0  0
M  END
>  <MODEL>
1

>  <REMARK>
 VINA RESULT:      -6.9      0.000      0.000
  Name = 
  10 active torsions:
  status: ('A' for Active; 'I' for Inactive)
    1  A    between atoms: C_1  and  C_8
    2  A    between atoms: C_3  and  C_13
    3  A    between atoms: C_4  and  C_16
    4  A    between atoms: C_6  and  N_28
    5  A    between atoms: C_6  and  C_30
    6  A    between atoms: C_7  and  C_11
    7  A    between atoms: C_8  and  C_18
    8  A    between atoms: C_13  and  S_27
    9  A    between atoms: C_18  and  C_30
   10  A    between atoms: C_25  and  S_27
                            x       y       z     vdW  Elec       q    Type
                         _______ _______ _______ _____ _____    ______ ____

>  <TORSDO>
F 10

$$$$
=
 OpenBabel11052415443D

 34 37  0  0  1  0  0  0  0  0999 V2000
  188.2940  177.8470  144.2950 C   0  0  1  0  0  0  0  0  0  0  0  0
  190.3330  177.4530  147.4060 C   0  0  0  0  0  2  0  0  0  0  0  0
  188.0070  177.2730  147.0470 C   0  0  0  0  0  2  0  0  0  0  0  0
  188.4420  176.4810  144.0310 O   0  0  0  0  0  1  0  0  0  0  0  0
  185.8010  178.4270  144.2140 C   0  0  0  0  0  3  0  0  0  0  0  0
  184.4500  178.2780  146.2190 C   0  0  0  0  0  3  0  0  0  0  0  0
  184.5620  178.5480  144.8520 C   0  0  0  0  0  3  0  0  0  0  0  0
  186.8130  177.7690  146.3090 C   0  0  0  0  0  0  0  0  0  0  0  0
  186.9430  178.0540  144.9440 C   0  0  0  0  0  0  0  0  0  0  0  0
  185.5740  177.8800  146.9470 C   0  0  0  0  0  3  0  0  0  0  0  0
  190.8940  176.3000  146.5820 C   0  0  0  0  0  2  0  0  0  0  0  0
  191.5080  176.8260  145.2890 C   0  0  2  0  0  3  0  0  0  0  0  0
  189.1900  178.0840  146.7350 N   0  0  2  0  0  0  0  0  0  0  0  0
  190.8620  178.1230  144.7880 C   0  0  0  0  0  2  0  0  0  0  0  0
  189.4120  178.3250  145.2730 C   0  0  1  0  0  3  0  0  0  0  0  0
  188.3760  178.6440  142.9800 C   0  0  0  0  0  2  0  0  0  0  0  0
  188.0890  177.8020  141.7420 C   0  0  0  0  0  2  0  0  0  0  0  0
  187.9410  178.6890  140.5170 C   0  0  0  0  0  2  0  0  0  0  0  0
  188.2020  177.9060  139.2380 C   0  0  0  0  0  2  0  0  0  0  0  0
  188.0750  177.5180  135.3190 C   0  0  1  0  0  3  0  0  0  0  0  0
  186.6920  177.8460  135.8930 C   0  0  0  0  0  2  0  0  0  0  0  0
  186.6850  177.7260  137.4210 C   0  0  1  0  0  3  0  0  0  0  0  0
  188.8020  178.9940  137.2330 C   0  0  0  0  0  2  0  0  0  0  0  0
  187.6610  178.6170  138.0850 N   0  0  0  0  0  0  0  0  0  0  0  0
  189.2190  177.8690  136.2830 C   0  0  0  0  0  2  0  0  0  0  0  0
  188.1380  176.0600  134.8630 C   0  0  1  0  0  3  0  0  0  0  0  0
  188.8200  175.1930  135.9060 C   0  0  0  0  0  1  0  0  0  0  0  0
  186.8590  175.5620  134.5940 O   0  0  0  0  0  1  0  0  0  0  0  0
  185.2790  177.9470  137.9740 C   0  0  0  0  0  2  0  0  0  0  0  0
  184.2090  177.3690  137.0610 C   0  0  0  0  0  1  0  0  0  0  0  0
  191.4660  175.5470  144.0000 S   0  0  0  0  0  0  0  0  0  0  0  0
  191.7440  176.7540  142.6650 C   0  0  0  0  0  2  0  0  0  0  0  0
  190.9390  176.3850  141.4290 C   0  0  0  0  0  2  0  0  0  0  0  0
  191.4720  177.1200  140.2130 C   0  0  0  0  0  1  0  0  0  0  0  0
  1  4  1  6  0  0  0
  1  9  1  0  0  0  0
  1 15  1  0  0  0  0
  5  7  2  0  0  0  0
  5  9  1  0  0  0  0
  6 10  2  0  0  0  0
  7  6  1  0  0  0  0
  8 10  1  0  0  0  0
  8  3  1  0  0  0  0
  9  8  2  0  0  0  0
 11  2  1  0  0  0  0
 12 31  1  6  0  0  0
 12 11  1  0  0  0  0
 13  3  1  6  0  0  0
 13  2  1  0  0  0  0
 14 12  1  0  0  0  0
 15 14  1  6  0  0  0
 15 13  1  0  0  0  0
 16  1  1  0  0  0  0
 17 16  1  0  0  0  0
 18 17  1  0  0  0  0
 19 18  1  0  0  0  0
 20 26  1  1  0  0  0
 20 21  1  0  0  0  0
 20 25  1  0  0  0  0
 21 22  1  0  0  0  0
 22 29  1  1  0  0  0
 22 24  1  0  0  0  0
 23 24  1  0  0  0  0
 24 19  1  0  0  0  0
 25 23  1  0  0  0  0
 26 27  1  1  0  0  0
 28 26  1  0  0  0  0
 30 29  1  0  0  0  0
 32 31  1  0  0  0  0
 33 32  1  0  0  0  0
 34 33  1  0  0  0  0
M  END
>  <MODEL>
2

>  <REMARK>
 VINA RESULT:      -6.9      2.344      4.603
  Name = 
  10 active torsions:
  status: ('A' for Active; 'I' for Inactive)
    1  A    between atoms: C_1  and  C_8
    2  A    between atoms: C_3  and  C_13
    3  A    between atoms: C_4  and  C_16
    4  A    between atoms: C_6  and  N_28
    5  A    between atoms: C_6  and  C_30
    6  A    between atoms: C_7  and  C_11
    7  A    between atoms: C_8  and  C_18
    8  A    between atoms: C_13  and  S_27
    9  A    between atoms: C_18  and  C_30
   10  A    between atoms: C_25  and  S_27
                            x       y       z     vdW  Elec       q    Type
                         _______ _______ _______ _____ _____    ______ ____

>  <TORSDO>
F 10

$$$$
=
 OpenBabel11052415443D

 34 37  0  0  1  0  0  0  0  0999 V2000
  189.3670  177.4170  138.1480 C   0  0  1  0  0  0  0  0  0  0  0  0
  188.1950  177.5170  134.5970 C   0  0  0  0  0  2  0  0  0  0  0  0
  189.9610  176.3240  135.6110 C   0  0  0  0  0  2  0  0  0  0  0  0
  188.5000  176.3490  138.3990 O   0  0  0  0  0  1  0  0  0  0  0  0
  191.7180  176.7560  138.9210 C   0  0  0  0  0  3  0  0  0  0  0  0
  193.2380  175.6550  137.3910 C   0  0  0  0  0  3  0  0  0  0  0  0
  192.9600  176.1700  138.6600 C   0  0  0  0  0  3  0  0  0  0  0  0
  191.0330  176.3130  136.6440 C   0  0  0  0  0  0  0  0  0  0  0  0
  190.7490  176.8510  137.9050 C   0  0  0  0  0  0  0  0  0  0  0  0
  192.2710  175.7180  136.3840 C   0  0  0  0  0  3  0  0  0  0  0  0
  186.9590  176.9200  135.2610 C   0  0  0  0  0  2  0  0  0  0  0  0
  186.4080  177.8830  136.3080 C   0  0  2  0  0  3  0  0  0  0  0  0
  189.3070  177.6360  135.5480 N   0  0  2  0  0  0  0  0  0  0  0  0
  187.4770  178.7850  136.9330 C   0  0  0  0  0  2  0  0  0  0  0  0
  188.9020  178.1940  136.8770 C   0  0  1  0  0  3  0  0  0  0  0  0
  189.3900  178.3670  139.3600 C   0  0  0  0  0  2  0  0  0  0  0  0
  189.2080  177.6500  140.6940 C   0  0  0  0  0  2  0  0  0  0  0  0
  188.2910  178.4480  141.6060 C   0  0  0  0  0  2  0  0  0  0  0  0
  188.8090  178.4520  143.0370 C   0  0  0  0  0  2  0  0  0  0  0  0
  188.8770  177.0200  146.7070 C   0  0  1  0  0  3  0  0  0  0  0  0
  187.4480  177.0750  146.1560 C   0  0  0  0  0  2  0  0  0  0  0  0
  187.3890  177.8780  144.8510 C   0  0  1  0  0  3  0  0  0  0  0  0
  189.3890  176.5350  144.2850 C   0  0  0  0  0  2  0  0  0  0  0  0
  188.2530  177.3290  143.7840 N   0  0  0  0  0  0  0  0  0  0  0  0
  189.9440  177.0770  145.6040 C   0  0  0  0  0  2  0  0  0  0  0  0
  189.0880  178.1030  147.7650 C   0  0  1  0  0  3  0  0  0  0  0  0
  187.9250  178.1460  148.7390 C   0  0  0  0  0  1  0  0  0  0  0  0
  190.2830  177.9000  148.4610 O   0  0  0  0  0  1  0  0  0  0  0  0
  185.9480  178.0190  144.3670 C   0  0  0  0  0  2  0  0  0  0  0  0
  185.0870  178.7890  145.3570 C   0  0  0  0  0  1  0  0  0  0  0  0
  185.5020  176.9720  137.5930 S   0  0  0  0  0  0  0  0  0  0  0  0
  185.6090  178.3520  138.7760 C   0  0  0  0  0  2  0  0  0  0  0  0
  184.3300  178.4650  139.5890 C   0  0  0  0  0  2  0  0  0  0  0  0
  184.6400  178.9250  141.0010 C   0  0  0  0  0  1  0  0  0  0  0  0
  1  4  1  1  0  0  0
  1 16  1  0  0  0  0
  2 11  1  0  0  0  0
  3  8  1  0  0  0  0
  6  7  2  0  0  0  0
  7  5  1  0  0  0  0
  8  9  1  0  0  0  0
  9  1  1  0  0  0  0
  9  5  2  0  0  0  0
 10  8  2  0  0  0  0
 10  6  1  0  0  0  0
 11 12  1  0  0  0  0
 12 14  1  0  0  0  0
 12 31  1  1  0  0  0
 13  2  1  6  0  0  0
 13  3  1  0  0  0  0
 13 15  1  0  0  0  0
 15 14  1  6  0  0  0
 15  1  1  0  0  0  0
 16 17  1  0  0  0  0
 17 18  1  0  0  0  0
 18 19  1  0  0  0  0
 19 24  1  0  0  0  0
 20 26  1  1  0  0  0
 21 20  1  0  0  0  0
 22 29  1  6  0  0  0
 22 21  1  0  0  0  0
 23 25  1  0  0  0  0
 24 23  1  0  0  0  0
 24 22  1  0  0  0  0
 25 20  1  0  0  0  0
 26 28  1  0  0  0  0
 26 27  1  1  0  0  0
 29 30  1  0  0  0  0
 31 32  1  0  0  0  0
 32 33  1  0  0  0  0
 33 34  1  0  0  0  0
M  END
>  <MODEL>
3

>  <REMARK>
 VINA RESULT:      -6.7      2.127      8.386
  Name = 
  10 active torsions:
  status: ('A' for Active; 'I' for Inactive)
    1  A    between atoms: C_1  and  C_8
    2  A    between atoms: C_3  and  C_13
    3  A    between atoms: C_4  and  C_16
    4  A    between atoms: C_6  and  N_28
    5  A    between atoms: C_6  and  C_30
    6  A    between atoms: C_7  and  C_11
    7  A    between atoms: C_8  and  C_18
    8  A    between atoms: C_13  and  S_27
    9  A    between atoms: C_18  and  C_30
   10  A    between atoms: C_25  and  S_27
                            x       y       z     vdW  Elec       q    Type
                         _______ _______ _______ _____ _____    ______ ____

>  <TORSDO>
F 10

$$$$
=
 OpenBabel11052415443D

 34 37  0  0  1  0  0  0  0  0999 V2000
  183.2520  178.3070  138.9470 C   0  0  1  0  0  0  0  0  0  0  0  0
  179.9940  178.8760  137.2010 C   0  0  0  0  0  2  0  0  0  0  0  0
  181.8790  177.6000  136.5810 C   0  0  0  0  0  2  0  0  0  0  0  0
  182.7070  177.1900  139.5900 O   0  0  0  0  0  1  0  0  0  0  0  0
  185.4420  177.6070  137.8180 C   0  0  0  0  0  3  0  0  0  0  0  0
  185.4280  176.7760  135.5440 C   0  0  0  0  0  3  0  0  0  0  0  0
  186.1270  177.0980  136.7110 C   0  0  0  0  0  3  0  0  0  0  0  0
  183.3630  177.4730  136.5920 C   0  0  0  0  0  0  0  0  0  0  0  0
  184.0530  177.8180  137.7600 C   0  0  0  0  0  0  0  0  0  0  0  0
  184.0440  176.9550  135.4870 C   0  0  0  0  0  3  0  0  0  0  0  0
  179.4960  178.1590  138.4510 C   0  0  0  0  0  2  0  0  0  0  0  0
  179.8790  178.9480  139.6990 C   0  0  2  0  0  3  0  0  0  0  0  0
  181.4600  178.8900  137.1420 N   0  0  2  0  0  0  0  0  0  0  0  0
  181.1540  179.7800  139.5300 C   0  0  0  0  0  2  0  0  0  0  0  0
  182.1100  179.2430  138.4450 C   0  0  1  0  0  3  0  0  0  0  0  0
  184.1660  179.0750  139.9210 C   0  0  0  0  0  2  0  0  0  0  0  0
  184.4510  178.3140  141.2110 C   0  0  0  0  0  2  0  0  0  0  0  0
  185.2210  179.1900  142.1860 C   0  0  0  0  0  2  0  0  0  0  0  0
  186.5840  178.5910  142.5020 C   0  0  0  0  0  2  0  0  0  0  0  0
  188.9390  176.9910  145.2260 C   0  0  1  0  0  3  0  0  0  0  0  0
  187.6540  177.5420  145.8530 C   0  0  0  0  0  2  0  0  0  0  0  0
  186.8720  178.3980  144.8500 C   0  0  1  0  0  3  0  0  0  0  0  0
  187.3570  176.5160  143.3190 C   0  0  0  0  0  2  0  0  0  0  0  0
  186.4870  177.6650  143.6250 N   0  0  0  0  0  0  0  0  0  0  0  0
  188.8140  176.7650  143.7110 C   0  0  0  0  0  2  0  0  0  0  0  0
  190.1330  177.8790  145.5760 C   0  0  1  0  0  3  0  0  0  0  0  0
  191.3610  177.0410  145.8860 C   0  0  0  0  0  1  0  0  0  0  0  0
  190.4180  178.7720  144.5390 O   0  0  0  0  0  1  0  0  0  0  0  0
  185.6520  179.0310  145.5150 C   0  0  0  0  0  2  0  0  0  0  0  0
  185.3220  178.3750  146.8460 C   0  0  0  0  0  1  0  0  0  0  0  0
  180.0200  177.8390  141.1320 S   0  0  0  0  0  0  0  0  0  0  0  0
  180.9760  179.0540  142.0940 C   0  0  0  0  0  2  0  0  0  0  0  0
  180.8680  178.7680  143.5830 C   0  0  0  0  0  2  0  0  0  0  0  0
  182.2440  178.7760  144.2230 C   0  0  0  0  0  1  0  0  0  0  0  0
  1  4  1  1  0  0  0
  1 16  1  0  0  0  0
  2 11  1  0  0  0  0
  3  8  1  0  0  0  0
  6  7  1  0  0  0  0
  7  5  2  0  0  0  0
  8  9  2  0  0  0  0
  9  5  1  0  0  0  0
  9  1  1  0  0  0  0
 10  6  2  0  0  0  0
 10  8  1  0  0  0  0
 11 12  1  0  0  0  0
 12 31  1  1  0  0  0
 13  3  1  1  0  0  0
 13  2  1  0  0  0  0
 13 15  1  0  0  0  0
 14 12  1  0  0  0  0
 15  1  1  0  0  0  0
 15 14  1  1  0  0  0
 16 17  1  0  0  0  0
 17 18  1  0  0  0  0
 18 19  1  0  0  0  0
 19 24  1  0  0  0  0
 20 26  1  6  0  0  0
 20 21  1  0  0  0  0
 22 29  1  1  0  0  0
 22 21  1  0  0  0  0
 23 24  1  0  0  0  0
 23 25  1  0  0  0  0
 24 22  1  0  0  0  0
 25 20  1  0  0  0  0
 26 27  1  6  0  0  0
 28 26  1  0  0  0  0
 29 30  1  0  0  0  0
 31 32  1  0  0  0  0
 32 33  1  0  0  0  0
 33 34  1  0  0  0  0
M  END
>  <MODEL>
4

>  <REMARK>
 VINA RESULT:      -6.6      3.721      8.713
  Name = 
  10 active torsions:
  status: ('A' for Active; 'I' for Inactive)
    1  A    between atoms: C_1  and  C_8
    2  A    between atoms: C_3  and  C_13
    3  A    between atoms: C_4  and  C_16
    4  A    between atoms: C_6  and  N_28
    5  A    between atoms: C_6  and  C_30
    6  A    between atoms: C_7  and  C_11
    7  A    between atoms: C_8  and  C_18
    8  A    between atoms: C_13  and  S_27
    9  A    between atoms: C_18  and  C_30
   10  A    between atoms: C_25  and  S_27
                            x       y       z     vdW  Elec       q    Type
                         _______ _______ _______ _____ _____    ______ ____

>  <TORSDO>
F 10

$$$$
=
 OpenBabel11052415443D

 34 37  0  0  1  0  0  0  0  0999 V2000
  182.6410  177.8830  140.4740 C   0  0  1  0  0  0  0  0  0  0  0  0
  180.3380  175.8120  138.3780 C   0  0  0  0  0  2  0  0  0  0  0  0
  179.8880  177.4820  139.9820 C   0  0  0  0  0  2  0  0  0  0  0  0
  182.6740  178.8560  139.4700 O   0  0  0  0  0  1  0  0  0  0  0  0
  182.0230  179.0180  142.6860 C   0  0  0  0  0  3  0  0  0  0  0  0
  179.7000  179.2300  143.3380 C   0  0  0  0  0  3  0  0  0  0  0  0
  181.0550  179.4580  143.5940 C   0  0  0  0  0  3  0  0  0  0  0  0
  180.2810  178.1210  141.2690 C   0  0  0  0  0  0  0  0  0  0  0  0
  181.6430  178.3260  141.5220 C   0  0  0  0  0  0  0  0  0  0  0  0
  179.3120  178.5680  142.1700 C   0  0  0  0  0  3  0  0  0  0  0  0
  181.0640  176.5830  137.2800 C   0  0  0  0  0  2  0  0  0  0  0  0
  182.5610  176.2970  137.3380 C   0  0  2  0  0  3  0  0  0  0  0  0
  180.7130  176.2990  139.7110 N   0  0  2  0  0  0  0  0  0  0  0  0
  183.0640  175.9500  138.7430 C   0  0  0  0  0  2  0  0  0  0  0  0
  182.1860  176.5150  139.8780 C   0  0  1  0  0  3  0  0  0  0  0  0
  184.0390  177.7380  141.1040 C   0  0  0  0  0  2  0  0  0  0  0  0
  184.8870  179.0000  140.9940 C   0  0  0  0  0  2  0  0  0  0  0  0
  186.3570  178.6420  140.8520 C   0  0  0  0  0  2  0  0  0  0  0  0
  187.0850  178.7750  142.1830 C   0  0  0  0  0  2  0  0  0  0  0  0
  188.6070  176.9570  145.3290 C   0  0  1  0  0  3  0  0  0  0  0  0
  187.1090  177.2250  145.5100 C   0  0  0  0  0  2  0  0  0  0  0  0
  186.5800  178.1650  144.4200 C   0  0  1  0  0  3  0  0  0  0  0  0
  187.8840  176.6840  142.9280 C   0  0  0  0  0  2  0  0  0  0  0  0
  186.7740  177.6440  143.0500 N   0  0  0  0  0  0  0  0  0  0  0  0
  189.0500  177.0160  143.8600 C   0  0  0  0  0  2  0  0  0  0  0  0
  189.4320  177.8900  146.2150 C   0  0  1  0  0  3  0  0  0  0  0  0
  188.7890  178.0520  147.5810 C   0  0  0  0  0  1  0  0  0  0  0  0
  190.7410  177.4200  146.3600 O   0  0  0  0  0  1  0  0  0  0  0  0
  185.1150  178.5130  144.6710 C   0  0  0  0  0  2  0  0  0  0  0  0
  184.8050  178.6450  146.1530 C   0  0  0  0  0  1  0  0  0  0  0  0
  183.5000  177.6890  136.6450 S   0  0  0  0  0  0  0  0  0  0  0  0
  185.0480  177.1630  137.4460 C   0  0  0  0  0  2  0  0  0  0  0  0
  186.2420  177.4420  136.5460 C   0  0  0  0  0  2  0  0  0  0  0  0
  187.2110  178.3870  137.2320 C   0  0  0  0  0  1  0  0  0  0  0  0
  1  4  1  6  0  0  0
  1 16  1  0  0  0  0
  1  9  1  0  0  0  0
  3  8  1  0  0  0  0
  5  7  1  0  0  0  0
  6  7  2  0  0  0  0
  8  9  1  0  0  0  0
  8 10  2  0  0  0  0
  9  5  2  0  0  0  0
 10  6  1  0  0  0  0
 11 12  1  0  0  0  0
 11  2  1  0  0  0  0
 12 31  1  1  0  0  0
 12 14  1  0  0  0  0
 13  2  1  6  0  0  0
 13 15  1  0  0  0  0
 13  3  1  0  0  0  0
 15 14  1  6  0  0  0
 15  1  1  0  0  0  0
 17 16  1  0  0  0  0
 18 17  1  0  0  0  0
 18 19  1  0  0  0  0
 19 24  1  0  0  0  0
 20 21  1  0  0  0  0
 20 26  1  1  0  0  0
 22 29  1  1  0  0  0
 22 21  1  0  0  0  0
 23 24  1  0  0  0  0
 23 25  1  0  0  0  0
 24 22  1  0  0  0  0
 25 20  1  0  0  0  0
 26 28  1  0  0  0  0
 26 27  1  1  0  0  0
 29 30  1  0  0  0  0
 31 32  1  0  0  0  0
 33 34  1  0  0  0  0
 33 32  1  0  0  0  0
M  END
>  <MODEL>
5

>  <REMARK>
 VINA RESULT:      -6.5      3.717      8.391
  Name = 
  10 active torsions:
  status: ('A' for Active; 'I' for Inactive)
    1  A    between atoms: C_1  and  C_8
    2  A    between atoms: C_3  and  C_13
    3  A    between atoms: C_4  and  C_16
    4  A    between atoms: C_6  and  N_28
    5  A    between atoms: C_6  and  C_30
    6  A    between atoms: C_7  and  C_11
    7  A    between atoms: C_8  and  C_18
    8  A    between atoms: C_13  and  S_27
    9  A    between atoms: C_18  and  C_30
   10  A    between atoms: C_25  and  S_27
                            x       y       z     vdW  Elec       q    Type
                         _______ _______ _______ _____ _____    ______ ____

>  <TORSDO>
F 10

$$$$
=
 OpenBabel11052415443D

 34 37  0  0  1  0  0  0  0  0999 V2000
  188.1930  177.8690  144.0970 C   0  0  1  0  0  0  0  0  0  0  0  0
  191.9210  178.0910  143.8760 C   0  0  0  0  0  2  0  0  0  0  0  0
  190.5160  177.3510  145.6210 C   0  0  0  0  0  2  0  0  0  0  0  0
  188.2450  176.5680  143.5860 O   0  0  0  0  0  1  0  0  0  0  0  0
  186.8320  177.8370  146.2660 C   0  0  0  0  0  3  0  0  0  0  0  0
  187.9310  177.4510  148.3890 C   0  0  0  0  0  3  0  0  0  0  0  0
  186.7650  177.6860  147.6550 C   0  0  0  0  0  3  0  0  0  0  0  0
  189.2270  177.5200  146.3480 C   0  0  0  0  0  0  0  0  0  0  0  0
  188.0700  177.7750  145.6020 C   0  0  0  0  0  0  0  0  0  0  0  0
  189.1620  177.3590  147.7350 C   0  0  0  0  0  3  0  0  0  0  0  0
  191.6560  177.0720  142.7730 C   0  0  0  0  0  2  0  0  0  0  0  0
  190.7580  177.6790  141.7000 C   0  0  2  0  0  3  0  0  0  0  0  0
  190.6940  178.4070  144.6170 N   0  0  2  0  0  0  0  0  0  0  0  0
  189.8170  178.7640  142.2320 C   0  0  0  0  0  2  0  0  0  0  0  0
  189.5040  178.6360  143.7370 C   0  0  1  0  0  3  0  0  0  0  0  0
  186.9770  178.6110  143.5120 C   0  0  0  0  0  2  0  0  0  0  0  0
  185.9610  177.6840  142.8550 C   0  0  0  0  0  2  0  0  0  0  0  0
  184.5580  178.2530  142.9880 C   0  0  0  0  0  2  0  0  0  0  0  0
  184.2150  179.1480  141.8050 C   0  0  0  0  0  2  0  0  0  0  0  0
  181.5360  179.5000  138.9380 C   0  0  1  0  0  3  0  0  0  0  0  0
  182.8620  178.9520  138.3990 C   0  0  0  0  0  2  0  0  0  0  0  0
  183.9760  179.0730  139.4450 C   0  0  1  0  0  3  0  0  0  0  0  0
  182.2420  178.1670  140.9610 C   0  0  0  0  0  2  0  0  0  0  0  0
  183.6810  178.3550  140.7040 N   0  0  0  0  0  0  0  0  0  0  0  0
  181.4010  179.3430  140.4600 C   0  0  0  0  0  2  0  0  0  0  0  0
  181.3300  180.9480  138.4910 C   0  0  1  0  0  3  0  0  0  0  0  0
  180.8040  181.0060  137.0680 C   0  0  0  0  0  1  0  0  0  0  0  0
  180.4540  181.6190  139.3490 O   0  0  0  0  0  1  0  0  0  0  0  0
  185.3150  178.6260  138.8630 C   0  0  0  0  0  2  0  0  0  0  0  0
  185.1390  177.7010  137.6700 C   0  0  0  0  0  1  0  0  0  0  0  0
  189.8210  176.3770  140.8470 S   0  0  0  0  0  0  0  0  0  0  0  0
  188.8070  177.5800  139.9300 C   0  0  0  0  0  2  0  0  0  0  0  0
  188.8890  177.3240  138.4340 C   0  0  0  0  0  2  0  0  0  0  0  0
  188.9700  178.6360  137.6770 C   0  0  0  0  0  1  0  0  0  0  0  0
  1  4  1  6  0  0  0
  1  9  1  0  0  0  0
  3  8  1  0  0  0  0
  5  7  1  0  0  0  0
  7  6  2  0  0  0  0
  8 10  2  0  0  0  0
  9  5  2  0  0  0  0
  9  8  1  0  0  0  0
 10  6  1  0  0  0  0
 11  2  1  0  0  0  0
 12 31  1  1  0  0  0
 12 14  1  0  0  0  0
 12 11  1  0  0  0  0
 13  2  1  6  0  0  0
 13  3  1  0  0  0  0
 15 14  1  6  0  0  0
 15  1  1  0  0  0  0
 15 13  1  0  0  0  0
 16  1  1  0  0  0  0
 17 18  1  0  0  0  0
 17 16  1  0  0  0  0
 19 18  1  0  0  0  0
 20 26  1  1  0  0  0
 20 25  1  0  0  0  0
 21 20  1  0  0  0  0
 21 22  1  0  0  0  0
 22 29  1  6  0  0  0
 22 24  1  0  0  0  0
 24 23  1  0  0  0  0
 24 19  1  0  0  0  0
 25 23  1  0  0  0  0
 26 27  1  6  0  0  0
 26 28  1  0  0  0  0
 30 29  1  0  0  0  0
 32 31  1  0  0  0  0
 33 32  1  0  0  0  0
 34 33  1  0  0  0  0
M  END
>  <MODEL>
6

>  <REMARK>
 VINA RESULT:      -6.5      3.028      6.688
  Name = 
  10 active torsions:
  status: ('A' for Active; 'I' for Inactive)
    1  A    between atoms: C_1  and  C_8
    2  A    between atoms: C_3  and  C_13
    3  A    between atoms: C_4  and  C_16
    4  A    between atoms: C_6  and  N_28
    5  A    between atoms: C_6  and  C_30
    6  A    between atoms: C_7  and  C_11
    7  A    between atoms: C_8  and  C_18
    8  A    between atoms: C_13  and  S_27
    9  A    between atoms: C_18  and  C_30
   10  A    between atoms: C_25  and  S_27
                            x       y       z     vdW  Elec       q    Type
                         _______ _______ _______ _____ _____    ______ ____

>  <TORSDO>
F 10

$$$$
=
 OpenBabel11052415443D

 34 37  0  0  1  0  0  0  0  0999 V2000
  188.2730  177.7220  141.8430 C   0  0  1  0  0  0  0  0  0  0  0  0
  191.1120  175.6900  143.1860 C   0  0  0  0  0  2  0  0  0  0  0  0
  190.8890  176.8920  141.1680 C   0  0  0  0  0  2  0  0  0  0  0  0
  188.8000  178.8600  142.4630 O   0  0  0  0  0  1  0  0  0  0  0  0
  187.8650  178.2580  139.3720 C   0  0  0  0  0  3  0  0  0  0  0  0
  189.6120  177.8760  137.7390 C   0  0  0  0  0  3  0  0  0  0  0  0
  188.3220  178.3120  138.0510 C   0  0  0  0  0  3  0  0  0  0  0  0
  189.9890  177.3310  140.0650 C   0  0  0  0  0  0  0  0  0  0  0  0
  188.6910  177.7460  140.3890 C   0  0  0  0  0  0  0  0  0  0  0  0
  190.4500  177.3930  138.7480 C   0  0  0  0  0  3  0  0  0  0  0  0
  191.0580  176.7890  144.2420 C   0  0  0  0  0  2  0  0  0  0  0  0
  189.6930  176.7970  144.9230 C   0  0  2  0  0  3  0  0  0  0  0  0
  190.1940  175.9710  142.0750 N   0  0  2  0  0  0  0  0  0  0  0  0
  188.5590  176.2870  144.0280 C   0  0  0  0  0  2  0  0  0  0  0  0
  188.8410  176.4350  142.5180 C   0  0  1  0  0  3  0  0  0  0  0  0
  186.7370  177.7330  141.9520 C   0  0  0  0  0  2  0  0  0  0  0  0
  186.2090  178.7450  142.9640 C   0  0  0  0  0  2  0  0  0  0  0  0
  184.6960  178.8470  142.8740 C   0  0  0  0  0  2  0  0  0  0  0  0
  184.1640  178.0770  141.6720 C   0  0  0  0  0  2  0  0  0  0  0  0
  182.7670  178.0750  137.9890 C   0  0  1  0  0  3  0  0  0  0  0  0
  181.7100  178.5620  138.9860 C   0  0  0  0  0  2  0  0  0  0  0  0
  182.1540  178.3060  140.4310 C   0  0  1  0  0  3  0  0  0  0  0  0
  184.3000  179.2360  139.6220 C   0  0  0  0  0  2  0  0  0  0  0  0
  183.4300  178.9670  140.7800 N   0  0  0  0  0  0  0  0  0  0  0  0
  184.1950  178.1510  138.5480 C   0  0  0  0  0  2  0  0  0  0  0  0
  182.4230  176.6730  137.4830 C   0  0  1  0  0  3  0  0  0  0  0  0
  183.2250  175.6170  138.2230 C   0  0  0  0  0  1  0  0  0  0  0  0
  181.0570  176.4110  137.6160 O   0  0  0  0  0  1  0  0  0  0  0  0
  181.0520  178.6950  141.4130 C   0  0  0  0  0  2  0  0  0  0  0  0
  179.8430  177.7790  141.3050 C   0  0  0  0  0  1  0  0  0  0  0  0
  189.3130  178.4550  145.5610 S   0  0  0  0  0  0  0  0  0  0  0  0
  187.7460  177.9080  146.3100 C   0  0  0  0  0  2  0  0  0  0  0  0
  187.9860  177.3110  147.6870 C   0  0  0  0  0  2  0  0  0  0  0  0
  188.9150  178.1990  148.4930 C   0  0  0  0  0  1  0  0  0  0  0  0
  1 16  1  0  0  0  0
  1  4  1  1  0  0  0
  1 15  1  0  0  0  0
  2 11  1  0  0  0  0
  5  9  1  0  0  0  0
  6  7  1  0  0  0  0
  6 10  2  0  0  0  0
  7  5  2  0  0  0  0
  8  9  2  0  0  0  0
  8  3  1  0  0  0  0
  9  1  1  0  0  0  0
 10  8  1  0  0  0  0
 11 12  1  0  0  0  0
 12 31  1  6  0  0  0
 13  3  1  6  0  0  0
 13 15  1  0  0  0  0
 13  2  1  0  0  0  0
 14 12  1  0  0  0  0
 15 14  1  1  0  0  0
 16 17  1  0  0  0  0
 18 17  1  0  0  0  0
 19 18  1  0  0  0  0
 20 26  1  1  0  0  0
 20 25  1  0  0  0  0
 20 21  1  0  0  0  0
 21 22  1  0  0  0  0
 22 24  1  0  0  0  0
 22 29  1  1  0  0  0
 23 24  1  0  0  0  0
 24 19  1  0  0  0  0
 25 23  1  0  0  0  0
 26 28  1  0  0  0  0
 26 27  1  1  0  0  0
 30 29  1  0  0  0  0
 31 32  1  0  0  0  0
 32 33  1  0  0  0  0
 33 34  1  0  0  0  0
M  END
>  <MODEL>
7

>  <REMARK>
 VINA RESULT:      -6.4      2.932      7.195
  Name = 
  10 active torsions:
  status: ('A' for Active; 'I' for Inactive)
    1  A    between atoms: C_1  and  C_8
    2  A    between atoms: C_3  and  C_13
    3  A    between atoms: C_4  and  C_16
    4  A    between atoms: C_6  and  N_28
    5  A    between atoms: C_6  and  C_30
    6  A    between atoms: C_7  and  C_11
    7  A    between atoms: C_8  and  C_18
    8  A    between atoms: C_13  and  S_27
    9  A    between atoms: C_18  and  C_30
   10  A    between atoms: C_25  and  S_27
                            x       y       z     vdW  Elec       q    Type
                         _______ _______ _______ _____ _____    ______ ____

>  <TORSDO>
F 10

$$$$
=
 OpenBabel11052415443D

 34 37  0  0  1  0  0  0  0  0999 V2000
  189.3200  176.7680  137.6020 C   0  0  1  0  0  0  0  0  0  0  0  0
  189.4120  173.3800  136.0190 C   0  0  0  0  0  2  0  0  0  0  0  0
  187.7310  175.0370  136.0320 C   0  0  0  0  0  2  0  0  0  0  0  0
  189.8580  177.3220  136.4370 O   0  0  0  0  0  1  0  0  0  0  0  0
  187.1980  178.0660  138.2150 C   0  0  0  0  0  3  0  0  0  0  0  0
  185.0490  177.3700  137.3420 C   0  0  0  0  0  3  0  0  0  0  0  0
  185.8170  178.2520  138.1080 C   0  0  0  0  0  3  0  0  0  0  0  0
  187.0440  176.1170  136.7930 C   0  0  0  0  0  0  0  0  0  0  0  0
  187.8220  176.9820  137.5720 C   0  0  0  0  0  0  0  0  0  0  0  0
  185.6650  176.3060  136.6760 C   0  0  0  0  0  3  0  0  0  0  0  0
  190.5460  174.0540  135.2550 C   0  0  0  0  0  2  0  0  0  0  0  0
  191.6340  174.5110  136.2210 C   0  0  2  0  0  3  0  0  0  0  0  0
  188.7050  174.3370  136.8790 N   0  0  2  0  0  0  0  0  0  0  0  0
  191.1090  174.8410  137.6220 C   0  0  0  0  0  2  0  0  0  0  0  0
  189.6180  175.2370  137.6520 C   0  0  1  0  0  3  0  0  0  0  0  0
  189.9280  177.4580  138.8370 C   0  0  0  0  0  2  0  0  0  0  0  0
  189.7220  176.6770  140.1300 C   0  0  0  0  0  2  0  0  0  0  0  0
  190.1840  177.4940  141.3250 C   0  0  0  0  0  2  0  0  0  0  0  0
  189.0240  178.2600  141.9470 C   0  0  0  0  0  2  0  0  0  0  0  0
  187.0820  177.2450  145.2200 C   0  0  1  0  0  3  0  0  0  0  0  0
  186.1190  177.4970  144.0550 C   0  0  0  0  0  2  0  0  0  0  0  0
  186.8420  178.1510  142.8720 C   0  0  1  0  0  3  0  0  0  0  0  0
  188.5440  176.4170  143.3380 C   0  0  0  0  0  2  0  0  0  0  0  0
  187.9640  177.3430  142.3500 N   0  0  0  0  0  0  0  0  0  0  0  0
  188.5230  176.9880  144.7570 C   0  0  0  0  0  2  0  0  0  0  0  0
  187.0010  178.3800  146.2410 C   0  0  1  0  0  3  0  0  0  0  0  0
  185.5790  178.8960  146.3690 C   0  0  0  0  0  1  0  0  0  0  0  0
  187.4700  177.9660  147.4920 O   0  0  0  0  0  1  0  0  0  0  0  0
  185.8550  178.4970  141.7600 C   0  0  0  0  0  2  0  0  0  0  0  0
  184.4800  178.8490  142.3050 C   0  0  0  0  0  1  0  0  0  0  0  0
  192.5480  175.9200  135.5290 S   0  0  0  0  0  0  0  0  0  0  0  0
  193.8750  175.7870  136.7670 C   0  0  0  0  0  2  0  0  0  0  0  0
  194.5770  174.4420  136.6620 C   0  0  0  0  0  2  0  0  0  0  0  0
  194.7950  173.8500  138.0420 C   0  0  0  0  0  1  0  0  0  0  0  0
  1  4  1  6  0  0  0
  1 15  1  0  0  0  0
  1 16  1  0  0  0  0
  3  8  1  0  0  0  0
  3 13  1  0  0  0  0
  6  7  2  0  0  0  0
  7  5  1  0  0  0  0
  8  9  1  0  0  0  0
  9  1  1  0  0  0  0
  9  5  2  0  0  0  0
 10  8  2  0  0  0  0
 10  6  1  0  0  0  0
 11  2  1  0  0  0  0
 11 12  1  0  0  0  0
 12 31  1  6  0  0  0
 12 14  1  0  0  0  0
 13  2  1  6  0  0  0
 13 15  1  0  0  0  0
 15 14  1  6  0  0  0
 16 17  1  0  0  0  0
 17 18  1  0  0  0  0
 18 19  1  0  0  0  0
 19 24  1  0  0  0  0
 20 26  1  1  0  0  0
 21 20  1  0  0  0  0
 22 29  1  6  0  0  0
 22 21  1  0  0  0  0
 23 25  1  0  0  0  0
 24 22  1  0  0  0  0
 24 23  1  0  0  0  0
 25 20  1  0  0  0  0
 26 27  1  1  0  0  0
 26 28  1  0  0  0  0
 29 30  1  0  0  0  0
 31 32  1  0  0  0  0
 33 32  1  0  0  0  0
 33 34  1  0  0  0  0
M  END
>  <MODEL>
8

>  <REMARK>
 VINA RESULT:      -6.4      2.745      9.125
  Name = 
  10 active torsions:
  status: ('A' for Active; 'I' for Inactive)
    1  A    between atoms: C_1  and  C_8
    2  A    between atoms: C_3  and  C_13
    3  A    between atoms: C_4  and  C_16
    4  A    between atoms: C_6  and  N_28
    5  A    between atoms: C_6  and  C_30
    6  A    between atoms: C_7  and  C_11
    7  A    between atoms: C_8  and  C_18
    8  A    between atoms: C_13  and  S_27
    9  A    between atoms: C_18  and  C_30
   10  A    between atoms: C_25  and  S_27
                            x       y       z     vdW  Elec       q    Type
                         _______ _______ _______ _____ _____    ______ ____

>  <TORSDO>
F 10

$$$$
=
 OpenBabel11052415443D

 34 37  0  0  1  0  0  0  0  0999 V2000
  187.8350  178.1550  143.4720 C   0  0  1  0  0  0  0  0  0  0  0  0
  191.0710  177.6240  145.2720 C   0  0  0  0  0  2  0  0  0  0  0  0
  188.8390  177.3590  145.9910 C   0  0  0  0  0  2  0  0  0  0  0  0
  187.8570  176.8220  143.0490 O   0  0  0  0  0  1  0  0  0  0  0  0
  185.5730  178.6170  144.5830 C   0  0  0  0  0  3  0  0  0  0  0  0
  185.2860  178.2500  146.9600 C   0  0  0  0  0  3  0  0  0  0  0  0
  184.7610  178.6290  145.7210 C   0  0  0  0  0  3  0  0  0  0  0  0
  187.4350  177.8510  145.9230 C   0  0  0  0  0  0  0  0  0  0  0  0
  186.9260  178.2460  144.6800 C   0  0  0  0  0  0  0  0  0  0  0  0
  186.6220  177.8530  147.0600 C   0  0  0  0  0  3  0  0  0  0  0  0
  191.2040  176.5650  144.1830 C   0  0  0  0  0  2  0  0  0  0  0  0
  191.1570  177.2190  142.8050 C   0  0  2  0  0  3  0  0  0  0  0  0
  189.7420  178.2480  145.2510 N   0  0  2  0  0  0  0  0  0  0  0  0
  190.3430  178.5160  142.7710 C   0  0  0  0  0  2  0  0  0  0  0  0
  189.2710  178.6110  143.8760 C   0  0  1  0  0  3  0  0  0  0  0  0
  187.3020  179.0530  142.3410 C   0  0  0  0  0  2  0  0  0  0  0  0
  186.5630  178.2820  141.2530 C   0  0  0  0  0  2  0  0  0  0  0  0
  185.2830  179.0030  140.8650 C   0  0  0  0  0  2  0  0  0  0  0  0
  184.0550  178.1990  141.2690 C   0  0  0  0  0  2  0  0  0  0  0  0
  180.3770  177.7460  139.9320 C   0  0  1  0  0  3  0  0  0  0  0  0
  180.3940  178.4550  141.2910 C   0  0  0  0  0  2  0  0  0  0  0  0
  181.7840  178.3870  141.9330 C   0  0  1  0  0  3  0  0  0  0  0  0
  182.5360  179.0230  139.6630 C   0  0  0  0  0  2  0  0  0  0  0  0
  182.8450  178.9970  141.1040 N   0  0  0  0  0  0  0  0  0  0  0  0
  181.7340  177.8000  139.2150 C   0  0  0  0  0  2  0  0  0  0  0  0
  179.8620  176.3140  140.0780 C   0  0  1  0  0  3  0  0  0  0  0  0
  180.9750  175.3100  139.8380 C   0  0  0  0  0  1  0  0  0  0  0  0
  179.3010  176.1070  141.3420 O   0  0  0  0  0  1  0  0  0  0  0  0
  181.7650  178.9980  143.3320 C   0  0  0  0  0  2  0  0  0  0  0  0
  180.4200  178.8140  144.0170 C   0  0  0  0  0  1  0  0  0  0  0  0
  190.5430  176.0410  141.5660 S   0  0  0  0  0  0  0  0  0  0  0  0
  191.0410  177.1050  140.1750 C   0  0  0  0  0  2  0  0  0  0  0  0
  189.9830  177.0950  139.0830 C   0  0  0  0  0  2  0  0  0  0  0  0
  189.2820  178.4390  139.0140 C   0  0  0  0  0  1  0  0  0  0  0  0
  1  4  1  6  0  0  0
  1 15  1  0  0  0  0
  1  9  1  0  0  0  0
  5  9  2  0  0  0  0
  5  7  1  0  0  0  0
  6 10  1  0  0  0  0
  7  6  2  0  0  0  0
  8  3  1  0  0  0  0
  8 10  2  0  0  0  0
  9  8  1  0  0  0  0
 11  2  1  0  0  0  0
 12 31  1  6  0  0  0
 12 11  1  0  0  0  0
 13  2  1  6  0  0  0
 13  3  1  0  0  0  0
 14 12  1  0  0  0  0
 15 14  1  6  0  0  0
 15 13  1  0  0  0  0
 16  1  1  0  0  0  0
 17 16  1  0  0  0  0
 18 17  1  0  0  0  0
 18 19  1  0  0  0  0
 20 26  1  1  0  0  0
 20 21  1  0  0  0  0
 21 22  1  0  0  0  0
 22 29  1  1  0  0  0
 23 24  1  0  0  0  0
 24 19  1  0  0  0  0
 24 22  1  0  0  0  0
 25 23  1  0  0  0  0
 25 20  1  0  0  0  0
 26 27  1  1  0  0  0
 26 28  1  0  0  0  0
 29 30  1  0  0  0  0
 32 31  1  0  0  0  0
 33 32  1  0  0  0  0
 34 33  1  0  0  0  0
M  END
>  <MODEL>
9

>  <REMARK>
 VINA RESULT:      -6.4      3.379      7.227
  Name = 
  10 active torsions:
  status: ('A' for Active; 'I' for Inactive)
    1  A    between atoms: C_1  and  C_8
    2  A    between atoms: C_3  and  C_13
    3  A    between atoms: C_4  and  C_16
    4  A    between atoms: C_6  and  N_28
    5  A    between atoms: C_6  and  C_30
    6  A    between atoms: C_7  and  C_11
    7  A    between atoms: C_8  and  C_18
    8  A    between atoms: C_13  and  S_27
    9  A    between atoms: C_18  and  C_30
   10  A    between atoms: C_25  and  S_27
                            x       y       z     vdW  Elec       q    Type
                         _______ _______ _______ _____ _____    ______ ____

>  <TORSDO>
F 10

$$$$
