=
 OpenBabel11052415013D

 55 60  0  0  1  0  0  0  0  0999 V2000
  183.8040  178.6840  143.3600 C   0  0  0  0  0  2  0  0  0  0  0  0
  181.0520  178.9290  142.3550 C   0  0  2  0  0  3  0  0  0  0  0  0
  182.2140  178.5810  141.4310 C   0  0  0  0  0  2  0  0  0  0  0  0
  182.6510  179.0450  144.2920 C   0  0  0  0  0  2  0  0  0  0  0  0
  183.5110  179.2010  141.9530 C   0  0  2  0  0  3  0  0  0  0  0  0
  181.3480  178.4400  143.7780 C   0  0  0  0  0  2  0  0  0  0  0  0
  179.7880  178.2730  141.8230 C   0  0  0  0  0  2  0  0  0  0  0  0
  179.8590  177.3970  139.4560 N   0  0  0  0  0  2  0  0  0  0  0  0
  179.6600  178.4910  140.3540 C   0  0  0  0  0  0  0  0  0  0  0  0
  179.3490  179.6310  139.9170 O   0  0  0  0  0  0  0  0  0  0  0  0
  179.6110  177.5020  138.0250 C   0  0  0  0  0  2  0  0  0  0  0  0
  180.8970  177.8300  137.2780 C   0  0  2  0  0  3  0  0  0  0  0  0
  180.8570  180.0410  136.3780 O   0  0  0  0  0  1  0  0  0  0  0  0
  180.5930  178.8210  136.1950 C   0  0  0  0  0  0  0  0  0  0  0  0
  179.9560  178.4260  135.0250 O   0  0  0  0  0  0  0  0  0  0  0  0
  181.4770  176.6040  136.7200 N   0  0  0  0  0  2  0  0  0  0  0  0
  183.7530  176.2410  135.8870 C   0  0  1  0  0  3  0  0  0  0  0  0
  182.1420  174.1560  137.5950 F   0  0  0  0  0  0  0  0  0  0  0  0
  182.8720  176.4190  137.1460 C   0  0  2  0  0  0  0  0  0  0  0  0
  186.6250  173.6060  136.1440 C   0  0  0  0  0  3  0  0  0  0  0  0
  182.9790  175.3520  139.3310 F   0  0  0  0  0  0  0  0  0  0  0  0
  183.0650  175.1240  137.9680 C   0  0  0  0  0  0  0  0  0  0  0  0
  184.6290  177.3210  135.7060 O   0  0  0  0  0  1  0  0  0  0  0  0
  186.1280  172.8890  137.1750 C   0  0  0  0  0  3  0  0  0  0  0  0
  184.8170  173.2260  137.8490 C   0  0  0  0  0  2  0  0  0  0  0  0
  184.5090  174.9330  136.0980 C   0  0  2  0  0  3  0  0  0  0  0  0
  184.4600  174.6860  137.5830 C   0  0  1  0  0  3  0  0  0  0  0  0
  185.9610  174.8660  135.6270 C   0  0  0  0  0  2  0  0  0  0  0  0
  183.3160  177.5310  137.8830 O   0  0  0  0  0  1  0  0  0  0  0  0
  184.6640  178.8450  141.0310 C   0  0  0  0  0  2  0  0  0  0  0  0
  185.8390  178.3250  141.8390 C   0  0  0  0  0  2  0  0  0  0  0  0
  187.1260  178.8720  141.2650 C   0  0  0  0  0  2  0  0  0  0  0  0
  187.3640  178.2760  139.9550 N   0  0  0  0  0  2  0  0  0  0  0  0
  188.8070  176.4510  139.3220 C   0  0  0  0  0  2  0  0  0  0  0  0
  189.1550  177.8240  137.3420 C   0  0  1  0  0  3  0  0  0  0  0  0
  188.7730  177.8960  139.7570 C   0  0  1  0  0  0  0  0  0  0  0  0
  189.4330  178.6370  138.6000 C   0  0  0  0  0  2  0  0  0  0  0  0
  188.6640  176.4640  137.8120 C   0  0  0  0  0  2  0  0  0  0  0  0
  188.1190  178.4810  136.4690 C   0  0  0  0  0  0  0  0  0  0  0  0
  187.5220  179.6690  136.8730 O   0  0  0  0  0  1  0  0  0  0  0  0
  187.7630  177.9480  135.3840 O   0  0  0  0  0  0  0  0  0  0  0  0
  189.5770  178.0070  141.0550 C   0  0  0  0  0  2  0  0  0  0  0  0
  189.8510  176.6570  141.7210 C   0  0  0  0  0  2  0  0  0  0  0  0
  189.7130  176.7250  143.2450 C   0  0  1  0  0  3  0  0  0  0  0  0
  191.1740  177.7850  144.9590 C   0  0  0  0  0  2  0  0  0  0  0  0
  190.2260  178.0500  143.8020 C   0  0  0  0  0  3  0  0  0  0  0  0
  191.7210  178.1260  143.5960 C   0  0  0  0  0  2  0  0  0  0  0  0
  188.2780  176.4900  143.6870 C   0  0  0  0  0  2  0  0  0  0  0  0
  187.8790  177.5410  144.7060 C   0  0  0  0  0  2  0  0  0  0  0  0
  187.6500  176.8650  146.0460 C   0  0  0  0  0  2  0  0  0  0  0  0
  187.9920  177.5440  148.4950 C   0  0  0  0  0  2  0  0  0  0  0  0
  187.4840  177.8970  147.1550 C   0  0  1  0  0  0  0  0  0  0  0  0
  188.7040  178.4080  147.6310 O   0  0  0  0  0  0  0  0  0  0  0  0
  186.4120  178.9700  147.0580 C   0  0  0  0  0  2  0  0  0  0  0  0
  185.0490  178.3420  146.8450 C   0  0  0  0  0  1  0  0  0  0  0  0
  1  4  1  0  0  0  0
  2  7  1  6  0  0  0
  2  6  1  0  0  0  0
  3  5  1  0  0  0  0
  3  2  1  0  0  0  0
  5 30  1  6  0  0  0
  5  1  1  0  0  0  0
  6  4  1  0  0  0  0
  8  9  1  0  0  0  0
  9  7  1  0  0  0  0
 10  9  2  0  0  0  0
 11  8  1  0  0  0  0
 12 11  1  6  0  0  0
 14 13  1  0  0  0  0
 14 12  1  0  0  0  0
 15 14  2  0  0  0  0
 16 19  1  0  0  0  0
 16 12  1  0  0  0  0
 17 23  1  1  0  0  0
 17 26  1  0  0  0  0
 17 19  1  0  0  0  0
 18 22  1  0  0  0  0
 19 29  1  1  0  0  0
 19 22  1  0  0  0  0
 20 24  2  0  0  0  0
 22 21  1  0  0  0  0
 24 25  1  0  0  0  0
 26 28  1  1  0  0  0
 26 27  1  0  0  0  0
 27 25  1  6  0  0  0
 27 22  1  0  0  0  0
 28 20  1  0  0  0  0
 30 31  1  0  0  0  0
 32 31  1  0  0  0  0
 33 32  1  0  0  0  0
 34 36  1  0  0  0  0
 35 39  1  6  0  0  0
 35 38  1  0  0  0  0
 35 37  1  0  0  0  0
 36 33  1  0  0  0  0
 36 42  1  1  0  0  0
 37 36  1  0  0  0  0
 38 34  1  0  0  0  0
 39 40  1  0  0  0  0
 41 39  2  0  0  0  0
 42 43  1  0  0  0  0
 44 43  1  6  0  0  0
 44 48  1  0  0  0  0
 44 46  1  0  0  0  0
 46 45  1  0  0  0  0
 47 46  1  0  0  0  0
 47 45  1  0  0  0  0
 48 49  1  0  0  0  0
 49 50  1  0  0  0  0
 52 50  1  6  0  0  0
 52 53  1  0  0  0  0
 52 51  1  0  0  0  0
 53 51  1  0  0  0  0
 54 52  1  0  0  0  0
 55 54  1  0  0  0  0
M  END
>  <MODEL>
1

>  <REMARK>
 VINA RESULT:      -6.9      0.000      0.000
  Name = 
  22 active torsions:
  status: ('A' for Active; 'I' for Inactive)
    1  A    between atoms: C_2  and  C_28
    2  A    between atoms: C_2  and  C_44
    3  A    between atoms: C_5  and  C_19
    4  A    between atoms: C_6  and  N_46
    5  A    between atoms: C_8  and  CA_22
    6  A    between atoms: C_8  and  N_35
    7  A    between atoms: C_10  and  C_32
    8  A    between atoms: C_15  and  C_17
    9  A    between atoms: C_16  and  C_17
   10  A    between atoms: C_16  and  C_26
   11  A    between atoms: C_17  and  C_36
   12  A    between atoms: C_19  and  C_45
   13  A    between atoms: C_20  and  CA_22
   14  A    between atoms: CA_22  and  N_46
   15  A    between atoms: C_26  and  C_45
   16  A    between atoms: C_27  and  C_54
   17  A    between atoms: C_28  and  C_33
   18  A    between atoms: C_33  and  N_49
   19  A    between atoms: C_34  and  N_49
   20  A    between atoms: C_34  and  C_52
   21  A    between atoms: C_36  and  C_52
   22  A    between atoms: C_43  and  C_54
                            x       y       z     vdW  Elec       q    Type
                         _______ _______ _______ _____ _____    ______ ____

>  <TORSDO>
F 22

$$$$
=
 OpenBabel11052415013D

 55 60  0  0  1  0  0  0  0  0999 V2000
  188.0740  178.3960  137.8260 C   0  0  0  0  0  2  0  0  0  0  0  0
  189.5820  177.3850  140.1380 C   0  0  2  0  0  3  0  0  0  0  0  0
  188.0580  177.3440  140.0960 C   0  0  0  0  0  2  0  0  0  0  0  0
  189.5990  178.4530  137.8620 C   0  0  0  0  0  2  0  0  0  0  0  0
  187.5210  178.4960  139.2450 C   0  0  2  0  0  3  0  0  0  0  0  0
  190.1500  177.3140  138.7150 C   0  0  0  0  0  2  0  0  0  0  0  0
  190.0820  176.2120  140.9660 C   0  0  0  0  0  2  0  0  0  0  0  0
  191.0350  175.8710  143.2790 N   0  0  0  0  0  2  0  0  0  0  0  0
  190.9050  176.6880  142.1130 C   0  0  0  0  0  0  0  0  0  0  0  0
  191.5020  177.7940  142.0360 O   0  0  0  0  0  0  0  0  0  0  0  0
  191.9320  176.2040  144.3750 C   0  0  0  0  0  2  0  0  0  0  0  0
  191.1620  176.8260  145.5330 C   0  0  2  0  0  3  0  0  0  0  0  0
  192.3490  175.2530  146.8800 O   0  0  0  0  0  0  0  0  0  0  0  0
  191.7730  176.3740  146.8250 C   0  0  0  0  0  0  0  0  0  0  0  0
  191.6450  177.1360  147.9800 O   0  0  0  0  0  1  0  0  0  0  0  0
  189.7490  176.4420  145.4570 N   0  0  0  0  0  2  0  0  0  0  0  0
  187.8900  177.5100  146.6420 C   0  0  1  0  0  3  0  0  0  0  0  0
  187.7070  176.3840  143.7170 F   0  0  0  0  0  0  0  0  0  0  0  0
  188.8650  177.6170  145.4480 C   0  0  2  0  0  0  0  0  0  0  0  0
  184.2150  178.6580  145.9840 C   0  0  0  0  0  3  0  0  0  0  0  0
  188.5240  178.4290  143.1780 F   0  0  0  0  0  0  0  0  0  0  0  0
  187.9680  177.6640  144.1890 C   0  0  0  0  0  0  0  0  0  0  0  0
  188.1300  178.5030  147.6030 O   0  0  0  0  0  1  0  0  0  0  0  0
  184.2250  178.5510  144.6380 C   0  0  0  0  0  3  0  0  0  0  0  0
  185.4400  178.0940  143.8630 C   0  0  0  0  0  2  0  0  0  0  0  0
  186.4930  177.6350  146.0430 C   0  0  2  0  0  3  0  0  0  0  0  0
  186.6970  178.2960  144.7050 C   0  0  1  0  0  3  0  0  0  0  0  0
  185.4450  178.4170  146.8350 C   0  0  0  0  0  2  0  0  0  0  0  0
  189.6160  178.8020  145.5510 O   0  0  0  0  0  1  0  0  0  0  0  0
  186.0040  178.4450  139.2030 C   0  0  0  0  0  2  0  0  0  0  0  0
  185.4260  178.9900  140.4960 C   0  0  0  0  0  2  0  0  0  0  0  0
  183.9440  178.6960  140.5490 C   0  0  0  0  0  2  0  0  0  0  0  0
  183.3260  179.0940  139.2880 N   0  0  0  0  0  2  0  0  0  0  0  0
  181.2410  178.5150  140.3500 C   0  0  0  0  0  2  0  0  0  0  0  0
  180.3620  180.2090  138.8400 C   0  0  1  0  0  3  0  0  0  0  0  0
  182.0290  178.4340  139.0650 C   0  0  1  0  0  0  0  0  0  0  0  0
  181.1530  179.1700  138.0570 C   0  0  0  0  0  2  0  0  0  0  0  0
  180.5040  179.8390  140.3080 C   0  0  0  0  0  2  0  0  0  0  0  0
  180.8790  181.6030  138.6000 C   0  0  0  0  0  0  0  0  0  0  0  0
  179.9880  182.6460  138.3720 O   0  0  0  0  0  0  0  0  0  0  0  0
  182.1170  181.8320  138.5710 O   0  0  0  0  0  1  0  0  0  0  0  0
  182.1990  176.9520  138.7190 C   0  0  0  0  0  2  0  0  0  0  0  0
  181.6700  176.5850  137.3310 C   0  0  0  0  0  2  0  0  0  0  0  0
  181.3870  175.0850  137.1990 C   0  0  1  0  0  3  0  0  0  0  0  0
  179.8520  173.6260  138.5070 C   0  0  0  0  0  2  0  0  0  0  0  0
  179.9270  174.7550  137.4930 C   0  0  0  0  0  3  0  0  0  0  0  0
  179.6360  175.0530  138.9460 C   0  0  0  0  0  2  0  0  0  0  0  0
  181.7790  174.5610  135.8270 C   0  0  0  0  0  2  0  0  0  0  0  0
  182.7190  173.3800  135.9820 C   0  0  0  0  0  2  0  0  0  0  0  0
  183.6260  173.6250  137.1740 C   0  0  0  0  0  2  0  0  0  0  0  0
  186.0610  172.9050  137.5290 C   0  0  0  0  0  2  0  0  0  0  0  0
  185.0860  173.6880  136.7440 C   0  0  1  0  0  0  0  0  0  0  0  0
  185.5840  172.4600  136.2750 O   0  0  0  0  0  0  0  0  0  0  0  0
  185.6040  174.8640  135.9330 C   0  0  0  0  0  2  0  0  0  0  0  0
  185.1820  176.1740  136.5690 C   0  0  0  0  0  1  0  0  0  0  0  0
  1  4  1  0  0  0  0
  1  5  1  0  0  0  0
  2  7  1  1  0  0  0
  3  2  1  0  0  0  0
  4  6  1  0  0  0  0
  5 30  1  6  0  0  0
  5  3  1  0  0  0  0
  6  2  1  0  0  0  0
  7  9  1  0  0  0  0
  8 11  1  0  0  0  0
  9  8  1  0  0  0  0
 10  9  2  0  0  0  0
 12 11  1  6  0  0  0
 12 14  1  0  0  0  0
 14 13  2  0  0  0  0
 14 15  1  0  0  0  0
 16 12  1  0  0  0  0
 17 23  1  1  0  0  0
 18 22  1  0  0  0  0
 19 16  1  0  0  0  0
 19 29  1  1  0  0  0
 19 17  1  0  0  0  0
 20 28  1  0  0  0  0
 21 22  1  0  0  0  0
 22 27  1  0  0  0  0
 22 19  1  0  0  0  0
 24 20  2  0  0  0  0
 25 24  1  0  0  0  0
 26 17  1  0  0  0  0
 26 28  1  1  0  0  0
 27 25  1  6  0  0  0
 27 26  1  0  0  0  0
 30 31  1  0  0  0  0
 31 32  1  0  0  0  0
 33 32  1  0  0  0  0
 35 39  1  1  0  0  0
 35 38  1  0  0  0  0
 36 42  1  6  0  0  0
 36 33  1  0  0  0  0
 36 34  1  0  0  0  0
 37 35  1  0  0  0  0
 37 36  1  0  0  0  0
 38 34  1  0  0  0  0
 40 39  2  0  0  0  0
 41 39  1  0  0  0  0
 43 42  1  0  0  0  0
 44 48  1  6  0  0  0
 44 43  1  0  0  0  0
 44 46  1  0  0  0  0
 45 47  1  0  0  0  0
 46 45  1  0  0  0  0
 46 47  1  0  0  0  0
 48 49  1  0  0  0  0
 49 50  1  0  0  0  0
 52 54  1  6  0  0  0
 52 50  1  0  0  0  0
 52 51  1  0  0  0  0
 53 52  1  0  0  0  0
 53 51  1  0  0  0  0
 54 55  1  0  0  0  0
M  END
>  <MODEL>
2

>  <REMARK>
 VINA RESULT:      -6.8      2.810     10.386
  Name = 
  22 active torsions:
  status: ('A' for Active; 'I' for Inactive)
    1  A    between atoms: C_2  and  C_28
    2  A    between atoms: C_2  and  C_44
    3  A    between atoms: C_5  and  C_19
    4  A    between atoms: C_6  and  N_46
    5  A    between atoms: C_8  and  CA_22
    6  A    between atoms: C_8  and  N_35
    7  A    between atoms: C_10  and  C_32
    8  A    between atoms: C_15  and  C_17
    9  A    between atoms: C_16  and  C_17
   10  A    between atoms: C_16  and  C_26
   11  A    between atoms: C_17  and  C_36
   12  A    between atoms: C_19  and  C_45
   13  A    between atoms: C_20  and  CA_22
   14  A    between atoms: CA_22  and  N_46
   15  A    between atoms: C_26  and  C_45
   16  A    between atoms: C_27  and  C_54
   17  A    between atoms: C_28  and  C_33
   18  A    between atoms: C_33  and  N_49
   19  A    between atoms: C_34  and  N_49
   20  A    between atoms: C_34  and  C_52
   21  A    between atoms: C_36  and  C_52
   22  A    between atoms: C_43  and  C_54
                            x       y       z     vdW  Elec       q    Type
                         _______ _______ _______ _____ _____    ______ ____

>  <TORSDO>
F 22

$$$$
=
 OpenBabel11052415013D

 55 60  0  0  1  0  0  0  0  0999 V2000
  185.6840  178.7200  144.1350 C   0  0  0  0  0  2  0  0  0  0  0  0
  182.7950  179.2630  144.1080 C   0  0  2  0  0  3  0  0  0  0  0  0
  183.5500  178.8790  142.8400 C   0  0  0  0  0  2  0  0  0  0  0  0
  184.9420  179.1150  145.4080 C   0  0  0  0  0  2  0  0  0  0  0  0
  185.0020  179.3510  142.9240 C   0  0  2  0  0  3  0  0  0  0  0  0
  183.4880  178.6580  145.3350 C   0  0  0  0  0  2  0  0  0  0  0  0
  181.3670  178.7540  144.0030 C   0  0  0  0  0  2  0  0  0  0  0  0
  180.5490  178.4630  141.6320 N   0  0  0  0  0  2  0  0  0  0  0  0
  180.7020  179.2960  142.7840 C   0  0  0  0  0  0  0  0  0  0  0  0
  180.2570  180.4740  142.7870 O   0  0  0  0  0  0  0  0  0  0  0  0
  179.7880  178.8750  140.4620 C   0  0  0  0  0  2  0  0  0  0  0  0
  180.7190  179.2310  139.3100 C   0  0  2  0  0  3  0  0  0  0  0  0
  181.4320  181.4400  138.7490 O   0  0  0  0  0  1  0  0  0  0  0  0
  180.4600  180.6470  138.8910 C   0  0  0  0  0  0  0  0  0  0  0  0
  179.1620  181.1180  138.7330 O   0  0  0  0  0  0  0  0  0  0  0  0
  180.5070  178.3050  138.1920 N   0  0  0  0  0  2  0  0  0  0  0  0
  182.8750  177.9850  138.7290 C   0  0  1  0  0  3  0  0  0  0  0  0
  181.7560  178.3500  135.8180 F   0  0  0  0  0  0  0  0  0  0  0  0
  181.6360  177.3780  138.0320 C   0  0  2  0  0  0  0  0  0  0  0  0
  186.2960  177.5050  136.9050 C   0  0  0  0  0  3  0  0  0  0  0  0
  181.4320  176.1100  135.9640 F   0  0  0  0  0  0  0  0  0  0  0  0
  182.0440  177.2050  136.5500 C   0  0  0  0  0  0  0  0  0  0  0  0
  183.2600  177.2390  139.8520 O   0  0  0  0  0  1  0  0  0  0  0  0
  185.8150  177.2640  135.6660 C   0  0  0  0  0  3  0  0  0  0  0  0
  184.3350  177.2460  135.3540 C   0  0  0  0  0  2  0  0  0  0  0  0
  183.9720  178.0090  137.6690 C   0  0  2  0  0  3  0  0  0  0  0  0
  183.5390  177.0040  136.6330 C   0  0  1  0  0  3  0  0  0  0  0  0
  185.3990  177.6900  138.1120 C   0  0  0  0  0  2  0  0  0  0  0  0
  181.3350  176.1280  138.6000 O   0  0  0  0  0  1  0  0  0  0  0  0
  185.7480  178.9600  141.6600 C   0  0  0  0  0  2  0  0  0  0  0  0
  186.8580  177.9790  141.9890 C   0  0  0  0  0  2  0  0  0  0  0  0
  188.0880  178.3190  141.1790 C   0  0  0  0  0  2  0  0  0  0  0  0
  189.2500  178.3630  142.0590 N   0  0  0  0  0  2  0  0  0  0  0  0
  191.5310  177.5990  142.2140 C   0  0  0  0  0  2  0  0  0  0  0  0
  190.6780  176.4270  144.1680 C   0  0  1  0  0  3  0  0  0  0  0  0
  190.1130  177.1790  141.9110 C   0  0  1  0  0  0  0  0  0  0  0  0
  189.8260  176.0990  142.9480 C   0  0  0  0  0  2  0  0  0  0  0  0
  191.7000  177.4560  143.7140 C   0  0  0  0  0  2  0  0  0  0  0  0
  189.8470  176.9780  145.2970 C   0  0  0  0  0  0  0  0  0  0  0  0
  190.4470  177.2950  146.5110 O   0  0  0  0  0  1  0  0  0  0  0  0
  188.6040  177.1270  145.1660 O   0  0  0  0  0  0  0  0  0  0  0  0
  190.0870  176.6350  140.4800 C   0  0  0  0  0  2  0  0  0  0  0  0
  191.2390  177.1460  139.6110 C   0  0  0  0  0  2  0  0  0  0  0  0
  191.3960  176.3320  138.3230 C   0  0  1  0  0  3  0  0  0  0  0  0
  190.6120  175.9630  135.9890 C   0  0  0  0  0  2  0  0  0  0  0  0
  190.5310  176.8840  137.1940 C   0  0  0  0  0  3  0  0  0  0  0  0
  189.4140  175.9080  136.9040 C   0  0  0  0  0  2  0  0  0  0  0  0
  192.8480  176.2550  137.8840 C   0  0  0  0  0  2  0  0  0  0  0  0
  193.2560  174.8020  137.7190 C   0  0  0  0  0  2  0  0  0  0  0  0
  194.5620  174.7410  136.9490 C   0  0  0  0  0  2  0  0  0  0  0  0
  197.0280  174.5220  137.6150 C   0  0  0  0  0  2  0  0  0  0  0  0
  195.6420  174.0380  137.7620 C   0  0  1  0  0  0  0  0  0  0  0  0
  196.2350  174.8610  138.7350 O   0  0  0  0  0  0  0  0  0  0  0  0
  195.4300  172.6190  138.2640 C   0  0  0  0  0  2  0  0  0  0  0  0
  195.0510  171.7010  137.1180 C   0  0  0  0  0  1  0  0  0  0  0  0
  1  4  1  0  0  0  0
  2  7  1  6  0  0  0
  2  6  1  0  0  0  0
  3  5  1  0  0  0  0
  3  2  1  0  0  0  0
  5 30  1  6  0  0  0
  5  1  1  0  0  0  0
  6  4  1  0  0  0  0
  8  9  1  0  0  0  0
  9 10  2  0  0  0  0
  9  7  1  0  0  0  0
 11  8  1  0  0  0  0
 12 11  1  1  0  0  0
 13 14  1  0  0  0  0
 14 12  1  0  0  0  0
 15 14  2  0  0  0  0
 16 12  1  0  0  0  0
 17 23  1  1  0  0  0
 18 22  1  0  0  0  0
 19 16  1  0  0  0  0
 19 29  1  1  0  0  0
 19 17  1  0  0  0  0
 20 28  1  0  0  0  0
 21 22  1  0  0  0  0
 22 27  1  0  0  0  0
 22 19  1  0  0  0  0
 24 20  2  0  0  0  0
 25 24  1  0  0  0  0
 26 28  1  1  0  0  0
 26 17  1  0  0  0  0
 27 25  1  6  0  0  0
 27 26  1  0  0  0  0
 30 31  1  0  0  0  0
 32 31  1  0  0  0  0
 32 33  1  0  0  0  0
 34 38  1  0  0  0  0
 35 39  1  1  0  0  0
 36 42  1  6  0  0  0
 36 33  1  0  0  0  0
 36 34  1  0  0  0  0
 36 37  1  0  0  0  0
 37 35  1  0  0  0  0
 38 35  1  0  0  0  0
 39 40  1  0  0  0  0
 41 39  2  0  0  0  0
 43 42  1  0  0  0  0
 44 48  1  6  0  0  0
 44 43  1  0  0  0  0
 45 47  1  0  0  0  0
 45 46  1  0  0  0  0
 46 44  1  0  0  0  0
 47 46  1  0  0  0  0
 49 48  1  0  0  0  0
 50 49  1  0  0  0  0
 51 52  1  0  0  0  0
 51 53  1  0  0  0  0
 52 50  1  6  0  0  0
 52 54  1  0  0  0  0
 52 53  1  0  0  0  0
 55 54  1  0  0  0  0
M  END
>  <MODEL>
3

>  <REMARK>
 VINA RESULT:      -6.6      3.318      6.331
  Name = 
  22 active torsions:
  status: ('A' for Active; 'I' for Inactive)
    1  A    between atoms: C_2  and  C_28
    2  A    between atoms: C_2  and  C_44
    3  A    between atoms: C_5  and  C_19
    4  A    between atoms: C_6  and  N_46
    5  A    between atoms: C_8  and  CA_22
    6  A    between atoms: C_8  and  N_35
    7  A    between atoms: C_10  and  C_32
    8  A    between atoms: C_15  and  C_17
    9  A    between atoms: C_16  and  C_17
   10  A    between atoms: C_16  and  C_26
   11  A    between atoms: C_17  and  C_36
   12  A    between atoms: C_19  and  C_45
   13  A    between atoms: C_20  and  CA_22
   14  A    between atoms: CA_22  and  N_46
   15  A    between atoms: C_26  and  C_45
   16  A    between atoms: C_27  and  C_54
   17  A    between atoms: C_28  and  C_33
   18  A    between atoms: C_33  and  N_49
   19  A    between atoms: C_34  and  N_49
   20  A    between atoms: C_34  and  C_52
   21  A    between atoms: C_36  and  C_52
   22  A    between atoms: C_43  and  C_54
                            x       y       z     vdW  Elec       q    Type
                         _______ _______ _______ _____ _____    ______ ____

>  <TORSDO>
F 22

$$$$
=
 OpenBabel11052415013D

 55 60  0  0  1  0  0  0  0  0999 V2000
  185.6340  178.7700  143.6470 C   0  0  0  0  0  2  0  0  0  0  0  0
  182.7230  178.4430  143.8920 C   0  0  2  0  0  3  0  0  0  0  0  0
  183.5790  178.9070  145.0670 C   0  0  0  0  0  2  0  0  0  0  0  0
  184.7900  178.2940  142.4690 C   0  0  0  0  0  2  0  0  0  0  0  0
  184.9890  178.3250  144.9570 C   0  0  2  0  0  3  0  0  0  0  0  0
  183.3770  178.8600  142.5690 C   0  0  0  0  0  2  0  0  0  0  0  0
  181.3410  179.0630  144.0180 C   0  0  0  0  0  2  0  0  0  0  0  0
  180.6010  178.1930  141.7660 N   0  0  0  0  0  2  0  0  0  0  0  0
  180.7400  179.2890  142.6730 C   0  0  0  0  0  0  0  0  0  0  0  0
  180.3350  180.4380  142.3560 O   0  0  0  0  0  0  0  0  0  0  0  0
  179.8980  178.3080  140.4970 C   0  0  0  0  0  2  0  0  0  0  0  0
  180.8740  178.6000  139.3640 C   0  0  2  0  0  3  0  0  0  0  0  0
  180.0530  180.8400  139.2440 O   0  0  0  0  0  1  0  0  0  0  0  0
  180.3990  179.8050  138.6090 C   0  0  0  0  0  0  0  0  0  0  0  0
  180.2610  179.7710  137.2260 O   0  0  0  0  0  0  0  0  0  0  0  0
  180.9780  177.4340  138.4810 N   0  0  0  0  0  2  0  0  0  0  0  0
  183.2990  177.9340  137.8790 C   0  0  1  0  0  3  0  0  0  0  0  0
  181.5510  175.7210  136.4970 F   0  0  0  0  0  0  0  0  0  0  0  0
  182.3390  176.8780  138.4720 C   0  0  2  0  0  0  0  0  0  0  0  0
  186.1150  176.5860  135.5310 C   0  0  0  0  0  3  0  0  0  0  0  0
  182.2850  174.4560  138.2310 F   0  0  0  0  0  0  0  0  0  0  0  0
  182.4600  175.6460  137.5450 C   0  0  0  0  0  0  0  0  0  0  0  0
  184.1990  178.4190  138.8390 O   0  0  0  0  0  1  0  0  0  0  0  0
  185.5410  175.4060  135.2100 C   0  0  0  0  0  3  0  0  0  0  0  0
  184.1920  174.9810  135.7450 C   0  0  0  0  0  2  0  0  0  0  0  0
  184.0230  177.2320  136.7350 C   0  0  2  0  0  3  0  0  0  0  0  0
  183.8720  175.7600  137.0180 C   0  0  1  0  0  3  0  0  0  0  0  0
  185.5030  177.5520  136.5250 C   0  0  0  0  0  2  0  0  0  0  0  0
  182.7450  176.5440  139.7770 O   0  0  0  0  0  1  0  0  0  0  0  0
  185.8360  178.7950  146.1260 C   0  0  0  0  0  2  0  0  0  0  0  0
  186.8750  177.7460  146.4750 C   0  0  0  0  0  2  0  0  0  0  0  0
  188.1680  178.0580  145.7560 C   0  0  0  0  0  2  0  0  0  0  0  0
  188.5720  176.9010  144.9640 N   0  0  0  0  0  2  0  0  0  0  0  0
  190.0470  178.6310  144.1640 C   0  0  0  0  0  2  0  0  0  0  0  0
  191.7610  176.9980  144.7270 C   0  0  1  0  0  3  0  0  0  0  0  0
  189.4870  177.2620  143.8670 C   0  0  1  0  0  0  0  0  0  0  0  0
  190.7230  176.3710  143.8050 C   0  0  0  0  0  2  0  0  0  0  0  0
  191.2730  178.4060  145.0280 C   0  0  0  0  0  2  0  0  0  0  0  0
  191.9200  176.2150  146.0040 C   0  0  0  0  0  0  0  0  0  0  0  0
  192.3140  174.8830  145.9580 O   0  0  0  0  0  0  0  0  0  0  0  0
  191.6710  176.7470  147.1180 O   0  0  0  0  0  1  0  0  0  0  0  0
  188.7570  177.3410  142.5240 C   0  0  0  0  0  2  0  0  0  0  0  0
  189.2770  176.3450  141.4860 C   0  0  0  0  0  2  0  0  0  0  0  0
  189.6480  177.0270  140.1660 C   0  0  1  0  0  3  0  0  0  0  0  0
  188.5910  178.5890  138.5410 C   0  0  0  0  0  2  0  0  0  0  0  0
  188.9410  178.3690  140.0020 C   0  0  0  0  0  3  0  0  0  0  0  0
  187.5320  178.1280  139.5110 C   0  0  0  0  0  2  0  0  0  0  0  0
  191.1520  177.2050  140.0310 C   0  0  0  0  0  2  0  0  0  0  0  0
  191.7110  176.1420  139.1030 C   0  0  0  0  0  2  0  0  0  0  0  0
  191.8700  176.7350  137.7150 C   0  0  0  0  0  2  0  0  0  0  0  0
  192.1370  175.3000  135.6070 C   0  0  0  0  0  2  0  0  0  0  0  0
  191.2480  175.8280  136.6610 C   0  0  1  0  0  0  0  0  0  0  0  0
  191.7290  174.5080  136.7050 O   0  0  0  0  0  0  0  0  0  0  0  0
  189.7570  175.8850  136.3740 C   0  0  0  0  0  2  0  0  0  0  0  0
  189.0660  174.6440  136.9050 C   0  0  0  0  0  1  0  0  0  0  0  0
  1  5  1  0  0  0  0
  2  7  1  1  0  0  0
  2  3  1  0  0  0  0
  4  6  1  0  0  0  0
  4  1  1  0  0  0  0
  5  3  1  0  0  0  0
  5 30  1  1  0  0  0
  6  2  1  0  0  0  0
  8  9  1  0  0  0  0
  9  7  1  0  0  0  0
 10  9  2  0  0  0  0
 11  8  1  0  0  0  0
 12 11  1  1  0  0  0
 14 13  1  0  0  0  0
 14 12  1  0  0  0  0
 15 14  2  0  0  0  0
 16 12  1  0  0  0  0
 17 19  1  0  0  0  0
 17 23  1  1  0  0  0
 18 22  1  0  0  0  0
 19 16  1  0  0  0  0
 19 29  1  1  0  0  0
 20 28  1  0  0  0  0
 22 21  1  0  0  0  0
 22 19  1  0  0  0  0
 24 20  2  0  0  0  0
 24 25  1  0  0  0  0
 26 28  1  1  0  0  0
 26 27  1  0  0  0  0
 26 17  1  0  0  0  0
 27 25  1  6  0  0  0
 27 22  1  0  0  0  0
 30 31  1  0  0  0  0
 32 31  1  0  0  0  0
 33 32  1  0  0  0  0
 34 38  1  0  0  0  0
 35 38  1  0  0  0  0
 35 39  1  1  0  0  0
 36 42  1  6  0  0  0
 36 34  1  0  0  0  0
 36 33  1  0  0  0  0
 37 36  1  0  0  0  0
 37 35  1  0  0  0  0
 39 41  1  0  0  0  0
 40 39  2  0  0  0  0
 43 42  1  0  0  0  0
 44 48  1  1  0  0  0
 44 43  1  0  0  0  0
 45 47  1  0  0  0  0
 45 46  1  0  0  0  0
 46 44  1  0  0  0  0
 47 46  1  0  0  0  0
 49 48  1  0  0  0  0
 50 49  1  0  0  0  0
 51 52  1  0  0  0  0
 51 53  1  0  0  0  0
 52 54  1  6  0  0  0
 52 53  1  0  0  0  0
 52 50  1  0  0  0  0
 54 55  1  0  0  0  0
M  END
>  <MODEL>
4

>  <REMARK>
 VINA RESULT:      -6.6      2.098      5.860
  Name = 
  22 active torsions:
  status: ('A' for Active; 'I' for Inactive)
    1  A    between atoms: C_2  and  C_28
    2  A    between atoms: C_2  and  C_44
    3  A    between atoms: C_5  and  C_19
    4  A    between atoms: C_6  and  N_46
    5  A    between atoms: C_8  and  CA_22
    6  A    between atoms: C_8  and  N_35
    7  A    between atoms: C_10  and  C_32
    8  A    between atoms: C_15  and  C_17
    9  A    between atoms: C_16  and  C_17
   10  A    between atoms: C_16  and  C_26
   11  A    between atoms: C_17  and  C_36
   12  A    between atoms: C_19  and  C_45
   13  A    between atoms: C_20  and  CA_22
   14  A    between atoms: CA_22  and  N_46
   15  A    between atoms: C_26  and  C_45
   16  A    between atoms: C_27  and  C_54
   17  A    between atoms: C_28  and  C_33
   18  A    between atoms: C_33  and  N_49
   19  A    between atoms: C_34  and  N_49
   20  A    between atoms: C_34  and  C_52
   21  A    between atoms: C_36  and  C_52
   22  A    between atoms: C_43  and  C_54
                            x       y       z     vdW  Elec       q    Type
                         _______ _______ _______ _____ _____    ______ ____

>  <TORSDO>
F 22

$$$$
=
 OpenBabel11052415013D

 55 60  0  0  1  0  0  0  0  0999 V2000
  185.6600  178.9070  142.4030 C   0  0  0  0  0  2  0  0  0  0  0  0
  182.7480  178.5340  142.5530 C   0  0  2  0  0  3  0  0  0  0  0  0
  183.5690  178.9300  143.7760 C   0  0  0  0  0  2  0  0  0  0  0  0
  184.8510  178.4980  141.1750 C   0  0  0  0  0  2  0  0  0  0  0  0
  184.9880  178.3720  143.6650 C   0  0  2  0  0  3  0  0  0  0  0  0
  183.4280  179.0420  141.2760 C   0  0  0  0  0  2  0  0  0  0  0  0
  181.3550  179.1290  142.6830 C   0  0  0  0  0  2  0  0  0  0  0  0
  180.3970  177.5700  140.9430 N   0  0  0  0  0  2  0  0  0  0  0  0
  180.5660  178.9000  141.4400 C   0  0  0  0  0  0  0  0  0  0  0  0
  180.0300  179.8760  140.8520 O   0  0  0  0  0  0  0  0  0  0  0  0
  179.5250  177.2560  139.8210 C   0  0  0  0  0  2  0  0  0  0  0  0
  180.3200  177.1830  138.5240 C   0  0  2  0  0  3  0  0  0  0  0  0
  179.0550  178.6090  137.0860 O   0  0  0  0  0  0  0  0  0  0  0  0
  180.1150  178.4530  137.7530 C   0  0  0  0  0  0  0  0  0  0  0  0
  181.1070  179.4240  137.7000 O   0  0  0  0  0  1  0  0  0  0  0  0
  179.8940  176.0190  137.7410 N   0  0  0  0  0  2  0  0  0  0  0  0
  180.7680  173.9960  136.6710 C   0  0  1  0  0  3  0  0  0  0  0  0
  182.2540  175.5810  138.9390 F   0  0  0  0  0  0  0  0  0  0  0  0
  180.9760  175.5130  136.8840 C   0  0  2  0  0  0  0  0  0  0  0  0
  183.9930  171.7910  136.6750 C   0  0  0  0  0  3  0  0  0  0  0  0
  183.0090  176.8160  137.1930 F   0  0  0  0  0  0  0  0  0  0  0  0
  182.3630  175.6470  137.5560 C   0  0  0  0  0  0  0  0  0  0  0  0
  180.4480  173.6950  135.3400 O   0  0  0  0  0  1  0  0  0  0  0  0
  184.8020  172.6460  137.3360 C   0  0  0  0  0  3  0  0  0  0  0  0
  184.3380  174.0010  137.8220 C   0  0  0  0  0  2  0  0  0  0  0  0
  182.0780  173.3390  137.0960 C   0  0  2  0  0  3  0  0  0  0  0  0
  183.1070  174.4380  137.0350 C   0  0  1  0  0  3  0  0  0  0  0  0
  182.5730  172.1440  136.2810 C   0  0  0  0  0  2  0  0  0  0  0  0
  180.9740  176.1730  135.6420 O   0  0  0  0  0  1  0  0  0  0  0  0
  185.8010  178.7750  144.8830 C   0  0  0  0  0  2  0  0  0  0  0  0
  186.5910  177.5880  145.4010 C   0  0  0  0  0  2  0  0  0  0  0  0
  188.0550  177.7770  145.0760 C   0  0  0  0  0  2  0  0  0  0  0  0
  188.5100  176.6750  144.2340 N   0  0  0  0  0  2  0  0  0  0  0  0
  190.0170  178.4760  143.6940 C   0  0  0  0  0  2  0  0  0  0  0  0
  191.6700  176.9600  144.6390 C   0  0  1  0  0  3  0  0  0  0  0  0
  189.6050  177.0700  143.3330 C   0  0  1  0  0  0  0  0  0  0  0  0
  190.8760  176.2540  143.5480 C   0  0  0  0  0  2  0  0  0  0  0  0
  191.0540  178.3410  144.7930 C   0  0  0  0  0  2  0  0  0  0  0  0
  191.6120  176.2130  145.9450 C   0  0  0  0  0  0  0  0  0  0  0  0
  190.7500  176.6370  146.9510 O   0  0  0  0  0  1  0  0  0  0  0  0
  192.3590  175.2200  146.1500 O   0  0  0  0  0  0  0  0  0  0  0  0
  189.1590  177.0800  141.8690 C   0  0  0  0  0  2  0  0  0  0  0  0
  190.3220  177.0900  140.8750 C   0  0  0  0  0  2  0  0  0  0  0  0
  189.8510  177.3170  139.4360 C   0  0  1  0  0  3  0  0  0  0  0  0
  191.1460  176.6720  137.4100 C   0  0  0  0  0  2  0  0  0  0  0  0
  190.2440  176.1620  138.5210 C   0  0  0  0  0  3  0  0  0  0  0  0
  191.7390  175.9570  138.5980 C   0  0  0  0  0  2  0  0  0  0  0  0
  188.3510  177.5540  139.3690 C   0  0  0  0  0  2  0  0  0  0  0  0
  187.9840  178.1260  138.0120 C   0  0  0  0  0  2  0  0  0  0  0  0
  186.6740  177.5090  137.5560 C   0  0  0  0  0  2  0  0  0  0  0  0
  185.5410  177.0350  135.3060 C   0  0  0  0  0  2  0  0  0  0  0  0
  186.7740  177.0220  136.1160 C   0  0  1  0  0  0  0  0  0  0  0  0
  186.5350  178.0300  135.1660 O   0  0  0  0  0  0  0  0  0  0  0  0
  187.8970  176.0900  135.6910 C   0  0  0  0  0  2  0  0  0  0  0  0
  187.7240  174.7240  136.3280 C   0  0  0  0  0  1  0  0  0  0  0  0
  1  5  1  0  0  0  0
  2  7  1  1  0  0  0
  2  3  1  0  0  0  0
  4  6  1  0  0  0  0
  4  1  1  0  0  0  0
  5  3  1  0  0  0  0
  5 30  1  1  0  0  0
  6  2  1  0  0  0  0
  8  9  1  0  0  0  0
  9  7  1  0  0  0  0
 10  9  2  0  0  0  0
 11  8  1  0  0  0  0
 12 11  1  1  0  0  0
 13 14  2  0  0  0  0
 14 12  1  0  0  0  0
 15 14  1  0  0  0  0
 16 12  1  0  0  0  0
 17 23  1  6  0  0  0
 17 19  1  0  0  0  0
 17 26  1  0  0  0  0
 19 29  1  6  0  0  0
 19 22  1  0  0  0  0
 19 16  1  0  0  0  0
 20 24  2  0  0  0  0
 21 22  1  0  0  0  0
 22 18  1  0  0  0  0
 24 25  1  0  0  0  0
 26 28  1  6  0  0  0
 27 26  1  0  0  0  0
 27 22  1  0  0  0  0
 27 25  1  1  0  0  0
 28 20  1  0  0  0  0
 30 31  1  0  0  0  0
 32 31  1  0  0  0  0
 33 32  1  0  0  0  0
 34 38  1  0  0  0  0
 35 38  1  0  0  0  0
 35 39  1  1  0  0  0
 36 42  1  6  0  0  0
 36 37  1  0  0  0  0
 36 34  1  0  0  0  0
 36 33  1  0  0  0  0
 37 35  1  0  0  0  0
 39 41  2  0  0  0  0
 39 40  1  0  0  0  0
 43 42  1  0  0  0  0
 44 48  1  1  0  0  0
 44 43  1  0  0  0  0
 45 46  1  0  0  0  0
 45 47  1  0  0  0  0
 46 47  1  0  0  0  0
 46 44  1  0  0  0  0
 49 48  1  0  0  0  0
 50 49  1  0  0  0  0
 51 52  1  0  0  0  0
 52 54  1  6  0  0  0
 52 50  1  0  0  0  0
 53 51  1  0  0  0  0
 53 52  1  0  0  0  0
 54 55  1  0  0  0  0
M  END
>  <MODEL>
5

>  <REMARK>
 VINA RESULT:      -6.5      1.954      5.788
  Name = 
  22 active torsions:
  status: ('A' for Active; 'I' for Inactive)
    1  A    between atoms: C_2  and  C_28
    2  A    between atoms: C_2  and  C_44
    3  A    between atoms: C_5  and  C_19
    4  A    between atoms: C_6  and  N_46
    5  A    between atoms: C_8  and  CA_22
    6  A    between atoms: C_8  and  N_35
    7  A    between atoms: C_10  and  C_32
    8  A    between atoms: C_15  and  C_17
    9  A    between atoms: C_16  and  C_17
   10  A    between atoms: C_16  and  C_26
   11  A    between atoms: C_17  and  C_36
   12  A    between atoms: C_19  and  C_45
   13  A    between atoms: C_20  and  CA_22
   14  A    between atoms: CA_22  and  N_46
   15  A    between atoms: C_26  and  C_45
   16  A    between atoms: C_27  and  C_54
   17  A    between atoms: C_28  and  C_33
   18  A    between atoms: C_33  and  N_49
   19  A    between atoms: C_34  and  N_49
   20  A    between atoms: C_34  and  C_52
   21  A    between atoms: C_36  and  C_52
   22  A    between atoms: C_43  and  C_54
                            x       y       z     vdW  Elec       q    Type
                         _______ _______ _______ _____ _____    ______ ____

>  <TORSDO>
F 22

$$$$
=
 OpenBabel11052415013D

 55 60  0  0  1  0  0  0  0  0999 V2000
  187.7920  178.6070  137.3020 C   0  0  0  0  0  2  0  0  0  0  0  0
  189.3860  177.4660  139.4930 C   0  0  2  0  0  3  0  0  0  0  0  0
  187.8630  177.3820  139.4820 C   0  0  0  0  0  2  0  0  0  0  0  0
  189.3150  178.7070  137.3080 C   0  0  0  0  0  2  0  0  0  0  0  0
  187.2720  178.5790  138.7370 C   0  0  2  0  0  3  0  0  0  0  0  0
  189.9190  177.5230  138.0560 C   0  0  0  0  0  2  0  0  0  0  0  0
  189.9390  176.2470  140.2150 C   0  0  0  0  0  2  0  0  0  0  0  0
  190.8400  175.7940  142.5300 N   0  0  0  0  0  2  0  0  0  0  0  0
  190.7540  176.6570  141.3930 C   0  0  0  0  0  0  0  0  0  0  0  0
  191.3840  177.7480  141.3670 O   0  0  0  0  0  0  0  0  0  0  0  0
  191.7270  176.0620  143.6520 C   0  0  0  0  0  2  0  0  0  0  0  0
  190.9710  176.7380  144.7880 C   0  0  2  0  0  3  0  0  0  0  0  0
  192.3340  175.3060  146.1270 O   0  0  0  0  0  0  0  0  0  0  0  0
  191.5620  176.3040  146.0960 C   0  0  0  0  0  0  0  0  0  0  0  0
  191.2090  176.9350  147.2820 O   0  0  0  0  0  1  0  0  0  0  0  0
  189.5470  176.3950  144.7150 N   0  0  0  0  0  2  0  0  0  0  0  0
  187.8370  177.5030  146.0740 C   0  0  1  0  0  3  0  0  0  0  0  0
  187.3460  176.3880  143.1810 F   0  0  0  0  0  0  0  0  0  0  0  0
  188.6940  177.5900  144.7910 C   0  0  2  0  0  0  0  0  0  0  0  0
  184.1430  178.7380  145.7750 C   0  0  0  0  0  3  0  0  0  0  0  0
  188.1540  178.4150  142.5650 F   0  0  0  0  0  0  0  0  0  0  0  0
  187.6810  177.6600  143.6250 C   0  0  0  0  0  0  0  0  0  0  0  0
  188.1920  178.4880  147.0070 O   0  0  0  0  0  1  0  0  0  0  0  0
  184.0200  178.6340  144.4340 C   0  0  0  0  0  3  0  0  0  0  0  0
  185.1440  178.1500  143.5450 C   0  0  0  0  0  2  0  0  0  0  0  0
  186.3920  177.6620  145.6130 C   0  0  2  0  0  3  0  0  0  0  0  0
  186.4800  178.3210  144.2620 C   0  0  1  0  0  3  0  0  0  0  0  0
  185.4440  178.4660  146.5020 C   0  0  0  0  0  2  0  0  0  0  0  0
  189.4790  178.7570  144.8210 O   0  0  0  0  0  1  0  0  0  0  0  0
  185.7560  178.4860  138.7250 C   0  0  0  0  0  2  0  0  0  0  0  0
  185.1990  178.8370  140.0920 C   0  0  0  0  0  2  0  0  0  0  0  0
  183.7020  178.6270  140.0960 C   0  0  0  0  0  2  0  0  0  0  0  0
  183.1040  179.3940  139.0080 N   0  0  0  0  0  2  0  0  0  0  0  0
  180.9640  178.3640  139.4220 C   0  0  0  0  0  2  0  0  0  0  0  0
  180.1490  180.2740  138.1510 C   0  0  1  0  0  3  0  0  0  0  0  0
  181.9910  178.6780  138.3620 C   0  0  1  0  0  0  0  0  0  0  0  0
  181.2280  179.5410  137.3630 C   0  0  0  0  0  2  0  0  0  0  0  0
  180.0560  179.5770  139.4990 C   0  0  0  0  0  2  0  0  0  0  0  0
  180.4850  181.7300  138.3370 C   0  0  0  0  0  0  0  0  0  0  0  0
  179.5060  182.6200  138.7630 O   0  0  0  0  0  1  0  0  0  0  0  0
  181.6420  182.1590  138.0820 O   0  0  0  0  0  0  0  0  0  0  0  0
  182.4490  177.3490  137.7540 C   0  0  0  0  0  2  0  0  0  0  0  0
  182.8460  177.4560  136.2800 C   0  0  0  0  0  2  0  0  0  0  0  0
  183.5390  176.1880  135.7760 C   0  0  1  0  0  3  0  0  0  0  0  0
  185.7210  175.9840  134.5940 C   0  0  0  0  0  2  0  0  0  0  0  0
  185.0550  176.2700  135.9280 C   0  0  0  0  0  3  0  0  0  0  0  0
  185.5770  177.4050  135.0780 C   0  0  0  0  0  2  0  0  0  0  0  0
  183.0070  174.9450  136.4700 C   0  0  0  0  0  2  0  0  0  0  0  0
  184.0570  173.8490  136.4310 C   0  0  0  0  0  2  0  0  0  0  0  0
  183.6770  172.8420  135.3610 C   0  0  0  0  0  2  0  0  0  0  0  0
  183.4630  170.4640  136.2940 C   0  0  0  0  0  2  0  0  0  0  0  0
  182.8040  171.7360  135.9400 C   0  0  1  0  0  0  0  0  0  0  0  0
  183.1130  171.4200  137.2740 O   0  0  0  0  0  0  0  0  0  0  0  0
  181.3070  171.7150  135.6780 C   0  0  0  0  0  2  0  0  0  0  0  0
  180.5630  172.4310  136.7890 C   0  0  0  0  0  1  0  0  0  0  0  0
  1  4  1  0  0  0  0
  1  5  1  0  0  0  0
  2  7  1  6  0  0  0
  3  2  1  0  0  0  0
  4  6  1  0  0  0  0
  5 30  1  6  0  0  0
  5  3  1  0  0  0  0
  6  2  1  0  0  0  0
  7  9  1  0  0  0  0
  8 11  1  0  0  0  0
  9  8  1  0  0  0  0
 10  9  2  0  0  0  0
 12 11  1  6  0  0  0
 12 14  1  0  0  0  0
 14 13  2  0  0  0  0
 14 15  1  0  0  0  0
 16 12  1  0  0  0  0
 16 19  1  0  0  0  0
 17 23  1  1  0  0  0
 18 22  1  0  0  0  0
 19 29  1  1  0  0  0
 19 17  1  0  0  0  0
 20 28  1  0  0  0  0
 21 22  1  0  0  0  0
 22 27  1  0  0  0  0
 22 19  1  0  0  0  0
 24 20  2  0  0  0  0
 25 24  1  0  0  0  0
 26 17  1  0  0  0  0
 26 28  1  1  0  0  0
 27 25  1  6  0  0  0
 27 26  1  0  0  0  0
 30 31  1  0  0  0  0
 31 32  1  0  0  0  0
 33 32  1  0  0  0  0
 34 38  1  0  0  0  0
 35 39  1  1  0  0  0
 35 38  1  0  0  0  0
 36 42  1  6  0  0  0
 36 33  1  0  0  0  0
 36 34  1  0  0  0  0
 37 35  1  0  0  0  0
 37 36  1  0  0  0  0
 39 40  1  0  0  0  0
 41 39  2  0  0  0  0
 43 42  1  0  0  0  0
 44 46  1  0  0  0  0
 44 43  1  1  0  0  0
 44 48  1  0  0  0  0
 45 47  1  0  0  0  0
 45 46  1  0  0  0  0
 47 46  1  0  0  0  0
 49 48  1  0  0  0  0
 50 49  1  0  0  0  0
 51 53  1  0  0  0  0
 52 50  1  6  0  0  0
 52 51  1  0  0  0  0
 52 53  1  0  0  0  0
 54 52  1  0  0  0  0
 54 55  1  0  0  0  0
M  END
>  <MODEL>
6

>  <REMARK>
 VINA RESULT:      -6.5      2.897     10.262
  Name = 
  22 active torsions:
  status: ('A' for Active; 'I' for Inactive)
    1  A    between atoms: C_2  and  C_28
    2  A    between atoms: C_2  and  C_44
    3  A    between atoms: C_5  and  C_19
    4  A    between atoms: C_6  and  N_46
    5  A    between atoms: C_8  and  CA_22
    6  A    between atoms: C_8  and  N_35
    7  A    between atoms: C_10  and  C_32
    8  A    between atoms: C_15  and  C_17
    9  A    between atoms: C_16  and  C_17
   10  A    between atoms: C_16  and  C_26
   11  A    between atoms: C_17  and  C_36
   12  A    between atoms: C_19  and  C_45
   13  A    between atoms: C_20  and  CA_22
   14  A    between atoms: CA_22  and  N_46
   15  A    between atoms: C_26  and  C_45
   16  A    between atoms: C_27  and  C_54
   17  A    between atoms: C_28  and  C_33
   18  A    between atoms: C_33  and  N_49
   19  A    between atoms: C_34  and  N_49
   20  A    between atoms: C_34  and  C_52
   21  A    between atoms: C_36  and  C_52
   22  A    between atoms: C_43  and  C_54
                            x       y       z     vdW  Elec       q    Type
                         _______ _______ _______ _____ _____    ______ ____

>  <TORSDO>
F 22

$$$$
=
 OpenBabel11052415013D

 55 60  0  0  1  0  0  0  0  0999 V2000
  185.9170  178.5070  144.9910 C   0  0  0  0  0  2  0  0  0  0  0  0
  183.1800  178.9650  144.0190 C   0  0  2  0  0  3  0  0  0  0  0  0
  184.2560  178.3560  143.1260 C   0  0  0  0  0  2  0  0  0  0  0  0
  184.8520  179.1270  145.8900 C   0  0  0  0  0  2  0  0  0  0  0  0
  185.6370  178.8700  143.5340 C   0  0  2  0  0  3  0  0  0  0  0  0
  183.4670  178.6300  145.4880 C   0  0  0  0  0  2  0  0  0  0  0  0
  181.8270  178.4100  143.6050 C   0  0  0  0  0  2  0  0  0  0  0  0
  181.5860  178.4880  141.0930 N   0  0  0  0  0  2  0  0  0  0  0  0
  181.3370  179.0830  142.3690 C   0  0  0  0  0  0  0  0  0  0  0  0
  180.6850  180.1570  142.4590 O   0  0  0  0  0  0  0  0  0  0  0  0
  181.0180  179.0110  139.8590 C   0  0  0  0  0  2  0  0  0  0  0  0
  182.1010  179.2030  138.8050 C   0  0  2  0  0  3  0  0  0  0  0  0
  182.6230  181.5320  138.7380 O   0  0  0  0  0  1  0  0  0  0  0  0
  181.9780  180.5780  138.2220 C   0  0  0  0  0  0  0  0  0  0  0  0
  181.1040  180.8320  137.1710 O   0  0  0  0  0  0  0  0  0  0  0  0
  181.9730  178.1770  137.7640 N   0  0  0  0  0  2  0  0  0  0  0  0
  183.6370  177.0100  136.3980 C   0  0  1  0  0  3  0  0  0  0  0  0
  181.2640  175.5930  137.8870 F   0  0  0  0  0  0  0  0  0  0  0  0
  183.0710  177.2020  137.8240 C   0  0  2  0  0  0  0  0  0  0  0  0
  184.6440  173.3670  135.4110 C   0  0  0  0  0  3  0  0  0  0  0  0
  182.7180  175.6050  139.6270 F   0  0  0  0  0  0  0  0  0  0  0  0
  182.5840  175.8010  138.2630 C   0  0  0  0  0  0  0  0  0  0  0  0
  184.9450  177.5040  136.2850 O   0  0  0  0  0  1  0  0  0  0  0  0
  183.9020  172.7130  136.3320 C   0  0  0  0  0  3  0  0  0  0  0  0
  183.0250  173.4290  137.3330 C   0  0  0  0  0  2  0  0  0  0  0  0
  183.5800  175.5090  136.1330 C   0  0  2  0  0  3  0  0  0  0  0  0
  183.4960  174.8720  137.4950 C   0  0  1  0  0  3  0  0  0  0  0  0
  184.7350  174.8780  135.3550 C   0  0  0  0  0  2  0  0  0  0  0  0
  184.0880  177.6520  138.6840 O   0  0  0  0  0  1  0  0  0  0  0  0
  186.7030  178.2560  142.6440 C   0  0  0  0  0  2  0  0  0  0  0  0
  186.8080  176.7650  142.9050 C   0  0  0  0  0  2  0  0  0  0  0  0
  188.1620  176.4520  143.5000 C   0  0  0  0  0  2  0  0  0  0  0  0
  189.0930  177.5290  143.1790 N   0  0  0  0  0  2  0  0  0  0  0  0
  191.3900  178.2050  142.9050 C   0  0  0  0  0  2  0  0  0  0  0  0
  191.6770  176.9630  144.9780 C   0  0  1  0  0  3  0  0  0  0  0  0
  190.4430  177.0310  142.8670 C   0  0  1  0  0  0  0  0  0  0  0  0
  190.9920  176.0900  143.9340 C   0  0  0  0  0  2  0  0  0  0  0  0
  191.8400  178.3360  144.3470 C   0  0  0  0  0  2  0  0  0  0  0  0
  190.8680  177.0610  146.2440 C   0  0  0  0  0  0  0  0  0  0  0  0
  191.1290  176.2000  147.3040 O   0  0  0  0  0  1  0  0  0  0  0  0
  189.9320  177.8980  146.3440 O   0  0  0  0  0  0  0  0  0  0  0  0
  190.5130  176.4240  141.4630 C   0  0  0  0  0  2  0  0  0  0  0  0
  191.0040  177.4060  140.3970 C   0  0  0  0  0  2  0  0  0  0  0  0
  190.2520  177.2450  139.0730 C   0  0  1  0  0  3  0  0  0  0  0  0
  187.9160  177.9580  138.5880 C   0  0  0  0  0  2  0  0  0  0  0  0
  189.3440  178.4370  138.7870 C   0  0  0  0  0  3  0  0  0  0  0  0
  188.3330  178.5680  139.9030 C   0  0  0  0  0  2  0  0  0  0  0  0
  191.2060  177.0200  137.9120 C   0  0  0  0  0  2  0  0  0  0  0  0
  191.8360  175.6430  138.0270 C   0  0  0  0  0  2  0  0  0  0  0  0
  191.8490  174.9920  136.6570 C   0  0  0  0  0  2  0  0  0  0  0  0
  190.4360  172.9850  135.9140 C   0  0  0  0  0  2  0  0  0  0  0  0
  190.4840  174.4030  136.3200 C   0  0  1  0  0  0  0  0  0  0  0  0
  190.0710  173.4010  137.2150 O   0  0  0  0  0  0  0  0  0  0  0  0
  189.3360  175.3050  135.9000 C   0  0  0  0  0  2  0  0  0  0  0  0
  188.0680  174.9330  136.6460 C   0  0  0  0  0  1  0  0  0  0  0  0
  1  4  1  0  0  0  0
  2  7  1  6  0  0  0
  2  6  1  0  0  0  0
  3  5  1  0  0  0  0
  3  2  1  0  0  0  0
  5 30  1  6  0  0  0
  5  1  1  0  0  0  0
  6  4  1  0  0  0  0
  8  9  1  0  0  0  0
  9 10  2  0  0  0  0
  9  7  1  0  0  0  0
 11  8  1  0  0  0  0
 12 11  1  1  0  0  0
 14 13  1  0  0  0  0
 14 12  1  0  0  0  0
 15 14  2  0  0  0  0
 16 19  1  0  0  0  0
 16 12  1  0  0  0  0
 17 23  1  1  0  0  0
 17 19  1  0  0  0  0
 18 22  1  0  0  0  0
 19 22  1  0  0  0  0
 19 29  1  1  0  0  0
 20 24  2  0  0  0  0
 22 21  1  0  0  0  0
 24 25  1  0  0  0  0
 26 28  1  1  0  0  0
 26 17  1  0  0  0  0
 26 27  1  0  0  0  0
 27 25  1  6  0  0  0
 27 22  1  0  0  0  0
 28 20  1  0  0  0  0
 30 31  1  0  0  0  0
 31 32  1  0  0  0  0
 33 32  1  0  0  0  0
 34 38  1  0  0  0  0
 35 39  1  1  0  0  0
 36 42  1  6  0  0  0
 36 34  1  0  0  0  0
 36 33  1  0  0  0  0
 36 37  1  0  0  0  0
 37 35  1  0  0  0  0
 38 35  1  0  0  0  0
 39 41  2  0  0  0  0
 39 40  1  0  0  0  0
 43 42  1  0  0  0  0
 44 48  1  6  0  0  0
 44 43  1  0  0  0  0
 45 46  1  0  0  0  0
 45 47  1  0  0  0  0
 46 44  1  0  0  0  0
 46 47  1  0  0  0  0
 48 49  1  0  0  0  0
 50 49  1  0  0  0  0
 51 52  1  0  0  0  0
 51 53  1  0  0  0  0
 52 54  1  6  0  0  0
 52 50  1  0  0  0  0
 52 53  1  0  0  0  0
 54 55  1  0  0  0  0
M  END
>  <MODEL>
7

>  <REMARK>
 VINA RESULT:      -6.3      2.011      5.748
  Name = 
  22 active torsions:
  status: ('A' for Active; 'I' for Inactive)
    1  A    between atoms: C_2  and  C_28
    2  A    between atoms: C_2  and  C_44
    3  A    between atoms: C_5  and  C_19
    4  A    between atoms: C_6  and  N_46
    5  A    between atoms: C_8  and  CA_22
    6  A    between atoms: C_8  and  N_35
    7  A    between atoms: C_10  and  C_32
    8  A    between atoms: C_15  and  C_17
    9  A    between atoms: C_16  and  C_17
   10  A    between atoms: C_16  and  C_26
   11  A    between atoms: C_17  and  C_36
   12  A    between atoms: C_19  and  C_45
   13  A    between atoms: C_20  and  CA_22
   14  A    between atoms: CA_22  and  N_46
   15  A    between atoms: C_26  and  C_45
   16  A    between atoms: C_27  and  C_54
   17  A    between atoms: C_28  and  C_33
   18  A    between atoms: C_33  and  N_49
   19  A    between atoms: C_34  and  N_49
   20  A    between atoms: C_34  and  C_52
   21  A    between atoms: C_36  and  C_52
   22  A    between atoms: C_43  and  C_54
                            x       y       z     vdW  Elec       q    Type
                         _______ _______ _______ _____ _____    ______ ____

>  <TORSDO>
F 22

$$$$
=
 OpenBabel11052415013D

 55 60  0  0  1  0  0  0  0  0999 V2000
  185.9760  178.4610  145.0060 C   0  0  0  0  0  2  0  0  0  0  0  0
  183.2840  179.0550  143.9860 C   0  0  2  0  0  3  0  0  0  0  0  0
  184.2520  178.1620  143.2180 C   0  0  0  0  0  2  0  0  0  0  0  0
  185.0200  179.3660  145.7770 C   0  0  0  0  0  2  0  0  0  0  0  0
  185.6960  178.5720  143.5090 C   0  0  2  0  0  3  0  0  0  0  0  0
  183.5740  178.9730  145.4900 C   0  0  0  0  0  2  0  0  0  0  0  0
  181.8620  178.6000  143.6960 C   0  0  0  0  0  2  0  0  0  0  0  0
  181.3370  178.8940  141.2440 N   0  0  0  0  0  2  0  0  0  0  0  0
  181.2710  179.3940  142.5820 C   0  0  0  0  0  0  0  0  0  0  0  0
  180.6950  180.4860  142.8310 O   0  0  0  0  0  0  0  0  0  0  0  0
  180.6600  179.5420  140.1310 C   0  0  0  0  0  2  0  0  0  0  0  0
  181.1590  178.9920  138.8020 C   0  0  2  0  0  3  0  0  0  0  0  0
  180.8650  179.8370  136.5880 O   0  0  0  0  0  0  0  0  0  0  0  0
  181.1650  180.0950  137.7860 C   0  0  0  0  0  0  0  0  0  0  0  0
  181.5700  181.3790  138.1300 O   0  0  0  0  0  1  0  0  0  0  0  0
  180.3040  177.8820  138.3670 N   0  0  0  0  0  2  0  0  0  0  0  0
  181.1050  176.2240  136.7520 C   0  0  1  0  0  3  0  0  0  0  0  0
  178.9850  175.6310  138.9910 F   0  0  0  0  0  0  0  0  0  0  0  0
  181.0600  176.6280  138.2440 C   0  0  2  0  0  0  0  0  0  0  0  0
  180.7400  172.4120  135.9790 C   0  0  0  0  0  3  0  0  0  0  0  0
  180.8340  175.2760  140.2550 F   0  0  0  0  0  0  0  0  0  0  0  0
  180.3620  175.4520  138.9660 C   0  0  0  0  0  0  0  0  0  0  0  0
  182.4030  176.3040  136.2280 O   0  0  0  0  0  1  0  0  0  0  0  0
  180.1550  172.0420  137.1390 C   0  0  0  0  0  3  0  0  0  0  0  0
  179.8430  173.0240  138.2470 C   0  0  0  0  0  2  0  0  0  0  0  0
  180.5640  174.7990  136.6970 C   0  0  2  0  0  3  0  0  0  0  0  0
  180.7160  174.2660  138.0980 C   0  0  1  0  0  3  0  0  0  0  0  0
  181.2190  173.8250  135.7170 C   0  0  0  0  0  2  0  0  0  0  0  0
  182.3690  176.7880  138.7330 O   0  0  0  0  0  1  0  0  0  0  0  0
  186.6550  177.6760  142.7450 C   0  0  0  0  0  2  0  0  0  0  0  0
  186.9750  176.4370  143.5610 C   0  0  0  0  0  2  0  0  0  0  0  0
  188.4300  176.0720  143.3730 C   0  0  0  0  0  2  0  0  0  0  0  0
  189.2040  177.2840  143.1260 N   0  0  0  0  0  2  0  0  0  0  0  0
  191.3830  178.3140  143.0610 C   0  0  0  0  0  2  0  0  0  0  0  0
  191.6750  177.1000  145.1500 C   0  0  1  0  0  3  0  0  0  0  0  0
  190.6380  177.0070  142.9370 C   0  0  1  0  0  0  0  0  0  0  0  0
  191.2290  176.1470  144.0480 C   0  0  0  0  0  2  0  0  0  0  0  0
  191.6760  178.4920  144.5380 C   0  0  0  0  0  2  0  0  0  0  0  0
  190.7500  177.0520  146.3380 C   0  0  0  0  0  0  0  0  0  0  0  0
  189.6270  177.8710  146.3780 O   0  0  0  0  0  0  0  0  0  0  0  0
  190.9990  176.2970  147.3150 O   0  0  0  0  0  1  0  0  0  0  0  0
  190.9270  176.4400  141.5440 C   0  0  0  0  0  2  0  0  0  0  0  0
  190.9040  177.4970  140.4380 C   0  0  0  0  0  2  0  0  0  0  0  0
  190.7040  176.8770  139.0520 C   0  0  1  0  0  3  0  0  0  0  0  0
  188.3090  177.1210  138.4170 C   0  0  0  0  0  2  0  0  0  0  0  0
  189.7090  177.6730  138.2120 C   0  0  0  0  0  3  0  0  0  0  0  0
  188.7390  178.3770  139.1320 C   0  0  0  0  0  2  0  0  0  0  0  0
  192.0220  176.7320  138.3080 C   0  0  0  0  0  2  0  0  0  0  0  0
  192.1850  175.3000  137.8320 C   0  0  0  0  0  2  0  0  0  0  0  0
  192.8140  175.3090  136.4510 C   0  0  0  0  0  2  0  0  0  0  0  0
  195.1860  175.1060  135.4970 C   0  0  0  0  0  2  0  0  0  0  0  0
  194.1810  174.6360  136.4710 C   0  0  1  0  0  0  0  0  0  0  0  0
  195.2230  175.4960  136.8550 O   0  0  0  0  0  0  0  0  0  0  0  0
  194.3460  173.2400  137.0500 C   0  0  0  0  0  2  0  0  0  0  0  0
  195.1250  173.2940  138.3500 C   0  0  0  0  0  1  0  0  0  0  0  0
  1  4  1  0  0  0  0
  2  7  1  1  0  0  0
  2  6  1  0  0  0  0
  3  5  1  0  0  0  0
  3  2  1  0  0  0  0
  5 30  1  6  0  0  0
  5  1  1  0  0  0  0
  6  4  1  0  0  0  0
  8  9  1  0  0  0  0
  9 10  2  0  0  0  0
  9  7  1  0  0  0  0
 11  8  1  0  0  0  0
 12 11  1  1  0  0  0
 13 14  2  0  0  0  0
 14 15  1  0  0  0  0
 14 12  1  0  0  0  0
 16 12  1  0  0  0  0
 17 23  1  1  0  0  0
 17 19  1  0  0  0  0
 19 16  1  0  0  0  0
 19 29  1  1  0  0  0
 19 22  1  0  0  0  0
 20 24  2  0  0  0  0
 22 18  1  0  0  0  0
 22 21  1  0  0  0  0
 24 25  1  0  0  0  0
 26 28  1  6  0  0  0
 26 17  1  0  0  0  0
 26 27  1  0  0  0  0
 27 25  1  6  0  0  0
 27 22  1  0  0  0  0
 28 20  1  0  0  0  0
 30 31  1  0  0  0  0
 32 31  1  0  0  0  0
 33 32  1  0  0  0  0
 34 38  1  0  0  0  0
 35 39  1  1  0  0  0
 36 42  1  6  0  0  0
 36 34  1  0  0  0  0
 36 33  1  0  0  0  0
 36 37  1  0  0  0  0
 37 35  1  0  0  0  0
 38 35  1  0  0  0  0
 39 40  2  0  0  0  0
 39 41  1  0  0  0  0
 43 42  1  0  0  0  0
 44 48  1  6  0  0  0
 44 43  1  0  0  0  0
 45 47  1  0  0  0  0
 46 45  1  0  0  0  0
 46 44  1  0  0  0  0
 46 47  1  0  0  0  0
 49 48  1  0  0  0  0
 50 49  1  0  0  0  0
 51 52  1  0  0  0  0
 51 53  1  0  0  0  0
 52 50  1  6  0  0  0
 52 53  1  0  0  0  0
 52 54  1  0  0  0  0
 54 55  1  0  0  0  0
M  END
>  <MODEL>
8

>  <REMARK>
 VINA RESULT:      -6.3      3.005      6.419
  Name = 
  22 active torsions:
  status: ('A' for Active; 'I' for Inactive)
    1  A    between atoms: C_2  and  C_28
    2  A    between atoms: C_2  and  C_44
    3  A    between atoms: C_5  and  C_19
    4  A    between atoms: C_6  and  N_46
    5  A    between atoms: C_8  and  CA_22
    6  A    between atoms: C_8  and  N_35
    7  A    between atoms: C_10  and  C_32
    8  A    between atoms: C_15  and  C_17
    9  A    between atoms: C_16  and  C_17
   10  A    between atoms: C_16  and  C_26
   11  A    between atoms: C_17  and  C_36
   12  A    between atoms: C_19  and  C_45
   13  A    between atoms: C_20  and  CA_22
   14  A    between atoms: CA_22  and  N_46
   15  A    between atoms: C_26  and  C_45
   16  A    between atoms: C_27  and  C_54
   17  A    between atoms: C_28  and  C_33
   18  A    between atoms: C_33  and  N_49
   19  A    between atoms: C_34  and  N_49
   20  A    between atoms: C_34  and  C_52
   21  A    between atoms: C_36  and  C_52
   22  A    between atoms: C_43  and  C_54
                            x       y       z     vdW  Elec       q    Type
                         _______ _______ _______ _____ _____    ______ ____

>  <TORSDO>
F 22

$$$$
=
 OpenBabel11052415013D

 55 60  0  0  1  0  0  0  0  0999 V2000
  190.2540  177.1640  144.3160 C   0  0  0  0  0  2  0  0  0  0  0  0
  187.4170  177.8080  144.7360 C   0  0  2  0  0  3  0  0  0  0  0  0
  187.9040  177.1280  143.4610 C   0  0  0  0  0  2  0  0  0  0  0  0
  189.7810  177.8550  145.5920 C   0  0  0  0  0  2  0  0  0  0  0  0
  189.3420  177.5460  143.1530 C   0  0  2  0  0  3  0  0  0  0  0  0
  188.3430  177.4540  145.9070 C   0  0  0  0  0  2  0  0  0  0  0  0
  185.9970  177.3480  145.0270 C   0  0  0  0  0  2  0  0  0  0  0  0
  184.0960  178.6250  143.9640 N   0  0  0  0  0  2  0  0  0  0  0  0
  185.0560  178.5030  145.0160 C   0  0  0  0  0  0  0  0  0  0  0  0
  185.0950  179.3490  145.9490 O   0  0  0  0  0  0  0  0  0  0  0  0
  183.0570  179.6440  143.9640 C   0  0  0  0  0  2  0  0  0  0  0  0
  182.0810  179.4190  142.8160 C   0  0  2  0  0  3  0  0  0  0  0  0
  180.4270  178.4790  144.2590 O   0  0  0  0  0  1  0  0  0  0  0  0
  180.6890  179.3320  143.3680 C   0  0  0  0  0  0  0  0  0  0  0  0
  179.6690  180.1250  142.8560 O   0  0  0  0  0  0  0  0  0  0  0  0
  182.4350  178.1940  142.0910 N   0  0  0  0  0  2  0  0  0  0  0  0
  181.7610  177.0990  140.0070 C   0  0  1  0  0  3  0  0  0  0  0  0
  184.7190  177.8740  140.7200 F   0  0  0  0  0  0  0  0  0  0  0  0
  182.3530  178.3800  140.6350 C   0  0  2  0  0  0  0  0  0  0  0  0
  183.3200  175.9560  136.6120 C   0  0  0  0  0  3  0  0  0  0  0  0
  184.1060  179.8770  139.8520 F   0  0  0  0  0  0  0  0  0  0  0  0
  183.7480  178.5470  139.9890 C   0  0  0  0  0  0  0  0  0  0  0  0
  180.4910  177.3260  139.4570 O   0  0  0  0  0  1  0  0  0  0  0  0
  184.4930  176.6160  136.7150 C   0  0  0  0  0  3  0  0  0  0  0  0
  184.8450  177.4780  137.9070 C   0  0  0  0  0  2  0  0  0  0  0  0
  182.7630  176.6630  138.9430 C   0  0  2  0  0  3  0  0  0  0  0  0
  183.5720  177.8960  138.6360 C   0  0  1  0  0  3  0  0  0  0  0  0
  182.2130  176.0880  137.6380 C   0  0  0  0  0  2  0  0  0  0  0  0
  181.5400  179.4840  140.3220 O   0  0  0  0  0  1  0  0  0  0  0  0
  189.8210  176.8610  141.8850 C   0  0  0  0  0  2  0  0  0  0  0  0
  191.1500  177.4470  141.4440 C   0  0  0  0  0  2  0  0  0  0  0  0
  191.3570  177.1730  139.9720 C   0  0  0  0  0  2  0  0  0  0  0  0
  190.1610  176.5420  139.4240 N   0  0  0  0  0  2  0  0  0  0  0  0
  189.0850  175.3870  137.6020 C   0  0  0  0  0  2  0  0  0  0  0  0
  189.1060  177.6040  136.5970 C   0  0  1  0  0  3  0  0  0  0  0  0
  190.3540  176.0750  138.0410 C   0  0  1  0  0  0  0  0  0  0  0  0
  190.5100  177.2180  137.0440 C   0  0  0  0  0  2  0  0  0  0  0  0
  188.1890  176.4760  137.0430 C   0  0  0  0  0  2  0  0  0  0  0  0
  188.6640  178.9080  137.2060 C   0  0  0  0  0  0  0  0  0  0  0  0
  187.4840  179.5090  136.7820 O   0  0  0  0  0  0  0  0  0  0  0  0
  189.3700  179.4810  138.0780 O   0  0  0  0  0  1  0  0  0  0  0  0
  191.4910  175.0550  137.9420 C   0  0  0  0  0  2  0  0  0  0  0  0
  192.0710  174.9210  136.5320 C   0  0  0  0  0  2  0  0  0  0  0  0
  192.1950  173.4590  136.0940 C   0  0  1  0  0  3  0  0  0  0  0  0
  190.2390  172.3560  135.0180 C   0  0  0  0  0  2  0  0  0  0  0  0
  191.4780  173.2000  134.7720 C   0  0  0  0  0  3  0  0  0  0  0  0
  190.1120  173.8450  134.8160 C   0  0  0  0  0  2  0  0  0  0  0  0
  193.6480  173.0250  135.9980 C   0  0  0  0  0  2  0  0  0  0  0  0
  194.4730  174.1360  135.3750 C   0  0  0  0  0  2  0  0  0  0  0  0
  195.5550  174.5530  136.3550 C   0  0  0  0  0  2  0  0  0  0  0  0
  197.0160  176.3170  135.2010 C   0  0  0  0  0  2  0  0  0  0  0  0
  196.8420  174.9130  135.6230 C   0  0  1  0  0  0  0  0  0  0  0  0
  197.6670  175.7950  136.3420 O   0  0  0  0  0  0  0  0  0  0  0  0
  197.6430  173.8450  134.8960 C   0  0  0  0  0  2  0  0  0  0  0  0
  197.7910  172.6100  135.7640 C   0  0  0  0  0  1  0  0  0  0  0  0
  1  4  1  0  0  0  0
  2  7  1  1  0  0  0
  2  6  1  0  0  0  0
  3  2  1  0  0  0  0
  4  6  1  0  0  0  0
  5 30  1  6  0  0  0
  5  3  1  0  0  0  0
  5  1  1  0  0  0  0
  8  9  1  0  0  0  0
  9  7  1  0  0  0  0
  9 10  2  0  0  0  0
 11  8  1  0  0  0  0
 12 14  1  0  0  0  0
 12 11  1  1  0  0  0
 14 13  1  0  0  0  0
 15 14  2  0  0  0  0
 16 12  1  0  0  0  0
 17 23  1  6  0  0  0
 17 19  1  0  0  0  0
 19 29  1  6  0  0  0
 19 16  1  0  0  0  0
 20 24  2  0  0  0  0
 20 28  1  0  0  0  0
 21 22  1  0  0  0  0
 22 19  1  0  0  0  0
 22 18  1  0  0  0  0
 24 25  1  0  0  0  0
 26 28  1  6  0  0  0
 26 17  1  0  0  0  0
 27 25  1  1  0  0  0
 27 26  1  0  0  0  0
 27 22  1  0  0  0  0
 31 30  1  0  0  0  0
 32 31  1  0  0  0  0
 33 32  1  0  0  0  0
 34 36  1  0  0  0  0
 35 38  1  0  0  0  0
 35 37  1  0  0  0  0
 35 39  1  1  0  0  0
 36 42  1  6  0  0  0
 36 33  1  0  0  0  0
 37 36  1  0  0  0  0
 38 34  1  0  0  0  0
 39 41  1  0  0  0  0
 40 39  2  0  0  0  0
 43 42  1  0  0  0  0
 44 48  1  6  0  0  0
 44 43  1  0  0  0  0
 46 47  1  0  0  0  0
 46 45  1  0  0  0  0
 46 44  1  0  0  0  0
 47 45  1  0  0  0  0
 49 48  1  0  0  0  0
 49 50  1  0  0  0  0
 51 52  1  0  0  0  0
 51 53  1  0  0  0  0
 52 54  1  6  0  0  0
 52 53  1  0  0  0  0
 52 50  1  0  0  0  0
 54 55  1  0  0  0  0
M  END
>  <MODEL>
9

>  <REMARK>
 VINA RESULT:      -6.2      4.019      7.800
  Name = 
  22 active torsions:
  status: ('A' for Active; 'I' for Inactive)
    1  A    between atoms: C_2  and  C_28
    2  A    between atoms: C_2  and  C_44
    3  A    between atoms: C_5  and  C_19
    4  A    between atoms: C_6  and  N_46
    5  A    between atoms: C_8  and  CA_22
    6  A    between atoms: C_8  and  N_35
    7  A    between atoms: C_10  and  C_32
    8  A    between atoms: C_15  and  C_17
    9  A    between atoms: C_16  and  C_17
   10  A    between atoms: C_16  and  C_26
   11  A    between atoms: C_17  and  C_36
   12  A    between atoms: C_19  and  C_45
   13  A    between atoms: C_20  and  CA_22
   14  A    between atoms: CA_22  and  N_46
   15  A    between atoms: C_26  and  C_45
   16  A    between atoms: C_27  and  C_54
   17  A    between atoms: C_28  and  C_33
   18  A    between atoms: C_33  and  N_49
   19  A    between atoms: C_34  and  N_49
   20  A    between atoms: C_34  and  C_52
   21  A    between atoms: C_36  and  C_52
   22  A    between atoms: C_43  and  C_54
                            x       y       z     vdW  Elec       q    Type
                         _______ _______ _______ _____ _____    ______ ____

>  <TORSDO>
F 22

$$$$
