=
 OpenBabel11052414503D

 55 63  0  0  1  0  0  0  0  0999 V2000
  181.6850  174.8860  137.7920 C   0  0  0  0  0  2  0  0  0  0  0  0
  193.1640  175.9360  139.6900 O   0  0  0  0  0  1  0  0  0  0  0  0
  186.5410  179.0150  137.5340 C   0  0  0  0  0  2  0  0  0  0  0  0
  184.9780  179.1570  140.1860 C   0  0  0  0  0  1  0  0  0  0  0  0
  190.8680  176.1490  138.2230 O   0  0  0  0  0  0  0  0  0  0  0  0
  189.1660  176.1630  136.8950 C   0  0  2  0  0  3  0  0  0  0  0  0
  187.6320  177.3210  135.3740 C   0  0  0  0  0  2  0  0  0  0  0  0
  181.8730  177.7970  141.4900 O   0  0  0  0  0  0  0  0  0  0  0  0
  193.0760  176.9720  137.4980 C   0  0  0  0  0  2  0  0  0  0  0  0
  192.0320  175.8600  137.4870 C   0  0  1  0  0  0  0  0  0  0  0  0
  182.0140  178.6420  142.6160 C   0  0  0  0  0  2  0  0  0  0  0  0
  180.5460  179.3080  140.1680 C   0  0  1  0  0  3  0  0  0  0  0  0
  179.9930  179.7520  141.5280 C   0  0  0  0  0  2  0  0  0  0  0  0
  183.7040  177.1160  139.3890 C   0  0  0  0  0  2  0  0  0  0  0  0
  189.5350  175.8200  135.4520 C   0  0  1  0  0  3  0  0  0  0  0  0
  188.8440  176.8550  134.5940 C   0  0  0  0  0  2  0  0  0  0  0  0
  181.0790  179.8720  142.5990 C   0  0  0  0  0  2  0  0  0  0  0  0
  183.8100  172.0380  136.4600 C   0  0  0  0  0  3  0  0  0  0  0  0
  181.9130  178.6210  140.3510 C   0  0  2  0  0  3  0  0  0  0  0  0
  185.1560  174.0550  136.4810 C   0  0  0  0  0  0  0  0  0  0  0  0
  181.7460  176.2370  137.4320 O   0  0  0  0  0  0  0  0  0  0  0  0
  184.0530  174.7710  136.9610 C   0  0  0  0  0  3  0  0  0  0  0  0
  180.0260  177.7270  138.2450 C   0  0  2  0  0  3  0  0  0  0  0  0
  187.7040  178.0470  137.7980 C   0  0  0  0  0  2  0  0  0  0  0  0
  179.5180  178.3600  139.5420 C   0  0  0  0  0  2  0  0  0  0  0  0
  185.1590  178.4080  137.7850 C   0  0  0  0  0  2  0  0  0  0  0  0
  193.2950  175.7100  138.3180 C   0  0  2  0  0  0  0  0  0  0  0  0
  184.9660  177.9700  139.2340 C   0  0  1  0  0  3  0  0  0  0  0  0
  182.7180  172.7580  136.9570 C   0  0  0  0  0  3  0  0  0  0  0  0
  191.0380  175.8100  135.1420 C   0  0  0  0  0  2  0  0  0  0  0  0
  187.7990  176.8570  136.8230 C   0  0  2  0  0  0  0  0  0  0  0  0
  182.8340  174.1290  137.1990 C   0  0  0  0  0  0  0  0  0  0  0  0
  182.4020  177.8750  139.0980 C   0  0  2  0  0  3  0  0  0  0  0  0
  190.1530  176.9730  137.4780 O   0  0  0  0  0  0  0  0  0  0  0  0
  181.3090  176.9380  138.5620 C   0  0  2  0  0  3  0  0  0  0  0  0
  186.7180  175.8440  137.2170 C   0  0  0  0  0  2  0  0  0  0  0  0
  191.9080  175.0780  136.1690 C   0  0  2  0  0  3  0  0  0  0  0  0
  186.4460  174.7520  136.1830 C   0  0  0  0  0  2  0  0  0  0  0  0
  185.0260  172.6860  136.2170 C   0  0  0  0  0  3  0  0  0  0  0  0
  191.5020  173.6470  136.3600 C   0  0  0  0  0  0  0  0  0  0  0  0
  192.0050  172.7340  135.6550 O   0  0  0  0  0  0  0  0  0  0  0  0
  190.5850  173.3250  137.3520 O   0  0  0  0  0  1  0  0  0  0  0  0
  194.4480  174.8350  137.8290 C   0  0  1  0  0  3  0  0  0  0  0  0
  195.2000  175.5150  136.8720 O   0  0  0  0  0  1  0  0  0  0  0  0
  195.3390  174.3800  138.9800 C   0  0  0  0  0  2  0  0  0  0  0  0
  196.4710  175.1930  139.0830 O   0  0  0  0  0  1  0  0  0  0  0  0
  180.1340  178.1810  135.8750 O   0  0  0  0  0  1  0  0  0  0  0  0
  180.2040  178.7800  137.1340 C   0  0  1  0  0  3  0  0  0  0  0  0
  179.1310  179.8590  137.2360 C   0  0  0  0  0  2  0  0  0  0  0  0
  179.4300  181.0180  136.3020 C   0  0  0  0  0  2  0  0  0  0  0  0
  180.7570  183.0890  136.1230 C   0  0  1  0  0  3  0  0  0  0  0  0
  179.8650  184.6230  137.3270 N   0  0  0  0  0  2  0  0  0  0  0  0
  179.9940  182.1950  137.0740 C   0  0  1  0  0  3  0  0  0  0  0  0
  179.3710  183.4810  136.5660 C   0  0  2  0  0  3  0  0  0  0  0  0
  181.2130  184.3000  136.8930 C   0  0  0  0  0  2  0  0  0  0  0  0
  3 26  1  0  0  0  0
  3 24  1  0  0  0  0
  6 34  1  6  0  0  0
  8 11  1  0  0  0  0
  9 27  1  0  0  0  0
 10  9  1  6  0  0  0
 10  5  1  0  0  0  0
 10 27  1  0  0  0  0
 12 25  1  1  0  0  0
 12 19  1  0  0  0  0
 12 13  1  0  0  0  0
 13 17  1  0  0  0  0
 15 16  1  6  0  0  0
 15  6  1  0  0  0  0
 16  7  1  0  0  0  0
 17 11  1  0  0  0  0
 18 29  1  0  0  0  0
 19  8  1  1  0  0  0
 20 22  2  0  0  0  0
 21  1  1  0  0  0  0
 22 32  1  0  0  0  0
 23 48  1  6  0  0  0
 23 35  1  0  0  0  0
 23 25  1  0  0  0  0
 26 28  1  0  0  0  0
 27  2  1  1  0  0  0
 28 14  1  0  0  0  0
 28  4  1  1  0  0  0
 29 32  2  0  0  0  0
 30 15  1  0  0  0  0
 30 37  1  0  0  0  0
 31  7  1  6  0  0  0
 31  6  1  0  0  0  0
 31 36  1  0  0  0  0
 31 24  1  0  0  0  0
 32  1  1  0  0  0  0
 33 14  1  1  0  0  0
 33 19  1  0  0  0  0
 34  5  1  0  0  0  0
 35 21  1  6  0  0  0
 35 33  1  0  0  0  0
 37 40  1  1  0  0  0
 37 10  1  0  0  0  0
 38 20  1  0  0  0  0
 38 36  1  0  0  0  0
 39 18  2  0  0  0  0
 39 20  1  0  0  0  0
 40 42  1  0  0  0  0
 41 40  2  0  0  0  0
 43 44  1  6  0  0  0
 43 27  1  0  0  0  0
 43 45  1  0  0  0  0
 45 46  1  0  0  0  0
 48 47  1  6  0  0  0
 48 49  1  0  0  0  0
 50 49  1  0  0  0  0
 51 54  1  0  0  0  0
 51 55  1  1  0  0  0
 51 53  1  0  0  0  0
 53 50  1  6  0  0  0
 54 53  1  0  0  0  0
 54 52  1  1  0  0  0
 55 52  1  0  0  0  0
M  END
>  <MODEL>
1

>  <REMARK>
 VINA RESULT:      -5.7      0.000      0.000
  Name = 
  7 active torsions:
  status: ('A' for Active; 'I' for Inactive)
    1  A    between atoms: C_1  and  C_53
    2  A    between atoms: C_11  and  C_29
    3  A    between atoms: C_13  and  C_48
    4  A    between atoms: C_13  and  C_52
    5  A    between atoms: C_29  and  C_38
    6  A    between atoms: C_32  and  C_48
    7  A    between atoms: C_33  and  C_52
                            x       y       z     vdW  Elec       q    Type
                         _______ _______ _______ _____ _____    ______ ____

>  <TORSDO>
F 7

$$$$
=
 OpenBabel11052414503D

 55 63  0  0  1  0  0  0  0  0999 V2000
  183.4990  175.8340  138.6620 C   0  0  0  0  0  2  0  0  0  0  0  0
  195.0410  174.0290  138.5710 O   0  0  0  0  0  1  0  0  0  0  0  0
  189.1290  178.8280  138.4510 C   0  0  0  0  0  2  0  0  0  0  0  0
  188.0060  178.5730  141.3100 C   0  0  0  0  0  1  0  0  0  0  0  0
  192.6910  175.0770  137.6460 O   0  0  0  0  0  0  0  0  0  0  0  0
  190.8840  175.7820  136.6990 C   0  0  2  0  0  3  0  0  0  0  0  0
  189.4890  177.5830  135.7960 C   0  0  0  0  0  2  0  0  0  0  0  0
  184.8630  177.5650  142.8250 O   0  0  0  0  0  0  0  0  0  0  0  0
  194.9180  175.6040  136.7300 C   0  0  0  0  0  2  0  0  0  0  0  0
  193.6460  174.7670  136.6590 C   0  0  1  0  0  0  0  0  0  0  0  0
  185.3480  178.0360  144.0680 C   0  0  0  0  0  2  0  0  0  0  0  0
  183.7760  179.6060  142.1550 C   0  0  1  0  0  3  0  0  0  0  0  0
  183.5280  179.7750  143.6590 C   0  0  0  0  0  2  0  0  0  0  0  0
  186.1860  177.1120  140.3200 C   0  0  0  0  0  2  0  0  0  0  0  0
  190.9690  175.7660  135.1730 C   0  0  1  0  0  3  0  0  0  0  0  0
  190.4410  177.1080  134.7180 C   0  0  0  0  0  2  0  0  0  0  0  0
  184.7420  179.3880  144.5070 C   0  0  0  0  0  2  0  0  0  0  0  0
  184.6840  173.0750  136.3410 C   0  0  0  0  0  3  0  0  0  0  0  0
  184.9500  178.6350  141.9170 C   0  0  2  0  0  3  0  0  0  0  0  0
  186.4670  174.7030  136.5710 C   0  0  0  0  0  0  0  0  0  0  0  0
  183.8360  177.1920  138.6150 O   0  0  0  0  0  0  0  0  0  0  0  0
  185.6410  175.4720  137.3990 C   0  0  0  0  0  3  0  0  0  0  0  0
  182.6460  178.7260  140.0530 C   0  0  2  0  0  3  0  0  0  0  0  0
  190.0490  177.6130  138.2650 C   0  0  0  0  0  2  0  0  0  0  0  0
  182.4780  179.0820  141.5320 C   0  0  0  0  0  2  0  0  0  0  0  0
  187.6860  178.4650  138.8100 C   0  0  0  0  0  2  0  0  0  0  0  0
  194.9330  174.1530  137.1840 C   0  0  2  0  0  0  0  0  0  0  0  0
  187.5840  177.7070  140.1310 C   0  0  1  0  0  3  0  0  0  0  0  0
  183.8720  173.8410  137.1840 C   0  0  0  0  0  3  0  0  0  0  0  0
  192.3720  175.5390  134.5940 C   0  0  0  0  0  2  0  0  0  0  0  0
  189.7270  176.7280  137.0440 C   0  0  2  0  0  0  0  0  0  0  0  0
  184.3450  175.0480  137.7080 C   0  0  0  0  0  0  0  0  0  0  0  0
  185.0780  178.1660  140.4580 C   0  0  2  0  0  3  0  0  0  0  0  0
  192.1040  176.1950  137.2560 O   0  0  0  0  0  0  0  0  0  0  0  0
  183.7310  177.6420  139.9360 C   0  0  2  0  0  3  0  0  0  0  0  0
  188.4950  175.8850  137.3910 C   0  0  0  0  0  2  0  0  0  0  0  0
  193.1660  174.4020  135.2450 C   0  0  2  0  0  3  0  0  0  0  0  0
  187.8360  175.1830  136.2040 C   0  0  0  0  0  2  0  0  0  0  0  0
  185.9790  173.5080  136.0300 C   0  0  0  0  0  3  0  0  0  0  0  0
  192.4570  173.0830  135.1770 C   0  0  0  0  0  0  0  0  0  0  0  0
  191.2840  172.9570  135.6130 O   0  0  0  0  0  1  0  0  0  0  0  0
  193.0950  171.9950  134.5940 O   0  0  0  0  0  0  0  0  0  0  0  0
  195.7680  173.2260  136.3020 C   0  0  1  0  0  3  0  0  0  0  0  0
  196.8680  173.9100  135.7850 O   0  0  0  0  0  1  0  0  0  0  0  0
  196.2240  171.9840  137.0590 C   0  0  0  0  0  2  0  0  0  0  0  0
  195.5550  170.8470  136.5990 O   0  0  0  0  0  1  0  0  0  0  0  0
  184.2320  179.9560  138.7090 O   0  0  0  0  0  1  0  0  0  0  0  0
  182.9250  179.9790  139.1980 C   0  0  1  0  0  3  0  0  0  0  0  0
  181.9520  180.0600  138.0270 C   0  0  0  0  0  2  0  0  0  0  0  0
  180.5710  180.4890  138.4920 C   0  0  0  0  0  2  0  0  0  0  0  0
  180.8090  182.4450  137.0090 C   0  0  1  0  0  3  0  0  0  0  0  0
  179.1580  183.7810  137.3070 N   0  0  0  0  0  2  0  0  0  0  0  0
  180.4210  181.9950  138.4000 C   0  0  1  0  0  3  0  0  0  0  0  0
  179.3530  182.3370  137.3790 C   0  0  2  0  0  3  0  0  0  0  0  0
  180.5490  183.9250  136.9130 C   0  0  0  0  0  2  0  0  0  0  0  0
  3 26  1  0  0  0  0
  6 31  1  0  0  0  0
  6 34  1  1  0  0  0
  8 11  1  0  0  0  0
  9 27  1  0  0  0  0
 10  9  1  6  0  0  0
 10 27  1  0  0  0  0
 10  5  1  0  0  0  0
 11 17  1  0  0  0  0
 12 25  1  6  0  0  0
 12 13  1  0  0  0  0
 13 17  1  0  0  0  0
 15 30  1  1  0  0  0
 15  6  1  0  0  0  0
 16 15  1  0  0  0  0
 16  7  1  0  0  0  0
 18 29  1  0  0  0  0
 19 12  1  0  0  0  0
 19  8  1  1  0  0  0
 20 22  2  0  0  0  0
 21  1  1  0  0  0  0
 22 32  1  0  0  0  0
 23 48  1  6  0  0  0
 23 25  1  0  0  0  0
 24  3  1  0  0  0  0
 26 28  1  0  0  0  0
 27  2  1  1  0  0  0
 28 14  1  0  0  0  0
 28  4  1  1  0  0  0
 29 32  2  0  0  0  0
 30 37  1  0  0  0  0
 31  7  1  6  0  0  0
 31 36  1  0  0  0  0
 31 24  1  0  0  0  0
 32  1  1  0  0  0  0
 33 14  1  1  0  0  0
 33 19  1  0  0  0  0
 34  5  1  0  0  0  0
 35 21  1  6  0  0  0
 35 23  1  0  0  0  0
 35 33  1  0  0  0  0
 37 40  1  1  0  0  0
 37 10  1  0  0  0  0
 38 20  1  0  0  0  0
 38 36  1  0  0  0  0
 39 18  2  0  0  0  0
 39 20  1  0  0  0  0
 40 41  1  0  0  0  0
 42 40  2  0  0  0  0
 43 44  1  1  0  0  0
 43 45  1  0  0  0  0
 43 27  1  0  0  0  0
 46 45  1  0  0  0  0
 48 47  1  6  0  0  0
 49 50  1  0  0  0  0
 49 48  1  0  0  0  0
 51 55  1  1  0  0  0
 51 54  1  0  0  0  0
 51 53  1  0  0  0  0
 53 50  1  6  0  0  0
 54 52  1  1  0  0  0
 54 53  1  0  0  0  0
 55 52  1  0  0  0  0
M  END
>  <MODEL>
2

>  <REMARK>
 VINA RESULT:      -2.9      1.948      2.665
  Name = 
  7 active torsions:
  status: ('A' for Active; 'I' for Inactive)
    1  A    between atoms: C_1  and  C_53
    2  A    between atoms: C_11  and  C_29
    3  A    between atoms: C_13  and  C_48
    4  A    between atoms: C_13  and  C_52
    5  A    between atoms: C_29  and  C_38
    6  A    between atoms: C_32  and  C_48
    7  A    between atoms: C_33  and  C_52
                            x       y       z     vdW  Elec       q    Type
                         _______ _______ _______ _____ _____    ______ ____

>  <TORSDO>
F 7

$$$$
