=
 OpenBabel11052413513D

 27 31  0  0  0  0  0  0  0  0999 V2000
  186.4150  178.7730  140.7920 C   0  0  0  0  0  3  0  0  0  0  0  0
  185.8290  178.4420  143.1870 C   0  0  0  0  0  0  0  0  0  0  0  0
  187.9730  177.2100  142.8080 N   0  0  0  0  0  0  0  0  0  0  0  0
  186.6110  178.4590  147.3220 C   0  0  0  0  0  3  0  0  0  0  0  0
  188.0110  177.8390  149.2230 N   0  0  0  0  0  1  0  0  0  0  0  0
  184.9560  179.0710  144.0900 C   0  0  0  0  0  3  0  0  0  0  0  0
  188.6500  177.2100  146.9530 C   0  0  0  0  0  3  0  0  0  0  0  0
  191.2160  176.4770  139.5380 F   0  0  0  0  0  0  0  0  0  0  0  0
  188.4030  177.2050  145.5780 C   0  0  0  0  0  3  0  0  0  0  0  0
  190.0680  177.0880  139.9140 C   0  0  0  0  0  0  0  0  0  0  0  0
  187.2550  177.8250  145.0570 C   0  0  0  0  0  0  0  0  0  0  0  0
  185.4730  178.3950  141.7990 N   0  0  0  0  0  0  0  0  0  0  0  0
  187.7560  177.8350  147.8240 C   0  0  0  0  0  0  0  0  0  0  0  0
  186.3570  178.4580  145.9480 C   0  0  0  0  0  0  0  0  0  0  0  0
  187.6650  178.3260  140.6820 C   0  0  0  0  0  0  0  0  0  0  0  0
  187.0060  177.8360  143.6660 C   0  0  0  0  0  0  0  0  0  0  0  0
  189.4780  176.7770  141.1380 C   0  0  0  0  0  3  0  0  0  0  0  0
  185.2170  179.0830  145.4580 C   0  0  0  0  0  3  0  0  0  0  0  0
  189.4990  178.0650  139.1020 C   0  0  0  0  0  3  0  0  0  0  0  0
  188.3010  178.6690  139.4820 C   0  0  0  0  0  3  0  0  0  0  0  0
  188.3020  177.4100  141.5640 C   0  0  0  0  0  0  0  0  0  0  0  0
  181.4330  177.8130  140.5830 C   0  0  0  0  0  3  0  0  0  0  0  0
  184.1000  178.1840  141.3980 C   0  0  0  0  0  0  0  0  0  0  0  0
  183.7980  177.4190  140.2590 C   0  0  0  0  0  3  0  0  0  0  0  0
  182.4730  177.2310  139.8550 C   0  0  0  0  0  3  0  0  0  0  0  0
  181.7170  178.5840  141.7120 C   0  0  0  0  0  3  0  0  0  0  0  0
  183.0420  178.7710  142.1150 C   0  0  0  0  0  3  0  0  0  0  0  0
  1 12  1  0  0  0  0
  2 16  2  0  0  0  0
  2  6  1  0  0  0  0
  3 16  1  0  0  0  0
  4 13  1  0  0  0  0
  6 18  2  0  0  0  0
  7 13  2  0  0  0  0
  8 10  1  0  0  0  0
  9  7  1  0  0  0  0
 10 17  2  0  0  0  0
 11  9  2  0  0  0  0
 11 14  1  0  0  0  0
 12  2  1  0  0  0  0
 13  5  1  0  0  0  0
 14  4  2  0  0  0  0
 15  1  2  0  0  0  0
 15 21  1  0  0  0  0
 16 11  1  0  0  0  0
 17 21  1  0  0  0  0
 18 14  1  0  0  0  0
 19 20  2  0  0  0  0
 19 10  1  0  0  0  0
 20 15  1  0  0  0  0
 21  3  2  0  0  0  0
 22 26  1  0  0  0  0
 23 12  1  0  0  0  0
 23 27  1  0  0  0  0
 24 23  2  0  0  0  0
 25 24  1  0  0  0  0
 25 22  2  0  0  0  0
 26 27  2  0  0  0  0
M  END
>  <MODEL>
1

>  <REMARK>
 VINA RESULT:     -10.1      0.000      0.000
  Name = 
  1 active torsions:
  status: ('A' for Active; 'I' for Inactive)
    1  A    between atoms: C_9  and  N_15
                            x       y       z     vdW  Elec       q    Type
                         _______ _______ _______ _____ _____    ______ ____

>  <TORSDO>
F 1

$$$$
=
 OpenBabel11052413513D

 27 31  0  0  0  0  0  0  0  0999 V2000
  187.9910  178.7140  141.2350 C   0  0  0  0  0  3  0  0  0  0  0  0
  188.4540  177.8480  143.5200 C   0  0  0  0  0  0  0  0  0  0  0  0
  189.8580  176.4930  141.9550 N   0  0  0  0  0  0  0  0  0  0  0  0
  190.9470  176.6860  146.7060 C   0  0  0  0  0  3  0  0  0  0  0  0
  192.8470  175.4170  147.5630 N   0  0  0  0  0  1  0  0  0  0  0  0
  188.2400  178.3270  144.8240 C   0  0  0  0  0  3  0  0  0  0  0  0
  192.2600  175.3250  145.1960 C   0  0  0  0  0  3  0  0  0  0  0  0
  191.0670  176.2270  137.4590 F   0  0  0  0  0  0  0  0  0  0  0  0
  191.4420  175.7110  144.1310 C   0  0  0  0  0  3  0  0  0  0  0  0
  190.3790  176.8620  138.4380 C   0  0  0  0  0  0  0  0  0  0  0  0
  190.3640  176.5870  144.3390 C   0  0  0  0  0  0  0  0  0  0  0  0
  187.5260  178.2110  142.4890 N   0  0  0  0  0  0  0  0  0  0  0  0
  192.0130  175.8120  146.4810 C   0  0  0  0  0  0  0  0  0  0  0  0
  190.1240  177.0760  145.6450 C   0  0  0  0  0  0  0  0  0  0  0  0
  188.9230  178.1550  140.4630 C   0  0  0  0  0  0  0  0  0  0  0  0
  189.5420  176.9930  143.2640 C   0  0  0  0  0  0  0  0  0  0  0  0
  190.3300  176.3210  139.7220 C   0  0  0  0  0  3  0  0  0  0  0  0
  189.0680  177.9490  145.8770 C   0  0  0  0  0  3  0  0  0  0  0  0
  189.7600  178.0820  138.1780 C   0  0  0  0  0  3  0  0  0  0  0  0
  189.0300  178.7140  139.1830 C   0  0  0  0  0  3  0  0  0  0  0  0
  189.6450  176.9660  140.7610 C   0  0  0  0  0  0  0  0  0  0  0  0
  183.3560  178.4960  143.3060 C   0  0  0  0  0  3  0  0  0  0  0  0
  186.1100  178.2900  142.7680 C   0  0  0  0  0  0  0  0  0  0  0  0
  185.1810  178.4050  141.7200 C   0  0  0  0  0  3  0  0  0  0  0  0
  183.8120  178.5040  141.9860 C   0  0  0  0  0  3  0  0  0  0  0  0
  184.2670  178.3920  144.3590 C   0  0  0  0  0  3  0  0  0  0  0  0
  185.6350  178.2930  144.0930 C   0  0  0  0  0  3  0  0  0  0  0  0
  1 12  1  0  0  0  0
  2  6  1  0  0  0  0
  3 16  1  0  0  0  0
  6 18  2  0  0  0  0
  7 13  2  0  0  0  0
  8 10  1  0  0  0  0
  9 11  2  0  0  0  0
  9  7  1  0  0  0  0
 10 17  2  0  0  0  0
 11 14  1  0  0  0  0
 12 23  1  0  0  0  0
 12  2  1  0  0  0  0
 13  4  1  0  0  0  0
 13  5  1  0  0  0  0
 14 18  1  0  0  0  0
 14  4  2  0  0  0  0
 15 21  1  0  0  0  0
 15  1  2  0  0  0  0
 16  2  2  0  0  0  0
 16 11  1  0  0  0  0
 17 21  1  0  0  0  0
 19 10  1  0  0  0  0
 19 20  2  0  0  0  0
 20 15  1  0  0  0  0
 21  3  2  0  0  0  0
 22 26  1  0  0  0  0
 23 27  1  0  0  0  0
 24 25  1  0  0  0  0
 24 23  2  0  0  0  0
 25 22  2  0  0  0  0
 27 26  2  0  0  0  0
M  END
>  <MODEL>
2

>  <REMARK>
 VINA RESULT:      -9.6      2.144      3.132
  Name = 
  1 active torsions:
  status: ('A' for Active; 'I' for Inactive)
    1  A    between atoms: C_9  and  N_15
                            x       y       z     vdW  Elec       q    Type
                         _______ _______ _______ _____ _____    ______ ____

>  <TORSDO>
F 1

$$$$
=
 OpenBabel11052413513D

 27 31  0  0  0  0  0  0  0  0999 V2000
  190.0680  178.0950  142.2770 C   0  0  0  0  0  3  0  0  0  0  0  0
  187.6390  178.0980  141.7440 C   0  0  0  0  0  0  0  0  0  0  0  0
  187.8390  177.3240  144.1140 N   0  0  0  0  0  0  0  0  0  0  0  0
  183.6020  179.0660  142.4390 C   0  0  0  0  0  3  0  0  0  0  0  0
  181.6580  179.1400  143.9120 N   0  0  0  0  0  1  0  0  0  0  0  0
  186.8450  178.6760  140.7380 C   0  0  0  0  0  3  0  0  0  0  0  0
  183.7880  178.2530  144.7110 C   0  0  0  0  0  3  0  0  0  0  0  0
  191.0030  176.7270  147.4880 F   0  0  0  0  0  0  0  0  0  0  0  0
  185.1300  177.9350  144.4920 C   0  0  0  0  0  3  0  0  0  0  0  0
  190.7160  177.1280  146.2270 C   0  0  0  0  0  0  0  0  0  0  0  0
  185.7260  178.1760  143.2430 C   0  0  0  0  0  0  0  0  0  0  0  0
  188.9830  177.7140  141.4280 N   0  0  0  0  0  0  0  0  0  0  0  0
  183.0240  178.8170  143.6860 C   0  0  0  0  0  0  0  0  0  0  0  0
  184.9450  178.7500  142.2120 C   0  0  0  0  0  0  0  0  0  0  0  0
  190.1270  177.9240  143.5970 C   0  0  0  0  0  0  0  0  0  0  0  0
  187.0870  177.8700  143.0190 C   0  0  0  0  0  0  0  0  0  0  0  0
  189.4390  176.9300  145.7030 C   0  0  0  0  0  3  0  0  0  0  0  0
  185.5120  179.0030  140.9690 C   0  0  0  0  0  3  0  0  0  0  0  0
  191.6810  177.7840  145.4670 C   0  0  0  0  0  3  0  0  0  0  0  0
  191.3870  178.1680  144.1590 C   0  0  0  0  0  3  0  0  0  0  0  0
  189.1070  177.3540  144.4090 C   0  0  0  0  0  0  0  0  0  0  0  0
  189.9390  176.0450  137.6280 C   0  0  0  0  0  3  0  0  0  0  0  0
  189.3000  177.1310  140.1430 C   0  0  0  0  0  0  0  0  0  0  0  0
  190.5740  176.5940  139.8970 C   0  0  0  0  0  3  0  0  0  0  0  0
  190.8910  176.0500  138.6480 C   0  0  0  0  0  3  0  0  0  0  0  0
  188.6700  176.5850  137.8530 C   0  0  0  0  0  3  0  0  0  0  0  0
  188.3540  177.1280  139.1010 C   0  0  0  0  0  3  0  0  0  0  0  0
  1 15  2  0  0  0  0
  2 16  1  0  0  0  0
  3 21  2  0  0  0  0
  4 13  2  0  0  0  0
  6 18  1  0  0  0  0
  6  2  2  0  0  0  0
  9  7  2  0  0  0  0
 10  8  1  0  0  0  0
 11  9  1  0  0  0  0
 12  2  1  0  0  0  0
 12  1  1  0  0  0  0
 13  5  1  0  0  0  0
 13  7  1  0  0  0  0
 14  4  1  0  0  0  0
 14 11  1  0  0  0  0
 15 20  1  0  0  0  0
 15 21  1  0  0  0  0
 16 11  2  0  0  0  0
 16  3  1  0  0  0  0
 17 10  2  0  0  0  0
 18 14  2  0  0  0  0
 19 10  1  0  0  0  0
 20 19  2  0  0  0  0
 21 17  1  0  0  0  0
 22 26  2  0  0  0  0
 22 25  1  0  0  0  0
 23 12  1  0  0  0  0
 24 23  1  0  0  0  0
 25 24  2  0  0  0  0
 26 27  1  0  0  0  0
 27 23  2  0  0  0  0
M  END
>  <MODEL>
3

>  <REMARK>
 VINA RESULT:      -9.0      2.578      5.598
  Name = 
  1 active torsions:
  status: ('A' for Active; 'I' for Inactive)
    1  A    between atoms: C_9  and  N_15
                            x       y       z     vdW  Elec       q    Type
                         _______ _______ _______ _____ _____    ______ ____

>  <TORSDO>
F 1

$$$$
=
 OpenBabel11052413513D

 27 31  0  0  0  0  0  0  0  0999 V2000
  188.0250  176.9010  143.5320 C   0  0  0  0  0  3  0  0  0  0  0  0
  185.8440  178.0440  143.1870 C   0  0  0  0  0  0  0  0  0  0  0  0
  187.2550  178.6040  141.1990 N   0  0  0  0  0  0  0  0  0  0  0  0
  182.4050  179.0750  140.9900 C   0  0  0  0  0  3  0  0  0  0  0  0
  181.3580  179.9030  138.9470 N   0  0  0  0  0  1  0  0  0  0  0  0
  184.5590  177.9190  143.7430 C   0  0  0  0  0  3  0  0  0  0  0  0
  183.7840  179.6770  139.0940 C   0  0  0  0  0  3  0  0  0  0  0  0
  191.3850  177.6040  139.2760 F   0  0  0  0  0  0  0  0  0  0  0  0
  184.9310  179.3300  139.8130 C   0  0  0  0  0  3  0  0  0  0  0  0
  190.4910  177.4000  140.2730 C   0  0  0  0  0  0  0  0  0  0  0  0
  184.8300  178.8540  141.1300 C   0  0  0  0  0  0  0  0  0  0  0  0
  186.9830  177.7570  144.0070 N   0  0  0  0  0  0  0  0  0  0  0  0
  182.5230  179.5500  139.6810 C   0  0  0  0  0  0  0  0  0  0  0  0
  183.5480  178.7270  141.7150 C   0  0  0  0  0  0  0  0  0  0  0  0
  188.6550  177.0070  142.3630 C   0  0  0  0  0  0  0  0  0  0  0  0
  185.9850  178.4880  141.8590 C   0  0  0  0  0  0  0  0  0  0  0  0
  189.3390  178.1810  140.3510 C   0  0  0  0  0  3  0  0  0  0  0  0
  183.4210  178.2530  143.0150 C   0  0  0  0  0  3  0  0  0  0  0  0
  190.6970  176.3780  141.1960 C   0  0  0  0  0  3  0  0  0  0  0  0
  189.7890  176.1930  142.2370 C   0  0  0  0  0  3  0  0  0  0  0  0
  188.3860  177.9780  141.3590 C   0  0  0  0  0  0  0  0  0  0  0  0
  187.0120  178.8360  148.1270 C   0  0  0  0  0  3  0  0  0  0  0  0
  187.0020  178.1380  145.4020 C   0  0  0  0  0  0  0  0  0  0  0  0
  187.9770  177.6200  146.2710 C   0  0  0  0  0  3  0  0  0  0  0  0
  187.9850  177.9690  147.6250 C   0  0  0  0  0  3  0  0  0  0  0  0
  186.0300  179.3520  147.2780 C   0  0  0  0  0  3  0  0  0  0  0  0
  186.0230  179.0030  145.9250 C   0  0  0  0  0  3  0  0  0  0  0  0
  1 12  1  0  0  0  0
  2  6  1  0  0  0  0
  2 12  1  0  0  0  0
  3 21  2  0  0  0  0
  3 16  1  0  0  0  0
  4 14  1  0  0  0  0
  5 13  1  0  0  0  0
  7 13  1  0  0  0  0
  7  9  2  0  0  0  0
  8 10  1  0  0  0  0
  9 11  1  0  0  0  0
 10 17  2  0  0  0  0
 10 19  1  0  0  0  0
 11 14  2  0  0  0  0
 11 16  1  0  0  0  0
 12 23  1  0  0  0  0
 13  4  2  0  0  0  0
 14 18  1  0  0  0  0
 15  1  2  0  0  0  0
 16  2  2  0  0  0  0
 17 21  1  0  0  0  0
 18  6  2  0  0  0  0
 19 20  2  0  0  0  0
 20 15  1  0  0  0  0
 21 15  1  0  0  0  0
 23 27  2  0  0  0  0
 23 24  1  0  0  0  0
 24 25  2  0  0  0  0
 25 22  1  0  0  0  0
 26 22  2  0  0  0  0
 27 26  1  0  0  0  0
M  END
>  <MODEL>
4

>  <REMARK>
 VINA RESULT:      -8.7      1.602      5.799
  Name = 
  1 active torsions:
  status: ('A' for Active; 'I' for Inactive)
    1  A    between atoms: C_9  and  N_15
                            x       y       z     vdW  Elec       q    Type
                         _______ _______ _______ _____ _____    ______ ____

>  <TORSDO>
F 1

$$$$
=
 OpenBabel11052413513D

 27 31  0  0  0  0  0  0  0  0999 V2000
  189.8040  176.7590  140.7300 C   0  0  0  0  0  3  0  0  0  0  0  0
  187.8770  177.6300  142.0380 C   0  0  0  0  0  0  0  0  0  0  0  0
  187.6090  178.5140  139.7130 N   0  0  0  0  0  0  0  0  0  0  0  0
  183.7930  178.3620  142.7480 C   0  0  0  0  0  3  0  0  0  0  0  0
  181.6230  179.1940  142.0040 N   0  0  0  0  0  1  0  0  0  0  0  0
  187.2800  177.2980  143.2660 C   0  0  0  0  0  3  0  0  0  0  0  0
  183.5590  179.2760  140.5190 C   0  0  0  0  0  3  0  0  0  0  0  0
  189.5100  178.2060  135.4660 F   0  0  0  0  0  0  0  0  0  0  0  0
  184.9110  179.0310  140.2720 C   0  0  0  0  0  3  0  0  0  0  0  0
  189.5010  177.8150  136.7620 C   0  0  0  0  0  0  0  0  0  0  0  0
  185.7240  178.4500  141.2590 C   0  0  0  0  0  0  0  0  0  0  0  0
  189.2870  177.4350  141.8790 N   0  0  0  0  0  0  0  0  0  0  0  0
  183.0000  178.9430  141.7550 C   0  0  0  0  0  0  0  0  0  0  0  0
  185.1470  178.1140  142.5070 C   0  0  0  0  0  0  0  0  0  0  0  0
  189.5070  177.0320  139.4610 C   0  0  0  0  0  0  0  0  0  0  0  0
  187.0890  178.1850  141.0110 C   0  0  0  0  0  0  0  0  0  0  0  0
  188.6440  178.4310  137.6730 C   0  0  0  0  0  3  0  0  0  0  0  0
  185.9280  177.5330  143.5000 C   0  0  0  0  0  3  0  0  0  0  0  0
  190.3130  176.7630  137.1790 C   0  0  0  0  0  3  0  0  0  0  0  0
  190.3200  176.3850  138.5210 C   0  0  0  0  0  3  0  0  0  0  0  0
  188.5970  178.0320  139.0160 C   0  0  0  0  0  0  0  0  0  0  0  0
  191.9230  178.2500  145.1240 C   0  0  0  0  0  3  0  0  0  0  0  0
  190.1960  177.7120  142.9690 C   0  0  0  0  0  0  0  0  0  0  0  0
  190.7020  176.6670  143.7600 C   0  0  0  0  0  3  0  0  0  0  0  0
  191.5640  176.9340  144.8290 C   0  0  0  0  0  3  0  0  0  0  0  0
  191.4210  179.3010  144.3530 C   0  0  0  0  0  3  0  0  0  0  0  0
  190.5600  179.0340  143.2850 C   0  0  0  0  0  3  0  0  0  0  0  0
  1 12  1  0  0  0  0
  2  6  1  0  0  0  0
  3 16  1  0  0  0  0
  6 18  2  0  0  0  0
  7 13  1  0  0  0  0
  8 10  1  0  0  0  0
  9  7  2  0  0  0  0
  9 11  1  0  0  0  0
 10 19  1  0  0  0  0
 10 17  2  0  0  0  0
 11 14  2  0  0  0  0
 12  2  1  0  0  0  0
 12 23  1  0  0  0  0
 13  5  1  0  0  0  0
 13  4  2  0  0  0  0
 14  4  1  0  0  0  0
 14 18  1  0  0  0  0
 15  1  2  0  0  0  0
 16 11  1  0  0  0  0
 16  2  2  0  0  0  0
 17 21  1  0  0  0  0
 19 20  2  0  0  0  0
 20 15  1  0  0  0  0
 21 15  1  0  0  0  0
 21  3  2  0  0  0  0
 23 27  2  0  0  0  0
 23 24  1  0  0  0  0
 24 25  2  0  0  0  0
 25 22  1  0  0  0  0
 26 22  2  0  0  0  0
 27 26  1  0  0  0  0
M  END
>  <MODEL>
5

>  <REMARK>
 VINA RESULT:      -8.6      2.661      6.021
  Name = 
  1 active torsions:
  status: ('A' for Active; 'I' for Inactive)
    1  A    between atoms: C_9  and  N_15
                            x       y       z     vdW  Elec       q    Type
                         _______ _______ _______ _____ _____    ______ ____

>  <TORSDO>
F 1

$$$$
=
 OpenBabel11052413513D

 27 31  0  0  0  0  0  0  0  0999 V2000
  189.0590  176.6210  143.9590 C   0  0  0  0  0  3  0  0  0  0  0  0
  186.9280  177.6200  144.7620 C   0  0  0  0  0  0  0  0  0  0  0  0
  187.2670  178.4630  142.4310 N   0  0  0  0  0  0  0  0  0  0  0  0
  182.8390  178.5770  144.4740 C   0  0  0  0  0  3  0  0  0  0  0  0
  180.9560  179.5030  143.2280 N   0  0  0  0  0  1  0  0  0  0  0  0
  186.0400  177.3470  145.8170 C   0  0  0  0  0  3  0  0  0  0  0  0
  183.1900  179.4510  142.2450 C   0  0  0  0  0  3  0  0  0  0  0  0
  190.0990  177.9600  138.7600 F   0  0  0  0  0  0  0  0  0  0  0  0
  184.5470  179.1300  142.3280 C   0  0  0  0  0  3  0  0  0  0  0  0
  189.7620  177.6000  140.0220 C   0  0  0  0  0  0  0  0  0  0  0  0
  185.0690  178.5310  143.4860 C   0  0  0  0  0  0  0  0  0  0  0  0
  188.3230  177.3490  144.9450 N   0  0  0  0  0  0  0  0  0  0  0  0
  182.3370  179.1760  143.3160 C   0  0  0  0  0  0  0  0  0  0  0  0
  184.1960  178.2540  144.5650 C   0  0  0  0  0  0  0  0  0  0  0  0
  189.0860  176.8800  142.6520 C   0  0  0  0  0  0  0  0  0  0  0  0
  186.4380  178.1910  143.5720 C   0  0  0  0  0  0  0  0  0  0  0  0
  188.7490  178.2790  140.6970 C   0  0  0  0  0  3  0  0  0  0  0  0
  184.6860  177.6570  145.7200 C   0  0  0  0  0  3  0  0  0  0  0  0
  190.3920  176.5170  140.6300 C   0  0  0  0  0  3  0  0  0  0  0  0
  190.0610  176.1700  141.9390 C   0  0  0  0  0  3  0  0  0  0  0  0
  188.3640  177.9140  141.9940 C   0  0  0  0  0  0  0  0  0  0  0  0
  190.1930  178.0500  148.7060 C   0  0  0  0  0  3  0  0  0  0  0  0
  188.9620  177.6040  146.2170 C   0  0  0  0  0  0  0  0  0  0  0  0
  190.2810  177.1780  146.4520 C   0  0  0  0  0  3  0  0  0  0  0  0
  190.8940  177.4030  147.6870 C   0  0  0  0  0  3  0  0  0  0  0  0
  188.8790  178.4700  148.4920 C   0  0  0  0  0  3  0  0  0  0  0  0
  188.2660  178.2460  147.2570 C   0  0  0  0  0  3  0  0  0  0  0  0
  1 12  1  0  0  0  0
  2 12  1  0  0  0  0
  2  6  1  0  0  0  0
  3 16  1  0  0  0  0
  4 14  1  0  0  0  0
  5 13  1  0  0  0  0
  7  9  2  0  0  0  0
  7 13  1  0  0  0  0
  8 10  1  0  0  0  0
  9 11  1  0  0  0  0
 10 19  1  0  0  0  0
 10 17  2  0  0  0  0
 11 16  1  0  0  0  0
 11 14  2  0  0  0  0
 12 23  1  0  0  0  0
 13  4  2  0  0  0  0
 14 18  1  0  0  0  0
 15  1  2  0  0  0  0
 16  2  2  0  0  0  0
 17 21  1  0  0  0  0
 18  6  2  0  0  0  0
 19 20  2  0  0  0  0
 20 15  1  0  0  0  0
 21  3  2  0  0  0  0
 21 15  1  0  0  0  0
 23 24  2  0  0  0  0
 23 27  1  0  0  0  0
 24 25  1  0  0  0  0
 25 22  2  0  0  0  0
 26 22  1  0  0  0  0
 27 26  2  0  0  0  0
M  END
>  <MODEL>
6

>  <REMARK>
 VINA RESULT:      -8.6      1.768      5.808
  Name = 
  1 active torsions:
  status: ('A' for Active; 'I' for Inactive)
    1  A    between atoms: C_9  and  N_15
                            x       y       z     vdW  Elec       q    Type
                         _______ _______ _______ _____ _____    ______ ____

>  <TORSDO>
F 1

$$$$
=
 OpenBabel11052413513D

 27 31  0  0  0  0  0  0  0  0999 V2000
  184.4250  177.7380  141.1510 C   0  0  0  0  0  3  0  0  0  0  0  0
  186.3240  177.8350  142.7540 C   0  0  0  0  0  0  0  0  0  0  0  0
  184.4460  179.1090  143.8070 N   0  0  0  0  0  0  0  0  0  0  0  0
  188.1210  177.4260  146.5380 C   0  0  0  0  0  3  0  0  0  0  0  0
  188.1460  177.8690  148.9380 N   0  0  0  0  0  1  0  0  0  0  0  0
  187.5210  177.1180  142.9180 C   0  0  0  0  0  3  0  0  0  0  0  0
  186.3340  178.7160  147.5380 C   0  0  0  0  0  3  0  0  0  0  0  0
  179.9530  180.1700  143.1480 F   0  0  0  0  0  0  0  0  0  0  0  0
  185.7260  178.8510  146.2870 C   0  0  0  0  0  3  0  0  0  0  0  0
  181.0640  179.5190  142.7270 C   0  0  0  0  0  0  0  0  0  0  0  0
  186.3090  178.2780  145.1450 C   0  0  0  0  0  0  0  0  0  0  0  0
  185.7990  178.0120  141.4320 N   0  0  0  0  0  0  0  0  0  0  0  0
  187.5300  178.0050  147.6630 C   0  0  0  0  0  0  0  0  0  0  0  0
  187.5190  177.5570  145.2830 C   0  0  0  0  0  0  0  0  0  0  0  0
  183.3780  178.2000  141.8340 C   0  0  0  0  0  0  0  0  0  0  0  0
  185.6920  178.3980  143.8790 C   0  0  0  0  0  0  0  0  0  0  0  0
  182.2770  179.7080  143.3860 C   0  0  0  0  0  3  0  0  0  0  0  0
  188.1130  176.9760  144.1700 C   0  0  0  0  0  3  0  0  0  0  0  0
  180.9860  178.6210  141.6660 C   0  0  0  0  0  3  0  0  0  0  0  0
  182.1390  177.9770  141.2200 C   0  0  0  0  0  3  0  0  0  0  0  0
  183.4380  179.0310  142.9870 C   0  0  0  0  0  0  0  0  0  0  0  0
  188.4120  178.6700  138.1340 C   0  0  0  0  0  3  0  0  0  0  0  0
  186.6850  178.2540  140.3150 C   0  0  0  0  0  0  0  0  0  0  0  0
  186.1930  178.2440  138.9990 C   0  0  0  0  0  3  0  0  0  0  0  0
  187.0500  178.4550  137.9140 C   0  0  0  0  0  3  0  0  0  0  0  0
  188.9180  178.6730  139.4350 C   0  0  0  0  0  3  0  0  0  0  0  0
  188.0610  178.4630  140.5190 C   0  0  0  0  0  3  0  0  0  0  0  0
  1 12  1  0  0  0  0
  1 15  2  0  0  0  0
  2  6  2  0  0  0  0
  2 16  1  0  0  0  0
  3 16  1  0  0  0  0
  4 13  2  0  0  0  0
  6 18  1  0  0  0  0
  7 13  1  0  0  0  0
  9  7  2  0  0  0  0
 10  8  1  0  0  0  0
 10 17  2  0  0  0  0
 11 14  1  0  0  0  0
 11  9  1  0  0  0  0
 12  2  1  0  0  0  0
 13  5  1  0  0  0  0
 14  4  1  0  0  0  0
 15 21  1  0  0  0  0
 16 11  2  0  0  0  0
 18 14  2  0  0  0  0
 19 10  1  0  0  0  0
 20 19  2  0  0  0  0
 20 15  1  0  0  0  0
 21 17  1  0  0  0  0
 21  3  2  0  0  0  0
 22 26  1  0  0  0  0
 23 27  1  0  0  0  0
 23 12  1  0  0  0  0
 24 23  2  0  0  0  0
 25 22  2  0  0  0  0
 25 24  1  0  0  0  0
 26 27  2  0  0  0  0
M  END
>  <MODEL>
7

>  <REMARK>
 VINA RESULT:      -8.5      2.635      5.246
  Name = 
  1 active torsions:
  status: ('A' for Active; 'I' for Inactive)
    1  A    between atoms: C_9  and  N_15
                            x       y       z     vdW  Elec       q    Type
                         _______ _______ _______ _____ _____    ______ ____

>  <TORSDO>
F 1

$$$$
=
 OpenBabel11052413513D

 27 31  0  0  0  0  0  0  0  0999 V2000
  187.1600  177.1510  142.1560 C   0  0  0  0  0  3  0  0  0  0  0  0
  189.4260  176.8430  143.1340 C   0  0  0  0  0  0  0  0  0  0  0  0
  188.1100  178.1630  144.8030 N   0  0  0  0  0  0  0  0  0  0  0  0
  192.1340  175.7700  146.1720 C   0  0  0  0  0  3  0  0  0  0  0  0
  192.8890  175.8990  148.4890 N   0  0  0  0  0  1  0  0  0  0  0  0
  190.5110  175.9900  142.8740 C   0  0  0  0  0  3  0  0  0  0  0  0
  190.8920  177.1020  147.7650 C   0  0  0  0  0  3  0  0  0  0  0  0
  183.8010  179.7630  145.5890 F   0  0  0  0  0  0  0  0  0  0  0  0
  189.9830  177.4580  146.7650 C   0  0  0  0  0  3  0  0  0  0  0  0
  184.6490  179.0580  144.8040 C   0  0  0  0  0  0  0  0  0  0  0  0
  190.1400  176.9770  145.4550 C   0  0  0  0  0  0  0  0  0  0  0  0
  188.5820  177.2420  142.0460 N   0  0  0  0  0  0  0  0  0  0  0  0
  191.9660  176.2600  147.4690 C   0  0  0  0  0  0  0  0  0  0  0  0
  191.2300  176.1230  145.1660 C   0  0  0  0  0  0  0  0  0  0  0  0
  186.4190  177.6290  143.1540 C   0  0  0  0  0  0  0  0  0  0  0  0
  189.2170  177.3220  144.4410 C   0  0  0  0  0  0  0  0  0  0  0  0
  186.0130  179.0340  145.0920 C   0  0  0  0  0  3  0  0  0  0  0  0
  191.4040  175.6280  143.8790 C   0  0  0  0  0  3  0  0  0  0  0  0
  184.1560  178.3160  143.7340 C   0  0  0  0  0  3  0  0  0  0  0  0
  185.0390  177.6170  142.9120 C   0  0  0  0  0  3  0  0  0  0  0  0
  186.9120  178.2960  144.3100 C   0  0  0  0  0  0  0  0  0  0  0  0
  190.2050  178.0540  138.1930 C   0  0  0  0  0  3  0  0  0  0  0  0
  189.1450  177.5290  140.7450 C   0  0  0  0  0  0  0  0  0  0  0  0
  188.5260  178.4550  139.8880 C   0  0  0  0  0  3  0  0  0  0  0  0
  189.0540  178.7190  138.6210 C   0  0  0  0  0  3  0  0  0  0  0  0
  190.8270  177.1240  139.0290 C   0  0  0  0  0  3  0  0  0  0  0  0
  190.2980  176.8600  140.2960 C   0  0  0  0  0  3  0  0  0  0  0  0
  1 15  2  0  0  0  0
  2 16  1  0  0  0  0
  4 13  2  0  0  0  0
  6  2  2  0  0  0  0
  6 18  1  0  0  0  0
  9  7  2  0  0  0  0
 10 17  2  0  0  0  0
 10  8  1  0  0  0  0
 11  9  1  0  0  0  0
 12  1  1  0  0  0  0
 12  2  1  0  0  0  0
 13  7  1  0  0  0  0
 13  5  1  0  0  0  0
 14 11  1  0  0  0  0
 14  4  1  0  0  0  0
 15 21  1  0  0  0  0
 16  3  1  0  0  0  0
 16 11  2  0  0  0  0
 18 14  2  0  0  0  0
 19 10  1  0  0  0  0
 20 15  1  0  0  0  0
 20 19  2  0  0  0  0
 21  3  2  0  0  0  0
 21 17  1  0  0  0  0
 22 25  2  0  0  0  0
 22 26  1  0  0  0  0
 23 12  1  0  0  0  0
 24 23  2  0  0  0  0
 25 24  1  0  0  0  0
 26 27  2  0  0  0  0
 27 23  1  0  0  0  0
M  END
>  <MODEL>
8

>  <REMARK>
 VINA RESULT:      -8.4      2.886      5.738
  Name = 
  1 active torsions:
  status: ('A' for Active; 'I' for Inactive)
    1  A    between atoms: C_9  and  N_15
                            x       y       z     vdW  Elec       q    Type
                         _______ _______ _______ _____ _____    ______ ____

>  <TORSDO>
F 1

$$$$
=
 OpenBabel11052413513D

 27 31  0  0  0  0  0  0  0  0999 V2000
  182.7070  178.6280  141.2050 C   0  0  0  0  0  3  0  0  0  0  0  0
  184.2830  178.5550  139.2830 C   0  0  0  0  0  0  0  0  0  0  0  0
  185.6540  179.1220  141.2970 N   0  0  0  0  0  0  0  0  0  0  0  0
  187.7840  177.3340  137.2900 C   0  0  0  0  0  3  0  0  0  0  0  0
  190.2050  177.0350  137.2380 N   0  0  0  0  0  1  0  0  0  0  0  0
  184.2340  178.0320  137.9790 C   0  0  0  0  0  3  0  0  0  0  0  0
  189.1090  177.9480  139.2190 C   0  0  0  0  0  3  0  0  0  0  0  0
  185.3020  179.5660  145.9260 F   0  0  0  0  0  0  0  0  0  0  0  0
  187.9520  178.3490  139.8920 C   0  0  0  0  0  3  0  0  0  0  0  0
  184.7150  179.2660  144.7430 C   0  0  0  0  0  0  0  0  0  0  0  0
  186.6960  178.2500  139.2710 C   0  0  0  0  0  0  0  0  0  0  0  0
  183.0720  179.0300  139.8830 N   0  0  0  0  0  0  0  0  0  0  0  0
  189.0250  177.4420  137.9200 C   0  0  0  0  0  0  0  0  0  0  0  0
  186.6220  177.7340  137.9560 C   0  0  0  0  0  0  0  0  0  0  0  0
  183.4870  178.6820  142.2840 C   0  0  0  0  0  0  0  0  0  0  0  0
  185.5190  178.6400  139.9510 C   0  0  0  0  0  0  0  0  0  0  0  0
  185.4120  179.4490  143.5500 C   0  0  0  0  0  3  0  0  0  0  0  0
  185.3900  177.6210  137.3220 C   0  0  0  0  0  3  0  0  0  0  0  0
  183.4300  178.7280  144.7180 C   0  0  0  0  0  3  0  0  0  0  0  0
  182.8210  178.4500  143.4950 C   0  0  0  0  0  3  0  0  0  0  0  0
  184.8380  179.1270  142.3120 C   0  0  0  0  0  0  0  0  0  0  0  0
  180.1580  181.1430  137.6070 C   0  0  0  0  0  3  0  0  0  0  0  0
  182.0890  179.7400  139.0950 C   0  0  0  0  0  0  0  0  0  0  0  0
  182.3060  181.0770  138.7190 C   0  0  0  0  0  3  0  0  0  0  0  0
  181.3480  181.7730  137.9760 C   0  0  0  0  0  3  0  0  0  0  0  0
  179.9230  179.8190  137.9820 C   0  0  0  0  0  3  0  0  0  0  0  0
  180.8810  179.1230  138.7240 C   0  0  0  0  0  3  0  0  0  0  0  0
  1 15  2  0  0  0  0
  2 12  1  0  0  0  0
  2 16  1  0  0  0  0
  3 21  2  0  0  0  0
  4 13  2  0  0  0  0
  4 14  1  0  0  0  0
  5 13  1  0  0  0  0
  6  2  2  0  0  0  0
  7  9  2  0  0  0  0
 10  8  1  0  0  0  0
 11  9  1  0  0  0  0
 11 16  2  0  0  0  0
 12  1  1  0  0  0  0
 13  7  1  0  0  0  0
 14 11  1  0  0  0  0
 15 21  1  0  0  0  0
 15 20  1  0  0  0  0
 16  3  1  0  0  0  0
 17 10  2  0  0  0  0
 18 14  2  0  0  0  0
 18  6  1  0  0  0  0
 19 10  1  0  0  0  0
 20 19  2  0  0  0  0
 21 17  1  0  0  0  0
 22 25  2  0  0  0  0
 22 26  1  0  0  0  0
 23 12  1  0  0  0  0
 24 23  2  0  0  0  0
 25 24  1  0  0  0  0
 26 27  2  0  0  0  0
 27 23  1  0  0  0  0
M  END
>  <MODEL>
9

>  <REMARK>
 VINA RESULT:      -8.3      3.269      6.542
  Name = 
  1 active torsions:
  status: ('A' for Active; 'I' for Inactive)
    1  A    between atoms: C_9  and  N_15
                            x       y       z     vdW  Elec       q    Type
                         _______ _______ _______ _____ _____    ______ ____

>  <TORSDO>
F 1

$$$$
