=
 OpenBabel11052415433D

 34 38  0  0  1  0  0  0  0  0999 V2000
  183.9290  179.5510  139.9470 O   0  0  0  0  0  0  0  0  0  0  0  0
  179.2180  180.3420  138.9670 C   0  0  0  0  0  2  0  0  0  0  0  0
  180.1070  179.8930  141.3320 C   0  0  0  0  0  2  0  0  0  0  0  0
  182.7220  179.4800  140.3040 C   0  0  0  0  0  0  0  0  0  0  0  0
  182.3060  179.0700  143.9640 C   0  0  0  0  0  2  0  0  0  0  0  0
  180.9270  179.0140  143.4700 N   0  0  0  0  0  0  0  0  0  0  0  0
  183.2440  179.2080  142.7750 C   0  0  2  0  0  3  0  0  0  0  0  0
  181.0000  178.8600  142.0200 C   0  0  2  0  0  3  0  0  0  0  0  0
  182.3790  179.0670  141.6320 N   0  0  0  0  0  0  0  0  0  0  0  0
  180.3420  177.7950  143.9980 C   0  0  0  0  0  1  0  0  0  0  0  0
  179.4850  180.0880  137.4840 C   0  0  0  0  0  2  0  0  0  0  0  0
  180.8590  180.6170  137.0780 C   0  0  2  0  0  3  0  0  0  0  0  0
  180.3700  179.9400  139.8470 C   0  0  0  0  0  0  0  0  0  0  0  0
  181.9460  179.9250  137.8970 C   0  0  0  0  0  2  0  0  0  0  0  0
  181.6340  179.8310  139.3710 C   0  0  0  0  0  0  0  0  0  0  0  0
  184.2770  178.0890  142.7860 C   0  0  0  0  0  2  0  0  0  0  0  0
  186.9820  177.1980  142.8550 F   0  0  0  0  0  0  0  0  0  0  0  0
  185.3350  178.6980  146.3700 C   0  0  0  0  0  3  0  0  0  0  0  0
  189.4210  177.7900  146.2590 N   0  0  0  0  0  0  0  0  0  0  0  0
  188.6230  177.2030  145.1740 C   0  0  0  0  0  2  0  0  0  0  0  0
  187.2230  177.7530  145.1690 C   0  0  0  0  0  0  0  0  0  0  0  0
  185.1200  178.1520  144.0180 C   0  0  0  0  0  0  0  0  0  0  0  0
  187.4710  178.3530  147.6200 C   0  0  0  0  0  2  0  0  0  0  0  0
  186.6540  178.2380  146.3650 C   0  0  0  0  0  0  0  0  0  0  0  0
  188.7490  177.5210  147.5300 C   0  0  0  0  0  2  0  0  0  0  0  0
  184.5700  178.6510  145.2030 C   0  0  0  0  0  3  0  0  0  0  0  0
  186.4470  177.6960  144.0010 C   0  0  0  0  0  0  0  0  0  0  0  0
  191.1390  176.6110  144.9560 C   0  0  0  0  0  1  0  0  0  0  0  0
  190.7510  177.1730  146.3130 C   0  0  2  0  0  3  0  0  0  0  0  0
  190.8230  176.1710  147.2880 O   0  0  0  0  0  1  0  0  0  0  0  0
  180.9600  182.1310  137.2170 C   0  0  0  0  0  2  0  0  0  0  0  0
  180.3270  182.7800  136.0790 N   0  0  0  0  0  2  0  0  0  0  0  0
  180.9760  184.0690  135.9080 C   0  0  0  0  0  2  0  0  0  0  0  0
  181.5690  184.5250  137.2270 C   0  0  0  0  0  1  0  0  0  0  0  0
  1  4  2  0  0  0  0
  2 13  1  0  0  0  0
  4  9  1  0  0  0  0
  6  5  1  0  0  0  0
  6 10  1  0  0  0  0
  7 16  1  1  0  0  0
  7  5  1  0  0  0  0
  8  3  1  6  0  0  0
  8  6  1  0  0  0  0
  9  8  1  0  0  0  0
  9  7  1  0  0  0  0
 11  2  1  0  0  0  0
 12 31  1  1  0  0  0
 12 11  1  0  0  0  0
 12 14  1  0  0  0  0
 13  3  1  0  0  0  0
 14 15  1  0  0  0  0
 15 13  2  0  0  0  0
 15  4  1  0  0  0  0
 16 22  1  0  0  0  0
 17 27  1  0  0  0  0
 19 29  1  0  0  0  0
 19 25  1  0  0  0  0
 20 19  1  0  0  0  0
 21 20  1  0  0  0  0
 21 24  2  0  0  0  0
 22 26  1  0  0  0  0
 24 18  1  0  0  0  0
 24 23  1  0  0  0  0
 25 23  1  0  0  0  0
 26 18  2  0  0  0  0
 27 22  2  0  0  0  0
 27 21  1  0  0  0  0
 29 28  1  6  0  0  0
 29 30  1  0  0  0  0
 32 31  1  0  0  0  0
 33 32  1  0  0  0  0
 33 34  1  0  0  0  0
M  END
>  <MODEL>
1

>  <REMARK>
 VINA RESULT:      -9.0      0.000      0.000
  Name = 
  6 active torsions:
  status: ('A' for Active; 'I' for Inactive)
    1  A    between atoms: C_3  and  N_24
    2  A    between atoms: N_7  and  C_15
    3  A    between atoms: C_8  and  C_17
    4  A    between atoms: C_8  and  C_18
    5  A    between atoms: N_24  and  C_25
    6  A    between atoms: C_25  and  C_27
                            x       y       z     vdW  Elec       q    Type
                         _______ _______ _______ _____ _____    ______ ____

>  <TORSDO>
F 6

$$$$
=
 OpenBabel11052415433D

 34 38  0  0  1  0  0  0  0  0999 V2000
  186.8950  178.4500  139.7070 O   0  0  0  0  0  0  0  0  0  0  0  0
  191.3340  176.4370  139.6000 C   0  0  0  0  0  2  0  0  0  0  0  0
  189.9030  176.5750  141.7260 C   0  0  0  0  0  2  0  0  0  0  0  0
  187.9130  178.0410  140.3270 C   0  0  0  0  0  0  0  0  0  0  0  0
  187.2760  177.4160  143.9240 C   0  0  0  0  0  2  0  0  0  0  0  0
  188.7100  177.1390  143.7930 N   0  0  0  0  0  0  0  0  0  0  0  0
  186.7440  177.8740  142.5760 C   0  0  2  0  0  3  0  0  0  0  0  0
  189.1240  177.6470  142.4890 C   0  0  2  0  0  3  0  0  0  0  0  0
  187.9230  177.9940  141.7590 N   0  0  0  0  0  0  0  0  0  0  0  0
  189.3850  177.9430  144.7960 C   0  0  0  0  0  1  0  0  0  0  0  0
  191.6050  177.1060  138.2540 C   0  0  0  0  0  2  0  0  0  0  0  0
  190.3350  177.1620  137.4070 C   0  0  2  0  0  3  0  0  0  0  0  0
  190.1040  176.9680  140.2830 C   0  0  0  0  0  0  0  0  0  0  0  0
  189.2540  177.9530  138.1390 C   0  0  0  0  0  2  0  0  0  0  0  0
  189.1140  177.5890  139.5970 C   0  0  0  0  0  0  0  0  0  0  0  0
  186.0640  179.2300  142.7100 C   0  0  0  0  0  2  0  0  0  0  0  0
  184.0930  178.7450  140.7110 F   0  0  0  0  0  0  0  0  0  0  0  0
  182.8250  179.0550  144.6630 C   0  0  0  0  0  3  0  0  0  0  0  0
  180.0750  177.8990  141.7240 N   0  0  0  0  0  0  0  0  0  0  0  0
  181.3070  178.5180  141.2150 C   0  0  0  0  0  2  0  0  0  0  0  0
  182.3180  178.7000  142.3140 C   0  0  0  0  0  0  0  0  0  0  0  0
  184.6120  179.0720  143.0250 C   0  0  0  0  0  0  0  0  0  0  0  0
  180.4440  178.6460  144.0220 C   0  0  0  0  0  2  0  0  0  0  0  0
  181.8880  178.8310  143.6510 C   0  0  0  0  0  0  0  0  0  0  0  0
  179.5390  178.7390  142.7950 C   0  0  0  0  0  2  0  0  0  0  0  0
  184.1800  179.1790  144.3510 C   0  0  0  0  0  3  0  0  0  0  0  0
  183.6790  178.8380  142.0020 C   0  0  0  0  0  0  0  0  0  0  0  0
  179.0190  176.4220  140.0680 C   0  0  0  0  0  1  0  0  0  0  0  0
  179.0630  177.8180  140.6650 C   0  0  2  0  0  3  0  0  0  0  0  0
  179.2830  178.7650  139.6580 O   0  0  0  0  0  1  0  0  0  0  0  0
  189.8300  175.7730  137.0330 C   0  0  0  0  0  2  0  0  0  0  0  0
  188.7050  175.8820  136.1170 N   0  0  0  0  0  2  0  0  0  0  0  0
  187.6630  175.0000  136.6150 C   0  0  0  0  0  2  0  0  0  0  0  0
  186.4130  175.8020  136.9200 C   0  0  0  0  0  1  0  0  0  0  0  0
  1  4  2  0  0  0  0
  2 13  1  0  0  0  0
  4  9  1  0  0  0  0
  6  5  1  0  0  0  0
  6 10  1  0  0  0  0
  7 16  1  1  0  0  0
  7  5  1  0  0  0  0
  8  3  1  6  0  0  0
  8  6  1  0  0  0  0
  9  8  1  0  0  0  0
  9  7  1  0  0  0  0
 11  2  1  0  0  0  0
 12 31  1  1  0  0  0
 12 14  1  0  0  0  0
 12 11  1  0  0  0  0
 13  3  1  0  0  0  0
 14 15  1  0  0  0  0
 15 13  2  0  0  0  0
 15  4  1  0  0  0  0
 16 22  1  0  0  0  0
 17 27  1  0  0  0  0
 19 25  1  0  0  0  0
 20 19  1  0  0  0  0
 20 21  1  0  0  0  0
 21 24  1  0  0  0  0
 22 26  2  0  0  0  0
 24 23  1  0  0  0  0
 24 18  2  0  0  0  0
 25 23  1  0  0  0  0
 26 18  1  0  0  0  0
 27 21  2  0  0  0  0
 27 22  1  0  0  0  0
 29 28  1  6  0  0  0
 29 19  1  0  0  0  0
 30 29  1  0  0  0  0
 32 33  1  0  0  0  0
 32 31  1  0  0  0  0
 33 34  1  0  0  0  0
M  END
>  <MODEL>
2

>  <REMARK>
 VINA RESULT:      -8.8      4.268      8.639
  Name = 
  6 active torsions:
  status: ('A' for Active; 'I' for Inactive)
    1  A    between atoms: C_3  and  N_24
    2  A    between atoms: N_7  and  C_15
    3  A    between atoms: C_8  and  C_17
    4  A    between atoms: C_8  and  C_18
    5  A    between atoms: N_24  and  C_25
    6  A    between atoms: C_25  and  C_27
                            x       y       z     vdW  Elec       q    Type
                         _______ _______ _______ _____ _____    ______ ____

>  <TORSDO>
F 6

$$$$
=
 OpenBabel11052415433D

 34 38  0  0  1  0  0  0  0  0999 V2000
  189.0020  177.8960  143.1450 O   0  0  0  0  0  0  0  0  0  0  0  0
  187.5730  177.5480  147.7940 C   0  0  0  0  0  2  0  0  0  0  0  0
  185.9330  177.6720  145.8240 C   0  0  0  0  0  2  0  0  0  0  0  0
  188.0910  178.0120  144.0090 C   0  0  0  0  0  0  0  0  0  0  0  0
  184.6870  178.0480  142.5450 C   0  0  0  0  0  2  0  0  0  0  0  0
  184.4310  178.2530  143.9740 N   0  0  0  0  0  0  0  0  0  0  0  0
  186.1890  177.9760  142.3260 C   0  0  2  0  0  3  0  0  0  0  0  0
  185.7140  178.5590  144.5970 C   0  0  2  0  0  3  0  0  0  0  0  0
  186.7450  178.3000  143.6140 N   0  0  0  0  0  0  0  0  0  0  0  0
  183.6100  179.4460  144.0850 C   0  0  0  0  0  1  0  0  0  0  0  0
  188.9740  177.9420  148.2540 C   0  0  0  0  0  2  0  0  0  0  0  0
  190.0380  177.3670  147.3210 C   0  0  2  0  0  3  0  0  0  0  0  0
  187.3530  177.7700  146.3220 C   0  0  0  0  0  0  0  0  0  0  0  0
  189.8230  177.8880  145.9020 C   0  0  0  0  0  2  0  0  0  0  0  0
  188.3850  177.8420  145.4460 C   0  0  0  0  0  0  0  0  0  0  0  0
  186.6230  179.0120  141.2970 C   0  0  0  0  0  2  0  0  0  0  0  0
  189.1910  178.0370  140.5440 F   0  0  0  0  0  0  0  0  0  0  0  0
  186.0880  177.6760  137.7950 C   0  0  0  0  0  3  0  0  0  0  0  0
  189.7740  175.8720  136.9580 N   0  0  0  0  0  0  0  0  0  0  0  0
  189.8040  176.8870  138.0200 C   0  0  0  0  0  2  0  0  0  0  0  0
  188.4140  177.3200  138.3990 C   0  0  0  0  0  0  0  0  0  0  0  0
  186.8910  178.3720  139.9740 C   0  0  0  0  0  0  0  0  0  0  0  0
  187.5780  176.5560  136.1300 C   0  0  0  0  0  2  0  0  0  0  0  0
  187.3660  177.2230  137.4590 C   0  0  0  0  0  0  0  0  0  0  0  0
  189.0650  176.4260  135.8040 C   0  0  0  0  0  2  0  0  0  0  0  0
  185.8530  178.2520  139.0450 C   0  0  0  0  0  3  0  0  0  0  0  0
  188.1760  177.9110  139.6490 C   0  0  0  0  0  0  0  0  0  0  0  0
  191.4560  174.0840  136.8590 C   0  0  0  0  0  1  0  0  0  0  0  0
  191.1350  175.5320  136.5300 C   0  0  2  0  0  3  0  0  0  0  0  0
  192.0900  176.3790  137.1050 O   0  0  0  0  0  1  0  0  0  0  0  0
  190.0590  175.8430  147.3390 C   0  0  0  0  0  2  0  0  0  0  0  0
  191.4230  175.3610  147.1890 N   0  0  0  0  0  2  0  0  0  0  0  0
  192.2920  176.3300  147.8350 C   0  0  0  0  0  2  0  0  0  0  0  0
  193.1810  175.6310  148.8450 C   0  0  0  0  0  1  0  0  0  0  0  0
  1  4  2  0  0  0  0
  2 11  1  0  0  0  0
  3 13  1  0  0  0  0
  4 15  1  0  0  0  0
  5  6  1  0  0  0  0
  6 10  1  0  0  0  0
  6  8  1  0  0  0  0
  7 16  1  6  0  0  0
  7  5  1  0  0  0  0
  7  9  1  0  0  0  0
  8  3  1  1  0  0  0
  9  4  1  0  0  0  0
  9  8  1  0  0  0  0
 12 31  1  6  0  0  0
 12 11  1  0  0  0  0
 13  2  1  0  0  0  0
 14 12  1  0  0  0  0
 15 14  1  0  0  0  0
 15 13  2  0  0  0  0
 18 26  1  0  0  0  0
 19 20  1  0  0  0  0
 20 21  1  0  0  0  0
 21 27  2  0  0  0  0
 22 16  1  0  0  0  0
 23 24  1  0  0  0  0
 24 18  2  0  0  0  0
 24 21  1  0  0  0  0
 25 23  1  0  0  0  0
 25 19  1  0  0  0  0
 26 22  2  0  0  0  0
 27 22  1  0  0  0  0
 27 17  1  0  0  0  0
 29 28  1  1  0  0  0
 29 19  1  0  0  0  0
 29 30  1  0  0  0  0
 32 31  1  0  0  0  0
 32 33  1  0  0  0  0
 33 34  1  0  0  0  0
M  END
>  <MODEL>
3

>  <REMARK>
 VINA RESULT:      -8.5      4.648      9.883
  Name = 
  6 active torsions:
  status: ('A' for Active; 'I' for Inactive)
    1  A    between atoms: C_3  and  N_24
    2  A    between atoms: N_7  and  C_15
    3  A    between atoms: C_8  and  C_17
    4  A    between atoms: C_8  and  C_18
    5  A    between atoms: N_24  and  C_25
    6  A    between atoms: C_25  and  C_27
                            x       y       z     vdW  Elec       q    Type
                         _______ _______ _______ _____ _____    ______ ____

>  <TORSDO>
F 6

$$$$
=
 OpenBabel11052415433D

 34 38  0  0  1  0  0  0  0  0999 V2000
  185.4380  179.1810  139.9380 O   0  0  0  0  0  0  0  0  0  0  0  0
  181.9580  177.9580  136.7490 C   0  0  0  0  0  2  0  0  0  0  0  0
  184.2880  176.8830  136.7690 C   0  0  0  0  0  2  0  0  0  0  0  0
  185.1090  178.6290  138.8530 C   0  0  0  0  0  0  0  0  0  0  0  0
  187.6600  176.2550  137.5930 C   0  0  0  0  0  2  0  0  0  0  0  0
  186.6400  176.2300  136.5390 N   0  0  0  0  0  0  0  0  0  0  0  0
  187.2370  177.2570  138.6540 C   0  0  2  0  0  3  0  0  0  0  0  0
  185.7430  177.3530  136.7880 C   0  0  2  0  0  3  0  0  0  0  0  0
  186.0700  177.8860  138.0930 N   0  0  0  0  0  0  0  0  0  0  0  0
  187.3250  176.5030  135.2870 C   0  0  0  0  0  1  0  0  0  0  0  0
  181.1860  179.2260  137.1060 C   0  0  0  0  0  2  0  0  0  0  0  0
  181.3350  179.5580  138.5900 C   0  0  2  0  0  3  0  0  0  0  0  0
  183.3610  177.9530  137.2910 C   0  0  0  0  0  0  0  0  0  0  0  0
  182.8080  179.7680  138.9300 C   0  0  0  0  0  2  0  0  0  0  0  0
  183.7270  178.7230  138.3450 C   0  0  0  0  0  0  0  0  0  0  0  0
  188.3340  178.2930  138.8680 C   0  0  0  0  0  2  0  0  0  0  0  0
  187.4450  178.6300  141.5530 F   0  0  0  0  0  0  0  0  0  0  0  0
  191.2770  177.1280  140.9450 C   0  0  0  0  0  3  0  0  0  0  0  0
  189.7220  177.2340  144.8320 N   0  0  0  0  0  0  0  0  0  0  0  0
  189.0140  178.0710  143.8540 C   0  0  0  0  0  2  0  0  0  0  0  0
  189.5010  177.8070  142.4560 C   0  0  0  0  0  0  0  0  0  0  0  0
  189.1760  177.9430  140.0510 C   0  0  0  0  0  0  0  0  0  0  0  0
  191.6810  176.9240  143.4030 C   0  0  0  0  0  2  0  0  0  0  0  0
  190.8090  177.3220  142.2470 C   0  0  0  0  0  0  0  0  0  0  0  0
  191.1560  177.4970  144.7180 C   0  0  0  0  0  2  0  0  0  0  0  0
  190.4670  177.4420  139.8520 C   0  0  0  0  0  3  0  0  0  0  0  0
  188.6930  178.1320  141.3550 C   0  0  0  0  0  0  0  0  0  0  0  0
  190.0850  176.7530  147.2140 C   0  0  0  0  0  1  0  0  0  0  0  0
  189.3080  177.5720  146.1980 C   0  0  2  0  0  3  0  0  0  0  0  0
  187.9320  177.3950  146.3860 O   0  0  0  0  0  1  0  0  0  0  0  0
  180.7220  178.4880  139.4850 C   0  0  0  0  0  2  0  0  0  0  0  0
  180.1760  179.0960  140.6880 N   0  0  0  0  0  2  0  0  0  0  0  0
  180.5710  178.2570  141.8070 C   0  0  0  0  0  2  0  0  0  0  0  0
  181.5500  179.0050  142.6910 C   0  0  0  0  0  1  0  0  0  0  0  0
  2 11  1  0  0  0  0
  2 13  1  0  0  0  0
  3 13  1  0  0  0  0
  4  1  2  0  0  0  0
  5  7  1  0  0  0  0
  6  8  1  0  0  0  0
  6  5  1  0  0  0  0
  7 16  1  6  0  0  0
  8  3  1  1  0  0  0
  8  9  1  0  0  0  0
  9  7  1  0  0  0  0
  9  4  1  0  0  0  0
 10  6  1  0  0  0  0
 11 12  1  0  0  0  0
 12 14  1  0  0  0  0
 12 31  1  1  0  0  0
 13 15  2  0  0  0  0
 15  4  1  0  0  0  0
 15 14  1  0  0  0  0
 16 22  1  0  0  0  0
 18 24  1  0  0  0  0
 19 29  1  0  0  0  0
 20 19  1  0  0  0  0
 21 20  1  0  0  0  0
 22 27  2  0  0  0  0
 23 25  1  0  0  0  0
 24 21  2  0  0  0  0
 24 23  1  0  0  0  0
 25 19  1  0  0  0  0
 26 22  1  0  0  0  0
 26 18  2  0  0  0  0
 27 17  1  0  0  0  0
 27 21  1  0  0  0  0
 29 30  1  0  0  0  0
 29 28  1  1  0  0  0
 31 32  1  0  0  0  0
 32 33  1  0  0  0  0
 33 34  1  0  0  0  0
M  END
>  <MODEL>
4

>  <REMARK>
 VINA RESULT:      -8.5      3.542      5.525
  Name = 
  6 active torsions:
  status: ('A' for Active; 'I' for Inactive)
    1  A    between atoms: C_3  and  N_24
    2  A    between atoms: N_7  and  C_15
    3  A    between atoms: C_8  and  C_17
    4  A    between atoms: C_8  and  C_18
    5  A    between atoms: N_24  and  C_25
    6  A    between atoms: C_25  and  C_27
                            x       y       z     vdW  Elec       q    Type
                         _______ _______ _______ _____ _____    ______ ____

>  <TORSDO>
F 6

$$$$
=
 OpenBabel11052415433D

 34 38  0  0  1  0  0  0  0  0999 V2000
  185.5930  178.9800  140.3550 O   0  0  0  0  0  0  0  0  0  0  0  0
  182.5080  177.8980  136.7370 C   0  0  0  0  0  2  0  0  0  0  0  0
  184.9050  176.9900  136.8610 C   0  0  0  0  0  2  0  0  0  0  0  0
  185.4030  178.5360  139.1910 C   0  0  0  0  0  0  0  0  0  0  0  0
  188.2330  176.5050  137.9260 C   0  0  0  0  0  2  0  0  0  0  0  0
  187.3130  176.5320  136.7840 N   0  0  0  0  0  0  0  0  0  0  0  0
  187.6430  177.3460  139.0450 C   0  0  2  0  0  3  0  0  0  0  0  0
  186.3110  177.5540  137.0680 C   0  0  2  0  0  3  0  0  0  0  0  0
  186.4820  177.9540  138.4490 N   0  0  0  0  0  0  0  0  0  0  0  0
  188.0790  176.9950  135.6400 C   0  0  0  0  0  1  0  0  0  0  0  0
  181.6100  179.0600  137.1560 C   0  0  0  0  0  2  0  0  0  0  0  0
  181.6050  179.2270  138.6740 C   0  0  2  0  0  3  0  0  0  0  0  0
  183.8550  177.9270  137.4060 C   0  0  0  0  0  0  0  0  0  0  0  0
  183.0220  179.4980  139.1740 C   0  0  0  0  0  2  0  0  0  0  0  0
  184.0670  178.5930  138.5670 C   0  0  0  0  0  0  0  0  0  0  0  0
  188.6310  178.4230  139.4740 C   0  0  0  0  0  2  0  0  0  0  0  0
  187.4840  178.4450  142.0810 F   0  0  0  0  0  0  0  0  0  0  0  0
  191.4430  177.2180  141.7050 C   0  0  0  0  0  3  0  0  0  0  0  0
  189.5390  176.8540  145.4170 N   0  0  0  0  0  0  0  0  0  0  0  0
  188.8710  177.7450  144.4590 C   0  0  0  0  0  2  0  0  0  0  0  0
  189.4980  177.6470  143.0950 C   0  0  0  0  0  0  0  0  0  0  0  0
  189.3840  178.0030  140.6940 C   0  0  0  0  0  0  0  0  0  0  0  0
  191.6350  176.7920  144.1590 C   0  0  0  0  0  2  0  0  0  0  0  0
  190.8470  177.2560  142.9680 C   0  0  0  0  0  0  0  0  0  0  0  0
  190.9590  177.2040  145.4670 C   0  0  0  0  0  2  0  0  0  0  0  0
  190.7160  177.5940  140.5730 C   0  0  0  0  0  3  0  0  0  0  0  0
  188.7740  178.0360  141.9580 C   0  0  0  0  0  0  0  0  0  0  0  0
  187.6750  177.8010  146.7070 C   0  0  0  0  0  1  0  0  0  0  0  0
  188.9840  177.0330  146.7630 C   0  0  2  0  0  3  0  0  0  0  0  0
  189.8850  177.6770  147.6180 O   0  0  0  0  0  1  0  0  0  0  0  0
  181.0030  178.0210  139.3860 C   0  0  0  0  0  2  0  0  0  0  0  0
  179.6670  177.7560  138.8750 N   0  0  0  0  0  2  0  0  0  0  0  0
  179.5120  176.3120  138.8160 C   0  0  0  0  0  2  0  0  0  0  0  0
  180.8030  175.6380  139.2390 C   0  0  0  0  0  1  0  0  0  0  0  0
  2 11  1  0  0  0  0
  2 13  1  0  0  0  0
  3 13  1  0  0  0  0
  4  1  2  0  0  0  0
  5  7  1  0  0  0  0
  6  8  1  0  0  0  0
  6  5  1  0  0  0  0
  7 16  1  6  0  0  0
  8  3  1  1  0  0  0
  8  9  1  0  0  0  0
  9  7  1  0  0  0  0
  9  4  1  0  0  0  0
 10  6  1  0  0  0  0
 11 12  1  0  0  0  0
 12 14  1  0  0  0  0
 12 31  1  1  0  0  0
 13 15  2  0  0  0  0
 15 14  1  0  0  0  0
 15  4  1  0  0  0  0
 16 22  1  0  0  0  0
 18 24  1  0  0  0  0
 19 25  1  0  0  0  0
 19 29  1  0  0  0  0
 20 19  1  0  0  0  0
 21 20  1  0  0  0  0
 22 27  2  0  0  0  0
 23 25  1  0  0  0  0
 24 21  2  0  0  0  0
 24 23  1  0  0  0  0
 26 22  1  0  0  0  0
 26 18  2  0  0  0  0
 27 17  1  0  0  0  0
 27 21  1  0  0  0  0
 29 28  1  6  0  0  0
 29 30  1  0  0  0  0
 32 31  1  0  0  0  0
 33 32  1  0  0  0  0
 33 34  1  0  0  0  0
M  END
>  <MODEL>
5

>  <REMARK>
 VINA RESULT:      -8.5      3.605      5.578
  Name = 
  6 active torsions:
  status: ('A' for Active; 'I' for Inactive)
    1  A    between atoms: C_3  and  N_24
    2  A    between atoms: N_7  and  C_15
    3  A    between atoms: C_8  and  C_17
    4  A    between atoms: C_8  and  C_18
    5  A    between atoms: N_24  and  C_25
    6  A    between atoms: C_25  and  C_27
                            x       y       z     vdW  Elec       q    Type
                         _______ _______ _______ _____ _____    ______ ____

>  <TORSDO>
F 6

$$$$
=
 OpenBabel11052415433D

 34 38  0  0  1  0  0  0  0  0999 V2000
  182.7150  181.2620  139.3780 O   0  0  0  0  0  0  0  0  0  0  0  0
  179.7730  179.8360  135.7610 C   0  0  0  0  0  2  0  0  0  0  0  0
  180.6850  178.2340  137.5460 C   0  0  0  0  0  2  0  0  0  0  0  0
  182.2290  180.3300  138.6820 C   0  0  0  0  0  0  0  0  0  0  0  0
  182.5520  176.9990  140.2720 C   0  0  0  0  0  2  0  0  0  0  0  0
  181.9350  176.6860  138.9790 N   0  0  0  0  0  0  0  0  0  0  0  0
  182.8180  178.4940  140.3350 C   0  0  2  0  0  3  0  0  0  0  0  0
  182.0440  177.8840  138.1540 C   0  0  2  0  0  3  0  0  0  0  0  0
  182.4900  178.9610  139.0130 N   0  0  0  0  0  0  0  0  0  0  0  0
  182.7610  175.6660  138.3570 C   0  0  0  0  0  1  0  0  0  0  0  0
  180.0590  181.1380  135.0160 C   0  0  0  0  0  2  0  0  0  0  0  0
  180.2170  182.3030  135.9920 C   0  0  2  0  0  3  0  0  0  0  0  0
  180.7040  179.6060  136.9200 C   0  0  0  0  0  0  0  0  0  0  0  0
  181.3710  182.0240  136.9520 C   0  0  0  0  0  2  0  0  0  0  0  0
  181.3710  180.6240  137.5170 C   0  0  0  0  0  0  0  0  0  0  0  0
  184.2890  178.7560  140.6280 C   0  0  0  0  0  2  0  0  0  0  0  0
  186.7560  177.8370  141.7180 F   0  0  0  0  0  0  0  0  0  0  0  0
  183.7870  179.0520  144.3690 C   0  0  0  0  0  3  0  0  0  0  0  0
  187.5900  178.1180  145.8540 N   0  0  0  0  0  0  0  0  0  0  0  0
  187.3150  177.6320  144.4950 C   0  0  0  0  0  2  0  0  0  0  0  0
  186.0240  178.1930  143.9670 C   0  0  0  0  0  0  0  0  0  0  0  0
  184.5590  178.7070  142.0970 C   0  0  0  0  0  0  0  0  0  0  0  0
  185.2410  178.5830  146.3470 C   0  0  0  0  0  2  0  0  0  0  0  0
  185.0060  178.5820  144.8630 C   0  0  0  0  0  0  0  0  0  0  0  0
  186.4670  177.7490  146.7160 C   0  0  0  0  0  2  0  0  0  0  0  0
  183.5630  179.1100  142.9920 C   0  0  0  0  0  3  0  0  0  0  0  0
  185.7900  178.2410  142.5840 C   0  0  0  0  0  0  0  0  0  0  0  0
  188.9920  177.8560  147.8540 C   0  0  0  0  0  1  0  0  0  0  0  0
  188.7990  177.4860  146.3940 C   0  0  2  0  0  3  0  0  0  0  0  0
  189.9390  177.8260  145.6560 O   0  0  0  0  0  1  0  0  0  0  0  0
  178.9330  182.5910  136.7600 C   0  0  0  0  0  2  0  0  0  0  0  0
  179.2210  183.4150  137.9230 N   0  0  0  0  0  2  0  0  0  0  0  0
  178.9320  184.7900  137.5540 C   0  0  0  0  0  2  0  0  0  0  0  0
  179.6890  185.7380  138.4640 C   0  0  0  0  0  1  0  0  0  0  0  0
  2 13  1  0  0  0  0
  4  9  1  0  0  0  0
  4  1  2  0  0  0  0
  5  7  1  0  0  0  0
  6  5  1  0  0  0  0
  7 16  1  6  0  0  0
  8  3  1  1  0  0  0
  8  6  1  0  0  0  0
  8  9  1  0  0  0  0
  9  7  1  0  0  0  0
 10  6  1  0  0  0  0
 11  2  1  0  0  0  0
 11 12  1  0  0  0  0
 12 31  1  1  0  0  0
 12 14  1  0  0  0  0
 13 15  2  0  0  0  0
 13  3  1  0  0  0  0
 14 15  1  0  0  0  0
 15  4  1  0  0  0  0
 16 22  1  0  0  0  0
 17 27  1  0  0  0  0
 18 24  1  0  0  0  0
 19 29  1  0  0  0  0
 19 25  1  0  0  0  0
 20 19  1  0  0  0  0
 21 20  1  0  0  0  0
 21 24  2  0  0  0  0
 22 27  2  0  0  0  0
 22 26  1  0  0  0  0
 23 25  1  0  0  0  0
 24 23  1  0  0  0  0
 26 18  2  0  0  0  0
 27 21  1  0  0  0  0
 29 28  1  1  0  0  0
 30 29  1  0  0  0  0
 31 32  1  0  0  0  0
 33 32  1  0  0  0  0
 33 34  1  0  0  0  0
M  END
>  <MODEL>
6

>  <REMARK>
 VINA RESULT:      -8.5      1.955      2.899
  Name = 
  6 active torsions:
  status: ('A' for Active; 'I' for Inactive)
    1  A    between atoms: C_3  and  N_24
    2  A    between atoms: N_7  and  C_15
    3  A    between atoms: C_8  and  C_17
    4  A    between atoms: C_8  and  C_18
    5  A    between atoms: N_24  and  C_25
    6  A    between atoms: C_25  and  C_27
                            x       y       z     vdW  Elec       q    Type
                         _______ _______ _______ _____ _____    ______ ____

>  <TORSDO>
F 6

$$$$
=
 OpenBabel11052415433D

 34 38  0  0  1  0  0  0  0  0999 V2000
  187.1140  178.0300  138.3310 O   0  0  0  0  0  0  0  0  0  0  0  0
  190.9340  175.8720  136.2030 C   0  0  0  0  0  2  0  0  0  0  0  0
  190.6710  176.0760  138.7480 C   0  0  0  0  0  2  0  0  0  0  0  0
  188.2940  177.5940  138.4110 C   0  0  0  0  0  0  0  0  0  0  0  0
  189.4040  177.0230  141.9010 C   0  0  0  0  0  2  0  0  0  0  0  0
  190.6010  176.6980  141.1190 N   0  0  0  0  0  0  0  0  0  0  0  0
  188.3130  177.4860  140.9490 C   0  0  2  0  0  3  0  0  0  0  0  0
  190.3680  177.1800  139.7610 C   0  0  2  0  0  3  0  0  0  0  0  0
  188.9740  177.5600  139.6720 N   0  0  0  0  0  0  0  0  0  0  0  0
  191.6880  177.4890  141.6690 C   0  0  0  0  0  1  0  0  0  0  0  0
  190.5570  176.5190  134.8720 C   0  0  0  0  0  2  0  0  0  0  0  0
  189.0400  176.6080  134.7170 C   0  0  2  0  0  3  0  0  0  0  0  0
  190.1810  176.4490  137.3710 C   0  0  0  0  0  0  0  0  0  0  0  0
  188.4490  177.4410  135.8520 C   0  0  0  0  0  2  0  0  0  0  0  0
  189.0000  177.0960  137.2150 C   0  0  0  0  0  0  0  0  0  0  0  0
  187.8090  178.8650  141.3540 C   0  0  0  0  0  2  0  0  0  0  0  0
  185.2870  179.3530  140.1230 F   0  0  0  0  0  0  0  0  0  0  0  0
  185.3220  178.3580  144.1630 C   0  0  0  0  0  3  0  0  0  0  0  0
  181.6520  178.6490  142.1670 N   0  0  0  0  0  0  0  0  0  0  0  0
  182.7900  179.2690  141.4740 C   0  0  0  0  0  2  0  0  0  0  0  0
  184.0900  178.9310  142.1500 C   0  0  0  0  0  0  0  0  0  0  0  0
  186.5140  178.7650  142.0920 C   0  0  0  0  0  0  0  0  0  0  0  0
  182.8290  178.4730  144.3020 C   0  0  0  0  0  2  0  0  0  0  0  0
  184.1070  178.6180  143.5260 C   0  0  0  0  0  0  0  0  0  0  0  0
  181.6520  179.1010  143.5580 C   0  0  0  0  0  2  0  0  0  0  0  0
  186.5210  178.4350  143.4510 C   0  0  0  0  0  3  0  0  0  0  0  0
  185.2970  179.0200  141.4400 C   0  0  0  0  0  0  0  0  0  0  0  0
  180.4450  178.9290  140.0450 C   0  0  0  0  0  1  0  0  0  0  0  0
  180.3850  179.0670  141.5570 C   0  0  2  0  0  3  0  0  0  0  0  0
  180.0440  180.3790  141.9080 O   0  0  0  0  0  1  0  0  0  0  0  0
  188.3840  175.2340  134.6570 C   0  0  0  0  0  2  0  0  0  0  0  0
  186.9520  175.3550  134.8770 N   0  0  0  0  0  2  0  0  0  0  0  0
  186.5130  174.1240  135.5140 C   0  0  0  0  0  2  0  0  0  0  0  0
  187.2080  173.9600  136.8510 C   0  0  0  0  0  1  0  0  0  0  0  0
  1  4  2  0  0  0  0
  2 13  1  0  0  0  0
  4  9  1  0  0  0  0
  6 10  1  0  0  0  0
  6  5  1  0  0  0  0
  7 16  1  1  0  0  0
  7  5  1  0  0  0  0
  8  3  1  6  0  0  0
  8  6  1  0  0  0  0
  9  8  1  0  0  0  0
  9  7  1  0  0  0  0
 11  2  1  0  0  0  0
 12 31  1  1  0  0  0
 12 11  1  0  0  0  0
 12 14  1  0  0  0  0
 13  3  1  0  0  0  0
 14 15  1  0  0  0  0
 15 13  2  0  0  0  0
 15  4  1  0  0  0  0
 16 22  1  0  0  0  0
 17 27  1  0  0  0  0
 19 25  1  0  0  0  0
 20 21  1  0  0  0  0
 20 19  1  0  0  0  0
 21 24  2  0  0  0  0
 22 26  1  0  0  0  0
 24 18  1  0  0  0  0
 24 23  1  0  0  0  0
 25 23  1  0  0  0  0
 26 18  2  0  0  0  0
 27 22  2  0  0  0  0
 27 21  1  0  0  0  0
 29 28  1  6  0  0  0
 29 30  1  0  0  0  0
 29 19  1  0  0  0  0
 31 32  1  0  0  0  0
 32 33  1  0  0  0  0
 33 34  1  0  0  0  0
M  END
>  <MODEL>
7

>  <REMARK>
 VINA RESULT:      -8.3      5.341      8.639
  Name = 
  6 active torsions:
  status: ('A' for Active; 'I' for Inactive)
    1  A    between atoms: C_3  and  N_24
    2  A    between atoms: N_7  and  C_15
    3  A    between atoms: C_8  and  C_17
    4  A    between atoms: C_8  and  C_18
    5  A    between atoms: N_24  and  C_25
    6  A    between atoms: C_25  and  C_27
                            x       y       z     vdW  Elec       q    Type
                         _______ _______ _______ _____ _____    ______ ____

>  <TORSDO>
F 6

$$$$
=
 OpenBabel11052415433D

 34 38  0  0  1  0  0  0  0  0999 V2000
  187.0350  177.9290  139.6480 O   0  0  0  0  0  0  0  0  0  0  0  0
  186.5250  176.3000  135.0810 C   0  0  0  0  0  2  0  0  0  0  0  0
  188.6170  175.8680  136.5020 C   0  0  0  0  0  2  0  0  0  0  0  0
  187.5590  177.4650  138.6000 C   0  0  0  0  0  0  0  0  0  0  0  0
  190.9250  176.0210  139.1660 C   0  0  0  0  0  2  0  0  0  0  0  0
  190.7470  175.8790  137.7170 N   0  0  0  0  0  0  0  0  0  0  0  0
  189.7060  176.7270  139.7380 C   0  0  2  0  0  3  0  0  0  0  0  0
  189.5910  176.6890  137.3480 C   0  0  2  0  0  3  0  0  0  0  0  0
  188.9450  177.1050  138.5760 N   0  0  0  0  0  0  0  0  0  0  0  0
  191.9080  176.4880  137.0910 C   0  0  0  0  0  1  0  0  0  0  0  0
  185.3620  177.2670  134.8670 C   0  0  0  0  0  2  0  0  0  0  0  0
  184.5360  177.4200  136.1430 C   0  0  2  0  0  3  0  0  0  0  0  0
  187.2980  176.5820  136.3400 C   0  0  0  0  0  0  0  0  0  0  0  0
  185.4160  177.9530  137.2710 C   0  0  0  0  0  2  0  0  0  0  0  0
  186.7570  177.2690  137.3760 C   0  0  0  0  0  0  0  0  0  0  0  0
  190.1300  177.9700  140.5090 C   0  0  0  0  0  2  0  0  0  0  0  0
  188.0530  178.3860  142.4140 F   0  0  0  0  0  0  0  0  0  0  0  0
  191.6900  176.9050  143.7910 C   0  0  0  0  0  3  0  0  0  0  0  0
  188.4460  177.1220  146.4300 N   0  0  0  0  0  0  0  0  0  0  0  0
  188.3060  177.9200  145.2040 C   0  0  0  0  0  2  0  0  0  0  0  0
  189.4080  177.6140  144.2270 C   0  0  0  0  0  0  0  0  0  0  0  0
  190.2910  177.6680  141.9640 C   0  0  0  0  0  0  0  0  0  0  0  0
  190.8500  176.7860  146.1410 C   0  0  0  0  0  2  0  0  0  0  0  0
  190.6510  177.1370  144.6950 C   0  0  0  0  0  0  0  0  0  0  0  0
  189.7580  177.3970  147.0170 C   0  0  0  0  0  2  0  0  0  0  0  0
  191.5130  177.1740  142.4320 C   0  0  0  0  0  3  0  0  0  0  0  0
  189.2370  177.8950  142.8630 C   0  0  0  0  0  0  0  0  0  0  0  0
  186.4040  178.4400  146.7930 C   0  0  0  0  0  1  0  0  0  0  0  0
  187.4240  177.5010  147.4130 C   0  0  2  0  0  3  0  0  0  0  0  0
  187.9880  178.0870  148.5530 O   0  0  0  0  0  1  0  0  0  0  0  0
  183.8620  176.1160  136.5540 C   0  0  0  0  0  2  0  0  0  0  0  0
  183.0590  175.6020  135.4560 N   0  0  0  0  0  2  0  0  0  0  0  0
  183.3900  174.1940  135.3090 C   0  0  0  0  0  2  0  0  0  0  0  0
  183.9990  173.6710  136.5950 C   0  0  0  0  0  1  0  0  0  0  0  0
  2 13  1  0  0  0  0
  4  1  2  0  0  0  0
  5  7  1  0  0  0  0
  6  5  1  0  0  0  0
  7 16  1  6  0  0  0
  8  3  1  6  0  0  0
  8  6  1  0  0  0  0
  8  9  1  0  0  0  0
  9  4  1  0  0  0  0
  9  7  1  0  0  0  0
 10  6  1  0  0  0  0
 11  2  1  0  0  0  0
 11 12  1  0  0  0  0
 12 31  1  1  0  0  0
 12 14  1  0  0  0  0
 13  3  1  0  0  0  0
 13 15  2  0  0  0  0
 14 15  1  0  0  0  0
 15  4  1  0  0  0  0
 16 22  1  0  0  0  0
 17 27  1  0  0  0  0
 18 24  1  0  0  0  0
 19 25  1  0  0  0  0
 19 29  1  0  0  0  0
 20 19  1  0  0  0  0
 21 24  2  0  0  0  0
 21 20  1  0  0  0  0
 22 26  1  0  0  0  0
 22 27  2  0  0  0  0
 23 25  1  0  0  0  0
 24 23  1  0  0  0  0
 26 18  2  0  0  0  0
 27 21  1  0  0  0  0
 29 28  1  6  0  0  0
 29 30  1  0  0  0  0
 32 31  1  0  0  0  0
 33 32  1  0  0  0  0
 33 34  1  0  0  0  0
M  END
>  <MODEL>
8

>  <REMARK>
 VINA RESULT:      -8.1      4.915      7.079
  Name = 
  6 active torsions:
  status: ('A' for Active; 'I' for Inactive)
    1  A    between atoms: C_3  and  N_24
    2  A    between atoms: N_7  and  C_15
    3  A    between atoms: C_8  and  C_17
    4  A    between atoms: C_8  and  C_18
    5  A    between atoms: N_24  and  C_25
    6  A    between atoms: C_25  and  C_27
                            x       y       z     vdW  Elec       q    Type
                         _______ _______ _______ _____ _____    ______ ____

>  <TORSDO>
F 6

$$$$
=
 OpenBabel11052415433D

 34 38  0  0  1  0  0  0  0  0999 V2000
  184.9380  178.0100  141.3150 O   0  0  0  0  0  0  0  0  0  0  0  0
  184.2220  178.9810  146.0400 C   0  0  0  0  0  2  0  0  0  0  0  0
  182.3060  178.6300  144.3690 C   0  0  0  0  0  2  0  0  0  0  0  0
  184.1670  178.3880  142.2380 C   0  0  0  0  0  0  0  0  0  0  0  0
  180.5820  178.1540  141.3290 C   0  0  0  0  0  2  0  0  0  0  0  0
  180.5420  178.7460  142.6700 N   0  0  0  0  0  0  0  0  0  0  0  0
  182.0350  177.9700  140.9220 C   0  0  2  0  0  3  0  0  0  0  0  0
  181.9030  179.1610  142.9930 C   0  0  2  0  0  3  0  0  0  0  0  0
  182.7760  178.6090  141.9790 N   0  0  0  0  0  0  0  0  0  0  0  0
  179.7420  179.9550  142.5700 C   0  0  0  0  0  1  0  0  0  0  0  0
  185.6760  179.4320  146.1660 C   0  0  0  0  0  2  0  0  0  0  0  0
  186.5900  178.5880  145.2810 C   0  0  2  0  0  3  0  0  0  0  0  0
  183.7840  178.8060  144.6110 C   0  0  0  0  0  0  0  0  0  0  0  0
  186.1630  178.7140  143.8210 C   0  0  0  0  0  2  0  0  0  0  0  0
  184.6730  178.6010  143.6080 C   0  0  0  0  0  0  0  0  0  0  0  0
  182.3050  178.6730  139.5990 C   0  0  0  0  0  2  0  0  0  0  0  0
  184.8320  179.6600  138.7280 F   0  0  0  0  0  0  0  0  0  0  0  0
  183.7170  175.8340  137.5290 C   0  0  0  0  0  3  0  0  0  0  0  0
  187.5870  177.1910  136.6800 N   0  0  0  0  0  0  0  0  0  0  0  0
  186.6250  178.2400  137.0450 C   0  0  0  0  0  2  0  0  0  0  0  0
  185.3340  177.6470  137.5380 C   0  0  0  0  0  0  0  0  0  0  0  0
  183.2390  177.8740  138.7500 C   0  0  0  0  0  0  0  0  0  0  0  0
  185.8610  175.5060  136.2870 C   0  0  0  0  0  2  0  0  0  0  0  0
  184.9420  176.3610  137.1120 C   0  0  0  0  0  0  0  0  0  0  0  0
  186.9800  176.3360  135.6600 C   0  0  0  0  0  2  0  0  0  0  0  0
  182.8670  176.5890  138.3400 C   0  0  0  0  0  3  0  0  0  0  0  0
  184.4720  178.4080  138.3440 C   0  0  0  0  0  0  0  0  0  0  0  0
  189.2710  176.9850  134.9020 C   0  0  0  0  0  1  0  0  0  0  0  0
  188.8030  177.7810  136.1080 C   0  0  2  0  0  3  0  0  0  0  0  0
  189.8320  177.8740  137.0530 O   0  0  0  0  0  1  0  0  0  0  0  0
  186.6190  177.1260  145.7110 C   0  0  0  0  0  2  0  0  0  0  0  0
  187.1120  177.0160  147.0750 N   0  0  0  0  0  2  0  0  0  0  0  0
  188.5550  177.1780  147.0210 C   0  0  0  0  0  2  0  0  0  0  0  0
  189.0130  178.0820  148.1500 C   0  0  0  0  0  1  0  0  0  0  0  0
  1  4  2  0  0  0  0
  2 11  1  0  0  0  0
  3 13  1  0  0  0  0
  4 15  1  0  0  0  0
  5  6  1  0  0  0  0
  6  8  1  0  0  0  0
  7 16  1  6  0  0  0
  7  5  1  0  0  0  0
  7  9  1  0  0  0  0
  8  3  1  1  0  0  0
  9  4  1  0  0  0  0
  9  8  1  0  0  0  0
 10  6  1  0  0  0  0
 12 31  1  1  0  0  0
 12 11  1  0  0  0  0
 13  2  1  0  0  0  0
 14 12  1  0  0  0  0
 15 14  1  0  0  0  0
 15 13  2  0  0  0  0
 18 26  1  0  0  0  0
 19 20  1  0  0  0  0
 20 21  1  0  0  0  0
 21 27  2  0  0  0  0
 22 16  1  0  0  0  0
 23 24  1  0  0  0  0
 24 18  2  0  0  0  0
 24 21  1  0  0  0  0
 25 23  1  0  0  0  0
 25 19  1  0  0  0  0
 26 22  2  0  0  0  0
 27 17  1  0  0  0  0
 27 22  1  0  0  0  0
 29 28  1  6  0  0  0
 29 19  1  0  0  0  0
 29 30  1  0  0  0  0
 31 32  1  0  0  0  0
 33 32  1  0  0  0  0
 33 34  1  0  0  0  0
M  END
>  <MODEL>
9

>  <REMARK>
 VINA RESULT:      -8.0      3.740      8.442
  Name = 
  6 active torsions:
  status: ('A' for Active; 'I' for Inactive)
    1  A    between atoms: C_3  and  N_24
    2  A    between atoms: N_7  and  C_15
    3  A    between atoms: C_8  and  C_17
    4  A    between atoms: C_8  and  C_18
    5  A    between atoms: N_24  and  C_25
    6  A    between atoms: C_25  and  C_27
                            x       y       z     vdW  Elec       q    Type
                         _______ _______ _______ _____ _____    ______ ____

>  <TORSDO>
F 6

$$$$
