=
 OpenBabel11052413343D

 28 32  0  0  0  0  0  0  0  0999 V2000
  186.3930  178.3120  142.4010 C   0  0  0  0  0  0  0  0  0  0  0  0
  190.3280  176.8110  145.2460 C   0  0  0  0  0  3  0  0  0  0  0  0
  184.7290  178.5170  146.9800 O   0  0  0  0  0  1  0  0  0  0  0  0
  189.6850  177.3730  147.5480 C   0  0  0  0  0  0  0  0  0  0  0  0
  188.0570  177.6540  145.6170 C   0  0  0  0  0  0  0  0  0  0  0  0
  191.8950  176.4270  147.1700 C   0  0  0  0  0  0  0  0  0  0  0  0
  189.3990  177.2680  146.0980 C   0  0  0  0  0  0  0  0  0  0  0  0
  187.2490  177.6470  148.0140 C   0  0  0  0  0  2  0  0  0  0  0  0
  190.8580  176.9830  148.0480 C   0  0  0  0  0  3  0  0  0  0  0  0
  185.5470  178.4330  144.7000 C   0  0  0  0  0  0  0  0  0  0  0  0
  187.8170  177.7960  144.2840 N   0  0  0  0  0  0  0  0  0  0  0  0
  188.6710  178.0070  148.4490 C   0  0  0  0  0  2  0  0  0  0  0  0
  184.0950  178.9990  142.8450 C   0  0  0  0  0  3  0  0  0  0  0  0
  185.7640  178.2850  146.0770 C   0  0  0  0  0  0  0  0  0  0  0  0
  184.3000  178.8440  144.2150 C   0  0  0  0  0  3  0  0  0  0  0  0
  192.9640  175.9930  147.6710 O   0  0  0  0  0  0  0  0  0  0  0  0
  191.7120  176.4040  145.6780 C   0  0  0  0  0  2  0  0  0  0  0  0
  187.0280  177.9010  146.5440 C   0  0  0  0  0  0  0  0  0  0  0  0
  185.1320  178.7380  141.9500 C   0  0  0  0  0  3  0  0  0  0  0  0
  186.6020  178.1660  143.7950 C   0  0  0  0  0  0  0  0  0  0  0  0
  187.4590  178.0310  141.4000 C   0  0  0  0  0  0  0  0  0  0  0  0
  187.3250  178.4940  140.1480 C   0  0  0  0  0  3  0  0  0  0  0  0
  189.5840  177.5470  139.5060 C   0  0  0  0  0  0  0  0  0  0  0  0
  188.6230  177.1290  141.7670 C   0  0  0  0  0  2  0  0  0  0  0  0
  188.1710  178.6390  137.9460 O   0  0  0  0  0  0  0  0  0  0  0  0
  188.3460  178.2380  139.1270 C   0  0  0  0  0  0  0  0  0  0  0  0
  190.6210  177.4130  138.5900 O   0  0  0  0  0  1  0  0  0  0  0  0
  189.7250  177.0620  140.7380 C   0  0  0  0  0  3  0  0  0  0  0  0
  1 20  1  0  0  0  0
  2 17  1  0  0  0  0
  2  7  2  0  0  0  0
  4  9  2  0  0  0  0
  4 12  1  0  0  0  0
  5  7  1  0  0  0  0
  5 18  1  0  0  0  0
  6 16  2  0  0  0  0
  6  9  1  0  0  0  0
  7  4  1  0  0  0  0
  8 12  1  0  0  0  0
 10 14  1  0  0  0  0
 11  5  2  0  0  0  0
 13 15  2  0  0  0  0
 14 18  2  0  0  0  0
 14  3  1  0  0  0  0
 15 10  1  0  0  0  0
 17  6  1  0  0  0  0
 18  8  1  0  0  0  0
 19  1  2  0  0  0  0
 19 13  1  0  0  0  0
 20 11  1  0  0  0  0
 20 10  2  0  0  0  0
 21 24  1  0  0  0  0
 21  1  1  0  0  0  0
 22 21  2  0  0  0  0
 23 28  2  0  0  0  0
 25 26  2  0  0  0  0
 26 23  1  0  0  0  0
 26 22  1  0  0  0  0
 27 23  1  0  0  0  0
 28 24  1  0  0  0  0
M  END
>  <MODEL>
1

>  <REMARK>
 VINA RESULT:     -12.2      0.000      0.000
  Name = 
  1 active torsions:
  status: ('A' for Active; 'I' for Inactive)
    1  A    between atoms: C_1  and  C_2
                            x       y       z     vdW  Elec       q    Type
                         _______ _______ _______ _____ _____    ______ ____

>  <TORSDO>
F 1

$$$$
=
 OpenBabel11052413343D

 28 32  0  0  0  0  0  0  0  0999 V2000
  186.7310  178.0700  145.7520 C   0  0  0  0  0  0  0  0  0  0  0  0
  188.4280  177.4970  140.9960 C   0  0  0  0  0  3  0  0  0  0  0  0
  191.4190  176.8340  146.2760 O   0  0  0  0  0  1  0  0  0  0  0  0
  190.8700  177.3650  141.2150 C   0  0  0  0  0  0  0  0  0  0  0  0
  189.3620  177.4290  143.2600 C   0  0  0  0  0  0  0  0  0  0  0  0
  189.9120  177.3170  138.9790 C   0  0  0  0  0  0  0  0  0  0  0  0
  189.5060  177.4410  141.7910 C   0  0  0  0  0  0  0  0  0  0  0  0
  191.7770  176.6990  143.4420 C   0  0  0  0  0  2  0  0  0  0  0  0
  191.0580  177.3120  139.8970 C   0  0  0  0  0  3  0  0  0  0  0  0
  189.0910  177.4620  146.0310 C   0  0  0  0  0  0  0  0  0  0  0  0
  188.1660  177.7270  143.8380 N   0  0  0  0  0  0  0  0  0  0  0  0
  192.0540  177.4340  142.1290 C   0  0  0  0  0  2  0  0  0  0  0  0
  187.7010  177.8360  147.9790 C   0  0  0  0  0  3  0  0  0  0  0  0
  190.3320  177.1420  145.4610 C   0  0  0  0  0  0  0  0  0  0  0  0
  188.9340  177.5070  147.4200 C   0  0  0  0  0  3  0  0  0  0  0  0
  190.1070  177.1880  137.7420 O   0  0  0  0  0  0  0  0  0  0  0  0
  188.5130  177.5130  139.4920 C   0  0  0  0  0  2  0  0  0  0  0  0
  190.4750  177.1320  144.0680 C   0  0  0  0  0  0  0  0  0  0  0  0
  186.6130  178.1160  147.1520 C   0  0  0  0  0  3  0  0  0  0  0  0
  187.9890  177.7460  145.1870 C   0  0  0  0  0  0  0  0  0  0  0  0
  185.5330  178.3620  144.9180 C   0  0  0  0  0  0  0  0  0  0  0  0
  185.6140  178.2440  143.5840 C   0  0  0  0  0  3  0  0  0  0  0  0
  183.1670  178.8470  143.3340 C   0  0  0  0  0  0  0  0  0  0  0  0
  184.2720  178.9020  145.5680 C   0  0  0  0  0  2  0  0  0  0  0  0
  184.5790  178.4570  141.4700 O   0  0  0  0  0  0  0  0  0  0  0  0
  184.4620  178.5250  142.7220 C   0  0  0  0  0  0  0  0  0  0  0  0
  182.0320  178.9840  142.5450 O   0  0  0  0  0  1  0  0  0  0  0  0
  183.0730  178.9900  144.6550 C   0  0  0  0  0  3  0  0  0  0  0  0
  1 19  1  0  0  0  0
  2  7  2  0  0  0  0
  4  7  1  0  0  0  0
  4 12  1  0  0  0  0
  5 11  2  0  0  0  0
  5 18  1  0  0  0  0
  6 17  1  0  0  0  0
  6  9  1  0  0  0  0
  7  5  1  0  0  0  0
  8 18  1  0  0  0  0
  9  4  2  0  0  0  0
 10 15  2  0  0  0  0
 11 20  1  0  0  0  0
 12  8  1  0  0  0  0
 14 10  1  0  0  0  0
 14  3  1  0  0  0  0
 15 13  1  0  0  0  0
 16  6  2  0  0  0  0
 17  2  1  0  0  0  0
 18 14  2  0  0  0  0
 19 13  2  0  0  0  0
 20  1  2  0  0  0  0
 20 10  1  0  0  0  0
 21 24  1  0  0  0  0
 21  1  1  0  0  0  0
 22 21  2  0  0  0  0
 23 28  2  0  0  0  0
 25 26  2  0  0  0  0
 26 23  1  0  0  0  0
 26 22  1  0  0  0  0
 27 23  1  0  0  0  0
 28 24  1  0  0  0  0
M  END
>  <MODEL>
2

>  <REMARK>
 VINA RESULT:     -12.2      1.807      6.088
  Name = 
  1 active torsions:
  status: ('A' for Active; 'I' for Inactive)
    1  A    between atoms: C_1  and  C_2
                            x       y       z     vdW  Elec       q    Type
                         _______ _______ _______ _____ _____    ______ ____

>  <TORSDO>
F 1

$$$$
=
 OpenBabel11052413343D

 28 32  0  0  0  0  0  0  0  0999 V2000
  190.4190  177.0550  144.3910 C   0  0  0  0  0  0  0  0  0  0  0  0
  185.7310  178.5590  143.1320 C   0  0  0  0  0  3  0  0  0  0  0  0
  188.1850  177.7720  148.6660 O   0  0  0  0  0  1  0  0  0  0  0  0
  184.4550  178.4470  145.2270 C   0  0  0  0  0  0  0  0  0  0  0  0
  186.9630  178.0380  145.1850 C   0  0  0  0  0  0  0  0  0  0  0  0
  183.2740  179.0750  143.1940 C   0  0  0  0  0  0  0  0  0  0  0  0
  185.7170  178.3490  144.4560 C   0  0  0  0  0  0  0  0  0  0  0  0
  185.7560  178.5180  147.3550 C   0  0  0  0  0  2  0  0  0  0  0  0
  183.3100  178.7830  144.6330 C   0  0  0  0  0  3  0  0  0  0  0  0
  189.3050  177.3990  146.5480 C   0  0  0  0  0  0  0  0  0  0  0  0
  188.0960  177.7100  144.5050 N   0  0  0  0  0  0  0  0  0  0  0  0
  184.4550  178.0800  146.6790 C   0  0  0  0  0  2  0  0  0  0  0  0
  191.6240  176.7020  146.4830 C   0  0  0  0  0  3  0  0  0  0  0  0
  188.1540  177.7420  147.2730 C   0  0  0  0  0  0  0  0  0  0  0  0
  190.4880  177.0520  147.2100 C   0  0  0  0  0  3  0  0  0  0  0  0
  182.2000  179.4650  142.6670 O   0  0  0  0  0  0  0  0  0  0  0  0
  184.4920  178.8780  142.3360 C   0  0  0  0  0  2  0  0  0  0  0  0
  186.9720  178.0560  146.5920 C   0  0  0  0  0  0  0  0  0  0  0  0
  191.5870  176.7030  145.0890 C   0  0  0  0  0  3  0  0  0  0  0  0
  189.2630  177.4000  145.1330 C   0  0  0  0  0  0  0  0  0  0  0  0
  190.4420  177.0540  142.9020 C   0  0  0  0  0  0  0  0  0  0  0  0
  191.6020  177.2630  142.2610 C   0  0  0  0  0  3  0  0  0  0  0  0
  190.4700  176.9570  140.0160 C   0  0  0  0  0  0  0  0  0  0  0  0
  189.1430  176.9390  142.1250 C   0  0  0  0  0  2  0  0  0  0  0  0
  192.7630  177.5250  140.2200 O   0  0  0  0  0  0  0  0  0  0  0  0
  191.6720  177.2750  140.7960 C   0  0  0  0  0  0  0  0  0  0  0  0
  190.5430  176.8300  138.6340 O   0  0  0  0  0  1  0  0  0  0  0  0
  189.3050  176.7690  140.6350 C   0  0  0  0  0  3  0  0  0  0  0  0
  1 19  2  0  0  0  0
  1 20  1  0  0  0  0
  2  7  2  0  0  0  0
  4 12  1  0  0  0  0
  5 18  1  0  0  0  0
  6  9  1  0  0  0  0
  7  5  1  0  0  0  0
  7  4  1  0  0  0  0
  9  4  2  0  0  0  0
 10 15  1  0  0  0  0
 10 14  1  0  0  0  0
 11 20  1  0  0  0  0
 11  5  2  0  0  0  0
 12  8  1  0  0  0  0
 13 15  2  0  0  0  0
 14  3  1  0  0  0  0
 16  6  2  0  0  0  0
 17  2  1  0  0  0  0
 17  6  1  0  0  0  0
 18 14  2  0  0  0  0
 18  8  1  0  0  0  0
 19 13  1  0  0  0  0
 20 10  2  0  0  0  0
 21  1  1  0  0  0  0
 22 21  2  0  0  0  0
 23 28  2  0  0  0  0
 23 26  1  0  0  0  0
 24 21  1  0  0  0  0
 25 26  2  0  0  0  0
 26 22  1  0  0  0  0
 27 23  1  0  0  0  0
 28 24  1  0  0  0  0
M  END
>  <MODEL>
3

>  <REMARK>
 VINA RESULT:     -12.0      1.753      5.452
  Name = 
  1 active torsions:
  status: ('A' for Active; 'I' for Inactive)
    1  A    between atoms: C_1  and  C_2
                            x       y       z     vdW  Elec       q    Type
                         _______ _______ _______ _____ _____    ______ ____

>  <TORSDO>
F 1

$$$$
=
 OpenBabel11052413343D

 28 32  0  0  0  0  0  0  0  0999 V2000
  185.3310  178.4190  144.5300 C   0  0  0  0  0  0  0  0  0  0  0  0
  188.8830  177.4460  141.0280 C   0  0  0  0  0  3  0  0  0  0  0  0
  189.3340  177.3850  147.1160 O   0  0  0  0  0  1  0  0  0  0  0  0
  190.9980  177.4110  142.2750 C   0  0  0  0  0  0  0  0  0  0  0  0
  188.7640  177.6240  143.4690 C   0  0  0  0  0  0  0  0  0  0  0  0
  191.0820  177.1210  139.8610 C   0  0  0  0  0  0  0  0  0  0  0  0
  189.5200  177.5000  142.2070 C   0  0  0  0  0  0  0  0  0  0  0  0
  190.8620  176.9910  144.7310 C   0  0  0  0  0  2  0  0  0  0  0  0
  191.7280  177.2390  141.1750 C   0  0  0  0  0  3  0  0  0  0  0  0
  187.3390  177.9140  145.8440 C   0  0  0  0  0  0  0  0  0  0  0  0
  187.4390  177.9400  143.4520 N   0  0  0  0  0  0  0  0  0  0  0  0
  191.6810  177.6050  143.5940 C   0  0  0  0  0  2  0  0  0  0  0  0
  185.2570  178.4290  146.9680 C   0  0  0  0  0  3  0  0  0  0  0  0
  188.7010  177.5800  145.8900 C   0  0  0  0  0  0  0  0  0  0  0  0
  186.6070  178.0870  147.0230 C   0  0  0  0  0  3  0  0  0  0  0  0
  191.7840  176.8810  138.8440 O   0  0  0  0  0  0  0  0  0  0  0  0
  189.6000  177.3210  139.7090 C   0  0  0  0  0  2  0  0  0  0  0  0
  189.4230  177.4410  144.6980 C   0  0  0  0  0  0  0  0  0  0  0  0
  184.6280  178.5940  145.7350 C   0  0  0  0  0  3  0  0  0  0  0  0
  186.7050  178.0820  144.5880 C   0  0  0  0  0  0  0  0  0  0  0  0
  184.6050  178.5920  143.2410 C   0  0  0  0  0  0  0  0  0  0  0  0
  185.3020  178.8210  142.1190 C   0  0  0  0  0  3  0  0  0  0  0  0
  183.1750  178.8340  140.7440 C   0  0  0  0  0  0  0  0  0  0  0  0
  183.0880  178.6280  143.2260 C   0  0  0  0  0  2  0  0  0  0  0  0
  185.3060  179.2680  139.7980 O   0  0  0  0  0  0  0  0  0  0  0  0
  184.6310  179.0030  140.8280 C   0  0  0  0  0  0  0  0  0  0  0  0
  182.5340  178.8680  139.5120 O   0  0  0  0  0  1  0  0  0  0  0  0
  182.4650  178.6280  141.8520 C   0  0  0  0  0  3  0  0  0  0  0  0
  1 20  2  0  0  0  0
  1 19  1  0  0  0  0
  2  7  2  0  0  0  0
  4 12  1  0  0  0  0
  5 18  1  0  0  0  0
  6  9  1  0  0  0  0
  7  4  1  0  0  0  0
  7  5  1  0  0  0  0
  9  4  2  0  0  0  0
 10 14  1  0  0  0  0
 10 15  2  0  0  0  0
 11  5  2  0  0  0  0
 11 20  1  0  0  0  0
 12  8  1  0  0  0  0
 13 15  1  0  0  0  0
 14  3  1  0  0  0  0
 16  6  2  0  0  0  0
 17  6  1  0  0  0  0
 17  2  1  0  0  0  0
 18  8  1  0  0  0  0
 18 14  2  0  0  0  0
 19 13  2  0  0  0  0
 20 10  1  0  0  0  0
 21  1  1  0  0  0  0
 22 21  2  0  0  0  0
 23 26  1  0  0  0  0
 23 28  2  0  0  0  0
 24 21  1  0  0  0  0
 25 26  2  0  0  0  0
 26 22  1  0  0  0  0
 27 23  1  0  0  0  0
 28 24  1  0  0  0  0
M  END
>  <MODEL>
4

>  <REMARK>
 VINA RESULT:     -11.9      1.936      5.015
  Name = 
  1 active torsions:
  status: ('A' for Active; 'I' for Inactive)
    1  A    between atoms: C_1  and  C_2
                            x       y       z     vdW  Elec       q    Type
                         _______ _______ _______ _____ _____    ______ ____

>  <TORSDO>
F 1

$$$$
=
 OpenBabel11052413343D

 28 32  0  0  0  0  0  0  0  0999 V2000
  188.9470  177.6920  145.3920 C   0  0  0  0  0  0  0  0  0  0  0  0
  185.9770  178.7670  141.4110 C   0  0  0  0  0  3  0  0  0  0  0  0
  184.5550  178.5210  147.3430 O   0  0  0  0  0  1  0  0  0  0  0  0
  183.6890  178.7000  142.3020 C   0  0  0  0  0  0  0  0  0  0  0  0
  185.7080  178.4720  143.8290 C   0  0  0  0  0  0  0  0  0  0  0  0
  183.9840  179.1070  139.9210 C   0  0  0  0  0  0  0  0  0  0  0  0
  185.1610  178.6430  142.4680 C   0  0  0  0  0  0  0  0  0  0  0  0
  183.4190  179.0030  144.7640 C   0  0  0  0  0  2  0  0  0  0  0  0
  183.1400  178.9130  141.1070 C   0  0  0  0  0  3  0  0  0  0  0  0
  186.7410  178.0930  146.3870 C   0  0  0  0  0  0  0  0  0  0  0  0
  187.0260  178.1830  144.0110 N   0  0  0  0  0  0  0  0  0  0  0  0
  182.8090  178.4290  143.4830 C   0  0  0  0  0  2  0  0  0  0  0  0
  188.6300  177.5640  147.8080 C   0  0  0  0  0  3  0  0  0  0  0  0
  185.3810  178.3990  146.2280 C   0  0  0  0  0  0  0  0  0  0  0  0
  187.2800  177.8770  147.6590 C   0  0  0  0  0  3  0  0  0  0  0  0
  183.4480  179.3840  138.8170 O   0  0  0  0  0  0  0  0  0  0  0  0
  185.4760  178.9430  140.0010 C   0  0  0  0  0  2  0  0  0  0  0  0
  184.8560  178.5820  144.9430 C   0  0  0  0  0  0  0  0  0  0  0  0
  189.4520  177.4710  146.6850 C   0  0  0  0  0  3  0  0  0  0  0  0
  187.5720  178.0000  145.2440 C   0  0  0  0  0  0  0  0  0  0  0  0
  189.8740  177.5960  144.2310 C   0  0  0  0  0  0  0  0  0  0  0  0
  189.5190  176.8650  143.1640 C   0  0  0  0  0  3  0  0  0  0  0  0
  191.6530  177.5020  141.9580 C   0  0  0  0  0  0  0  0  0  0  0  0
  191.2540  178.2220  144.3110 C   0  0  0  0  0  2  0  0  0  0  0  0
  190.0660  176.0030  141.0330 O   0  0  0  0  0  0  0  0  0  0  0  0
  190.4010  176.7370  142.0000 C   0  0  0  0  0  0  0  0  0  0  0  0
  192.4380  177.5030  140.8120 O   0  0  0  0  0  1  0  0  0  0  0  0
  192.0320  178.2150  143.0170 C   0  0  0  0  0  3  0  0  0  0  0  0
  1 19  1  0  0  0  0
  2  7  2  0  0  0  0
  4  7  1  0  0  0  0
  4 12  1  0  0  0  0
  5 11  2  0  0  0  0
  5 18  1  0  0  0  0
  6 17  1  0  0  0  0
  6  9  1  0  0  0  0
  7  5  1  0  0  0  0
  8 18  1  0  0  0  0
  9  4  2  0  0  0  0
 10 15  2  0  0  0  0
 11 20  1  0  0  0  0
 12  8  1  0  0  0  0
 14 10  1  0  0  0  0
 14  3  1  0  0  0  0
 15 13  1  0  0  0  0
 16  6  2  0  0  0  0
 17  2  1  0  0  0  0
 18 14  2  0  0  0  0
 19 13  2  0  0  0  0
 20  1  2  0  0  0  0
 20 10  1  0  0  0  0
 21 24  1  0  0  0  0
 21  1  1  0  0  0  0
 22 21  2  0  0  0  0
 23 26  1  0  0  0  0
 23 28  2  0  0  0  0
 25 26  2  0  0  0  0
 26 22  1  0  0  0  0
 27 23  1  0  0  0  0
 28 24  1  0  0  0  0
M  END
>  <MODEL>
5

>  <REMARK>
 VINA RESULT:     -11.9      2.180      5.908
  Name = 
  1 active torsions:
  status: ('A' for Active; 'I' for Inactive)
    1  A    between atoms: C_1  and  C_2
                            x       y       z     vdW  Elec       q    Type
                         _______ _______ _______ _____ _____    ______ ____

>  <TORSDO>
F 1

$$$$
=
 OpenBabel11052413343D

 28 32  0  0  0  0  0  0  0  0999 V2000
  189.9870  177.1990  143.1820 C   0  0  0  0  0  0  0  0  0  0  0  0
  185.1380  178.6860  142.8680 C   0  0  0  0  0  3  0  0  0  0  0  0
  188.6260  177.8880  147.8140 O   0  0  0  0  0  1  0  0  0  0  0  0
  184.2950  178.5610  145.1710 C   0  0  0  0  0  0  0  0  0  0  0  0
  186.7480  178.1630  144.6390 C   0  0  0  0  0  0  0  0  0  0  0  0
  182.7390  179.1910  143.4100 C   0  0  0  0  0  0  0  0  0  0  0  0
  185.3830  178.4710  144.1690 C   0  0  0  0  0  0  0  0  0  0  0  0
  185.9860  178.6280  147.0050 C   0  0  0  0  0  2  0  0  0  0  0  0
  183.0560  178.8930  144.8130 C   0  0  0  0  0  3  0  0  0  0  0  0
  189.3130  177.5290  145.5170 C   0  0  0  0  0  0  0  0  0  0  0  0
  187.7290  177.8430  143.7500 N   0  0  0  0  0  0  0  0  0  0  0  0
  184.5790  178.1880  146.5930 C   0  0  0  0  0  2  0  0  0  0  0  0
  191.5780  176.8430  144.9980 C   0  0  0  0  0  3  0  0  0  0  0  0
  188.3250  177.8640  146.4540 C   0  0  0  0  0  0  0  0  0  0  0  0
  190.6030  177.1850  145.9340 C   0  0  0  0  0  3  0  0  0  0  0  0
  181.5810  179.5780  143.1050 O   0  0  0  0  0  0  0  0  0  0  0  0
  183.7670  179.0030  142.3300 C   0  0  0  0  0  2  0  0  0  0  0  0
  187.0310  178.1760  146.0170 C   0  0  0  0  0  0  0  0  0  0  0  0
  191.2700  176.8490  143.6370 C   0  0  0  0  0  3  0  0  0  0  0  0
  188.9960  177.5360  144.1370 C   0  0  0  0  0  0  0  0  0  0  0  0
  189.7190  177.2040  141.7170 C   0  0  0  0  0  0  0  0  0  0  0  0
  190.4350  176.4030  140.9140 C   0  0  0  0  0  3  0  0  0  0  0  0
  189.1150  177.1710  138.8940 C   0  0  0  0  0  0  0  0  0  0  0  0
  188.7290  178.1950  141.1330 C   0  0  0  0  0  2  0  0  0  0  0  0
  190.9310  175.6550  138.7280 O   0  0  0  0  0  0  0  0  0  0  0  0
  190.2100  176.3780  139.4660 C   0  0  0  0  0  0  0  0  0  0  0  0
  188.7960  177.0590  137.5460 O   0  0  0  0  0  1  0  0  0  0  0  0
  188.4080  177.9880  139.6730 C   0  0  0  0  0  3  0  0  0  0  0  0
  1 19  2  0  0  0  0
  1 20  1  0  0  0  0
  2  7  2  0  0  0  0
  4 12  1  0  0  0  0
  5 18  1  0  0  0  0
  6  9  1  0  0  0  0
  7  5  1  0  0  0  0
  7  4  1  0  0  0  0
  9  4  2  0  0  0  0
 10 15  1  0  0  0  0
 10 14  1  0  0  0  0
 11 20  1  0  0  0  0
 11  5  2  0  0  0  0
 12  8  1  0  0  0  0
 13 15  2  0  0  0  0
 14  3  1  0  0  0  0
 16  6  2  0  0  0  0
 17  2  1  0  0  0  0
 17  6  1  0  0  0  0
 18 14  2  0  0  0  0
 18  8  1  0  0  0  0
 19 13  1  0  0  0  0
 20 10  2  0  0  0  0
 21  1  1  0  0  0  0
 22 21  2  0  0  0  0
 23 26  1  0  0  0  0
 23 28  2  0  0  0  0
 24 21  1  0  0  0  0
 25 26  2  0  0  0  0
 26 22  1  0  0  0  0
 27 23  1  0  0  0  0
 28 24  1  0  0  0  0
M  END
>  <MODEL>
6

>  <REMARK>
 VINA RESULT:     -11.8      1.695      5.398
  Name = 
  1 active torsions:
  status: ('A' for Active; 'I' for Inactive)
    1  A    between atoms: C_1  and  C_2
                            x       y       z     vdW  Elec       q    Type
                         _______ _______ _______ _____ _____    ______ ____

>  <TORSDO>
F 1

$$$$
=
 OpenBabel11052413343D

 28 32  0  0  0  0  0  0  0  0999 V2000
  190.1150  177.2310  143.6470 C   0  0  0  0  0  0  0  0  0  0  0  0
  185.3080  178.7990  143.1350 C   0  0  0  0  0  3  0  0  0  0  0  0
  188.5310  177.8050  148.2230 O   0  0  0  0  0  1  0  0  0  0  0  0
  184.3490  178.6200  145.3880 C   0  0  0  0  0  0  0  0  0  0  0  0
  186.8200  178.2010  144.9680 C   0  0  0  0  0  0  0  0  0  0  0  0
  182.8920  179.3240  143.5710 C   0  0  0  0  0  0  0  0  0  0  0  0
  185.4850  178.5420  144.4390 C   0  0  0  0  0  0  0  0  0  0  0  0
  185.9450  178.6090  147.3060 C   0  0  0  0  0  2  0  0  0  0  0  0
  183.1330  178.9810  144.9780 C   0  0  0  0  0  3  0  0  0  0  0  0
  189.3280  177.5020  145.9540 C   0  0  0  0  0  0  0  0  0  0  0  0
  187.8390  177.8920  144.1200 N   0  0  0  0  0  0  0  0  0  0  0  0
  184.5550  178.2010  146.8110 C   0  0  0  0  0  2  0  0  0  0  0  0
  191.6060  176.7980  145.5290 C   0  0  0  0  0  3  0  0  0  0  0  0
  188.2980  177.8250  146.8500 C   0  0  0  0  0  0  0  0  0  0  0  0
  190.5910  177.1270  146.4250 C   0  0  0  0  0  3  0  0  0  0  0  0
  181.7570  179.7380  143.2190 O   0  0  0  0  0  0  0  0  0  0  0  0
  183.9700  179.1520  142.5380 C   0  0  0  0  0  2  0  0  0  0  0  0
  187.0330  178.1690  146.3590 C   0  0  0  0  0  0  0  0  0  0  0  0
  191.3680  176.8480  144.1560 C   0  0  0  0  0  3  0  0  0  0  0  0
  189.0820  177.5540  144.5610 C   0  0  0  0  0  0  0  0  0  0  0  0
  189.9220  177.2820  142.1720 C   0  0  0  0  0  0  0  0  0  0  0  0
  188.8770  177.9570  141.6680 C   0  0  0  0  0  3  0  0  0  0  0  0
  189.6240  177.4400  139.3030 C   0  0  0  0  0  0  0  0  0  0  0  0
  190.8310  176.4780  141.2600 C   0  0  0  0  0  2  0  0  0  0  0  0
  187.6270  178.6270  139.7770 O   0  0  0  0  0  0  0  0  0  0  0  0
  188.6440  178.0310  140.2220 C   0  0  0  0  0  0  0  0  0  0  0  0
  189.4950  177.6140  137.9310 O   0  0  0  0  0  1  0  0  0  0  0  0
  190.6550  176.7480  139.7860 C   0  0  0  0  0  3  0  0  0  0  0  0
  1 19  2  0  0  0  0
  1 20  1  0  0  0  0
  2  7  2  0  0  0  0
  4 12  1  0  0  0  0
  5 18  1  0  0  0  0
  6  9  1  0  0  0  0
  7  5  1  0  0  0  0
  7  4  1  0  0  0  0
  9  4  2  0  0  0  0
 10 15  1  0  0  0  0
 10 14  1  0  0  0  0
 11 20  1  0  0  0  0
 11  5  2  0  0  0  0
 12  8  1  0  0  0  0
 13 15  2  0  0  0  0
 14  3  1  0  0  0  0
 16  6  2  0  0  0  0
 17  2  1  0  0  0  0
 17  6  1  0  0  0  0
 18 14  2  0  0  0  0
 18  8  1  0  0  0  0
 19 13  1  0  0  0  0
 20 10  2  0  0  0  0
 21  1  1  0  0  0  0
 22 21  2  0  0  0  0
 23 28  2  0  0  0  0
 23 26  1  0  0  0  0
 24 21  1  0  0  0  0
 25 26  2  0  0  0  0
 26 22  1  0  0  0  0
 27 23  1  0  0  0  0
 28 24  1  0  0  0  0
M  END
>  <MODEL>
7

>  <REMARK>
 VINA RESULT:     -11.8      1.659      5.276
  Name = 
  1 active torsions:
  status: ('A' for Active; 'I' for Inactive)
    1  A    between atoms: C_1  and  C_2
                            x       y       z     vdW  Elec       q    Type
                         _______ _______ _______ _____ _____    ______ ____

>  <TORSDO>
F 1

$$$$
=
 OpenBabel11052413343D

 28 32  0  0  0  0  0  0  0  0999 V2000
  183.6910  178.4570  141.9830 C   0  0  0  0  0  0  0  0  0  0  0  0
  188.4570  176.7850  142.5480 C   0  0  0  0  0  3  0  0  0  0  0  0
  184.4950  178.6810  146.7880 O   0  0  0  0  0  1  0  0  0  0  0  0
  189.0470  177.3490  144.8640 C   0  0  0  0  0  0  0  0  0  0  0  0
  186.6920  177.7070  143.9760 C   0  0  0  0  0  0  0  0  0  0  0  0
  190.7500  176.3250  143.4600 C   0  0  0  0  0  0  0  0  0  0  0  0
  188.0820  177.2680  143.7410 C   0  0  0  0  0  0  0  0  0  0  0  0
  187.1640  177.7090  146.4610 C   0  0  0  0  0  2  0  0  0  0  0  0
  190.2980  176.9120  144.7280 C   0  0  0  0  0  3  0  0  0  0  0  0
  184.0850  178.5880  144.4000 C   0  0  0  0  0  0  0  0  0  0  0  0
  185.8350  177.8710  142.9310 N   0  0  0  0  0  0  0  0  0  0  0  0
  188.6290  178.0120  146.1400 C   0  0  0  0  0  2  0  0  0  0  0  0
  181.9330  179.2250  143.4910 C   0  0  0  0  0  3  0  0  0  0  0  0
  184.9450  178.4190  145.4960 C   0  0  0  0  0  0  0  0  0  0  0  0
  182.7780  179.0500  144.5850 C   0  0  0  0  0  3  0  0  0  0  0  0
  191.9110  175.8470  143.3770 O   0  0  0  0  0  0  0  0  0  0  0  0
  189.8590  176.3220  142.2500 C   0  0  0  0  0  2  0  0  0  0  0  0
  186.2600  177.9840  145.2860 C   0  0  0  0  0  0  0  0  0  0  0  0
  182.3870  178.9330  142.2050 C   0  0  0  0  0  3  0  0  0  0  0  0
  184.5510  178.2900  143.0970 C   0  0  0  0  0  0  0  0  0  0  0  0
  184.1170  178.1460  140.5910 C   0  0  0  0  0  0  0  0  0  0  0  0
  185.3030  178.5910  140.1510 C   0  0  0  0  0  3  0  0  0  0  0  0
  184.9550  177.4500  137.9170 C   0  0  0  0  0  0  0  0  0  0  0  0
  183.1630  177.4360  139.6480 C   0  0  0  0  0  2  0  0  0  0  0  0
  186.8580  178.7860  138.3810 O   0  0  0  0  0  0  0  0  0  0  0  0
  185.7630  178.3130  138.7860 C   0  0  0  0  0  0  0  0  0  0  0  0
  185.4340  177.0630  136.6710 O   0  0  0  0  0  1  0  0  0  0  0  0
  183.7650  177.0170  138.3290 C   0  0  0  0  0  3  0  0  0  0  0  0
  1 19  2  0  0  0  0
  1 20  1  0  0  0  0
  2  7  2  0  0  0  0
  4 12  1  0  0  0  0
  5 18  1  0  0  0  0
  6  9  1  0  0  0  0
  7  5  1  0  0  0  0
  7  4  1  0  0  0  0
  9  4  2  0  0  0  0
 10 15  1  0  0  0  0
 10 14  1  0  0  0  0
 11 20  1  0  0  0  0
 11  5  2  0  0  0  0
 12  8  1  0  0  0  0
 13 15  2  0  0  0  0
 14  3  1  0  0  0  0
 16  6  2  0  0  0  0
 17  2  1  0  0  0  0
 17  6  1  0  0  0  0
 18 14  2  0  0  0  0
 18  8  1  0  0  0  0
 19 13  1  0  0  0  0
 20 10  2  0  0  0  0
 21  1  1  0  0  0  0
 22 21  2  0  0  0  0
 23 28  2  0  0  0  0
 23 26  1  0  0  0  0
 24 21  1  0  0  0  0
 25 26  2  0  0  0  0
 26 22  1  0  0  0  0
 27 23  1  0  0  0  0
 28 24  1  0  0  0  0
M  END
>  <MODEL>
8

>  <REMARK>
 VINA RESULT:     -11.7      2.054      3.235
  Name = 
  1 active torsions:
  status: ('A' for Active; 'I' for Inactive)
    1  A    between atoms: C_1  and  C_2
                            x       y       z     vdW  Elec       q    Type
                         _______ _______ _______ _____ _____    ______ ____

>  <TORSDO>
F 1

$$$$
=
 OpenBabel11052413343D

 28 32  0  0  0  0  0  0  0  0999 V2000
  188.3920  177.6070  143.6720 C   0  0  0  0  0  0  0  0  0  0  0  0
  184.3220  178.7860  140.8660 C   0  0  0  0  0  3  0  0  0  0  0  0
  184.8960  178.5480  146.9390 O   0  0  0  0  0  1  0  0  0  0  0  0
  182.4460  178.7780  142.4510 C   0  0  0  0  0  0  0  0  0  0  0  0
  184.8440  178.4850  143.2410 C   0  0  0  0  0  0  0  0  0  0  0  0
  181.9640  179.1890  140.1020 C   0  0  0  0  0  0  0  0  0  0  0  0
  183.8900  178.6790  142.1310 C   0  0  0  0  0  0  0  0  0  0  0  0
  182.9980  179.0750  144.8660 C   0  0  0  0  0  2  0  0  0  0  0  0
  181.5450  179.0120  141.4980 C   0  0  0  0  0  3  0  0  0  0  0  0
  186.6400  178.0640  145.3270 C   0  0  0  0  0  0  0  0  0  0  0  0
  186.1410  178.1590  142.9870 N   0  0  0  0  0  0  0  0  0  0  0  0
  181.9900  178.5250  143.8550 C   0  0  0  0  0  2  0  0  0  0  0  0
  188.8720  177.4740  146.0610 C   0  0  0  0  0  3  0  0  0  0  0  0
  185.3120  178.4080  145.6170 C   0  0  0  0  0  0  0  0  0  0  0  0
  187.5560  177.8260  146.3570 C   0  0  0  0  0  3  0  0  0  0  0  0
  181.1070  179.4860  139.2300 O   0  0  0  0  0  0  0  0  0  0  0  0
  183.3960  178.9830  139.6940 C   0  0  0  0  0  2  0  0  0  0  0  0
  184.4030  178.6130  144.5710 C   0  0  0  0  0  0  0  0  0  0  0  0
  189.2820  177.3650  144.7320 C   0  0  0  0  0  3  0  0  0  0  0  0
  187.0520  177.9530  143.9770 C   0  0  0  0  0  0  0  0  0  0  0  0
  188.8890  177.4910  142.2730 C   0  0  0  0  0  0  0  0  0  0  0  0
  188.2610  178.1590  141.2940 C   0  0  0  0  0  3  0  0  0  0  0  0
  189.9300  177.3180  139.5860 C   0  0  0  0  0  0  0  0  0  0  0  0
  190.0180  176.5310  141.9490 C   0  0  0  0  0  2  0  0  0  0  0  0
  188.0730  178.6680  138.9940 O   0  0  0  0  0  0  0  0  0  0  0  0
  188.7110  178.0720  139.9020 C   0  0  0  0  0  0  0  0  0  0  0  0
  190.4510  177.3320  138.2970 O   0  0  0  0  0  1  0  0  0  0  0  0
  190.5540  176.6300  140.5410 C   0  0  0  0  0  3  0  0  0  0  0  0
  1 20  2  0  0  0  0
  1 19  1  0  0  0  0
  2  7  2  0  0  0  0
  4 12  1  0  0  0  0
  5 18  1  0  0  0  0
  6  9  1  0  0  0  0
  7  4  1  0  0  0  0
  7  5  1  0  0  0  0
  9  4  2  0  0  0  0
 10 14  1  0  0  0  0
 10 15  2  0  0  0  0
 11  5  2  0  0  0  0
 11 20  1  0  0  0  0
 12  8  1  0  0  0  0
 13 15  1  0  0  0  0
 14  3  1  0  0  0  0
 16  6  2  0  0  0  0
 17  6  1  0  0  0  0
 17  2  1  0  0  0  0
 18  8  1  0  0  0  0
 18 14  2  0  0  0  0
 19 13  2  0  0  0  0
 20 10  1  0  0  0  0
 21  1  1  0  0  0  0
 22 21  2  0  0  0  0
 23 26  1  0  0  0  0
 23 28  2  0  0  0  0
 24 21  1  0  0  0  0
 25 26  2  0  0  0  0
 26 22  1  0  0  0  0
 27 23  1  0  0  0  0
 28 24  1  0  0  0  0
M  END
>  <MODEL>
9

>  <REMARK>
 VINA RESULT:     -11.6      2.172      6.094
  Name = 
  1 active torsions:
  status: ('A' for Active; 'I' for Inactive)
    1  A    between atoms: C_1  and  C_2
                            x       y       z     vdW  Elec       q    Type
                         _______ _______ _______ _____ _____    ______ ____

>  <TORSDO>
F 1

$$$$
