=
 OpenBabel11052416213D

 43 48  0  0  1  0  0  0  0  0999 V2000
  187.9450  177.2170  146.6950 C   0  0  1  0  0  3  0  0  0  0  0  0
  185.6780  178.5410  142.2830 C   0  0  0  0  0  0  0  0  0  0  0  0
  187.5940  178.0570  140.3290 C   0  0  0  0  0  0  0  0  0  0  0  0
  186.3630  178.1650  144.9840 C   0  0  0  0  0  0  0  0  0  0  0  0
  189.0720  177.6920  145.7930 C   0  0  0  0  0  2  0  0  0  0  0  0
  188.3610  177.3530  148.1430 C   0  0  0  0  0  1  0  0  0  0  0  0
  187.3340  177.9430  143.9800 C   0  0  0  0  0  0  0  0  0  0  0  0
  186.7000  178.0640  146.4430 C   0  0  0  0  0  2  0  0  0  0  0  0
  188.7060  177.4230  144.3350 C   0  0  0  0  0  2  0  0  0  0  0  0
  187.8950  177.8850  141.6440 N   0  0  0  0  0  0  0  0  0  0  0  0
  186.9850  178.1190  142.6280 C   0  0  0  0  0  0  0  0  0  0  0  0
  184.7370  178.7740  143.2910 C   0  0  0  0  0  3  0  0  0  0  0  0
  185.3390  178.7100  140.9300 C   0  0  0  0  0  0  0  0  0  0  0  0
  186.3150  178.4700  139.9550 C   0  0  0  0  0  3  0  0  0  0  0  0
  185.0800  178.5930  144.6310 C   0  0  0  0  0  3  0  0  0  0  0  0
  188.6120  177.7740  139.2750 C   0  0  1  0  0  3  0  0  0  0  0  0
  191.4780  175.5720  138.1590 C   0  0  0  0  0  3  0  0  0  0  0  0
  190.1380  177.0710  139.9960 S   0  0  0  0  0  0  0  0  0  0  0  0
  188.0570  176.8070  138.2340 C   0  0  0  0  0  2  0  0  0  0  0  0
  190.3250  176.1320  138.5040 C   0  0  0  0  0  0  0  0  0  0  0  0
  189.1790  176.0830  137.6720 N   0  0  0  0  0  2  0  0  0  0  0  0
  191.6190  174.8810  136.9160 N   0  0  0  0  0  2  0  0  0  0  0  0
  192.5470  175.3050  135.8720 C   0  0  2  0  0  0  0  0  0  0  0  0
  191.9480  176.3310  135.1340 O   0  0  0  0  0  1  0  0  0  0  0  0
  192.8720  174.1240  134.9450 C   0  0  0  0  0  2  0  0  0  0  0  0
  193.0640  171.7480  135.6960 C   0  0  0  0  0  1  0  0  0  0  0  0
  192.1040  172.8550  135.3070 C   0  0  0  0  0  2  0  0  0  0  0  0
  193.8340  175.8380  136.5190 C   0  0  0  0  0  2  0  0  0  0  0  0
  194.8810  174.7570  136.7660 C   0  0  1  0  0  3  0  0  0  0  0  0
  196.1690  173.4790  138.4670 C   0  0  0  0  0  2  0  0  0  0  0  0
  197.3770  174.8780  136.7490 C   0  0  0  0  0  3  0  0  0  0  0  0
  197.4720  174.1820  138.0850 C   0  0  0  0  0  2  0  0  0  0  0  0
  196.2000  175.1820  136.1750 C   0  0  0  0  0  3  0  0  0  0  0  0
  195.0010  174.4330  138.2580 C   0  0  0  0  0  2  0  0  0  0  0  0
  184.0400  179.1390  140.5970 O   0  0  0  0  0  0  0  0  0  0  0  0
  181.7420  176.3580  139.6440 C   0  0  0  0  0  3  0  0  0  0  0  0
  180.4290  177.0670  139.8310 C   0  0  2  0  0  3  0  0  0  0  0  0
  181.7420  178.8400  141.0030 C   0  0  0  0  0  3  0  0  0  0  0  0
  182.8880  176.9810  139.9300 C   0  0  0  0  0  3  0  0  0  0  0  0
  182.8850  178.3460  140.5110 C   0  0  0  0  0  0  0  0  0  0  0  0
  180.4910  178.0030  141.0420 C   0  0  0  0  0  2  0  0  0  0  0  0
  179.2300  175.6150  141.3760 N   0  0  0  0  0  1  0  0  0  0  0  0
  179.3140  176.0480  139.9910 C   0  0  0  0  0  2  0  0  0  0  0  0
  1  6  1  1  0  0  0
  2 11  1  0  0  0  0
  2 12  1  0  0  0  0
  3 10  1  0  0  0  0
  4  8  1  0  0  0  0
  5  1  1  0  0  0  0
  7  9  1  0  0  0  0
  7  4  2  0  0  0  0
  8  1  1  0  0  0  0
  9  5  1  0  0  0  0
 10 11  2  0  0  0  0
 11  7  1  0  0  0  0
 12 15  2  0  0  0  0
 13  2  2  0  0  0  0
 14  3  2  0  0  0  0
 14 13  1  0  0  0  0
 15  4  1  0  0  0  0
 16 18  1  0  0  0  0
 16  3  1  1  0  0  0
 17 20  2  0  0  0  0
 19 16  1  0  0  0  0
 20 18  1  0  0  0  0
 21 19  1  0  0  0  0
 21 20  1  0  0  0  0
 22 17  1  0  0  0  0
 23 24  1  6  0  0  0
 23 28  1  0  0  0  0
 23 22  1  0  0  0  0
 25 27  1  0  0  0  0
 25 23  1  0  0  0  0
 27 26  1  0  0  0  0
 29 28  1  1  0  0  0
 29 34  1  0  0  0  0
 31 32  1  0  0  0  0
 32 30  1  0  0  0  0
 33 31  2  0  0  0  0
 33 29  1  0  0  0  0
 34 30  1  0  0  0  0
 35 13  1  0  0  0  0
 36 37  1  0  0  0  0
 36 39  2  0  0  0  0
 37 43  1  1  0  0  0
 37 41  1  0  0  0  0
 38 41  1  0  0  0  0
 39 40  1  0  0  0  0
 40 35  1  0  0  0  0
 40 38  2  0  0  0  0
 43 42  1  0  0  0  0
M  END
>  <MODEL>
1

>  <REMARK>
 VINA RESULT:      -8.9      0.000      0.000
  Name = 
  10 active torsions:
  status: ('A' for Active; 'I' for Inactive)
    1  A    between atoms: O_1  and  C_34
    2  A    between atoms: O_1  and  C_35
    3  A    between atoms: C_2  and  C_13
    4  A    between atoms: C_3  and  N_4
    5  A    between atoms: N_4  and  C_22
    6  A    between atoms: C_10  and  C_22
    7  A    between atoms: C_10  and  C_42
    8  A    between atoms: C_11  and  C_14
    9  A    between atoms: C_14  and  C_22
   10  A    between atoms: C_19  and  C_37
                            x       y       z     vdW  Elec       q    Type
                         _______ _______ _______ _____ _____    ______ ____

>  <TORSDO>
F 10

$$$$
=
 OpenBabel11052416213D

 43 48  0  0  1  0  0  0  0  0999 V2000
  191.1410  176.0770  146.7900 C   0  0  1  0  0  3  0  0  0  0  0  0
  187.0940  178.1000  144.3640 C   0  0  0  0  0  0  0  0  0  0  0  0
  187.8750  178.2680  141.7020 C   0  0  0  0  0  0  0  0  0  0  0  0
  188.9530  177.2090  146.2740 C   0  0  0  0  0  0  0  0  0  0  0  0
  191.7230  176.8570  145.6230 C   0  0  0  0  0  2  0  0  0  0  0  0
  192.1850  175.9310  147.8750 C   0  0  0  0  0  1  0  0  0  0  0  0
  189.3440  177.3190  144.9190 C   0  0  0  0  0  0  0  0  0  0  0  0
  189.9300  176.8220  147.3460 C   0  0  0  0  0  2  0  0  0  0  0  0
  190.7180  176.8810  144.4740 C   0  0  0  0  0  2  0  0  0  0  0  0
  188.7520  177.8410  142.6500 N   0  0  0  0  0  0  0  0  0  0  0  0
  188.4070  177.7530  143.9640 C   0  0  0  0  0  0  0  0  0  0  0  0
  186.7330  178.0020  145.7120 C   0  0  0  0  0  3  0  0  0  0  0  0
  186.1650  178.5290  143.4000 C   0  0  0  0  0  0  0  0  0  0  0  0
  186.5730  178.6150  142.0630 C   0  0  0  0  0  3  0  0  0  0  0  0
  187.6590  177.5660  146.6590 C   0  0  0  0  0  3  0  0  0  0  0  0
  188.2820  178.3350  140.2680 C   0  0  1  0  0  3  0  0  0  0  0  0
  190.0320  176.6060  137.3940 C   0  0  0  0  0  3  0  0  0  0  0  0
  189.8520  177.4420  139.9790 S   0  0  0  0  0  0  0  0  0  0  0  0
  187.1980  177.7460  139.3700 C   0  0  0  0  0  2  0  0  0  0  0  0
  189.2360  177.0250  138.3700 C   0  0  0  0  0  0  0  0  0  0  0  0
  187.8490  177.2400  138.1790 N   0  0  0  0  0  2  0  0  0  0  0  0
  189.5180  176.3440  136.0860 N   0  0  0  0  0  2  0  0  0  0  0  0
  189.3220  174.9940  135.5650 C   0  0  2  0  0  0  0  0  0  0  0  0
  188.3170  175.0340  134.5940 O   0  0  0  0  0  1  0  0  0  0  0  0
  188.9070  174.0470  136.7010 C   0  0  0  0  0  2  0  0  0  0  0  0
  186.5220  173.4870  137.1970 C   0  0  0  0  0  1  0  0  0  0  0  0
  187.7230  173.1580  136.3300 C   0  0  0  0  0  2  0  0  0  0  0  0
  190.6260  174.5040  134.9180 C   0  0  0  0  0  2  0  0  0  0  0  0
  191.4950  173.6760  135.8580 C   0  0  1  0  0  3  0  0  0  0  0  0
  193.6830  173.4960  137.0280 C   0  0  0  0  0  2  0  0  0  0  0  0
  192.9650  171.7070  135.4010 C   0  0  0  0  0  3  0  0  0  0  0  0
  194.1230  172.3330  136.1380 C   0  0  0  0  0  2  0  0  0  0  0  0
  191.7900  172.3370  135.2310 C   0  0  0  0  0  3  0  0  0  0  0  0
  192.7770  174.4260  136.2310 C   0  0  0  0  0  2  0  0  0  0  0  0
  184.8650  178.8810  143.8090 O   0  0  0  0  0  0  0  0  0  0  0  0
  182.5360  178.1700  140.9810 C   0  0  0  0  0  3  0  0  0  0  0  0
  181.3330  178.9230  141.4770 C   0  0  2  0  0  3  0  0  0  0  0  0
  182.5230  179.0550  143.6690 C   0  0  0  0  0  3  0  0  0  0  0  0
  183.6420  178.1040  141.7280 C   0  0  0  0  0  3  0  0  0  0  0  0
  183.6750  178.6990  143.0870 C   0  0  0  0  0  0  0  0  0  0  0  0
  181.2020  178.7890  142.9970 C   0  0  0  0  0  2  0  0  0  0  0  0
  179.3580  177.5100  141.6570 N   0  0  0  0  0  1  0  0  0  0  0  0
  180.0850  178.4110  140.7790 C   0  0  0  0  0  2  0  0  0  0  0  0
  1  8  1  0  0  0  0
  1  6  1  1  0  0  0
  2 12  1  0  0  0  0
  3 14  2  0  0  0  0
  3 10  1  0  0  0  0
  4 15  1  0  0  0  0
  4  8  1  0  0  0  0
  5  1  1  0  0  0  0
  7  4  2  0  0  0  0
  9  7  1  0  0  0  0
  9  5  1  0  0  0  0
 10 11  2  0  0  0  0
 11  2  1  0  0  0  0
 11  7  1  0  0  0  0
 12 15  2  0  0  0  0
 13 35  1  0  0  0  0
 13  2  2  0  0  0  0
 14 13  1  0  0  0  0
 16  3  1  1  0  0  0
 17 20  2  0  0  0  0
 18 16  1  0  0  0  0
 19 16  1  0  0  0  0
 20 18  1  0  0  0  0
 21 20  1  0  0  0  0
 21 19  1  0  0  0  0
 22 17  1  0  0  0  0
 23 24  1  6  0  0  0
 23 22  1  0  0  0  0
 23 25  1  0  0  0  0
 27 25  1  0  0  0  0
 27 26  1  0  0  0  0
 28 23  1  0  0  0  0
 29 28  1  6  0  0  0
 29 34  1  0  0  0  0
 31 32  1  0  0  0  0
 32 30  1  0  0  0  0
 33 31  2  0  0  0  0
 33 29  1  0  0  0  0
 34 30  1  0  0  0  0
 36 37  1  0  0  0  0
 36 39  2  0  0  0  0
 37 43  1  6  0  0  0
 37 41  1  0  0  0  0
 39 40  1  0  0  0  0
 40 38  2  0  0  0  0
 40 35  1  0  0  0  0
 41 38  1  0  0  0  0
 43 42  1  0  0  0  0
M  END
>  <MODEL>
2

>  <REMARK>
 VINA RESULT:      -8.6      1.972      3.171
  Name = 
  10 active torsions:
  status: ('A' for Active; 'I' for Inactive)
    1  A    between atoms: O_1  and  C_34
    2  A    between atoms: O_1  and  C_35
    3  A    between atoms: C_2  and  C_13
    4  A    between atoms: C_3  and  N_4
    5  A    between atoms: N_4  and  C_22
    6  A    between atoms: C_10  and  C_22
    7  A    between atoms: C_10  and  C_42
    8  A    between atoms: C_11  and  C_14
    9  A    between atoms: C_14  and  C_22
   10  A    between atoms: C_19  and  C_37
                            x       y       z     vdW  Elec       q    Type
                         _______ _______ _______ _____ _____    ______ ____

>  <TORSDO>
F 10

$$$$
=
 OpenBabel11052416213D

 43 48  0  0  1  0  0  0  0  0999 V2000
  181.6200  179.7680  139.7810 C   0  0  1  0  0  3  0  0  0  0  0  0
  185.5190  178.3170  142.7880 C   0  0  0  0  0  0  0  0  0  0  0  0
  187.7430  178.3330  141.1220 C   0  0  0  0  0  0  0  0  0  0  0  0
  182.9910  178.8730  141.6900 C   0  0  0  0  0  0  0  0  0  0  0  0
  182.5930  179.0550  138.8570 C   0  0  0  0  0  2  0  0  0  0  0  0
  180.2310  179.7270  139.1840 C   0  0  0  0  0  1  0  0  0  0  0  0
  184.1290  178.8570  140.8500 C   0  0  0  0  0  0  0  0  0  0  0  0
  181.6090  179.0770  141.1410 C   0  0  0  0  0  2  0  0  0  0  0  0
  184.0150  179.2200  139.3900 C   0  0  0  0  0  2  0  0  0  0  0  0
  186.5070  178.5970  140.6210 N   0  0  0  0  0  0  0  0  0  0  0  0
  185.3950  178.5910  141.4050 C   0  0  0  0  0  0  0  0  0  0  0  0
  184.3790  178.3190  143.6000 C   0  0  0  0  0  3  0  0  0  0  0  0
  186.7880  178.0570  143.3330 C   0  0  0  0  0  0  0  0  0  0  0  0
  187.9000  178.0610  142.4820 C   0  0  0  0  0  3  0  0  0  0  0  0
  183.1250  178.5890  143.0520 C   0  0  0  0  0  3  0  0  0  0  0  0
  188.9440  178.3660  140.2360 C   0  0  1  0  0  3  0  0  0  0  0  0
  191.6040  176.3630  138.4420 C   0  0  0  0  0  3  0  0  0  0  0  0
  190.0880  176.9910  140.6150 S   0  0  0  0  0  0  0  0  0  0  0  0
  188.5340  178.2880  138.7690 C   0  0  0  0  0  2  0  0  0  0  0  0
  190.5080  176.9610  138.8930 C   0  0  0  0  0  0  0  0  0  0  0  0
  189.6310  177.6800  138.0440 N   0  0  0  0  0  2  0  0  0  0  0  0
  191.9540  176.4140  137.0570 N   0  0  0  0  0  2  0  0  0  0  0  0
  191.7500  175.2930  136.1440 C   0  0  2  0  0  0  0  0  0  0  0  0
  191.2060  175.7840  134.9530 O   0  0  0  0  0  1  0  0  0  0  0  0
  190.7880  174.2730  136.7700 C   0  0  0  0  0  2  0  0  0  0  0  0
  188.2990  174.4870  136.8600 C   0  0  0  0  0  1  0  0  0  0  0  0
  189.4860  174.1250  135.9870 C   0  0  0  0  0  2  0  0  0  0  0  0
  193.1020  174.6300  135.8420 C   0  0  0  0  0  2  0  0  0  0  0  0
  193.5920  173.7170  136.9620 C   0  0  1  0  0  3  0  0  0  0  0  0
  195.3590  173.2970  138.6600 C   0  0  0  0  0  2  0  0  0  0  0  0
  194.8910  171.5840  136.8690 C   0  0  0  0  0  3  0  0  0  0  0  0
  195.8790  172.0800  137.8950 C   0  0  0  0  0  2  0  0  0  0  0  0
  193.8830  172.3460  136.4090 C   0  0  0  0  0  3  0  0  0  0  0  0
  194.8080  174.3170  137.6720 C   0  0  0  0  0  2  0  0  0  0  0  0
  186.9010  177.7760  144.7070 O   0  0  0  0  0  0  0  0  0  0  0  0
  190.4890  177.1320  145.5020 C   0  0  0  0  0  3  0  0  0  0  0  0
  190.3350  176.6880  146.9300 C   0  0  2  0  0  3  0  0  0  0  0  0
  188.0000  177.5620  146.7770 C   0  0  0  0  0  3  0  0  0  0  0  0
  189.4220  177.5270  144.8020 C   0  0  0  0  0  3  0  0  0  0  0  0
  188.0860  177.6130  145.4420 C   0  0  0  0  0  0  0  0  0  0  0  0
  189.2390  177.4980  147.6300 C   0  0  0  0  0  2  0  0  0  0  0  0
  192.3950  175.5780  147.6050 N   0  0  0  0  0  1  0  0  0  0  0  0
  191.6610  176.8310  147.6570 C   0  0  0  0  0  2  0  0  0  0  0  0
  1  6  1  6  0  0  0
  1  8  1  0  0  0  0
  2 13  1  0  0  0  0
  2 12  1  0  0  0  0
  3 14  1  0  0  0  0
  4 15  1  0  0  0  0
  5  9  1  0  0  0  0
  5  1  1  0  0  0  0
  7 11  1  0  0  0  0
  7  4  2  0  0  0  0
  8  4  1  0  0  0  0
  9  7  1  0  0  0  0
 10  3  2  0  0  0  0
 10 11  1  0  0  0  0
 11  2  2  0  0  0  0
 13 35  1  0  0  0  0
 14 13  2  0  0  0  0
 15 12  2  0  0  0  0
 16 18  1  0  0  0  0
 16  3  1  1  0  0  0
 17 20  2  0  0  0  0
 19 16  1  0  0  0  0
 20 18  1  0  0  0  0
 21 19  1  0  0  0  0
 21 20  1  0  0  0  0
 22 17  1  0  0  0  0
 23 24  1  6  0  0  0
 23 25  1  0  0  0  0
 23 22  1  0  0  0  0
 27 25  1  0  0  0  0
 27 26  1  0  0  0  0
 28 23  1  0  0  0  0
 29 28  1  6  0  0  0
 29 34  1  0  0  0  0
 31 32  1  0  0  0  0
 32 30  1  0  0  0  0
 33 31  2  0  0  0  0
 33 29  1  0  0  0  0
 34 30  1  0  0  0  0
 35 40  1  0  0  0  0
 36 37  1  0  0  0  0
 37 41  1  0  0  0  0
 37 43  1  1  0  0  0
 38 41  1  0  0  0  0
 39 40  1  0  0  0  0
 39 36  2  0  0  0  0
 40 38  2  0  0  0  0
 42 43  1  0  0  0  0
M  END
>  <MODEL>
3

>  <REMARK>
 VINA RESULT:      -8.6      2.108      6.192
  Name = 
  10 active torsions:
  status: ('A' for Active; 'I' for Inactive)
    1  A    between atoms: O_1  and  C_34
    2  A    between atoms: O_1  and  C_35
    3  A    between atoms: C_2  and  C_13
    4  A    between atoms: C_3  and  N_4
    5  A    between atoms: N_4  and  C_22
    6  A    between atoms: C_10  and  C_22
    7  A    between atoms: C_10  and  C_42
    8  A    between atoms: C_11  and  C_14
    9  A    between atoms: C_14  and  C_22
   10  A    between atoms: C_19  and  C_37
                            x       y       z     vdW  Elec       q    Type
                         _______ _______ _______ _____ _____    ______ ____

>  <TORSDO>
F 10

$$$$
=
 OpenBabel11052416213D

 43 48  0  0  1  0  0  0  0  0999 V2000
  187.9080  177.2360  146.9130 C   0  0  1  0  0  3  0  0  0  0  0  0
  185.8500  178.4960  142.3810 C   0  0  0  0  0  0  0  0  0  0  0  0
  187.9120  178.1590  140.5480 C   0  0  0  0  0  0  0  0  0  0  0  0
  186.3830  178.1170  145.1150 C   0  0  0  0  0  0  0  0  0  0  0  0
  189.0600  177.7910  146.0910 C   0  0  0  0  0  2  0  0  0  0  0  0
  188.2220  177.3720  148.3860 C   0  0  0  0  0  1  0  0  0  0  0  0
  187.4290  177.9690  144.1730 C   0  0  0  0  0  0  0  0  0  0  0  0
  186.6330  178.0110  146.5910 C   0  0  0  0  0  2  0  0  0  0  0  0
  188.8030  177.5250  144.6100 C   0  0  0  0  0  2  0  0  0  0  0  0
  188.1390  177.9830  141.8780 N   0  0  0  0  0  0  0  0  0  0  0  0
  187.1550  178.1470  142.8040 C   0  0  0  0  0  0  0  0  0  0  0  0
  184.8340  178.6560  143.3290 C   0  0  0  0  0  3  0  0  0  0  0  0
  185.5880  178.6680  141.0110 C   0  0  0  0  0  0  0  0  0  0  0  0
  186.6370  178.5010  140.0980 C   0  0  0  0  0  3  0  0  0  0  0  0
  185.1020  178.4730  144.6860 C   0  0  0  0  0  3  0  0  0  0  0  0
  189.0110  177.9540  139.5590 C   0  0  1  0  0  3  0  0  0  0  0  0
  192.1410  176.0280  138.6640 C   0  0  0  0  0  3  0  0  0  0  0  0
  190.5580  177.4290  140.3800 S   0  0  0  0  0  0  0  0  0  0  0  0
  188.6140  176.9080  138.5210 C   0  0  0  0  0  2  0  0  0  0  0  0
  190.9200  176.4760  138.9300 C   0  0  0  0  0  0  0  0  0  0  0  0
  189.8330  176.2890  138.0420 N   0  0  0  0  0  2  0  0  0  0  0  0
  192.4190  175.3230  137.4530 N   0  0  0  0  0  2  0  0  0  0  0  0
  193.7270  175.3410  136.8050 C   0  0  2  0  0  0  0  0  0  0  0  0
  194.0850  176.6710  136.5620 O   0  0  0  0  0  1  0  0  0  0  0  0
  193.6680  174.5710  135.4770 C   0  0  0  0  0  2  0  0  0  0  0  0
  192.8400  172.2170  135.6190 C   0  0  0  0  0  1  0  0  0  0  0  0
  192.4470  173.6610  135.3710 C   0  0  0  0  0  2  0  0  0  0  0  0
  194.7670  174.7050  137.7390 C   0  0  0  0  0  2  0  0  0  0  0  0
  195.8450  173.9190  137.0000 C   0  0  1  0  0  3  0  0  0  0  0  0
  197.2960  171.8990  137.0020 C   0  0  0  0  0  2  0  0  0  0  0  0
  198.3280  174.2010  136.9670 C   0  0  0  0  0  3  0  0  0  0  0  0
  198.5510  172.7370  137.2520 C   0  0  0  0  0  2  0  0  0  0  0  0
  197.1010  174.7460  136.9020 C   0  0  0  0  0  3  0  0  0  0  0  0
  196.1030  172.5670  137.6710 C   0  0  0  0  0  2  0  0  0  0  0  0
  184.2900  179.0240  140.6000 O   0  0  0  0  0  0  0  0  0  0  0  0
  182.3370  176.2020  139.1360 C   0  0  0  0  0  3  0  0  0  0  0  0
  182.2660  176.6820  137.7130 C   0  0  2  0  0  3  0  0  0  0  0  0
  183.0840  178.8750  138.5850 C   0  0  0  0  0  3  0  0  0  0  0  0
  182.9270  176.9530  140.0690 C   0  0  0  0  0  3  0  0  0  0  0  0
  183.4480  178.3020  139.7390 C   0  0  0  0  0  0  0  0  0  0  0  0
  182.0990  178.2040  137.6660 C   0  0  0  0  0  2  0  0  0  0  0  0
  180.3210  175.2350  137.9440 N   0  0  0  0  0  1  0  0  0  0  0  0
  181.1220  175.9890  136.9940 C   0  0  0  0  0  2  0  0  0  0  0  0
  1  6  1  1  0  0  0
  2 11  1  0  0  0  0
  2 12  1  0  0  0  0
  3 10  1  0  0  0  0
  4  8  1  0  0  0  0
  5  1  1  0  0  0  0
  7  9  1  0  0  0  0
  7  4  2  0  0  0  0
  8  1  1  0  0  0  0
  9  5  1  0  0  0  0
 10 11  2  0  0  0  0
 11  7  1  0  0  0  0
 12 15  2  0  0  0  0
 13  2  2  0  0  0  0
 14  3  2  0  0  0  0
 14 13  1  0  0  0  0
 15  4  1  0  0  0  0
 16 18  1  0  0  0  0
 16  3  1  1  0  0  0
 17 20  2  0  0  0  0
 19 16  1  0  0  0  0
 20 18  1  0  0  0  0
 21 19  1  0  0  0  0
 21 20  1  0  0  0  0
 22 17  1  0  0  0  0
 23 24  1  6  0  0  0
 23 22  1  0  0  0  0
 23 28  1  0  0  0  0
 25 23  1  0  0  0  0
 27 25  1  0  0  0  0
 27 26  1  0  0  0  0
 29 34  1  0  0  0  0
 29 28  1  1  0  0  0
 30 32  1  0  0  0  0
 30 34  1  0  0  0  0
 31 32  1  0  0  0  0
 33 31  2  0  0  0  0
 33 29  1  0  0  0  0
 35 13  1  0  0  0  0
 36 39  2  0  0  0  0
 37 43  1  1  0  0  0
 37 36  1  0  0  0  0
 38 40  2  0  0  0  0
 40 39  1  0  0  0  0
 40 35  1  0  0  0  0
 41 37  1  0  0  0  0
 41 38  1  0  0  0  0
 43 42  1  0  0  0  0
M  END
>  <MODEL>
4

>  <REMARK>
 VINA RESULT:      -8.6      1.249      1.498
  Name = 
  10 active torsions:
  status: ('A' for Active; 'I' for Inactive)
    1  A    between atoms: O_1  and  C_34
    2  A    between atoms: O_1  and  C_35
    3  A    between atoms: C_2  and  C_13
    4  A    between atoms: C_3  and  N_4
    5  A    between atoms: N_4  and  C_22
    6  A    between atoms: C_10  and  C_22
    7  A    between atoms: C_10  and  C_42
    8  A    between atoms: C_11  and  C_14
    9  A    between atoms: C_14  and  C_22
   10  A    between atoms: C_19  and  C_37
                            x       y       z     vdW  Elec       q    Type
                         _______ _______ _______ _____ _____    ______ ____

>  <TORSDO>
F 10

$$$$
=
 OpenBabel11052416213D

 43 48  0  0  1  0  0  0  0  0999 V2000
  187.9880  177.9490  147.3540 C   0  0  1  0  0  3  0  0  0  0  0  0
  188.8700  177.8490  142.2980 C   0  0  0  0  0  0  0  0  0  0  0  0
  186.4520  178.5830  141.1420 C   0  0  0  0  0  0  0  0  0  0  0  0
  189.0100  177.5510  145.0900 C   0  0  0  0  0  0  0  0  0  0  0  0
  186.6530  177.5890  146.7230 C   0  0  0  0  0  2  0  0  0  0  0  0
  188.0220  177.4580  148.7840 C   0  0  0  0  0  1  0  0  0  0  0  0
  187.7800  177.9040  144.4860 C   0  0  0  0  0  0  0  0  0  0  0  0
  189.1180  177.2950  146.5650 C   0  0  0  0  0  2  0  0  0  0  0  0
  186.5650  178.2070  145.3290 C   0  0  0  0  0  2  0  0  0  0  0  0
  186.5510  178.4300  142.4900 N   0  0  0  0  0  0  0  0  0  0  0  0
  187.7160  178.0650  143.0900 C   0  0  0  0  0  0  0  0  0  0  0  0
  190.0720  177.4820  142.9120 C   0  0  0  0  0  3  0  0  0  0  0  0
  188.7960  178.0160  140.9040 C   0  0  0  0  0  0  0  0  0  0  0  0
  187.5700  178.3800  140.3330 C   0  0  0  0  0  3  0  0  0  0  0  0
  190.1380  177.3290  144.2960 C   0  0  0  0  0  3  0  0  0  0  0  0
  185.1610  179.0020  140.5190 C   0  0  1  0  0  3  0  0  0  0  0  0
  182.5360  178.2770  137.8950 C   0  0  0  0  0  3  0  0  0  0  0  0
  185.1070  178.5660  138.7440 S   0  0  0  0  0  0  0  0  0  0  0  0
  183.9810  178.3510  141.2330 C   0  0  0  0  0  2  0  0  0  0  0  0
  183.3620  178.3160  138.9330 C   0  0  0  0  0  0  0  0  0  0  0  0
  182.9040  178.2340  140.2710 N   0  0  0  0  0  2  0  0  0  0  0  0
  181.1250  178.1450  138.0810 N   0  0  0  0  0  2  0  0  0  0  0  0
  180.1640  179.1330  137.5990 C   0  0  2  0  0  0  0  0  0  0  0  0
  179.4890  178.5980  136.4980 O   0  0  0  0  0  1  0  0  0  0  0  0
  180.8960  180.4180  137.1820 C   0  0  0  0  0  2  0  0  0  0  0  0
  180.8340  182.9160  137.2130 C   0  0  0  0  0  1  0  0  0  0  0  0
  179.9970  181.6510  137.2150 C   0  0  0  0  0  2  0  0  0  0  0  0
  179.1490  179.4400  138.7100 C   0  0  0  0  0  2  0  0  0  0  0  0
  179.7520  179.4040  140.1100 C   0  0  1  0  0  3  0  0  0  0  0  0
  179.6920  178.3460  142.3600 C   0  0  0  0  0  2  0  0  0  0  0  0
  179.2950  180.8260  142.1140 C   0  0  0  0  0  3  0  0  0  0  0  0
  179.1280  179.6160  142.9990 C   0  0  0  0  0  2  0  0  0  0  0  0
  179.5290  180.7280  140.7940 C   0  0  0  0  0  3  0  0  0  0  0  0
  179.1900  178.2380  140.9260 C   0  0  0  0  0  2  0  0  0  0  0  0
  189.9450  177.7900  140.1240 O   0  0  0  0  0  0  0  0  0  0  0  0
  189.3570  177.2740  136.4760 C   0  0  0  0  0  3  0  0  0  0  0  0
  189.5840  175.7890  136.4120 C   0  0  2  0  0  3  0  0  0  0  0  0
  190.5310  176.0010  138.7130 C   0  0  0  0  0  3  0  0  0  0  0  0
  189.5170  177.9290  137.6290 C   0  0  0  0  0  3  0  0  0  0  0  0
  189.9980  177.2220  138.8410 C   0  0  0  0  0  0  0  0  0  0  0  0
  190.7180  175.3770  137.3560 C   0  0  0  0  0  2  0  0  0  0  0  0
  190.5110  174.0640  134.9650 N   0  0  0  0  0  1  0  0  0  0  0  0
  189.8940  175.3790  134.9830 C   0  0  0  0  0  2  0  0  0  0  0  0
  1  6  1  1  0  0  0
  2 12  1  0  0  0  0
  2 11  1  0  0  0  0
  3 10  1  0  0  0  0
  4  8  1  0  0  0  0
  5  1  1  0  0  0  0
  7  4  2  0  0  0  0
  7  9  1  0  0  0  0
  8  1  1  0  0  0  0
  9  5  1  0  0  0  0
 10 11  2  0  0  0  0
 11  7  1  0  0  0  0
 12 15  2  0  0  0  0
 13  2  2  0  0  0  0
 14 13  1  0  0  0  0
 14  3  2  0  0  0  0
 15  4  1  0  0  0  0
 16  3  1  1  0  0  0
 16 19  1  0  0  0  0
 17 22  1  0  0  0  0
 17 20  2  0  0  0  0
 18 20  1  0  0  0  0
 18 16  1  0  0  0  0
 20 21  1  0  0  0  0
 21 19  1  0  0  0  0
 23 24  1  6  0  0  0
 23 22  1  0  0  0  0
 23 28  1  0  0  0  0
 25 27  1  0  0  0  0
 25 23  1  0  0  0  0
 26 27  1  0  0  0  0
 29 28  1  6  0  0  0
 29 33  1  0  0  0  0
 29 34  1  0  0  0  0
 30 32  1  0  0  0  0
 31 32  1  0  0  0  0
 33 31  2  0  0  0  0
 34 30  1  0  0  0  0
 35 13  1  0  0  0  0
 36 39  2  0  0  0  0
 37 43  1  6  0  0  0
 37 36  1  0  0  0  0
 37 41  1  0  0  0  0
 38 40  2  0  0  0  0
 39 40  1  0  0  0  0
 40 35  1  0  0  0  0
 41 38  1  0  0  0  0
 42 43  1  0  0  0  0
M  END
>  <MODEL>
5

>  <REMARK>
 VINA RESULT:      -8.3      3.226     10.284
  Name = 
  10 active torsions:
  status: ('A' for Active; 'I' for Inactive)
    1  A    between atoms: O_1  and  C_34
    2  A    between atoms: O_1  and  C_35
    3  A    between atoms: C_2  and  C_13
    4  A    between atoms: C_3  and  N_4
    5  A    between atoms: N_4  and  C_22
    6  A    between atoms: C_10  and  C_22
    7  A    between atoms: C_10  and  C_42
    8  A    between atoms: C_11  and  C_14
    9  A    between atoms: C_14  and  C_22
   10  A    between atoms: C_19  and  C_37
                            x       y       z     vdW  Elec       q    Type
                         _______ _______ _______ _____ _____    ______ ____

>  <TORSDO>
F 10

$$$$
=
 OpenBabel11052416213D

 43 48  0  0  1  0  0  0  0  0999 V2000
  188.2210  177.8760  147.0720 C   0  0  1  0  0  3  0  0  0  0  0  0
  189.0780  177.7990  142.0100 C   0  0  0  0  0  0  0  0  0  0  0  0
  186.6290  178.4470  140.8670 C   0  0  0  0  0  0  0  0  0  0  0  0
  189.2440  177.5110  144.8020 C   0  0  0  0  0  0  0  0  0  0  0  0
  186.8970  177.4680  146.4480 C   0  0  0  0  0  2  0  0  0  0  0  0
  188.2810  177.3880  148.5020 C   0  0  0  0  0  1  0  0  0  0  0  0
  187.9990  177.8200  144.2050 C   0  0  0  0  0  0  0  0  0  0  0  0
  189.3690  177.2600  146.2760 C   0  0  0  0  0  2  0  0  0  0  0  0
  186.7800  178.0810  145.0540 C   0  0  0  0  0  2  0  0  0  0  0  0
  186.7410  178.3000  142.2150 N   0  0  0  0  0  0  0  0  0  0  0  0
  187.9220  177.9760  142.8080 C   0  0  0  0  0  0  0  0  0  0  0  0
  190.2960  177.4760  142.6180 C   0  0  0  0  0  3  0  0  0  0  0  0
  188.9910  177.9620  140.6170 C   0  0  0  0  0  0  0  0  0  0  0  0
  187.7490  178.2820  140.0520 C   0  0  0  0  0  3  0  0  0  0  0  0
  190.3750  177.3270  144.0020 C   0  0  0  0  0  3  0  0  0  0  0  0
  185.3220  178.8200  140.2510 C   0  0  1  0  0  3  0  0  0  0  0  0
  182.6180  177.8970  137.7720 C   0  0  0  0  0  3  0  0  0  0  0  0
  185.2130  178.2430  138.5190 S   0  0  0  0  0  0  0  0  0  0  0  0
  184.1620  178.2320  141.0490 C   0  0  0  0  0  2  0  0  0  0  0  0
  183.4750  178.0160  138.7790 C   0  0  0  0  0  0  0  0  0  0  0  0
  183.0560  178.0430  140.1320 N   0  0  0  0  0  2  0  0  0  0  0  0
  181.2130  177.7860  138.0100 N   0  0  0  0  0  2  0  0  0  0  0  0
  180.5090  176.5070  138.0280 C   0  0  2  0  0  0  0  0  0  0  0  0
  179.1620  176.7360  137.7310 O   0  0  0  0  0  1  0  0  0  0  0  0
  180.6300  175.8600  139.4160 C   0  0  0  0  0  2  0  0  0  0  0  0
  179.3870  173.8940  140.3320 C   0  0  0  0  0  1  0  0  0  0  0  0
  179.2930  175.3610  139.9580 C   0  0  0  0  0  2  0  0  0  0  0  0
  181.1080  175.5810  136.9590 C   0  0  0  0  0  2  0  0  0  0  0  0
  181.9760  174.4690  137.5370 C   0  0  1  0  0  3  0  0  0  0  0  0
  184.2350  173.4300  137.5950 C   0  0  0  0  0  2  0  0  0  0  0  0
  182.2390  172.0830  136.8420 C   0  0  0  0  0  3  0  0  0  0  0  0
  183.7440  172.1940  136.8400 C   0  0  0  0  0  2  0  0  0  0  0  0
  181.4380  173.1280  137.1100 C   0  0  0  0  0  3  0  0  0  0  0  0
  183.4440  174.6480  137.1390 C   0  0  0  0  0  2  0  0  0  0  0  0
  190.1430  177.7760  139.8310 O   0  0  0  0  0  0  0  0  0  0  0  0
  189.3900  175.3180  137.1260 C   0  0  0  0  0  3  0  0  0  0  0  0
  190.6280  174.4720  137.2290 C   0  0  2  0  0  3  0  0  0  0  0  0
  191.5520  176.2920  138.6690 C   0  0  0  0  0  3  0  0  0  0  0  0
  189.2440  176.3940  137.9040 C   0  0  0  0  0  3  0  0  0  0  0  0
  190.3310  176.8180  138.8210 C   0  0  0  0  0  0  0  0  0  0  0  0
  191.8500  175.3430  137.5390 C   0  0  0  0  0  2  0  0  0  0  0  0
  192.2490  173.5540  135.6600 N   0  0  0  0  0  1  0  0  0  0  0  0
  190.8300  173.6980  135.9380 C   0  0  0  0  0  2  0  0  0  0  0  0
  1  6  1  1  0  0  0
  2 12  1  0  0  0  0
  2 11  1  0  0  0  0
  3 10  1  0  0  0  0
  4  8  1  0  0  0  0
  5  1  1  0  0  0  0
  7  4  2  0  0  0  0
  7  9  1  0  0  0  0
  8  1  1  0  0  0  0
  9  5  1  0  0  0  0
 10 11  2  0  0  0  0
 11  7  1  0  0  0  0
 12 15  2  0  0  0  0
 13  2  2  0  0  0  0
 14 13  1  0  0  0  0
 14  3  2  0  0  0  0
 15  4  1  0  0  0  0
 16  3  1  1  0  0  0
 16 19  1  0  0  0  0
 17 22  1  0  0  0  0
 17 20  2  0  0  0  0
 18 20  1  0  0  0  0
 18 16  1  0  0  0  0
 20 21  1  0  0  0  0
 21 19  1  0  0  0  0
 22 23  1  0  0  0  0
 23 24  1  6  0  0  0
 23 25  1  0  0  0  0
 25 27  1  0  0  0  0
 27 26  1  0  0  0  0
 28 23  1  0  0  0  0
 29 28  1  6  0  0  0
 31 33  2  0  0  0  0
 32 31  1  0  0  0  0
 32 30  1  0  0  0  0
 33 29  1  0  0  0  0
 34 29  1  0  0  0  0
 34 30  1  0  0  0  0
 35 13  1  0  0  0  0
 36 37  1  0  0  0  0
 36 39  2  0  0  0  0
 37 43  1  6  0  0  0
 37 41  1  0  0  0  0
 38 40  2  0  0  0  0
 39 40  1  0  0  0  0
 40 35  1  0  0  0  0
 41 38  1  0  0  0  0
 42 43  1  0  0  0  0
M  END
>  <MODEL>
6

>  <REMARK>
 VINA RESULT:      -8.1      2.800      9.145
  Name = 
  10 active torsions:
  status: ('A' for Active; 'I' for Inactive)
    1  A    between atoms: O_1  and  C_34
    2  A    between atoms: O_1  and  C_35
    3  A    between atoms: C_2  and  C_13
    4  A    between atoms: C_3  and  N_4
    5  A    between atoms: N_4  and  C_22
    6  A    between atoms: C_10  and  C_22
    7  A    between atoms: C_10  and  C_42
    8  A    between atoms: C_11  and  C_14
    9  A    between atoms: C_14  and  C_22
   10  A    between atoms: C_19  and  C_37
                            x       y       z     vdW  Elec       q    Type
                         _______ _______ _______ _____ _____    ______ ____

>  <TORSDO>
F 10

$$$$
=
 OpenBabel11052416213D

 43 48  0  0  1  0  0  0  0  0999 V2000
  187.9650  177.9320  147.3580 C   0  0  1  0  0  3  0  0  0  0  0  0
  188.8370  177.5600  142.3120 C   0  0  0  0  0  0  0  0  0  0  0  0
  186.5180  178.5200  141.1190 C   0  0  0  0  0  0  0  0  0  0  0  0
  188.9390  177.3460  145.1130 C   0  0  0  0  0  0  0  0  0  0  0  0
  186.5990  177.7020  146.7320 C   0  0  0  0  0  2  0  0  0  0  0  0
  187.9420  177.4900  148.8040 C   0  0  0  0  0  1  0  0  0  0  0  0
  187.7570  177.8120  144.4920 C   0  0  0  0  0  0  0  0  0  0  0  0
  189.0160  177.1290  146.5970 C   0  0  0  0  0  2  0  0  0  0  0  0
  186.5830  178.2780  145.3180 C   0  0  0  0  0  2  0  0  0  0  0  0
  186.5980  178.4030  142.4720 N   0  0  0  0  0  0  0  0  0  0  0  0
  187.7140  177.9310  143.0900 C   0  0  0  0  0  0  0  0  0  0  0  0
  189.9910  177.0840  142.9440 C   0  0  0  0  0  3  0  0  0  0  0  0
  188.7850  177.6870  140.9130 C   0  0  0  0  0  0  0  0  0  0  0  0
  187.6080  178.1650  140.3240 C   0  0  0  0  0  3  0  0  0  0  0  0
  190.0370  176.9720  144.3340 C   0  0  0  0  0  3  0  0  0  0  0  0
  185.2830  179.0580  140.4760 C   0  0  1  0  0  3  0  0  0  0  0  0
  182.5660  178.5140  137.9020 C   0  0  0  0  0  3  0  0  0  0  0  0
  185.1600  178.5330  138.7290 S   0  0  0  0  0  0  0  0  0  0  0  0
  184.0380  178.5980  141.2270 C   0  0  0  0  0  2  0  0  0  0  0  0
  183.4000  178.5100  138.9350 C   0  0  0  0  0  0  0  0  0  0  0  0
  182.9470  178.5610  140.2760 N   0  0  0  0  0  2  0  0  0  0  0  0
  181.1510  178.5670  138.0970 N   0  0  0  0  0  2  0  0  0  0  0  0
  180.2150  178.9230  137.0350 C   0  0  2  0  0  0  0  0  0  0  0  0
  179.0620  179.4590  137.6190 O   0  0  0  0  0  1  0  0  0  0  0  0
  179.8480  177.6760  136.2170 C   0  0  0  0  0  2  0  0  0  0  0  0
  180.3000  175.3050  136.8660 C   0  0  0  0  0  1  0  0  0  0  0  0
  179.3990  176.5050  137.0870 C   0  0  0  0  0  2  0  0  0  0  0  0
  180.8550  179.9820  136.1260 C   0  0  0  0  0  2  0  0  0  0  0  0
  180.3260  181.3910  136.3710 C   0  0  1  0  0  3  0  0  0  0  0  0
  180.0470  183.6830  135.4460 C   0  0  0  0  0  2  0  0  0  0  0  0
  181.3500  183.3260  137.5770 C   0  0  0  0  0  3  0  0  0  0  0  0
  181.0710  184.2600  136.4250 C   0  0  0  0  0  2  0  0  0  0  0  0
  181.0570  182.0150  137.5320 C   0  0  0  0  0  3  0  0  0  0  0  0
  180.4260  182.2480  135.1060 C   0  0  0  0  0  2  0  0  0  0  0  0
  189.9030  177.3080  140.1470 O   0  0  0  0  0  0  0  0  0  0  0  0
  190.5200  175.4030  136.9990 C   0  0  0  0  0  3  0  0  0  0  0  0
  190.5070  176.5500  136.0270 C   0  0  2  0  0  3  0  0  0  0  0  0
  189.5640  177.9100  137.8980 C   0  0  0  0  0  3  0  0  0  0  0  0
  190.2800  175.6180  138.2950 C   0  0  0  0  0  3  0  0  0  0  0  0
  189.9190  176.9710  138.7840 C   0  0  0  0  0  0  0  0  0  0  0  0
  189.4540  177.5870  136.4320 C   0  0  0  0  0  2  0  0  0  0  0  0
  189.4450  174.8180  134.6840 N   0  0  0  0  0  1  0  0  0  0  0  0
  190.2440  176.0310  134.6240 C   0  0  0  0  0  2  0  0  0  0  0  0
  1  6  1  1  0  0  0
  2 12  1  0  0  0  0
  2 11  1  0  0  0  0
  3 10  1  0  0  0  0
  4  8  1  0  0  0  0
  5  1  1  0  0  0  0
  7  4  2  0  0  0  0
  7  9  1  0  0  0  0
  8  1  1  0  0  0  0
  9  5  1  0  0  0  0
 10 11  2  0  0  0  0
 11  7  1  0  0  0  0
 12 15  2  0  0  0  0
 13  2  2  0  0  0  0
 14 13  1  0  0  0  0
 14  3  2  0  0  0  0
 15  4  1  0  0  0  0
 16  3  1  1  0  0  0
 16 19  1  0  0  0  0
 17 22  1  0  0  0  0
 17 20  2  0  0  0  0
 18 20  1  0  0  0  0
 18 16  1  0  0  0  0
 20 21  1  0  0  0  0
 21 19  1  0  0  0  0
 23 24  1  1  0  0  0
 23 22  1  0  0  0  0
 25 23  1  0  0  0  0
 25 27  1  0  0  0  0
 26 27  1  0  0  0  0
 28 23  1  0  0  0  0
 29 28  1  6  0  0  0
 29 33  1  0  0  0  0
 30 32  1  0  0  0  0
 32 31  1  0  0  0  0
 33 31  2  0  0  0  0
 34 30  1  0  0  0  0
 34 29  1  0  0  0  0
 35 13  1  0  0  0  0
 36 39  2  0  0  0  0
 37 43  1  6  0  0  0
 37 41  1  0  0  0  0
 37 36  1  0  0  0  0
 38 40  2  0  0  0  0
 39 40  1  0  0  0  0
 40 35  1  0  0  0  0
 41 38  1  0  0  0  0
 43 42  1  0  0  0  0
M  END
>  <MODEL>
7

>  <REMARK>
 VINA RESULT:      -8.0      3.457      9.997
  Name = 
  10 active torsions:
  status: ('A' for Active; 'I' for Inactive)
    1  A    between atoms: O_1  and  C_34
    2  A    between atoms: O_1  and  C_35
    3  A    between atoms: C_2  and  C_13
    4  A    between atoms: C_3  and  N_4
    5  A    between atoms: N_4  and  C_22
    6  A    between atoms: C_10  and  C_22
    7  A    between atoms: C_10  and  C_42
    8  A    between atoms: C_11  and  C_14
    9  A    between atoms: C_14  and  C_22
   10  A    between atoms: C_19  and  C_37
                            x       y       z     vdW  Elec       q    Type
                         _______ _______ _______ _____ _____    ______ ____

>  <TORSDO>
F 10

$$$$
=
 OpenBabel11052416213D

 43 48  0  0  1  0  0  0  0  0999 V2000
  188.5380  177.8080  146.0100 C   0  0  1  0  0  3  0  0  0  0  0  0
  190.4260  177.3260  141.2600 C   0  0  0  0  0  0  0  0  0  0  0  0
  188.2920  177.9270  139.5850 C   0  0  0  0  0  0  0  0  0  0  0  0
  189.9980  177.2510  144.0370 C   0  0  0  0  0  0  0  0  0  0  0  0
  187.3590  177.3770  145.1530 C   0  0  0  0  0  2  0  0  0  0  0  0
  188.2820  177.4310  147.4520 C   0  0  0  0  0  1  0  0  0  0  0  0
  188.9150  177.5350  143.1720 C   0  0  0  0  0  0  0  0  0  0  0  0
  189.8050  177.1130  145.5200 C   0  0  0  0  0  2  0  0  0  0  0  0
  187.5550  177.8830  143.7250 C   0  0  0  0  0  2  0  0  0  0  0  0
  188.1160  177.8820  140.9330 N   0  0  0  0  0  0  0  0  0  0  0  0
  189.1360  177.5850  141.7830 C   0  0  0  0  0  0  0  0  0  0  0  0
  191.4800  177.0290  142.1320 C   0  0  0  0  0  3  0  0  0  0  0  0
  190.6360  177.3830  139.8720 C   0  0  0  0  0  0  0  0  0  0  0  0
  189.5510  177.6800  139.0370 C   0  0  0  0  0  3  0  0  0  0  0  0
  191.2640  176.9860  143.5090 C   0  0  0  0  0  3  0  0  0  0  0  0
  187.1550  178.2750  138.6830 C   0  0  1  0  0  3  0  0  0  0  0  0
  184.3150  176.9910  136.5400 C   0  0  0  0  0  3  0  0  0  0  0  0
  186.8930  176.9830  137.4150 S   0  0  0  0  0  0  0  0  0  0  0  0
  185.8690  178.4600  139.4820 C   0  0  0  0  0  2  0  0  0  0  0  0
  185.1620  177.3590  137.4930 C   0  0  0  0  0  0  0  0  0  0  0  0
  184.7620  178.1400  138.6040 N   0  0  0  0  0  2  0  0  0  0  0  0
  182.9370  177.3680  136.5940 N   0  0  0  0  0  2  0  0  0  0  0  0
  181.8780  176.4530  137.0110 C   0  0  2  0  0  0  0  0  0  0  0  0
  181.1930  176.0170  135.8730 O   0  0  0  0  0  1  0  0  0  0  0  0
  180.9040  177.1720  137.9570 C   0  0  0  0  0  2  0  0  0  0  0  0
  180.2450  177.6640  140.3170 C   0  0  0  0  0  1  0  0  0  0  0  0
  181.1200  176.8070  139.4230 C   0  0  0  0  0  2  0  0  0  0  0  0
  182.5020  175.2410  137.7170 C   0  0  0  0  0  2  0  0  0  0  0  0
  182.5690  173.9960  136.8380 C   0  0  1  0  0  3  0  0  0  0  0  0
  181.7110  171.6950  136.4450 C   0  0  0  0  0  2  0  0  0  0  0  0
  184.1710  172.0780  136.8550 C   0  0  0  0  0  3  0  0  0  0  0  0
  183.0470  171.0710  136.8500 C   0  0  0  0  0  2  0  0  0  0  0  0
  183.9530  173.4030  136.9000 C   0  0  0  0  0  3  0  0  0  0  0  0
  181.4950  172.9800  137.2330 C   0  0  0  0  0  2  0  0  0  0  0  0
  191.9200  177.1150  139.3600 O   0  0  0  0  0  0  0  0  0  0  0  0
  191.8570  174.1390  137.1110 C   0  0  0  0  0  3  0  0  0  0  0  0
  193.2720  174.1980  136.6080 C   0  0  2  0  0  3  0  0  0  0  0  0
  193.3580  176.4850  137.6080 C   0  0  0  0  0  3  0  0  0  0  0  0
  191.3990  175.0810  137.9400 C   0  0  0  0  0  3  0  0  0  0  0  0
  192.2470  176.2400  138.3130 C   0  0  0  0  0  0  0  0  0  0  0  0
  193.7110  175.6520  136.4050 C   0  0  0  0  0  2  0  0  0  0  0  0
  192.9190  172.0520  135.5130 N   0  0  0  0  0  1  0  0  0  0  0  0
  193.3890  173.4120  135.3130 C   0  0  0  0  0  2  0  0  0  0  0  0
  1  6  1  1  0  0  0
  2 11  1  0  0  0  0
  2 12  1  0  0  0  0
  3 10  1  0  0  0  0
  4  8  1  0  0  0  0
  5  1  1  0  0  0  0
  7  9  1  0  0  0  0
  7  4  2  0  0  0  0
  8  1  1  0  0  0  0
  9  5  1  0  0  0  0
 10 11  2  0  0  0  0
 11  7  1  0  0  0  0
 12 15  2  0  0  0  0
 13  2  2  0  0  0  0
 14  3  2  0  0  0  0
 14 13  1  0  0  0  0
 15  4  1  0  0  0  0
 16 19  1  0  0  0  0
 16  3  1  1  0  0  0
 17 22  1  0  0  0  0
 17 20  2  0  0  0  0
 18 20  1  0  0  0  0
 18 16  1  0  0  0  0
 20 21  1  0  0  0  0
 21 19  1  0  0  0  0
 22 23  1  0  0  0  0
 23 24  1  6  0  0  0
 23 28  1  0  0  0  0
 23 25  1  0  0  0  0
 25 27  1  0  0  0  0
 27 26  1  0  0  0  0
 29 33  1  0  0  0  0
 29 34  1  0  0  0  0
 29 28  1  1  0  0  0
 30 32  1  0  0  0  0
 30 34  1  0  0  0  0
 31 33  2  0  0  0  0
 32 31  1  0  0  0  0
 35 13  1  0  0  0  0
 36 39  2  0  0  0  0
 37 43  1  6  0  0  0
 37 36  1  0  0  0  0
 38 40  2  0  0  0  0
 39 40  1  0  0  0  0
 40 35  1  0  0  0  0
 41 37  1  0  0  0  0
 41 38  1  0  0  0  0
 43 42  1  0  0  0  0
M  END
>  <MODEL>
8

>  <REMARK>
 VINA RESULT:      -7.7      3.038      9.387
  Name = 
  10 active torsions:
  status: ('A' for Active; 'I' for Inactive)
    1  A    between atoms: O_1  and  C_34
    2  A    between atoms: O_1  and  C_35
    3  A    between atoms: C_2  and  C_13
    4  A    between atoms: C_3  and  N_4
    5  A    between atoms: N_4  and  C_22
    6  A    between atoms: C_10  and  C_22
    7  A    between atoms: C_10  and  C_42
    8  A    between atoms: C_11  and  C_14
    9  A    between atoms: C_14  and  C_22
   10  A    between atoms: C_19  and  C_37
                            x       y       z     vdW  Elec       q    Type
                         _______ _______ _______ _____ _____    ______ ____

>  <TORSDO>
F 10

$$$$
=
 OpenBabel11052416213D

 43 48  0  0  1  0  0  0  0  0999 V2000
  191.0190  177.0600  146.5250 C   0  0  1  0  0  3  0  0  0  0  0  0
  189.7050  177.8080  141.6190 C   0  0  0  0  0  0  0  0  0  0  0  0
  187.0510  178.6270  141.7130 C   0  0  0  0  0  0  0  0  0  0  0  0
  190.9880  177.0700  144.0090 C   0  0  0  0  0  0  0  0  0  0  0  0
  189.5310  176.7560  146.4590 C   0  0  0  0  0  2  0  0  0  0  0  0
  191.6300  176.3470  147.7100 C   0  0  0  0  0  1  0  0  0  0  0  0
  189.6310  177.4690  144.0400 C   0  0  0  0  0  0  0  0  0  0  0  0
  191.6930  176.5840  145.2420 C   0  0  0  0  0  2  0  0  0  0  0  0
  188.8900  177.5870  145.3500 C   0  0  0  0  0  2  0  0  0  0  0  0
  187.6990  178.2630  142.8520 N   0  0  0  0  0  0  0  0  0  0  0  0
  188.9960  177.8500  142.8440 C   0  0  0  0  0  0  0  0  0  0  0  0
  191.0410  177.3930  141.6070 C   0  0  0  0  0  3  0  0  0  0  0  0
  189.0620  178.1940  140.4310 C   0  0  0  0  0  0  0  0  0  0  0  0
  187.7220  178.5990  140.4900 C   0  0  0  0  0  3  0  0  0  0  0  0
  191.6740  177.0210  142.7930 C   0  0  0  0  0  3  0  0  0  0  0  0
  185.6340  179.0920  141.7620 C   0  0  1  0  0  3  0  0  0  0  0  0
  182.1330  178.7130  140.3810 C   0  0  0  0  0  3  0  0  0  0  0  0
  184.8320  178.9590  140.1240 S   0  0  0  0  0  0  0  0  0  0  0  0
  184.8350  178.2830  142.7790 C   0  0  0  0  0  2  0  0  0  0  0  0
  183.3160  178.6100  140.9740 C   0  0  0  0  0  0  0  0  0  0  0  0
  183.4520  178.2860  142.3460 N   0  0  0  0  0  2  0  0  0  0  0  0
  180.9230  178.4940  141.1100 N   0  0  0  0  0  2  0  0  0  0  0  0
  179.8530  177.6230  140.6310 C   0  0  2  0  0  0  0  0  0  0  0  0
  179.1130  177.1820  141.7320 O   0  0  0  0  0  1  0  0  0  0  0  0
  180.4490  176.4160  139.8920 C   0  0  0  0  0  2  0  0  0  0  0  0
  179.1150  174.7500  138.5920 C   0  0  0  0  0  1  0  0  0  0  0  0
  179.5680  175.1730  139.9760 C   0  0  0  0  0  2  0  0  0  0  0  0
  178.9320  178.4160  139.6920 C   0  0  0  0  0  2  0  0  0  0  0  0
  179.6860  179.1930  138.6180 C   0  0  1  0  0  3  0  0  0  0  0  0
  180.0200  181.3950  137.5120 C   0  0  0  0  0  2  0  0  0  0  0  0
  179.2610  179.4020  136.1640 C   0  0  0  0  0  3  0  0  0  0  0  0
  179.3600  180.9070  136.2220 C   0  0  0  0  0  2  0  0  0  0  0  0
  179.3600  178.6290  137.2590 C   0  0  0  0  0  3  0  0  0  0  0  0
  179.3820  180.6910  138.7020 C   0  0  0  0  0  2  0  0  0  0  0  0
  189.7720  178.1400  139.2170 O   0  0  0  0  0  0  0  0  0  0  0  0
  190.8200  175.1920  137.1840 C   0  0  0  0  0  3  0  0  0  0  0  0
  189.9600  175.4280  135.9730 C   0  0  2  0  0  3  0  0  0  0  0  0
  188.7500  177.1130  137.3640 C   0  0  0  0  0  3  0  0  0  0  0  0
  190.7350  176.0090  138.2370 C   0  0  0  0  0  3  0  0  0  0  0  0
  189.7400  177.1090  138.2640 C   0  0  0  0  0  0  0  0  0  0  0  0
  188.5920  175.9810  136.3840 C   0  0  0  0  0  2  0  0  0  0  0  0
  190.1440  173.0000  136.0370 N   0  0  0  0  0  1  0  0  0  0  0  0
  189.8090  174.1340  135.1920 C   0  0  0  0  0  2  0  0  0  0  0  0
  1  6  1  1  0  0  0
  2 11  1  0  0  0  0
  3 10  1  0  0  0  0
  4  7  2  0  0  0  0
  4  8  1  0  0  0  0
  5  1  1  0  0  0  0
  7  9  1  0  0  0  0
  8  1  1  0  0  0  0
  9  5  1  0  0  0  0
 11 10  2  0  0  0  0
 11  7  1  0  0  0  0
 12  2  1  0  0  0  0
 12 15  2  0  0  0  0
 13 14  1  0  0  0  0
 13  2  2  0  0  0  0
 14  3  2  0  0  0  0
 15  4  1  0  0  0  0
 16  3  1  6  0  0  0
 16 19  1  0  0  0  0
 17 20  2  0  0  0  0
 17 22  1  0  0  0  0
 18 20  1  0  0  0  0
 18 16  1  0  0  0  0
 20 21  1  0  0  0  0
 21 19  1  0  0  0  0
 23 22  1  0  0  0  0
 23 24  1  1  0  0  0
 25 27  1  0  0  0  0
 25 23  1  0  0  0  0
 26 27  1  0  0  0  0
 28 23  1  0  0  0  0
 29 34  1  0  0  0  0
 29 28  1  1  0  0  0
 30 34  1  0  0  0  0
 31 32  1  0  0  0  0
 31 33  2  0  0  0  0
 32 30  1  0  0  0  0
 33 29  1  0  0  0  0
 35 13  1  0  0  0  0
 36 39  2  0  0  0  0
 37 43  1  1  0  0  0
 37 41  1  0  0  0  0
 37 36  1  0  0  0  0
 38 40  2  0  0  0  0
 39 40  1  0  0  0  0
 40 35  1  0  0  0  0
 41 38  1  0  0  0  0
 43 42  1  0  0  0  0
M  END
>  <MODEL>
9

>  <REMARK>
 VINA RESULT:      -7.6      3.058     10.309
  Name = 
  10 active torsions:
  status: ('A' for Active; 'I' for Inactive)
    1  A    between atoms: O_1  and  C_34
    2  A    between atoms: O_1  and  C_35
    3  A    between atoms: C_2  and  C_13
    4  A    between atoms: C_3  and  N_4
    5  A    between atoms: N_4  and  C_22
    6  A    between atoms: C_10  and  C_22
    7  A    between atoms: C_10  and  C_42
    8  A    between atoms: C_11  and  C_14
    9  A    between atoms: C_14  and  C_22
   10  A    between atoms: C_19  and  C_37
                            x       y       z     vdW  Elec       q    Type
                         _______ _______ _______ _____ _____    ______ ____

>  <TORSDO>
F 10

$$$$
