=
 OpenBabel11052412183D

 30 34  0  0  1  0  0  0  0  0999 V2000
  192.5150  176.7520  139.1700 C   0  0  0  0  0  0  0  0  0  0  0  0
  194.4060  175.2680  138.4440 C   0  0  0  0  0  0  0  0  0  0  0  0
  191.2920  176.7030  138.6410 C   0  0  0  0  0  0  0  0  0  0  0  0
  192.8100  177.2150  140.5740 C   0  0  0  0  0  3  0  0  0  0  0  0
  188.9620  178.1310  141.7670 S   0  0  0  0  0  0  0  0  0  0  0  0
  188.6880  178.8240  137.9800 C   0  0  0  0  0  3  0  0  0  0  0  0
  190.2460  177.5260  140.6820 C   0  0  0  0  0  0  0  0  0  0  0  0
  191.5100  177.7580  142.6180 C   0  0  0  0  0  2  0  0  0  0  0  0
  189.5030  176.6840  135.8660 N   0  0  0  0  0  2  0  0  0  0  0  0
  191.5400  177.4540  141.3360 C   0  0  0  0  0  0  0  0  0  0  0  0
  190.0920  177.2110  139.3840 C   0  0  0  0  0  0  0  0  0  0  0  0
  194.6530  174.3140  137.5190 C   0  0  0  0  0  3  0  0  0  0  0  0
  188.2300  176.6950  136.0020 C   0  0  0  0  0  2  0  0  0  0  0  0
  188.0910  179.0230  136.7870 C   0  0  0  0  0  3  0  0  0  0  0  0
  189.7320  176.9390  144.1120 C   0  0  0  0  0  1  0  0  0  0  0  0
  195.0740  175.2160  139.6270 F   0  0  0  0  0  0  0  0  0  0  0  0
  192.6720  175.5940  134.5940 F   0  0  0  0  0  0  0  0  0  0  0  0
  193.9740  174.2680  136.1610 C   0  0  0  0  0  2  0  0  0  0  0  0
  190.1460  178.0480  143.1660 C   0  0  2  0  0  3  0  0  0  0  0  0
  193.5540  176.4870  138.1340 C   0  0  1  0  0  3  0  0  0  0  0  0
  191.4060  176.2010  137.2620 C   0  0  0  0  0  0  0  0  0  0  0  0
  190.2440  175.6230  136.4830 C   0  0  2  0  0  3  0  0  0  0  0  0
  187.4850  177.9760  135.8770 C   0  0  0  0  0  2  0  0  0  0  0  0
  187.8440  176.7530  138.8070 O   0  0  0  0  0  0  0  0  0  0  0  0
  193.4190  175.6330  135.7550 C   0  0  2  0  0  3  0  0  0  0  0  0
  192.7080  176.2210  136.9330 C   0  0  0  0  0  0  0  0  0  0  0  0
  188.8250  177.5360  138.7020 C   0  0  0  0  0  0  0  0  0  0  0  0
  189.3780  174.1720  134.5940 C   0  0  0  0  0  1  0  0  0  0  0  0
  190.4960  174.3950  135.5970 C   0  0  0  0  0  3  0  0  0  0  0  0
  190.6080  173.1540  136.4630 C   0  0  0  0  0  1  0  0  0  0  0  0
  1  4  1  0  0  0  0
  2 16  1  0  0  0  0
  3  1  2  0  0  0  0
  3 11  1  0  0  0  0
  4 10  2  0  0  0  0
  5 19  1  0  0  0  0
  6 27  1  0  0  0  0
  7 10  1  0  0  0  0
  7  5  1  0  0  0  0
  8 19  1  0  0  0  0
  9 13  1  0  0  0  0
  9 22  1  0  0  0  0
 10  8  1  0  0  0  0
 11  7  2  0  0  0  0
 12  2  2  0  0  0  0
 14  6  2  0  0  0  0
 18 12  1  0  0  0  0
 19 15  1  1  0  0  0
 20 26  1  6  0  0  0
 20  2  1  0  0  0  0
 20  1  1  0  0  0  0
 21  3  1  0  0  0  0
 22 29  1  6  0  0  0
 22 21  1  0  0  0  0
 23 13  1  0  0  0  0
 23 14  1  0  0  0  0
 25 17  1  6  0  0  0
 25 18  1  0  0  0  0
 25 26  1  0  0  0  0
 26 21  2  0  0  0  0
 27 24  2  0  0  0  0
 27 11  1  0  0  0  0
 28 29  1  0  0  0  0
 29 30  1  0  0  0  0
M  END
>  <MODEL>
1

>  <REMARK>
 VINA RESULT:      -6.7      0.000      0.000
  Name = 
  1 active torsions:
  status: ('A' for Active; 'I' for Inactive)
    1  A    between atoms: C_11  and  C_25
                            x       y       z     vdW  Elec       q    Type
                         _______ _______ _______ _____ _____    ______ ____

>  <TORSDO>
F 1

$$$$
=
 OpenBabel11052412183D

 30 34  0  0  1  0  0  0  0  0999 V2000
  185.4740  178.5370  139.8480 C   0  0  0  0  0  0  0  0  0  0  0  0
  187.5310  177.5970  138.7580 C   0  0  0  0  0  0  0  0  0  0  0  0
  184.2390  178.0980  139.6020 C   0  0  0  0  0  0  0  0  0  0  0  0
  185.8970  179.1830  141.1430 C   0  0  0  0  0  3  0  0  0  0  0  0
  182.2770  179.0640  143.1310 S   0  0  0  0  0  0  0  0  0  0  0  0
  181.0470  179.3250  139.4820 C   0  0  0  0  0  3  0  0  0  0  0  0
  183.4340  178.7600  141.8040 C   0  0  0  0  0  0  0  0  0  0  0  0
  184.9390  179.5060  143.4100 C   0  0  0  0  0  2  0  0  0  0  0  0
  182.0120  177.3330  137.2880 N   0  0  0  0  0  2  0  0  0  0  0  0
  184.7960  179.1150  142.1600 C   0  0  0  0  0  0  0  0  0  0  0  0
  183.1200  178.3040  140.5780 C   0  0  0  0  0  0  0  0  0  0  0  0
  187.8560  176.6770  137.8220 C   0  0  0  0  0  3  0  0  0  0  0  0
  180.8480  176.9930  137.6990 C   0  0  0  0  0  2  0  0  0  0  0  0
  180.1880  179.2440  138.4450 C   0  0  0  0  0  3  0  0  0  0  0  0
  183.8260  178.3460  145.2750 C   0  0  0  0  0  1  0  0  0  0  0  0
  188.4100  177.8380  139.7650 F   0  0  0  0  0  0  0  0  0  0  0  0
  185.0340  177.0860  135.3750 F   0  0  0  0  0  0  0  0  0  0  0  0
  186.9600  176.3240  136.6470 C   0  0  0  0  0  2  0  0  0  0  0  0
  183.6910  179.4410  144.2370 C   0  0  2  0  0  3  0  0  0  0  0  0
  186.3120  178.4920  138.6150 C   0  0  1  0  0  3  0  0  0  0  0  0
  184.2140  177.5330  138.2420 C   0  0  0  0  0  0  0  0  0  0  0  0
  183.1430  176.5840  137.7500 C   0  0  2  0  0  3  0  0  0  0  0  0
  179.7480  177.9930  137.7130 C   0  0  0  0  0  2  0  0  0  0  0  0
  181.0410  177.1780  140.5180 O   0  0  0  0  0  0  0  0  0  0  0  0
  185.9550  177.4340  136.3430 C   0  0  2  0  0  3  0  0  0  0  0  0
  185.3570  177.8950  137.6350 C   0  0  0  0  0  0  0  0  0  0  0  0
  181.7030  178.1960  140.1840 C   0  0  0  0  0  0  0  0  0  0  0  0
  182.4250  174.9250  135.9720 C   0  0  0  0  0  1  0  0  0  0  0  0
  183.5620  175.4070  136.8570 C   0  0  0  0  0  3  0  0  0  0  0  0
  184.0130  174.2450  137.7220 C   0  0  0  0  0  1  0  0  0  0  0  0
  1  4  1  0  0  0  0
  2 16  1  0  0  0  0
  3  1  2  0  0  0  0
  3 11  1  0  0  0  0
  4 10  2  0  0  0  0
  5 19  1  0  0  0  0
  6 27  1  0  0  0  0
  7 10  1  0  0  0  0
  7  5  1  0  0  0  0
  8 19  1  0  0  0  0
  9 13  1  0  0  0  0
  9 22  1  0  0  0  0
 10  8  1  0  0  0  0
 11  7  2  0  0  0  0
 12  2  2  0  0  0  0
 13 23  1  0  0  0  0
 14  6  2  0  0  0  0
 18 12  1  0  0  0  0
 19 15  1  1  0  0  0
 20 26  1  6  0  0  0
 20  2  1  0  0  0  0
 20  1  1  0  0  0  0
 21  3  1  0  0  0  0
 22 29  1  6  0  0  0
 22 21  1  0  0  0  0
 23 14  1  0  0  0  0
 25 17  1  6  0  0  0
 25 18  1  0  0  0  0
 25 26  1  0  0  0  0
 26 21  2  0  0  0  0
 27 24  2  0  0  0  0
 27 11  1  0  0  0  0
 28 29  1  0  0  0  0
 29 30  1  0  0  0  0
M  END
>  <MODEL>
2

>  <REMARK>
 VINA RESULT:      -6.4      5.677      7.284
  Name = 
  1 active torsions:
  status: ('A' for Active; 'I' for Inactive)
    1  A    between atoms: C_11  and  C_25
                            x       y       z     vdW  Elec       q    Type
                         _______ _______ _______ _____ _____    ______ ____

>  <TORSDO>
F 1

$$$$
=
 OpenBabel11052412183D

 30 34  0  0  1  0  0  0  0  0999 V2000
  186.8120  178.4850  140.7800 C   0  0  0  0  0  0  0  0  0  0  0  0
  184.3300  178.7070  141.0860 C   0  0  0  0  0  0  0  0  0  0  0  0
  187.6430  178.0870  141.7450 C   0  0  0  0  0  0  0  0  0  0  0  0
  187.0780  178.3000  139.3080 C   0  0  0  0  0  3  0  0  0  0  0  0
  190.7700  176.4630  139.5490 S   0  0  0  0  0  0  0  0  0  0  0  0
  190.8720  178.6260  142.7440 C   0  0  0  0  0  3  0  0  0  0  0  0
  189.2530  177.1860  140.1520 C   0  0  0  0  0  0  0  0  0  0  0  0
  188.7060  177.0690  137.8960 C   0  0  0  0  0  2  0  0  0  0  0  0
  188.6050  178.4940  144.8770 N   0  0  0  0  0  2  0  0  0  0  0  0
  188.3100  177.4730  139.0860 C   0  0  0  0  0  0  0  0  0  0  0  0
  188.9870  177.4980  141.4330 C   0  0  0  0  0  0  0  0  0  0  0  0
  183.4110  178.5810  142.0690 C   0  0  0  0  0  3  0  0  0  0  0  0
  189.6060  177.7980  145.2670 C   0  0  0  0  0  2  0  0  0  0  0  0
  191.2840  179.0380  143.9610 C   0  0  0  0  0  3  0  0  0  0  0  0
  189.7690  174.8740  137.5520 C   0  0  0  0  0  1  0  0  0  0  0  0
  183.9550  178.4430  139.8070 F   0  0  0  0  0  0  0  0  0  0  0  0
  185.3110  179.9020  145.0290 F   0  0  0  0  0  0  0  0  0  0  0  0
  183.7070  178.8530  143.5340 C   0  0  0  0  0  2  0  0  0  0  0  0
  190.0120  176.3330  137.8840 C   0  0  2  0  0  3  0  0  0  0  0  0
  185.7020  179.3080  141.3400 C   0  0  1  0  0  3  0  0  0  0  0  0
  187.0440  178.4370  143.0430 C   0  0  0  0  0  0  0  0  0  0  0  0
  187.4600  177.8060  144.3540 C   0  0  2  0  0  3  0  0  0  0  0  0
  190.9620  178.4090  145.3000 C   0  0  0  0  0  2  0  0  0  0  0  0
  190.3390  176.3130  142.9700 O   0  0  0  0  0  0  0  0  0  0  0  0
  184.9300  179.7530  143.7100 C   0  0  2  0  0  3  0  0  0  0  0  0
  186.0120  179.2620  142.8000 C   0  0  0  0  0  0  0  0  0  0  0  0
  190.0640  177.4210  142.4380 C   0  0  0  0  0  0  0  0  0  0  0  0
  186.5330  178.2520  146.6710 C   0  0  0  0  0  1  0  0  0  0  0  0
  186.3710  177.4660  145.3820 C   0  0  0  0  0  3  0  0  0  0  0  0
  186.4300  175.9880  145.7190 C   0  0  0  0  0  1  0  0  0  0  0  0
  1  3  1  0  0  0  0
  2 20  1  0  0  0  0
  2 12  2  0  0  0  0
  3 21  1  0  0  0  0
  4  1  2  0  0  0  0
  5  7  1  0  0  0  0
  6 14  2  0  0  0  0
  7 11  1  0  0  0  0
  8 10  1  0  0  0  0
  9 13  1  0  0  0  0
 10  4  1  0  0  0  0
 10  7  2  0  0  0  0
 11  3  2  0  0  0  0
 11 27  1  0  0  0  0
 12 18  1  0  0  0  0
 13 23  1  0  0  0  0
 14 23  1  0  0  0  0
 16  2  1  0  0  0  0
 18 25  1  0  0  0  0
 19 15  1  1  0  0  0
 19  8  1  0  0  0  0
 19  5  1  0  0  0  0
 20  1  1  6  0  0  0
 20 26  1  0  0  0  0
 21 22  1  0  0  0  0
 22  9  1  0  0  0  0
 22 29  1  1  0  0  0
 25 17  1  1  0  0  0
 26 21  2  0  0  0  0
 26 25  1  0  0  0  0
 27  6  1  0  0  0  0
 27 24  2  0  0  0  0
 29 30  1  0  0  0  0
 29 28  1  0  0  0  0
M  END
>  <MODEL>
3

>  <REMARK>
 VINA RESULT:      -6.1      4.692      8.724
  Name = 
  1 active torsions:
  status: ('A' for Active; 'I' for Inactive)
    1  A    between atoms: C_11  and  C_25
                            x       y       z     vdW  Elec       q    Type
                         _______ _______ _______ _____ _____    ______ ____

>  <TORSDO>
F 1

$$$$
=
 OpenBabel11052412183D

 30 34  0  0  1  0  0  0  0  0999 V2000
  188.0970  177.2770  141.9430 C   0  0  0  0  0  0  0  0  0  0  0  0
  189.3610  177.3230  144.1110 C   0  0  0  0  0  0  0  0  0  0  0  0
  186.9050  177.8490  141.7700 C   0  0  0  0  0  0  0  0  0  0  0  0
  189.0950  177.0540  140.8360 C   0  0  0  0  0  3  0  0  0  0  0  0
  186.9210  178.6170  137.6890 S   0  0  0  0  0  0  0  0  0  0  0  0
  184.0530  177.3540  139.9430 C   0  0  0  0  0  3  0  0  0  0  0  0
  187.2790  178.1870  139.3860 C   0  0  0  0  0  0  0  0  0  0  0  0
  189.3720  177.7560  138.4710 C   0  0  0  0  0  2  0  0  0  0  0  0
  183.8350  178.1980  142.9340 N   0  0  0  0  0  2  0  0  0  0  0  0
  188.6370  177.7030  139.5630 C   0  0  0  0  0  0  0  0  0  0  0  0
  186.4080  178.2380  140.4090 C   0  0  0  0  0  0  0  0  0  0  0  0
  189.1930  177.7650  145.3780 C   0  0  0  0  0  3  0  0  0  0  0  0
  183.0270  178.8970  142.2280 C   0  0  0  0  0  2  0  0  0  0  0  0
  182.7960  177.2420  140.4200 C   0  0  0  0  0  3  0  0  0  0  0  0
  189.3310  179.7030  136.9640 C   0  0  0  0  0  1  0  0  0  0  0  0
  190.6200  177.2740  143.6010 F   0  0  0  0  0  0  0  0  0  0  0  0
  185.5290  177.1210  145.9050 F   0  0  0  0  0  0  0  0  0  0  0  0
  187.8390  177.8620  146.0600 C   0  0  0  0  0  2  0  0  0  0  0  0
  188.6920  178.3660  137.2830 C   0  0  2  0  0  3  0  0  0  0  0  0
  188.2210  176.7100  143.3170 C   0  0  1  0  0  3  0  0  0  0  0  0
  186.2200  177.8920  143.0730 C   0  0  0  0  0  0  0  0  0  0  0  0
  185.0550  178.8090  143.3760 C   0  0  2  0  0  3  0  0  0  0  0  0
  182.0660  178.2180  141.3180 C   0  0  0  0  0  2  0  0  0  0  0  0
  184.5790  179.6790  139.9920 O   0  0  0  0  0  0  0  0  0  0  0  0
  186.8040  176.9510  145.4010 C   0  0  2  0  0  3  0  0  0  0  0  0
  186.9130  177.1100  143.9170 C   0  0  0  0  0  0  0  0  0  0  0  0
  184.9810  178.4940  140.1360 C   0  0  0  0  0  0  0  0  0  0  0  0
  183.7640  179.0630  145.5420 C   0  0  0  0  0  1  0  0  0  0  0  0
  184.9920  179.4820  144.7550 C   0  0  0  0  0  3  0  0  0  0  0  0
  184.9550  180.9890  144.5860 C   0  0  0  0  0  1  0  0  0  0  0  0
  2 12  2  0  0  0  0
  3  1  1  0  0  0  0
  3 21  1  0  0  0  0
  4  1  2  0  0  0  0
  5  7  1  0  0  0  0
  6 27  1  0  0  0  0
  6 14  2  0  0  0  0
  7 10  2  0  0  0  0
  7 11  1  0  0  0  0
  8 10  1  0  0  0  0
  9 22  1  0  0  0  0
 10  4  1  0  0  0  0
 11  3  2  0  0  0  0
 12 18  1  0  0  0  0
 13  9  1  0  0  0  0
 14 23  1  0  0  0  0
 16  2  1  0  0  0  0
 19 15  1  1  0  0  0
 19  5  1  0  0  0  0
 19  8  1  0  0  0  0
 20  1  1  6  0  0  0
 20 26  1  0  0  0  0
 20  2  1  0  0  0  0
 21 22  1  0  0  0  0
 21 26  2  0  0  0  0
 22 29  1  1  0  0  0
 23 13  1  0  0  0  0
 24 27  2  0  0  0  0
 25 17  1  1  0  0  0
 25 18  1  0  0  0  0
 26 25  1  0  0  0  0
 27 11  1  0  0  0  0
 29 28  1  0  0  0  0
 30 29  1  0  0  0  0
M  END
>  <MODEL>
4

>  <REMARK>
 VINA RESULT:      -6.0      4.833      8.181
  Name = 
  1 active torsions:
  status: ('A' for Active; 'I' for Inactive)
    1  A    between atoms: C_11  and  C_25
                            x       y       z     vdW  Elec       q    Type
                         _______ _______ _______ _____ _____    ______ ____

>  <TORSDO>
F 1

$$$$
=
 OpenBabel11052412183D

 30 34  0  0  1  0  0  0  0  0999 V2000
  188.2030  178.3010  140.1280 C   0  0  0  0  0  0  0  0  0  0  0  0
  190.1640  177.4390  138.8190 C   0  0  0  0  0  0  0  0  0  0  0  0
  186.9320  178.0790  139.7880 C   0  0  0  0  0  0  0  0  0  0  0  0
  188.6670  178.5480  141.5400 C   0  0  0  0  0  3  0  0  0  0  0  0
  185.0160  178.3420  143.4620 S   0  0  0  0  0  0  0  0  0  0  0  0
  183.8980  179.6490  140.0070 C   0  0  0  0  0  3  0  0  0  0  0  0
  186.1590  178.2530  142.0920 C   0  0  0  0  0  0  0  0  0  0  0  0
  187.7040  178.3970  143.8230 C   0  0  0  0  0  2  0  0  0  0  0  0
  184.6820  178.1770  137.3740 N   0  0  0  0  0  2  0  0  0  0  0  0
  187.5450  178.3520  142.5160 C   0  0  0  0  0  0  0  0  0  0  0  0
  185.8220  178.1580  140.7940 C   0  0  0  0  0  0  0  0  0  0  0  0
  190.4040  176.7540  137.6790 C   0  0  0  0  0  3  0  0  0  0  0  0
  183.4790  177.8780  137.6950 C   0  0  0  0  0  2  0  0  0  0  0  0
  183.0580  179.9280  138.9890 C   0  0  0  0  0  3  0  0  0  0  0  0
  186.4300  176.9380  145.3440 C   0  0  0  0  0  1  0  0  0  0  0  0
  191.0430  177.3180  139.8480 F   0  0  0  0  0  0  0  0  0  0  0  0
  187.6970  178.0790  135.4370 F   0  0  0  0  0  0  0  0  0  0  0  0
  189.5000  176.8100  136.4600 C   0  0  0  0  0  2  0  0  0  0  0  0
  186.4400  178.2680  144.6170 C   0  0  2  0  0  3  0  0  0  0  0  0
  189.0560  178.4720  138.9170 C   0  0  1  0  0  3  0  0  0  0  0  0
  186.8730  177.8810  138.3300 C   0  0  0  0  0  0  0  0  0  0  0  0
  185.7130  177.2130  137.6230 C   0  0  2  0  0  3  0  0  0  0  0  0
  182.4970  178.9600  137.9690 C   0  0  0  0  0  2  0  0  0  0  0  0
  183.6330  177.3250  140.4680 O   0  0  0  0  0  0  0  0  0  0  0  0
  188.6310  178.0670  136.4540 C   0  0  2  0  0  3  0  0  0  0  0  0
  188.0610  178.2530  137.8250 C   0  0  0  0  0  0  0  0  0  0  0  0
  184.4100  178.3130  140.3970 C   0  0  0  0  0  0  0  0  0  0  0  0
  184.8880  176.2130  135.4450 C   0  0  0  0  0  1  0  0  0  0  0  0
  186.0170  176.2590  136.4590 C   0  0  0  0  0  3  0  0  0  0  0  0
  186.2310  174.8540  136.9920 C   0  0  0  0  0  1  0  0  0  0  0  0
  1  4  1  0  0  0  0
  2 20  1  0  0  0  0
  2 16  1  0  0  0  0
  3  1  2  0  0  0  0
  3 11  1  0  0  0  0
  4 10  2  0  0  0  0
  5 19  1  0  0  0  0
  6 27  1  0  0  0  0
  7 10  1  0  0  0  0
  7  5  1  0  0  0  0
  8 19  1  0  0  0  0
  9 22  1  0  0  0  0
  9 13  1  0  0  0  0
 10  8  1  0  0  0  0
 11  7  2  0  0  0  0
 12  2  2  0  0  0  0
 13 23  1  0  0  0  0
 14  6  2  0  0  0  0
 18 12  1  0  0  0  0
 19 15  1  6  0  0  0
 20 26  1  6  0  0  0
 20  1  1  0  0  0  0
 21  3  1  0  0  0  0
 22 29  1  6  0  0  0
 22 21  1  0  0  0  0
 23 14  1  0  0  0  0
 25 17  1  6  0  0  0
 25 18  1  0  0  0  0
 25 26  1  0  0  0  0
 26 21  2  0  0  0  0
 27 24  2  0  0  0  0
 27 11  1  0  0  0  0
 28 29  1  0  0  0  0
 29 30  1  0  0  0  0
M  END
>  <MODEL>
5

>  <REMARK>
 VINA RESULT:      -6.0      3.531      4.830
  Name = 
  1 active torsions:
  status: ('A' for Active; 'I' for Inactive)
    1  A    between atoms: C_11  and  C_25
                            x       y       z     vdW  Elec       q    Type
                         _______ _______ _______ _____ _____    ______ ____

>  <TORSDO>
F 1

$$$$
=
 OpenBabel11052412183D

 30 34  0  0  1  0  0  0  0  0999 V2000
  184.7250  178.7930  140.8340 C   0  0  0  0  0  0  0  0  0  0  0  0
  185.4240  178.0260  138.5490 C   0  0  0  0  0  0  0  0  0  0  0  0
  183.5190  178.5620  141.3550 C   0  0  0  0  0  0  0  0  0  0  0  0
  185.9750  178.9880  141.6540 C   0  0  0  0  0  3  0  0  0  0  0  0
  184.3300  178.6310  145.4270 S   0  0  0  0  0  0  0  0  0  0  0  0
  181.3110  180.0640  143.4960 C   0  0  0  0  0  3  0  0  0  0  0  0
  184.3620  178.6220  143.6410 C   0  0  0  0  0  0  0  0  0  0  0  0
  186.6520  178.7210  144.0270 C   0  0  0  0  0  2  0  0  0  0  0  0
  180.2540  178.7220  140.8890 N   0  0  0  0  0  2  0  0  0  0  0  0
  185.7080  178.7290  143.1070 C   0  0  0  0  0  0  0  0  0  0  0  0
  183.2850  178.5770  142.8360 C   0  0  0  0  0  0  0  0  0  0  0  0
  184.8890  177.3940  137.4800 C   0  0  0  0  0  3  0  0  0  0  0  0
  179.5150  178.3870  141.8790 C   0  0  0  0  0  2  0  0  0  0  0  0
  180.0210  180.3710  143.2430 C   0  0  0  0  0  3  0  0  0  0  0  0
  186.5930  177.1740  145.9420 C   0  0  0  0  0  1  0  0  0  0  0  0
  186.7530  177.8770  138.7940 F   0  0  0  0  0  0  0  0  0  0  0  0
  181.3910  178.7650  137.4890 F   0  0  0  0  0  0  0  0  0  0  0  0
  183.4210  177.4870  137.1000 C   0  0  0  0  0  2  0  0  0  0  0  0
  186.1620  178.5330  145.4310 C   0  0  2  0  0  3  0  0  0  0  0  0
  184.6340  179.0330  139.3650 C   0  0  1  0  0  3  0  0  0  0  0  0
  182.5580  178.4260  140.2490 C   0  0  0  0  0  0  0  0  0  0  0  0
  181.2030  177.7670  140.3940 C   0  0  2  0  0  3  0  0  0  0  0  0
  178.9340  179.4380  142.7560 C   0  0  0  0  0  2  0  0  0  0  0  0
  181.3640  177.7180  143.9160 O   0  0  0  0  0  0  0  0  0  0  0  0
  182.7550  178.7260  137.6960 C   0  0  2  0  0  3  0  0  0  0  0  0
  183.1720  178.8420  139.1280 C   0  0  0  0  0  0  0  0  0  0  0  0
  181.9370  178.7230  143.4180 C   0  0  0  0  0  0  0  0  0  0  0  0
  179.1830  176.8480  139.1680 C   0  0  0  0  0  1  0  0  0  0  0  0
  180.6990  176.8710  139.2540 C   0  0  0  0  0  3  0  0  0  0  0  0
  181.1810  175.4480  139.4720 C   0  0  0  0  0  1  0  0  0  0  0  0
  1  3  2  0  0  0  0
  1  4  1  0  0  0  0
  2 16  1  0  0  0  0
  3 11  1  0  0  0  0
  4 10  2  0  0  0  0
  5 19  1  0  0  0  0
  7  5  1  0  0  0  0
  8 19  1  0  0  0  0
  9 13  1  0  0  0  0
 10  7  1  0  0  0  0
 10  8  1  0  0  0  0
 11 27  1  0  0  0  0
 11  7  2  0  0  0  0
 12  2  2  0  0  0  0
 13 23  1  0  0  0  0
 14  6  2  0  0  0  0
 18 12  1  0  0  0  0
 18 25  1  0  0  0  0
 19 15  1  6  0  0  0
 20  2  1  6  0  0  0
 20  1  1  0  0  0  0
 21 22  1  0  0  0  0
 21  3  1  0  0  0  0
 22 29  1  6  0  0  0
 22  9  1  0  0  0  0
 23 14  1  0  0  0  0
 25 17  1  1  0  0  0
 25 26  1  0  0  0  0
 26 20  1  0  0  0  0
 26 21  2  0  0  0  0
 27  6  1  0  0  0  0
 27 24  2  0  0  0  0
 28 29  1  0  0  0  0
 29 30  1  0  0  0  0
M  END
>  <MODEL>
6

>  <REMARK>
 VINA RESULT:      -6.0      7.124      9.157
  Name = 
  1 active torsions:
  status: ('A' for Active; 'I' for Inactive)
    1  A    between atoms: C_11  and  C_25
                            x       y       z     vdW  Elec       q    Type
                         _______ _______ _______ _____ _____    ______ ____

>  <TORSDO>
F 1

$$$$
=
 OpenBabel11052412183D

 30 34  0  0  1  0  0  0  0  0999 V2000
  184.8210  173.0570  136.9600 C   0  0  0  0  0  0  0  0  0  0  0  0
  186.9150  172.3950  135.7460 C   0  0  0  0  0  0  0  0  0  0  0  0
  184.4310  174.3220  137.1260 C   0  0  0  0  0  0  0  0  0  0  0  0
  183.8780  171.8820  136.9220 C   0  0  0  0  0  3  0  0  0  0  0  0
  180.3180  173.8950  137.5040 S   0  0  0  0  0  0  0  0  0  0  0  0
  182.7370  176.2110  139.4230 C   0  0  0  0  0  3  0  0  0  0  0  0
  182.0770  173.7050  137.2560 C   0  0  0  0  0  0  0  0  0  0  0  0
  181.4250  171.5230  136.7940 C   0  0  0  0  0  2  0  0  0  0  0  0
  185.3060  177.3580  138.0830 N   0  0  0  0  0  2  0  0  0  0  0  0
  182.4500  172.3400  136.9320 C   0  0  0  0  0  0  0  0  0  0  0  0
  182.9980  174.6750  137.3940 C   0  0  0  0  0  0  0  0  0  0  0  0
  187.9730  172.9850  135.1460 C   0  0  0  0  0  3  0  0  0  0  0  0
  184.3860  178.2480  138.0860 C   0  0  0  0  0  2  0  0  0  0  0  0
  183.1750  177.3370  140.0250 C   0  0  0  0  0  3  0  0  0  0  0  0
  179.3870  172.1800  135.5800 C   0  0  0  0  0  1  0  0  0  0  0  0
  186.4960  171.1870  135.2840 F   0  0  0  0  0  0  0  0  0  0  0  0
  188.5290  175.9520  137.3820 F   0  0  0  0  0  0  0  0  0  0  0  0
  188.5370  174.3290  135.5730 C   0  0  0  0  0  2  0  0  0  0  0  0
  180.0800  172.1700  136.9270 C   0  0  2  0  0  3  0  0  0  0  0  0
  186.3060  172.9450  137.0230 C   0  0  1  0  0  3  0  0  0  0  0  0
  185.6270  175.1790  137.1070 C   0  0  0  0  0  0  0  0  0  0  0  0
  185.5840  176.6710  136.8550 C   0  0  2  0  0  3  0  0  0  0  0  0
  183.6950  178.5920  139.3580 C   0  0  0  0  0  2  0  0  0  0  0  0
  182.0810  176.8490  137.2210 O   0  0  0  0  0  0  0  0  0  0  0  0
  188.1540  174.6760  137.0110 C   0  0  2  0  0  3  0  0  0  0  0  0
  186.7000  174.3750  137.1970 C   0  0  0  0  0  0  0  0  0  0  0  0
  182.6030  175.9770  137.9650 C   0  0  0  0  0  0  0  0  0  0  0  0
  187.1900  178.6090  136.5570 C   0  0  0  0  0  1  0  0  0  0  0  0
  186.6810  177.2980  135.9840 C   0  0  0  0  0  3  0  0  0  0  0  0
  186.1370  177.5700  134.5940 C   0  0  0  0  0  1  0  0  0  0  0  0
  1 20  1  0  0  0  0
  1  3  1  0  0  0  0
  3 11  2  0  0  0  0
  4 10  1  0  0  0  0
  4  1  2  0  0  0  0
  6 14  2  0  0  0  0
  7 11  1  0  0  0  0
  7  5  1  0  0  0  0
  8 19  1  0  0  0  0
  8 10  1  0  0  0  0
  9 13  1  0  0  0  0
 10  7  2  0  0  0  0
 11 27  1  0  0  0  0
 12 18  1  0  0  0  0
 12  2  2  0  0  0  0
 13 23  1  0  0  0  0
 16  2  1  0  0  0  0
 18 25  1  0  0  0  0
 19 15  1  6  0  0  0
 19  5  1  0  0  0  0
 20  2  1  6  0  0  0
 20 26  1  0  0  0  0
 21  3  1  0  0  0  0
 21 26  2  0  0  0  0
 22 29  1  1  0  0  0
 22 21  1  0  0  0  0
 22  9  1  0  0  0  0
 23 14  1  0  0  0  0
 24 27  2  0  0  0  0
 25 26  1  0  0  0  0
 25 17  1  6  0  0  0
 27  6  1  0  0  0  0
 29 28  1  0  0  0  0
 30 29  1  0  0  0  0
M  END
>  <MODEL>
7

>  <REMARK>
 VINA RESULT:      -5.6      5.627      8.175
  Name = 
  1 active torsions:
  status: ('A' for Active; 'I' for Inactive)
    1  A    between atoms: C_11  and  C_25
                            x       y       z     vdW  Elec       q    Type
                         _______ _______ _______ _____ _____    ______ ____

>  <TORSDO>
F 1

$$$$
=
 OpenBabel11052412183D

 30 34  0  0  1  0  0  0  0  0999 V2000
  185.1020  178.0390  138.6780 C   0  0  0  0  0  0  0  0  0  0  0  0
  186.7750  176.9150  137.1820 C   0  0  0  0  0  0  0  0  0  0  0  0
  183.8310  177.6520  138.7880 C   0  0  0  0  0  0  0  0  0  0  0  0
  185.8650  178.7490  139.7670 C   0  0  0  0  0  3  0  0  0  0  0  0
  182.8750  178.9650  142.6100 S   0  0  0  0  0  0  0  0  0  0  0  0
  180.7590  179.0410  139.3820 C   0  0  0  0  0  3  0  0  0  0  0  0
  183.6410  178.5070  141.0620 C   0  0  0  0  0  0  0  0  0  0  0  0
  185.5330  179.2790  142.1690 C   0  0  0  0  0  2  0  0  0  0  0  0
  181.0580  176.8530  137.1830 N   0  0  0  0  0  2  0  0  0  0  0  0
  185.0610  178.8110  141.0320 C   0  0  0  0  0  0  0  0  0  0  0  0
  183.0070  177.9860  139.9970 C   0  0  0  0  0  0  0  0  0  0  0  0
  186.8170  175.9170  136.2720 C   0  0  0  0  0  3  0  0  0  0  0  0
  180.0280  176.6060  137.9020 C   0  0  0  0  0  2  0  0  0  0  0  0
  179.6610  178.9360  138.6060 C   0  0  0  0  0  3  0  0  0  0  0  0
  184.8960  178.3120  144.3430 C   0  0  0  0  0  1  0  0  0  0  0  0
  187.8920  177.1760  137.9120 F   0  0  0  0  0  0  0  0  0  0  0  0
  183.4780  176.3100  134.5940 F   0  0  0  0  0  0  0  0  0  0  0  0
  185.6380  175.5330  135.3940 C   0  0  0  0  0  2  0  0  0  0  0  0
  184.5380  179.3400  143.2880 C   0  0  2  0  0  3  0  0  0  0  0  0
  185.5930  177.8630  137.2810 C   0  0  1  0  0  3  0  0  0  0  0  0
  183.4380  176.9980  137.5290 C   0  0  0  0  0  0  0  0  0  0  0  0
  182.2440  176.0760  137.4030 C   0  0  2  0  0  3  0  0  0  0  0  0
  179.0040  177.6640  138.1120 C   0  0  0  0  0  2  0  0  0  0  0  0
  180.9440  176.9740  140.5560 O   0  0  0  0  0  0  0  0  0  0  0  0
  184.6280  176.6730  135.2660 C   0  0  2  0  0  3  0  0  0  0  0  0
  184.3980  177.2540  136.6260 C   0  0  0  0  0  0  0  0  0  0  0  0
  181.5330  177.9290  139.9840 C   0  0  0  0  0  0  0  0  0  0  0  0
  181.0270  174.2590  136.1210 C   0  0  0  0  0  1  0  0  0  0  0  0
  182.3770  174.8200  136.5300 C   0  0  0  0  0  3  0  0  0  0  0  0
  183.1240  173.7440  137.2960 C   0  0  0  0  0  1  0  0  0  0  0  0
  1  3  2  0  0  0  0
  1  4  1  0  0  0  0
  2 20  1  0  0  0  0
  2 16  1  0  0  0  0
  3 11  1  0  0  0  0
  4 10  2  0  0  0  0
  5 19  1  0  0  0  0
  6 27  1  0  0  0  0
  7  5  1  0  0  0  0
  8 19  1  0  0  0  0
  9 22  1  0  0  0  0
  9 13  1  0  0  0  0
 10  7  1  0  0  0  0
 10  8  1  0  0  0  0
 11  7  2  0  0  0  0
 12  2  2  0  0  0  0
 13 23  1  0  0  0  0
 14  6  2  0  0  0  0
 18 12  1  0  0  0  0
 19 15  1  1  0  0  0
 20 26  1  6  0  0  0
 20  1  1  0  0  0  0
 21  3  1  0  0  0  0
 22 29  1  6  0  0  0
 22 21  1  0  0  0  0
 23 14  1  0  0  0  0
 25 17  1  1  0  0  0
 25 18  1  0  0  0  0
 25 26  1  0  0  0  0
 26 21  2  0  0  0  0
 27 11  1  0  0  0  0
 27 24  2  0  0  0  0
 28 29  1  0  0  0  0
 29 30  1  0  0  0  0
M  END
>  <MODEL>
8

>  <REMARK>
 VINA RESULT:      -5.6      5.902      7.722
  Name = 
  1 active torsions:
  status: ('A' for Active; 'I' for Inactive)
    1  A    between atoms: C_11  and  C_25
                            x       y       z     vdW  Elec       q    Type
                         _______ _______ _______ _____ _____    ______ ____

>  <TORSDO>
F 1

$$$$
=
 OpenBabel11052412183D

 30 34  0  0  1  0  0  0  0  0999 V2000
  184.5880  177.6720  138.2340 C   0  0  0  0  0  0  0  0  0  0  0  0
  183.0060  179.5450  138.7740 C   0  0  0  0  0  0  0  0  0  0  0  0
  184.2480  176.6000  137.5180 C   0  0  0  0  0  0  0  0  0  0  0  0
  185.9900  178.2170  138.3230 C   0  0  0  0  0  3  0  0  0  0  0  0
  187.9050  175.4550  135.9210 S   0  0  0  0  0  0  0  0  0  0  0  0
  185.0430  173.2770  137.3220 C   0  0  0  0  0  3  0  0  0  0  0  0
  186.5270  176.2530  136.7300 C   0  0  0  0  0  0  0  0  0  0  0  0
  188.1600  177.8460  137.1750 C   0  0  0  0  0  2  0  0  0  0  0  0
  182.0630  174.1590  137.1030 N   0  0  0  0  0  2  0  0  0  0  0  0
  186.9060  177.4960  137.3790 C   0  0  0  0  0  0  0  0  0  0  0  0
  185.2740  175.7710  136.8040 C   0  0  0  0  0  0  0  0  0  0  0  0
  181.7050  179.8630  138.5910 C   0  0  0  0  0  3  0  0  0  0  0  0
  182.3270  173.2990  136.1930 C   0  0  0  0  0  2  0  0  0  0  0  0
  184.1890  172.2350  137.4000 C   0  0  0  0  0  3  0  0  0  0  0  0
  189.2250  177.6580  134.9630 C   0  0  0  0  0  1  0  0  0  0  0  0
  183.9170  180.5510  138.8460 F   0  0  0  0  0  0  0  0  0  0  0  0
  180.0680  176.4990  138.9470 F   0  0  0  0  0  0  0  0  0  0  0  0
  180.5950  178.8300  138.4990 C   0  0  0  0  0  2  0  0  0  0  0  0
  188.9280  176.9390  136.2630 C   0  0  2  0  0  3  0  0  0  0  0  0
  183.4510  178.1270  139.0850 C   0  0  1  0  0  3  0  0  0  0  0  0
  182.8010  176.3790  137.6780 C   0  0  0  0  0  0  0  0  0  0  0  0
  181.9720  175.5410  136.7280 C   0  0  2  0  0  3  0  0  0  0  0  0
  182.9500  172.0000  136.5630 C   0  0  0  0  0  2  0  0  0  0  0  0
  184.8000  174.1730  135.1260 O   0  0  0  0  0  0  0  0  0  0  0  0
  180.9980  177.5020  139.1390 C   0  0  2  0  0  3  0  0  0  0  0  0
  182.3830  177.1620  138.6870 C   0  0  0  0  0  0  0  0  0  0  0  0
  184.9960  174.3950  136.3510 C   0  0  0  0  0  0  0  0  0  0  0  0
  179.6240  174.8820  136.0360 C   0  0  0  0  0  1  0  0  0  0  0  0
  180.5660  176.0300  136.3560 C   0  0  0  0  0  3  0  0  0  0  0  0
  180.6440  176.9310  135.1370 C   0  0  0  0  0  1  0  0  0  0  0  0
  1  4  1  0  0  0  0
  2 16  1  0  0  0  0
  2 20  1  0  0  0  0
  3 21  1  0  0  0  0
  3  1  2  0  0  0  0
  5 19  1  0  0  0  0
  5  7  1  0  0  0  0
  6 14  2  0  0  0  0
  7 11  2  0  0  0  0
  7 10  1  0  0  0  0
  8 10  1  0  0  0  0
 10  4  2  0  0  0  0
 11  3  1  0  0  0  0
 12  2  2  0  0  0  0
 13 23  1  0  0  0  0
 13  9  1  0  0  0  0
 18 12  1  0  0  0  0
 18 25  1  0  0  0  0
 19 15  1  6  0  0  0
 19  8  1  0  0  0  0
 20  1  1  6  0  0  0
 21 26  2  0  0  0  0
 22 29  1  1  0  0  0
 22  9  1  0  0  0  0
 22 21  1  0  0  0  0
 23 14  1  0  0  0  0
 24 27  2  0  0  0  0
 25 17  1  6  0  0  0
 26 20  1  0  0  0  0
 26 25  1  0  0  0  0
 27 11  1  0  0  0  0
 27  6  1  0  0  0  0
 28 29  1  0  0  0  0
 30 29  1  0  0  0  0
M  END
>  <MODEL>
9

>  <REMARK>
 VINA RESULT:      -5.5      6.180      9.214
  Name = 
  1 active torsions:
  status: ('A' for Active; 'I' for Inactive)
    1  A    between atoms: C_11  and  C_25
                            x       y       z     vdW  Elec       q    Type
                         _______ _______ _______ _____ _____    ______ ____

>  <TORSDO>
F 1

$$$$
