=
 OpenBabel11052416283D

 43 48  0  0  1  0  0  0  0  0999 V2000
  191.3770  176.5320  147.0890 C   0  0  0  0  0  0  0  0  0  0  0  0
  189.2380  177.1860  142.5950 C   0  0  0  0  0  0  0  0  0  0  0  0
  190.7480  176.3580  144.7010 C   0  0  2  0  0  3  0  0  0  0  0  0
  190.0630  177.2190  147.4170 C   0  0  0  0  0  2  0  0  0  0  0  0
  192.2900  176.3680  148.0790 F   0  0  0  0  0  0  0  0  0  0  0  0
  189.8150  177.5500  144.9510 C   0  0  2  0  0  3  0  0  0  0  0  0
  191.7220  176.2080  145.8300 C   0  0  0  0  0  3  0  0  0  0  0  0
  189.0680  177.2750  146.2460 C   0  0  0  0  0  2  0  0  0  0  0  0
  187.7240  178.4500  143.7210 N   0  0  0  0  0  2  0  0  0  0  0  0
  188.9100  177.6830  143.7670 C   0  0  0  0  0  0  0  0  0  0  0  0
  190.4240  176.2630  142.4460 C   0  0  0  0  0  2  0  0  0  0  0  0
  188.1980  177.4850  141.5780 C   0  0  1  0  0  3  0  0  0  0  0  0
  187.2080  178.3740  142.3550 C   0  0  1  0  0  3  0  0  0  0  0  0
  191.3950  176.4990  143.4550 O   0  0  0  0  0  0  0  0  0  0  0  0
  188.8080  178.2690  140.4290 C   0  0  0  0  0  2  0  0  0  0  0  0
  187.8310  178.5550  139.4750 O   0  0  0  0  0  0  0  0  0  0  0  0
  187.4990  177.7280  135.8970 C   0  0  0  0  0  2  0  0  0  0  0  0
  190.2170  176.5680  137.4370 C   0  0  0  0  0  2  0  0  0  0  0  0
  189.8840  176.8310  135.9740 C   0  0  0  0  0  2  0  0  0  0  0  0
  187.8190  178.6290  137.0930 C   0  0  0  0  0  2  0  0  0  0  0  0
  188.2260  177.8480  138.3380 C   0  0  0  0  0  3  0  0  0  0  0  0
  188.4190  176.5150  135.7160 C   0  0  0  0  0  2  0  0  0  0  0  0
  189.7430  177.6940  138.3500 C   0  0  0  0  0  2  0  0  0  0  0  0
  185.9470  177.7740  142.3630 O   0  0  0  0  0  0  0  0  0  0  0  0
  185.0680  178.7810  141.9650 C   0  0  1  0  0  3  0  0  0  0  0  0
  184.0610  178.2050  140.9860 C   0  0  1  0  0  3  0  0  0  0  0  0
  183.6710  178.4380  142.4330 C   0  0  0  0  0  2  0  0  0  0  0  0
  183.4840  179.3210  140.1200 C   0  0  1  0  0  3  0  0  0  0  0  0
  184.4790  179.8120  139.2720 O   0  0  0  0  0  1  0  0  0  0  0  0
  181.9480  177.5490  139.6180 O   0  0  0  0  0  1  0  0  0  0  0  0
  182.2640  178.8770  139.2890 C   0  0  1  0  0  0  0  0  0  0  0  0
  181.0650  179.7990  139.5730 C   0  0  0  0  0  2  0  0  0  0  0  0
  180.1310  179.9200  141.5690 C   0  0  0  0  0  1  0  0  0  0  0  0
  180.1250  179.1710  140.3930 O   0  0  0  0  0  0  0  0  0  0  0  0
  182.6260  178.9830  137.9210 O   0  0  0  0  0  0  0  0  0  0  0  0
  182.2670  177.8100  137.2290 C   0  0  1  0  0  3  0  0  0  0  0  0
  181.2430  178.1090  136.3260 O   0  0  0  0  0  1  0  0  0  0  0  0
  183.4800  177.2620  136.4740 C   0  0  0  0  0  3  0  0  0  0  0  0
  182.6260  175.0020  135.7740 C   0  0  0  0  0  2  0  0  0  0  0  0
  183.8360  175.0830  137.6740 C   0  0  0  0  0  2  0  0  0  0  0  0
  183.6880  174.3880  136.4610 O   0  0  0  0  0  0  0  0  0  0  0  0
  184.4100  176.4770  137.4070 C   0  0  0  0  0  2  0  0  0  0  0  0
  183.0540  176.3900  135.2860 C   0  0  0  0  0  2  0  0  0  0  0  0
  1  4  1  0  0  0  0
  1  5  1  0  0  0  0
  2 10  2  0  0  0  0
  3  6  1  0  0  0  0
  3  7  1  1  0  0  0
  6  8  1  1  0  0  0
  7  1  2  0  0  0  0
  8  4  1  0  0  0  0
  9 10  1  0  0  0  0
 10  6  1  0  0  0  0
 11  2  1  0  0  0  0
 11 14  1  0  0  0  0
 12 15  1  6  0  0  0
 12 13  1  0  0  0  0
 12  2  1  0  0  0  0
 13 24  1  1  0  0  0
 13  9  1  0  0  0  0
 14  3  1  0  0  0  0
 16 15  1  0  0  0  0
 17 20  1  0  0  0  0
 18 23  1  0  0  0  0
 19 18  1  0  0  0  0
 20 21  1  0  0  0  0
 21 23  1  0  0  0  0
 21 16  1  0  0  0  0
 22 17  1  0  0  0  0
 22 19  1  0  0  0  0
 25 24  1  1  0  0  0
 25 27  1  0  0  0  0
 26 28  1  6  0  0  0
 26 25  1  0  0  0  0
 26 27  1  0  0  0  0
 28 29  1  6  0  0  0
 31 32  1  0  0  0  0
 31 30  1  1  0  0  0
 31 28  1  0  0  0  0
 32 34  1  0  0  0  0
 34 33  1  0  0  0  0
 35 31  1  0  0  0  0
 36 37  1  6  0  0  0
 36 35  1  0  0  0  0
 38 36  1  0  0  0  0
 38 42  1  0  0  0  0
 39 41  1  0  0  0  0
 41 40  1  0  0  0  0
 42 40  1  0  0  0  0
 43 39  1  0  0  0  0
 43 38  1  0  0  0  0
M  END
>  <MODEL>
1

>  <REMARK>
 VINA RESULT:      -7.7      0.000      0.000
  Name = 
  12 active torsions:
  status: ('A' for Active; 'I' for Inactive)
    1  A    between atoms: C_1  and  O_28
    2  A    between atoms: C_1  and  C_34
    3  A    between atoms: C_2  and  O_13
    4  A    between atoms: C_4  and  C_12
    5  A    between atoms: C_4  and  C_15
    6  A    between atoms: C_4  and  O_22
    7  A    between atoms: C_6  and  C_12
    8  A    between atoms: C_11  and  C_14
    9  A    between atoms: O_13  and  C_38
   10  A    between atoms: C_14  and  O_22
   11  A    between atoms: C_15  and  O_42
   12  A    between atoms: O_28  and  C_35
                            x       y       z     vdW  Elec       q    Type
                         _______ _______ _______ _____ _____    ______ ____

>  <TORSDO>
F 12

$$$$
=
 OpenBabel11052416283D

 43 48  0  0  1  0  0  0  0  0999 V2000
  182.0910  179.0230  143.1480 C   0  0  0  0  0  0  0  0  0  0  0  0
  186.9900  177.9570  142.9010 C   0  0  0  0  0  0  0  0  0  0  0  0
  184.3730  178.1820  143.6090 C   0  0  2  0  0  3  0  0  0  0  0  0
  182.4180  179.1940  141.6740 C   0  0  0  0  0  2  0  0  0  0  0  0
  180.8700  179.4110  143.5920 F   0  0  0  0  0  0  0  0  0  0  0  0
  184.8120  178.9430  142.3520 C   0  0  2  0  0  3  0  0  0  0  0  0
  183.0120  178.6320  144.0470 C   0  0  0  0  0  3  0  0  0  0  0  0
  183.7940  178.6430  141.2630 C   0  0  0  0  0  2  0  0  0  0  0  0
  186.8460  178.7180  140.7660 N   0  0  0  0  0  2  0  0  0  0  0  0
  186.1960  178.4940  142.0010 C   0  0  0  0  0  0  0  0  0  0  0  0
  186.4670  177.5560  144.2600 C   0  0  0  0  0  2  0  0  0  0  0  0
  188.3180  177.6360  142.3170 C   0  0  1  0  0  3  0  0  0  0  0  0
  188.2060  178.1980  140.8870 C   0  0  1  0  0  3  0  0  0  0  0  0
  185.3370  178.3310  144.6290 O   0  0  0  0  0  0  0  0  0  0  0  0
  189.4080  178.3690  143.0800 C   0  0  0  0  0  2  0  0  0  0  0  0
  190.4920  177.5170  143.2990 O   0  0  0  0  0  0  0  0  0  0  0  0
  191.9380  176.0590  146.3610 C   0  0  0  0  0  2  0  0  0  0  0  0
  189.1370  177.8230  146.7430 C   0  0  0  0  0  2  0  0  0  0  0  0
  190.2520  177.4230  147.7010 C   0  0  0  0  0  2  0  0  0  0  0  0
  191.8280  177.0770  145.2220 C   0  0  0  0  0  2  0  0  0  0  0  0
  190.4180  177.1870  144.6530 C   0  0  0  0  0  3  0  0  0  0  0  0
  190.7620  176.0350  147.3440 C   0  0  0  0  0  2  0  0  0  0  0  0
  189.6720  178.2920  145.3950 C   0  0  0  0  0  2  0  0  0  0  0  0
  188.3980  177.1680  139.9640 O   0  0  0  0  0  0  0  0  0  0  0  0
  189.5890  177.4900  139.3110 C   0  0  1  0  0  3  0  0  0  0  0  0
  189.8460  176.4720  138.2150 C   0  0  1  0  0  3  0  0  0  0  0  0
  189.2890  177.8390  137.8700 C   0  0  0  0  0  2  0  0  0  0  0  0
  191.3350  176.4340  137.8830 C   0  0  1  0  0  3  0  0  0  0  0  0
  192.0740  176.7390  139.0280 O   0  0  0  0  0  1  0  0  0  0  0  0
  190.8160  174.1120  137.5860 O   0  0  0  0  0  1  0  0  0  0  0  0
  191.7960  175.0790  137.3120 C   0  0  1  0  0  0  0  0  0  0  0  0
  192.0230  175.1940  135.7940 C   0  0  0  0  0  2  0  0  0  0  0  0
  190.2250  175.6700  134.6070 C   0  0  0  0  0  1  0  0  0  0  0  0
  191.3080  176.2640  135.2520 O   0  0  0  0  0  0  0  0  0  0  0  0
  193.0210  174.7490  137.9480 O   0  0  0  0  0  0  0  0  0  0  0  0
  194.0580  174.6720  136.9980 C   0  0  1  0  0  3  0  0  0  0  0  0
  194.9440  175.7330  137.2030 O   0  0  0  0  0  1  0  0  0  0  0  0
  194.8000  173.3420  137.1480 C   0  0  0  0  0  3  0  0  0  0  0  0
  196.1490  173.3050  135.0270 C   0  0  0  0  0  2  0  0  0  0  0  0
  194.1800  172.2110  134.9920 C   0  0  0  0  0  2  0  0  0  0  0  0
  195.5400  172.0930  134.6600 O   0  0  0  0  0  0  0  0  0  0  0  0
  194.0130  172.1890  136.5140 C   0  0  0  0  0  2  0  0  0  0  0  0
  196.2120  173.4170  136.5530 C   0  0  0  0  0  2  0  0  0  0  0  0
  1  5  1  0  0  0  0
  1  7  2  0  0  0  0
  2 11  1  0  0  0  0
  3  7  1  1  0  0  0
  3 14  1  0  0  0  0
  4  1  1  0  0  0  0
  6  8  1  6  0  0  0
  6  3  1  0  0  0  0
  8  4  1  0  0  0  0
  9 13  1  0  0  0  0
  9 10  1  0  0  0  0
 10  6  1  0  0  0  0
 10  2  2  0  0  0  0
 11 14  1  0  0  0  0
 12  2  1  0  0  0  0
 12 15  1  1  0  0  0
 13 24  1  6  0  0  0
 13 12  1  0  0  0  0
 15 16  1  0  0  0  0
 16 21  1  0  0  0  0
 17 22  1  0  0  0  0
 18 19  1  0  0  0  0
 20 17  1  0  0  0  0
 21 20  1  0  0  0  0
 21 23  1  0  0  0  0
 22 19  1  0  0  0  0
 23 18  1  0  0  0  0
 25 24  1  1  0  0  0
 26 28  1  6  0  0  0
 26 25  1  0  0  0  0
 27 26  1  0  0  0  0
 27 25  1  0  0  0  0
 28 29  1  1  0  0  0
 31 30  1  1  0  0  0
 31 28  1  0  0  0  0
 31 35  1  0  0  0  0
 32 31  1  0  0  0  0
 33 34  1  0  0  0  0
 34 32  1  0  0  0  0
 36 38  1  0  0  0  0
 36 37  1  1  0  0  0
 36 35  1  0  0  0  0
 39 43  1  0  0  0  0
 40 42  1  0  0  0  0
 41 40  1  0  0  0  0
 41 39  1  0  0  0  0
 42 38  1  0  0  0  0
 43 38  1  0  0  0  0
M  END
>  <MODEL>
2

>  <REMARK>
 VINA RESULT:      -7.1      4.139      9.298
  Name = 
  12 active torsions:
  status: ('A' for Active; 'I' for Inactive)
    1  A    between atoms: C_1  and  O_28
    2  A    between atoms: C_1  and  C_34
    3  A    between atoms: C_2  and  O_13
    4  A    between atoms: C_4  and  C_12
    5  A    between atoms: C_4  and  C_15
    6  A    between atoms: C_4  and  O_22
    7  A    between atoms: C_6  and  C_12
    8  A    between atoms: C_11  and  C_14
    9  A    between atoms: O_13  and  C_38
   10  A    between atoms: C_14  and  O_22
   11  A    between atoms: C_15  and  O_42
   12  A    between atoms: O_28  and  C_35
                            x       y       z     vdW  Elec       q    Type
                         _______ _______ _______ _____ _____    ______ ____

>  <TORSDO>
F 12

$$$$
=
 OpenBabel11052416283D

 43 48  0  0  1  0  0  0  0  0999 V2000
  191.5770  176.2480  147.1300 C   0  0  0  0  0  0  0  0  0  0  0  0
  189.2150  177.3390  142.8380 C   0  0  0  0  0  0  0  0  0  0  0  0
  190.8340  176.3170  144.7700 C   0  0  2  0  0  3  0  0  0  0  0  0
  190.2730  176.8740  147.5920 C   0  0  0  0  0  2  0  0  0  0  0  0
  192.5390  175.9940  148.0530 F   0  0  0  0  0  0  0  0  0  0  0  0
  189.9020  177.4610  145.1900 C   0  0  2  0  0  3  0  0  0  0  0  0
  191.8640  176.0640  145.8290 C   0  0  0  0  0  3  0  0  0  0  0  0
  189.2220  177.0380  146.4820 C   0  0  0  0  0  2  0  0  0  0  0  0
  187.7440  178.4520  144.1620 N   0  0  0  0  0  2  0  0  0  0  0  0
  188.9390  177.7040  144.0700 C   0  0  0  0  0  0  0  0  0  0  0  0
  190.4030  176.4570  142.5360 C   0  0  0  0  0  2  0  0  0  0  0  0
  188.1230  177.7280  141.9090 C   0  0  1  0  0  3  0  0  0  0  0  0
  187.1630  178.5130  142.8220 C   0  0  1  0  0  3  0  0  0  0  0  0
  191.4190  176.6000  143.5170 O   0  0  0  0  0  0  0  0  0  0  0  0
  188.6690  178.6380  140.8230 C   0  0  0  0  0  2  0  0  0  0  0  0
  187.7730  178.6940  139.7530 O   0  0  0  0  0  0  0  0  0  0  0  0
  187.1460  176.1100  137.1990 C   0  0  0  0  0  2  0  0  0  0  0  0
  190.3240  177.0080  137.6450 C   0  0  0  0  0  2  0  0  0  0  0  0
  189.5830  176.3440  136.4900 C   0  0  0  0  0  2  0  0  0  0  0  0
  187.1900  177.5360  137.7540 C   0  0  0  0  0  2  0  0  0  0  0  0
  188.2190  177.7150  138.8640 C   0  0  0  0  0  3  0  0  0  0  0  0
  188.5050  175.4200  137.0360 C   0  0  0  0  0  2  0  0  0  0  0  0
  189.5370  178.1680  138.2450 C   0  0  0  0  0  2  0  0  0  0  0  0
  185.9110  177.8950  142.8260 O   0  0  0  0  0  0  0  0  0  0  0  0
  185.0740  178.7780  142.1430 C   0  0  1  0  0  3  0  0  0  0  0  0
  184.1180  177.9840  141.2710 C   0  0  1  0  0  3  0  0  0  0  0  0
  183.6450  178.5590  142.5910 C   0  0  0  0  0  2  0  0  0  0  0  0
  183.6120  178.8580  140.1270 C   0  0  1  0  0  3  0  0  0  0  0  0
  184.6170  179.7500  139.7440 O   0  0  0  0  0  1  0  0  0  0  0  0
  183.4810  178.7490  137.7350 O   0  0  0  0  0  1  0  0  0  0  0  0
  183.1410  178.0480  138.9030 C   0  0  1  0  0  0  0  0  0  0  0  0
  183.8000  176.6570  138.9030 C   0  0  0  0  0  2  0  0  0  0  0  0
  182.8030  174.9500  137.9210 C   0  0  0  0  0  1  0  0  0  0  0  0
  183.6540  176.0250  137.6660 O   0  0  0  0  0  0  0  0  0  0  0  0
  181.7350  177.9030  139.0110 O   0  0  0  0  0  0  0  0  0  0  0  0
  181.1100  179.1650  138.9850 C   0  0  1  0  0  3  0  0  0  0  0  0
  180.9050  179.5450  137.6570 O   0  0  0  0  0  1  0  0  0  0  0  0
  179.7690  179.0950  139.7180 C   0  0  0  0  0  3  0  0  0  0  0  0
  179.4830  181.4920  140.4230 C   0  0  0  0  0  2  0  0  0  0  0  0
  180.3920  180.0930  141.9380 C   0  0  0  0  0  2  0  0  0  0  0  0
  179.4150  181.0880  141.7680 O   0  0  0  0  0  0  0  0  0  0  0  0
  179.9630  178.8140  141.2130 C   0  0  0  0  0  2  0  0  0  0  0  0
  178.9520  180.3780  139.5160 C   0  0  0  0  0  2  0  0  0  0  0  0
  1  4  1  0  0  0  0
  1  5  1  0  0  0  0
  2 10  2  0  0  0  0
  3  6  1  0  0  0  0
  3  7  1  1  0  0  0
  6  8  1  1  0  0  0
  7  1  2  0  0  0  0
  8  4  1  0  0  0  0
 10  9  1  0  0  0  0
 10  6  1  0  0  0  0
 11  2  1  0  0  0  0
 11 14  1  0  0  0  0
 12 15  1  6  0  0  0
 12 13  1  0  0  0  0
 12  2  1  0  0  0  0
 13 24  1  1  0  0  0
 13  9  1  0  0  0  0
 14  3  1  0  0  0  0
 16 15  1  0  0  0  0
 17 20  1  0  0  0  0
 18 23  1  0  0  0  0
 19 22  1  0  0  0  0
 19 18  1  0  0  0  0
 20 21  1  0  0  0  0
 21 16  1  0  0  0  0
 22 17  1  0  0  0  0
 23 21  1  0  0  0  0
 25 27  1  0  0  0  0
 25 24  1  1  0  0  0
 26 28  1  6  0  0  0
 26 25  1  0  0  0  0
 26 27  1  0  0  0  0
 28 29  1  6  0  0  0
 31 30  1  6  0  0  0
 31 35  1  0  0  0  0
 31 28  1  0  0  0  0
 32 31  1  0  0  0  0
 34 33  1  0  0  0  0
 34 32  1  0  0  0  0
 36 37  1  6  0  0  0
 36 35  1  0  0  0  0
 36 38  1  0  0  0  0
 38 42  1  0  0  0  0
 39 41  1  0  0  0  0
 41 40  1  0  0  0  0
 42 40  1  0  0  0  0
 43 38  1  0  0  0  0
 43 39  1  0  0  0  0
M  END
>  <MODEL>
3

>  <REMARK>
 VINA RESULT:      -6.8      1.156      3.295
  Name = 
  12 active torsions:
  status: ('A' for Active; 'I' for Inactive)
    1  A    between atoms: C_1  and  O_28
    2  A    between atoms: C_1  and  C_34
    3  A    between atoms: C_2  and  O_13
    4  A    between atoms: C_4  and  C_12
    5  A    between atoms: C_4  and  C_15
    6  A    between atoms: C_4  and  O_22
    7  A    between atoms: C_6  and  C_12
    8  A    between atoms: C_11  and  C_14
    9  A    between atoms: O_13  and  C_38
   10  A    between atoms: C_14  and  O_22
   11  A    between atoms: C_15  and  O_42
   12  A    between atoms: O_28  and  C_35
                            x       y       z     vdW  Elec       q    Type
                         _______ _______ _______ _____ _____    ______ ____

>  <TORSDO>
F 12

$$$$
=
 OpenBabel11052416283D

 43 48  0  0  1  0  0  0  0  0999 V2000
  187.8600  177.5560  147.1770 C   0  0  0  0  0  0  0  0  0  0  0  0
  184.5110  178.8460  143.6670 C   0  0  0  0  0  0  0  0  0  0  0  0
  185.9440  178.5430  145.9600 C   0  0  2  0  0  3  0  0  0  0  0  0
  188.5930  177.2910  145.8720 C   0  0  0  0  0  2  0  0  0  0  0  0
  188.4290  177.1410  148.3360 F   0  0  0  0  0  0  0  0  0  0  0  0
  186.3970  177.7130  144.7520 C   0  0  2  0  0  3  0  0  0  0  0  0
  186.6140  178.0590  147.2100 C   0  0  0  0  0  3  0  0  0  0  0  0
  187.9040  177.8780  144.6290 C   0  0  0  0  0  2  0  0  0  0  0  0
  185.9820  177.9200  142.2060 N   0  0  0  0  0  2  0  0  0  0  0  0
  185.6520  178.2030  143.5500 C   0  0  0  0  0  0  0  0  0  0  0  0
  184.0210  179.3210  145.0150 C   0  0  0  0  0  2  0  0  0  0  0  0
  183.9520  179.1880  142.3350 C   0  0  1  0  0  3  0  0  0  0  0  0
  184.9440  178.5150  141.3660 C   0  0  1  0  0  3  0  0  0  0  0  0
  184.5370  178.5210  146.0660 O   0  0  0  0  0  0  0  0  0  0  0  0
  182.5740  178.5710  142.1790 C   0  0  0  0  0  2  0  0  0  0  0  0
  182.3450  178.2490  140.8400 O   0  0  0  0  0  0  0  0  0  0  0  0
  181.5210  180.5110  138.0470 C   0  0  0  0  0  2  0  0  0  0  0  0
  179.6920  180.8470  140.8120 C   0  0  0  0  0  2  0  0  0  0  0  0
  179.4570  181.2320  139.3560 C   0  0  0  0  0  2  0  0  0  0  0  0
  181.5180  179.1830  138.8100 C   0  0  0  0  0  2  0  0  0  0  0  0
  181.6790  179.3580  140.3150 C   0  0  0  0  0  3  0  0  0  0  0  0
  180.7690  181.6630  138.7210 C   0  0  0  0  0  2  0  0  0  0  0  0
  180.2960  179.4540  140.9510 C   0  0  0  0  0  2  0  0  0  0  0  0
  185.5120  179.4810  140.5330 O   0  0  0  0  0  0  0  0  0  0  0  0
  185.1710  179.0830  139.2400 C   0  0  1  0  0  3  0  0  0  0  0  0
  186.2940  178.2390  138.6670 C   0  0  1  0  0  3  0  0  0  0  0  0
  185.0390  177.5770  139.2000 C   0  0  0  0  0  2  0  0  0  0  0  0
  186.2410  178.2720  137.1420 C   0  0  1  0  0  3  0  0  0  0  0  0
  187.1350  179.2340  136.6670 O   0  0  0  0  0  1  0  0  0  0  0  0
  186.8040  175.9690  137.5040 O   0  0  0  0  0  1  0  0  0  0  0  0
  186.5500  176.9090  136.4920 C   0  0  1  0  0  0  0  0  0  0  0  0
  185.3630  176.4530  135.6260 C   0  0  0  0  0  2  0  0  0  0  0  0
  183.6950  175.1750  136.3010 C   0  0  0  0  0  1  0  0  0  0  0  0
  185.0250  175.1230  135.8850 O   0  0  0  0  0  0  0  0  0  0  0  0
  187.6930  177.0840  135.6710 O   0  0  0  0  0  0  0  0  0  0  0  0
  188.6250  176.0540  135.9050 C   0  0  1  0  0  3  0  0  0  0  0  0
  188.7050  175.2450  134.7690 O   0  0  0  0  0  1  0  0  0  0  0  0
  189.9980  176.6570  136.2090 C   0  0  0  0  0  3  0  0  0  0  0  0
  191.1310  174.7190  137.3420 C   0  0  0  0  0  2  0  0  0  0  0  0
  190.1560  176.2450  138.6830 C   0  0  0  0  0  2  0  0  0  0  0  0
  191.3360  175.5080  138.4870 O   0  0  0  0  0  0  0  0  0  0  0  0
  190.0250  177.3150  137.5940 C   0  0  0  0  0  2  0  0  0  0  0  0
  191.1100  175.6060  136.0940 C   0  0  0  0  0  2  0  0  0  0  0  0
  1  7  2  0  0  0  0
  1  5  1  0  0  0  0
  2 11  1  0  0  0  0
  3 14  1  0  0  0  0
  3  7  1  1  0  0  0
  4  1  1  0  0  0  0
  6  8  1  6  0  0  0
  6  3  1  0  0  0  0
  8  4  1  0  0  0  0
  9 10  1  0  0  0  0
 10  2  2  0  0  0  0
 10  6  1  0  0  0  0
 11 14  1  0  0  0  0
 12 15  1  1  0  0  0
 12  2  1  0  0  0  0
 13 24  1  6  0  0  0
 13  9  1  0  0  0  0
 13 12  1  0  0  0  0
 16 15  1  0  0  0  0
 17 22  1  0  0  0  0
 17 20  1  0  0  0  0
 18 23  1  0  0  0  0
 19 18  1  0  0  0  0
 20 21  1  0  0  0  0
 21 16  1  0  0  0  0
 21 23  1  0  0  0  0
 22 19  1  0  0  0  0
 25 24  1  1  0  0  0
 26 28  1  6  0  0  0
 26 27  1  0  0  0  0
 26 25  1  0  0  0  0
 27 25  1  0  0  0  0
 28 29  1  6  0  0  0
 31 28  1  0  0  0  0
 31 30  1  1  0  0  0
 32 34  1  0  0  0  0
 32 31  1  0  0  0  0
 34 33  1  0  0  0  0
 35 36  1  0  0  0  0
 35 31  1  0  0  0  0
 36 37  1  6  0  0  0
 36 38  1  0  0  0  0
 38 42  1  0  0  0  0
 39 41  1  0  0  0  0
 41 40  1  0  0  0  0
 42 40  1  0  0  0  0
 43 38  1  0  0  0  0
 43 39  1  0  0  0  0
M  END
>  <MODEL>
4

>  <REMARK>
 VINA RESULT:      -6.7      2.302      6.380
  Name = 
  12 active torsions:
  status: ('A' for Active; 'I' for Inactive)
    1  A    between atoms: C_1  and  O_28
    2  A    between atoms: C_1  and  C_34
    3  A    between atoms: C_2  and  O_13
    4  A    between atoms: C_4  and  C_12
    5  A    between atoms: C_4  and  C_15
    6  A    between atoms: C_4  and  O_22
    7  A    between atoms: C_6  and  C_12
    8  A    between atoms: C_11  and  C_14
    9  A    between atoms: O_13  and  C_38
   10  A    between atoms: C_14  and  O_22
   11  A    between atoms: C_15  and  O_42
   12  A    between atoms: O_28  and  C_35
                            x       y       z     vdW  Elec       q    Type
                         _______ _______ _______ _____ _____    ______ ____

>  <TORSDO>
F 12

$$$$
=
 OpenBabel11052416283D

 43 48  0  0  1  0  0  0  0  0999 V2000
  187.3680  177.8580  147.4310 C   0  0  0  0  0  0  0  0  0  0  0  0
  184.3280  178.9000  143.5750 C   0  0  0  0  0  0  0  0  0  0  0  0
  185.5500  178.7380  146.0000 C   0  0  2  0  0  3  0  0  0  0  0  0
  188.2230  177.5560  146.2120 C   0  0  0  0  0  2  0  0  0  0  0  0
  187.8360  177.5110  148.6560 F   0  0  0  0  0  0  0  0  0  0  0  0
  186.1310  177.8680  144.8780 C   0  0  2  0  0  3  0  0  0  0  0  0
  186.1120  178.3280  147.3270 C   0  0  0  0  0  3  0  0  0  0  0  0
  187.6390  178.0690  144.8860 C   0  0  0  0  0  2  0  0  0  0  0  0
  185.9490  177.9510  142.2980 N   0  0  0  0  0  2  0  0  0  0  0  0
  185.4890  178.2840  143.5920 C   0  0  0  0  0  0  0  0  0  0  0  0
  183.7050  179.4210  144.8480 C   0  0  0  0  0  2  0  0  0  0  0  0
  183.8870  179.1680  142.1820 C   0  0  1  0  0  3  0  0  0  0  0  0
  184.9800  178.4800  141.3410 C   0  0  1  0  0  3  0  0  0  0  0  0
  184.1400  178.6820  145.9790 O   0  0  0  0  0  0  0  0  0  0  0  0
  182.5440  178.5060  141.9300 C   0  0  0  0  0  2  0  0  0  0  0  0
  181.8690  179.1730  140.9050 O   0  0  0  0  0  0  0  0  0  0  0  0
  180.0980  176.0690  139.9970 C   0  0  0  0  0  2  0  0  0  0  0  0
  181.4970  177.7610  137.4900 C   0  0  0  0  0  2  0  0  0  0  0  0
  180.3760  176.7300  137.5510 C   0  0  0  0  0  2  0  0  0  0  0  0
  180.2070  177.5450  140.3890 C   0  0  0  0  0  2  0  0  0  0  0  0
  181.5370  178.1740  139.9880 C   0  0  0  0  0  3  0  0  0  0  0  0
  180.6830  175.7020  138.6290 C   0  0  0  0  0  2  0  0  0  0  0  0
  181.3910  178.7970  138.6040 C   0  0  0  0  0  2  0  0  0  0  0  0
  185.6000  179.4230  140.5190 O   0  0  0  0  0  0  0  0  0  0  0  0
  185.2710  179.0360  139.2190 C   0  0  1  0  0  3  0  0  0  0  0  0
  186.3100  178.0510  138.7160 C   0  0  1  0  0  3  0  0  0  0  0  0
  184.9630  177.5550  139.2020 C   0  0  0  0  0  2  0  0  0  0  0  0
  186.3290  178.0510  137.1900 C   0  0  1  0  0  3  0  0  0  0  0  0
  186.9130  179.2350  136.7330 O   0  0  0  0  0  1  0  0  0  0  0  0
  186.5250  176.5530  135.3280 O   0  0  0  0  0  1  0  0  0  0  0  0
  187.0700  176.8400  136.5900 C   0  0  1  0  0  0  0  0  0  0  0  0
  188.5720  177.1470  136.4650 C   0  0  0  0  0  2  0  0  0  0  0  0
  190.1540  177.2100  138.0040 C   0  0  0  0  0  1  0  0  0  0  0  0
  189.3300  176.3280  137.3070 O   0  0  0  0  0  0  0  0  0  0  0  0
  186.8830  175.7500  137.4780 O   0  0  0  0  0  0  0  0  0  0  0  0
  186.3520  174.6430  136.7870 C   0  0  1  0  0  3  0  0  0  0  0  0
  187.2890  173.6070  136.8000 O   0  0  0  0  0  1  0  0  0  0  0  0
  185.0590  174.1820  137.4630 C   0  0  0  0  0  3  0  0  0  0  0  0
  184.3860  172.2810  135.9610 C   0  0  0  0  0  2  0  0  0  0  0  0
  183.4550  174.2870  135.5310 C   0  0  0  0  0  2  0  0  0  0  0  0
  183.1640  172.9230  135.6960 O   0  0  0  0  0  0  0  0  0  0  0  0
  183.8370  174.9030  136.8810 C   0  0  0  0  0  2  0  0  0  0  0  0
  184.8830  172.6620  137.3590 C   0  0  0  0  0  2  0  0  0  0  0  0
  1  5  1  0  0  0  0
  2 10  2  0  0  0  0
  2 11  1  0  0  0  0
  3  7  1  1  0  0  0
  4  1  1  0  0  0  0
  6  8  1  6  0  0  0
  6  3  1  0  0  0  0
  7  1  2  0  0  0  0
  8  4  1  0  0  0  0
  9 10  1  0  0  0  0
 10  6  1  0  0  0  0
 11 14  1  0  0  0  0
 12 15  1  1  0  0  0
 12  2  1  0  0  0  0
 13 24  1  6  0  0  0
 13 12  1  0  0  0  0
 13  9  1  0  0  0  0
 14  3  1  0  0  0  0
 16 15  1  0  0  0  0
 17 20  1  0  0  0  0
 18 19  1  0  0  0  0
 18 23  1  0  0  0  0
 19 22  1  0  0  0  0
 21 20  1  0  0  0  0
 21 16  1  0  0  0  0
 22 17  1  0  0  0  0
 23 21  1  0  0  0  0
 25 24  1  1  0  0  0
 26 28  1  6  0  0  0
 26 27  1  0  0  0  0
 26 25  1  0  0  0  0
 27 25  1  0  0  0  0
 28 29  1  1  0  0  0
 31 30  1  6  0  0  0
 31 28  1  0  0  0  0
 31 35  1  0  0  0  0
 32 31  1  0  0  0  0
 32 34  1  0  0  0  0
 34 33  1  0  0  0  0
 36 37  1  1  0  0  0
 36 38  1  0  0  0  0
 36 35  1  0  0  0  0
 39 43  1  0  0  0  0
 40 41  1  0  0  0  0
 40 42  1  0  0  0  0
 41 39  1  0  0  0  0
 42 38  1  0  0  0  0
 43 38  1  0  0  0  0
M  END
>  <MODEL>
5

>  <REMARK>
 VINA RESULT:      -6.7      2.511      5.951
  Name = 
  12 active torsions:
  status: ('A' for Active; 'I' for Inactive)
    1  A    between atoms: C_1  and  O_28
    2  A    between atoms: C_1  and  C_34
    3  A    between atoms: C_2  and  O_13
    4  A    between atoms: C_4  and  C_12
    5  A    between atoms: C_4  and  C_15
    6  A    between atoms: C_4  and  O_22
    7  A    between atoms: C_6  and  C_12
    8  A    between atoms: C_11  and  C_14
    9  A    between atoms: O_13  and  C_38
   10  A    between atoms: C_14  and  O_22
   11  A    between atoms: C_15  and  O_42
   12  A    between atoms: O_28  and  C_35
                            x       y       z     vdW  Elec       q    Type
                         _______ _______ _______ _____ _____    ______ ____

>  <TORSDO>
F 12

$$$$
=
 OpenBabel11052416283D

 43 48  0  0  1  0  0  0  0  0999 V2000
  187.5400  178.0830  148.0070 C   0  0  0  0  0  0  0  0  0  0  0  0
  185.2300  178.7960  143.6070 C   0  0  0  0  0  0  0  0  0  0  0  0
  186.0800  178.9150  146.1890 C   0  0  2  0  0  3  0  0  0  0  0  0
  188.4950  177.4650  147.0000 C   0  0  0  0  0  2  0  0  0  0  0  0
  187.7840  177.9030  149.3290 F   0  0  0  0  0  0  0  0  0  0  0  0
  186.6690  177.7940  145.3230 C   0  0  2  0  0  3  0  0  0  0  0  0
  186.3930  178.6810  147.6360 C   0  0  0  0  0  3  0  0  0  0  0  0
  188.1750  177.8030  145.5340 C   0  0  0  0  0  2  0  0  0  0  0  0
  186.8450  177.4400  142.7650 N   0  0  0  0  0  2  0  0  0  0  0  0
  186.2730  178.0530  143.9030 C   0  0  0  0  0  0  0  0  0  0  0  0
  184.5270  179.6080  144.6700 C   0  0  0  0  0  2  0  0  0  0  0  0
  185.0220  178.8650  142.1380 C   0  0  1  0  0  3  0  0  0  0  0  0
  186.1020  177.9080  141.5970 C   0  0  1  0  0  3  0  0  0  0  0  0
  184.6930  179.0330  145.9570 O   0  0  0  0  0  0  0  0  0  0  0  0
  183.6400  178.3420  141.7870 C   0  0  0  0  0  2  0  0  0  0  0  0
  183.1370  179.0320  140.6820 O   0  0  0  0  0  0  0  0  0  0  0  0
  182.1950  175.6350  139.6020 C   0  0  0  0  0  2  0  0  0  0  0  0
  182.7460  177.8570  137.1810 C   0  0  0  0  0  2  0  0  0  0  0  0
  181.9710  176.5450  137.2320 C   0  0  0  0  0  2  0  0  0  0  0  0
  181.9390  177.0430  140.1480 C   0  0  0  0  0  2  0  0  0  0  0  0
  182.9830  178.0580  139.6940 C   0  0  0  0  0  3  0  0  0  0  0  0
  182.6830  175.5650  138.1510 C   0  0  0  0  0  2  0  0  0  0  0  0
  182.4980  178.7230  138.4110 C   0  0  0  0  0  2  0  0  0  0  0  0
  186.9590  178.6050  140.7440 O   0  0  0  0  0  0  0  0  0  0  0  0
  188.2030  177.9930  140.9080 C   0  0  1  0  0  3  0  0  0  0  0  0
  189.1140  178.4060  139.7660 C   0  0  1  0  0  3  0  0  0  0  0  0
  189.2570  179.0560  141.1280 C   0  0  0  0  0  2  0  0  0  0  0  0
  190.2170  177.3670  139.5830 C   0  0  1  0  0  3  0  0  0  0  0  0
  190.1580  176.4380  140.6240 O   0  0  0  0  0  1  0  0  0  0  0  0
  190.0980  177.5880  137.1980 O   0  0  0  0  0  1  0  0  0  0  0  0
  190.1460  176.6350  138.2280 C   0  0  1  0  0  0  0  0  0  0  0  0
  191.3710  175.7210  138.0550 C   0  0  0  0  0  2  0  0  0  0  0  0
  193.5270  175.5210  137.6260 C   0  0  0  0  0  1  0  0  0  0  0  0
  192.5470  176.4650  137.9260 O   0  0  0  0  0  0  0  0  0  0  0  0
  188.9670  175.8460  138.2380 O   0  0  0  0  0  0  0  0  0  0  0  0
  188.6230  175.4660  136.9260 C   0  0  1  0  0  3  0  0  0  0  0  0
  189.0290  174.1470  136.7120 O   0  0  0  0  0  1  0  0  0  0  0  0
  187.1090  175.5810  136.7340 C   0  0  0  0  0  3  0  0  0  0  0  0
  186.9960  176.9080  134.6010 C   0  0  0  0  0  2  0  0  0  0  0  0
  186.8470  178.0710  136.5260 C   0  0  0  0  0  2  0  0  0  0  0  0
  186.2580  177.9050  135.2610 O   0  0  0  0  0  0  0  0  0  0  0  0
  186.5550  176.8470  137.3990 C   0  0  0  0  0  2  0  0  0  0  0  0
  186.7280  175.5460  135.2480 C   0  0  0  0  0  2  0  0  0  0  0  0
  1  5  1  0  0  0  0
  2 10  2  0  0  0  0
  2 11  1  0  0  0  0
  3  7  1  1  0  0  0
  4  1  1  0  0  0  0
  6  8  1  6  0  0  0
  6  3  1  0  0  0  0
  7  1  2  0  0  0  0
  8  4  1  0  0  0  0
  9 10  1  0  0  0  0
 10  6  1  0  0  0  0
 11 14  1  0  0  0  0
 12 15  1  1  0  0  0
 12  2  1  0  0  0  0
 13 24  1  6  0  0  0
 13 12  1  0  0  0  0
 13  9  1  0  0  0  0
 14  3  1  0  0  0  0
 16 15  1  0  0  0  0
 17 20  1  0  0  0  0
 18 19  1  0  0  0  0
 18 23  1  0  0  0  0
 19 22  1  0  0  0  0
 21 20  1  0  0  0  0
 21 16  1  0  0  0  0
 22 17  1  0  0  0  0
 23 21  1  0  0  0  0
 25 24  1  6  0  0  0
 25 27  1  0  0  0  0
 26 28  1  1  0  0  0
 26 25  1  0  0  0  0
 26 27  1  0  0  0  0
 28 29  1  1  0  0  0
 31 30  1  6  0  0  0
 31 35  1  0  0  0  0
 31 28  1  0  0  0  0
 32 31  1  0  0  0  0
 33 34  1  0  0  0  0
 34 32  1  0  0  0  0
 36 37  1  1  0  0  0
 36 35  1  0  0  0  0
 38 36  1  0  0  0  0
 38 42  1  0  0  0  0
 39 43  1  0  0  0  0
 39 41  1  0  0  0  0
 40 42  1  0  0  0  0
 41 40  1  0  0  0  0
 43 38  1  0  0  0  0
M  END
>  <MODEL>
6

>  <REMARK>
 VINA RESULT:      -6.7      2.490      6.392
  Name = 
  12 active torsions:
  status: ('A' for Active; 'I' for Inactive)
    1  A    between atoms: C_1  and  O_28
    2  A    between atoms: C_1  and  C_34
    3  A    between atoms: C_2  and  O_13
    4  A    between atoms: C_4  and  C_12
    5  A    between atoms: C_4  and  C_15
    6  A    between atoms: C_4  and  O_22
    7  A    between atoms: C_6  and  C_12
    8  A    between atoms: C_11  and  C_14
    9  A    between atoms: O_13  and  C_38
   10  A    between atoms: C_14  and  O_22
   11  A    between atoms: C_15  and  O_42
   12  A    between atoms: O_28  and  C_35
                            x       y       z     vdW  Elec       q    Type
                         _______ _______ _______ _____ _____    ______ ____

>  <TORSDO>
F 12

$$$$
=
 OpenBabel11052416283D

 43 48  0  0  1  0  0  0  0  0999 V2000
  187.9530  177.7830  148.0950 C   0  0  0  0  0  0  0  0  0  0  0  0
  185.4710  178.7340  143.8380 C   0  0  0  0  0  0  0  0  0  0  0  0
  186.3850  178.6720  146.3990 C   0  0  2  0  0  3  0  0  0  0  0  0
  188.9200  177.3360  147.0130 C   0  0  0  0  0  2  0  0  0  0  0  0
  188.2480  177.4970  149.3880 F   0  0  0  0  0  0  0  0  0  0  0  0
  187.0270  177.6850  145.4160 C   0  0  2  0  0  3  0  0  0  0  0  0
  186.7560  178.3260  147.8090 C   0  0  0  0  0  3  0  0  0  0  0  0
  188.5340  177.7860  145.5940 C   0  0  0  0  0  2  0  0  0  0  0  0
  187.1540  177.5890  142.8330 N   0  0  0  0  0  2  0  0  0  0  0  0
  186.5730  178.0460  144.0370 C   0  0  0  0  0  0  0  0  0  0  0  0
  184.7430  179.3870  144.9890 C   0  0  0  0  0  2  0  0  0  0  0  0
  185.2160  178.9260  142.3870 C   0  0  1  0  0  3  0  0  0  0  0  0
  186.3460  178.1080  141.7320 C   0  0  1  0  0  3  0  0  0  0  0  0
  184.9870  178.7070  146.2100 O   0  0  0  0  0  0  0  0  0  0  0  0
  183.8660  178.3380  142.0170 C   0  0  0  0  0  2  0  0  0  0  0  0
  183.9810  177.5780  140.8510 O   0  0  0  0  0  0  0  0  0  0  0  0
  180.3510  177.9170  140.3000 C   0  0  0  0  0  2  0  0  0  0  0  0
  182.3300  179.4730  138.1170 C   0  0  0  0  0  2  0  0  0  0  0  0
  180.8730  179.6660  138.5220 C   0  0  0  0  0  2  0  0  0  0  0  0
  181.6910  178.2270  140.9730 C   0  0  0  0  0  2  0  0  0  0  0  0
  182.8900  177.9590  140.0690 C   0  0  0  0  0  3  0  0  0  0  0  0
  180.2420  178.3160  138.8250 C   0  0  0  0  0  2  0  0  0  0  0  0
  183.2380  179.2410  139.3200 C   0  0  0  0  0  2  0  0  0  0  0  0
  187.1250  178.9450  140.9320 O   0  0  0  0  0  0  0  0  0  0  0  0
  187.2680  178.2570  139.7270 C   0  0  1  0  0  3  0  0  0  0  0  0
  188.6540  178.5190  139.1660 C   0  0  1  0  0  3  0  0  0  0  0  0
  188.3530  177.2120  139.8740 C   0  0  0  0  0  2  0  0  0  0  0  0
  188.6550  178.2880  137.6570 C   0  0  1  0  0  3  0  0  0  0  0  0
  189.0500  179.4600  137.0080 O   0  0  0  0  0  1  0  0  0  0  0  0
  189.9050  177.2920  135.8690 O   0  0  0  0  0  1  0  0  0  0  0  0
  189.5610  177.1200  137.2200 C   0  0  1  0  0  0  0  0  0  0  0  0
  190.8280  177.0780  138.0920 C   0  0  0  0  0  2  0  0  0  0  0  0
  192.3830  175.5300  137.8540 C   0  0  0  0  0  1  0  0  0  0  0  0
  191.9560  176.7510  137.3360 O   0  0  0  0  0  0  0  0  0  0  0  0
  188.8220  175.9230  137.4020 O   0  0  0  0  0  0  0  0  0  0  0  0
  187.8960  175.7570  136.3540 C   0  0  1  0  0  3  0  0  0  0  0  0
  188.3050  174.6910  135.5490 O   0  0  0  0  0  1  0  0  0  0  0  0
  186.5080  175.4690  136.9300 C   0  0  0  0  0  3  0  0  0  0  0  0
  185.2840  174.7070  134.8700 C   0  0  0  0  0  2  0  0  0  0  0  0
  185.0710  176.8800  135.4280 C   0  0  0  0  0  2  0  0  0  0  0  0
  184.3460  175.7390  135.0460 O   0  0  0  0  0  0  0  0  0  0  0  0
  185.6030  176.7050  136.8530 C   0  0  0  0  0  2  0  0  0  0  0  0
  185.8460  174.2760  136.2280 C   0  0  0  0  0  2  0  0  0  0  0  0
  1  5  1  0  0  0  0
  2 10  2  0  0  0  0
  2 11  1  0  0  0  0
  3  7  1  1  0  0  0
  4  1  1  0  0  0  0
  6  8  1  6  0  0  0
  6  3  1  0  0  0  0
  7  1  2  0  0  0  0
  8  4  1  0  0  0  0
  9 10  1  0  0  0  0
 10  6  1  0  0  0  0
 11 14  1  0  0  0  0
 12 15  1  6  0  0  0
 12  2  1  0  0  0  0
 13 24  1  6  0  0  0
 13 12  1  0  0  0  0
 13  9  1  0  0  0  0
 14  3  1  0  0  0  0
 16 15  1  0  0  0  0
 17 20  1  0  0  0  0
 18 19  1  0  0  0  0
 18 23  1  0  0  0  0
 19 22  1  0  0  0  0
 21 16  1  0  0  0  0
 21 20  1  0  0  0  0
 22 17  1  0  0  0  0
 23 21  1  0  0  0  0
 25 27  1  0  0  0  0
 25 24  1  1  0  0  0
 26 28  1  6  0  0  0
 26 25  1  0  0  0  0
 26 27  1  0  0  0  0
 28 29  1  6  0  0  0
 31 30  1  6  0  0  0
 31 35  1  0  0  0  0
 31 28  1  0  0  0  0
 31 32  1  0  0  0  0
 34 33  1  0  0  0  0
 34 32  1  0  0  0  0
 36 37  1  6  0  0  0
 36 38  1  0  0  0  0
 36 35  1  0  0  0  0
 39 41  1  0  0  0  0
 39 43  1  0  0  0  0
 40 42  1  0  0  0  0
 41 40  1  0  0  0  0
 42 38  1  0  0  0  0
 43 38  1  0  0  0  0
M  END
>  <MODEL>
7

>  <REMARK>
 VINA RESULT:      -6.6      2.375      6.183
  Name = 
  12 active torsions:
  status: ('A' for Active; 'I' for Inactive)
    1  A    between atoms: C_1  and  O_28
    2  A    between atoms: C_1  and  C_34
    3  A    between atoms: C_2  and  O_13
    4  A    between atoms: C_4  and  C_12
    5  A    between atoms: C_4  and  C_15
    6  A    between atoms: C_4  and  O_22
    7  A    between atoms: C_6  and  C_12
    8  A    between atoms: C_11  and  C_14
    9  A    between atoms: O_13  and  C_38
   10  A    between atoms: C_14  and  O_22
   11  A    between atoms: C_15  and  O_42
   12  A    between atoms: O_28  and  C_35
                            x       y       z     vdW  Elec       q    Type
                         _______ _______ _______ _____ _____    ______ ____

>  <TORSDO>
F 12

$$$$
=
 OpenBabel11052416283D

 43 48  0  0  1  0  0  0  0  0999 V2000
  187.8180  177.7250  147.8600 C   0  0  0  0  0  0  0  0  0  0  0  0
  185.4450  178.6530  143.5350 C   0  0  0  0  0  0  0  0  0  0  0  0
  186.3070  178.6190  146.1150 C   0  0  2  0  0  3  0  0  0  0  0  0
  188.7940  177.2320  146.8050 C   0  0  0  0  0  2  0  0  0  0  0  0
  188.0800  177.4580  149.1640 F   0  0  0  0  0  0  0  0  0  0  0  0
  186.9430  177.5960  145.1650 C   0  0  2  0  0  3  0  0  0  0  0  0
  186.6410  178.2910  147.5390 C   0  0  0  0  0  3  0  0  0  0  0  0
  188.4480  177.6630  145.3710 C   0  0  0  0  0  2  0  0  0  0  0  0
  187.1180  177.4450  142.5870 N   0  0  0  0  0  2  0  0  0  0  0  0
  186.5240  177.9410  143.7700 C   0  0  0  0  0  0  0  0  0  0  0  0
  184.7110  179.3470  144.6580 C   0  0  0  0  0  2  0  0  0  0  0  0
  185.2230  178.8220  142.0760 C   0  0  1  0  0  3  0  0  0  0  0  0
  186.3440  177.9630  141.4600 C   0  0  1  0  0  3  0  0  0  0  0  0
  184.9140  178.6850  145.8970 O   0  0  0  0  0  0  0  0  0  0  0  0
  183.8660  178.2610  141.6910 C   0  0  0  0  0  2  0  0  0  0  0  0
  183.3280  178.9980  140.6340 O   0  0  0  0  0  0  0  0  0  0  0  0
  180.9720  176.5510  139.2000 C   0  0  0  0  0  2  0  0  0  0  0  0
  179.7650  178.5460  141.5800 C   0  0  0  0  0  2  0  0  0  0  0  0
  179.3250  177.1930  141.0360 C   0  0  0  0  0  2  0  0  0  0  0  0
  182.1240  177.0130  140.0970 C   0  0  0  0  0  2  0  0  0  0  0  0
  182.0390  178.4900  140.4660 C   0  0  0  0  0  3  0  0  0  0  0  0
  179.5940  177.1280  139.5400 C   0  0  0  0  0  2  0  0  0  0  0  0
  181.2750  178.6270  141.7790 C   0  0  0  0  0  2  0  0  0  0  0  0
  187.1610  178.7640  140.6590 O   0  0  0  0  0  0  0  0  0  0  0  0
  188.0670  177.8790  140.0750 C   0  0  1  0  0  3  0  0  0  0  0  0
  188.8210  178.5970  138.9700 C   0  0  1  0  0  3  0  0  0  0  0  0
  189.4760  178.3740  140.3180 C   0  0  0  0  0  2  0  0  0  0  0  0
  189.3640  177.5810  137.9690 C   0  0  1  0  0  3  0  0  0  0  0  0
  189.3440  176.3080  138.5430 O   0  0  0  0  0  1  0  0  0  0  0  0
  187.8230  178.7360  136.5410 O   0  0  0  0  0  1  0  0  0  0  0  0
  188.5890  177.5640  136.6370 C   0  0  1  0  0  0  0  0  0  0  0  0
  189.5700  177.4680  135.4540 C   0  0  0  0  0  2  0  0  0  0  0  0
  190.3850  175.5870  134.6370 C   0  0  0  0  0  1  0  0  0  0  0  0
  190.5470  176.4960  135.6810 O   0  0  0  0  0  0  0  0  0  0  0  0
  187.7550  176.4170  136.6510 O   0  0  0  0  0  0  0  0  0  0  0  0
  186.6180  176.6310  135.8470 C   0  0  1  0  0  3  0  0  0  0  0  0
  186.8290  176.0500  134.5940 O   0  0  0  0  0  1  0  0  0  0  0  0
  185.3900  176.0030  136.5090 C   0  0  0  0  0  3  0  0  0  0  0  0
  183.5430  177.3660  135.4840 C   0  0  0  0  0  2  0  0  0  0  0  0
  184.2960  178.0370  137.4990 C   0  0  0  0  0  2  0  0  0  0  0  0
  183.1280  177.7680  136.7650 O   0  0  0  0  0  0  0  0  0  0  0  0
  185.0250  176.7270  137.8110 C   0  0  0  0  0  2  0  0  0  0  0  0
  184.1880  175.9790  135.5560 C   0  0  0  0  0  2  0  0  0  0  0  0
  1  5  1  0  0  0  0
  2 10  2  0  0  0  0
  2 11  1  0  0  0  0
  3  7  1  1  0  0  0
  4  1  1  0  0  0  0
  6  8  1  6  0  0  0
  6  3  1  0  0  0  0
  7  1  2  0  0  0  0
  8  4  1  0  0  0  0
  9 10  1  0  0  0  0
 10  6  1  0  0  0  0
 11 14  1  0  0  0  0
 12 15  1  1  0  0  0
 12  2  1  0  0  0  0
 13 24  1  6  0  0  0
 13 12  1  0  0  0  0
 13  9  1  0  0  0  0
 14  3  1  0  0  0  0
 16 15  1  0  0  0  0
 17 22  1  0  0  0  0
 17 20  1  0  0  0  0
 18 23  1  0  0  0  0
 19 18  1  0  0  0  0
 20 21  1  0  0  0  0
 21 16  1  0  0  0  0
 21 23  1  0  0  0  0
 22 19  1  0  0  0  0
 25 27  1  0  0  0  0
 25 24  1  1  0  0  0
 26 28  1  6  0  0  0
 26 25  1  0  0  0  0
 26 27  1  0  0  0  0
 28 29  1  1  0  0  0
 31 30  1  6  0  0  0
 31 35  1  0  0  0  0
 31 28  1  0  0  0  0
 32 34  1  0  0  0  0
 32 31  1  0  0  0  0
 33 34  1  0  0  0  0
 36 37  1  6  0  0  0
 36 38  1  0  0  0  0
 36 35  1  0  0  0  0
 38 42  1  0  0  0  0
 39 43  1  0  0  0  0
 39 41  1  0  0  0  0
 40 42  1  0  0  0  0
 41 40  1  0  0  0  0
 43 38  1  0  0  0  0
M  END
>  <MODEL>
8

>  <REMARK>
 VINA RESULT:      -6.6      2.240      6.233
  Name = 
  12 active torsions:
  status: ('A' for Active; 'I' for Inactive)
    1  A    between atoms: C_1  and  O_28
    2  A    between atoms: C_1  and  C_34
    3  A    between atoms: C_2  and  O_13
    4  A    between atoms: C_4  and  C_12
    5  A    between atoms: C_4  and  C_15
    6  A    between atoms: C_4  and  O_22
    7  A    between atoms: C_6  and  C_12
    8  A    between atoms: C_11  and  C_14
    9  A    between atoms: O_13  and  C_38
   10  A    between atoms: C_14  and  O_22
   11  A    between atoms: C_15  and  O_42
   12  A    between atoms: O_28  and  C_35
                            x       y       z     vdW  Elec       q    Type
                         _______ _______ _______ _____ _____    ______ ____

>  <TORSDO>
F 12

$$$$
=
 OpenBabel11052416283D

 43 48  0  0  1  0  0  0  0  0999 V2000
  193.9700  175.0950  135.9890 C   0  0  0  0  0  0  0  0  0  0  0  0
  191.1800  177.1700  139.6090 C   0  0  0  0  0  0  0  0  0  0  0  0
  193.1800  176.4200  137.9240 C   0  0  2  0  0  3  0  0  0  0  0  0
  192.5480  174.9400  135.4750 C   0  0  0  0  0  2  0  0  0  0  0  0
  194.9730  174.4730  135.3200 F   0  0  0  0  0  0  0  0  0  0  0  0
  191.8270  175.7220  137.7380 C   0  0  2  0  0  3  0  0  0  0  0  0
  194.2490  175.7080  137.1520 C   0  0  0  0  0  3  0  0  0  0  0  0
  191.5020  175.7550  136.2530 C   0  0  0  0  0  2  0  0  0  0  0  0
  189.4150  176.3130  138.4670 N   0  0  0  0  0  2  0  0  0  0  0  0
  190.8180  176.4410  138.5770 C   0  0  0  0  0  0  0  0  0  0  0  0
  192.6330  177.5030  139.8550 C   0  0  0  0  0  2  0  0  0  0  0  0
  189.9970  177.7430  140.3000 C   0  0  1  0  0  3  0  0  0  0  0  0
  188.8180  177.1150  139.5320 C   0  0  1  0  0  3  0  0  0  0  0  0
  193.4920  176.5200  139.2970 O   0  0  0  0  0  0  0  0  0  0  0  0
  189.9750  177.2900  141.7490 C   0  0  0  0  0  2  0  0  0  0  0  0
  188.9660  177.9600  142.4430 O   0  0  0  0  0  0  0  0  0  0  0  0
  188.0770  177.5110  145.9930 C   0  0  0  0  0  2  0  0  0  0  0  0
  191.3100  177.2460  145.2330 C   0  0  0  0  0  2  0  0  0  0  0  0
  190.4740  176.7490  146.4060 C   0  0  0  0  0  2  0  0  0  0  0  0
  188.2130  177.0860  144.5280 C   0  0  0  0  0  2  0  0  0  0  0  0
  189.3160  177.8360  143.7880 C   0  0  0  0  0  3  0  0  0  0  0  0
  189.3930  177.7680  146.7340 C   0  0  0  0  0  2  0  0  0  0  0  0
  190.6110  177.0380  143.8940 C   0  0  0  0  0  2  0  0  0  0  0  0
  188.0320  178.1250  138.9740 O   0  0  0  0  0  0  0  0  0  0  0  0
  187.5910  177.6050  137.7570 C   0  0  1  0  0  3  0  0  0  0  0  0
  186.2150  178.1640  137.4460 C   0  0  1  0  0  3  0  0  0  0  0  0
  187.4410  178.7310  136.7580 C   0  0  0  0  0  2  0  0  0  0  0  0
  185.4810  177.2320  136.4870 C   0  0  1  0  0  3  0  0  0  0  0  0
  186.3580  176.2390  136.0430 O   0  0  0  0  0  1  0  0  0  0  0  0
  183.0850  177.1980  136.5760 O   0  0  0  0  0  1  0  0  0  0  0  0
  184.2290  176.5810  137.1070 C   0  0  1  0  0  0  0  0  0  0  0  0
  184.2110  175.0720  136.8060 C   0  0  0  0  0  2  0  0  0  0  0  0
  184.9590  173.1230  137.5230 C   0  0  0  0  0  1  0  0  0  0  0  0
  184.3980  174.3190  137.9680 O   0  0  0  0  0  0  0  0  0  0  0  0
  184.3030  176.7810  138.5100 O   0  0  0  0  0  0  0  0  0  0  0  0
  183.0620  177.2250  139.0060 C   0  0  1  0  0  3  0  0  0  0  0  0
  182.4750  176.1990  139.7500 O   0  0  0  0  0  1  0  0  0  0  0  0
  183.2680  178.4560  139.8910 C   0  0  0  0  0  3  0  0  0  0  0  0
  180.8880  179.0770  140.4100 C   0  0  0  0  0  2  0  0  0  0  0  0
  181.8590  180.1480  138.6820 C   0  0  0  0  0  2  0  0  0  0  0  0
  181.0960  180.3470  139.8440 O   0  0  0  0  0  0  0  0  0  0  0  0
  183.2870  179.7450  139.0610 C   0  0  0  0  0  2  0  0  0  0  0  0
  182.2000  178.5420  140.9890 C   0  0  0  0  0  2  0  0  0  0  0  0
  1  7  2  0  0  0  0
  2 11  1  0  0  0  0
  2 12  1  0  0  0  0
  3  7  1  6  0  0  0
  3 14  1  0  0  0  0
  4  1  1  0  0  0  0
  4  8  1  0  0  0  0
  5  1  1  0  0  0  0
  6  8  1  6  0  0  0
  6  3  1  0  0  0  0
  6 10  1  0  0  0  0
  9 10  1  0  0  0  0
  9 13  1  0  0  0  0
 10  2  2  0  0  0  0
 12 15  1  1  0  0  0
 13 24  1  6  0  0  0
 13 12  1  0  0  0  0
 14 11  1  0  0  0  0
 15 16  1  0  0  0  0
 16 21  1  0  0  0  0
 17 22  1  0  0  0  0
 18 19  1  0  0  0  0
 19 22  1  0  0  0  0
 20 17  1  0  0  0  0
 21 23  1  0  0  0  0
 21 20  1  0  0  0  0
 23 18  1  0  0  0  0
 25 24  1  1  0  0  0
 26 28  1  6  0  0  0
 26 25  1  0  0  0  0
 27 26  1  0  0  0  0
 27 25  1  0  0  0  0
 28 29  1  1  0  0  0
 28 31  1  0  0  0  0
 31 30  1  6  0  0  0
 31 35  1  0  0  0  0
 32 31  1  0  0  0  0
 32 34  1  0  0  0  0
 33 34  1  0  0  0  0
 35 36  1  0  0  0  0
 36 37  1  1  0  0  0
 36 38  1  0  0  0  0
 38 43  1  0  0  0  0
 39 43  1  0  0  0  0
 40 42  1  0  0  0  0
 40 41  1  0  0  0  0
 41 39  1  0  0  0  0
 42 38  1  0  0  0  0
M  END
>  <MODEL>
9

>  <REMARK>
 VINA RESULT:      -6.5      2.992      6.815
  Name = 
  12 active torsions:
  status: ('A' for Active; 'I' for Inactive)
    1  A    between atoms: C_1  and  O_28
    2  A    between atoms: C_1  and  C_34
    3  A    between atoms: C_2  and  O_13
    4  A    between atoms: C_4  and  C_12
    5  A    between atoms: C_4  and  C_15
    6  A    between atoms: C_4  and  O_22
    7  A    between atoms: C_6  and  C_12
    8  A    between atoms: C_11  and  C_14
    9  A    between atoms: O_13  and  C_38
   10  A    between atoms: C_14  and  O_22
   11  A    between atoms: C_15  and  O_42
   12  A    between atoms: O_28  and  C_35
                            x       y       z     vdW  Elec       q    Type
                         _______ _______ _______ _____ _____    ______ ____

>  <TORSDO>
F 12

$$$$
