=
 OpenBabel11052413363D

 28 30  0  0  1  0  0  0  0  0999 V2000
  184.8090  178.5310  147.3250 O   0  0  0  0  0  1  0  0  0  0  0  0
  185.1100  178.5760  143.6870 N   0  0  0  0  0  0  0  0  0  0  0  0
  183.4390  179.3740  145.1270 O   0  0  0  0  0  0  0  0  0  0  0  0
  186.7300  177.9620  146.0070 C   0  0  1  0  0  3  0  0  0  0  0  0
  186.4190  178.0090  143.5470 C   0  0  0  0  0  3  0  0  0  0  0  0
  185.5190  178.8990  146.1810 C   0  0  1  0  0  3  0  0  0  0  0  0
  184.6120  178.9300  144.9910 C   0  0  0  0  0  0  0  0  0  0  0  0
  187.2180  177.7450  144.5820 C   0  0  0  0  0  0  0  0  0  0  0  0
  182.9070  178.4930  142.5840 C   0  0  0  0  0  3  0  0  0  0  0  0
  184.8660  179.0290  141.2610 C   0  0  0  0  0  0  0  0  0  0  0  0
  182.6830  178.9180  140.2140 C   0  0  0  0  0  0  0  0  0  0  0  0
  184.2920  178.7100  142.5080 C   0  0  0  0  0  0  0  0  0  0  0  0
  184.0600  179.1350  140.1230 C   0  0  0  0  0  3  0  0  0  0  0  0
  186.1970  179.2660  141.1490 F   0  0  0  0  0  0  0  0  0  0  0  0
  181.9070  179.0210  139.1080 F   0  0  0  0  0  0  0  0  0  0  0  0
  182.1070  178.5980  141.4440 C   0  0  0  0  0  3  0  0  0  0  0  0
  188.4650  176.9630  144.2650 C   0  0  1  0  0  3  0  0  0  0  0  0
  188.3300  175.8510  143.2310 C   0  0  0  0  0  1  0  0  0  0  0  0
  190.3780  177.9860  142.8900 N   0  0  0  0  0  0  0  0  0  0  0  0
  191.7720  176.6490  143.9380 C   0  0  1  0  0  3  0  0  0  0  0  0
  190.8170  177.1200  145.0100 C   0  0  0  0  0  2  0  0  0  0  0  0
  189.7590  177.8130  144.2100 C   0  0  2  0  0  3  0  0  0  0  0  0
  191.9960  175.2800  144.0780 O   0  0  0  0  0  1  0  0  0  0  0  0
  191.1830  176.9050  142.6870 O   0  0  0  0  0  0  0  0  0  0  0  0
  189.4240  178.0760  141.7920 C   0  0  0  0  0  2  0  0  0  0  0  0
  189.9950  177.5620  140.6280 O   0  0  0  0  0  1  0  0  0  0  0  0
  187.9480  177.1320  147.7640 C   0  0  0  0  0  1  0  0  0  0  0  0
  187.7630  178.2480  146.9290 O   0  0  0  0  0  0  0  0  0  0  0  0
  2  7  1  0  0  0  0
  4  6  1  0  0  0  0
  4 28  1  1  0  0  0
  5  2  1  0  0  0  0
  5  8  2  0  0  0  0
  6  1  1  1  0  0  0
  7  3  2  0  0  0  0
  7  6  1  0  0  0  0
  8  4  1  0  0  0  0
 10 12  2  0  0  0  0
 11 16  1  0  0  0  0
 12  9  1  0  0  0  0
 12  2  1  0  0  0  0
 13 11  2  0  0  0  0
 13 10  1  0  0  0  0
 14 10  1  0  0  0  0
 15 11  1  0  0  0  0
 16  9  2  0  0  0  0
 17 18  1  6  0  0  0
 17  8  1  0  0  0  0
 19 22  1  0  0  0  0
 20 23  1  1  0  0  0
 20 21  1  0  0  0  0
 22 17  1  6  0  0  0
 22 21  1  0  0  0  0
 24 19  1  0  0  0  0
 24 20  1  0  0  0  0
 25 19  1  0  0  0  0
 26 25  1  0  0  0  0
 28 27  1  0  0  0  0
M  END
>  <MODEL>
1

>  <REMARK>
 VINA RESULT:      -8.6      0.000      0.000
  Name = 
  5 active torsions:
  status: ('A' for Active; 'I' for Inactive)
    1  A    between atoms: C_1  and  C_11
    2  A    between atoms: C_1  and  C_27
    3  A    between atoms: C_2  and  N_3
    4  A    between atoms: N_10  and  C_13
    5  A    between atoms: C_16  and  O_21
                            x       y       z     vdW  Elec       q    Type
                         _______ _______ _______ _____ _____    ______ ____

>  <TORSDO>
F 5

$$$$
=
 OpenBabel11052413363D

 28 30  0  0  1  0  0  0  0  0999 V2000
  188.8360  178.8590  139.6440 O   0  0  0  0  0  1  0  0  0  0  0  0
  186.5710  177.9620  142.3630 N   0  0  0  0  0  0  0  0  0  0  0  0
  186.1920  178.9840  140.2850 O   0  0  0  0  0  0  0  0  0  0  0  0
  189.3230  177.5250  141.5760 C   0  0  1  0  0  3  0  0  0  0  0  0
  187.4940  177.2990  143.2370 C   0  0  0  0  0  3  0  0  0  0  0  0
  188.2940  177.8870  140.4880 C   0  0  1  0  0  3  0  0  0  0  0  0
  186.9800  178.3470  141.0370 C   0  0  0  0  0  0  0  0  0  0  0  0
  188.7600  177.0390  142.9040 C   0  0  0  0  0  0  0  0  0  0  0  0
  184.1420  178.2230  142.0290 C   0  0  0  0  0  3  0  0  0  0  0  0
  185.0900  178.7130  144.2060 C   0  0  0  0  0  0  0  0  0  0  0  0
  182.7110  178.9740  143.8270 C   0  0  0  0  0  0  0  0  0  0  0  0
  185.2630  178.2910  142.8720 C   0  0  0  0  0  0  0  0  0  0  0  0
  183.8160  179.0480  144.6760 C   0  0  0  0  0  3  0  0  0  0  0  0
  186.1430  178.7730  145.0580 F   0  0  0  0  0  0  0  0  0  0  0  0
  181.4790  179.3010  144.2880 F   0  0  0  0  0  0  0  0  0  0  0  0
  182.8730  178.5600  142.5030 C   0  0  0  0  0  3  0  0  0  0  0  0
  189.6370  176.5270  144.0160 C   0  0  1  0  0  3  0  0  0  0  0  0
  190.9040  175.7880  143.6010 C   0  0  0  0  0  1  0  0  0  0  0  0
  191.0290  178.1760  145.4070 N   0  0  0  0  0  0  0  0  0  0  0  0
  191.0190  176.7150  147.0480 C   0  0  1  0  0  3  0  0  0  0  0  0
  189.6190  176.6640  146.4840 C   0  0  0  0  0  2  0  0  0  0  0  0
  189.7500  177.4760  145.2340 C   0  0  2  0  0  3  0  0  0  0  0  0
  191.4730  175.4200  147.2920 O   0  0  0  0  0  1  0  0  0  0  0  0
  191.8490  177.3340  146.0970 O   0  0  0  0  0  0  0  0  0  0  0  0
  191.6790  178.5470  144.1570 C   0  0  0  0  0  2  0  0  0  0  0  0
  191.1780  179.7710  143.7110 O   0  0  0  0  0  1  0  0  0  0  0  0
  191.4140  177.5610  140.6350 C   0  0  0  0  0  1  0  0  0  0  0  0
  190.3730  176.7240  141.0730 O   0  0  0  0  0  0  0  0  0  0  0  0
  2 12  1  0  0  0  0
  2  5  1  0  0  0  0
  3  7  2  0  0  0  0
  4 28  1  6  0  0  0
  4  8  1  0  0  0  0
  6  1  1  1  0  0  0
  6  7  1  0  0  0  0
  6  4  1  0  0  0  0
  7  2  1  0  0  0  0
  8  5  2  0  0  0  0
  8 17  1  0  0  0  0
  9 16  2  0  0  0  0
  9 12  1  0  0  0  0
 10 13  1  0  0  0  0
 10 14  1  0  0  0  0
 11 15  1  0  0  0  0
 11 13  2  0  0  0  0
 12 10  2  0  0  0  0
 16 11  1  0  0  0  0
 17 18  1  6  0  0  0
 19 24  1  0  0  0  0
 20 23  1  6  0  0  0
 21 20  1  0  0  0  0
 22 17  1  6  0  0  0
 22 19  1  0  0  0  0
 22 21  1  0  0  0  0
 24 20  1  0  0  0  0
 25 19  1  0  0  0  0
 26 25  1  0  0  0  0
 27 28  1  0  0  0  0
M  END
>  <MODEL>
2

>  <REMARK>
 VINA RESULT:      -8.3      2.731      4.158
  Name = 
  5 active torsions:
  status: ('A' for Active; 'I' for Inactive)
    1  A    between atoms: C_1  and  C_11
    2  A    between atoms: C_1  and  C_27
    3  A    between atoms: C_2  and  N_3
    4  A    between atoms: N_10  and  C_13
    5  A    between atoms: C_16  and  O_21
                            x       y       z     vdW  Elec       q    Type
                         _______ _______ _______ _____ _____    ______ ____

>  <TORSDO>
F 5

$$$$
=
 OpenBabel11052413363D

 28 30  0  0  1  0  0  0  0  0999 V2000
  187.4730  178.5870  138.1800 O   0  0  0  0  0  1  0  0  0  0  0  0
  190.5870  176.8500  138.9650 N   0  0  0  0  0  0  0  0  0  0  0  0
  189.6790  177.5910  136.9320 O   0  0  0  0  0  0  0  0  0  0  0  0
  188.4170  178.1790  140.3470 C   0  0  1  0  0  3  0  0  0  0  0  0
  190.4950  176.8260  140.3950 C   0  0  0  0  0  3  0  0  0  0  0  0
  188.6840  178.5420  138.8730 C   0  0  1  0  0  3  0  0  0  0  0  0
  189.6410  177.6130  138.1930 C   0  0  0  0  0  0  0  0  0  0  0  0
  189.5380  177.4550  141.0780 C   0  0  0  0  0  0  0  0  0  0  0  0
  192.9370  176.4540  138.3340 C   0  0  0  0  0  3  0  0  0  0  0  0
  191.2530  174.8400  137.6730 C   0  0  0  0  0  0  0  0  0  0  0  0
  193.5730  174.5020  137.0570 C   0  0  0  0  0  0  0  0  0  0  0  0
  191.5950  176.0400  138.3300 C   0  0  0  0  0  0  0  0  0  0  0  0
  192.2430  174.0770  137.0440 C   0  0  0  0  0  3  0  0  0  0  0  0
  189.9730  174.3940  137.6630 F   0  0  0  0  0  0  0  0  0  0  0  0
  194.5270  173.7590  136.4460 F   0  0  0  0  0  0  0  0  0  0  0  0
  193.9200  175.6900  137.7040 C   0  0  0  0  0  3  0  0  0  0  0  0
  189.4770  177.1510  142.5520 C   0  0  1  0  0  3  0  0  0  0  0  0
  189.0470  175.7420  142.9420 C   0  0  0  0  0  1  0  0  0  0  0  0
  191.4560  176.8700  144.1650 N   0  0  0  0  0  0  0  0  0  0  0  0
  190.2820  177.9130  145.7010 C   0  0  1  0  0  3  0  0  0  0  0  0
  190.0040  178.6750  144.4260 C   0  0  0  0  0  2  0  0  0  0  0  0
  190.6150  177.7880  143.3870 C   0  0  2  0  0  3  0  0  0  0  0  0
  189.0930  177.7320  146.4060 O   0  0  0  0  0  1  0  0  0  0  0  0
  190.8190  176.6620  145.3520 O   0  0  0  0  0  0  0  0  0  0  0  0
  191.6840  175.5820  143.5210 C   0  0  0  0  0  2  0  0  0  0  0  0
  192.2490  174.6930  144.4340 O   0  0  0  0  0  1  0  0  0  0  0  0
  186.5760  178.9030  141.5060 C   0  0  0  0  0  1  0  0  0  0  0  0
  187.8640  179.2590  141.0710 O   0  0  0  0  0  0  0  0  0  0  0  0
  2  5  1  0  0  0  0
  3  7  2  0  0  0  0
  4 28  1  1  0  0  0
  4  8  1  0  0  0  0
  5  8  2  0  0  0  0
  6  1  1  6  0  0  0
  6  4  1  0  0  0  0
  7  6  1  0  0  0  0
  7  2  1  0  0  0  0
  8 17  1  0  0  0  0
 10 12  2  0  0  0  0
 11 16  1  0  0  0  0
 12  9  1  0  0  0  0
 12  2  1  0  0  0  0
 13 11  2  0  0  0  0
 13 10  1  0  0  0  0
 14 10  1  0  0  0  0
 15 11  1  0  0  0  0
 16  9  2  0  0  0  0
 17 18  1  6  0  0  0
 19 24  1  0  0  0  0
 20 23  1  6  0  0  0
 21 20  1  0  0  0  0
 22 17  1  1  0  0  0
 22 19  1  0  0  0  0
 22 21  1  0  0  0  0
 24 20  1  0  0  0  0
 25 19  1  0  0  0  0
 25 26  1  0  0  0  0
 28 27  1  0  0  0  0
M  END
>  <MODEL>
3

>  <REMARK>
 VINA RESULT:      -7.7      4.211      7.488
  Name = 
  5 active torsions:
  status: ('A' for Active; 'I' for Inactive)
    1  A    between atoms: C_1  and  C_11
    2  A    between atoms: C_1  and  C_27
    3  A    between atoms: C_2  and  N_3
    4  A    between atoms: N_10  and  C_13
    5  A    between atoms: C_16  and  O_21
                            x       y       z     vdW  Elec       q    Type
                         _______ _______ _______ _____ _____    ______ ____

>  <TORSDO>
F 5

$$$$
=
 OpenBabel11052413363D

 28 30  0  0  1  0  0  0  0  0999 V2000
  191.4650  177.8560  145.2720 O   0  0  0  0  0  1  0  0  0  0  0  0
  189.4040  177.3330  142.3040 N   0  0  0  0  0  0  0  0  0  0  0  0
  191.7300  177.4030  142.5990 O   0  0  0  0  0  0  0  0  0  0  0  0
  189.0970  177.4900  145.1790 C   0  0  1  0  0  3  0  0  0  0  0  0
  188.1050  177.3230  142.9120 C   0  0  0  0  0  3  0  0  0  0  0  0
  190.4790  177.1260  144.6050 C   0  0  1  0  0  3  0  0  0  0  0  0
  190.5860  177.3340  143.1260 C   0  0  0  0  0  0  0  0  0  0  0  0
  187.9140  177.3540  144.2320 C   0  0  0  0  0  0  0  0  0  0  0  0
  190.4280  176.6370  140.1720 C   0  0  0  0  0  3  0  0  0  0  0  0
  188.6510  178.2860  140.1410 C   0  0  0  0  0  0  0  0  0  0  0  0
  189.7000  177.5870  138.0710 C   0  0  0  0  0  0  0  0  0  0  0  0
  189.4870  177.4130  140.8680 C   0  0  0  0  0  0  0  0  0  0  0  0
  188.7600  178.3660  138.7490 C   0  0  0  0  0  3  0  0  0  0  0  0
  187.7150  179.0370  140.7730 F   0  0  0  0  0  0  0  0  0  0  0  0
  189.8020  177.6700  136.7230 F   0  0  0  0  0  0  0  0  0  0  0  0
  190.5340  176.7220  138.7830 C   0  0  0  0  0  3  0  0  0  0  0  0
  186.4900  177.5480  144.6830 C   0  0  1  0  0  3  0  0  0  0  0  0
  186.0320  176.7180  145.8750 C   0  0  0  0  0  1  0  0  0  0  0  0
  185.2780  179.5170  145.8000 N   0  0  0  0  0  0  0  0  0  0  0  0
  183.6950  179.3290  144.2890 C   0  0  1  0  0  3  0  0  0  0  0  0
  184.9800  179.1240  143.5220 C   0  0  0  0  0  2  0  0  0  0  0  0
  185.9910  179.0130  144.6200 C   0  0  2  0  0  3  0  0  0  0  0  0
  182.7500  178.3880  143.8810 O   0  0  0  0  0  1  0  0  0  0  0  0
  183.9720  179.1570  145.6570 O   0  0  0  0  0  0  0  0  0  0  0  0
  185.7760  178.9920  147.0650 C   0  0  0  0  0  2  0  0  0  0  0  0
  186.0540  180.0450  147.9360 O   0  0  0  0  0  1  0  0  0  0  0  0
  189.1290  177.8870  147.4380 C   0  0  0  0  0  1  0  0  0  0  0  0
  188.8800  176.9160  146.4520 O   0  0  0  0  0  0  0  0  0  0  0  0
  2  5  1  0  0  0  0
  2  7  1  0  0  0  0
  3  7  2  0  0  0  0
  4 28  1  1  0  0  0
  5  8  2  0  0  0  0
  6  4  1  0  0  0  0
  6  1  1  1  0  0  0
  7  6  1  0  0  0  0
  8 17  1  0  0  0  0
  8  4  1  0  0  0  0
  9 12  1  0  0  0  0
 10 14  1  0  0  0  0
 10 12  2  0  0  0  0
 11 13  2  0  0  0  0
 11 16  1  0  0  0  0
 12  2  1  0  0  0  0
 13 10  1  0  0  0  0
 15 11  1  0  0  0  0
 16  9  2  0  0  0  0
 17 18  1  1  0  0  0
 19 25  1  0  0  0  0
 20 23  1  6  0  0  0
 20 24  1  0  0  0  0
 21 20  1  0  0  0  0
 21 22  1  0  0  0  0
 22 17  1  1  0  0  0
 22 19  1  0  0  0  0
 24 19  1  0  0  0  0
 25 26  1  0  0  0  0
 28 27  1  0  0  0  0
M  END
>  <MODEL>
4

>  <REMARK>
 VINA RESULT:      -7.6      2.198      6.114
  Name = 
  5 active torsions:
  status: ('A' for Active; 'I' for Inactive)
    1  A    between atoms: C_1  and  C_11
    2  A    between atoms: C_1  and  C_27
    3  A    between atoms: C_2  and  N_3
    4  A    between atoms: N_10  and  C_13
    5  A    between atoms: C_16  and  O_21
                            x       y       z     vdW  Elec       q    Type
                         _______ _______ _______ _____ _____    ______ ____

>  <TORSDO>
F 5

$$$$
=
 OpenBabel11052413363D

 28 30  0  0  1  0  0  0  0  0999 V2000
  189.0630  178.8740  139.7430 O   0  0  0  0  0  1  0  0  0  0  0  0
  186.9680  177.9210  142.5770 N   0  0  0  0  0  0  0  0  0  0  0  0
  186.4670  179.0020  140.5560 O   0  0  0  0  0  0  0  0  0  0  0  0
  189.6600  177.4840  141.6030 C   0  0  1  0  0  3  0  0  0  0  0  0
  187.9390  177.2260  143.3710 C   0  0  0  0  0  3  0  0  0  0  0  0
  188.5670  177.8840  140.5930 C   0  0  1  0  0  3  0  0  0  0  0  0
  187.2950  178.3390  141.2380 C   0  0  0  0  0  0  0  0  0  0  0  0
  189.1780  176.9660  142.9510 C   0  0  0  0  0  0  0  0  0  0  0  0
  185.6460  178.7190  144.4980 C   0  0  0  0  0  3  0  0  0  0  0  0
  184.4950  178.0700  142.4660 C   0  0  0  0  0  0  0  0  0  0  0  0
  183.2340  178.8410  144.3860 C   0  0  0  0  0  0  0  0  0  0  0  0
  185.6990  178.2460  143.1770 C   0  0  0  0  0  0  0  0  0  0  0  0
  183.2710  178.3710  143.0720 C   0  0  0  0  0  3  0  0  0  0  0  0
  184.5040  177.6350  141.1810 F   0  0  0  0  0  0  0  0  0  0  0  0
  182.0450  179.1310  144.9690 F   0  0  0  0  0  0  0  0  0  0  0  0
  184.4210  179.0160  145.0990 C   0  0  0  0  0  3  0  0  0  0  0  0
  190.1200  176.4160  143.9890 C   0  0  1  0  0  3  0  0  0  0  0  0
  191.1410  175.3910  143.5120 C   0  0  0  0  0  1  0  0  0  0  0  0
  191.1850  176.9270  146.2690 N   0  0  0  0  0  0  0  0  0  0  0  0
  189.2630  177.7720  146.9170 C   0  0  1  0  0  3  0  0  0  0  0  0
  189.4310  178.2530  145.4940 C   0  0  0  0  0  2  0  0  0  0  0  0
  190.6090  177.4560  145.0270 C   0  0  2  0  0  3  0  0  0  0  0  0
  187.9510  177.3450  147.1150 O   0  0  0  0  0  1  0  0  0  0  0  0
  190.1460  176.6960  147.1200 O   0  0  0  0  0  0  0  0  0  0  0  0
  191.9370  175.6900  146.0970 C   0  0  0  0  0  2  0  0  0  0  0  0
  192.6380  175.3990  147.2670 O   0  0  0  0  0  1  0  0  0  0  0  0
  191.7770  177.5020  140.7220 C   0  0  0  0  0  1  0  0  0  0  0  0
  190.6680  176.6890  141.0120 O   0  0  0  0  0  0  0  0  0  0  0  0
  2 12  1  0  0  0  0
  2  5  1  0  0  0  0
  3  7  2  0  0  0  0
  4 28  1  6  0  0  0
  4  8  1  0  0  0  0
  6  1  1  1  0  0  0
  6  7  1  0  0  0  0
  6  4  1  0  0  0  0
  7  2  1  0  0  0  0
  8  5  2  0  0  0  0
  8 17  1  0  0  0  0
  9 16  1  0  0  0  0
 10 13  2  0  0  0  0
 10 12  1  0  0  0  0
 11 15  1  0  0  0  0
 11 16  2  0  0  0  0
 12  9  2  0  0  0  0
 13 11  1  0  0  0  0
 14 10  1  0  0  0  0
 17 18  1  6  0  0  0
 19 24  1  0  0  0  0
 20 23  1  6  0  0  0
 20 24  1  0  0  0  0
 21 20  1  0  0  0  0
 22 17  1  6  0  0  0
 22 21  1  0  0  0  0
 22 19  1  0  0  0  0
 25 19  1  0  0  0  0
 25 26  1  0  0  0  0
 27 28  1  0  0  0  0
M  END
>  <MODEL>
5

>  <REMARK>
 VINA RESULT:      -7.6      2.186      4.661
  Name = 
  5 active torsions:
  status: ('A' for Active; 'I' for Inactive)
    1  A    between atoms: C_1  and  C_11
    2  A    between atoms: C_1  and  C_27
    3  A    between atoms: C_2  and  N_3
    4  A    between atoms: N_10  and  C_13
    5  A    between atoms: C_16  and  O_21
                            x       y       z     vdW  Elec       q    Type
                         _______ _______ _______ _____ _____    ______ ____

>  <TORSDO>
F 5

$$$$
=
 OpenBabel11052413363D

 28 30  0  0  1  0  0  0  0  0999 V2000
  184.2130  178.9130  142.6410 O   0  0  0  0  0  1  0  0  0  0  0  0
  187.1360  178.3910  140.5170 N   0  0  0  0  0  0  0  0  0  0  0  0
  185.0310  179.3270  140.0760 O   0  0  0  0  0  0  0  0  0  0  0  0
  186.4110  178.2350  143.3160 C   0  0  1  0  0  3  0  0  0  0  0  0
  188.0520  177.8730  141.4910 C   0  0  0  0  0  3  0  0  0  0  0  0
  185.5680  179.1280  142.3860 C   0  0  1  0  0  3  0  0  0  0  0  0
  185.8650  178.9250  140.9330 C   0  0  0  0  0  0  0  0  0  0  0  0
  187.7790  177.8170  142.7960 C   0  0  0  0  0  0  0  0  0  0  0  0
  186.5150  177.9770  138.1680 C   0  0  0  0  0  3  0  0  0  0  0  0
  188.8240  178.4890  138.7020 C   0  0  0  0  0  0  0  0  0  0  0  0
  188.1720  178.0550  136.4080 C   0  0  0  0  0  0  0  0  0  0  0  0
  187.4930  178.2950  139.1240 C   0  0  0  0  0  0  0  0  0  0  0  0
  189.1550  178.3710  137.3480 C   0  0  0  0  0  3  0  0  0  0  0  0
  189.7940  178.8170  139.5910 F   0  0  0  0  0  0  0  0  0  0  0  0
  188.4990  177.9420  135.0980 F   0  0  0  0  0  0  0  0  0  0  0  0
  186.8520  177.8590  136.8180 C   0  0  0  0  0  3  0  0  0  0  0  0
  188.7670  177.0550  143.6400 C   0  0  1  0  0  3  0  0  0  0  0  0
  189.1950  175.6870  143.1240 C   0  0  0  0  0  1  0  0  0  0  0  0
  191.2530  177.4670  144.1370 N   0  0  0  0  0  0  0  0  0  0  0  0
  190.8270  177.1270  146.2650 C   0  0  1  0  0  3  0  0  0  0  0  0
  189.6570  177.9440  145.7680 C   0  0  0  0  0  2  0  0  0  0  0  0
  189.8680  177.9320  144.2860 C   0  0  2  0  0  3  0  0  0  0  0  0
  190.3660  176.0980  147.0840 O   0  0  0  0  0  1  0  0  0  0  0  0
  191.4840  176.5830  145.1470 O   0  0  0  0  0  0  0  0  0  0  0  0
  191.5260  176.8110  142.8640 C   0  0  0  0  0  2  0  0  0  0  0  0
  191.7380  177.7710  141.8750 O   0  0  0  0  0  1  0  0  0  0  0  0
  185.8450  177.7460  145.4840 C   0  0  0  0  0  1  0  0  0  0  0  0
  186.4270  178.7130  144.6460 O   0  0  0  0  0  0  0  0  0  0  0  0
  2  7  1  0  0  0  0
  2  5  1  0  0  0  0
  3  7  2  0  0  0  0
  4 28  1  1  0  0  0
  5  8  2  0  0  0  0
  6  1  1  6  0  0  0
  6  4  1  0  0  0  0
  7  6  1  0  0  0  0
  8  4  1  0  0  0  0
  8 17  1  0  0  0  0
  9 12  1  0  0  0  0
 10 12  2  0  0  0  0
 10 14  1  0  0  0  0
 11 16  1  0  0  0  0
 11 13  2  0  0  0  0
 12  2  1  0  0  0  0
 13 10  1  0  0  0  0
 15 11  1  0  0  0  0
 16  9  2  0  0  0  0
 17 18  1  6  0  0  0
 19 22  1  0  0  0  0
 19 24  1  0  0  0  0
 20 23  1  1  0  0  0
 21 20  1  0  0  0  0
 22 17  1  6  0  0  0
 22 21  1  0  0  0  0
 24 20  1  0  0  0  0
 25 19  1  0  0  0  0
 26 25  1  0  0  0  0
 28 27  1  0  0  0  0
M  END
>  <MODEL>
6

>  <REMARK>
 VINA RESULT:      -7.5      3.004      4.023
  Name = 
  5 active torsions:
  status: ('A' for Active; 'I' for Inactive)
    1  A    between atoms: C_1  and  C_11
    2  A    between atoms: C_1  and  C_27
    3  A    between atoms: C_2  and  N_3
    4  A    between atoms: N_10  and  C_13
    5  A    between atoms: C_16  and  O_21
                            x       y       z     vdW  Elec       q    Type
                         _______ _______ _______ _____ _____    ______ ____

>  <TORSDO>
F 5

$$$$
=
 OpenBabel11052413363D

 28 30  0  0  1  0  0  0  0  0999 V2000
  185.4610  179.7840  147.2720 O   0  0  0  0  0  1  0  0  0  0  0  0
  187.9700  177.5630  145.8220 N   0  0  0  0  0  0  0  0  0  0  0  0
  187.6650  178.3620  148.0070 O   0  0  0  0  0  0  0  0  0  0  0  0
  185.4570  178.7990  145.0860 C   0  0  1  0  0  3  0  0  0  0  0  0
  187.4580  177.4600  144.4870 C   0  0  0  0  0  3  0  0  0  0  0  0
  185.7750  178.6120  146.5820 C   0  0  1  0  0  3  0  0  0  0  0  0
  187.1940  178.2150  146.8460 C   0  0  0  0  0  0  0  0  0  0  0  0
  186.2870  177.9790  144.1100 C   0  0  0  0  0  0  0  0  0  0  0  0
  189.5640  176.3720  147.2780 C   0  0  0  0  0  3  0  0  0  0  0  0
  190.3490  177.2890  145.1760 C   0  0  0  0  0  0  0  0  0  0  0  0
  191.8850  176.1280  146.6470 C   0  0  0  0  0  0  0  0  0  0  0  0
  189.2960  177.0660  146.0860 C   0  0  0  0  0  0  0  0  0  0  0  0
  191.6340  176.8170  145.4580 C   0  0  0  0  0  3  0  0  0  0  0  0
  190.1280  177.9370  144.0050 F   0  0  0  0  0  0  0  0  0  0  0  0
  193.1330  175.6730  146.9160 F   0  0  0  0  0  0  0  0  0  0  0  0
  190.8490  175.9040  147.5560 C   0  0  0  0  0  3  0  0  0  0  0  0
  186.0080  177.9550  142.6300 C   0  0  1  0  0  3  0  0  0  0  0  0
  184.5790  177.6350  142.2100 C   0  0  0  0  0  1  0  0  0  0  0  0
  186.2900  179.2690  140.4420 N   0  0  0  0  0  0  0  0  0  0  0  0
  188.2560  178.3220  140.1900 C   0  0  1  0  0  3  0  0  0  0  0  0
  188.1760  178.6480  141.6640 C   0  0  0  0  0  2  0  0  0  0  0  0
  186.7430  179.0520  141.8210 C   0  0  2  0  0  3  0  0  0  0  0  0
  188.7820  177.0420  140.0220 O   0  0  0  0  0  1  0  0  0  0  0  0
  186.9540  178.3700  139.6620 O   0  0  0  0  0  0  0  0  0  0  0  0
  184.8560  179.0890  140.2520 C   0  0  0  0  0  2  0  0  0  0  0  0
  184.3670  180.0740  139.3930 O   0  0  0  0  0  1  0  0  0  0  0  0
  183.6680  180.0110  144.3170 C   0  0  0  0  0  1  0  0  0  0  0  0
  184.0680  178.7630  144.8270 O   0  0  0  0  0  0  0  0  0  0  0  0
  2 12  1  0  0  0  0
  2  7  1  0  0  0  0
  4 28  1  1  0  0  0
  4  6  1  0  0  0  0
  5  2  1  0  0  0  0
  6  7  1  0  0  0  0
  6  1  1  1  0  0  0
  7  3  2  0  0  0  0
  8  5  2  0  0  0  0
  8  4  1  0  0  0  0
  9 16  1  0  0  0  0
 10 13  2  0  0  0  0
 10 12  1  0  0  0  0
 11 15  1  0  0  0  0
 11 16  2  0  0  0  0
 12  9  2  0  0  0  0
 13 11  1  0  0  0  0
 14 10  1  0  0  0  0
 17 18  1  1  0  0  0
 17  8  1  0  0  0  0
 19 22  1  0  0  0  0
 20 23  1  1  0  0  0
 20 21  1  0  0  0  0
 21 22  1  0  0  0  0
 22 17  1  6  0  0  0
 24 20  1  0  0  0  0
 24 19  1  0  0  0  0
 25 19  1  0  0  0  0
 26 25  1  0  0  0  0
 27 28  1  0  0  0  0
M  END
>  <MODEL>
7

>  <REMARK>
 VINA RESULT:      -7.4      2.901      6.233
  Name = 
  5 active torsions:
  status: ('A' for Active; 'I' for Inactive)
    1  A    between atoms: C_1  and  C_11
    2  A    between atoms: C_1  and  C_27
    3  A    between atoms: C_2  and  N_3
    4  A    between atoms: N_10  and  C_13
    5  A    between atoms: C_16  and  O_21
                            x       y       z     vdW  Elec       q    Type
                         _______ _______ _______ _____ _____    ______ ____

>  <TORSDO>
F 5

$$$$
=
 OpenBabel11052413363D

 28 30  0  0  1  0  0  0  0  0999 V2000
  188.7290  176.2350  148.0150 O   0  0  0  0  0  1  0  0  0  0  0  0
  187.4180  178.0690  145.1430 N   0  0  0  0  0  0  0  0  0  0  0  0
  186.3740  177.2210  147.0660 O   0  0  0  0  0  0  0  0  0  0  0  0
  189.9750  177.3190  146.2760 C   0  0  1  0  0  3  0  0  0  0  0  0
  188.6430  178.3270  144.4430 C   0  0  0  0  0  3  0  0  0  0  0  0
  188.7460  177.3710  147.2030 C   0  0  1  0  0  3  0  0  0  0  0  0
  187.4480  177.5060  146.4680 C   0  0  0  0  0  0  0  0  0  0  0  0
  189.8460  178.0360  144.9410 C   0  0  0  0  0  0  0  0  0  0  0  0
  185.9250  177.7270  143.2120 C   0  0  0  0  0  3  0  0  0  0  0  0
  185.2030  179.1770  145.0150 C   0  0  0  0  0  0  0  0  0  0  0  0
  183.7760  178.8290  143.0870 C   0  0  0  0  0  0  0  0  0  0  0  0
  186.1740  178.3190  144.4610 C   0  0  0  0  0  0  0  0  0  0  0  0
  184.0100  179.4250  144.3280 C   0  0  0  0  0  3  0  0  0  0  0  0
  185.3960  179.7530  146.2280 F   0  0  0  0  0  0  0  0  0  0  0  0
  182.6190  179.0720  142.4260 F   0  0  0  0  0  0  0  0  0  0  0  0
  184.7330  177.9790  142.5300 C   0  0  0  0  0  3  0  0  0  0  0  0
  191.0020  178.1840  143.9870 C   0  0  1  0  0  3  0  0  0  0  0  0
  192.0540  179.2270  144.3440 C   0  0  0  0  0  1  0  0  0  0  0  0
  191.3290  176.6570  141.9480 N   0  0  0  0  0  0  0  0  0  0  0  0
  189.9000  175.2480  142.8430 C   0  0  1  0  0  3  0  0  0  0  0  0
  190.7420  175.7250  144.0030 C   0  0  0  0  0  2  0  0  0  0  0  0
  191.5170  176.8500  143.3910 C   0  0  2  0  0  3  0  0  0  0  0  0
  188.5570  175.2230  143.2180 O   0  0  0  0  0  1  0  0  0  0  0  0
  190.0750  176.1490  141.7780 O   0  0  0  0  0  0  0  0  0  0  0  0
  191.4530  177.8780  141.1630 C   0  0  0  0  0  2  0  0  0  0  0  0
  190.7130  177.7600  139.9860 O   0  0  0  0  0  1  0  0  0  0  0  0
  191.7750  176.3940  147.3560 C   0  0  0  0  0  1  0  0  0  0  0  0
  191.1760  177.6050  146.9650 O   0  0  0  0  0  0  0  0  0  0  0  0
  2  7  1  0  0  0  0
  4 28  1  1  0  0  0
  4  6  1  0  0  0  0
  5  8  2  0  0  0  0
  5  2  1  0  0  0  0
  6  1  1  6  0  0  0
  7  3  2  0  0  0  0
  7  6  1  0  0  0  0
  8  4  1  0  0  0  0
  9 12  1  0  0  0  0
 10 14  1  0  0  0  0
 11 13  2  0  0  0  0
 12 10  2  0  0  0  0
 12  2  1  0  0  0  0
 13 10  1  0  0  0  0
 15 11  1  0  0  0  0
 16 11  1  0  0  0  0
 16  9  2  0  0  0  0
 17 18  1  1  0  0  0
 17  8  1  0  0  0  0
 19 22  1  0  0  0  0
 20 23  1  1  0  0  0
 20 21  1  0  0  0  0
 22 17  1  1  0  0  0
 22 21  1  0  0  0  0
 24 19  1  0  0  0  0
 24 20  1  0  0  0  0
 25 19  1  0  0  0  0
 26 25  1  0  0  0  0
 28 27  1  0  0  0  0
M  END
>  <MODEL>
8

>  <REMARK>
 VINA RESULT:      -7.2      2.069      3.285
  Name = 
  5 active torsions:
  status: ('A' for Active; 'I' for Inactive)
    1  A    between atoms: C_1  and  C_11
    2  A    between atoms: C_1  and  C_27
    3  A    between atoms: C_2  and  N_3
    4  A    between atoms: N_10  and  C_13
    5  A    between atoms: C_16  and  O_21
                            x       y       z     vdW  Elec       q    Type
                         _______ _______ _______ _____ _____    ______ ____

>  <TORSDO>
F 5

$$$$
=
 OpenBabel11052413363D

 28 30  0  0  1  0  0  0  0  0999 V2000
  188.5450  179.5310  137.5770 O   0  0  0  0  0  1  0  0  0  0  0  0
  189.7230  177.2440  140.1680 N   0  0  0  0  0  0  0  0  0  0  0  0
  188.1710  179.0030  140.2230 O   0  0  0  0  0  0  0  0  0  0  0  0
  189.8990  177.5720  137.2960 C   0  0  1  0  0  3  0  0  0  0  0  0
  190.5710  176.4010  139.3770 C   0  0  0  0  0  3  0  0  0  0  0  0
  188.7200  178.2260  138.0420 C   0  0  1  0  0  3  0  0  0  0  0  0
  188.8750  178.2180  139.5300 C   0  0  0  0  0  0  0  0  0  0  0  0
  190.6560  176.4880  138.0480 C   0  0  0  0  0  0  0  0  0  0  0  0
  188.6800  176.7140  142.3380 C   0  0  0  0  0  3  0  0  0  0  0  0
  190.9790  177.4830  142.2930 C   0  0  0  0  0  0  0  0  0  0  0  0
  189.9070  176.9690  144.4060 C   0  0  0  0  0  0  0  0  0  0  0  0
  189.7990  177.1380  141.6030 C   0  0  0  0  0  0  0  0  0  0  0  0
  191.0280  177.3930  143.6880 C   0  0  0  0  0  3  0  0  0  0  0  0
  192.0880  177.8780  141.6200 F   0  0  0  0  0  0  0  0  0  0  0  0
  189.9600  176.8850  145.7570 F   0  0  0  0  0  0  0  0  0  0  0  0
  188.7340  176.6280  143.7300 C   0  0  0  0  0  3  0  0  0  0  0  0
  191.7460  175.6690  137.4070 C   0  0  1  0  0  3  0  0  0  0  0  0
  193.1790  176.1180  137.6650 C   0  0  0  0  0  1  0  0  0  0  0  0
  192.2820  173.3400  136.4690 N   0  0  0  0  0  0  0  0  0  0  0  0
  190.2670  173.2890  135.5940 C   0  0  1  0  0  3  0  0  0  0  0  0
  190.0740  173.9030  136.9600 C   0  0  0  0  0  2  0  0  0  0  0  0
  191.4840  174.1430  137.4030 C   0  0  2  0  0  3  0  0  0  0  0  0
  189.5220  173.9970  134.6520 O   0  0  0  0  0  1  0  0  0  0  0  0
  191.6330  173.3670  135.2700 O   0  0  0  0  0  0  0  0  0  0  0  0
  193.6430  173.8250  136.2790 C   0  0  0  0  0  2  0  0  0  0  0  0
  194.5520  172.8570  136.7030 O   0  0  0  0  0  1  0  0  0  0  0  0
  188.2060  176.8570  135.9250 C   0  0  0  0  0  1  0  0  0  0  0  0
  189.5630  177.2200  135.9690 O   0  0  0  0  0  0  0  0  0  0  0  0
  2 12  1  0  0  0  0
  4 28  1  6  0  0  0
  4  6  1  0  0  0  0
  4  8  1  0  0  0  0
  5  2  1  0  0  0  0
  6  1  1  6  0  0  0
  6  7  1  0  0  0  0
  7  2  1  0  0  0  0
  7  3  2  0  0  0  0
  8  5  2  0  0  0  0
  9 16  1  0  0  0  0
 10 13  2  0  0  0  0
 11 15  1  0  0  0  0
 12 10  1  0  0  0  0
 12  9  2  0  0  0  0
 13 11  1  0  0  0  0
 14 10  1  0  0  0  0
 16 11  2  0  0  0  0
 17 18  1  1  0  0  0
 17  8  1  0  0  0  0
 19 22  1  0  0  0  0
 20 23  1  6  0  0  0
 20 21  1  0  0  0  0
 21 22  1  0  0  0  0
 22 17  1  6  0  0  0
 24 20  1  0  0  0  0
 24 19  1  0  0  0  0
 25 19  1  0  0  0  0
 25 26  1  0  0  0  0
 27 28  1  0  0  0  0
M  END
>  <MODEL>
9

>  <REMARK>
 VINA RESULT:      -7.2      5.140      8.248
  Name = 
  5 active torsions:
  status: ('A' for Active; 'I' for Inactive)
    1  A    between atoms: C_1  and  C_11
    2  A    between atoms: C_1  and  C_27
    3  A    between atoms: C_2  and  N_3
    4  A    between atoms: N_10  and  C_13
    5  A    between atoms: C_16  and  O_21
                            x       y       z     vdW  Elec       q    Type
                         _______ _______ _______ _____ _____    ______ ____

>  <TORSDO>
F 5

$$$$
