=
 OpenBabel11052412223D

 30 32  0  0  1  0  0  0  0  0999 V2000
  184.0380  176.9880  137.2330 C   0  0  2  0  0  3  0  0  0  0  0  0
  184.1240  177.5740  138.6680 C   0  0  1  0  0  3  0  0  0  0  0  0
  181.6310  177.5690  139.2160 C   0  0  1  0  0  3  0  0  0  0  0  0
  183.8140  175.4460  137.1190 C   0  0  1  0  0  0  0  0  0  0  0  0
  184.8260  174.7650  137.7990 O   0  0  0  0  0  1  0  0  0  0  0  0
  185.1770  177.5210  136.3270 C   0  0  2  0  0  3  0  0  0  0  0  0
  180.7540  176.4990  138.5370 C   0  0  2  0  0  3  0  0  0  0  0  0
  185.0920  176.9890  134.9000 C   0  0  0  0  0  2  0  0  0  0  0  0
  182.8200  179.7930  139.0010 C   0  0  0  0  0  2  0  0  0  0  0  0
  184.1490  179.1170  138.6250 C   0  0  0  0  0  2  0  0  0  0  0  0
  180.3590  179.7010  139.0880 C   0  0  0  0  0  1  0  0  0  0  0  0
  181.5170  178.9530  137.0550 C   0  0  0  0  0  1  0  0  0  0  0  0
  183.0300  177.0600  139.6120 C   0  0  2  0  0  3  0  0  0  0  0  0
  182.4700  175.0050  137.7060 C   0  0  0  0  0  2  0  0  0  0  0  0
  180.2860  175.4530  139.5510 C   0  0  0  0  0  1  0  0  0  0  0  0
  181.3890  175.9210  137.3350 N   0  0  0  0  0  0  0  0  0  0  0  0
  183.8090  174.9990  135.6520 C   0  0  0  0  0  2  0  0  0  0  0  0
  181.5920  178.9830  138.5780 C   0  0  0  0  0  0  0  0  0  0  0  0
  183.3160  177.4220  140.9300 O   0  0  0  0  0  1  0  0  0  0  0  0
  185.0410  175.4680  134.8940 C   0  0  0  0  0  2  0  0  0  0  0  0
  187.3590  178.4100  136.9900 N   0  0  0  0  0  0  0  0  0  0  0  0
  186.5590  177.3950  136.9070 C   0  0  0  0  0  3  0  0  0  0  0  0
  189.0270  179.0050  138.5710 N   0  0  0  0  0  2  0  0  0  0  0  0
  189.6630  177.4000  136.8990 C   0  0  0  0  0  1  0  0  0  0  0  0
  188.6780  178.3140  137.5340 C   0  0  0  0  0  0  0  0  0  0  0  0
  180.3970  175.1500  136.5900 C   0  0  0  0  0  2  0  0  0  0  0  0
  179.7960  175.9630  135.4440 C   0  0  1  0  0  3  0  0  0  0  0  0
  180.8830  176.5930  134.5940 C   0  0  0  0  0  1  0  0  0  0  0  0
  178.9310  175.1370  134.6140 N   0  0  0  0  0  2  0  0  0  0  0  0
  179.1900  173.7530  134.9690 C   0  0  0  0  0  1  0  0  0  0  0  0
  1  2  1  0  0  0  0
  2 13  1  0  0  0  0
  3 13  1  0  0  0  0
  4  1  1  0  0  0  0
  4 14  1  0  0  0  0
  4  5  1  0  0  0  0
  6 22  1  0  0  0  0
  6  1  1  0  0  0  0
  7  3  1  0  0  0  0
  7 15  1  0  0  0  0
  8  6  1  0  0  0  0
 10  2  1  0  0  0  0
 10  9  1  0  0  0  0
 12 18  1  0  0  0  0
 13 19  1  0  0  0  0
 16 14  1  0  0  0  0
 16  7  1  0  0  0  0
 17  4  1  0  0  0  0
 18  9  1  0  0  0  0
 18 11  1  0  0  0  0
 18  3  1  0  0  0  0
 20  8  1  0  0  0  0
 20 17  1  0  0  0  0
 21 25  1  0  0  0  0
 22 21  2  0  0  0  0
 24 25  1  0  0  0  0
 25 23  2  0  0  0  0
 26 16  1  0  0  0  0
 27 26  1  0  0  0  0
 28 27  1  0  0  0  0
 29 30  1  0  0  0  0
 29 27  1  0  0  0  0
M  END
>  <MODEL>
1

>  <REMARK>
 VINA RESULT:      -4.2      0.000      0.000
  Name = 
  5 active torsions:
  status: ('A' for Active; 'I' for Inactive)
    1  A    between atoms: C_7  and  C_10
    2  A    between atoms: C_7  and  N_15
    3  A    between atoms: C_8  and  C_12
    4  A    between atoms: N_9  and  C_21
    5  A    between atoms: C_10  and  N_25
                            x       y       z     vdW  Elec       q    Type
                         _______ _______ _______ _____ _____    ______ ____

>  <TORSDO>
F 5

$$$$
=
 OpenBabel11052412223D

 30 32  0  0  1  0  0  0  0  0999 V2000
  182.8280  174.8820  137.1150 C   0  0  2  0  0  3  0  0  0  0  0  0
  181.2900  174.8100  136.9170 C   0  0  1  0  0  3  0  0  0  0  0  0
  180.6760  177.0360  138.0040 C   0  0  1  0  0  3  0  0  0  0  0  0
  183.6170  175.8060  136.1320 C   0  0  1  0  0  0  0  0  0  0  0  0
  183.3740  175.4190  134.8130 O   0  0  0  0  0  1  0  0  0  0  0  0
  183.4520  173.4730  137.2820 C   0  0  2  0  0  3  0  0  0  0  0  0
  181.7190  178.1680  137.9490 C   0  0  2  0  0  3  0  0  0  0  0  0
  184.9590  173.5210  137.5160 C   0  0  0  0  0  2  0  0  0  0  0  0
  179.9200  174.8930  139.1190 C   0  0  0  0  0  2  0  0  0  0  0  0
  180.6300  174.0220  138.0690 C   0  0  0  0  0  2  0  0  0  0  0  0
  179.7560  177.0420  140.3140 C   0  0  0  0  0  1  0  0  0  0  0  0
  181.9650  176.0190  139.9800 C   0  0  0  0  0  1  0  0  0  0  0  0
  180.6260  176.1790  136.7250 C   0  0  2  0  0  3  0  0  0  0  0  0
  183.2250  177.2800  136.2730 C   0  0  0  0  0  2  0  0  0  0  0  0
  181.2670  179.2820  137.0030 C   0  0  0  0  0  1  0  0  0  0  0  0
  183.0840  177.6720  137.6770 N   0  0  0  0  0  0  0  0  0  0  0  0
  185.1250  175.7360  136.4040 C   0  0  0  0  0  2  0  0  0  0  0  0
  180.6000  176.2460  139.3390 C   0  0  0  0  0  0  0  0  0  0  0  0
  179.3050  176.0230  136.3040 O   0  0  0  0  0  1  0  0  0  0  0  0
  185.6510  174.3090  136.4140 C   0  0  0  0  0  2  0  0  0  0  0  0
  183.0850  171.2040  136.4420 N   0  0  0  0  0  0  0  0  0  0  0  0
  183.0650  172.4800  136.2210 C   0  0  0  0  0  3  0  0  0  0  0  0
  181.4910  169.8970  135.2640 N   0  0  0  0  0  2  0  0  0  0  0  0
  183.7880  169.6280  134.6090 C   0  0  0  0  0  1  0  0  0  0  0  0
  182.7250  170.2400  135.4480 C   0  0  0  0  0  0  0  0  0  0  0  0
  184.0450  178.7430  137.9330 C   0  0  0  0  0  2  0  0  0  0  0  0
  185.0140  178.3740  139.0550 C   0  0  1  0  0  3  0  0  0  0  0  0
  186.4260  178.2100  138.5250 C   0  0  0  0  0  1  0  0  0  0  0  0
  184.9930  179.3720  140.1140 N   0  0  0  0  0  2  0  0  0  0  0  0
  184.1640  178.8440  141.1840 C   0  0  0  0  0  1  0  0  0  0  0  0
  1  6  1  0  0  0  0
  2  1  1  0  0  0  0
  2 10  1  0  0  0  0
  3 18  1  0  0  0  0
  4 14  1  0  0  0  0
  4 17  1  0  0  0  0
  4  1  1  0  0  0  0
  5  4  1  0  0  0  0
  6  8  1  0  0  0  0
  7  3  1  0  0  0  0
  9 18  1  0  0  0  0
 10  9  1  0  0  0  0
 13  2  1  0  0  0  0
 13  3  1  0  0  0  0
 14 16  1  0  0  0  0
 15  7  1  0  0  0  0
 16 26  1  0  0  0  0
 16  7  1  0  0  0  0
 17 20  1  0  0  0  0
 18 12  1  0  0  0  0
 18 11  1  0  0  0  0
 19 13  1  0  0  0  0
 20  8  1  0  0  0  0
 22 21  2  0  0  0  0
 22  6  1  0  0  0  0
 23 25  2  0  0  0  0
 24 25  1  0  0  0  0
 25 21  1  0  0  0  0
 26 27  1  0  0  0  0
 27 29  1  0  0  0  0
 28 27  1  0  0  0  0
 29 30  1  0  0  0  0
M  END
>  <MODEL>
2

>  <REMARK>
 VINA RESULT:      -4.0      2.794      5.908
  Name = 
  5 active torsions:
  status: ('A' for Active; 'I' for Inactive)
    1  A    between atoms: C_7  and  C_10
    2  A    between atoms: C_7  and  N_15
    3  A    between atoms: C_8  and  C_12
    4  A    between atoms: N_9  and  C_21
    5  A    between atoms: C_10  and  N_25
                            x       y       z     vdW  Elec       q    Type
                         _______ _______ _______ _____ _____    ______ ____

>  <TORSDO>
F 5

$$$$
=
 OpenBabel11052412223D

 30 32  0  0  1  0  0  0  0  0999 V2000
  184.1630  176.1210  136.7290 C   0  0  2  0  0  3  0  0  0  0  0  0
  183.8710  176.7710  138.1090 C   0  0  1  0  0  3  0  0  0  0  0  0
  181.3550  176.3550  138.1850 C   0  0  1  0  0  3  0  0  0  0  0  0
  184.2200  174.5590  136.6900 C   0  0  1  0  0  0  0  0  0  0  0  0
  185.1770  174.0940  137.5930 O   0  0  0  0  0  1  0  0  0  0  0  0
  185.3540  176.8060  136.0120 C   0  0  2  0  0  3  0  0  0  0  0  0
  180.8120  175.1220  137.4370 C   0  0  2  0  0  3  0  0  0  0  0  0
  185.6360  176.2090  134.6370 C   0  0  0  0  0  2  0  0  0  0  0  0
  182.1840  178.7410  138.0310 C   0  0  0  0  0  2  0  0  0  0  0  0
  183.6530  178.2920  137.9580 C   0  0  0  0  0  2  0  0  0  0  0  0
  179.8010  178.2260  137.6690 C   0  0  0  0  0  1  0  0  0  0  0  0
  181.4390  177.6080  135.9450 C   0  0  0  0  0  1  0  0  0  0  0  0
  182.7140  176.1140  138.8700 C   0  0  2  0  0  3  0  0  0  0  0  0
  182.8770  173.9170  137.0490 C   0  0  0  0  0  2  0  0  0  0  0  0
  180.3320  174.0530  138.4210 C   0  0  0  0  0  1  0  0  0  0  0  0
  181.7540  174.6140  136.4180 N   0  0  0  0  0  0  0  0  0  0  0  0
  184.5720  174.0580  135.2830 C   0  0  0  0  0  2  0  0  0  0  0  0
  181.2100  177.7130  137.4490 C   0  0  0  0  0  0  0  0  0  0  0  0
  182.6750  176.5740  140.1870 O   0  0  0  0  0  1  0  0  0  0  0  0
  185.8350  174.7040  134.7330 C   0  0  0  0  0  2  0  0  0  0  0  0
  187.1170  178.1030  137.1070 N   0  0  0  0  0  0  0  0  0  0  0  0
  186.5980  176.9460  136.8450 C   0  0  0  0  0  3  0  0  0  0  0  0
  189.0390  179.3190  137.7870 N   0  0  0  0  0  2  0  0  0  0  0  0
  188.6870  177.1940  138.8510 C   0  0  0  0  0  1  0  0  0  0  0  0
  188.3010  178.2610  137.8930 C   0  0  0  0  0  0  0  0  0  0  0  0
  181.0650  173.6520  135.5620 C   0  0  0  0  0  2  0  0  0  0  0  0
  181.5550  172.2260  135.8080 C   0  0  1  0  0  3  0  0  0  0  0  0
  180.4230  171.3350  136.2840 C   0  0  0  0  0  1  0  0  0  0  0  0
  182.1590  171.6650  134.6100 N   0  0  0  0  0  2  0  0  0  0  0  0
  183.0780  170.6250  135.0390 C   0  0  0  0  0  1  0  0  0  0  0  0
  1  2  1  0  0  0  0
  2 13  1  0  0  0  0
  3 13  1  0  0  0  0
  4  1  1  0  0  0  0
  4 14  1  0  0  0  0
  4  5  1  0  0  0  0
  6  1  1  0  0  0  0
  6 22  1  0  0  0  0
  7  3  1  0  0  0  0
  7 15  1  0  0  0  0
  8 20  1  0  0  0  0
  8  6  1  0  0  0  0
 10  9  1  0  0  0  0
 10  2  1  0  0  0  0
 12 18  1  0  0  0  0
 13 19  1  0  0  0  0
 16 14  1  0  0  0  0
 16  7  1  0  0  0  0
 17  4  1  0  0  0  0
 18 11  1  0  0  0  0
 18  9  1  0  0  0  0
 18  3  1  0  0  0  0
 20 17  1  0  0  0  0
 21 25  1  0  0  0  0
 22 21  2  0  0  0  0
 23 25  2  0  0  0  0
 25 24  1  0  0  0  0
 26 27  1  0  0  0  0
 26 16  1  0  0  0  0
 27 28  1  0  0  0  0
 29 30  1  0  0  0  0
 29 27  1  0  0  0  0
M  END
>  <MODEL>
3

>  <REMARK>
 VINA RESULT:      -3.8      1.817      2.195
  Name = 
  5 active torsions:
  status: ('A' for Active; 'I' for Inactive)
    1  A    between atoms: C_7  and  C_10
    2  A    between atoms: C_7  and  N_15
    3  A    between atoms: C_8  and  C_12
    4  A    between atoms: N_9  and  C_21
    5  A    between atoms: C_10  and  N_25
                            x       y       z     vdW  Elec       q    Type
                         _______ _______ _______ _____ _____    ______ ____

>  <TORSDO>
F 5

$$$$
=
 OpenBabel11052412223D

 30 32  0  0  1  0  0  0  0  0999 V2000
  188.5380  176.7720  138.3030 C   0  0  2  0  0  3  0  0  0  0  0  0
  189.2700  176.3630  136.9960 C   0  0  1  0  0  3  0  0  0  0  0  0
  187.2200  175.7590  135.6010 C   0  0  1  0  0  3  0  0  0  0  0  0
  187.8680  178.1840  138.3160 C   0  0  1  0  0  0  0  0  0  0  0  0
  188.8180  179.1660  138.0320 O   0  0  0  0  0  1  0  0  0  0  0  0
  189.3980  176.4780  139.5580 C   0  0  2  0  0  3  0  0  0  0  0  0
  185.9020  176.4930  135.9160 C   0  0  2  0  0  3  0  0  0  0  0  0
  188.6850  176.8370  140.8580 C   0  0  0  0  0  2  0  0  0  0  0  0
  188.8340  173.9190  136.2420 C   0  0  0  0  0  2  0  0  0  0  0  0
  189.7090  174.8840  137.0590 C   0  0  0  0  0  2  0  0  0  0  0  0
  186.6300  173.3650  135.2880 C   0  0  0  0  0  1  0  0  0  0  0  0
  186.7640  174.2040  137.5930 C   0  0  0  0  0  1  0  0  0  0  0  0
  188.4680  176.6530  135.7210 C   0  0  2  0  0  3  0  0  0  0  0  0
  186.7400  178.3050  137.2870 C   0  0  0  0  0  2  0  0  0  0  0  0
  185.5370  177.4660  134.7920 C   0  0  0  0  0  1  0  0  0  0  0  0
  185.8980  177.1060  137.2600 N   0  0  0  0  0  0  0  0  0  0  0  0
  187.2350  178.4780  139.6820 C   0  0  0  0  0  2  0  0  0  0  0  0
  187.3610  174.3330  136.1970 C   0  0  0  0  0  0  0  0  0  0  0  0
  189.2770  176.5010  134.5940 O   0  0  0  0  0  1  0  0  0  0  0  0
  188.2120  178.2840  140.8320 C   0  0  0  0  0  2  0  0  0  0  0  0
  191.7870  176.3090  139.0530 N   0  0  0  0  0  0  0  0  0  0  0  0
  190.8010  177.0170  139.5040 C   0  0  0  0  0  3  0  0  0  0  0  0
  193.8130  176.7510  137.8980 N   0  0  0  0  0  2  0  0  0  0  0  0
  193.7470  177.3770  140.2170 C   0  0  0  0  0  1  0  0  0  0  0  0
  193.1300  176.7990  138.9960 C   0  0  0  0  0  0  0  0  0  0  0  0
  184.5380  177.5170  137.5980 C   0  0  0  0  0  2  0  0  0  0  0  0
  183.5920  176.3200  137.6830 C   0  0  1  0  0  3  0  0  0  0  0  0
  183.0560  176.1470  139.0920 C   0  0  0  0  0  1  0  0  0  0  0  0
  182.4900  176.4560  136.7440 N   0  0  0  0  0  2  0  0  0  0  0  0
  182.2450  177.8770  136.5730 C   0  0  0  0  0  1  0  0  0  0  0  0
  1  4  1  0  0  0  0
  1  6  1  0  0  0  0
  2 10  1  0  0  0  0
  2  1  1  0  0  0  0
  3 13  1  0  0  0  0
  3  7  1  0  0  0  0
  3 18  1  0  0  0  0
  4 17  1  0  0  0  0
  5  4  1  0  0  0  0
  6  8  1  0  0  0  0
  7 16  1  0  0  0  0
  9 10  1  0  0  0  0
 11 18  1  0  0  0  0
 13  2  1  0  0  0  0
 14  4  1  0  0  0  0
 15  7  1  0  0  0  0
 16 14  1  0  0  0  0
 16 26  1  0  0  0  0
 17 20  1  0  0  0  0
 18  9  1  0  0  0  0
 18 12  1  0  0  0  0
 19 13  1  0  0  0  0
 20  8  1  0  0  0  0
 21 22  2  0  0  0  0
 22  6  1  0  0  0  0
 23 25  2  0  0  0  0
 25 21  1  0  0  0  0
 25 24  1  0  0  0  0
 26 27  1  0  0  0  0
 27 28  1  0  0  0  0
 29 27  1  0  0  0  0
 30 29  1  0  0  0  0
M  END
>  <MODEL>
4

>  <REMARK>
 VINA RESULT:      -3.8      3.036      6.261
  Name = 
  5 active torsions:
  status: ('A' for Active; 'I' for Inactive)
    1  A    between atoms: C_7  and  C_10
    2  A    between atoms: C_7  and  N_15
    3  A    between atoms: C_8  and  C_12
    4  A    between atoms: N_9  and  C_21
    5  A    between atoms: C_10  and  N_25
                            x       y       z     vdW  Elec       q    Type
                         _______ _______ _______ _____ _____    ______ ____

>  <TORSDO>
F 5

$$$$
=
 OpenBabel11052412223D

 30 32  0  0  1  0  0  0  0  0999 V2000
  185.9800  176.7700  136.8870 C   0  0  2  0  0  3  0  0  0  0  0  0
  186.5190  178.1570  137.3310 C   0  0  1  0  0  3  0  0  0  0  0  0
  189.0000  177.7390  136.9060 C   0  0  1  0  0  3  0  0  0  0  0  0
  185.8770  176.5200  135.3480 C   0  0  1  0  0  0  0  0  0  0  0  0
  185.0760  177.4990  134.7580 O   0  0  0  0  0  1  0  0  0  0  0  0
  184.7020  176.3740  137.6700 C   0  0  2  0  0  3  0  0  0  0  0  0
  189.3750  176.7410  135.7940 C   0  0  2  0  0  3  0  0  0  0  0  0
  184.1750  174.9970  137.2780 C   0  0  0  0  0  2  0  0  0  0  0  0
  188.2180  178.0700  139.2900 C   0  0  0  0  0  2  0  0  0  0  0  0
  186.7470  178.1880  138.8580 C   0  0  0  0  0  2  0  0  0  0  0  0
  190.4900  177.2330  138.8310 C   0  0  0  0  0  1  0  0  0  0  0  0
  188.5680  175.7480  138.4700 C   0  0  0  0  0  1  0  0  0  0  0  0
  187.7720  178.6060  136.5700 C   0  0  2  0  0  3  0  0  0  0  0  0
  187.2440  176.5470  134.6590 C   0  0  0  0  0  2  0  0  0  0  0  0
  189.9880  177.4660  134.5940 C   0  0  0  0  0  1  0  0  0  0  0  0
  188.2610  175.8380  135.4390 N   0  0  0  0  0  0  0  0  0  0  0  0
  185.2770  175.1390  135.0550 C   0  0  0  0  0  2  0  0  0  0  0  0
  189.0520  177.1890  138.3570 C   0  0  0  0  0  0  0  0  0  0  0  0
  188.0460  179.9490  136.8360 O   0  0  0  0  0  1  0  0  0  0  0  0
  183.9560  174.9110  135.7740 C   0  0  0  0  0  2  0  0  0  0  0  0
  183.0300  177.7680  138.7870 N   0  0  0  0  0  0  0  0  0  0  0  0
  183.6220  177.4190  137.6900 C   0  0  0  0  0  3  0  0  0  0  0  0
  181.4580  179.1130  139.9510 N   0  0  0  0  0  2  0  0  0  0  0  0
  181.5410  179.3890  137.5660 C   0  0  0  0  0  1  0  0  0  0  0  0
  181.9970  178.7560  138.8300 C   0  0  0  0  0  0  0  0  0  0  0  0
  188.7690  174.7480  134.6100 C   0  0  0  0  0  2  0  0  0  0  0  0
  188.9370  173.4590  135.4150 C   0  0  1  0  0  3  0  0  0  0  0  0
  187.8580  172.4520  135.0620 C   0  0  0  0  0  1  0  0  0  0  0  0
  190.2520  172.8760  135.2000 N   0  0  0  0  0  2  0  0  0  0  0  0
  191.1380  173.4340  136.2070 C   0  0  0  0  0  1  0  0  0  0  0  0
  1  2  1  0  0  0  0
  1  6  1  0  0  0  0
  2 10  1  0  0  0  0
  3 18  1  0  0  0  0
  4  1  1  0  0  0  0
  5  4  1  0  0  0  0
  6 22  1  0  0  0  0
  7  3  1  0  0  0  0
  8  6  1  0  0  0  0
 10  9  1  0  0  0  0
 13 19  1  0  0  0  0
 13  3  1  0  0  0  0
 13  2  1  0  0  0  0
 14  4  1  0  0  0  0
 14 16  1  0  0  0  0
 15  7  1  0  0  0  0
 16  7  1  0  0  0  0
 17  4  1  0  0  0  0
 17 20  1  0  0  0  0
 18 12  1  0  0  0  0
 18 11  1  0  0  0  0
 18  9  1  0  0  0  0
 20  8  1  0  0  0  0
 21 25  1  0  0  0  0
 22 21  2  0  0  0  0
 24 25  1  0  0  0  0
 25 23  2  0  0  0  0
 26 27  1  0  0  0  0
 26 16  1  0  0  0  0
 28 27  1  0  0  0  0
 29 27  1  0  0  0  0
 29 30  1  0  0  0  0
M  END
>  <MODEL>
5

>  <REMARK>
 VINA RESULT:      -3.7      2.916      7.001
  Name = 
  5 active torsions:
  status: ('A' for Active; 'I' for Inactive)
    1  A    between atoms: C_7  and  C_10
    2  A    between atoms: C_7  and  N_15
    3  A    between atoms: C_8  and  C_12
    4  A    between atoms: N_9  and  C_21
    5  A    between atoms: C_10  and  N_25
                            x       y       z     vdW  Elec       q    Type
                         _______ _______ _______ _____ _____    ______ ____

>  <TORSDO>
F 5

$$$$
=
 OpenBabel11052412223D

 30 32  0  0  1  0  0  0  0  0999 V2000
  181.5340  177.4210  138.3430 C   0  0  2  0  0  3  0  0  0  0  0  0
  180.5290  176.2700  138.6160 C   0  0  1  0  0  3  0  0  0  0  0  0
  181.2860  174.6770  136.7710 C   0  0  1  0  0  3  0  0  0  0  0  0
  182.9960  177.2090  138.8530 C   0  0  1  0  0  0  0  0  0  0  0  0
  182.9920  176.9630  140.2270 O   0  0  0  0  0  1  0  0  0  0  0  0
  180.9380  178.8020  138.7150 C   0  0  2  0  0  3  0  0  0  0  0  0
  182.7630  174.7410  136.3360 C   0  0  2  0  0  3  0  0  0  0  0  0
  181.8940  179.9550  138.4200 C   0  0  0  0  0  2  0  0  0  0  0  0
  178.9780  175.7030  136.6160 C   0  0  0  0  0  2  0  0  0  0  0  0
  179.1910  176.5330  137.8920 C   0  0  0  0  0  2  0  0  0  0  0  0
  179.9470  174.5200  134.6830 C   0  0  0  0  0  1  0  0  0  0  0  0
  180.8220  176.7310  135.3000 C   0  0  0  0  0  1  0  0  0  0  0  0
  181.0800  174.8770  138.2850 C   0  0  2  0  0  3  0  0  0  0  0  0
  183.6910  176.0320  138.1620 C   0  0  0  0  0  2  0  0  0  0  0  0
  183.5200  173.4910  136.7880 C   0  0  0  0  0  1  0  0  0  0  0  0
  183.4170  176.0070  136.7240 N   0  0  0  0  0  0  0  0  0  0  0  0
  183.8610  178.4440  138.5680 C   0  0  0  0  0  2  0  0  0  0  0  0
  180.2770  175.4200  135.8560 C   0  0  0  0  0  0  0  0  0  0  0  0
  180.2320  173.8880  138.7870 O   0  0  0  0  0  1  0  0  0  0  0  0
  183.2380  179.7270  139.0960 C   0  0  0  0  0  2  0  0  0  0  0  0
  180.8090  179.7010  140.9880 N   0  0  0  0  0  0  0  0  0  0  0  0
  180.3460  178.8860  140.0950 C   0  0  0  0  0  3  0  0  0  0  0  0
  179.6810  180.8770  142.7140 N   0  0  0  0  0  2  0  0  0  0  0  0
  180.3650  178.6300  143.2220 C   0  0  0  0  0  1  0  0  0  0  0  0
  180.2640  179.7960  142.3070 C   0  0  0  0  0  0  0  0  0  0  0  0
  184.6990  176.1190  136.0310 C   0  0  0  0  0  2  0  0  0  0  0  0
  185.8720  176.1000  137.0100 C   0  0  1  0  0  3  0  0  0  0  0  0
  186.7740  174.9060  136.7570 C   0  0  0  0  0  1  0  0  0  0  0  0
  186.6420  177.3320  136.9290 N   0  0  0  0  0  2  0  0  0  0  0  0
  187.7010  177.2420  137.9190 C   0  0  0  0  0  1  0  0  0  0  0  0
  1  2  1  0  0  0  0
  1  6  1  0  0  0  0
  1  4  1  0  0  0  0
  3 13  1  0  0  0  0
  4  5  1  0  0  0  0
  6 22  1  0  0  0  0
  7 16  1  0  0  0  0
  7  3  1  0  0  0  0
  7 15  1  0  0  0  0
  8  6  1  0  0  0  0
  8 20  1  0  0  0  0
  9 10  1  0  0  0  0
 10  2  1  0  0  0  0
 11 18  1  0  0  0  0
 12 18  1  0  0  0  0
 13  2  1  0  0  0  0
 13 19  1  0  0  0  0
 14  4  1  0  0  0  0
 16 14  1  0  0  0  0
 17  4  1  0  0  0  0
 17 20  1  0  0  0  0
 18  9  1  0  0  0  0
 18  3  1  0  0  0  0
 21 25  1  0  0  0  0
 22 21  2  0  0  0  0
 25 23  2  0  0  0  0
 25 24  1  0  0  0  0
 26 16  1  0  0  0  0
 26 27  1  0  0  0  0
 28 27  1  0  0  0  0
 29 27  1  0  0  0  0
 29 30  1  0  0  0  0
M  END
>  <MODEL>
6

>  <REMARK>
 VINA RESULT:      -3.7      2.437      6.070
  Name = 
  5 active torsions:
  status: ('A' for Active; 'I' for Inactive)
    1  A    between atoms: C_7  and  C_10
    2  A    between atoms: C_7  and  N_15
    3  A    between atoms: C_8  and  C_12
    4  A    between atoms: N_9  and  C_21
    5  A    between atoms: C_10  and  N_25
                            x       y       z     vdW  Elec       q    Type
                         _______ _______ _______ _____ _____    ______ ____

>  <TORSDO>
F 5

$$$$
=
 OpenBabel11052412223D

 30 32  0  0  1  0  0  0  0  0999 V2000
  181.0770  178.5040  138.1420 C   0  0  2  0  0  3  0  0  0  0  0  0
  181.7550  178.1140  136.8020 C   0  0  1  0  0  3  0  0  0  0  0  0
  181.6760  175.5780  137.0760 C   0  0  1  0  0  3  0  0  0  0  0  0
  179.5220  178.3620  138.2070 C   0  0  1  0  0  0  0  0  0  0  0  0
  178.9310  179.1170  137.1920 O   0  0  0  0  0  1  0  0  0  0  0  0
  181.6010  179.8620  138.6760 C   0  0  2  0  0  3  0  0  0  0  0  0
  180.5280  174.9870  137.9170 C   0  0  2  0  0  3  0  0  0  0  0  0
  180.9760  180.2490  140.0130 C   0  0  0  0  0  2  0  0  0  0  0  0
  183.9310  176.7250  137.0650 C   0  0  0  0  0  2  0  0  0  0  0  0
  183.2920  178.1190  136.9490 C   0  0  0  0  0  2  0  0  0  0  0  0
  183.7370  174.3680  137.7580 C   0  0  0  0  0  1  0  0  0  0  0  0
  182.9140  176.1320  139.2570 C   0  0  0  0  0  1  0  0  0  0  0  0
  181.2550  176.7870  136.2190 C   0  0  2  0  0  3  0  0  0  0  0  0
  179.0610  176.9100  138.0470 C   0  0  0  0  0  2  0  0  0  0  0  0
  179.5290  174.2410  137.0300 C   0  0  0  0  0  1  0  0  0  0  0  0
  179.9030  175.9850  138.8090 N   0  0  0  0  0  0  0  0  0  0  0  0
  178.9830  178.8350  139.5620 C   0  0  0  0  0  2  0  0  0  0  0  0
  183.0440  175.7150  137.7960 C   0  0  0  0  0  0  0  0  0  0  0  0
  181.7120  176.6280  134.9090 O   0  0  0  0  0  1  0  0  0  0  0  0
  179.4570  180.2350  139.9220 C   0  0  0  0  0  2  0  0  0  0  0  0
  181.3050  182.2050  138.0330 N   0  0  0  0  0  0  0  0  0  0  0  0
  181.5720  180.9880  137.6800 C   0  0  0  0  0  3  0  0  0  0  0  0
  180.8450  183.1220  135.8930 N   0  0  0  0  0  2  0  0  0  0  0  0
  181.7210  184.6380  137.5400 C   0  0  0  0  0  1  0  0  0  0  0  0
  181.2690  183.2910  137.1040 C   0  0  0  0  0  0  0  0  0  0  0  0
  179.0430  175.3000  139.7710 C   0  0  0  0  0  2  0  0  0  0  0  0
  179.5540  175.4670  141.2020 C   0  0  1  0  0  3  0  0  0  0  0  0
  179.3060  176.8760  141.7090 C   0  0  0  0  0  1  0  0  0  0  0  0
  178.9340  174.5000  142.0950 N   0  0  0  0  0  2  0  0  0  0  0  0
  179.5210  173.2050  141.7980 C   0  0  0  0  0  1  0  0  0  0  0  0
  1  4  1  0  0  0  0
  1  6  1  0  0  0  0
  2 10  1  0  0  0  0
  2  1  1  0  0  0  0
  3 18  1  0  0  0  0
  3  7  1  0  0  0  0
  4 17  1  0  0  0  0
  5  4  1  0  0  0  0
  6  8  1  0  0  0  0
  7 16  1  0  0  0  0
  9 18  1  0  0  0  0
 10  9  1  0  0  0  0
 11 18  1  0  0  0  0
 13  2  1  0  0  0  0
 13  3  1  0  0  0  0
 14  4  1  0  0  0  0
 14 16  1  0  0  0  0
 15  7  1  0  0  0  0
 16 26  1  0  0  0  0
 17 20  1  0  0  0  0
 18 12  1  0  0  0  0
 19 13  1  0  0  0  0
 20  8  1  0  0  0  0
 22 21  2  0  0  0  0
 22  6  1  0  0  0  0
 23 25  2  0  0  0  0
 25 24  1  0  0  0  0
 25 21  1  0  0  0  0
 26 27  1  0  0  0  0
 27 28  1  0  0  0  0
 27 29  1  0  0  0  0
 30 29  1  0  0  0  0
M  END
>  <MODEL>
7

>  <REMARK>
 VINA RESULT:      -3.1      3.294      5.986
  Name = 
  5 active torsions:
  status: ('A' for Active; 'I' for Inactive)
    1  A    between atoms: C_7  and  C_10
    2  A    between atoms: C_7  and  N_15
    3  A    between atoms: C_8  and  C_12
    4  A    between atoms: N_9  and  C_21
    5  A    between atoms: C_10  and  N_25
                            x       y       z     vdW  Elec       q    Type
                         _______ _______ _______ _____ _____    ______ ____

>  <TORSDO>
F 5

$$$$
=
 OpenBabel11052412223D

 30 32  0  0  1  0  0  0  0  0999 V2000
  182.9710  177.9420  138.0820 C   0  0  2  0  0  3  0  0  0  0  0  0
  181.8840  178.7390  138.8540 C   0  0  1  0  0  3  0  0  0  0  0  0
  179.8590  178.0270  137.4750 C   0  0  1  0  0  3  0  0  0  0  0  0
  183.0580  176.4100  138.3790 C   0  0  1  0  0  0  0  0  0  0  0  0
  183.2620  176.1990  139.7440 O   0  0  0  0  0  1  0  0  0  0  0  0
  184.3420  178.6630  138.1160 C   0  0  2  0  0  3  0  0  0  0  0  0
  179.9060  176.6440  136.7990 C   0  0  2  0  0  3  0  0  0  0  0  0
  185.4180  177.9170  137.3310 C   0  0  0  0  0  2  0  0  0  0  0  0
  180.5800  180.4520  137.4070 C   0  0  0  0  0  2  0  0  0  0  0  0
  181.7880  180.1840  138.3200 C   0  0  0  0  0  2  0  0  0  0  0  0
  178.9310  179.5990  135.7860 C   0  0  0  0  0  1  0  0  0  0  0  0
  181.2890  178.9530  135.5530 C   0  0  0  0  0  1  0  0  0  0  0  0
  180.5110  178.0560  138.8700 C   0  0  2  0  0  3  0  0  0  0  0  0
  181.7860  175.6620  137.9690 C   0  0  0  0  0  2  0  0  0  0  0  0
  178.9350  175.6720  137.4730 C   0  0  0  0  0  1  0  0  0  0  0  0
  181.2810  176.1190  136.6720 N   0  0  0  0  0  0  0  0  0  0  0  0
  184.2070  175.7640  137.5950 C   0  0  0  0  0  2  0  0  0  0  0  0
  180.1830  179.2400  136.5610 C   0  0  0  0  0  0  0  0  0  0  0  0
  179.6640  178.6890  139.7810 O   0  0  0  0  0  1  0  0  0  0  0  0
  185.5340  176.4780  137.8090 C   0  0  0  0  0  2  0  0  0  0  0  0
  185.7580  178.4410  140.1000 N   0  0  0  0  0  0  0  0  0  0  0  0
  184.8090  179.0730  139.4850 C   0  0  0  0  0  3  0  0  0  0  0  0
  185.5080  179.5740  142.1700 N   0  0  0  0  0  2  0  0  0  0  0  0
  187.5270  178.3020  141.8860 C   0  0  0  0  0  1  0  0  0  0  0  0
  186.2170  178.8110  141.4030 C   0  0  0  0  0  0  0  0  0  0  0  0
  181.2770  174.9670  135.7730 C   0  0  0  0  0  2  0  0  0  0  0  0
  181.6550  173.6800  136.5040 C   0  0  1  0  0  3  0  0  0  0  0  0
  180.4730  172.7330  136.5900 C   0  0  0  0  0  1  0  0  0  0  0  0
  182.7760  173.0190  135.8530 N   0  0  0  0  0  2  0  0  0  0  0  0
  183.1420  171.8810  136.6790 C   0  0  0  0  0  1  0  0  0  0  0  0
  1  6  1  0  0  0  0
  1  4  1  0  0  0  0
  1  2  1  0  0  0  0
  2 13  1  0  0  0  0
  3 13  1  0  0  0  0
  4  5  1  0  0  0  0
  6 22  1  0  0  0  0
  7 15  1  0  0  0  0
  7  3  1  0  0  0  0
  8 20  1  0  0  0  0
  8  6  1  0  0  0  0
  9 10  1  0  0  0  0
 10  2  1  0  0  0  0
 11 18  1  0  0  0  0
 12 18  1  0  0  0  0
 13 19  1  0  0  0  0
 14  4  1  0  0  0  0
 16  7  1  0  0  0  0
 16 14  1  0  0  0  0
 17 20  1  0  0  0  0
 17  4  1  0  0  0  0
 18  9  1  0  0  0  0
 18  3  1  0  0  0  0
 21 25  1  0  0  0  0
 22 21  2  0  0  0  0
 25 24  1  0  0  0  0
 25 23  2  0  0  0  0
 26 27  1  0  0  0  0
 26 16  1  0  0  0  0
 27 28  1  0  0  0  0
 29 27  1  0  0  0  0
 29 30  1  0  0  0  0
M  END
>  <MODEL>
8

>  <REMARK>
 VINA RESULT:      -3.1      2.339      3.163
  Name = 
  5 active torsions:
  status: ('A' for Active; 'I' for Inactive)
    1  A    between atoms: C_7  and  C_10
    2  A    between atoms: C_7  and  N_15
    3  A    between atoms: C_8  and  C_12
    4  A    between atoms: N_9  and  C_21
    5  A    between atoms: C_10  and  N_25
                            x       y       z     vdW  Elec       q    Type
                         _______ _______ _______ _____ _____    ______ ____

>  <TORSDO>
F 5

$$$$
=
 OpenBabel11052412223D

 30 32  0  0  1  0  0  0  0  0999 V2000
  181.4560  178.3610  137.7810 C   0  0  2  0  0  3  0  0  0  0  0  0
  182.6890  178.2930  136.8400 C   0  0  1  0  0  3  0  0  0  0  0  0
  182.6640  175.7830  136.3810 C   0  0  1  0  0  3  0  0  0  0  0  0
  180.0510  178.2990  137.0990 C   0  0  1  0  0  0  0  0  0  0  0  0
  179.9300  179.3260  136.1610 O   0  0  0  0  0  1  0  0  0  0  0  0
  181.5930  179.4980  138.8250 C   0  0  2  0  0  3  0  0  0  0  0  0
  181.3030  175.0630  136.4300 C   0  0  2  0  0  3  0  0  0  0  0  0
  180.4090  179.5600  139.7860 C   0  0  0  0  0  2  0  0  0  0  0  0
  184.6020  176.7570  137.6850 C   0  0  0  0  0  2  0  0  0  0  0  0
  183.9920  178.1690  137.6590 C   0  0  0  0  0  2  0  0  0  0  0  0
  184.2740  174.3170  137.5790 C   0  0  0  0  0  1  0  0  0  0  0  0
  182.7500  175.6750  138.9460 C   0  0  0  0  0  1  0  0  0  0  0  0
  182.5930  177.1970  135.7720 C   0  0  2  0  0  3  0  0  0  0  0  0
  179.8090  176.9690  136.3790 C   0  0  0  0  0  2  0  0  0  0  0  0
  180.8600  174.6350  135.0290 C   0  0  0  0  0  1  0  0  0  0  0  0
  180.2790  175.8290  137.1700 N   0  0  0  0  0  0  0  0  0  0  0  0
  178.9310  178.4340  138.1380 C   0  0  0  0  0  2  0  0  0  0  0  0
  183.5500  175.6460  137.6480 C   0  0  0  0  0  0  0  0  0  0  0  0
  183.5990  177.3580  134.8180 O   0  0  0  0  0  1  0  0  0  0  0  0
  179.0980  179.6610  139.0210 C   0  0  0  0  0  2  0  0  0  0  0  0
  181.0590  181.7870  138.1440 N   0  0  0  0  0  0  0  0  0  0  0  0
  181.9400  180.8450  138.2530 C   0  0  0  0  0  3  0  0  0  0  0  0
  182.4300  183.7160  137.9580 N   0  0  0  0  0  2  0  0  0  0  0  0
  180.4460  183.6810  136.6030 C   0  0  0  0  0  1  0  0  0  0  0  0
  181.3650  183.0750  137.6010 C   0  0  0  0  0  0  0  0  0  0  0  0
  179.1260  174.9690  137.4270 C   0  0  0  0  0  2  0  0  0  0  0  0
  179.5320  173.6830  138.1450 C   0  0  1  0  0  3  0  0  0  0  0  0
  179.1440  173.7300  139.6110 C   0  0  0  0  0  1  0  0  0  0  0  0
  178.9350  172.5180  137.5090 N   0  0  0  0  0  2  0  0  0  0  0  0
  180.0160  171.6000  137.1940 C   0  0  0  0  0  1  0  0  0  0  0  0
  1  6  1  0  0  0  0
  2 10  1  0  0  0  0
  2  1  1  0  0  0  0
  3  7  1  0  0  0  0
  3 18  1  0  0  0  0
  4  1  1  0  0  0  0
  4 17  1  0  0  0  0
  5  4  1  0  0  0  0
  6  8  1  0  0  0  0
  7 16  1  0  0  0  0
 10  9  1  0  0  0  0
 11 18  1  0  0  0  0
 13  3  1  0  0  0  0
 13  2  1  0  0  0  0
 14  4  1  0  0  0  0
 14 16  1  0  0  0  0
 15  7  1  0  0  0  0
 16 26  1  0  0  0  0
 17 20  1  0  0  0  0
 18  9  1  0  0  0  0
 18 12  1  0  0  0  0
 19 13  1  0  0  0  0
 20  8  1  0  0  0  0
 21 22  2  0  0  0  0
 22  6  1  0  0  0  0
 24 25  1  0  0  0  0
 25 23  2  0  0  0  0
 25 21  1  0  0  0  0
 26 27  1  0  0  0  0
 27 28  1  0  0  0  0
 29 27  1  0  0  0  0
 30 29  1  0  0  0  0
M  END
>  <MODEL>
9

>  <REMARK>
 VINA RESULT:      -3.1      3.095      5.489
  Name = 
  5 active torsions:
  status: ('A' for Active; 'I' for Inactive)
    1  A    between atoms: C_7  and  C_10
    2  A    between atoms: C_7  and  N_15
    3  A    between atoms: C_8  and  C_12
    4  A    between atoms: N_9  and  C_21
    5  A    between atoms: C_10  and  N_25
                            x       y       z     vdW  Elec       q    Type
                         _______ _______ _______ _____ _____    ______ ____

>  <TORSDO>
F 5

$$$$
