=
 OpenBabel11052412443D

 25 26  0  0  1  0  0  0  0  0999 V2000
  192.3060  177.4950  140.5950 C   0  0  0  0  0  1  0  0  0  0  0  0
  189.5820  176.0740  142.1610 C   0  0  0  0  0  2  0  0  0  0  0  0
  191.3000  177.8530  141.6730 C   0  0  1  0  0  3  0  0  0  0  0  0
  190.7240  177.3840  144.0980 C   0  0  0  0  0  0  0  0  0  0  0  0
  190.2150  178.8020  144.3410 C   0  0  0  0  0  1  0  0  0  0  0  0
  189.9960  177.2380  141.3780 N   0  0  0  0  0  0  0  0  0  0  0  0
  191.3220  176.8760  145.3930 C   0  0  0  0  0  1  0  0  0  0  0  0
  189.6050  176.3990  143.6590 C   0  0  1  0  0  3  0  0  0  0  0  0
  191.8380  177.4320  143.0470 C   0  0  0  0  0  2  0  0  0  0  0  0
  189.0680  177.8810  140.4750 C   0  0  0  0  0  0  0  0  0  0  0  0
  188.0360  178.5660  140.9640 C   0  0  0  0  0  2  0  0  0  0  0  0
  189.2220  177.7900  139.0030 C   0  0  0  0  0  0  0  0  0  0  0  0
  189.0100  178.9370  138.1830 N   0  0  0  0  0  1  0  0  0  0  0  0
  189.5620  176.7070  138.4570 O   0  0  0  0  0  0  0  0  0  0  0  0
  188.2050  176.6620  144.2200 C   0  0  0  0  0  2  0  0  0  0  0  0
  187.1670  177.8940  146.1890 C   0  0  0  0  0  0  0  0  0  0  0  0
  188.2790  177.2660  145.5450 N   0  0  0  0  0  2  0  0  0  0  0  0
  187.2080  178.0690  147.4350 O   0  0  0  0  0  0  0  0  0  0  0  0
  185.9710  178.3270  145.4400 C   0  0  0  0  0  0  0  0  0  0  0  0
  183.7250  179.1130  143.9500 C   0  0  0  0  0  3  0  0  0  0  0  0
  184.7190  178.4820  146.0690 C   0  0  0  0  0  0  0  0  0  0  0  0
  183.6050  178.8780  145.3220 C   0  0  0  0  0  3  0  0  0  0  0  0
  184.9580  178.9420  143.3180 C   0  0  0  0  0  3  0  0  0  0  0  0
  184.5600  178.2040  147.3860 F   0  0  0  0  0  0  0  0  0  0  0  0
  186.0730  178.5450  144.0580 C   0  0  0  0  0  3  0  0  0  0  0  0
  2  8  1  0  0  0  0
  3  1  1  6  0  0  0
  3  9  1  0  0  0  0
  4  5  1  0  0  0  0
  4  7  1  0  0  0  0
  6  3  1  0  0  0  0
  6  2  1  0  0  0  0
  8  4  1  0  0  0  0
  8 15  1  6  0  0  0
  9  4  1  0  0  0  0
 10 11  2  0  0  0  0
 10  6  1  0  0  0  0
 12 10  1  0  0  0  0
 13 12  1  0  0  0  0
 14 12  2  0  0  0  0
 15 17  1  0  0  0  0
 16 18  2  0  0  0  0
 17 16  1  0  0  0  0
 19 21  1  0  0  0  0
 19 16  1  0  0  0  0
 20 22  1  0  0  0  0
 21 24  1  0  0  0  0
 22 21  2  0  0  0  0
 23 20  2  0  0  0  0
 23 25  1  0  0  0  0
 25 19  2  0  0  0  0
M  END
>  <MODEL>
1

>  <REMARK>
 VINA RESULT:      -8.6      0.000      0.000
  Name = 
  5 active torsions:
  status: ('A' for Active; 'I' for Inactive)
    1  A    between atoms: C_1  and  C_5
    2  A    between atoms: C_2  and  C_21
    3  A    between atoms: N_3  and  C_16
    4  A    between atoms: N_15  and  C_21
    5  A    between atoms: C_16  and  C_23
                            x       y       z     vdW  Elec       q    Type
                         _______ _______ _______ _____ _____    ______ ____

>  <TORSDO>
F 5

$$$$
=
 OpenBabel11052412443D

 25 26  0  0  1  0  0  0  0  0999 V2000
  192.1820  178.2180  144.5590 C   0  0  0  0  0  1  0  0  0  0  0  0
  188.8280  178.5330  145.2960 C   0  0  0  0  0  2  0  0  0  0  0  0
  190.9030  177.4190  144.3970 C   0  0  1  0  0  3  0  0  0  0  0  0
  188.7860  177.3030  143.0030 C   0  0  0  0  0  0  0  0  0  0  0  0
  188.7290  175.7790  143.0600 C   0  0  0  0  0  1  0  0  0  0  0  0
  189.9930  177.6780  145.5240 N   0  0  0  0  0  0  0  0  0  0  0  0
  188.2020  177.7410  141.6770 C   0  0  0  0  0  1  0  0  0  0  0  0
  187.9800  177.9880  144.1410 C   0  0  1  0  0  3  0  0  0  0  0  0
  190.2530  177.7440  143.0450 C   0  0  0  0  0  2  0  0  0  0  0  0
  190.1380  176.9560  146.7670 C   0  0  0  0  0  0  0  0  0  0  0  0
  189.0580  176.6440  147.4820 C   0  0  0  0  0  2  0  0  0  0  0  0
  191.4680  176.5560  147.2870 C   0  0  0  0  0  0  0  0  0  0  0  0
  192.1120  175.3820  146.7960 N   0  0  0  0  0  1  0  0  0  0  0  0
  192.0580  177.2550  148.1520 O   0  0  0  0  0  0  0  0  0  0  0  0
  186.7310  177.2520  144.6320 C   0  0  0  0  0  2  0  0  0  0  0  0
  184.6790  178.6550  145.1760 C   0  0  0  0  0  0  0  0  0  0  0  0
  185.9470  178.0950  145.5280 N   0  0  0  0  0  2  0  0  0  0  0  0
  183.9200  179.0610  146.0940 O   0  0  0  0  0  0  0  0  0  0  0  0
  184.2300  178.7550  143.7730 C   0  0  0  0  0  0  0  0  0  0  0  0
  183.4460  178.9170  141.0830 C   0  0  0  0  0  3  0  0  0  0  0  0
  182.8750  178.6000  143.4170 C   0  0  0  0  0  0  0  0  0  0  0  0
  182.4900  178.6860  142.0760 C   0  0  0  0  0  3  0  0  0  0  0  0
  184.7920  179.0510  141.4270 C   0  0  0  0  0  3  0  0  0  0  0  0
  181.9340  178.3170  144.3520 F   0  0  0  0  0  0  0  0  0  0  0  0
  185.1820  178.9640  142.7650 C   0  0  0  0  0  3  0  0  0  0  0  0
  2  6  1  0  0  0  0
  3  1  1  1  0  0  0
  3  6  1  0  0  0  0
  4  9  1  0  0  0  0
  4  5  1  0  0  0  0
  4  8  1  0  0  0  0
  6 10  1  0  0  0  0
  7  4  1  0  0  0  0
  8 15  1  1  0  0  0
  8  2  1  0  0  0  0
  9  3  1  0  0  0  0
 10 12  1  0  0  0  0
 10 11  2  0  0  0  0
 12 14  2  0  0  0  0
 13 12  1  0  0  0  0
 15 17  1  0  0  0  0
 16 17  1  0  0  0  0
 16 18  2  0  0  0  0
 19 16  1  0  0  0  0
 20 23  2  0  0  0  0
 20 22  1  0  0  0  0
 21 19  1  0  0  0  0
 21 24  1  0  0  0  0
 22 21  2  0  0  0  0
 23 25  1  0  0  0  0
 25 19  2  0  0  0  0
M  END
>  <MODEL>
2

>  <REMARK>
 VINA RESULT:      -8.2      3.155      4.726
  Name = 
  5 active torsions:
  status: ('A' for Active; 'I' for Inactive)
    1  A    between atoms: C_1  and  C_5
    2  A    between atoms: C_2  and  C_21
    3  A    between atoms: N_3  and  C_16
    4  A    between atoms: N_15  and  C_21
    5  A    between atoms: C_16  and  C_23
                            x       y       z     vdW  Elec       q    Type
                         _______ _______ _______ _____ _____    ______ ____

>  <TORSDO>
F 5

$$$$
=
 OpenBabel11052412443D

 25 26  0  0  1  0  0  0  0  0999 V2000
  192.0100  176.1160  146.0570 C   0  0  0  0  0  1  0  0  0  0  0  0
  188.9590  176.5110  144.5000 C   0  0  0  0  0  2  0  0  0  0  0  0
  190.8530  177.0970  146.0560 C   0  0  1  0  0  3  0  0  0  0  0  0
  188.4800  177.3840  146.9040 C   0  0  0  0  0  0  0  0  0  0  0  0
  188.6450  178.8860  147.1190 C   0  0  0  0  0  1  0  0  0  0  0  0
  190.2470  177.1690  144.7180 N   0  0  0  0  0  0  0  0  0  0  0  0
  187.5120  176.8690  147.9490 C   0  0  0  0  0  1  0  0  0  0  0  0
  187.9180  177.0250  145.5010 C   0  0  1  0  0  3  0  0  0  0  0  0
  189.8320  176.7000  147.1310 C   0  0  0  0  0  2  0  0  0  0  0  0
  190.8120  178.0270  143.7000 C   0  0  0  0  0  0  0  0  0  0  0  0
  191.1460  179.2810  144.0030 C   0  0  0  0  0  2  0  0  0  0  0  0
  191.0230  177.5550  142.3110 C   0  0  0  0  0  0  0  0  0  0  0  0
  189.9400  177.5350  141.3830 N   0  0  0  0  0  1  0  0  0  0  0  0
  192.1620  177.1850  141.9230 O   0  0  0  0  0  0  0  0  0  0  0  0
  186.9540  178.0340  144.8720 C   0  0  0  0  0  2  0  0  0  0  0  0
  186.1080  178.5490  142.5280 C   0  0  0  0  0  0  0  0  0  0  0  0
  187.1210  178.0840  143.4240 N   0  0  0  0  0  2  0  0  0  0  0  0
  186.4390  178.8900  141.3630 O   0  0  0  0  0  0  0  0  0  0  0  0
  184.6920  178.6550  142.9340 C   0  0  0  0  0  0  0  0  0  0  0  0
  182.0230  178.9070  143.7650 C   0  0  0  0  0  3  0  0  0  0  0  0
  183.6430  178.5390  142.0000 C   0  0  0  0  0  0  0  0  0  0  0  0
  182.3160  178.6620  142.4210 C   0  0  0  0  0  3  0  0  0  0  0  0
  183.0580  179.0420  144.6910 C   0  0  0  0  0  3  0  0  0  0  0  0
  183.8990  178.3610  140.6810 F   0  0  0  0  0  0  0  0  0  0  0  0
  184.3860  178.9220  144.2760 C   0  0  0  0  0  3  0  0  0  0  0  0
  2  6  1  0  0  0  0
  2  8  1  0  0  0  0
  3  1  1  6  0  0  0
  3  9  1  0  0  0  0
  4  5  1  0  0  0  0
  4  9  1  0  0  0  0
  4  7  1  0  0  0  0
  6  3  1  0  0  0  0
  8 15  1  6  0  0  0
  8  4  1  0  0  0  0
 10 11  2  0  0  0  0
 10  6  1  0  0  0  0
 12 10  1  0  0  0  0
 13 12  1  0  0  0  0
 14 12  2  0  0  0  0
 16 19  1  0  0  0  0
 16 17  1  0  0  0  0
 17 15  1  0  0  0  0
 18 16  2  0  0  0  0
 19 25  1  0  0  0  0
 20 23  1  0  0  0  0
 21 22  1  0  0  0  0
 21 19  2  0  0  0  0
 22 20  2  0  0  0  0
 24 21  1  0  0  0  0
 25 23  2  0  0  0  0
M  END
>  <MODEL>
3

>  <REMARK>
 VINA RESULT:      -8.1      2.630      3.881
  Name = 
  5 active torsions:
  status: ('A' for Active; 'I' for Inactive)
    1  A    between atoms: C_1  and  C_5
    2  A    between atoms: C_2  and  C_21
    3  A    between atoms: N_3  and  C_16
    4  A    between atoms: N_15  and  C_21
    5  A    between atoms: C_16  and  C_23
                            x       y       z     vdW  Elec       q    Type
                         _______ _______ _______ _____ _____    ______ ____

>  <TORSDO>
F 5

$$$$
=
 OpenBabel11052412443D

 25 26  0  0  1  0  0  0  0  0999 V2000
  192.7520  177.4500  140.4170 C   0  0  0  0  0  1  0  0  0  0  0  0
  190.0930  175.9010  141.9710 C   0  0  0  0  0  2  0  0  0  0  0  0
  191.6330  177.8060  141.3760 C   0  0  1  0  0  3  0  0  0  0  0  0
  190.9270  177.5550  143.8000 C   0  0  0  0  0  0  0  0  0  0  0  0
  190.2440  178.9190  143.8320 C   0  0  0  0  0  1  0  0  0  0  0  0
  190.4330  177.0080  141.0780 N   0  0  0  0  0  0  0  0  0  0  0  0
  191.4760  177.2770  145.1830 C   0  0  0  0  0  1  0  0  0  0  0  0
  189.9640  176.3980  143.4160 C   0  0  1  0  0  3  0  0  0  0  0  0
  192.1070  177.6160  142.8230 C   0  0  0  0  0  2  0  0  0  0  0  0
  189.5110  177.4240  140.0450 C   0  0  0  0  0  0  0  0  0  0  0  0
  188.8120  178.5480  140.1950 C   0  0  0  0  0  2  0  0  0  0  0  0
  189.3060  176.6240  138.8130 C   0  0  0  0  0  0  0  0  0  0  0  0
  188.2800  176.9750  137.8870 N   0  0  0  0  0  1  0  0  0  0  0  0
  190.0450  175.6380  138.5570 O   0  0  0  0  0  0  0  0  0  0  0  0
  188.5040  176.5520  143.8500 C   0  0  0  0  0  2  0  0  0  0  0  0
  186.5700  177.9020  142.8940 C   0  0  0  0  0  0  0  0  0  0  0  0
  187.6730  177.0040  142.7400 N   0  0  0  0  0  2  0  0  0  0  0  0
  186.1380  178.5100  141.8800 O   0  0  0  0  0  0  0  0  0  0  0  0
  185.9380  178.1480  144.2050 C   0  0  0  0  0  0  0  0  0  0  0  0
  184.8040  178.6450  146.7240 C   0  0  0  0  0  3  0  0  0  0  0  0
  184.5620  178.4300  144.3210 C   0  0  0  0  0  0  0  0  0  0  0  0
  184.0020  178.6730  145.5790 C   0  0  0  0  0  3  0  0  0  0  0  0
  186.1710  178.3860  146.6120 C   0  0  0  0  0  3  0  0  0  0  0  0
  183.7710  178.5210  143.2240 F   0  0  0  0  0  0  0  0  0  0  0  0
  186.7350  178.1440  145.3580 C   0  0  0  0  0  3  0  0  0  0  0  0
  2  8  1  0  0  0  0
  3  1  1  6  0  0  0
  3  9  1  0  0  0  0
  4  5  1  0  0  0  0
  4  7  1  0  0  0  0
  6  3  1  0  0  0  0
  6  2  1  0  0  0  0
  8  4  1  0  0  0  0
  8 15  1  6  0  0  0
  9  4  1  0  0  0  0
 10 11  2  0  0  0  0
 10  6  1  0  0  0  0
 12 10  1  0  0  0  0
 13 12  1  0  0  0  0
 14 12  2  0  0  0  0
 16 19  1  0  0  0  0
 17 16  1  0  0  0  0
 17 15  1  0  0  0  0
 18 16  2  0  0  0  0
 19 21  2  0  0  0  0
 19 25  1  0  0  0  0
 21 22  1  0  0  0  0
 22 20  2  0  0  0  0
 23 20  1  0  0  0  0
 24 21  1  0  0  0  0
 25 23  2  0  0  0  0
M  END
>  <MODEL>
4

>  <REMARK>
 VINA RESULT:      -8.0      1.733      2.098
  Name = 
  5 active torsions:
  status: ('A' for Active; 'I' for Inactive)
    1  A    between atoms: C_1  and  C_5
    2  A    between atoms: C_2  and  C_21
    3  A    between atoms: N_3  and  C_16
    4  A    between atoms: N_15  and  C_21
    5  A    between atoms: C_16  and  C_23
                            x       y       z     vdW  Elec       q    Type
                         _______ _______ _______ _____ _____    ______ ____

>  <TORSDO>
F 5

$$$$
=
 OpenBabel11052412443D

 25 26  0  0  1  0  0  0  0  0999 V2000
  184.1570  180.0880  143.9690 C   0  0  0  0  0  1  0  0  0  0  0  0
  186.8840  179.2230  142.0450 C   0  0  0  0  0  2  0  0  0  0  0  0
  184.9440  178.8430  143.6090 C   0  0  1  0  0  3  0  0  0  0  0  0
  187.1280  177.6510  144.1040 C   0  0  0  0  0  0  0  0  0  0  0  0
  186.5040  176.2660  143.9690 C   0  0  0  0  0  1  0  0  0  0  0  0
  185.4610  178.9450  142.2350 N   0  0  0  0  0  0  0  0  0  0  0  0
  188.2370  177.5640  145.1320 C   0  0  0  0  0  1  0  0  0  0  0  0
  187.7360  178.1800  142.7760 C   0  0  1  0  0  3  0  0  0  0  0  0
  186.0670  178.6230  144.6320 C   0  0  0  0  0  2  0  0  0  0  0  0
  184.6270  178.5910  141.1080 C   0  0  0  0  0  0  0  0  0  0  0  0
  183.5590  177.8170  141.2930 C   0  0  0  0  0  2  0  0  0  0  0  0
  184.9320  179.0580  139.7340 C   0  0  0  0  0  0  0  0  0  0  0  0
  184.1880  180.1260  139.1520 N   0  0  0  0  0  1  0  0  0  0  0  0
  185.8630  178.5330  139.0690 O   0  0  0  0  0  0  0  0  0  0  0  0
  188.3160  177.1300  141.8240 C   0  0  0  0  0  2  0  0  0  0  0  0
  190.8160  177.5040  141.5360 C   0  0  0  0  0  0  0  0  0  0  0  0
  189.4640  177.6610  141.0970 N   0  0  0  0  0  2  0  0  0  0  0  0
  191.7460  177.6700  140.7040 O   0  0  0  0  0  0  0  0  0  0  0  0
  191.1510  177.1380  142.9260 C   0  0  0  0  0  0  0  0  0  0  0  0
  191.8260  176.3780  145.5430 C   0  0  0  0  0  3  0  0  0  0  0  0
  191.3480  178.1160  143.9220 C   0  0  0  0  0  0  0  0  0  0  0  0
  191.6800  177.7310  145.2240 C   0  0  0  0  0  3  0  0  0  0  0  0
  191.6510  175.4060  144.5560 C   0  0  0  0  0  3  0  0  0  0  0  0
  191.2720  179.4380  143.6290 F   0  0  0  0  0  0  0  0  0  0  0  0
  191.3210  175.7850  143.2530 C   0  0  0  0  0  3  0  0  0  0  0  0
  2  6  1  0  0  0  0
  2  8  1  0  0  0  0
  3  1  1  1  0  0  0
  3  9  1  0  0  0  0
  4  9  1  0  0  0  0
  4  7  1  0  0  0  0
  5  4  1  0  0  0  0
  6  3  1  0  0  0  0
  8 15  1  6  0  0  0
  8  4  1  0  0  0  0
 10 11  2  0  0  0  0
 10  6  1  0  0  0  0
 12 10  1  0  0  0  0
 13 12  1  0  0  0  0
 14 12  2  0  0  0  0
 16 19  1  0  0  0  0
 17 16  1  0  0  0  0
 17 15  1  0  0  0  0
 18 16  2  0  0  0  0
 19 25  2  0  0  0  0
 19 21  1  0  0  0  0
 21 22  2  0  0  0  0
 22 20  1  0  0  0  0
 23 20  2  0  0  0  0
 24 21  1  0  0  0  0
 25 23  1  0  0  0  0
M  END
>  <MODEL>
5

>  <REMARK>
 VINA RESULT:      -7.9      2.913      5.910
  Name = 
  5 active torsions:
  status: ('A' for Active; 'I' for Inactive)
    1  A    between atoms: C_1  and  C_5
    2  A    between atoms: C_2  and  C_21
    3  A    between atoms: N_3  and  C_16
    4  A    between atoms: N_15  and  C_21
    5  A    between atoms: C_16  and  C_23
                            x       y       z     vdW  Elec       q    Type
                         _______ _______ _______ _____ _____    ______ ____

>  <TORSDO>
F 5

$$$$
=
 OpenBabel11052412443D

 25 26  0  0  1  0  0  0  0  0999 V2000
  187.9120  177.2670  145.4480 C   0  0  0  0  0  1  0  0  0  0  0  0
  189.7050  176.1470  142.7250 C   0  0  0  0  0  2  0  0  0  0  0  0
  188.5450  177.8360  144.1930 C   0  0  1  0  0  3  0  0  0  0  0  0
  188.2030  178.0020  141.6850 C   0  0  0  0  0  0  0  0  0  0  0  0
  188.8170  179.3960  141.6060 C   0  0  0  0  0  1  0  0  0  0  0  0
  189.7610  177.0820  143.8480 N   0  0  0  0  0  0  0  0  0  0  0  0
  187.1380  177.9000  140.6140 C   0  0  0  0  0  1  0  0  0  0  0  0
  189.2370  176.8640  141.4530 C   0  0  1  0  0  3  0  0  0  0  0  0
  187.5230  177.8370  143.0480 C   0  0  0  0  0  2  0  0  0  0  0  0
  191.0240  177.3960  144.4770 C   0  0  0  0  0  0  0  0  0  0  0  0
  191.6680  178.5140  144.1460 C   0  0  0  0  0  2  0  0  0  0  0  0
  191.6410  176.4960  145.4820 C   0  0  0  0  0  0  0  0  0  0  0  0
  191.7200  176.8900  146.8500 N   0  0  0  0  0  1  0  0  0  0  0  0
  192.0840  175.3670  145.1470 O   0  0  0  0  0  0  0  0  0  0  0  0
  190.3940  177.1770  140.5000 C   0  0  0  0  0  2  0  0  0  0  0  0
  190.2460  175.9730  138.2630 C   0  0  0  0  0  0  0  0  0  0  0  0
  190.6720  176.0420  139.6270 N   0  0  0  0  0  2  0  0  0  0  0  0
  190.8110  175.1530  137.4930 O   0  0  0  0  0  0  0  0  0  0  0  0
  189.1790  176.8440  137.7310 C   0  0  0  0  0  0  0  0  0  0  0  0
  187.2060  178.5440  136.6840 C   0  0  0  0  0  3  0  0  0  0  0  0
  187.8980  176.3420  137.4250 C   0  0  0  0  0  0  0  0  0  0  0  0
  186.9190  177.1950  136.9070 C   0  0  0  0  0  3  0  0  0  0  0  0
  188.4790  179.0420  136.9670 C   0  0  0  0  0  3  0  0  0  0  0  0
  187.6080  175.0260  137.5760 F   0  0  0  0  0  0  0  0  0  0  0  0
  189.4620  178.1940  137.4820 C   0  0  0  0  0  3  0  0  0  0  0  0
  2  6  1  0  0  0  0
  3  1  1  1  0  0  0
  4  9  1  0  0  0  0
  5  4  1  0  0  0  0
  6  3  1  0  0  0  0
  6 10  1  0  0  0  0
  7  4  1  0  0  0  0
  8 15  1  1  0  0  0
  8  4  1  0  0  0  0
  8  2  1  0  0  0  0
  9  3  1  0  0  0  0
 10 12  1  0  0  0  0
 11 10  2  0  0  0  0
 12 13  1  0  0  0  0
 14 12  2  0  0  0  0
 16 17  1  0  0  0  0
 17 15  1  0  0  0  0
 18 16  2  0  0  0  0
 19 16  1  0  0  0  0
 20 22  2  0  0  0  0
 20 23  1  0  0  0  0
 21 24  1  0  0  0  0
 21 19  2  0  0  0  0
 22 21  1  0  0  0  0
 23 25  2  0  0  0  0
 25 19  1  0  0  0  0
M  END
>  <MODEL>
6

>  <REMARK>
 VINA RESULT:      -7.9      3.273      6.857
  Name = 
  5 active torsions:
  status: ('A' for Active; 'I' for Inactive)
    1  A    between atoms: C_1  and  C_5
    2  A    between atoms: C_2  and  C_21
    3  A    between atoms: N_3  and  C_16
    4  A    between atoms: N_15  and  C_21
    5  A    between atoms: C_16  and  C_23
                            x       y       z     vdW  Elec       q    Type
                         _______ _______ _______ _____ _____    ______ ____

>  <TORSDO>
F 5

$$$$
=
 OpenBabel11052412443D

 25 26  0  0  1  0  0  0  0  0999 V2000
  192.0020  175.7070  146.1490 C   0  0  0  0  0  1  0  0  0  0  0  0
  188.9750  176.7800  144.8960 C   0  0  0  0  0  2  0  0  0  0  0  0
  191.0620  176.8870  146.3060 C   0  0  1  0  0  3  0  0  0  0  0  0
  188.8620  177.5560  147.3780 C   0  0  0  0  0  0  0  0  0  0  0  0
  189.3320  178.9800  147.6570 C   0  0  0  0  0  1  0  0  0  0  0  0
  190.3790  177.1670  145.0330 N   0  0  0  0  0  0  0  0  0  0  0  0
  187.8970  177.1600  148.4750 C   0  0  0  0  0  1  0  0  0  0  0  0
  188.1340  177.4090  146.0130 C   0  0  1  0  0  3  0  0  0  0  0  0
  190.0690  176.6140  147.4440 C   0  0  0  0  0  2  0  0  0  0  0  0
  191.0190  177.9720  144.0170 C   0  0  0  0  0  0  0  0  0  0  0  0
  191.5450  179.1520  144.3420 C   0  0  0  0  0  2  0  0  0  0  0  0
  191.0980  177.5290  142.6040 C   0  0  0  0  0  0  0  0  0  0  0  0
  189.9490  177.5910  141.7620 N   0  0  0  0  0  1  0  0  0  0  0  0
  192.1830  177.1110  142.1210 O   0  0  0  0  0  0  0  0  0  0  0  0
  187.3380  178.6250  145.5290 C   0  0  0  0  0  2  0  0  0  0  0  0
  184.8070  178.6060  145.7900 C   0  0  0  0  0  0  0  0  0  0  0  0
  186.1230  178.8000  146.3160 N   0  0  0  0  0  2  0  0  0  0  0  0
  183.8540  178.4300  146.5930 O   0  0  0  0  0  0  0  0  0  0  0  0
  184.5390  178.5890  144.3390 C   0  0  0  0  0  0  0  0  0  0  0  0
  184.0870  178.5040  141.5700 C   0  0  0  0  0  3  0  0  0  0  0  0
  183.2460  178.8080  143.8220 C   0  0  0  0  0  0  0  0  0  0  0  0
  183.0280  178.7680  142.4420 C   0  0  0  0  0  3  0  0  0  0  0  0
  185.3660  178.2670  142.0760 C   0  0  0  0  0  3  0  0  0  0  0  0
  182.1880  179.0070  144.6470 F   0  0  0  0  0  0  0  0  0  0  0  0
  185.5890  178.3040  143.4540 C   0  0  0  0  0  3  0  0  0  0  0  0
  2  6  1  0  0  0  0
  2  8  1  0  0  0  0
  3  1  1  6  0  0  0
  3  9  1  0  0  0  0
  4  9  1  0  0  0  0
  4  5  1  0  0  0  0
  4  7  1  0  0  0  0
  6  3  1  0  0  0  0
  8 15  1  6  0  0  0
  8  4  1  0  0  0  0
 10 11  2  0  0  0  0
 10  6  1  0  0  0  0
 12 10  1  0  0  0  0
 13 12  1  0  0  0  0
 14 12  2  0  0  0  0
 15 17  1  0  0  0  0
 16 17  1  0  0  0  0
 16 18  2  0  0  0  0
 19 16  1  0  0  0  0
 20 23  2  0  0  0  0
 20 22  1  0  0  0  0
 21 19  1  0  0  0  0
 21 24  1  0  0  0  0
 22 21  2  0  0  0  0
 23 25  1  0  0  0  0
 25 19  2  0  0  0  0
M  END
>  <MODEL>
7

>  <REMARK>
 VINA RESULT:      -7.8      2.232      3.605
  Name = 
  5 active torsions:
  status: ('A' for Active; 'I' for Inactive)
    1  A    between atoms: C_1  and  C_5
    2  A    between atoms: C_2  and  C_21
    3  A    between atoms: N_3  and  C_16
    4  A    between atoms: N_15  and  C_21
    5  A    between atoms: C_16  and  C_23
                            x       y       z     vdW  Elec       q    Type
                         _______ _______ _______ _____ _____    ______ ____

>  <TORSDO>
F 5

$$$$
=
 OpenBabel11052412443D

 25 26  0  0  1  0  0  0  0  0999 V2000
  187.7800  177.2820  146.8570 C   0  0  0  0  0  1  0  0  0  0  0  0
  188.4270  176.3790  143.5930 C   0  0  0  0  0  2  0  0  0  0  0  0
  187.8040  177.9250  145.4830 C   0  0  1  0  0  3  0  0  0  0  0  0
  186.4740  178.0780  143.3280 C   0  0  0  0  0  0  0  0  0  0  0  0
  186.8760  179.5300  143.0820 C   0  0  0  0  0  1  0  0  0  0  0  0
  188.8430  177.3030  144.6470 N   0  0  0  0  0  0  0  0  0  0  0  0
  185.0830  177.8780  142.7640 C   0  0  0  0  0  1  0  0  0  0  0  0
  187.4270  177.0560  142.6490 C   0  0  1  0  0  3  0  0  0  0  0  0
  186.4140  177.8320  144.8400 C   0  0  0  0  0  2  0  0  0  0  0  0
  190.2180  177.7400  144.7380 C   0  0  0  0  0  0  0  0  0  0  0  0
  190.5520  178.9630  144.3300 C   0  0  0  0  0  2  0  0  0  0  0  0
  191.2850  176.8550  145.2650 C   0  0  0  0  0  0  0  0  0  0  0  0
  191.6800  176.9370  146.6330 N   0  0  0  0  0  1  0  0  0  0  0  0
  191.8420  176.0060  144.5210 O   0  0  0  0  0  0  0  0  0  0  0  0
  188.0730  177.4950  141.3330 C   0  0  0  0  0  2  0  0  0  0  0  0
  190.3490  177.4090  140.1970 C   0  0  0  0  0  0  0  0  0  0  0  0
  189.5060  177.2190  141.3370 N   0  0  0  0  0  2  0  0  0  0  0  0
  191.5930  177.4910  140.3710 O   0  0  0  0  0  0  0  0  0  0  0  0
  189.8040  177.5280  138.8310 C   0  0  0  0  0  0  0  0  0  0  0  0
  188.7830  177.8320  136.2340 C   0  0  0  0  0  3  0  0  0  0  0  0
  189.8860  176.4680  137.9060 C   0  0  0  0  0  0  0  0  0  0  0  0
  189.3720  176.6240  136.6150 C   0  0  0  0  0  3  0  0  0  0  0  0
  188.7160  178.8930  137.1390 C   0  0  0  0  0  3  0  0  0  0  0  0
  190.5040  175.3050  138.2290 F   0  0  0  0  0  0  0  0  0  0  0  0
  189.2290  178.7430  138.4290 C   0  0  0  0  0  3  0  0  0  0  0  0
  2  6  1  0  0  0  0
  3  1  1  1  0  0  0
  4  9  1  0  0  0  0
  5  4  1  0  0  0  0
  6 10  1  0  0  0  0
  6  3  1  0  0  0  0
  7  4  1  0  0  0  0
  8 15  1  6  0  0  0
  8  4  1  0  0  0  0
  8  2  1  0  0  0  0
  9  3  1  0  0  0  0
 10 12  1  0  0  0  0
 11 10  2  0  0  0  0
 12 13  1  0  0  0  0
 14 12  2  0  0  0  0
 15 17  1  0  0  0  0
 16 18  2  0  0  0  0
 16 17  1  0  0  0  0
 19 16  1  0  0  0  0
 20 22  2  0  0  0  0
 20 23  1  0  0  0  0
 21 24  1  0  0  0  0
 21 19  2  0  0  0  0
 22 21  1  0  0  0  0
 23 25  2  0  0  0  0
 25 19  1  0  0  0  0
M  END
>  <MODEL>
8

>  <REMARK>
 VINA RESULT:      -7.8      3.036      6.782
  Name = 
  5 active torsions:
  status: ('A' for Active; 'I' for Inactive)
    1  A    between atoms: C_1  and  C_5
    2  A    between atoms: C_2  and  C_21
    3  A    between atoms: N_3  and  C_16
    4  A    between atoms: N_15  and  C_21
    5  A    between atoms: C_16  and  C_23
                            x       y       z     vdW  Elec       q    Type
                         _______ _______ _______ _____ _____    ______ ____

>  <TORSDO>
F 5

$$$$
=
 OpenBabel11052412443D

 25 26  0  0  1  0  0  0  0  0999 V2000
  190.1830  177.7840  146.7020 C   0  0  0  0  0  1  0  0  0  0  0  0
  189.0730  178.7640  143.5880 C   0  0  0  0  0  2  0  0  0  0  0  0
  189.8550  177.1530  145.3620 C   0  0  1  0  0  3  0  0  0  0  0  0
  190.7670  176.8740  143.0110 C   0  0  0  0  0  0  0  0  0  0  0  0
  190.1830  175.4730  142.8580 C   0  0  0  0  0  1  0  0  0  0  0  0
  188.7560  177.8820  144.7110 N   0  0  0  0  0  0  0  0  0  0  0  0
  192.0520  176.9330  142.2120 C   0  0  0  0  0  1  0  0  0  0  0  0
  189.8200  177.9920  142.4940 C   0  0  1  0  0  3  0  0  0  0  0  0
  191.1150  177.1060  144.4860 C   0  0  0  0  0  2  0  0  0  0  0  0
  187.3800  177.5880  145.0440 C   0  0  0  0  0  0  0  0  0  0  0  0
  186.6750  176.7610  144.2750 C   0  0  0  0  0  2  0  0  0  0  0  0
  186.7160  178.1960  146.2230 C   0  0  0  0  0  0  0  0  0  0  0  0
  185.7040  179.1870  146.0500 N   0  0  0  0  0  1  0  0  0  0  0  0
  187.0190  177.8340  147.3900 O   0  0  0  0  0  0  0  0  0  0  0  0
  188.9130  177.6280  141.3160 C   0  0  0  0  0  2  0  0  0  0  0  0
  189.1700  178.4460  138.9200 C   0  0  0  0  0  0  0  0  0  0  0  0
  188.9180  178.6820  140.3080 N   0  0  0  0  0  2  0  0  0  0  0  0
  188.8150  179.3180  138.0830 O   0  0  0  0  0  0  0  0  0  0  0  0
  189.8160  177.2090  138.4410 C   0  0  0  0  0  0  0  0  0  0  0  0
  191.1000  174.8620  137.5890 C   0  0  0  0  0  3  0  0  0  0  0  0
  189.0780  176.1790  137.8240 C   0  0  0  0  0  0  0  0  0  0  0  0
  189.7240  175.0140  137.3980 C   0  0  0  0  0  3  0  0  0  0  0  0
  191.8330  175.8700  138.2170 C   0  0  0  0  0  3  0  0  0  0  0  0
  187.7330  176.2730  137.6790 F   0  0  0  0  0  0  0  0  0  0  0  0
  191.1930  177.0350  138.6460 C   0  0  0  0  0  3  0  0  0  0  0  0
  2  6  1  0  0  0  0
  3  1  1  1  0  0  0
  4  9  1  0  0  0  0
  5  4  1  0  0  0  0
  6 10  1  0  0  0  0
  6  3  1  0  0  0  0
  7  4  1  0  0  0  0
  8 15  1  6  0  0  0
  8  4  1  0  0  0  0
  8  2  1  0  0  0  0
  9  3  1  0  0  0  0
 10 12  1  0  0  0  0
 11 10  2  0  0  0  0
 12 14  2  0  0  0  0
 13 12  1  0  0  0  0
 16 17  1  0  0  0  0
 17 15  1  0  0  0  0
 18 16  2  0  0  0  0
 19 25  1  0  0  0  0
 19 16  1  0  0  0  0
 20 23  1  0  0  0  0
 21 19  2  0  0  0  0
 22 20  2  0  0  0  0
 22 21  1  0  0  0  0
 23 25  2  0  0  0  0
 24 21  1  0  0  0  0
M  END
>  <MODEL>
9

>  <REMARK>
 VINA RESULT:      -7.7      2.791      6.911
  Name = 
  5 active torsions:
  status: ('A' for Active; 'I' for Inactive)
    1  A    between atoms: C_1  and  C_5
    2  A    between atoms: C_2  and  C_21
    3  A    between atoms: N_3  and  C_16
    4  A    between atoms: N_15  and  C_21
    5  A    between atoms: C_16  and  C_23
                            x       y       z     vdW  Elec       q    Type
                         _______ _______ _______ _____ _____    ______ ____

>  <TORSDO>
F 5

$$$$
