=
 OpenBabel11052413243D

 28 31  0  0  1  0  0  0  0  0999 V2000
  188.0480  177.3990  145.5930 C   0  0  2  0  0  3  0  0  0  0  0  0
  191.7940  176.2560  147.0000 O   0  0  0  0  0  0  0  0  0  0  0  0
  190.1890  177.1860  142.4170 N   0  0  0  0  0  0  0  0  0  0  0  0
  190.3970  176.5860  145.1470 N   0  0  0  0  0  0  0  0  0  0  0  0
  189.2460  177.7950  143.3580 C   0  0  0  0  0  2  0  0  0  0  0  0
  189.7220  177.2780  147.5240 C   0  0  0  0  0  2  0  0  0  0  0  0
  191.4550  176.2340  144.2400 C   0  0  0  0  0  3  0  0  0  0  0  0
  190.6950  176.6850  146.5560 C   0  0  0  0  0  0  0  0  0  0  0  0
  191.3460  176.5000  142.9360 C   0  0  0  0  0  3  0  0  0  0  0  0
  188.7670  178.6080  146.7420 S   0  0  0  0  0  0  0  0  0  0  0  0
  189.0730  176.8840  144.5710 C   0  0  2  0  0  3  0  0  0  0  0  0
  188.8630  177.8460  140.5340 C   0  0  0  0  0  3  0  0  0  0  0  0
  191.1680  176.7180  138.8710 C   0  0  0  0  0  3  0  0  0  0  0  0
  188.7660  176.9400  138.2570 C   0  0  0  0  0  0  0  0  0  0  0  0
  190.0500  177.4330  141.0020 C   0  0  0  0  0  0  0  0  0  0  0  0
  192.5890  177.5770  140.6170 C   0  0  0  0  0  1  0  0  0  0  0  0
  189.9490  176.3390  138.1290 C   0  0  0  0  0  3  0  0  0  0  0  0
  191.2290  177.2460  140.1020 C   0  0  0  0  0  0  0  0  0  0  0  0
  187.7150  176.4890  137.5340 F   0  0  0  0  0  0  0  0  0  0  0  0
  188.5950  178.1610  139.1000 C   0  0  0  0  0  2  0  0  0  0  0  0
  186.7450  177.8450  144.9870 C   0  0  0  0  0  0  0  0  0  0  0  0
  186.5420  177.7900  143.6000 C   0  0  0  0  0  3  0  0  0  0  0  0
  184.4710  178.6500  145.2680 C   0  0  0  0  0  0  0  0  0  0  0  0
  185.3150  178.1690  143.0500 C   0  0  0  0  0  3  0  0  0  0  0  0
  185.8700  178.3140  147.1680 F   0  0  0  0  0  0  0  0  0  0  0  0
  185.6990  178.2700  145.8220 C   0  0  0  0  0  0  0  0  0  0  0  0
  183.4590  179.0630  146.0700 F   0  0  0  0  0  0  0  0  0  0  0  0
  184.2800  178.5980  143.8840 C   0  0  0  0  0  3  0  0  0  0  0  0
  1 21  1  6  0  0  0
  1 10  1  0  0  0  0
  3  9  1  0  0  0  0
  3  5  1  0  0  0  0
  4  8  1  0  0  0  0
  7  4  1  0  0  0  0
  8  2  2  0  0  0  0
  8  6  1  0  0  0  0
  9  7  2  0  0  0  0
 10  6  1  0  0  0  0
 11  5  1  6  0  0  0
 11  4  1  0  0  0  0
 11  1  1  0  0  0  0
 12 15  2  0  0  0  0
 13 18  2  0  0  0  0
 14 20  1  0  0  0  0
 15  3  1  0  0  0  0
 17 14  2  0  0  0  0
 17 13  1  0  0  0  0
 18 16  1  0  0  0  0
 18 15  1  0  0  0  0
 19 14  1  0  0  0  0
 20 12  1  0  0  0  0
 21 26  1  0  0  0  0
 22 21  2  0  0  0  0
 23 26  2  0  0  0  0
 23 27  1  0  0  0  0
 24 22  1  0  0  0  0
 24 28  2  0  0  0  0
 26 25  1  0  0  0  0
 28 23  1  0  0  0  0
M  END
>  <MODEL>
1

>  <REMARK>
 VINA RESULT:      -9.6      0.000      0.000
  Name = 
  2 active torsions:
  status: ('A' for Active; 'I' for Inactive)
    1  A    between atoms: C_1  and  C_2
    2  A    between atoms: N_10  and  C_13
                            x       y       z     vdW  Elec       q    Type
                         _______ _______ _______ _____ _____    ______ ____

>  <TORSDO>
F 2

$$$$
=
 OpenBabel11052413243D

 28 31  0  0  1  0  0  0  0  0999 V2000
  190.2420  176.2680  137.3100 C   0  0  2  0  0  3  0  0  0  0  0  0
  194.3570  175.9820  137.8670 O   0  0  0  0  0  0  0  0  0  0  0  0
  190.7430  177.3110  140.9690 N   0  0  0  0  0  0  0  0  0  0  0  0
  192.2960  176.7080  138.7140 N   0  0  0  0  0  0  0  0  0  0  0  0
  190.1360  176.5750  139.8560 C   0  0  0  0  0  2  0  0  0  0  0  0
  192.4880  175.2690  136.5980 C   0  0  0  0  0  2  0  0  0  0  0  0
  192.9160  177.1780  139.9230 C   0  0  0  0  0  3  0  0  0  0  0  0
  193.1020  175.9950  137.7520 C   0  0  0  0  0  0  0  0  0  0  0  0
  192.1740  177.4860  140.9890 C   0  0  0  0  0  3  0  0  0  0  0  0
  190.8710  174.5830  137.0570 S   0  0  0  0  0  0  0  0  0  0  0  0
  190.8480  176.9370  138.5540 C   0  0  2  0  0  3  0  0  0  0  0  0
  190.5380  177.8720  143.2890 C   0  0  0  0  0  3  0  0  0  0  0  0
  187.5380  177.5030  142.8250 C   0  0  0  0  0  3  0  0  0  0  0  0
  188.8320  177.2450  144.9340 C   0  0  0  0  0  0  0  0  0  0  0  0
  189.9370  177.6860  142.1050 C   0  0  0  0  0  0  0  0  0  0  0  0
  187.9580  178.4490  140.6480 C   0  0  0  0  0  1  0  0  0  0  0  0
  187.7810  176.9480  144.1700 C   0  0  0  0  0  3  0  0  0  0  0  0
  188.4640  177.8810  141.9310 C   0  0  0  0  0  0  0  0  0  0  0  0
  188.9540  176.6560  146.1470 F   0  0  0  0  0  0  0  0  0  0  0  0
  189.8240  178.2850  144.5320 C   0  0  0  0  0  2  0  0  0  0  0  0
  188.7440  176.3720  137.2240 C   0  0  0  0  0  0  0  0  0  0  0  0
  187.9450  175.2200  137.1730 C   0  0  0  0  0  3  0  0  0  0  0  0
  186.7370  177.7390  137.2110 C   0  0  0  0  0  0  0  0  0  0  0  0
  186.5530  175.3270  137.1340 C   0  0  0  0  0  3  0  0  0  0  0  0
  188.8870  178.7620  137.3180 F   0  0  0  0  0  0  0  0  0  0  0  0
  188.1320  177.6360  137.2510 C   0  0  0  0  0  0  0  0  0  0  0  0
  186.1410  178.9570  137.2340 F   0  0  0  0  0  0  0  0  0  0  0  0
  185.9490  176.5860  137.1530 C   0  0  0  0  0  3  0  0  0  0  0  0
  1 21  1  1  0  0  0
  1 11  1  0  0  0  0
  3  9  1  0  0  0  0
  3 15  1  0  0  0  0
  4  7  1  0  0  0  0
  5  3  1  0  0  0  0
  6 10  1  0  0  0  0
  6  8  1  0  0  0  0
  7  9  2  0  0  0  0
  8  2  2  0  0  0  0
  8  4  1  0  0  0  0
 10  1  1  0  0  0  0
 11  4  1  0  0  0  0
 11  5  1  1  0  0  0
 12 20  1  0  0  0  0
 13 17  1  0  0  0  0
 14 19  1  0  0  0  0
 15 12  2  0  0  0  0
 16 18  1  0  0  0  0
 17 14  2  0  0  0  0
 18 15  1  0  0  0  0
 18 13  2  0  0  0  0
 20 14  1  0  0  0  0
 21 26  1  0  0  0  0
 22 21  2  0  0  0  0
 23 27  1  0  0  0  0
 23 26  2  0  0  0  0
 24 28  2  0  0  0  0
 24 22  1  0  0  0  0
 26 25  1  0  0  0  0
 28 23  1  0  0  0  0
M  END
>  <MODEL>
2

>  <REMARK>
 VINA RESULT:      -9.5      3.592      7.185
  Name = 
  2 active torsions:
  status: ('A' for Active; 'I' for Inactive)
    1  A    between atoms: C_1  and  C_2
    2  A    between atoms: N_10  and  C_13
                            x       y       z     vdW  Elec       q    Type
                         _______ _______ _______ _____ _____    ______ ____

>  <TORSDO>
F 2

$$$$
=
 OpenBabel11052413243D

 28 31  0  0  1  0  0  0  0  0999 V2000
  189.3770  177.5510  143.4970 C   0  0  2  0  0  3  0  0  0  0  0  0
  192.4450  177.3350  140.6930 O   0  0  0  0  0  0  0  0  0  0  0  0
  187.5920  178.1100  140.1480 N   0  0  0  0  0  0  0  0  0  0  0  0
  190.1370  177.4090  141.0920 N   0  0  0  0  0  0  0  0  0  0  0  0
  187.9400  178.3900  141.5430 C   0  0  0  0  0  2  0  0  0  0  0  0
  191.8700  177.7450  142.9540 C   0  0  0  0  0  2  0  0  0  0  0  0
  189.8540  177.4050  139.6830 C   0  0  0  0  0  3  0  0  0  0  0  0
  191.5110  177.4910  141.5250 C   0  0  0  0  0  0  0  0  0  0  0  0
  188.6360  177.7170  139.2340 C   0  0  0  0  0  3  0  0  0  0  0  0
  190.6450  178.8280  143.7420 S   0  0  0  0  0  0  0  0  0  0  0  0
  188.9900  177.3880  142.0190 C   0  0  2  0  0  3  0  0  0  0  0  0
  185.3620  178.8980  140.5290 C   0  0  0  0  0  3  0  0  0  0  0  0
  184.7630  177.6830  137.7880 C   0  0  0  0  0  3  0  0  0  0  0  0
  183.2130  178.0630  139.6970 C   0  0  0  0  0  0  0  0  0  0  0  0
  186.2630  178.4030  139.6680 C   0  0  0  0  0  0  0  0  0  0  0  0
  186.9840  178.4090  137.1990 C   0  0  0  0  0  1  0  0  0  0  0  0
  183.5620  177.3970  138.5960 C   0  0  0  0  0  3  0  0  0  0  0  0
  185.9310  178.1720  138.2280 C   0  0  0  0  0  0  0  0  0  0  0  0
  182.0940  177.6940  140.3640 F   0  0  0  0  0  0  0  0  0  0  0  0
  183.9650  179.2670  140.1550 C   0  0  0  0  0  2  0  0  0  0  0  0
  188.2040  177.6800  144.4300 C   0  0  0  0  0  0  0  0  0  0  0  0
  186.9040  177.8500  143.9310 C   0  0  0  0  0  3  0  0  0  0  0  0
  187.3120  177.6540  146.6890 C   0  0  0  0  0  0  0  0  0  0  0  0
  185.8170  177.9280  144.8050 C   0  0  0  0  0  3  0  0  0  0  0  0
  189.6520  177.3910  146.3180 F   0  0  0  0  0  0  0  0  0  0  0  0
  188.4040  177.5740  145.8160 C   0  0  0  0  0  0  0  0  0  0  0  0
  187.4990  177.5540  148.0280 F   0  0  0  0  0  0  0  0  0  0  0  0
  186.0210  177.8300  146.1830 C   0  0  0  0  0  3  0  0  0  0  0  0
  1 10  1  0  0  0  0
  1 21  1  1  0  0  0
  2  8  2  0  0  0  0
  3  5  1  0  0  0  0
  4  8  1  0  0  0  0
  4 11  1  0  0  0  0
  6 10  1  0  0  0  0
  7  4  1  0  0  0  0
  8  6  1  0  0  0  0
  9  7  2  0  0  0  0
  9  3  1  0  0  0  0
 11  5  1  6  0  0  0
 11  1  1  0  0  0  0
 13 18  2  0  0  0  0
 13 17  1  0  0  0  0
 14 20  1  0  0  0  0
 14 19  1  0  0  0  0
 15  3  1  0  0  0  0
 15 12  2  0  0  0  0
 16 18  1  0  0  0  0
 17 14  2  0  0  0  0
 18 15  1  0  0  0  0
 20 12  1  0  0  0  0
 21 26  1  0  0  0  0
 22 21  2  0  0  0  0
 22 24  1  0  0  0  0
 23 27  1  0  0  0  0
 24 28  2  0  0  0  0
 26 25  1  0  0  0  0
 26 23  2  0  0  0  0
 28 23  1  0  0  0  0
M  END
>  <MODEL>
3

>  <REMARK>
 VINA RESULT:      -9.3      2.890      4.491
  Name = 
  2 active torsions:
  status: ('A' for Active; 'I' for Inactive)
    1  A    between atoms: C_1  and  C_2
    2  A    between atoms: N_10  and  C_13
                            x       y       z     vdW  Elec       q    Type
                         _______ _______ _______ _____ _____    ______ ____

>  <TORSDO>
F 2

$$$$
=
 OpenBabel11052413243D

 28 31  0  0  1  0  0  0  0  0999 V2000
  183.6190  178.7830  140.8260 C   0  0  2  0  0  3  0  0  0  0  0  0
  186.5750  178.7650  137.8950 O   0  0  0  0  0  0  0  0  0  0  0  0
  186.8110  177.8790  142.7540 N   0  0  0  0  0  0  0  0  0  0  0  0
  186.0600  178.7010  140.1810 N   0  0  0  0  0  0  0  0  0  0  0  0
  185.4130  177.7400  142.3370 C   0  0  0  0  0  2  0  0  0  0  0  0
  184.2600  178.5690  138.3580 C   0  0  0  0  0  2  0  0  0  0  0  0
  187.4480  178.5650  140.5280 C   0  0  0  0  0  3  0  0  0  0  0  0
  185.6870  178.6790  138.7870 C   0  0  0  0  0  0  0  0  0  0  0  0
  187.8070  178.1950  141.7600 C   0  0  0  0  0  3  0  0  0  0  0  0
  183.3140  177.5520  139.5260 S   0  0  0  0  0  0  0  0  0  0  0  0
  185.0860  178.7970  141.2840 C   0  0  2  0  0  3  0  0  0  0  0  0
  186.3270  177.7400  145.0960 C   0  0  0  0  0  3  0  0  0  0  0  0
  189.3190  177.1820  145.3950 C   0  0  0  0  0  3  0  0  0  0  0  0
  187.7480  178.1830  147.0450 C   0  0  0  0  0  0  0  0  0  0  0  0
  187.1970  177.5240  144.0980 C   0  0  0  0  0  0  0  0  0  0  0  0
  189.1040  175.9870  143.3140 C   0  0  0  0  0  1  0  0  0  0  0  0
  188.9770  178.0300  146.5540 C   0  0  0  0  0  3  0  0  0  0  0  0
  188.5370  176.9060  144.3420 C   0  0  0  0  0  0  0  0  0  0  0  0
  187.5570  179.0040  148.1040 F   0  0  0  0  0  0  0  0  0  0  0  0
  186.5920  177.3940  146.5230 C   0  0  0  0  0  2  0  0  0  0  0  0
  182.6240  178.7300  141.9520 C   0  0  0  0  0  0  0  0  0  0  0  0
  183.0430  178.8210  143.2880 C   0  0  0  0  0  3  0  0  0  0  0  0
  180.3170  178.6330  142.7060 C   0  0  0  0  0  0  0  0  0  0  0  0
  182.1080  178.8110  144.3250 C   0  0  0  0  0  3  0  0  0  0  0  0
  180.8240  178.5720  140.3780 F   0  0  0  0  0  0  0  0  0  0  0  0
  181.2520  178.6430  141.6640 C   0  0  0  0  0  0  0  0  0  0  0  0
  178.9910  178.5470  142.4320 F   0  0  0  0  0  0  0  0  0  0  0  0
  180.7450  178.7170  144.0340 C   0  0  0  0  0  3  0  0  0  0  0  0
  1 11  1  0  0  0  0
  1 21  1  1  0  0  0
  2  8  2  0  0  0  0
  3 15  1  0  0  0  0
  4  7  1  0  0  0  0
  4 11  1  0  0  0  0
  5  3  1  0  0  0  0
  6  8  1  0  0  0  0
  6 10  1  0  0  0  0
  7  9  2  0  0  0  0
  8  4  1  0  0  0  0
  9  3  1  0  0  0  0
 10  1  1  0  0  0  0
 11  5  1  1  0  0  0
 12 20  1  0  0  0  0
 13 17  1  0  0  0  0
 14 19  1  0  0  0  0
 15 18  1  0  0  0  0
 15 12  2  0  0  0  0
 16 18  1  0  0  0  0
 17 14  2  0  0  0  0
 18 13  2  0  0  0  0
 20 14  1  0  0  0  0
 21 22  1  0  0  0  0
 22 24  2  0  0  0  0
 23 28  2  0  0  0  0
 25 26  1  0  0  0  0
 26 21  2  0  0  0  0
 26 23  1  0  0  0  0
 27 23  1  0  0  0  0
 28 24  1  0  0  0  0
M  END
>  <MODEL>
4

>  <REMARK>
 VINA RESULT:      -9.3      3.980      6.837
  Name = 
  2 active torsions:
  status: ('A' for Active; 'I' for Inactive)
    1  A    between atoms: C_1  and  C_2
    2  A    between atoms: N_10  and  C_13
                            x       y       z     vdW  Elec       q    Type
                         _______ _______ _______ _____ _____    ______ ____

>  <TORSDO>
F 2

$$$$
=
 OpenBabel11052413243D

 28 31  0  0  1  0  0  0  0  0999 V2000
  188.2530  177.2510  144.5700 C   0  0  2  0  0  3  0  0  0  0  0  0
  192.0560  175.9410  143.4980 O   0  0  0  0  0  0  0  0  0  0  0  0
  188.3060  177.6290  140.7520 N   0  0  0  0  0  0  0  0  0  0  0  0
  189.9110  176.5660  142.7910 N   0  0  0  0  0  0  0  0  0  0  0  0
  188.0770  178.0500  142.1370 C   0  0  0  0  0  2  0  0  0  0  0  0
  190.6900  176.8220  145.2220 C   0  0  0  0  0  2  0  0  0  0  0  0
  190.2750  176.3950  141.4110 C   0  0  0  0  0  3  0  0  0  0  0  0
  190.9310  176.4230  143.8010 C   0  0  0  0  0  0  0  0  0  0  0  0
  189.4990  176.8820  140.4390 C   0  0  0  0  0  3  0  0  0  0  0  0
  189.5760  178.2530  145.3080 S   0  0  0  0  0  0  0  0  0  0  0  0
  188.5150  176.9380  143.0880 C   0  0  2  0  0  3  0  0  0  0  0  0
  186.1850  178.4620  140.0120 C   0  0  0  0  0  3  0  0  0  0  0  0
  187.2810  177.9520  137.2030 C   0  0  0  0  0  3  0  0  0  0  0  0
  184.9140  177.9910  137.9690 C   0  0  0  0  0  0  0  0  0  0  0  0
  187.4440  178.1160  139.7030 C   0  0  0  0  0  0  0  0  0  0  0  0
  189.4020  178.6380  138.1190 C   0  0  0  0  0  1  0  0  0  0  0  0
  185.8570  177.5730  137.1250 C   0  0  0  0  0  3  0  0  0  0  0  0
  187.9760  178.2450  138.3110 C   0  0  0  0  0  0  0  0  0  0  0  0
  183.6420  177.5580  137.8050 F   0  0  0  0  0  0  0  0  0  0  0  0
  185.2030  179.0030  139.0280 C   0  0  0  0  0  2  0  0  0  0  0  0
  186.8710  177.7740  144.8530 C   0  0  0  0  0  0  0  0  0  0  0  0
  186.0350  178.1980  143.8090 C   0  0  0  0  0  3  0  0  0  0  0  0
  185.0910  178.2370  146.4400 C   0  0  0  0  0  0  0  0  0  0  0  0
  184.7390  178.6440  144.0800 C   0  0  0  0  0  3  0  0  0  0  0  0
  187.1780  177.3650  147.1940 F   0  0  0  0  0  0  0  0  0  0  0  0
  186.3910  177.7880  146.1720 C   0  0  0  0  0  0  0  0  0  0  0  0
  184.6230  178.2540  147.7120 F   0  0  0  0  0  0  0  0  0  0  0  0
  184.2680  178.6640  145.3940 C   0  0  0  0  0  3  0  0  0  0  0  0
  1 21  1  6  0  0  0
  1 10  1  0  0  0  0
  2  8  2  0  0  0  0
  3  5  1  0  0  0  0
  4 11  1  0  0  0  0
  4  8  1  0  0  0  0
  6 10  1  0  0  0  0
  7  4  1  0  0  0  0
  8  6  1  0  0  0  0
  9  3  1  0  0  0  0
  9  7  2  0  0  0  0
 11  5  1  6  0  0  0
 11  1  1  0  0  0  0
 13 18  2  0  0  0  0
 14 20  1  0  0  0  0
 15 12  2  0  0  0  0
 15  3  1  0  0  0  0
 16 18  1  0  0  0  0
 17 13  1  0  0  0  0
 17 14  2  0  0  0  0
 18 15  1  0  0  0  0
 19 14  1  0  0  0  0
 20 12  1  0  0  0  0
 21 26  1  0  0  0  0
 22 24  1  0  0  0  0
 22 21  2  0  0  0  0
 23 27  1  0  0  0  0
 24 28  2  0  0  0  0
 26 23  2  0  0  0  0
 26 25  1  0  0  0  0
 28 23  1  0  0  0  0
M  END
>  <MODEL>
5

>  <REMARK>
 VINA RESULT:      -9.2      1.977      2.776
  Name = 
  2 active torsions:
  status: ('A' for Active; 'I' for Inactive)
    1  A    between atoms: C_1  and  C_2
    2  A    between atoms: N_10  and  C_13
                            x       y       z     vdW  Elec       q    Type
                         _______ _______ _______ _____ _____    ______ ____

>  <TORSDO>
F 2

$$$$
=
 OpenBabel11052413243D

 28 31  0  0  1  0  0  0  0  0999 V2000
  188.9130  178.1310  140.4080 C   0  0  2  0  0  3  0  0  0  0  0  0
  192.9970  177.3570  140.6200 O   0  0  0  0  0  0  0  0  0  0  0  0
  189.5300  177.5010  144.1420 N   0  0  0  0  0  0  0  0  0  0  0  0
  191.0080  177.7980  141.7780 N   0  0  0  0  0  0  0  0  0  0  0  0
  188.8550  177.3440  142.8500 C   0  0  0  0  0  2  0  0  0  0  0  0
  191.0650  177.3730  139.2490 C   0  0  0  0  0  2  0  0  0  0  0  0
  191.6750  177.6730  143.0460 C   0  0  0  0  0  3  0  0  0  0  0  0
  191.7460  177.5020  140.5740 C   0  0  0  0  0  0  0  0  0  0  0  0
  190.9700  177.5530  144.1740 C   0  0  0  0  0  3  0  0  0  0  0  0
  189.4030  176.6700  139.4460 S   0  0  0  0  0  0  0  0  0  0  0  0
  189.5810  178.1710  141.7900 C   0  0  2  0  0  3  0  0  0  0  0  0
  187.4300  177.5020  145.2950 C   0  0  0  0  0  3  0  0  0  0  0  0
  189.1330  177.8110  147.8160 C   0  0  0  0  0  3  0  0  0  0  0  0
  186.7830  178.5300  147.4250 C   0  0  0  0  0  0  0  0  0  0  0  0
  188.7660  177.4170  145.3630 C   0  0  0  0  0  0  0  0  0  0  0  0
  190.7070  176.3750  146.6910 C   0  0  0  0  0  1  0  0  0  0  0  0
  187.9490  178.6610  148.0550 C   0  0  0  0  0  3  0  0  0  0  0  0
  189.4770  177.2170  146.6640 C   0  0  0  0  0  0  0  0  0  0  0  0
  185.7740  179.3840  147.7190 F   0  0  0  0  0  0  0  0  0  0  0  0
  186.5250  177.4050  146.4780 C   0  0  0  0  0  2  0  0  0  0  0  0
  187.4270  178.3630  140.4360 C   0  0  0  0  0  0  0  0  0  0  0  0
  186.7630  178.6280  141.6430 C   0  0  0  0  0  3  0  0  0  0  0  0
  185.3250  178.6230  139.2470 C   0  0  0  0  0  0  0  0  0  0  0  0
  185.3900  178.8820  141.6530 C   0  0  0  0  0  3  0  0  0  0  0  0
  187.3280  178.1320  138.0520 F   0  0  0  0  0  0  0  0  0  0  0  0
  186.7020  178.3690  139.2330 C   0  0  0  0  0  0  0  0  0  0  0  0
  184.6200  178.6280  138.0880 F   0  0  0  0  0  0  0  0  0  0  0  0
  184.6710  178.8790  140.4550 C   0  0  0  0  0  3  0  0  0  0  0  0
  1 21  1  1  0  0  0
  1 11  1  0  0  0  0
  3  9  1  0  0  0  0
  3 15  1  0  0  0  0
  4 11  1  0  0  0  0
  4  7  1  0  0  0  0
  5  3  1  0  0  0  0
  6 10  1  0  0  0  0
  6  8  1  0  0  0  0
  7  9  2  0  0  0  0
  8  2  2  0  0  0  0
  8  4  1  0  0  0  0
 10  1  1  0  0  0  0
 11  5  1  1  0  0  0
 12 15  2  0  0  0  0
 12 20  1  0  0  0  0
 13 17  1  0  0  0  0
 14 19  1  0  0  0  0
 14 17  2  0  0  0  0
 15 18  1  0  0  0  0
 18 16  1  0  0  0  0
 18 13  2  0  0  0  0
 20 14  1  0  0  0  0
 21 22  1  0  0  0  0
 22 24  2  0  0  0  0
 23 28  2  0  0  0  0
 25 26  1  0  0  0  0
 26 23  1  0  0  0  0
 26 21  2  0  0  0  0
 27 23  1  0  0  0  0
 28 24  1  0  0  0  0
M  END
>  <MODEL>
6

>  <REMARK>
 VINA RESULT:      -9.2      2.504      6.367
  Name = 
  2 active torsions:
  status: ('A' for Active; 'I' for Inactive)
    1  A    between atoms: C_1  and  C_2
    2  A    between atoms: N_10  and  C_13
                            x       y       z     vdW  Elec       q    Type
                         _______ _______ _______ _____ _____    ______ ____

>  <TORSDO>
F 2

$$$$
=
 OpenBabel11052413243D

 28 31  0  0  1  0  0  0  0  0999 V2000
  185.7540  177.9540  144.8750 C   0  0  2  0  0  3  0  0  0  0  0  0
  188.8300  177.1870  147.5730 O   0  0  0  0  0  0  0  0  0  0  0  0
  188.8600  177.6180  142.6480 N   0  0  0  0  0  0  0  0  0  0  0  0
  188.1410  177.2660  145.3350 N   0  0  0  0  0  0  0  0  0  0  0  0
  187.6310  178.2400  143.1480 C   0  0  0  0  0  2  0  0  0  0  0  0
  186.6690  178.1070  147.2600 C   0  0  0  0  0  2  0  0  0  0  0  0
  189.4570  176.9100  144.8780 C   0  0  0  0  0  3  0  0  0  0  0  0
  187.9350  177.5020  146.7430 C   0  0  0  0  0  0  0  0  0  0  0  0
  189.7930  177.0580  143.5940 C   0  0  0  0  0  3  0  0  0  0  0  0
  185.9940  179.3000  146.0710 S   0  0  0  0  0  0  0  0  0  0  0  0
  187.0850  177.4240  144.3180 C   0  0  2  0  0  3  0  0  0  0  0  0
  188.3020  178.2530  140.4060 C   0  0  0  0  0  3  0  0  0  0  0  0
  190.7990  176.6660  139.6340 C   0  0  0  0  0  3  0  0  0  0  0  0
  188.7710  177.1400  138.2720 C   0  0  0  0  0  0  0  0  0  0  0  0
  189.2060  177.7360  141.2520 C   0  0  0  0  0  0  0  0  0  0  0  0
  191.7290  177.5030  141.6940 C   0  0  0  0  0  1  0  0  0  0  0  0
  189.8250  176.3780  138.5630 C   0  0  0  0  0  3  0  0  0  0  0  0
  190.5600  177.3040  140.7890 C   0  0  0  0  0  0  0  0  0  0  0  0
  187.9370  176.7600  137.2760 F   0  0  0  0  0  0  0  0  0  0  0  0
  188.5430  178.4520  138.9470 C   0  0  0  0  0  2  0  0  0  0  0  0
  184.7240  178.2580  143.8230 C   0  0  0  0  0  0  0  0  0  0  0  0
  184.9820  178.0020  142.4680 C   0  0  0  0  0  3  0  0  0  0  0  0
  182.4880  179.0030  143.2340 C   0  0  0  0  0  0  0  0  0  0  0  0
  184.0040  178.2510  141.5030 C   0  0  0  0  0  3  0  0  0  0  0  0
  183.1900  178.9920  145.5120 F   0  0  0  0  0  0  0  0  0  0  0  0
  183.4670  178.7540  144.2040 C   0  0  0  0  0  0  0  0  0  0  0  0
  181.2730  179.4840  143.5970 F   0  0  0  0  0  0  0  0  0  0  0  0
  182.7580  178.7510  141.8860 C   0  0  0  0  0  3  0  0  0  0  0  0
  1 21  1  6  0  0  0
  1 10  1  0  0  0  0
  3  5  1  0  0  0  0
  3  9  1  0  0  0  0
  4  8  1  0  0  0  0
  7  4  1  0  0  0  0
  8  6  1  0  0  0  0
  8  2  2  0  0  0  0
  9  7  2  0  0  0  0
 10  6  1  0  0  0  0
 11  5  1  6  0  0  0
 11  1  1  0  0  0  0
 11  4  1  0  0  0  0
 12 15  2  0  0  0  0
 13 18  2  0  0  0  0
 14 17  2  0  0  0  0
 14 20  1  0  0  0  0
 15  3  1  0  0  0  0
 17 13  1  0  0  0  0
 18 15  1  0  0  0  0
 18 16  1  0  0  0  0
 19 14  1  0  0  0  0
 20 12  1  0  0  0  0
 21 26  1  0  0  0  0
 22 21  2  0  0  0  0
 23 27  1  0  0  0  0
 23 26  2  0  0  0  0
 24 28  2  0  0  0  0
 24 22  1  0  0  0  0
 26 25  1  0  0  0  0
 28 23  1  0  0  0  0
M  END
>  <MODEL>
7

>  <REMARK>
 VINA RESULT:      -9.2      1.547      2.143
  Name = 
  2 active torsions:
  status: ('A' for Active; 'I' for Inactive)
    1  A    between atoms: C_1  and  C_2
    2  A    between atoms: N_10  and  C_13
                            x       y       z     vdW  Elec       q    Type
                         _______ _______ _______ _____ _____    ______ ____

>  <TORSDO>
F 2

$$$$
=
 OpenBabel11052413243D

 28 31  0  0  1  0  0  0  0  0999 V2000
  190.2770  177.0710  143.3300 C   0  0  2  0  0  3  0  0  0  0  0  0
  191.1810  177.1020  139.2670 O   0  0  0  0  0  0  0  0  0  0  0  0
  187.0810  178.4220  141.6940 N   0  0  0  0  0  0  0  0  0  0  0  0
  189.5400  177.3170  140.9260 N   0  0  0  0  0  0  0  0  0  0  0  0
  188.1860  178.3980  142.6550 C   0  0  0  0  0  2  0  0  0  0  0  0
  192.0400  177.1280  141.4750 C   0  0  0  0  0  2  0  0  0  0  0  0
  188.5310  177.6060  139.9440 C   0  0  0  0  0  3  0  0  0  0  0  0
  190.9110  177.1840  140.4960 C   0  0  0  0  0  0  0  0  0  0  0  0
  187.3520  178.1120  140.3120 C   0  0  0  0  0  3  0  0  0  0  0  0
  191.6810  178.1530  142.9290 S   0  0  0  0  0  0  0  0  0  0  0  0
  189.1160  177.2290  142.3360 C   0  0  2  0  0  3  0  0  0  0  0  0
  185.6490  179.4120  143.3390 C   0  0  0  0  0  3  0  0  0  0  0  0
  183.3860  178.6230  141.4410 C   0  0  0  0  0  3  0  0  0  0  0  0
  183.3110  178.9420  143.9070 C   0  0  0  0  0  0  0  0  0  0  0  0
  185.7900  178.9250  142.0980 C   0  0  0  0  0  0  0  0  0  0  0  0
  184.9440  179.1510  139.6800 C   0  0  0  0  0  1  0  0  0  0  0  0
  182.8440  178.3810  142.7920 C   0  0  0  0  0  3  0  0  0  0  0  0
  184.6560  178.9140  141.1230 C   0  0  0  0  0  0  0  0  0  0  0  0
  182.7390  178.6280  145.0930 F   0  0  0  0  0  0  0  0  0  0  0  0
  184.3780  179.9850  143.8720 C   0  0  0  0  0  2  0  0  0  0  0  0
  189.8630  177.1320  144.7740 C   0  0  0  0  0  0  0  0  0  0  0  0
  188.5550  177.4890  145.1330 C   0  0  0  0  0  3  0  0  0  0  0  0
  190.3910  176.7890  147.1200 C   0  0  0  0  0  0  0  0  0  0  0  0
  188.1690  177.5030  146.4750 C   0  0  0  0  0  3  0  0  0  0  0  0
  192.0460  176.4070  145.4490 F   0  0  0  0  0  0  0  0  0  0  0  0
  190.7800  176.7730  145.7760 C   0  0  0  0  0  0  0  0  0  0  0  0
  191.2730  176.4460  148.0910 F   0  0  0  0  0  0  0  0  0  0  0  0
  189.0870  177.1530  147.4680 C   0  0  0  0  0  3  0  0  0  0  0  0
  1 21  1  1  0  0  0
  2  8  2  0  0  0  0
  3 15  1  0  0  0  0
  3  5  1  0  0  0  0
  4 11  1  0  0  0  0
  6 10  1  0  0  0  0
  7  9  2  0  0  0  0
  7  4  1  0  0  0  0
  8  4  1  0  0  0  0
  8  6  1  0  0  0  0
  9  3  1  0  0  0  0
 10  1  1  0  0  0  0
 11  5  1  1  0  0  0
 11  1  1  0  0  0  0
 12 20  1  0  0  0  0
 13 17  1  0  0  0  0
 14 19  1  0  0  0  0
 15 12  2  0  0  0  0
 16 18  1  0  0  0  0
 17 14  2  0  0  0  0
 18 13  2  0  0  0  0
 18 15  1  0  0  0  0
 20 14  1  0  0  0  0
 21 22  2  0  0  0  0
 21 26  1  0  0  0  0
 22 24  1  0  0  0  0
 23 28  1  0  0  0  0
 23 27  1  0  0  0  0
 24 28  2  0  0  0  0
 25 26  1  0  0  0  0
 26 23  2  0  0  0  0
M  END
>  <MODEL>
8

>  <REMARK>
 VINA RESULT:      -9.1      2.979      6.041
  Name = 
  2 active torsions:
  status: ('A' for Active; 'I' for Inactive)
    1  A    between atoms: C_1  and  C_2
    2  A    between atoms: N_10  and  C_13
                            x       y       z     vdW  Elec       q    Type
                         _______ _______ _______ _____ _____    ______ ____

>  <TORSDO>
F 2

$$$$
=
 OpenBabel11052413243D

 28 31  0  0  1  0  0  0  0  0999 V2000
  181.9340  178.0780  139.9670 C   0  0  2  0  0  3  0  0  0  0  0  0
  179.9020  180.0610  143.0100 O   0  0  0  0  0  0  0  0  0  0  0  0
  184.6160  178.6120  142.6580 N   0  0  0  0  0  0  0  0  0  0  0  0
  181.8510  178.9480  142.3370 N   0  0  0  0  0  0  0  0  0  0  0  0
  184.0500  178.6400  141.3060 C   0  0  0  0  0  2  0  0  0  0  0  0
  179.9660  179.5410  140.7000 C   0  0  0  0  0  2  0  0  0  0  0  0
  182.4730  179.1870  143.6110 C   0  0  0  0  0  3  0  0  0  0  0  0
  180.5620  179.5380  142.0720 C   0  0  0  0  0  0  0  0  0  0  0  0
  183.7860  179.0060  143.7690 C   0  0  0  0  0  3  0  0  0  0  0  0
  181.2630  179.6800  139.4370 S   0  0  0  0  0  0  0  0  0  0  0  0
  182.6030  178.1530  141.3480 C   0  0  2  0  0  3  0  0  0  0  0  0
  186.8610  178.6350  141.8210 C   0  0  0  0  0  3  0  0  0  0  0  0
  187.5010  176.9520  144.2930 C   0  0  0  0  0  3  0  0  0  0  0  0
  188.6820  177.0180  142.1040 C   0  0  0  0  0  0  0  0  0  0  0  0
  186.0270  178.3720  142.8380 C   0  0  0  0  0  0  0  0  0  0  0  0
  185.8500  178.3110  145.4030 C   0  0  0  0  0  1  0  0  0  0  0  0
  188.3370  176.3780  143.2200 C   0  0  0  0  0  3  0  0  0  0  0  0
  186.5260  177.8610  144.1520 C   0  0  0  0  0  0  0  0  0  0  0  0
  189.4410  176.3780  141.1830 F   0  0  0  0  0  0  0  0  0  0  0  0
  188.3410  178.4550  141.8870 C   0  0  0  0  0  2  0  0  0  0  0  0
  182.7660  177.3960  138.9160 C   0  0  0  0  0  0  0  0  0  0  0  0
  183.4790  178.1440  137.9660 C   0  0  0  0  0  3  0  0  0  0  0  0
  183.6820  175.3570  137.9670 C   0  0  0  0  0  0  0  0  0  0  0  0
  184.2810  177.5020  137.0200 C   0  0  0  0  0  3  0  0  0  0  0  0
  182.2110  175.2560  139.8390 F   0  0  0  0  0  0  0  0  0  0  0  0
  182.8780  175.9960  138.9180 C   0  0  0  0  0  0  0  0  0  0  0  0
  183.7910  174.0050  137.9630 F   0  0  0  0  0  0  0  0  0  0  0  0
  184.3830  176.1100  137.0210 C   0  0  0  0  0  3  0  0  0  0  0  0
  1 21  1  6  0  0  0
  1 11  1  0  0  0  0
  3 15  1  0  0  0  0
  3  9  1  0  0  0  0
  4  7  1  0  0  0  0
  5  3  1  0  0  0  0
  6  8  1  0  0  0  0
  7  9  2  0  0  0  0
  8  4  1  0  0  0  0
  8  2  2  0  0  0  0
 10  1  1  0  0  0  0
 10  6  1  0  0  0  0
 11  5  1  6  0  0  0
 11  4  1  0  0  0  0
 12 20  1  0  0  0  0
 12 15  2  0  0  0  0
 14 17  2  0  0  0  0
 15 18  1  0  0  0  0
 17 13  1  0  0  0  0
 18 13  2  0  0  0  0
 18 16  1  0  0  0  0
 19 14  1  0  0  0  0
 20 14  1  0  0  0  0
 21 26  1  0  0  0  0
 22 21  2  0  0  0  0
 23 26  2  0  0  0  0
 24 28  2  0  0  0  0
 24 22  1  0  0  0  0
 26 25  1  0  0  0  0
 27 23  1  0  0  0  0
 28 23  1  0  0  0  0
M  END
>  <MODEL>
9

>  <REMARK>
 VINA RESULT:      -8.9      5.058      7.822
  Name = 
  2 active torsions:
  status: ('A' for Active; 'I' for Inactive)
    1  A    between atoms: C_1  and  C_2
    2  A    between atoms: N_10  and  C_13
                            x       y       z     vdW  Elec       q    Type
                         _______ _______ _______ _____ _____    ______ ____

>  <TORSDO>
F 2

$$$$
