=
 OpenBabel11052413533D

 27 30  0  0  1  0  0  0  0  0999 V2000
  186.6720  178.0530  144.5680 N   0  0  0  0  0  0  0  0  0  0  0  0
  187.6150  177.5730  143.5810 C   0  0  0  0  0  0  0  0  0  0  0  0
  190.2170  176.3350  140.5630 N   0  0  0  0  0  2  0  0  0  0  0  0
  189.6460  176.4100  138.2010 C   0  0  0  0  0  1  0  0  0  0  0  0
  188.4460  176.4630  143.8420 C   0  0  0  0  0  3  0  0  0  0  0  0
  188.7290  178.4600  139.7940 S   0  0  0  0  0  0  0  0  0  0  0  0
  188.5520  177.7470  141.4130 C   0  0  0  0  0  0  0  0  0  0  0  0
  190.0450  177.2220  139.4160 C   0  0  1  0  0  3  0  0  0  0  0  0
  189.3730  176.6790  141.6430 C   0  0  0  0  0  0  0  0  0  0  0  0
  187.6870  178.1870  142.3620 N   0  0  0  0  0  0  0  0  0  0  0  0
  189.3380  176.0100  142.8630 C   0  0  0  0  0  3  0  0  0  0  0  0
  188.0970  177.9600  146.6060 C   0  0  1  0  0  3  0  0  0  0  0  0
  186.3560  178.8720  148.1150 C   0  0  1  0  0  3  0  0  0  0  0  0
  188.8140  176.7630  146.6540 O   0  0  0  0  0  1  0  0  0  0  0  0
  186.0200  179.8530  147.1530 O   0  0  0  0  0  0  0  0  0  0  0  0
  186.7310  177.7230  145.9960 C   0  0  1  0  0  3  0  0  0  0  0  0
  188.1560  177.6010  148.9920 F   0  0  0  0  0  0  0  0  0  0  0  0
  184.4030  178.1420  146.9210 O   0  0  0  0  0  1  0  0  0  0  0  0
  185.7410  178.5180  146.8250 C   0  0  1  0  0  0  0  0  0  0  0  0
  187.8380  178.5220  148.0080 C   0  0  1  0  0  3  0  0  0  0  0  0
  185.6400  179.0070  144.1760 C   0  0  0  0  0  2  0  0  0  0  0  0
  184.4010  178.2850  143.6670 C   0  0  2  0  0  3  0  0  0  0  0  0
  184.4760  178.1770  142.2910 F   0  0  0  0  0  0  0  0  0  0  0  0
  183.1480  179.0560  144.0590 C   0  0  0  0  0  2  0  0  0  0  0  0
  182.0540  178.8890  143.0170 C   0  0  0  0  0  2  0  0  0  0  0  0
  180.7500  178.7060  143.6610 C   0  0  0  0  0  0  0  0  0  0  0  0
  179.6770  178.5580  144.1900 C   0  0  0  0  0  3  0  0  0  0  0  0
  2  5  1  0  0  0  0
  2  1  1  0  0  0  0
  3  9  1  0  0  0  0
  6  7  1  0  0  0  0
  7  9  2  0  0  0  0
  7 10  1  0  0  0  0
  8  4  1  6  0  0  0
  8  6  1  0  0  0  0
  8  3  1  0  0  0  0
  9 11  1  0  0  0  0
 10  2  2  0  0  0  0
 11  5  2  0  0  0  0
 12 14  1  1  0  0  0
 12 20  1  0  0  0  0
 13 15  1  6  0  0  0
 16  1  1  6  0  0  0
 16 12  1  0  0  0  0
 16 19  1  0  0  0  0
 19 18  1  1  0  0  0
 19 15  1  0  0  0  0
 19 13  1  0  0  0  0
 20 13  1  0  0  0  0
 20 17  1  1  0  0  0
 21  1  1  0  0  0  0
 22 23  1  6  0  0  0
 22 24  1  0  0  0  0
 22 21  1  0  0  0  0
 25 26  1  0  0  0  0
 25 24  1  0  0  0  0
 26 27  3  0  0  0  0
M  END
>  <MODEL>
1

>  <REMARK>
 VINA RESULT:      -7.9      0.000      0.000
  Name = 
  6 active torsions:
  status: ('A' for Active; 'I' for Inactive)
    1  A    between atoms: N_1  and  C_15
    2  A    between atoms: N_1  and  C_18
    3  A    between atoms: C_7  and  C_25
    4  A    between atoms: C_9  and  C_15
    5  A    between atoms: C_9  and  C_27
    6  A    between atoms: C_25  and  C_27
                            x       y       z     vdW  Elec       q    Type
                         _______ _______ _______ _____ _____    ______ ____

>  <TORSDO>
F 6

$$$$
=
 OpenBabel11052413533D

 27 30  0  0  1  0  0  0  0  0999 V2000
  189.3910  178.0300  141.6050 N   0  0  0  0  0  0  0  0  0  0  0  0
  189.6180  177.6300  140.2340 C   0  0  0  0  0  0  0  0  0  0  0  0
  190.0750  176.6220  136.2100 N   0  0  0  0  0  2  0  0  0  0  0  0
  188.2620  176.7410  134.5950 C   0  0  0  0  0  1  0  0  0  0  0  0
  190.4780  176.5570  139.9170 C   0  0  0  0  0  3  0  0  0  0  0  0
  188.3610  178.6910  136.5370 S   0  0  0  0  0  0  0  0  0  0  0  0
  189.1530  177.9190  137.9290 C   0  0  0  0  0  0  0  0  0  0  0  0
  189.2600  177.5340  135.4120 C   0  0  1  0  0  3  0  0  0  0  0  0
  189.9860  176.8890  137.5950 C   0  0  0  0  0  0  0  0  0  0  0  0
  188.9690  178.2840  139.2230 N   0  0  0  0  0  0  0  0  0  0  0  0
  190.6670  176.1820  138.5810 C   0  0  0  0  0  3  0  0  0  0  0  0
  190.3180  178.7200  143.8090 C   0  0  1  0  0  3  0  0  0  0  0  0
  190.0290  176.4950  144.8590 C   0  0  1  0  0  3  0  0  0  0  0  0
  191.4550  179.5120  143.6410 O   0  0  0  0  0  1  0  0  0  0  0  0
  188.7390  176.3810  144.2890 O   0  0  0  0  0  0  0  0  0  0  0  0
  190.2580  177.6600  142.7290 C   0  0  1  0  0  3  0  0  0  0  0  0
  191.5890  178.0450  145.7460 F   0  0  0  0  0  0  0  0  0  0  0  0
  190.1760  175.1260  142.8910 O   0  0  0  0  0  1  0  0  0  0  0  0
  189.8290  176.3740  143.4060 C   0  0  1  0  0  0  0  0  0  0  0  0
  190.3470  177.9620  145.1400 C   0  0  1  0  0  3  0  0  0  0  0  0
  188.2950  178.9410  141.9200 C   0  0  0  0  0  2  0  0  0  0  0  0
  186.9500  178.2640  141.7020 C   0  0  2  0  0  3  0  0  0  0  0  0
  186.2340  178.9770  140.7580 F   0  0  0  0  0  0  0  0  0  0  0  0
  186.1720  178.2120  143.0100 C   0  0  0  0  0  2  0  0  0  0  0  0
  184.6730  178.2210  142.7570 C   0  0  0  0  0  2  0  0  0  0  0  0
  183.9470  178.6250  143.9650 C   0  0  0  0  0  0  0  0  0  0  0  0
  183.3490  178.9600  144.9560 C   0  0  0  0  0  3  0  0  0  0  0  0
  1 21  1  0  0  0  0
  2  1  1  0  0  0  0
  3  9  1  0  0  0  0
  5  2  1  0  0  0  0
  6  7  1  0  0  0  0
  7 10  1  0  0  0  0
  8  4  1  1  0  0  0
  8  3  1  0  0  0  0
  8  6  1  0  0  0  0
  9  7  2  0  0  0  0
  9 11  1  0  0  0  0
 10  2  2  0  0  0  0
 11  5  2  0  0  0  0
 12 14  1  6  0  0  0
 12 20  1  0  0  0  0
 13 15  1  1  0  0  0
 13 20  1  0  0  0  0
 16  1  1  6  0  0  0
 16 19  1  0  0  0  0
 16 12  1  0  0  0  0
 19 18  1  6  0  0  0
 19 15  1  0  0  0  0
 19 13  1  0  0  0  0
 20 17  1  6  0  0  0
 22 23  1  6  0  0  0
 22 21  1  0  0  0  0
 22 24  1  0  0  0  0
 25 24  1  0  0  0  0
 25 26  1  0  0  0  0
 26 27  3  0  0  0  0
M  END
>  <MODEL>
2

>  <REMARK>
 VINA RESULT:      -7.8      2.909      4.266
  Name = 
  6 active torsions:
  status: ('A' for Active; 'I' for Inactive)
    1  A    between atoms: N_1  and  C_15
    2  A    between atoms: N_1  and  C_18
    3  A    between atoms: C_7  and  C_25
    4  A    between atoms: C_9  and  C_15
    5  A    between atoms: C_9  and  C_27
    6  A    between atoms: C_25  and  C_27
                            x       y       z     vdW  Elec       q    Type
                         _______ _______ _______ _____ _____    ______ ____

>  <TORSDO>
F 6

$$$$
=
 OpenBabel11052413533D

 27 30  0  0  1  0  0  0  0  0999 V2000
  187.9210  177.7750  144.7870 N   0  0  0  0  0  0  0  0  0  0  0  0
  187.6720  178.0140  143.3820 C   0  0  0  0  0  0  0  0  0  0  0  0
  186.7080  178.6610  139.3740 N   0  0  0  0  0  2  0  0  0  0  0  0
  184.7190  177.7420  138.3190 C   0  0  0  0  0  1  0  0  0  0  0  0
  188.7300  178.0720  142.4510 C   0  0  0  0  0  3  0  0  0  0  0  0
  184.4990  178.5740  140.9350 S   0  0  0  0  0  0  0  0  0  0  0  0
  186.1250  178.3730  141.6240 C   0  0  0  0  0  0  0  0  0  0  0  0
  185.2570  178.7950  139.2660 C   0  0  1  0  0  3  0  0  0  0  0  0
  187.1320  178.4400  140.7030 C   0  0  0  0  0  0  0  0  0  0  0  0
  186.3870  178.1620  142.9390 N   0  0  0  0  0  0  0  0  0  0  0  0
  188.4590  178.2900  141.0950 C   0  0  0  0  0  3  0  0  0  0  0  0
  189.3890  177.0840  146.6730 C   0  0  1  0  0  3  0  0  0  0  0  0
  191.4390  176.9260  145.2910 C   0  0  1  0  0  3  0  0  0  0  0  0
  189.1120  177.8350  147.8170 O   0  0  0  0  0  1  0  0  0  0  0  0
  190.7140  176.2640  144.2720 O   0  0  0  0  0  0  0  0  0  0  0  0
  189.2270  177.9410  145.4350 C   0  0  1  0  0  3  0  0  0  0  0  0
  191.5970  177.2060  147.6410 F   0  0  0  0  0  0  0  0  0  0  0  0
  190.8720  178.5250  143.5910 O   0  0  0  0  0  1  0  0  0  0  0  0
  190.3870  177.6060  144.5190 C   0  0  1  0  0  0  0  0  0  0  0  0
  190.8400  176.5930  146.6560 C   0  0  1  0  0  3  0  0  0  0  0  0
  186.8090  177.4400  145.6710 C   0  0  0  0  0  2  0  0  0  0  0  0
  186.0970  178.6980  146.1440 C   0  0  2  0  0  3  0  0  0  0  0  0
  186.3770  178.8990  147.4830 F   0  0  0  0  0  0  0  0  0  0  0  0
  184.5940  178.5550  145.9450 C   0  0  0  0  0  2  0  0  0  0  0  0
  184.1100  179.4080  144.7840 C   0  0  0  0  0  2  0  0  0  0  0  0
  182.7820  178.9740  144.3410 C   0  0  0  0  0  0  0  0  0  0  0  0
  181.6910  178.6170  143.9750 C   0  0  0  0  0  3  0  0  0  0  0  0
  1 21  1  0  0  0  0
  2  1  1  0  0  0  0
  3  9  1  0  0  0  0
  5  2  2  0  0  0  0
  6  7  1  0  0  0  0
  7 10  2  0  0  0  0
  8  4  1  6  0  0  0
  8  3  1  0  0  0  0
  8  6  1  0  0  0  0
  9 11  2  0  0  0  0
  9  7  1  0  0  0  0
 10  2  1  0  0  0  0
 11  5  1  0  0  0  0
 12 14  1  1  0  0  0
 13 15  1  6  0  0  0
 13 20  1  0  0  0  0
 15 19  1  0  0  0  0
 16  1  1  6  0  0  0
 16 12  1  0  0  0  0
 19 18  1  6  0  0  0
 19 13  1  0  0  0  0
 19 16  1  0  0  0  0
 20 12  1  0  0  0  0
 20 17  1  1  0  0  0
 21 22  1  0  0  0  0
 22 23  1  1  0  0  0
 24 22  1  0  0  0  0
 25 24  1  0  0  0  0
 26 25  1  0  0  0  0
 27 26  3  0  0  0  0
M  END
>  <MODEL>
3

>  <REMARK>
 VINA RESULT:      -7.4      2.559      3.816
  Name = 
  6 active torsions:
  status: ('A' for Active; 'I' for Inactive)
    1  A    between atoms: N_1  and  C_15
    2  A    between atoms: N_1  and  C_18
    3  A    between atoms: C_7  and  C_25
    4  A    between atoms: C_9  and  C_15
    5  A    between atoms: C_9  and  C_27
    6  A    between atoms: C_25  and  C_27
                            x       y       z     vdW  Elec       q    Type
                         _______ _______ _______ _____ _____    ______ ____

>  <TORSDO>
F 6

$$$$
=
 OpenBabel11052413533D

 27 30  0  0  1  0  0  0  0  0999 V2000
  189.5070  177.1050  141.1510 N   0  0  0  0  0  0  0  0  0  0  0  0
  188.2530  177.7400  141.4920 C   0  0  0  0  0  0  0  0  0  0  0  0
  184.6450  179.4540  142.7000 N   0  0  0  0  0  2  0  0  0  0  0  0
  183.2180  178.4830  144.4120 C   0  0  0  0  0  1  0  0  0  0  0  0
  187.4640  178.3770  140.5100 C   0  0  0  0  0  3  0  0  0  0  0  0
  185.9410  178.2850  144.7680 S   0  0  0  0  0  0  0  0  0  0  0  0
  186.6240  178.2770  143.1270 C   0  0  0  0  0  0  0  0  0  0  0  0
  184.4970  179.2470  144.1390 C   0  0  1  0  0  3  0  0  0  0  0  0
  185.8460  178.9060  142.1970 C   0  0  0  0  0  0  0  0  0  0  0  0
  187.8050  177.7020  142.7830 N   0  0  0  0  0  0  0  0  0  0  0  0
  186.2460  178.9700  140.8660 C   0  0  0  0  0  3  0  0  0  0  0  0
  191.6860  176.8700  139.9730 C   0  0  1  0  0  3  0  0  0  0  0  0
  190.6790  176.2100  137.8080 C   0  0  1  0  0  3  0  0  0  0  0  0
  192.5420  177.9230  140.3020 O   0  0  0  0  0  1  0  0  0  0  0  0
  189.7850  175.3400  138.4760 O   0  0  0  0  0  0  0  0  0  0  0  0
  190.2550  177.3620  139.9150 C   0  0  1  0  0  3  0  0  0  0  0  0
  192.8690  177.1160  137.8840 F   0  0  0  0  0  0  0  0  0  0  0  0
  188.5550  177.3110  138.0280 O   0  0  0  0  0  1  0  0  0  0  0  0
  189.6220  176.7160  138.6990 C   0  0  1  0  0  0  0  0  0  0  0  0
  191.9920  176.3040  138.5830 C   0  0  1  0  0  3  0  0  0  0  0  0
  190.1530  176.2200  142.1150 C   0  0  0  0  0  2  0  0  0  0  0  0
  190.5500  176.9840  143.3690 C   0  0  2  0  0  3  0  0  0  0  0  0
  191.1780  178.1600  143.0020 F   0  0  0  0  0  0  0  0  0  0  0  0
  191.4890  176.1390  144.2210 C   0  0  0  0  0  2  0  0  0  0  0  0
  191.5990  176.6960  145.6310 C   0  0  0  0  0  2  0  0  0  0  0  0
  190.2700  176.9800  146.1810 C   0  0  0  0  0  0  0  0  0  0  0  0
  189.1790  177.2150  146.6340 C   0  0  0  0  0  3  0  0  0  0  0  0
  1  2  1  0  0  0  0
  1 21  1  0  0  0  0
  2 10  1  0  0  0  0
  3  8  1  0  0  0  0
  5 11  1  0  0  0  0
  5  2  2  0  0  0  0
  7  6  1  0  0  0  0
  8  4  1  6  0  0  0
  8  6  1  0  0  0  0
  9  3  1  0  0  0  0
  9  7  1  0  0  0  0
 10  7  2  0  0  0  0
 11  9  2  0  0  0  0
 12 14  1  6  0  0  0
 13 15  1  1  0  0  0
 13 20  1  0  0  0  0
 13 19  1  0  0  0  0
 15 19  1  0  0  0  0
 16 12  1  0  0  0  0
 16  1  1  1  0  0  0
 19 18  1  6  0  0  0
 19 16  1  0  0  0  0
 20 17  1  6  0  0  0
 20 12  1  0  0  0  0
 21 22  1  0  0  0  0
 22 23  1  6  0  0  0
 22 24  1  0  0  0  0
 24 25  1  0  0  0  0
 25 26  1  0  0  0  0
 26 27  3  0  0  0  0
M  END
>  <MODEL>
4

>  <REMARK>
 VINA RESULT:      -7.4      4.069      7.811
  Name = 
  6 active torsions:
  status: ('A' for Active; 'I' for Inactive)
    1  A    between atoms: N_1  and  C_15
    2  A    between atoms: N_1  and  C_18
    3  A    between atoms: C_7  and  C_25
    4  A    between atoms: C_9  and  C_15
    5  A    between atoms: C_9  and  C_27
    6  A    between atoms: C_25  and  C_27
                            x       y       z     vdW  Elec       q    Type
                         _______ _______ _______ _____ _____    ______ ____

>  <TORSDO>
F 6

$$$$
=
 OpenBabel11052413533D

 27 30  0  0  1  0  0  0  0  0999 V2000
  187.1470  178.0250  143.7380 N   0  0  0  0  0  0  0  0  0  0  0  0
  185.7520  178.3650  143.5650 C   0  0  0  0  0  0  0  0  0  0  0  0
  181.7400  179.2480  142.8300 N   0  0  0  0  0  2  0  0  0  0  0  0
  180.8340  179.5580  140.5950 C   0  0  0  0  0  1  0  0  0  0  0  0
  185.0850  179.2090  144.4780 C   0  0  0  0  0  3  0  0  0  0  0  0
  182.7770  177.6340  140.9210 S   0  0  0  0  0  0  0  0  0  0  0  0
  183.7620  178.1970  142.2890 C   0  0  0  0  0  0  0  0  0  0  0  0
  181.3320  178.5520  141.6120 C   0  0  1  0  0  3  0  0  0  0  0  0
  183.0920  179.0070  143.1620 C   0  0  0  0  0  0  0  0  0  0  0  0
  185.0680  177.8820  142.4830 N   0  0  0  0  0  0  0  0  0  0  0  0
  183.7380  179.5340  144.2770 C   0  0  0  0  0  3  0  0  0  0  0  0
  187.4290  177.2230  146.0770 C   0  0  1  0  0  3  0  0  0  0  0  0
  189.9050  177.2660  146.0100 C   0  0  1  0  0  3  0  0  0  0  0  0
  186.5250  177.8590  146.9300 O   0  0  0  0  0  1  0  0  0  0  0  0
  189.8920  176.6720  144.7260 O   0  0  0  0  0  0  0  0  0  0  0  0
  187.8860  178.1810  144.9960 C   0  0  1  0  0  3  0  0  0  0  0  0
  188.7610  177.3400  148.0860 F   0  0  0  0  0  0  0  0  0  0  0  0
  190.2090  178.9880  144.3640 O   0  0  0  0  0  1  0  0  0  0  0  0
  189.3780  177.9730  144.8330 C   0  0  1  0  0  0  0  0  0  0  0  0
  188.6990  176.7910  146.8170 C   0  0  1  0  0  3  0  0  0  0  0  0
  187.8780  177.3930  142.6440 C   0  0  0  0  0  2  0  0  0  0  0  0
  188.3250  178.4290  141.6240 C   0  0  2  0  0  3  0  0  0  0  0  0
  187.2500  178.7690  140.8240 F   0  0  0  0  0  0  0  0  0  0  0  0
  189.4500  177.8650  140.7660 C   0  0  0  0  0  2  0  0  0  0  0  0
  188.9070  177.2540  139.4840 C   0  0  0  0  0  2  0  0  0  0  0  0
  189.0360  178.1950  138.3670 C   0  0  0  0  0  0  0  0  0  0  0  0
  189.1390  178.9700  137.4500 C   0  0  0  0  0  3  0  0  0  0  0  0
  2  1  1  0  0  0  0
  2  5  1  0  0  0  0
  3  9  1  0  0  0  0
  6  8  1  0  0  0  0
  6  7  1  0  0  0  0
  7 10  1  0  0  0  0
  7  9  2  0  0  0  0
  8  4  1  6  0  0  0
  8  3  1  0  0  0  0
  9 11  1  0  0  0  0
 10  2  2  0  0  0  0
 11  5  2  0  0  0  0
 12 20  1  0  0  0  0
 12 14  1  1  0  0  0
 13 15  1  6  0  0  0
 13 20  1  0  0  0  0
 15 19  1  0  0  0  0
 16  1  1  6  0  0  0
 16 12  1  0  0  0  0
 19 18  1  6  0  0  0
 19 16  1  0  0  0  0
 19 13  1  0  0  0  0
 20 17  1  1  0  0  0
 21  1  1  0  0  0  0
 22 23  1  6  0  0  0
 22 21  1  0  0  0  0
 24 22  1  0  0  0  0
 25 24  1  0  0  0  0
 26 25  1  0  0  0  0
 27 26  3  0  0  0  0
M  END
>  <MODEL>
5

>  <REMARK>
 VINA RESULT:      -7.4      2.356      5.958
  Name = 
  6 active torsions:
  status: ('A' for Active; 'I' for Inactive)
    1  A    between atoms: N_1  and  C_15
    2  A    between atoms: N_1  and  C_18
    3  A    between atoms: C_7  and  C_25
    4  A    between atoms: C_9  and  C_15
    5  A    between atoms: C_9  and  C_27
    6  A    between atoms: C_25  and  C_27
                            x       y       z     vdW  Elec       q    Type
                         _______ _______ _______ _____ _____    ______ ____

>  <TORSDO>
F 6

$$$$
=
 OpenBabel11052413533D

 27 30  0  0  1  0  0  0  0  0999 V2000
  185.3670  178.9250  140.3910 N   0  0  0  0  0  0  0  0  0  0  0  0
  186.7050  178.4430  140.6550 C   0  0  0  0  0  0  0  0  0  0  0  0
  190.5240  177.0960  141.6620 N   0  0  0  0  0  2  0  0  0  0  0  0
  191.6800  177.7710  143.6910 C   0  0  0  0  0  1  0  0  0  0  0  0
  187.6340  178.2530  139.6100 C   0  0  0  0  0  3  0  0  0  0  0  0
  188.9580  177.3940  143.8480 S   0  0  0  0  0  0  0  0  0  0  0  0
  188.3450  177.7500  142.2180 C   0  0  0  0  0  0  0  0  0  0  0  0
  190.5790  176.9100  143.1100 C   0  0  1  0  0  3  0  0  0  0  0  0
  189.2610  177.5510  141.2230 C   0  0  0  0  0  0  0  0  0  0  0  0
  187.0900  178.1890  141.9420 N   0  0  0  0  0  0  0  0  0  0  0  0
  188.9280  177.8000  139.8950 C   0  0  0  0  0  3  0  0  0  0  0  0
  184.2000  177.5380  138.6860 C   0  0  1  0  0  3  0  0  0  0  0  0
  182.4900  179.2520  138.1630 C   0  0  1  0  0  3  0  0  0  0  0  0
  185.1210  176.8840  137.8650 O   0  0  0  0  0  1  0  0  0  0  0  0
  182.3230  179.5220  139.5420 O   0  0  0  0  0  0  0  0  0  0  0  0
  184.7260  178.9050  139.0710 C   0  0  1  0  0  3  0  0  0  0  0  0
  182.9790  177.5330  136.6040 F   0  0  0  0  0  0  0  0  0  0  0  0
  183.7480  181.2220  138.7180 O   0  0  0  0  0  1  0  0  0  0  0  0
  183.5570  179.8650  138.9700 C   0  0  1  0  0  0  0  0  0  0  0  0
  182.8740  177.7880  137.9610 C   0  0  1  0  0  3  0  0  0  0  0  0
  184.5320  179.3780  141.4980 C   0  0  0  0  0  2  0  0  0  0  0  0
  184.0760  178.2010  142.3480 C   0  0  2  0  0  3  0  0  0  0  0  0
  183.0950  177.5050  141.6660 F   0  0  0  0  0  0  0  0  0  0  0  0
  183.5270  178.6980  143.6790 C   0  0  0  0  0  2  0  0  0  0  0  0
  184.5560  179.5410  144.4150 C   0  0  0  0  0  2  0  0  0  0  0  0
  185.3290  178.7160  145.3480 C   0  0  0  0  0  0  0  0  0  0  0  0
  185.9650  178.0350  146.1120 C   0  0  0  0  0  3  0  0  0  0  0  0
  1  2  1  0  0  0  0
  1 21  1  0  0  0  0
  2 10  1  0  0  0  0
  3  8  1  0  0  0  0
  5 11  1  0  0  0  0
  5  2  2  0  0  0  0
  7  6  1  0  0  0  0
  8  4  1  1  0  0  0
  8  6  1  0  0  0  0
  9  3  1  0  0  0  0
  9  7  1  0  0  0  0
 10  7  2  0  0  0  0
 11  9  2  0  0  0  0
 12 14  1  6  0  0  0
 12 16  1  0  0  0  0
 13 19  1  0  0  0  0
 13 15  1  1  0  0  0
 16  1  1  1  0  0  0
 19 18  1  6  0  0  0
 19 16  1  0  0  0  0
 19 15  1  0  0  0  0
 20 17  1  6  0  0  0
 20 13  1  0  0  0  0
 20 12  1  0  0  0  0
 21 22  1  0  0  0  0
 22 23  1  6  0  0  0
 22 24  1  0  0  0  0
 24 25  1  0  0  0  0
 25 26  1  0  0  0  0
 26 27  3  0  0  0  0
M  END
>  <MODEL>
6

>  <REMARK>
 VINA RESULT:      -7.2      4.049      6.341
  Name = 
  6 active torsions:
  status: ('A' for Active; 'I' for Inactive)
    1  A    between atoms: N_1  and  C_15
    2  A    between atoms: N_1  and  C_18
    3  A    between atoms: C_7  and  C_25
    4  A    between atoms: C_9  and  C_15
    5  A    between atoms: C_9  and  C_27
    6  A    between atoms: C_25  and  C_27
                            x       y       z     vdW  Elec       q    Type
                         _______ _______ _______ _____ _____    ______ ____

>  <TORSDO>
F 6

$$$$
=
 OpenBabel11052413533D

 27 30  0  0  1  0  0  0  0  0999 V2000
  188.6380  177.8810  141.7450 N   0  0  0  0  0  0  0  0  0  0  0  0
  188.9890  177.6230  140.3660 C   0  0  0  0  0  0  0  0  0  0  0  0
  189.7950  177.0100  136.3180 N   0  0  0  0  0  2  0  0  0  0  0  0
  188.0810  177.0860  134.5940 C   0  0  0  0  0  1  0  0  0  0  0  0
  189.9740  176.6720  140.0270 C   0  0  0  0  0  3  0  0  0  0  0  0
  187.8580  178.8640  136.6840 S   0  0  0  0  0  0  0  0  0  0  0  0
  188.6390  178.0590  138.0640 C   0  0  0  0  0  0  0  0  0  0  0  0
  188.9390  177.9020  135.5390 C   0  0  1  0  0  3  0  0  0  0  0  0
  189.5930  177.1480  137.7090 C   0  0  0  0  0  0  0  0  0  0  0  0
  188.3390  178.2930  139.3670 N   0  0  0  0  0  0  0  0  0  0  0  0
  190.2820  176.4310  138.6830 C   0  0  0  0  0  3  0  0  0  0  0  0
  190.0590  176.1150  142.7720 C   0  0  1  0  0  3  0  0  0  0  0  0
  191.8120  177.6860  143.5440 C   0  0  1  0  0  3  0  0  0  0  0  0
  189.2760  175.1980  143.4760 O   0  0  0  0  0  1  0  0  0  0  0  0
  191.7690  178.3620  142.3020 O   0  0  0  0  0  0  0  0  0  0  0  0
  189.4690  177.5040  142.8940 C   0  0  1  0  0  3  0  0  0  0  0  0
  191.5770  175.5570  144.5630 F   0  0  0  0  0  0  0  0  0  0  0  0
  190.4670  179.6610  143.7910 O   0  0  0  0  0  1  0  0  0  0  0  0
  190.6310  178.4520  143.1170 C   0  0  1  0  0  0  0  0  0  0  0  0
  191.4760  176.2090  143.3460 C   0  0  1  0  0  3  0  0  0  0  0  0
  187.4360  178.6490  142.0530 C   0  0  0  0  0  2  0  0  0  0  0  0
  186.4430  177.8070  142.8410 C   0  0  2  0  0  3  0  0  0  0  0  0
  185.2210  177.8270  142.1950 F   0  0  0  0  0  0  0  0  0  0  0  0
  186.2920  178.3610  144.2520 C   0  0  0  0  0  2  0  0  0  0  0  0
  186.5740  177.2910  145.2940 C   0  0  0  0  0  2  0  0  0  0  0  0
  187.8820  177.5090  145.9190 C   0  0  0  0  0  0  0  0  0  0  0  0
  188.9550  177.6910  146.4350 C   0  0  0  0  0  3  0  0  0  0  0  0
  1 21  1  0  0  0  0
  2  1  1  0  0  0  0
  3  9  1  0  0  0  0
  5  2  1  0  0  0  0
  6  7  1  0  0  0  0
  7 10  1  0  0  0  0
  8  4  1  6  0  0  0
  8  3  1  0  0  0  0
  8  6  1  0  0  0  0
  9  7  2  0  0  0  0
  9 11  1  0  0  0  0
 10  2  2  0  0  0  0
 11  5  2  0  0  0  0
 12 16  1  0  0  0  0
 12 20  1  0  0  0  0
 12 14  1  1  0  0  0
 13 15  1  6  0  0  0
 15 19  1  0  0  0  0
 16  1  1  6  0  0  0
 16 19  1  0  0  0  0
 19 13  1  0  0  0  0
 19 18  1  1  0  0  0
 20 13  1  0  0  0  0
 20 17  1  1  0  0  0
 21 22  1  0  0  0  0
 22 23  1  6  0  0  0
 22 24  1  0  0  0  0
 24 25  1  0  0  0  0
 25 26  1  0  0  0  0
 26 27  3  0  0  0  0
M  END
>  <MODEL>
7

>  <REMARK>
 VINA RESULT:      -7.2      3.300      5.035
  Name = 
  6 active torsions:
  status: ('A' for Active; 'I' for Inactive)
    1  A    between atoms: N_1  and  C_15
    2  A    between atoms: N_1  and  C_18
    3  A    between atoms: C_7  and  C_25
    4  A    between atoms: C_9  and  C_15
    5  A    between atoms: C_9  and  C_27
    6  A    between atoms: C_25  and  C_27
                            x       y       z     vdW  Elec       q    Type
                         _______ _______ _______ _____ _____    ______ ____

>  <TORSDO>
F 6

$$$$
=
 OpenBabel11052413533D

 27 30  0  0  1  0  0  0  0  0999 V2000
  188.8810  177.7920  141.3530 N   0  0  0  0  0  0  0  0  0  0  0  0
  189.2190  177.8280  142.7580 C   0  0  0  0  0  0  0  0  0  0  0  0
  189.9550  177.8720  146.8660 N   0  0  0  0  0  2  0  0  0  0  0  0
  188.2180  178.2530  148.5240 C   0  0  0  0  0  1  0  0  0  0  0  0
  190.4410  178.3760  143.2040 C   0  0  0  0  0  3  0  0  0  0  0  0
  187.5420  176.7900  146.2920 S   0  0  0  0  0  0  0  0  0  0  0  0
  188.6190  177.3810  145.0060 C   0  0  0  0  0  0  0  0  0  0  0  0
  188.8130  177.2630  147.5440 C   0  0  1  0  0  3  0  0  0  0  0  0
  189.7970  177.9000  145.4620 C   0  0  0  0  0  0  0  0  0  0  0  0
  188.3320  177.3460  143.6800 N   0  0  0  0  0  0  0  0  0  0  0  0
  190.7360  178.4120  144.5710 C   0  0  0  0  0  3  0  0  0  0  0  0
  190.8310  176.7970  140.1710 C   0  0  1  0  0  3  0  0  0  0  0  0
  190.0040  177.3550  137.9040 C   0  0  1  0  0  3  0  0  0  0  0  0
  192.0240  177.1280  140.8180 O   0  0  0  0  0  1  0  0  0  0  0  0
  188.7040  176.9260  138.2600 O   0  0  0  0  0  0  0  0  0  0  0  0
  189.8520  177.9480  140.2640 C   0  0  1  0  0  3  0  0  0  0  0  0
  192.3110  176.9490  138.2710 F   0  0  0  0  0  0  0  0  0  0  0  0
  188.6810  179.2840  138.4490 O   0  0  0  0  0  1  0  0  0  0  0  0
  189.1960  178.0720  138.9030 C   0  0  1  0  0  0  0  0  0  0  0  0
  191.0480  176.5510  138.6740 C   0  0  1  0  0  3  0  0  0  0  0  0
  187.5130  177.4860  140.9470 C   0  0  0  0  0  2  0  0  0  0  0  0
  186.5950  178.6720  141.2010 C   0  0  2  0  0  3  0  0  0  0  0  0
  187.3190  179.6800  141.8120 F   0  0  0  0  0  0  0  0  0  0  0  0
  185.4340  178.2540  142.0940 C   0  0  0  0  0  2  0  0  0  0  0  0
  184.9460  179.4200  142.9390 C   0  0  0  0  0  2  0  0  0  0  0  0
  184.6760  178.9850  144.3130 C   0  0  0  0  0  0  0  0  0  0  0  0
  184.4520  178.6280  145.4420 C   0  0  0  0  0  3  0  0  0  0  0  0
  1  2  1  0  0  0  0
  2  5  2  0  0  0  0
  2 10  1  0  0  0  0
  3  8  1  0  0  0  0
  5 11  1  0  0  0  0
  6  8  1  0  0  0  0
  7  9  1  0  0  0  0
  7  6  1  0  0  0  0
  8  4  1  1  0  0  0
  9  3  1  0  0  0  0
 10  7  2  0  0  0  0
 11  9  2  0  0  0  0
 12 16  1  0  0  0  0
 12 14  1  1  0  0  0
 13 15  1  1  0  0  0
 13 20  1  0  0  0  0
 13 19  1  0  0  0  0
 15 19  1  0  0  0  0
 16  1  1  1  0  0  0
 19 18  1  6  0  0  0
 19 16  1  0  0  0  0
 20 17  1  6  0  0  0
 20 12  1  0  0  0  0
 21 22  1  0  0  0  0
 21  1  1  0  0  0  0
 22 23  1  1  0  0  0
 22 24  1  0  0  0  0
 24 25  1  0  0  0  0
 25 26  1  0  0  0  0
 26 27  3  0  0  0  0
M  END
>  <MODEL>
8

>  <REMARK>
 VINA RESULT:      -7.1      3.975      6.629
  Name = 
  6 active torsions:
  status: ('A' for Active; 'I' for Inactive)
    1  A    between atoms: N_1  and  C_15
    2  A    between atoms: N_1  and  C_18
    3  A    between atoms: C_7  and  C_25
    4  A    between atoms: C_9  and  C_15
    5  A    between atoms: C_9  and  C_27
    6  A    between atoms: C_25  and  C_27
                            x       y       z     vdW  Elec       q    Type
                         _______ _______ _______ _____ _____    ______ ____

>  <TORSDO>
F 6

$$$$
=
 OpenBabel11052413533D

 27 30  0  0  1  0  0  0  0  0999 V2000
  188.9940  177.2060  143.7560 N   0  0  0  0  0  0  0  0  0  0  0  0
  189.5450  177.2890  142.4220 C   0  0  0  0  0  0  0  0  0  0  0  0
  190.9120  177.4470  138.4820 N   0  0  0  0  0  2  0  0  0  0  0  0
  189.9370  176.1370  136.6820 C   0  0  0  0  0  1  0  0  0  0  0  0
  190.9320  177.4420  142.2110 C   0  0  0  0  0  3  0  0  0  0  0  0
  188.2280  177.1280  138.5990 S   0  0  0  0  0  0  0  0  0  0  0  0
  189.2080  177.2500  140.0770 C   0  0  0  0  0  0  0  0  0  0  0  0
  189.7600  177.3350  137.5910 C   0  0  1  0  0  3  0  0  0  0  0  0
  190.5460  177.4050  139.8460 C   0  0  0  0  0  0  0  0  0  0  0  0
  188.7140  177.1900  141.3400 N   0  0  0  0  0  0  0  0  0  0  0  0
  191.4400  177.5040  140.9080 C   0  0  0  0  0  3  0  0  0  0  0  0
  189.1900  176.9520  146.2230 C   0  0  1  0  0  3  0  0  0  0  0  0
  191.6670  176.9440  146.2320 C   0  0  1  0  0  3  0  0  0  0  0  0
  188.2740  177.7760  146.8800 O   0  0  0  0  0  1  0  0  0  0  0  0
  191.6800  176.0740  145.1160 O   0  0  0  0  0  0  0  0  0  0  0  0
  189.6980  177.6330  144.9700 C   0  0  1  0  0  3  0  0  0  0  0  0
  190.4630  177.5030  148.1980 F   0  0  0  0  0  0  0  0  0  0  0  0
  192.0560  178.2430  144.2500 O   0  0  0  0  0  1  0  0  0  0  0  0
  191.1900  177.3720  144.9080 C   0  0  1  0  0  0  0  0  0  0  0  0
  190.4280  176.6810  147.0850 C   0  0  1  0  0  3  0  0  0  0  0  0
  187.6140  176.7680  143.9410 C   0  0  0  0  0  2  0  0  0  0  0  0
  186.6770  177.9610  144.0530 C   0  0  2  0  0  3  0  0  0  0  0  0
  185.9340  177.8440  145.2130 F   0  0  0  0  0  0  0  0  0  0  0  0
  185.7500  178.0130  142.8470 C   0  0  0  0  0  2  0  0  0  0  0  0
  184.9330  179.2950  142.8390 C   0  0  0  0  0  2  0  0  0  0  0  0
  183.6810  179.1150  143.5800 C   0  0  0  0  0  0  0  0  0  0  0  0
  182.6520  178.9650  144.1900 C   0  0  0  0  0  3  0  0  0  0  0  0
  1 21  1  0  0  0  0
  2  1  1  0  0  0  0
  3  9  1  0  0  0  0
  5  2  1  0  0  0  0
  6  7  1  0  0  0  0
  7 10  1  0  0  0  0
  8  4  1  6  0  0  0
  8  3  1  0  0  0  0
  8  6  1  0  0  0  0
  9  7  2  0  0  0  0
  9 11  1  0  0  0  0
 10  2  2  0  0  0  0
 11  5  2  0  0  0  0
 12 14  1  1  0  0  0
 12 20  1  0  0  0  0
 13 15  1  6  0  0  0
 13 20  1  0  0  0  0
 16  1  1  6  0  0  0
 16 12  1  0  0  0  0
 19 18  1  6  0  0  0
 19 16  1  0  0  0  0
 19 15  1  0  0  0  0
 19 13  1  0  0  0  0
 20 17  1  1  0  0  0
 21 22  1  0  0  0  0
 22 23  1  1  0  0  0
 24 22  1  0  0  0  0
 25 24  1  0  0  0  0
 25 26  1  0  0  0  0
 26 27  3  0  0  0  0
M  END
>  <MODEL>
9

>  <REMARK>
 VINA RESULT:      -7.1      2.145      3.527
  Name = 
  6 active torsions:
  status: ('A' for Active; 'I' for Inactive)
    1  A    between atoms: N_1  and  C_15
    2  A    between atoms: N_1  and  C_18
    3  A    between atoms: C_7  and  C_25
    4  A    between atoms: C_9  and  C_15
    5  A    between atoms: C_9  and  C_27
    6  A    between atoms: C_25  and  C_27
                            x       y       z     vdW  Elec       q    Type
                         _______ _______ _______ _____ _____    ______ ____

>  <TORSDO>
F 6

$$$$
