=
 OpenBabel11052416593D

 32 37  0  0  1  0  0  0  0  0999 V2000
  188.2910  177.3490  145.0910 C   0  0  0  0  0  0  0  0  0  0  0  0
  191.1920  177.3730  141.0300 C   0  0  0  0  0  0  0  0  0  0  0  0
  188.0860  178.2500  137.3150 C   0  0  0  0  0  3  0  0  0  0  0  0
  188.9710  177.7030  136.3850 C   0  0  0  0  0  3  0  0  0  0  0  0
  190.4070  177.2360  143.2570 C   0  0  0  0  0  0  0  0  0  0  0  0
  188.8590  177.6240  141.4780 N   0  0  0  0  0  0  0  0  0  0  0  0
  188.0380  177.5230  143.7220 C   0  0  0  0  0  3  0  0  0  0  0  0
  188.3870  178.2050  138.6770 C   0  0  0  0  0  3  0  0  0  0  0  0
  189.8760  177.5720  140.5720 C   0  0  0  0  0  0  0  0  0  0  0  0
  189.5810  177.6220  139.1230 C   0  0  0  0  0  0  0  0  0  0  0  0
  191.7340  176.3640  138.6740 C   0  0  2  0  0  3  0  0  0  0  0  0
  189.5990  177.1150  145.5350 C   0  0  0  0  0  3  0  0  0  0  0  0
  189.0910  177.4700  142.8070 C   0  0  0  0  0  0  0  0  0  0  0  0
  190.6560  177.0600  144.6210 C   0  0  0  0  0  3  0  0  0  0  0  0
  190.1580  177.1090  136.8170 C   0  0  0  0  0  3  0  0  0  0  0  0
  190.4820  177.0650  138.1840 C   0  0  0  0  0  0  0  0  0  0  0  0
  191.4220  177.1960  142.3580 N   0  0  0  0  0  0  0  0  0  0  0  0
  192.5780  177.4180  139.8900 S   0  0  0  0  0  0  0  0  0  0  0  0
  187.6870  177.2550  147.3840 O   0  0  0  0  0  1  0  0  0  0  0  0
  187.1790  177.3920  146.0910 C   0  0  1  0  0  3  0  0  0  0  0  0
  186.3940  178.6900  145.9760 C   0  0  0  0  0  3  0  0  0  0  0  0
  184.9600  178.3820  145.5930 C   0  0  0  0  0  2  0  0  0  0  0  0
  185.3050  178.7160  147.0290 C   0  0  0  0  0  2  0  0  0  0  0  0
  192.7200  176.0010  137.5680 C   0  0  0  0  0  2  0  0  0  0  0  0
  193.1390  174.6050  137.6970 N   0  0  0  0  0  0  0  0  0  0  0  0
  192.4720  173.8150  136.7390 N   0  0  0  0  0  2  0  0  0  0  0  0
  191.0800  173.6000  136.7340 C   0  0  0  0  0  0  0  0  0  0  0  0
  189.9370  173.4240  136.7300 N   0  0  0  0  0  0  0  0  0  0  0  0
  194.5970  174.4480  137.5650 C   0  0  0  0  0  2  0  0  0  0  0  0
  195.2790  173.9300  138.8300 C   0  0  1  0  0  3  0  0  0  0  0  0
  196.7070  174.3080  138.8170 C   0  0  0  0  0  2  0  0  0  0  0  0
  195.7600  175.0270  139.5660 O   0  0  0  0  0  0  0  0  0  0  0  0
  1 12  1  0  0  0  0
  1 20  1  0  0  0  0
  2 17  1  0  0  0  0
  3  8  1  0  0  0  0
  4 15  1  0  0  0  0
  4  3  2  0  0  0  0
  5 14  1  0  0  0  0
  6 13  2  0  0  0  0
  7  1  2  0  0  0  0
  8 10  2  0  0  0  0
  9  2  2  0  0  0  0
  9  6  1  0  0  0  0
 10  9  1  0  0  0  0
 11 24  1  6  0  0  0
 11 18  1  0  0  0  0
 13  5  1  0  0  0  0
 13  7  1  0  0  0  0
 14 12  2  0  0  0  0
 15 16  2  0  0  0  0
 16 11  1  0  0  0  0
 16 10  1  0  0  0  0
 17  5  2  0  0  0  0
 18  2  1  0  0  0  0
 20 19  1  1  0  0  0
 21 20  1  0  0  0  0
 21 23  1  0  0  0  0
 22 21  1  0  0  0  0
 22 23  1  0  0  0  0
 24 25  1  0  0  0  0
 26 25  1  0  0  0  0
 27 26  1  0  0  0  0
 28 27  3  0  0  0  0
 29 25  1  0  0  0  0
 30 29  1  6  0  0  0
 30 32  1  0  0  0  0
 31 30  1  0  0  0  0
 31 32  1  0  0  0  0
M  END
>  <MODEL>
1

>  <REMARK>
 VINA RESULT:      -8.2      0.000      0.000
  Name = 
  8 active torsions:
  status: ('A' for Active; 'I' for Inactive)
    1  A    between atoms: C_1  and  C_24
    2  A    between atoms: C_2  and  C_24
    3  A    between atoms: C_6  and  N_7
    4  A    between atoms: N_7  and  N_32
    5  A    between atoms: C_11  and  C_22
    6  A    between atoms: C_16  and  C_27
    7  A    between atoms: C_22  and  N_32
    8  A    between atoms: C_27  and  N_32
                            x       y       z     vdW  Elec       q    Type
                         _______ _______ _______ _____ _____    ______ ____

>  <TORSDO>
F 8

$$$$
=
 OpenBabel11052416593D

 32 37  0  0  1  0  0  0  0  0999 V2000
  189.7580  177.1280  145.2050 C   0  0  0  0  0  0  0  0  0  0  0  0
  189.0260  177.9660  140.3400 C   0  0  0  0  0  0  0  0  0  0  0  0
  184.2790  179.2240  140.0170 C   0  0  0  0  0  3  0  0  0  0  0  0
  184.2340  178.8860  138.6650 C   0  0  0  0  0  3  0  0  0  0  0  0
  189.9970  177.4330  142.4300 C   0  0  0  0  0  0  0  0  0  0  0  0
  187.6790  178.0010  142.3120 N   0  0  0  0  0  0  0  0  0  0  0  0
  188.6390  177.4990  144.4440 C   0  0  0  0  0  3  0  0  0  0  0  0
  185.4370  178.9850  140.7590 C   0  0  0  0  0  3  0  0  0  0  0  0
  187.7770  178.1540  140.9610 C   0  0  0  0  0  0  0  0  0  0  0  0
  186.5650  178.4130  140.1540 C   0  0  0  0  0  0  0  0  0  0  0  0
  187.7150  177.3740  138.1510 C   0  0  2  0  0  3  0  0  0  0  0  0
  190.9880  176.9070  144.5740 C   0  0  0  0  0  3  0  0  0  0  0  0
  188.7560  177.6550  143.0620 C   0  0  0  0  0  0  0  0  0  0  0  0
  191.1100  177.0610  143.1890 C   0  0  0  0  0  3  0  0  0  0  0  0
  185.3460  178.3050  138.0520 C   0  0  0  0  0  3  0  0  0  0  0  0
  186.5230  178.0660  138.7820 C   0  0  0  0  0  0  0  0  0  0  0  0
  190.1000  177.5970  141.0870 N   0  0  0  0  0  0  0  0  0  0  0  0
  189.2340  178.2740  138.5830 S   0  0  0  0  0  0  0  0  0  0  0  0
  190.9230  176.9990  147.2680 O   0  0  0  0  0  1  0  0  0  0  0  0
  189.6550  176.9460  146.6860 C   0  0  1  0  0  3  0  0  0  0  0  0
  188.7560  178.0060  147.3040 C   0  0  0  0  0  3  0  0  0  0  0  0
  187.9470  177.3910  148.4290 C   0  0  0  0  0  2  0  0  0  0  0  0
  189.1630  178.2350  148.7450 C   0  0  0  0  0  2  0  0  0  0  0  0
  187.6320  177.2500  136.6320 C   0  0  0  0  0  2  0  0  0  0  0  0
  187.8360  175.8600  136.2220 N   0  0  0  0  0  0  0  0  0  0  0  0
  189.2140  175.6000  136.0860 N   0  0  0  0  0  2  0  0  0  0  0  0
  189.9330  174.7250  136.9230 C   0  0  0  0  0  0  0  0  0  0  0  0
  190.5230  174.0060  137.6120 N   0  0  0  0  0  0  0  0  0  0  0  0
  187.2260  174.9070  137.1630 C   0  0  0  0  0  2  0  0  0  0  0  0
  185.9940  174.1950  136.6100 C   0  0  1  0  0  3  0  0  0  0  0  0
  185.5760  173.1240  137.5380 C   0  0  0  0  0  2  0  0  0  0  0  0
  184.9270  174.3690  137.5090 O   0  0  0  0  0  0  0  0  0  0  0  0
  1 20  1  0  0  0  0
  2  9  2  0  0  0  0
  2 17  1  0  0  0  0
  3  8  1  0  0  0  0
  4  3  2  0  0  0  0
  5 13  1  0  0  0  0
  5 14  1  0  0  0  0
  6 13  2  0  0  0  0
  7  1  2  0  0  0  0
  9  6  1  0  0  0  0
 10  8  2  0  0  0  0
 10  9  1  0  0  0  0
 11 24  1  6  0  0  0
 11 18  1  0  0  0  0
 11 16  1  0  0  0  0
 12  1  1  0  0  0  0
 13  7  1  0  0  0  0
 14 12  2  0  0  0  0
 15  4  1  0  0  0  0
 15 16  2  0  0  0  0
 16 10  1  0  0  0  0
 17  5  2  0  0  0  0
 18  2  1  0  0  0  0
 20 19  1  1  0  0  0
 20 21  1  0  0  0  0
 21 22  1  0  0  0  0
 21 23  1  0  0  0  0
 22 23  1  0  0  0  0
 25 24  1  0  0  0  0
 25 29  1  0  0  0  0
 26 25  1  0  0  0  0
 26 27  1  0  0  0  0
 27 28  3  0  0  0  0
 30 29  1  1  0  0  0
 30 32  1  0  0  0  0
 30 31  1  0  0  0  0
 32 31  1  0  0  0  0
M  END
>  <MODEL>
2

>  <REMARK>
 VINA RESULT:      -7.8      3.202      4.712
  Name = 
  8 active torsions:
  status: ('A' for Active; 'I' for Inactive)
    1  A    between atoms: C_1  and  C_24
    2  A    between atoms: C_2  and  C_24
    3  A    between atoms: C_6  and  N_7
    4  A    between atoms: N_7  and  N_32
    5  A    between atoms: C_11  and  C_22
    6  A    between atoms: C_16  and  C_27
    7  A    between atoms: C_22  and  N_32
    8  A    between atoms: C_27  and  N_32
                            x       y       z     vdW  Elec       q    Type
                         _______ _______ _______ _____ _____    ______ ____

>  <TORSDO>
F 8

$$$$
=
 OpenBabel11052416593D

 32 37  0  0  1  0  0  0  0  0999 V2000
  188.1110  177.5640  144.9300 C   0  0  0  0  0  0  0  0  0  0  0  0
  184.8560  178.6620  141.3100 C   0  0  0  0  0  0  0  0  0  0  0  0
  180.5260  179.0080  143.6230 C   0  0  0  0  0  3  0  0  0  0  0  0
  179.8240  178.7840  142.4390 C   0  0  0  0  0  3  0  0  0  0  0  0
  186.8300  178.1480  142.5070 C   0  0  0  0  0  0  0  0  0  0  0  0
  184.7420  178.2670  143.6620 N   0  0  0  0  0  0  0  0  0  0  0  0
  186.7250  177.7780  144.9070 C   0  0  0  0  0  3  0  0  0  0  0  0
  181.9200  178.9320  143.6340 C   0  0  0  0  0  3  0  0  0  0  0  0
  184.1020  178.5520  142.4930 C   0  0  0  0  0  0  0  0  0  0  0  0
  182.6260  178.6410  142.4580 C   0  0  0  0  0  0  0  0  0  0  0  0
  182.6790  178.0190  140.0030 C   0  0  2  0  0  3  0  0  0  0  0  0
  188.8480  177.6390  143.7420 C   0  0  0  0  0  3  0  0  0  0  0  0
  186.0850  178.0720  143.7010 C   0  0  0  0  0  0  0  0  0  0  0  0
  188.2100  177.9320  142.5320 C   0  0  0  0  0  3  0  0  0  0  0  0
  180.5140  178.4830  141.2630 C   0  0  0  0  0  3  0  0  0  0  0  0
  181.9180  178.4130  141.2540 C   0  0  0  0  0  0  0  0  0  0  0  0
  186.1980  178.4440  141.3440 N   0  0  0  0  0  0  0  0  0  0  0  0
  184.0790  179.1540  139.7680 S   0  0  0  0  0  0  0  0  0  0  0  0
  190.1990  177.2050  146.0000 O   0  0  0  0  0  1  0  0  0  0  0  0
  188.8190  177.2390  146.2080 C   0  0  1  0  0  3  0  0  0  0  0  0
  188.4820  178.2540  147.2900 C   0  0  0  0  0  3  0  0  0  0  0  0
  187.9860  177.5300  148.5260 C   0  0  0  0  0  2  0  0  0  0  0  0
  189.4050  178.0540  148.4740 C   0  0  0  0  0  2  0  0  0  0  0  0
  181.8320  178.0130  138.7340 C   0  0  0  0  0  2  0  0  0  0  0  0
  181.6680  176.6460  138.2380 N   0  0  0  0  0  0  0  0  0  0  0  0
  182.6710  175.8180  138.7800 N   0  0  0  0  0  2  0  0  0  0  0  0
  183.6160  175.1210  138.0020 C   0  0  0  0  0  0  0  0  0  0  0  0
  184.3920  174.5490  137.3630 N   0  0  0  0  0  0  0  0  0  0  0  0
  180.3350  176.1010  138.5400 C   0  0  0  0  0  2  0  0  0  0  0  0
  180.3310  175.0630  139.6600 C   0  0  1  0  0  3  0  0  0  0  0  0
  179.1160  175.2220  140.4850 C   0  0  0  0  0  2  0  0  0  0  0  0
  179.2140  174.2250  139.4990 O   0  0  0  0  0  0  0  0  0  0  0  0
  1 20  1  0  0  0  0
  2 17  2  0  0  0  0
  2  9  1  0  0  0  0
  3  8  1  0  0  0  0
  4  3  2  0  0  0  0
  5 14  2  0  0  0  0
  5 13  1  0  0  0  0
  6 13  1  0  0  0  0
  7  1  1  0  0  0  0
  9  6  2  0  0  0  0
 10  9  1  0  0  0  0
 10  8  2  0  0  0  0
 11 24  1  6  0  0  0
 11 16  1  0  0  0  0
 12  1  2  0  0  0  0
 13  7  2  0  0  0  0
 14 12  1  0  0  0  0
 15  4  1  0  0  0  0
 16 15  2  0  0  0  0
 16 10  1  0  0  0  0
 17  5  1  0  0  0  0
 18 11  1  0  0  0  0
 18  2  1  0  0  0  0
 20 19  1  6  0  0  0
 20 21  1  0  0  0  0
 21 23  1  0  0  0  0
 21 22  1  0  0  0  0
 23 22  1  0  0  0  0
 25 29  1  0  0  0  0
 25 24  1  0  0  0  0
 25 26  1  0  0  0  0
 27 26  1  0  0  0  0
 28 27  3  0  0  0  0
 30 29  1  6  0  0  0
 30 31  1  0  0  0  0
 32 30  1  0  0  0  0
 32 31  1  0  0  0  0
M  END
>  <MODEL>
3

>  <REMARK>
 VINA RESULT:      -7.8      5.487      8.685
  Name = 
  8 active torsions:
  status: ('A' for Active; 'I' for Inactive)
    1  A    between atoms: C_1  and  C_24
    2  A    between atoms: C_2  and  C_24
    3  A    between atoms: C_6  and  N_7
    4  A    between atoms: N_7  and  N_32
    5  A    between atoms: C_11  and  C_22
    6  A    between atoms: C_16  and  C_27
    7  A    between atoms: C_22  and  N_32
    8  A    between atoms: C_27  and  N_32
                            x       y       z     vdW  Elec       q    Type
                         _______ _______ _______ _____ _____    ______ ____

>  <TORSDO>
F 8

$$$$
=
 OpenBabel11052416593D

 32 37  0  0  1  0  0  0  0  0999 V2000
  189.9650  177.0970  145.4020 C   0  0  0  0  0  0  0  0  0  0  0  0
  189.4060  177.7600  140.4880 C   0  0  0  0  0  0  0  0  0  0  0  0
  184.7170  179.1640  139.9690 C   0  0  0  0  0  3  0  0  0  0  0  0
  184.7000  178.7720  138.6310 C   0  0  0  0  0  3  0  0  0  0  0  0
  190.2960  177.2800  142.6260 C   0  0  0  0  0  0  0  0  0  0  0  0
  188.0040  177.9200  142.4140 N   0  0  0  0  0  0  0  0  0  0  0  0
  188.8820  177.4740  144.5940 C   0  0  0  0  0  3  0  0  0  0  0  0
  185.8440  178.9150  140.7550 C   0  0  0  0  0  3  0  0  0  0  0  0
  188.1470  178.0150  141.0620 C   0  0  0  0  0  0  0  0  0  0  0  0
  186.9680  178.2810  140.2090 C   0  0  0  0  0  0  0  0  0  0  0  0
  188.1400  177.1230  138.2840 C   0  0  2  0  0  3  0  0  0  0  0  0
  191.2050  176.8090  144.8180 C   0  0  0  0  0  3  0  0  0  0  0  0
  189.0460  177.5690  143.2100 C   0  0  0  0  0  0  0  0  0  0  0  0
  191.3720  176.9010  143.4330 C   0  0  0  0  0  3  0  0  0  0  0  0
  185.8090  178.1290  138.0760 C   0  0  0  0  0  3  0  0  0  0  0  0
  186.9550  177.8810  138.8510 C   0  0  0  0  0  0  0  0  0  0  0  0
  190.4440  177.3860  141.2810 N   0  0  0  0  0  0  0  0  0  0  0  0
  189.6760  177.9890  138.7280 S   0  0  0  0  0  0  0  0  0  0  0  0
  191.0580  177.0790  147.5090 O   0  0  0  0  0  1  0  0  0  0  0  0
  189.8120  176.9790  146.8860 C   0  0  1  0  0  3  0  0  0  0  0  0
  188.8760  178.0500  147.4240 C   0  0  0  0  0  3  0  0  0  0  0  0
  187.9700  177.4470  148.4790 C   0  0  0  0  0  2  0  0  0  0  0  0
  189.1640  178.2800  148.8930 C   0  0  0  0  0  2  0  0  0  0  0  0
  188.0970  176.9400  136.7700 C   0  0  0  0  0  2  0  0  0  0  0  0
  188.1400  175.5190  136.4270 N   0  0  0  0  0  0  0  0  0  0  0  0
  187.2170  175.2480  135.3970 N   0  0  0  0  0  2  0  0  0  0  0  0
  185.8190  175.3300  135.5560 C   0  0  0  0  0  0  0  0  0  0  0  0
  184.6720  175.3980  135.6870 N   0  0  0  0  0  0  0  0  0  0  0  0
  189.4890  175.0820  136.0340 C   0  0  0  0  0  2  0  0  0  0  0  0
  190.0230  173.9110  136.8560 C   0  0  1  0  0  3  0  0  0  0  0  0
  191.4970  173.9870  136.9340 C   0  0  0  0  0  2  0  0  0  0  0  0
  190.6790  174.4180  137.9930 O   0  0  0  0  0  0  0  0  0  0  0  0
  1 20  1  0  0  0  0
  2  9  2  0  0  0  0
  2 17  1  0  0  0  0
  3  8  1  0  0  0  0
  4  3  2  0  0  0  0
  5 13  1  0  0  0  0
  5 14  1  0  0  0  0
  6 13  2  0  0  0  0
  7  1  2  0  0  0  0
  9  6  1  0  0  0  0
 10  8  2  0  0  0  0
 10  9  1  0  0  0  0
 11 24  1  6  0  0  0
 11 18  1  0  0  0  0
 11 16  1  0  0  0  0
 12  1  1  0  0  0  0
 13  7  1  0  0  0  0
 14 12  2  0  0  0  0
 15  4  1  0  0  0  0
 15 16  2  0  0  0  0
 16 10  1  0  0  0  0
 17  5  2  0  0  0  0
 18  2  1  0  0  0  0
 20 21  1  0  0  0  0
 20 19  1  1  0  0  0
 21 22  1  0  0  0  0
 21 23  1  0  0  0  0
 22 23  1  0  0  0  0
 25 24  1  0  0  0  0
 26 27  1  0  0  0  0
 26 25  1  0  0  0  0
 27 28  3  0  0  0  0
 29 25  1  0  0  0  0
 30 29  1  6  0  0  0
 30 31  1  0  0  0  0
 30 32  1  0  0  0  0
 31 32  1  0  0  0  0
M  END
>  <MODEL>
4

>  <REMARK>
 VINA RESULT:      -7.8      2.795      3.850
  Name = 
  8 active torsions:
  status: ('A' for Active; 'I' for Inactive)
    1  A    between atoms: C_1  and  C_24
    2  A    between atoms: C_2  and  C_24
    3  A    between atoms: C_6  and  N_7
    4  A    between atoms: N_7  and  N_32
    5  A    between atoms: C_11  and  C_22
    6  A    between atoms: C_16  and  C_27
    7  A    between atoms: C_22  and  N_32
    8  A    between atoms: C_27  and  N_32
                            x       y       z     vdW  Elec       q    Type
                         _______ _______ _______ _____ _____    ______ ____

>  <TORSDO>
F 8

$$$$
=
 OpenBabel11052416593D

 32 37  0  0  1  0  0  0  0  0999 V2000
  182.0990  179.0260  142.5570 C   0  0  0  0  0  0  0  0  0  0  0  0
  186.7530  177.5960  143.6510 C   0  0  0  0  0  0  0  0  0  0  0  0
  187.1110  178.2180  148.5200 C   0  0  0  0  0  3  0  0  0  0  0  0
  188.5030  178.2750  148.4560 C   0  0  0  0  0  3  0  0  0  0  0  0
  184.7470  178.1140  142.5090 C   0  0  0  0  0  0  0  0  0  0  0  0
  184.8930  178.4680  144.8670 N   0  0  0  0  0  0  0  0  0  0  0  0
  182.8400  178.9720  143.7470 C   0  0  0  0  0  3  0  0  0  0  0  0
  186.3610  178.1360  147.3450 C   0  0  0  0  0  3  0  0  0  0  0  0
  186.1820  178.0270  144.8620 C   0  0  0  0  0  0  0  0  0  0  0  0
  186.9960  178.1010  146.0960 C   0  0  0  0  0  0  0  0  0  0  0  0
  189.0880  178.2030  144.6720 C   0  0  2  0  0  3  0  0  0  0  0  0
  182.6870  178.6290  141.3500 C   0  0  0  0  0  3  0  0  0  0  0  0
  184.1590  178.5140  143.7260 C   0  0  0  0  0  0  0  0  0  0  0  0
  184.0090  178.1720  141.3240 C   0  0  0  0  0  3  0  0  0  0  0  0
  189.1480  178.2530  147.2180 C   0  0  0  0  0  3  0  0  0  0  0  0
  188.4080  178.1590  146.0260 C   0  0  0  0  0  0  0  0  0  0  0  0
  186.0270  177.6620  142.5030 N   0  0  0  0  0  0  0  0  0  0  0  0
  188.4050  176.8930  143.6130 S   0  0  0  0  0  0  0  0  0  0  0  0
  180.5070  180.4750  143.5560 O   0  0  0  0  0  1  0  0  0  0  0  0
  180.6870  179.5210  142.5520 C   0  0  1  0  0  3  0  0  0  0  0  0
  180.3230  180.1160  141.2000 C   0  0  0  0  0  3  0  0  0  0  0  0
  179.0020  179.5380  140.7330 C   0  0  0  0  0  2  0  0  0  0  0  0
  179.0500  180.9270  141.3320 C   0  0  0  0  0  2  0  0  0  0  0  0
  190.6050  178.0480  144.7300 C   0  0  0  0  0  2  0  0  0  0  0  0
  191.0230  176.8480  144.0050 N   0  0  0  0  0  0  0  0  0  0  0  0
  191.9750  177.1900  143.0230 N   0  0  0  0  0  2  0  0  0  0  0  0
  191.6600  177.3960  141.6660 C   0  0  0  0  0  0  0  0  0  0  0  0
  191.4020  177.5640  140.5510 N   0  0  0  0  0  0  0  0  0  0  0  0
  191.5630  175.8150  144.9030 C   0  0  0  0  0  2  0  0  0  0  0  0
  191.9590  176.3410  146.2810 C   0  0  1  0  0  3  0  0  0  0  0  0
  191.4520  175.4310  147.3290 C   0  0  0  0  0  2  0  0  0  0  0  0
  192.7920  175.3950  146.9050 O   0  0  0  0  0  0  0  0  0  0  0  0
  1  7  1  0  0  0  0
  2  9  1  0  0  0  0
  4  3  1  0  0  0  0
  5 13  1  0  0  0  0
  8  3  2  0  0  0  0
  9  6  2  0  0  0  0
  9 10  1  0  0  0  0
 10  8  1  0  0  0  0
 11 24  1  1  0  0  0
 11 16  1  0  0  0  0
 12  1  2  0  0  0  0
 13  7  2  0  0  0  0
 13  6  1  0  0  0  0
 14 12  1  0  0  0  0
 14  5  2  0  0  0  0
 15  4  2  0  0  0  0
 16 10  2  0  0  0  0
 16 15  1  0  0  0  0
 17  5  1  0  0  0  0
 17  2  2  0  0  0  0
 18  2  1  0  0  0  0
 18 11  1  0  0  0  0
 20  1  1  0  0  0  0
 20 19  1  1  0  0  0
 21 23  1  0  0  0  0
 21 20  1  0  0  0  0
 22 21  1  0  0  0  0
 22 23  1  0  0  0  0
 25 24  1  0  0  0  0
 25 29  1  0  0  0  0
 26 25  1  0  0  0  0
 27 26  1  0  0  0  0
 28 27  3  0  0  0  0
 30 29  1  6  0  0  0
 30 32  1  0  0  0  0
 30 31  1  0  0  0  0
 32 31  1  0  0  0  0
M  END
>  <MODEL>
5

>  <REMARK>
 VINA RESULT:      -7.7      4.171      7.723
  Name = 
  8 active torsions:
  status: ('A' for Active; 'I' for Inactive)
    1  A    between atoms: C_1  and  C_24
    2  A    between atoms: C_2  and  C_24
    3  A    between atoms: C_6  and  N_7
    4  A    between atoms: N_7  and  N_32
    5  A    between atoms: C_11  and  C_22
    6  A    between atoms: C_16  and  C_27
    7  A    between atoms: C_22  and  N_32
    8  A    between atoms: C_27  and  N_32
                            x       y       z     vdW  Elec       q    Type
                         _______ _______ _______ _____ _____    ______ ____

>  <TORSDO>
F 8

$$$$
=
 OpenBabel11052416593D

 32 37  0  0  1  0  0  0  0  0999 V2000
  192.2150  176.2700  137.3410 C   0  0  0  0  0  0  0  0  0  0  0  0
  188.8680  177.6670  140.7690 C   0  0  0  0  0  0  0  0  0  0  0  0
  191.3360  177.5060  145.0240 C   0  0  0  0  0  3  0  0  0  0  0  0
  190.1540  177.4040  145.7580 C   0  0  0  0  0  3  0  0  0  0  0  0
  189.9280  177.0990  138.7330 C   0  0  0  0  0  0  0  0  0  0  0  0
  191.1510  176.9690  140.7810 N   0  0  0  0  0  0  0  0  0  0  0  0
  192.2620  176.4190  138.7350 C   0  0  0  0  0  3  0  0  0  0  0  0
  191.2940  177.4960  143.6290 C   0  0  0  0  0  3  0  0  0  0  0  0
  190.0490  177.3700  141.4740 C   0  0  0  0  0  0  0  0  0  0  0  0
  190.0700  177.3930  142.9530 C   0  0  0  0  0  0  0  0  0  0  0  0
  187.5550  177.0950  142.9620 C   0  0  2  0  0  3  0  0  0  0  0  0
  191.0250  176.5330  136.6510 C   0  0  0  0  0  3  0  0  0  0  0  0
  191.1240  176.8340  139.4310 C   0  0  0  0  0  0  0  0  0  0  0  0
  189.8830  176.9470  137.3440 C   0  0  0  0  0  3  0  0  0  0  0  0
  188.9290  177.2890  145.0980 C   0  0  0  0  0  3  0  0  0  0  0  0
  188.8680  177.2880  143.6940 C   0  0  0  0  0  0  0  0  0  0  0  0
  188.8330  177.5110  139.4190 N   0  0  0  0  0  0  0  0  0  0  0  0
  187.4270  178.3160  141.6220 S   0  0  0  0  0  0  0  0  0  0  0  0
  194.3820  176.8280  136.5490 O   0  0  0  0  0  1  0  0  0  0  0  0
  193.4180  175.8180  136.5750 C   0  0  1  0  0  3  0  0  0  0  0  0
  194.0070  174.5540  137.1830 C   0  0  0  0  0  3  0  0  0  0  0  0
  194.0940  173.4750  136.1220 C   0  0  0  0  0  2  0  0  0  0  0  0
  195.3340  174.2460  136.5210 C   0  0  0  0  0  2  0  0  0  0  0  0
  186.3210  177.2110  143.8530 C   0  0  0  0  0  2  0  0  0  0  0  0
  185.7010  178.5260  143.6960 N   0  0  0  0  0  0  0  0  0  0  0  0
  184.5020  178.4050  142.9640 N   0  0  0  0  0  2  0  0  0  0  0  0
  183.2240  178.6320  143.5120 C   0  0  0  0  0  0  0  0  0  0  0  0
  182.1750  178.8190  143.9610 N   0  0  0  0  0  0  0  0  0  0  0  0
  185.4470  179.1810  144.9890 C   0  0  0  0  0  2  0  0  0  0  0  0
  185.6560  178.2670  146.1950 C   0  0  1  0  0  3  0  0  0  0  0  0
  186.0640  179.0700  147.3660 C   0  0  0  0  0  2  0  0  0  0  0  0
  184.7410  178.6270  147.2010 O   0  0  0  0  0  0  0  0  0  0  0  0
  1  7  1  0  0  0  0
  2  9  1  0  0  0  0
  2 18  1  0  0  0  0
  3  4  1  0  0  0  0
  5 17  1  0  0  0  0
  5 13  1  0  0  0  0
  6  9  2  0  0  0  0
  7 13  2  0  0  0  0
  8  3  2  0  0  0  0
  9 10  1  0  0  0  0
 10  8  1  0  0  0  0
 10 16  2  0  0  0  0
 11 16  1  0  0  0  0
 11 24  1  1  0  0  0
 12  1  2  0  0  0  0
 12 14  1  0  0  0  0
 13  6  1  0  0  0  0
 14  5  2  0  0  0  0
 15  4  2  0  0  0  0
 16 15  1  0  0  0  0
 17  2  2  0  0  0  0
 18 11  1  0  0  0  0
 20 19  1  1  0  0  0
 20 21  1  0  0  0  0
 20  1  1  0  0  0  0
 22 23  1  0  0  0  0
 22 21  1  0  0  0  0
 23 21  1  0  0  0  0
 25 24  1  0  0  0  0
 25 29  1  0  0  0  0
 26 27  1  0  0  0  0
 26 25  1  0  0  0  0
 27 28  3  0  0  0  0
 30 29  1  6  0  0  0
 30 32  1  0  0  0  0
 30 31  1  0  0  0  0
 32 31  1  0  0  0  0
M  END
>  <MODEL>
6

>  <REMARK>
 VINA RESULT:      -7.7      2.388      9.501
  Name = 
  8 active torsions:
  status: ('A' for Active; 'I' for Inactive)
    1  A    between atoms: C_1  and  C_24
    2  A    between atoms: C_2  and  C_24
    3  A    between atoms: C_6  and  N_7
    4  A    between atoms: N_7  and  N_32
    5  A    between atoms: C_11  and  C_22
    6  A    between atoms: C_16  and  C_27
    7  A    between atoms: C_22  and  N_32
    8  A    between atoms: C_27  and  N_32
                            x       y       z     vdW  Elec       q    Type
                         _______ _______ _______ _____ _____    ______ ____

>  <TORSDO>
F 8

$$$$
=
 OpenBabel11052416593D

 32 37  0  0  1  0  0  0  0  0999 V2000
  190.8540  176.8310  138.1060 C   0  0  0  0  0  0  0  0  0  0  0  0
  187.2530  178.5240  141.1180 C   0  0  0  0  0  0  0  0  0  0  0  0
  188.8440  177.4500  145.6500 C   0  0  0  0  0  3  0  0  0  0  0  0
  187.5500  177.5140  146.1690 C   0  0  0  0  0  3  0  0  0  0  0  0
  188.5420  177.9590  139.2170 C   0  0  0  0  0  0  0  0  0  0  0  0
  189.3320  177.3840  141.3980 N   0  0  0  0  0  0  0  0  0  0  0  0
  190.6750  176.8280  139.4970 C   0  0  0  0  0  3  0  0  0  0  0  0
  189.0530  177.5870  144.2760 C   0  0  0  0  0  3  0  0  0  0  0  0
  188.2140  177.9280  141.9550 C   0  0  0  0  0  0  0  0  0  0  0  0
  187.9720  177.7990  143.4090 C   0  0  0  0  0  0  0  0  0  0  0  0
  185.4850  178.0130  142.9820 C   0  0  2  0  0  3  0  0  0  0  0  0
  189.8740  177.3940  137.2780 C   0  0  0  0  0  3  0  0  0  0  0  0
  189.5250  177.3920  140.0540 C   0  0  0  0  0  0  0  0  0  0  0  0
  188.7210  177.9590  137.8320 C   0  0  0  0  0  3  0  0  0  0  0  0
  186.4640  177.7140  145.3150 C   0  0  0  0  0  3  0  0  0  0  0  0
  186.6580  177.8650  143.9310 C   0  0  0  0  0  0  0  0  0  0  0  0
  187.4330  178.5130  139.7710 N   0  0  0  0  0  0  0  0  0  0  0  0
  185.8230  179.3610  141.8110 S   0  0  0  0  0  0  0  0  0  0  0  0
  193.2250  176.7270  138.0950 O   0  0  0  0  0  1  0  0  0  0  0  0
  192.0730  176.2250  137.4860 C   0  0  1  0  0  3  0  0  0  0  0  0
  192.0440  174.7080  137.6010 C   0  0  0  0  0  3  0  0  0  0  0  0
  192.4890  174.0930  136.2880 C   0  0  0  0  0  2  0  0  0  0  0  0
  193.4510  174.1650  137.4550 C   0  0  0  0  0  2  0  0  0  0  0  0
  184.1530  178.2850  143.6750 C   0  0  0  0  0  2  0  0  0  0  0  0
  183.2040  178.8870  142.7380 N   0  0  0  0  0  0  0  0  0  0  0  0
  182.8870  177.9640  141.7210 N   0  0  0  0  0  2  0  0  0  0  0  0
  182.8960  178.2780  140.3480 C   0  0  0  0  0  0  0  0  0  0  0  0
  182.9030  178.5370  139.2210 N   0  0  0  0  0  0  0  0  0  0  0  0
  181.9800  179.3520  143.4080 C   0  0  0  0  0  2  0  0  0  0  0  0
  180.7350  179.3030  142.5240 C   0  0  1  0  0  3  0  0  0  0  0  0
  179.5330  179.5810  143.3360 C   0  0  0  0  0  2  0  0  0  0  0  0
  180.1240  180.5700  142.5310 O   0  0  0  0  0  0  0  0  0  0  0  0
  1  7  1  0  0  0  0
  2 18  1  0  0  0  0
  2  9  1  0  0  0  0
  3  4  1  0  0  0  0
  5 17  1  0  0  0  0
  5 13  1  0  0  0  0
  6  9  2  0  0  0  0
  7 13  2  0  0  0  0
  8  3  2  0  0  0  0
  9 10  1  0  0  0  0
 10 16  2  0  0  0  0
 10  8  1  0  0  0  0
 11 24  1  1  0  0  0
 11 16  1  0  0  0  0
 12 14  1  0  0  0  0
 12  1  2  0  0  0  0
 13  6  1  0  0  0  0
 14  5  2  0  0  0  0
 15  4  2  0  0  0  0
 16 15  1  0  0  0  0
 17  2  2  0  0  0  0
 18 11  1  0  0  0  0
 20 21  1  0  0  0  0
 20 19  1  1  0  0  0
 20  1  1  0  0  0  0
 22 23  1  0  0  0  0
 22 21  1  0  0  0  0
 23 21  1  0  0  0  0
 25 29  1  0  0  0  0
 25 24  1  0  0  0  0
 26 25  1  0  0  0  0
 27 26  1  0  0  0  0
 28 27  3  0  0  0  0
 30 32  1  0  0  0  0
 30 31  1  0  0  0  0
 30 29  1  1  0  0  0
 32 31  1  0  0  0  0
M  END
>  <MODEL>
7

>  <REMARK>
 VINA RESULT:      -7.5      3.631      9.832
  Name = 
  8 active torsions:
  status: ('A' for Active; 'I' for Inactive)
    1  A    between atoms: C_1  and  C_24
    2  A    between atoms: C_2  and  C_24
    3  A    between atoms: C_6  and  N_7
    4  A    between atoms: N_7  and  N_32
    5  A    between atoms: C_11  and  C_22
    6  A    between atoms: C_16  and  C_27
    7  A    between atoms: C_22  and  N_32
    8  A    between atoms: C_27  and  N_32
                            x       y       z     vdW  Elec       q    Type
                         _______ _______ _______ _____ _____    ______ ____

>  <TORSDO>
F 8

$$$$
=
 OpenBabel11052416593D

 32 37  0  0  1  0  0  0  0  0999 V2000
  188.0090  177.2940  144.6790 C   0  0  0  0  0  0  0  0  0  0  0  0
  190.6130  177.1850  140.4230 C   0  0  0  0  0  0  0  0  0  0  0  0
  187.3690  178.5180  136.9710 C   0  0  0  0  0  3  0  0  0  0  0  0
  188.1270  177.9220  135.9630 C   0  0  0  0  0  3  0  0  0  0  0  0
  189.9720  177.0400  142.6950 C   0  0  0  0  0  0  0  0  0  0  0  0
  188.3550  177.6520  141.0450 N   0  0  0  0  0  0  0  0  0  0  0  0
  187.6830  177.5470  143.3380 C   0  0  0  0  0  3  0  0  0  0  0  0
  187.7560  178.3890  138.3060 C   0  0  0  0  0  3  0  0  0  0  0  0
  189.2970  177.5340  140.0670 C   0  0  0  0  0  0  0  0  0  0  0  0
  188.9110  177.6700  138.6450 C   0  0  0  0  0  0  0  0  0  0  0  0
  190.8850  176.2190  138.0030 C   0  0  2  0  0  3  0  0  0  0  0  0
  189.3130  176.9120  145.0200 C   0  0  0  0  0  3  0  0  0  0  0  0
  188.6600  177.4240  142.3480 C   0  0  0  0  0  0  0  0  0  0  0  0
  190.2930  176.7860  144.0310 C   0  0  0  0  0  3  0  0  0  0  0  0
  189.2730  177.1940  136.2880 C   0  0  0  0  0  3  0  0  0  0  0  0
  189.6830  177.0630  137.6270 C   0  0  0  0  0  0  0  0  0  0  0  0
  190.9140  176.9330  141.7250 N   0  0  0  0  0  0  0  0  0  0  0  0
  191.9160  177.1340  139.1880 S   0  0  0  0  0  0  0  0  0  0  0  0
  187.5940  177.4840  147.0080 O   0  0  0  0  0  1  0  0  0  0  0  0
  186.9780  177.4100  145.7570 C   0  0  1  0  0  3  0  0  0  0  0  0
  186.0990  178.6330  145.5390 C   0  0  0  0  0  3  0  0  0  0  0  0
  184.7020  178.3500  146.0560 C   0  0  0  0  0  2  0  0  0  0  0  0
  185.6600  179.1830  146.8800 C   0  0  0  0  0  2  0  0  0  0  0  0
  191.7500  175.8020  136.8170 C   0  0  0  0  0  2  0  0  0  0  0  0
  191.7040  174.3510  136.6390 N   0  0  0  0  0  0  0  0  0  0  0  0
  192.8530  173.7630  137.2070 N   0  0  0  0  0  2  0  0  0  0  0  0
  194.0040  174.4870  137.5710 C   0  0  0  0  0  0  0  0  0  0  0  0
  194.9500  175.0810  137.8700 N   0  0  0  0  0  0  0  0  0  0  0  0
  190.4870  173.7580  137.2140 C   0  0  0  0  0  2  0  0  0  0  0  0
  189.3550  173.5710  136.2070 C   0  0  1  0  0  3  0  0  0  0  0  0
  188.4440  172.5030  136.6690 C   0  0  0  0  0  2  0  0  0  0  0  0
  188.1330  173.8630  136.8390 O   0  0  0  0  0  0  0  0  0  0  0  0
  1 12  1  0  0  0  0
  1 20  1  0  0  0  0
  2 17  1  0  0  0  0
  3  8  1  0  0  0  0
  4 15  1  0  0  0  0
  4  3  2  0  0  0  0
  5 14  1  0  0  0  0
  6 13  2  0  0  0  0
  7  1  2  0  0  0  0
  8 10  2  0  0  0  0
  9  2  2  0  0  0  0
  9  6  1  0  0  0  0
 10  9  1  0  0  0  0
 11 24  1  6  0  0  0
 11 18  1  0  0  0  0
 13  5  1  0  0  0  0
 13  7  1  0  0  0  0
 14 12  2  0  0  0  0
 15 16  2  0  0  0  0
 16 11  1  0  0  0  0
 16 10  1  0  0  0  0
 17  5  2  0  0  0  0
 18  2  1  0  0  0  0
 20 19  1  1  0  0  0
 21 20  1  0  0  0  0
 21 22  1  0  0  0  0
 21 23  1  0  0  0  0
 22 23  1  0  0  0  0
 25 24  1  0  0  0  0
 25 26  1  0  0  0  0
 25 29  1  0  0  0  0
 26 27  1  0  0  0  0
 27 28  3  0  0  0  0
 30 31  1  0  0  0  0
 30 32  1  0  0  0  0
 30 29  1  1  0  0  0
 31 32  1  0  0  0  0
M  END
>  <MODEL>
8

>  <REMARK>
 VINA RESULT:      -7.4      1.766      2.853
  Name = 
  8 active torsions:
  status: ('A' for Active; 'I' for Inactive)
    1  A    between atoms: C_1  and  C_24
    2  A    between atoms: C_2  and  C_24
    3  A    between atoms: C_6  and  N_7
    4  A    between atoms: N_7  and  N_32
    5  A    between atoms: C_11  and  C_22
    6  A    between atoms: C_16  and  C_27
    7  A    between atoms: C_22  and  N_32
    8  A    between atoms: C_27  and  N_32
                            x       y       z     vdW  Elec       q    Type
                         _______ _______ _______ _____ _____    ______ ____

>  <TORSDO>
F 8

$$$$
=
 OpenBabel11052416593D

 32 37  0  0  1  0  0  0  0  0999 V2000
  190.5880  176.4080  138.6090 C   0  0  0  0  0  0  0  0  0  0  0  0
  187.1370  178.6180  141.4570 C   0  0  0  0  0  0  0  0  0  0  0  0
  188.3520  177.3510  146.0550 C   0  0  0  0  0  3  0  0  0  0  0  0
  187.0590  177.6040  146.5150 C   0  0  0  0  0  3  0  0  0  0  0  0
  188.4150  177.8630  139.6160 C   0  0  0  0  0  0  0  0  0  0  0  0
  189.0160  177.1920  141.8290 N   0  0  0  0  0  0  0  0  0  0  0  0
  190.3480  176.4380  139.9910 C   0  0  0  0  0  3  0  0  0  0  0  0
  188.6400  177.4490  144.6930 C   0  0  0  0  0  3  0  0  0  0  0  0
  187.9640  177.8940  142.3360 C   0  0  0  0  0  0  0  0  0  0  0  0
  187.6410  177.8100  143.7780 C   0  0  0  0  0  0  0  0  0  0  0  0
  185.2320  178.3760  143.2390 C   0  0  2  0  0  3  0  0  0  0  0  0
  189.7380  177.1020  137.7390 C   0  0  0  0  0  3  0  0  0  0  0  0
  189.2670  177.1650  140.4950 C   0  0  0  0  0  0  0  0  0  0  0  0
  188.6540  177.8290  138.2400 C   0  0  0  0  0  3  0  0  0  0  0  0
  186.0520  177.9530  145.6130 C   0  0  0  0  0  3  0  0  0  0  0  0
  186.3280  178.0660  144.2390 C   0  0  0  0  0  0  0  0  0  0  0  0
  187.3740  178.5730  140.1190 N   0  0  0  0  0  0  0  0  0  0  0  0
  185.8130  179.6560  142.0860 S   0  0  0  0  0  0  0  0  0  0  0  0
  191.3960  174.2780  137.9460 O   0  0  0  0  0  1  0  0  0  0  0  0
  191.7340  175.6300  138.0440 C   0  0  1  0  0  3  0  0  0  0  0  0
  192.1340  176.1650  136.6780 C   0  0  0  0  0  3  0  0  0  0  0  0
  193.6310  176.4060  136.6480 C   0  0  0  0  0  2  0  0  0  0  0  0
  193.0510  175.1700  135.9950 C   0  0  0  0  0  2  0  0  0  0  0  0
  183.9230  178.8410  143.8710 C   0  0  0  0  0  2  0  0  0  0  0  0
  182.7890  178.4810  143.0200 N   0  0  0  0  0  0  0  0  0  0  0  0
  181.6280  179.1460  143.4640 N   0  0  0  0  0  2  0  0  0  0  0  0
  180.4570  178.4830  143.8780 C   0  0  0  0  0  0  0  0  0  0  0  0
  179.4940  177.9390  144.2190 N   0  0  0  0  0  0  0  0  0  0  0  0
  183.0410  178.7820  141.6010 C   0  0  0  0  0  2  0  0  0  0  0  0
  182.2370  177.9160  140.6340 C   0  0  1  0  0  3  0  0  0  0  0  0
  182.7760  178.0610  139.2660 C   0  0  0  0  0  2  0  0  0  0  0  0
  183.0920  176.9530  140.0700 O   0  0  0  0  0  0  0  0  0  0  0  0
  1  7  1  0  0  0  0
  2 18  1  0  0  0  0
  2  9  1  0  0  0  0
  3  4  1  0  0  0  0
  5 17  1  0  0  0  0
  5 13  1  0  0  0  0
  6  9  2  0  0  0  0
  7 13  2  0  0  0  0
  8  3  2  0  0  0  0
  9 10  1  0  0  0  0
 10 16  2  0  0  0  0
 10  8  1  0  0  0  0
 11 24  1  1  0  0  0
 11 16  1  0  0  0  0
 12 14  1  0  0  0  0
 12  1  2  0  0  0  0
 13  6  1  0  0  0  0
 14  5  2  0  0  0  0
 15  4  2  0  0  0  0
 16 15  1  0  0  0  0
 17  2  2  0  0  0  0
 18 11  1  0  0  0  0
 20 19  1  6  0  0  0
 20  1  1  0  0  0  0
 21 20  1  0  0  0  0
 22 21  1  0  0  0  0
 23 22  1  0  0  0  0
 23 21  1  0  0  0  0
 25 26  1  0  0  0  0
 25 24  1  0  0  0  0
 26 27  1  0  0  0  0
 27 28  3  0  0  0  0
 29 25  1  0  0  0  0
 30 29  1  1  0  0  0
 31 32  1  0  0  0  0
 31 30  1  0  0  0  0
 32 30  1  0  0  0  0
M  END
>  <MODEL>
9

>  <REMARK>
 VINA RESULT:      -7.3      3.935      9.707
  Name = 
  8 active torsions:
  status: ('A' for Active; 'I' for Inactive)
    1  A    between atoms: C_1  and  C_24
    2  A    between atoms: C_2  and  C_24
    3  A    between atoms: C_6  and  N_7
    4  A    between atoms: N_7  and  N_32
    5  A    between atoms: C_11  and  C_22
    6  A    between atoms: C_16  and  C_27
    7  A    between atoms: C_22  and  N_32
    8  A    between atoms: C_27  and  N_32
                            x       y       z     vdW  Elec       q    Type
                         _______ _______ _______ _____ _____    ______ ____

>  <TORSDO>
F 8

$$$$
