=
 OpenBabel11052413263D

 28 31  0  0  1  0  0  0  0  0999 V2000
  189.7330  178.1530  143.2110 C   0  0  2  0  0  3  0  0  0  0  0  0
  191.2170  176.0750  146.6650 C   0  0  0  0  0  1  0  0  0  0  0  0
  186.8010  178.1210  144.2710 C   0  0  2  0  0  3  0  0  0  0  0  0
  189.2780  177.1640  145.5310 C   0  0  2  0  0  3  0  0  0  0  0  0
  187.5620  176.9310  143.6830 C   0  0  0  0  0  2  0  0  0  0  0  0
  191.6860  177.5380  144.7100 C   0  0  0  0  0  2  0  0  0  0  0  0
  188.4880  178.3420  146.1050 C   0  0  0  0  0  2  0  0  0  0  0  0
  190.7610  177.3050  145.9070 C   0  0  2  0  0  3  0  0  0  0  0  0
  187.0030  178.2020  145.7830 C   0  0  0  0  0  2  0  0  0  0  0  0
  191.0970  178.5890  143.7740 C   0  0  0  0  0  2  0  0  0  0  0  0
  189.0540  177.0240  144.0100 C   0  0  1  0  0  3  0  0  0  0  0  0
  185.0100  177.7350  142.6460 C   0  0  0  0  0  3  0  0  0  0  0  0
  183.2120  179.0950  144.7190 C   0  0  0  0  0  3  0  0  0  0  0  0
  182.8950  178.9200  142.2520 C   0  0  0  0  0  0  0  0  0  0  0  0
  185.3470  178.0770  143.8970 C   0  0  0  0  0  0  0  0  0  0  0  0
  184.6710  178.1170  146.3690 C   0  0  0  0  0  1  0  0  0  0  0  0
  182.6810  179.5350  143.4140 C   0  0  0  0  0  3  0  0  0  0  0  0
  184.3460  178.4150  144.9450 C   0  0  0  0  0  0  0  0  0  0  0  0
  182.3070  179.4940  141.0130 C   0  0  0  0  0  1  0  0  0  0  0  0
  183.6020  177.6100  142.1720 C   0  0  0  0  0  2  0  0  0  0  0  0
  189.8270  177.8160  141.7880 N   0  0  0  0  0  0  0  0  0  0  0  0
  190.8110  176.9710  141.3600 C   0  0  0  0  0  3  0  0  0  0  0  0
  188.9940  178.0030  139.5450 C   0  0  0  0  0  0  0  0  0  0  0  0
  190.9140  176.6220  140.0130 C   0  0  0  0  0  3  0  0  0  0  0  0
  188.0060  179.1090  141.3020 O   0  0  0  0  0  0  0  0  0  0  0  0
  188.9180  178.3340  140.9030 C   0  0  0  0  0  0  0  0  0  0  0  0
  188.1020  178.5090  138.6580 F   0  0  0  0  0  0  0  0  0  0  0  0
  189.9980  177.1440  139.1030 C   0  0  0  0  0  3  0  0  0  0  0  0
  1 21  1  6  0  0  0
  1 10  1  0  0  0  0
  1 11  1  0  0  0  0
  3 15  1  1  0  0  0
  3  9  1  0  0  0  0
  4  8  1  0  0  0  0
  4  7  1  6  0  0  0
  5  3  1  0  0  0  0
  6  8  1  0  0  0  0
  8  2  1  6  0  0  0
  9  7  1  0  0  0  0
 10  6  1  0  0  0  0
 11  5  1  1  0  0  0
 11  4  1  0  0  0  0
 12 15  2  0  0  0  0
 13 18  2  0  0  0  0
 14 17  2  0  0  0  0
 15 18  1  0  0  0  0
 17 13  1  0  0  0  0
 18 16  1  0  0  0  0
 19 14  1  0  0  0  0
 20 14  1  0  0  0  0
 20 12  1  0  0  0  0
 22 21  1  0  0  0  0
 23 26  1  0  0  0  0
 24 22  2  0  0  0  0
 26 25  2  0  0  0  0
 26 21  1  0  0  0  0
 27 23  1  0  0  0  0
 28 23  2  0  0  0  0
 28 24  1  0  0  0  0
M  END
>  <MODEL>
1

>  <REMARK>
 VINA RESULT:      -9.2      0.000      0.000
  Name = 
  2 active torsions:
  status: ('A' for Active; 'I' for Inactive)
    1  A    between atoms: C_1  and  N_2
    2  A    between atoms: C_10  and  C_13
                            x       y       z     vdW  Elec       q    Type
                         _______ _______ _______ _____ _____    ______ ____

>  <TORSDO>
F 2

$$$$
=
 OpenBabel11052413263D

 28 31  0  0  1  0  0  0  0  0999 V2000
  188.3890  178.1500  144.5330 C   0  0  2  0  0  3  0  0  0  0  0  0
  187.7740  176.4830  148.4440 C   0  0  0  0  0  1  0  0  0  0  0  0
  185.3590  178.7840  144.1680 C   0  0  2  0  0  3  0  0  0  0  0  0
  186.7910  177.6640  146.4770 C   0  0  2  0  0  3  0  0  0  0  0  0
  186.0080  177.4020  144.0830 C   0  0  0  0  0  2  0  0  0  0  0  0
  189.3370  177.4890  146.7930 C   0  0  0  0  0  2  0  0  0  0  0  0
  186.1180  179.0370  146.5380 C   0  0  0  0  0  2  0  0  0  0  0  0
  187.9680  177.6210  147.4640 C   0  0  2  0  0  3  0  0  0  0  0  0
  184.9170  179.0910  145.5990 C   0  0  0  0  0  2  0  0  0  0  0  0
  189.4480  178.4450  145.6090 C   0  0  0  0  0  2  0  0  0  0  0  0
  187.2030  177.3020  145.0340 C   0  0  1  0  0  3  0  0  0  0  0  0
  183.0020  179.2010  143.6480 C   0  0  0  0  0  3  0  0  0  0  0  0
  183.7100  178.1250  140.8690 C   0  0  0  0  0  3  0  0  0  0  0  0
  181.4940  178.1620  142.0110 C   0  0  0  0  0  0  0  0  0  0  0  0
  184.2280  178.9170  143.1880 C   0  0  0  0  0  0  0  0  0  0  0  0
  185.8860  179.0930  141.2410 C   0  0  0  0  0  1  0  0  0  0  0  0
  182.3390  177.6430  141.1210 C   0  0  0  0  0  3  0  0  0  0  0  0
  184.5310  178.7280  141.7430 C   0  0  0  0  0  0  0  0  0  0  0  0
  180.1460  177.5550  142.1650 C   0  0  0  0  0  1  0  0  0  0  0  0
  181.8150  179.4050  142.7700 C   0  0  0  0  0  2  0  0  0  0  0  0
  188.9950  177.5610  143.3360 N   0  0  0  0  0  0  0  0  0  0  0  0
  189.5690  176.3240  143.4110 C   0  0  0  0  0  3  0  0  0  0  0  0
  189.5280  177.6820  141.0000 C   0  0  0  0  0  0  0  0  0  0  0  0
  190.1400  175.7340  142.2830 C   0  0  0  0  0  3  0  0  0  0  0  0
  188.4270  179.3850  142.0820 O   0  0  0  0  0  0  0  0  0  0  0  0
  188.9640  178.2460  142.1490 C   0  0  0  0  0  0  0  0  0  0  0  0
  189.5050  178.3480  139.8180 F   0  0  0  0  0  0  0  0  0  0  0  0
  190.1180  176.4210  141.0710 C   0  0  0  0  0  3  0  0  0  0  0  0
  1 21  1  6  0  0  0
  1 11  1  0  0  0  0
  1 10  1  0  0  0  0
  3 15  1  6  0  0  0
  3  9  1  0  0  0  0
  4  7  1  6  0  0  0
  4  8  1  0  0  0  0
  5  3  1  0  0  0  0
  6  8  1  0  0  0  0
  8  2  1  1  0  0  0
  9  7  1  0  0  0  0
 10  6  1  0  0  0  0
 11  5  1  6  0  0  0
 11  4  1  0  0  0  0
 13 17  1  0  0  0  0
 13 18  2  0  0  0  0
 14 19  1  0  0  0  0
 14 20  1  0  0  0  0
 15 12  2  0  0  0  0
 16 18  1  0  0  0  0
 17 14  2  0  0  0  0
 18 15  1  0  0  0  0
 20 12  1  0  0  0  0
 21 22  1  0  0  0  0
 23 28  2  0  0  0  0
 23 26  1  0  0  0  0
 24 22  2  0  0  0  0
 25 26  2  0  0  0  0
 26 21  1  0  0  0  0
 27 23  1  0  0  0  0
 28 24  1  0  0  0  0
M  END
>  <MODEL>
2

>  <REMARK>
 VINA RESULT:      -9.1      1.530      2.640
  Name = 
  2 active torsions:
  status: ('A' for Active; 'I' for Inactive)
    1  A    between atoms: C_1  and  N_2
    2  A    between atoms: C_10  and  C_13
                            x       y       z     vdW  Elec       q    Type
                         _______ _______ _______ _____ _____    ______ ____

>  <TORSDO>
F 2

$$$$
=
 OpenBabel11052413263D

 28 31  0  0  1  0  0  0  0  0999 V2000
  189.7980  177.0170  137.7170 C   0  0  2  0  0  3  0  0  0  0  0  0
  193.1500  174.3770  137.2180 C   0  0  0  0  0  1  0  0  0  0  0  0
  190.5190  177.6070  140.6920 C   0  0  2  0  0  3  0  0  0  0  0  0
  191.9330  175.9870  138.6890 C   0  0  2  0  0  3  0  0  0  0  0  0
  189.8940  176.3190  140.1520 C   0  0  0  0  0  2  0  0  0  0  0  0
  191.4270  175.8340  136.1720 C   0  0  0  0  0  2  0  0  0  0  0  0
  192.5410  177.2710  139.2570 C   0  0  0  0  0  2  0  0  0  0  0  0
  192.4830  175.7360  137.2760 C   0  0  2  0  0  3  0  0  0  0  0  0
  192.0440  177.5170  140.6780 C   0  0  0  0  0  2  0  0  0  0  0  0
  190.5510  177.0660  136.3760 C   0  0  0  0  0  2  0  0  0  0  0  0
  190.3910  176.0240  138.7360 C   0  0  1  0  0  3  0  0  0  0  0  0
  190.8500  178.1700  143.0520 C   0  0  0  0  0  3  0  0  0  0  0  0
  187.8530  177.5990  143.3240 C   0  0  0  0  0  3  0  0  0  0  0  0
  189.6300  177.4830  145.0700 C   0  0  0  0  0  0  0  0  0  0  0  0
  189.9840  177.9430  142.0550 C   0  0  0  0  0  0  0  0  0  0  0  0
  187.6690  178.4290  141.0680 C   0  0  0  0  0  1  0  0  0  0  0  0
  188.4450  177.1140  144.5860 C   0  0  0  0  0  3  0  0  0  0  0  0
  188.5080  178.0130  142.2280 C   0  0  0  0  0  0  0  0  0  0  0  0
  190.1020  176.8930  146.3490 C   0  0  0  0  0  1  0  0  0  0  0  0
  190.4410  178.5590  144.4310 C   0  0  0  0  0  2  0  0  0  0  0  0
  188.3660  176.7800  137.5150 N   0  0  0  0  0  0  0  0  0  0  0  0
  187.9240  175.5150  137.2460 C   0  0  0  0  0  3  0  0  0  0  0  0
  186.1110  177.5980  137.4400 C   0  0  0  0  0  0  0  0  0  0  0  0
  186.5650  175.2590  137.0640 C   0  0  0  0  0  3  0  0  0  0  0  0
  187.8910  178.9870  137.8710 O   0  0  0  0  0  0  0  0  0  0  0  0
  187.4810  177.8210  137.6170 C   0  0  0  0  0  0  0  0  0  0  0  0
  185.2240  178.6190  137.5370 F   0  0  0  0  0  0  0  0  0  0  0  0
  185.6550  176.3100  137.1620 C   0  0  0  0  0  3  0  0  0  0  0  0
  1 10  1  6  0  0  0
  1 11  1  0  0  0  0
  3 15  1  1  0  0  0
  4 11  1  0  0  0  0
  4  7  1  6  0  0  0
  5  3  1  0  0  0  0
  6 10  1  0  0  0  0
  6  8  1  0  0  0  0
  7  9  1  0  0  0  0
  8  2  1  1  0  0  0
  8  4  1  0  0  0  0
  9  3  1  0  0  0  0
 11  5  1  1  0  0  0
 12 20  1  0  0  0  0
 13 17  1  0  0  0  0
 14 19  1  0  0  0  0
 15 18  1  0  0  0  0
 15 12  2  0  0  0  0
 16 18  1  0  0  0  0
 17 14  2  0  0  0  0
 18 13  2  0  0  0  0
 20 14  1  0  0  0  0
 21 26  1  0  0  0  0
 21  1  1  0  0  0  0
 22 21  1  0  0  0  0
 23 27  1  0  0  0  0
 23 26  1  0  0  0  0
 24 28  1  0  0  0  0
 24 22  2  0  0  0  0
 26 25  2  0  0  0  0
 28 23  2  0  0  0  0
M  END
>  <MODEL>
3

>  <REMARK>
 VINA RESULT:      -9.0      2.986      6.349
  Name = 
  2 active torsions:
  status: ('A' for Active; 'I' for Inactive)
    1  A    between atoms: C_1  and  N_2
    2  A    between atoms: C_10  and  C_13
                            x       y       z     vdW  Elec       q    Type
                         _______ _______ _______ _____ _____    ______ ____

>  <TORSDO>
F 2

$$$$
=
 OpenBabel11052413263D

 28 31  0  0  1  0  0  0  0  0999 V2000
  188.5320  178.3150  139.8550 C   0  0  2  0  0  3  0  0  0  0  0  0
  191.5960  175.7930  138.2110 C   0  0  0  0  0  1  0  0  0  0  0  0
  189.2470  177.5220  142.7830 C   0  0  2  0  0  3  0  0  0  0  0  0
  190.5250  176.7540  140.2510 C   0  0  2  0  0  3  0  0  0  0  0  0
  188.5010  176.6530  141.7690 C   0  0  0  0  0  2  0  0  0  0  0  0
  190.0600  177.7260  137.9160 C   0  0  0  0  0  2  0  0  0  0  0  0
  191.2520  177.6090  141.2910 C   0  0  0  0  0  2  0  0  0  0  0  0
  191.0760  177.0640  138.8500 C   0  0  2  0  0  3  0  0  0  0  0  0
  190.7540  177.2870  142.6960 C   0  0  0  0  0  2  0  0  0  0  0  0
  189.3150  178.8430  138.6400 C   0  0  0  0  0  2  0  0  0  0  0  0
  188.9940  176.9300  140.3480 C   0  0  1  0  0  3  0  0  0  0  0  0
  187.3970  177.2430  144.3640 C   0  0  0  0  0  3  0  0  0  0  0  0
  189.5340  177.6750  146.5160 C   0  0  0  0  0  3  0  0  0  0  0  0
  187.0770  178.0800  146.6500 C   0  0  0  0  0  0  0  0  0  0  0  0
  188.7220  177.3100  144.1750 C   0  0  0  0  0  0  0  0  0  0  0  0
  191.0460  176.5920  144.9830 C   0  0  0  0  0  1  0  0  0  0  0  0
  188.3240  178.3290  147.0500 C   0  0  0  0  0  3  0  0  0  0  0  0
  189.7090  177.1790  145.2810 C   0  0  0  0  0  0  0  0  0  0  0  0
  185.9560  178.8340  147.2720 C   0  0  0  0  0  1  0  0  0  0  0  0
  186.7610  176.9870  145.6870 C   0  0  0  0  0  2  0  0  0  0  0  0
  187.0880  178.3370  139.6080 N   0  0  0  0  0  0  0  0  0  0  0  0
  186.6010  177.8680  138.4210 C   0  0  0  0  0  3  0  0  0  0  0  0
  184.8560  178.8160  140.3490 C   0  0  0  0  0  0  0  0  0  0  0  0
  185.2290  177.8640  138.1660 C   0  0  0  0  0  3  0  0  0  0  0  0
  186.6900  179.2340  141.6720 O   0  0  0  0  0  0  0  0  0  0  0  0
  186.2380  178.8070  140.5740 C   0  0  0  0  0  0  0  0  0  0  0  0
  184.0030  179.2800  141.2960 F   0  0  0  0  0  0  0  0  0  0  0  0
  184.3540  178.3420  139.1390 C   0  0  0  0  0  3  0  0  0  0  0  0
  1 10  1  6  0  0  0
  1 11  1  0  0  0  0
  3 15  1  1  0  0  0
  4 11  1  0  0  0  0
  4  7  1  1  0  0  0
  5  3  1  0  0  0  0
  6 10  1  0  0  0  0
  6  8  1  0  0  0  0
  7  9  1  0  0  0  0
  8  2  1  6  0  0  0
  8  4  1  0  0  0  0
  9  3  1  0  0  0  0
 11  5  1  1  0  0  0
 12 20  1  0  0  0  0
 13 17  1  0  0  0  0
 14 17  2  0  0  0  0
 14 19  1  0  0  0  0
 15 12  2  0  0  0  0
 15 18  1  0  0  0  0
 16 18  1  0  0  0  0
 18 13  2  0  0  0  0
 20 14  1  0  0  0  0
 21  1  1  0  0  0  0
 21 26  1  0  0  0  0
 22 21  1  0  0  0  0
 23 26  1  0  0  0  0
 23 27  1  0  0  0  0
 24 22  2  0  0  0  0
 24 28  1  0  0  0  0
 26 25  2  0  0  0  0
 28 23  2  0  0  0  0
M  END
>  <MODEL>
4

>  <REMARK>
 VINA RESULT:      -8.8      2.145      5.306
  Name = 
  2 active torsions:
  status: ('A' for Active; 'I' for Inactive)
    1  A    between atoms: C_1  and  N_2
    2  A    between atoms: C_10  and  C_13
                            x       y       z     vdW  Elec       q    Type
                         _______ _______ _______ _____ _____    ______ ____

>  <TORSDO>
F 2

$$$$
=
 OpenBabel11052413263D

 28 31  0  0  1  0  0  0  0  0999 V2000
  189.4410  177.2770  137.8430 C   0  0  2  0  0  3  0  0  0  0  0  0
  192.6270  174.4660  137.2120 C   0  0  0  0  0  1  0  0  0  0  0  0
  190.1980  177.6830  140.8400 C   0  0  2  0  0  3  0  0  0  0  0  0
  191.5100  176.0750  138.7600 C   0  0  2  0  0  3  0  0  0  0  0  0
  189.4950  176.4620  140.2440 C   0  0  0  0  0  2  0  0  0  0  0  0
  190.9950  176.0710  136.2400 C   0  0  0  0  0  2  0  0  0  0  0  0
  192.1950  177.2930  139.3850 C   0  0  0  0  0  2  0  0  0  0  0  0
  192.0440  175.8580  137.3350 C   0  0  2  0  0  3  0  0  0  0  0  0
  191.7150  177.5030  140.8180 C   0  0  0  0  0  2  0  0  0  0  0  0
  190.1950  177.3430  136.5040 C   0  0  0  0  0  2  0  0  0  0  0  0
  189.9730  176.2040  138.8130 C   0  0  1  0  0  3  0  0  0  0  0  0
  190.5650  178.1300  143.2200 C   0  0  0  0  0  3  0  0  0  0  0  0
  187.5440  177.6950  143.4840 C   0  0  0  0  0  3  0  0  0  0  0  0
  189.3190  177.4190  145.2140 C   0  0  0  0  0  0  0  0  0  0  0  0
  189.6850  177.9880  142.2190 C   0  0  0  0  0  0  0  0  0  0  0  0
  187.3930  178.6270  141.2670 C   0  0  0  0  0  1  0  0  0  0  0  0
  188.1160  177.1290  144.7210 C   0  0  0  0  0  3  0  0  0  0  0  0
  188.2140  178.1220  142.4030 C   0  0  0  0  0  0  0  0  0  0  0  0
  189.7670  176.7530  146.4650 C   0  0  0  0  0  1  0  0  0  0  0  0
  190.1800  178.4800  144.6160 C   0  0  0  0  0  2  0  0  0  0  0  0
  187.9970  177.1370  137.6350 N   0  0  0  0  0  0  0  0  0  0  0  0
  187.1840  178.2220  137.8040 C   0  0  0  0  0  3  0  0  0  0  0  0
  186.1010  175.7920  137.0420 C   0  0  0  0  0  0  0  0  0  0  0  0
  185.8080  178.1200  137.5980 C   0  0  0  0  0  3  0  0  0  0  0  0
  188.2310  174.9280  137.0960 O   0  0  0  0  0  0  0  0  0  0  0  0
  187.4770  175.9270  137.2560 C   0  0  0  0  0  0  0  0  0  0  0  0
  185.5720  174.6000  136.6670 F   0  0  0  0  0  0  0  0  0  0  0  0
  185.2660  176.8950  137.2150 C   0  0  0  0  0  3  0  0  0  0  0  0
  1 10  1  6  0  0  0
  1 11  1  0  0  0  0
  3 15  1  1  0  0  0
  4 11  1  0  0  0  0
  4  7  1  6  0  0  0
  5  3  1  0  0  0  0
  6 10  1  0  0  0  0
  6  8  1  0  0  0  0
  7  9  1  0  0  0  0
  8  2  1  1  0  0  0
  8  4  1  0  0  0  0
  9  3  1  0  0  0  0
 11  5  1  1  0  0  0
 12 20  1  0  0  0  0
 13 17  1  0  0  0  0
 14 19  1  0  0  0  0
 15 18  1  0  0  0  0
 15 12  2  0  0  0  0
 16 18  1  0  0  0  0
 17 14  2  0  0  0  0
 18 13  2  0  0  0  0
 20 14  1  0  0  0  0
 21 22  1  0  0  0  0
 21  1  1  0  0  0  0
 23 28  2  0  0  0  0
 23 26  1  0  0  0  0
 24 22  2  0  0  0  0
 25 26  2  0  0  0  0
 26 21  1  0  0  0  0
 27 23  1  0  0  0  0
 28 24  1  0  0  0  0
M  END
>  <MODEL>
5

>  <REMARK>
 VINA RESULT:      -8.2      3.064      6.354
  Name = 
  2 active torsions:
  status: ('A' for Active; 'I' for Inactive)
    1  A    between atoms: C_1  and  N_2
    2  A    between atoms: C_10  and  C_13
                            x       y       z     vdW  Elec       q    Type
                         _______ _______ _______ _____ _____    ______ ____

>  <TORSDO>
F 2

$$$$
=
 OpenBabel11052413263D

 28 31  0  0  1  0  0  0  0  0999 V2000
  190.5560  175.8960  135.9900 C   0  0  2  0  0  3  0  0  0  0  0  0
  193.8140  173.1020  135.7990 C   0  0  0  0  0  1  0  0  0  0  0  0
  191.3560  176.8560  138.8460 C   0  0  2  0  0  3  0  0  0  0  0  0
  192.6780  174.9340  137.0580 C   0  0  2  0  0  3  0  0  0  0  0  0
  190.6800  175.5290  138.4960 C   0  0  0  0  0  2  0  0  0  0  0  0
  192.1160  174.4620  134.5940 C   0  0  0  0  0  2  0  0  0  0  0  0
  193.3370  176.2620  137.4380 C   0  0  0  0  0  2  0  0  0  0  0  0
  193.1910  174.4780  135.6830 C   0  0  2  0  0  3  0  0  0  0  0  0
  192.8780  176.7140  138.8210 C   0  0  0  0  0  2  0  0  0  0  0  0
  191.2840  175.7390  134.6440 C   0  0  0  0  0  2  0  0  0  0  0  0
  191.1390  175.0300  137.1240 C   0  0  1  0  0  3  0  0  0  0  0  0
  191.6910  177.3970  141.2110 C   0  0  0  0  0  3  0  0  0  0  0  0
  188.6480  177.7360  141.2800 C   0  0  0  0  0  3  0  0  0  0  0  0
  190.2000  177.1810  143.1510 C   0  0  0  0  0  0  0  0  0  0  0  0
  190.8610  177.3900  140.1600 C   0  0  0  0  0  0  0  0  0  0  0  0
  188.8560  178.4880  138.9990 C   0  0  0  0  0  1  0  0  0  0  0  0
  188.9910  177.1520  142.5910 C   0  0  0  0  0  3  0  0  0  0  0  0
  189.4620  177.8940  140.2250 C   0  0  0  0  0  0  0  0  0  0  0  0
  190.3980  176.5320  144.4740 C   0  0  0  0  0  1  0  0  0  0  0  0
  191.3300  177.9460  142.5490 C   0  0  0  0  0  2  0  0  0  0  0  0
  189.1140  175.6820  135.8450 N   0  0  0  0  0  0  0  0  0  0  0  0
  188.6140  174.4120  135.8890 C   0  0  0  0  0  3  0  0  0  0  0  0
  186.8980  176.5590  135.5630 C   0  0  0  0  0  0  0  0  0  0  0  0
  187.2430  174.1810  135.7690 C   0  0  0  0  0  3  0  0  0  0  0  0
  188.7420  177.9290  135.6530 O   0  0  0  0  0  0  0  0  0  0  0  0
  188.2780  176.7560  135.6870 C   0  0  0  0  0  0  0  0  0  0  0  0
  186.0590  177.6120  135.4050 F   0  0  0  0  0  0  0  0  0  0  0  0
  186.3830  175.2650  135.6040 C   0  0  0  0  0  3  0  0  0  0  0  0
  1 10  1  6  0  0  0
  1 11  1  0  0  0  0
  3 15  1  1  0  0  0
  4 11  1  0  0  0  0
  4  7  1  6  0  0  0
  5  3  1  0  0  0  0
  6 10  1  0  0  0  0
  6  8  1  0  0  0  0
  7  9  1  0  0  0  0
  8  2  1  1  0  0  0
  8  4  1  0  0  0  0
  9  3  1  0  0  0  0
 11  5  1  1  0  0  0
 12 20  1  0  0  0  0
 13 17  1  0  0  0  0
 14 19  1  0  0  0  0
 15 18  1  0  0  0  0
 15 12  2  0  0  0  0
 16 18  1  0  0  0  0
 17 14  2  0  0  0  0
 18 13  2  0  0  0  0
 20 14  1  0  0  0  0
 21 22  1  0  0  0  0
 21  1  1  0  0  0  0
 23 28  2  0  0  0  0
 23 26  1  0  0  0  0
 24 22  2  0  0  0  0
 25 26  2  0  0  0  0
 26 21  1  0  0  0  0
 27 23  1  0  0  0  0
 28 24  1  0  0  0  0
M  END
>  <MODEL>
6

>  <REMARK>
 VINA RESULT:      -8.0      3.937      7.771
  Name = 
  2 active torsions:
  status: ('A' for Active; 'I' for Inactive)
    1  A    between atoms: C_1  and  N_2
    2  A    between atoms: C_10  and  C_13
                            x       y       z     vdW  Elec       q    Type
                         _______ _______ _______ _____ _____    ______ ____

>  <TORSDO>
F 2

$$$$
=
 OpenBabel11052413263D

 28 31  0  0  1  0  0  0  0  0999 V2000
  188.1870  177.0360  145.4470 C   0  0  2  0  0  3  0  0  0  0  0  0
  191.6720  177.5710  147.9020 C   0  0  0  0  0  1  0  0  0  0  0  0
  189.8580  177.0610  142.8160 C   0  0  2  0  0  3  0  0  0  0  0  0
  190.7390  177.1990  145.6160 C   0  0  2  0  0  3  0  0  0  0  0  0
  189.5150  178.2770  143.6790 C   0  0  0  0  0  2  0  0  0  0  0  0
  189.3020  176.8390  147.7180 C   0  0  0  0  0  2  0  0  0  0  0  0
  191.0810  176.0030  144.7250 C   0  0  0  0  0  2  0  0  0  0  0  0
  190.6940  176.7520  147.0860 C   0  0  2  0  0  3  0  0  0  0  0  0
  191.1770  176.4320  143.2640 C   0  0  0  0  0  2  0  0  0  0  0  0
  188.2490  176.2640  146.7770 C   0  0  0  0  0  2  0  0  0  0  0  0
  189.4370  177.8900  145.1570 C   0  0  1  0  0  3  0  0  0  0  0  0
  188.7310  177.8290  140.7820 C   0  0  0  0  0  3  0  0  0  0  0  0
  191.2600  176.8670  139.3480 C   0  0  0  0  0  3  0  0  0  0  0  0
  188.9520  177.1220  138.4400 C   0  0  0  0  0  0  0  0  0  0  0  0
  189.8680  177.4150  141.3560 C   0  0  0  0  0  0  0  0  0  0  0  0
  192.4300  177.5030  141.3560 C   0  0  0  0  0  1  0  0  0  0  0  0
  190.1590  176.5570  138.4150 C   0  0  0  0  0  3  0  0  0  0  0  0
  191.1540  177.2900  140.6160 C   0  0  0  0  0  0  0  0  0  0  0  0
  187.9350  176.6930  137.4440 C   0  0  0  0  0  1  0  0  0  0  0  0
  188.6290  178.2530  139.3570 C   0  0  0  0  0  2  0  0  0  0  0  0
  186.9630  177.8350  145.3510 N   0  0  0  0  0  0  0  0  0  0  0  0
  186.5790  178.6090  146.4100 C   0  0  0  0  0  3  0  0  0  0  0  0
  185.0630  178.5890  144.0940 C   0  0  0  0  0  0  0  0  0  0  0  0
  185.4260  179.3910  146.3390 C   0  0  0  0  0  3  0  0  0  0  0  0
  186.5850  177.1060  143.2190 O   0  0  0  0  0  0  0  0  0  0  0  0
  186.2250  177.8160  144.1970 C   0  0  0  0  0  0  0  0  0  0  0  0
  184.3220  178.5800  142.9580 F   0  0  0  0  0  0  0  0  0  0  0  0
  184.6650  179.3780  145.1720 C   0  0  0  0  0  3  0  0  0  0  0  0
  1 21  1  1  0  0  0
  1 10  1  0  0  0  0
  3 15  1  6  0  0  0
  3  9  1  0  0  0  0
  3  5  1  0  0  0  0
  4  7  1  6  0  0  0
  4  8  1  0  0  0  0
  8  6  1  0  0  0  0
  8  2  1  1  0  0  0
  9  7  1  0  0  0  0
 10  6  1  0  0  0  0
 11  5  1  6  0  0  0
 11  1  1  0  0  0  0
 11  4  1  0  0  0  0
 12 15  2  0  0  0  0
 13 18  2  0  0  0  0
 14 20  1  0  0  0  0
 17 14  2  0  0  0  0
 17 13  1  0  0  0  0
 18 15  1  0  0  0  0
 18 16  1  0  0  0  0
 19 14  1  0  0  0  0
 20 12  1  0  0  0  0
 21 22  1  0  0  0  0
 23 26  1  0  0  0  0
 23 28  2  0  0  0  0
 24 22  2  0  0  0  0
 25 26  2  0  0  0  0
 26 21  1  0  0  0  0
 27 23  1  0  0  0  0
 28 24  1  0  0  0  0
M  END
>  <MODEL>
7

>  <REMARK>
 VINA RESULT:      -8.0      2.149      5.835
  Name = 
  2 active torsions:
  status: ('A' for Active; 'I' for Inactive)
    1  A    between atoms: C_1  and  N_2
    2  A    between atoms: C_10  and  C_13
                            x       y       z     vdW  Elec       q    Type
                         _______ _______ _______ _____ _____    ______ ____

>  <TORSDO>
F 2

$$$$
=
 OpenBabel11052413263D

 28 31  0  0  1  0  0  0  0  0999 V2000
  183.0850  179.2070  138.7960 C   0  0  2  0  0  3  0  0  0  0  0  0
  178.9310  180.0020  138.0440 C   0  0  0  0  0  1  0  0  0  0  0  0
  183.1270  176.7860  136.8330 C   0  0  2  0  0  3  0  0  0  0  0  0
  180.9610  178.6680  137.4680 C   0  0  2  0  0  3  0  0  0  0  0  0
  182.5000  176.8060  138.2290 C   0  0  0  0  0  2  0  0  0  0  0  0
  181.1330  180.8280  138.8530 C   0  0  0  0  0  2  0  0  0  0  0  0
  181.5970  178.6140  136.0770 C   0  0  0  0  0  2  0  0  0  0  0  0
  180.4110  180.0790  137.7300 C   0  0  2  0  0  3  0  0  0  0  0  0
  182.1110  177.2110  135.7740 C   0  0  0  0  0  2  0  0  0  0  0  0
  182.6440  180.6790  138.7120 C   0  0  0  0  0  2  0  0  0  0  0  0
  181.9480  178.1950  138.5570 C   0  0  1  0  0  3  0  0  0  0  0  0
  182.9880  174.5230  135.9060 C   0  0  0  0  0  3  0  0  0  0  0  0
  185.6200  174.0480  137.4010 C   0  0  0  0  0  3  0  0  0  0  0  0
  183.8960  172.3850  136.7050 C   0  0  0  0  0  0  0  0  0  0  0  0
  183.7350  175.4460  136.5280 C   0  0  0  0  0  0  0  0  0  0  0  0
  186.0850  176.3720  136.9630 C   0  0  0  0  0  1  0  0  0  0  0  0
  184.8920  172.7680  137.5040 C   0  0  0  0  0  3  0  0  0  0  0  0
  185.1480  175.2130  136.9320 C   0  0  0  0  0  0  0  0  0  0  0  0
  183.2450  171.0700  136.9440 C   0  0  0  0  0  1  0  0  0  0  0  0
  183.4960  173.1800  135.5080 C   0  0  0  0  0  2  0  0  0  0  0  0
  183.7860  178.9320  140.0530 N   0  0  0  0  0  0  0  0  0  0  0  0
  183.0640  178.7320  141.1960 C   0  0  0  0  0  3  0  0  0  0  0  0
  185.8270  178.5830  141.2650 C   0  0  0  0  0  0  0  0  0  0  0  0
  183.7060  178.4540  142.4030 C   0  0  0  0  0  3  0  0  0  0  0  0
  185.8170  179.0390  139.0120 O   0  0  0  0  0  0  0  0  0  0  0  0
  185.1540  178.8600  140.0700 C   0  0  0  0  0  0  0  0  0  0  0  0
  187.1810  178.5080  141.2960 F   0  0  0  0  0  0  0  0  0  0  0  0
  185.0960  178.3800  142.4340 C   0  0  0  0  0  3  0  0  0  0  0  0
  1 10  1  1  0  0  0
  1 21  1  0  0  0  0
  3 15  1  6  0  0  0
  3  5  1  0  0  0  0
  4  7  1  6  0  0  0
  4  8  1  0  0  0  0
  4 11  1  0  0  0  0
  8  2  1  1  0  0  0
  8  6  1  0  0  0  0
  9  7  1  0  0  0  0
  9  3  1  0  0  0  0
 10  6  1  0  0  0  0
 11  5  1  6  0  0  0
 11  1  1  0  0  0  0
 12 15  2  0  0  0  0
 13 17  1  0  0  0  0
 14 19  1  0  0  0  0
 14 17  2  0  0  0  0
 15 18  1  0  0  0  0
 18 16  1  0  0  0  0
 18 13  2  0  0  0  0
 20 12  1  0  0  0  0
 20 14  1  0  0  0  0
 21 26  1  0  0  0  0
 21 22  1  0  0  0  0
 22 24  2  0  0  0  0
 23 27  1  0  0  0  0
 23 28  2  0  0  0  0
 24 28  1  0  0  0  0
 25 26  2  0  0  0  0
 26 23  1  0  0  0  0
M  END
>  <MODEL>
8

>  <REMARK>
 VINA RESULT:      -7.8      4.827      9.063
  Name = 
  2 active torsions:
  status: ('A' for Active; 'I' for Inactive)
    1  A    between atoms: C_1  and  N_2
    2  A    between atoms: C_10  and  C_13
                            x       y       z     vdW  Elec       q    Type
                         _______ _______ _______ _____ _____    ______ ____

>  <TORSDO>
F 2

$$$$
=
 OpenBabel11052413263D

 28 31  0  0  1  0  0  0  0  0999 V2000
  188.5100  178.4260  140.6120 C   0  0  2  0  0  3  0  0  0  0  0  0
  191.0240  175.8440  138.2740 C   0  0  0  0  0  1  0  0  0  0  0  0
  189.6870  177.3760  143.3020 C   0  0  2  0  0  3  0  0  0  0  0  0
  190.4190  176.7180  140.5330 C   0  0  2  0  0  3  0  0  0  0  0  0
  188.7050  176.6330  142.3950 C   0  0  0  0  0  2  0  0  0  0  0  0
  189.6100  177.8860  138.3900 C   0  0  0  0  0  2  0  0  0  0  0  0
  191.3860  177.4470  141.4680 C   0  0  0  0  0  2  0  0  0  0  0  0
  190.7260  177.0940  139.0750 C   0  0  2  0  0  3  0  0  0  0  0  0
  191.1310  177.0540  142.9190 C   0  0  0  0  0  2  0  0  0  0  0  0
  189.0960  178.9910  139.3070 C   0  0  0  0  0  2  0  0  0  0  0  0
  188.9500  176.9820  140.9260 C   0  0  1  0  0  3  0  0  0  0  0  0
  188.1570  177.2230  145.2080 C   0  0  0  0  0  3  0  0  0  0  0  0
  190.7110  177.0560  146.8910 C   0  0  0  0  0  3  0  0  0  0  0  0
  188.4430  177.8370  147.5690 C   0  0  0  0  0  0  0  0  0  0  0  0
  189.4100  177.0950  144.7520 C   0  0  0  0  0  0  0  0  0  0  0  0
  191.6770  175.9230  144.9950 C   0  0  0  0  0  1  0  0  0  0  0  0
  189.7670  177.8330  147.7170 C   0  0  0  0  0  3  0  0  0  0  0  0
  190.5520  176.6820  145.6120 C   0  0  0  0  0  0  0  0  0  0  0  0
  187.6190  178.6870  148.4690 C   0  0  0  0  0  1  0  0  0  0  0  0
  187.7530  176.9250  146.6120 C   0  0  0  0  0  2  0  0  0  0  0  0
  187.0510  178.5550  140.6430 N   0  0  0  0  0  0  0  0  0  0  0  0
  186.4220  178.8080  141.8280 C   0  0  0  0  0  3  0  0  0  0  0  0
  184.9400  178.5800  139.5020 C   0  0  0  0  0  0  0  0  0  0  0  0
  185.0350  178.9510  141.8830 C   0  0  0  0  0  3  0  0  0  0  0  0
  186.9160  178.2150  138.3870 O   0  0  0  0  0  0  0  0  0  0  0  0
  186.3320  178.4420  139.4810 C   0  0  0  0  0  0  0  0  0  0  0  0
  184.2150  178.4700  138.3610 F   0  0  0  0  0  0  0  0  0  0  0  0
  184.2920  178.8350  140.7100 C   0  0  0  0  0  3  0  0  0  0  0  0
  1 10  1  6  0  0  0
  1 21  1  0  0  0  0
  1 11  1  0  0  0  0
  3 15  1  1  0  0  0
  4 11  1  0  0  0  0
  4  7  1  1  0  0  0
  5  3  1  0  0  0  0
  6  8  1  0  0  0  0
  6 10  1  0  0  0  0
  7  9  1  0  0  0  0
  8  2  1  6  0  0  0
  8  4  1  0  0  0  0
  9  3  1  0  0  0  0
 11  5  1  1  0  0  0
 12 20  1  0  0  0  0
 13 17  1  0  0  0  0
 14 17  2  0  0  0  0
 14 19  1  0  0  0  0
 15 12  2  0  0  0  0
 15 18  1  0  0  0  0
 16 18  1  0  0  0  0
 18 13  2  0  0  0  0
 20 14  1  0  0  0  0
 21 22  1  0  0  0  0
 22 24  2  0  0  0  0
 23 28  2  0  0  0  0
 25 26  2  0  0  0  0
 26 23  1  0  0  0  0
 26 21  1  0  0  0  0
 27 23  1  0  0  0  0
 28 24  1  0  0  0  0
M  END
>  <MODEL>
9

>  <REMARK>
 VINA RESULT:      -7.8      2.063      5.722
  Name = 
  2 active torsions:
  status: ('A' for Active; 'I' for Inactive)
    1  A    between atoms: C_1  and  N_2
    2  A    between atoms: C_10  and  C_13
                            x       y       z     vdW  Elec       q    Type
                         _______ _______ _______ _____ _____    ______ ____

>  <TORSDO>
F 2

$$$$
