=
 OpenBabel11052413363D

 28 29  0  0  1  0  0  0  0  0999 V2000
  190.8830  176.1860  142.8800 O   0  0  0  0  0  0  0  0  0  0  0  0
  188.0840  176.0530  142.3140 O   0  0  0  0  0  1  0  0  0  0  0  0
  188.5800  177.2800  144.3200 C   0  0  1  0  0  3  0  0  0  0  0  0
  190.6950  178.2870  145.2470 C   0  0  0  0  0  3  0  0  0  0  0  0
  188.7080  177.2120  142.7860 C   0  0  1  0  0  3  0  0  0  0  0  0
  189.3930  178.3830  144.9350 C   0  0  0  0  0  3  0  0  0  0  0  0
  191.5830  177.0860  145.0380 C   0  0  2  0  0  3  0  0  0  0  0  0
  191.9450  176.7680  143.5840 C   0  0  0  0  0  2  0  0  0  0  0  0
  190.1720  177.2540  142.3130 C   0  0  2  0  0  3  0  0  0  0  0  0
  190.0610  176.0180  140.2630 O   0  0  0  0  0  1  0  0  0  0  0  0
  190.3280  177.2910  140.7690 C   0  0  2  0  0  0  0  0  0  0  0  0
  191.7690  177.6350  140.3570 C   0  0  0  0  0  2  0  0  0  0  0  0
  192.3070  176.8040  139.1980 C   0  0  0  0  0  1  0  0  0  0  0  0
  189.3310  178.2620  140.1060 C   0  0  0  0  0  2  0  0  0  0  0  0
  189.0490  177.9860  138.6330 C   0  0  0  0  0  2  0  0  0  0  0  0
  187.5650  177.7760  138.4050 C   0  0  0  0  0  1  0  0  0  0  0  0
  191.9630  176.0840  147.3510 C   0  0  0  0  0  1  0  0  0  0  0  0
  191.3560  175.8950  145.9720 C   0  0  0  0  0  2  0  0  0  0  0  0
  187.1300  177.3850  144.8180 C   0  0  1  0  0  3  0  0  0  0  0  0
  186.9450  177.1370  146.3220 C   0  0  0  0  0  2  0  0  0  0  0  0
  186.6180  178.4060  147.0980 C   0  0  0  0  0  2  0  0  0  0  0  0
  187.6170  178.6130  148.2210 C   0  0  0  0  0  2  0  0  0  0  0  0
  188.5720  177.4360  148.3010 C   0  0  0  0  0  1  0  0  0  0  0  0
  186.4180  178.6340  144.3000 C   0  0  0  0  0  2  0  0  0  0  0  0
  185.0200  178.3060  143.7990 C   0  0  0  0  0  2  0  0  0  0  0  0
  184.0440  179.4050  144.1740 C   0  0  2  0  0  3  0  0  0  0  0  0
  183.5040  179.1200  145.4400 O   0  0  0  0  0  0  0  0  0  0  0  0
  182.6870  178.8430  144.3300 C   0  0  0  0  0  2  0  0  0  0  0  0
  1  8  1  0  0  0  0
  3 19  1  6  0  0  0
  3  6  1  0  0  0  0
  5  2  1  1  0  0  0
  5  3  1  0  0  0  0
  6  4  2  0  0  0  0
  7  4  1  0  0  0  0
  7 18  1  6  0  0  0
  8  7  1  0  0  0  0
  9 11  1  6  0  0  0
  9  5  1  0  0  0  0
  9  1  1  0  0  0  0
 11 10  1  6  0  0  0
 12 11  1  0  0  0  0
 13 12  1  0  0  0  0
 14 11  1  0  0  0  0
 15 14  1  0  0  0  0
 16 15  1  0  0  0  0
 18 17  1  0  0  0  0
 19 24  1  1  0  0  0
 19 20  1  0  0  0  0
 20 21  1  0  0  0  0
 21 22  1  0  0  0  0
 22 23  1  0  0  0  0
 25 24  1  0  0  0  0
 26 25  1  6  0  0  0
 26 28  1  0  0  0  0
 26 27  1  0  0  0  0
 28 27  1  0  0  0  0
M  END
>  <MODEL>
1

>  <REMARK>
 VINA RESULT:      -6.4      0.000      0.000
  Name = 
  12 active torsions:
  status: ('A' for Active; 'I' for Inactive)
    1  A    between atoms: C_3  and  C_7
    2  A    between atoms: C_3  and  C_11
    3  A    between atoms: C_3  and  C_27
    4  A    between atoms: C_4  and  C_12
    5  A    between atoms: C_4  and  C_24
    6  A    between atoms: C_6  and  C_11
    7  A    between atoms: C_9  and  C_13
    8  A    between atoms: C_9  and  C_18
    9  A    between atoms: C_10  and  C_13
   10  A    between atoms: C_13  and  C_24
   11  A    between atoms: C_14  and  C_18
   12  A    between atoms: C_19  and  C_21
                            x       y       z     vdW  Elec       q    Type
                         _______ _______ _______ _____ _____    ______ ____

>  <TORSDO>
F 12

$$$$
=
 OpenBabel11052413363D

 28 29  0  0  1  0  0  0  0  0999 V2000
  187.7290  178.9170  141.5980 O   0  0  0  0  0  0  0  0  0  0  0  0
  190.1190  178.9020  143.1660 O   0  0  0  0  0  1  0  0  0  0  0  0
  188.2330  177.9580  144.3180 C   0  0  1  0  0  3  0  0  0  0  0  0
  185.9780  177.1350  143.5520 C   0  0  0  0  0  3  0  0  0  0  0  0
  189.2210  177.8300  143.1430 C   0  0  1  0  0  3  0  0  0  0  0  0
  187.1060  176.9660  144.2590 C   0  0  0  0  0  3  0  0  0  0  0  0
  185.6280  178.3220  142.6900 C   0  0  2  0  0  3  0  0  0  0  0  0
  186.4220  178.4590  141.3870 C   0  0  0  0  0  2  0  0  0  0  0  0
  188.5100  177.7660  141.7790 C   0  0  2  0  0  3  0  0  0  0  0  0
  189.1200  176.3400  139.9520 O   0  0  0  0  0  1  0  0  0  0  0  0
  189.4730  177.5330  140.5850 C   0  0  2  0  0  0  0  0  0  0  0  0
  190.9280  177.3670  141.0570 C   0  0  0  0  0  2  0  0  0  0  0  0
  191.9570  177.3520  139.9340 C   0  0  0  0  0  1  0  0  0  0  0  0
  189.3740  178.6530  139.5300 C   0  0  0  0  0  2  0  0  0  0  0  0
  188.6560  178.2620  138.2430 C   0  0  0  0  0  2  0  0  0  0  0  0
  189.0230  179.2110  137.1200 C   0  0  0  0  0  1  0  0  0  0  0  0
  183.8650  179.6140  144.0010 C   0  0  0  0  0  1  0  0  0  0  0  0
  185.2670  179.6180  143.4200 C   0  0  0  0  0  2  0  0  0  0  0  0
  188.8990  177.8810  145.7010 C   0  0  1  0  0  3  0  0  0  0  0  0
  188.0160  177.2920  146.8110 C   0  0  0  0  0  2  0  0  0  0  0  0
  187.5020  178.3470  147.7830 C   0  0  0  0  0  2  0  0  0  0  0  0
  186.3370  179.1050  147.1730 C   0  0  0  0  0  2  0  0  0  0  0  0
  185.1310  178.1940  147.0340 C   0  0  0  0  0  1  0  0  0  0  0  0
  190.3070  177.2890  145.6440 C   0  0  0  0  0  2  0  0  0  0  0  0
  190.7830  176.8580  147.0220 C   0  0  0  0  0  2  0  0  0  0  0  0
  192.0190  175.9840  146.9150 C   0  0  2  0  0  3  0  0  0  0  0  0
  191.8660  174.8760  147.7660 O   0  0  0  0  0  0  0  0  0  0  0  0
  192.7000  175.9120  148.2230 C   0  0  0  0  0  2  0  0  0  0  0  0
  1  9  1  0  0  0  0
  3 19  1  1  0  0  0
  4  6  2  0  0  0  0
  5  2  1  6  0  0  0
  5  3  1  0  0  0  0
  6  3  1  0  0  0  0
  7 18  1  1  0  0  0
  7  4  1  0  0  0  0
  8  1  1  0  0  0  0
  8  7  1  0  0  0  0
  9 11  1  6  0  0  0
  9  5  1  0  0  0  0
 11 10  1  6  0  0  0
 11 12  1  0  0  0  0
 13 12  1  0  0  0  0
 14 11  1  0  0  0  0
 15 14  1  0  0  0  0
 16 15  1  0  0  0  0
 18 17  1  0  0  0  0
 19 24  1  6  0  0  0
 19 20  1  0  0  0  0
 20 21  1  0  0  0  0
 22 21  1  0  0  0  0
 23 22  1  0  0  0  0
 24 25  1  0  0  0  0
 26 25  1  1  0  0  0
 26 27  1  0  0  0  0
 26 28  1  0  0  0  0
 27 28  1  0  0  0  0
M  END
>  <MODEL>
2

>  <REMARK>
 VINA RESULT:      -6.3      1.698      4.991
  Name = 
  12 active torsions:
  status: ('A' for Active; 'I' for Inactive)
    1  A    between atoms: C_3  and  C_7
    2  A    between atoms: C_3  and  C_11
    3  A    between atoms: C_3  and  C_27
    4  A    between atoms: C_4  and  C_12
    5  A    between atoms: C_4  and  C_24
    6  A    between atoms: C_6  and  C_11
    7  A    between atoms: C_9  and  C_13
    8  A    between atoms: C_9  and  C_18
    9  A    between atoms: C_10  and  C_13
   10  A    between atoms: C_13  and  C_24
   11  A    between atoms: C_14  and  C_18
   12  A    between atoms: C_19  and  C_21
                            x       y       z     vdW  Elec       q    Type
                         _______ _______ _______ _____ _____    ______ ____

>  <TORSDO>
F 12

$$$$
=
 OpenBabel11052413363D

 28 29  0  0  1  0  0  0  0  0999 V2000
  190.8990  177.6660  145.0330 O   0  0  0  0  0  0  0  0  0  0  0  0
  188.2400  178.5860  145.5350 O   0  0  0  0  0  1  0  0  0  0  0  0
  188.4130  177.2540  143.5430 C   0  0  1  0  0  3  0  0  0  0  0  0
  190.1770  175.6850  142.6640 C   0  0  0  0  0  3  0  0  0  0  0  0
  188.5220  177.2950  145.0790 C   0  0  1  0  0  3  0  0  0  0  0  0
  188.8950  175.9620  142.9470 C   0  0  0  0  0  3  0  0  0  0  0  0
  191.3630  176.5890  142.8920 C   0  0  2  0  0  3  0  0  0  0  0  0
  191.7690  176.8030  144.3540 C   0  0  0  0  0  2  0  0  0  0  0  0
  189.9040  176.8460  145.5850 C   0  0  2  0  0  3  0  0  0  0  0  0
  190.6880  177.9120  147.5830 O   0  0  0  0  0  1  0  0  0  0  0  0
  190.0100  176.7780  147.1320 C   0  0  2  0  0  0  0  0  0  0  0  0
  190.8350  175.5630  147.5870 C   0  0  0  0  0  2  0  0  0  0  0  0
  192.3190  175.8460  147.7820 C   0  0  0  0  0  1  0  0  0  0  0  0
  188.6270  176.7760  147.8110 C   0  0  0  0  0  2  0  0  0  0  0  0
  188.3930  177.9150  148.7980 C   0  0  0  0  0  2  0  0  0  0  0  0
  187.1720  178.7210  148.4020 C   0  0  0  0  0  1  0  0  0  0  0  0
  192.1080  177.4350  140.6060 C   0  0  0  0  0  1  0  0  0  0  0  0
  191.5020  177.7880  141.9520 C   0  0  0  0  0  2  0  0  0  0  0  0
  187.0030  177.5580  143.0110 C   0  0  1  0  0  3  0  0  0  0  0  0
  185.9330  177.7530  144.0960 C   0  0  0  0  0  2  0  0  0  0  0  0
  184.6420  178.3530  143.5550 C   0  0  0  0  0  2  0  0  0  0  0  0
  183.8600  179.0210  144.6720 C   0  0  0  0  0  2  0  0  0  0  0  0
  184.4480  178.6510  146.0210 C   0  0  0  0  0  1  0  0  0  0  0  0
  187.0020  178.6410  141.9320 C   0  0  0  0  0  2  0  0  0  0  0  0
  188.2640  178.5810  141.0870 C   0  0  0  0  0  2  0  0  0  0  0  0
  187.9350  178.1930  139.6570 C   0  0  2  0  0  3  0  0  0  0  0  0
  188.8280  177.1890  139.2420 O   0  0  0  0  0  0  0  0  0  0  0  0
  189.0830  178.4910  138.7770 C   0  0  0  0  0  2  0  0  0  0  0  0
  1  9  1  0  0  0  0
  3 19  1  1  0  0  0
  3  5  1  0  0  0  0
  4  7  1  0  0  0  0
  4  6  2  0  0  0  0
  5  2  1  6  0  0  0
  5  9  1  0  0  0  0
  6  3  1  0  0  0  0
  7 18  1  1  0  0  0
  7  8  1  0  0  0  0
  8  1  1  0  0  0  0
  9 11  1  1  0  0  0
 11 10  1  1  0  0  0
 11 12  1  0  0  0  0
 11 14  1  0  0  0  0
 12 13  1  0  0  0  0
 14 15  1  0  0  0  0
 16 15  1  0  0  0  0
 17 18  1  0  0  0  0
 19 24  1  1  0  0  0
 19 20  1  0  0  0  0
 21 20  1  0  0  0  0
 21 22  1  0  0  0  0
 22 23  1  0  0  0  0
 25 24  1  0  0  0  0
 26 25  1  1  0  0  0
 27 26  1  0  0  0  0
 28 27  1  0  0  0  0
 28 26  1  0  0  0  0
M  END
>  <MODEL>
3

>  <REMARK>
 VINA RESULT:      -6.3      1.803      5.714
  Name = 
  12 active torsions:
  status: ('A' for Active; 'I' for Inactive)
    1  A    between atoms: C_3  and  C_7
    2  A    between atoms: C_3  and  C_11
    3  A    between atoms: C_3  and  C_27
    4  A    between atoms: C_4  and  C_12
    5  A    between atoms: C_4  and  C_24
    6  A    between atoms: C_6  and  C_11
    7  A    between atoms: C_9  and  C_13
    8  A    between atoms: C_9  and  C_18
    9  A    between atoms: C_10  and  C_13
   10  A    between atoms: C_13  and  C_24
   11  A    between atoms: C_14  and  C_18
   12  A    between atoms: C_19  and  C_21
                            x       y       z     vdW  Elec       q    Type
                         _______ _______ _______ _____ _____    ______ ____

>  <TORSDO>
F 12

$$$$
=
 OpenBabel11052413363D

 28 29  0  0  1  0  0  0  0  0999 V2000
  185.6490  179.0880  142.7330 O   0  0  0  0  0  0  0  0  0  0  0  0
  187.9100  179.6390  141.0730 O   0  0  0  0  0  1  0  0  0  0  0  0
  188.3580  177.9780  142.7510 C   0  0  1  0  0  3  0  0  0  0  0  0
  186.8770  176.5780  144.2310 C   0  0  0  0  0  3  0  0  0  0  0  0
  187.5660  178.3470  141.4820 C   0  0  1  0  0  3  0  0  0  0  0  0
  187.9080  176.6900  143.3800 C   0  0  0  0  0  3  0  0  0  0  0  0
  185.9790  177.6920  144.7080 C   0  0  2  0  0  3  0  0  0  0  0  0
  185.0100  178.2620  143.6670 C   0  0  0  0  0  2  0  0  0  0  0  0
  186.0450  178.2440  141.6850 C   0  0  2  0  0  3  0  0  0  0  0  0
  184.8480  179.8530  140.3730 O   0  0  0  0  0  1  0  0  0  0  0  0
  185.2240  178.5090  140.3950 C   0  0  2  0  0  0  0  0  0  0  0  0
  183.9230  177.6890  140.3760 C   0  0  0  0  0  2  0  0  0  0  0  0
  182.6760  178.4780  140.7560 C   0  0  0  0  0  1  0  0  0  0  0  0
  186.0450  178.2460  139.1170 C   0  0  0  0  0  2  0  0  0  0  0  0
  185.2190  177.9160  137.8780 C   0  0  0  0  0  2  0  0  0  0  0  0
  186.1180  177.4570  136.7470 C   0  0  0  0  0  1  0  0  0  0  0  0
  185.7530  178.8650  146.9590 C   0  0  0  0  0  1  0  0  0  0  0  0
  186.5860  178.6830  145.7040 C   0  0  0  0  0  2  0  0  0  0  0  0
  189.8800  177.9310  142.5420 C   0  0  1  0  0  3  0  0  0  0  0  0
  190.7130  178.1340  143.8160 C   0  0  0  0  0  2  0  0  0  0  0  0
  191.4520  176.8740  144.2490 C   0  0  0  0  0  2  0  0  0  0  0  0
  191.3420  176.6870  145.7520 C   0  0  0  0  0  2  0  0  0  0  0  0
  190.0540  177.3000  146.2670 C   0  0  0  0  0  1  0  0  0  0  0  0
  190.3210  176.7410  141.6910 C   0  0  0  0  0  2  0  0  0  0  0  0
  191.1650  177.1880  140.5080 C   0  0  0  0  0  2  0  0  0  0  0  0
  190.4210  176.9700  139.2040 C   0  0  2  0  0  3  0  0  0  0  0  0
  190.5480  175.6210  138.8290 O   0  0  0  0  0  0  0  0  0  0  0  0
  191.3640  176.5430  138.1510 C   0  0  0  0  0  2  0  0  0  0  0  0
  1  8  1  0  0  0  0
  3 19  1  6  0  0  0
  3  6  1  0  0  0  0
  4  7  1  0  0  0  0
  5  2  1  1  0  0  0
  5  9  1  0  0  0  0
  5  3  1  0  0  0  0
  6  4  2  0  0  0  0
  7 18  1  6  0  0  0
  8  7  1  0  0  0  0
  9 11  1  6  0  0  0
  9  1  1  0  0  0  0
 11 10  1  6  0  0  0
 12 11  1  0  0  0  0
 12 13  1  0  0  0  0
 14 11  1  0  0  0  0
 15 14  1  0  0  0  0
 16 15  1  0  0  0  0
 18 17  1  0  0  0  0
 19 24  1  1  0  0  0
 19 20  1  0  0  0  0
 20 21  1  0  0  0  0
 21 22  1  0  0  0  0
 22 23  1  0  0  0  0
 25 24  1  0  0  0  0
 26 25  1  1  0  0  0
 27 26  1  0  0  0  0
 28 27  1  0  0  0  0
 28 26  1  0  0  0  0
M  END
>  <MODEL>
4

>  <REMARK>
 VINA RESULT:      -6.2      2.206      5.951
  Name = 
  12 active torsions:
  status: ('A' for Active; 'I' for Inactive)
    1  A    between atoms: C_3  and  C_7
    2  A    between atoms: C_3  and  C_11
    3  A    between atoms: C_3  and  C_27
    4  A    between atoms: C_4  and  C_12
    5  A    between atoms: C_4  and  C_24
    6  A    between atoms: C_6  and  C_11
    7  A    between atoms: C_9  and  C_13
    8  A    between atoms: C_9  and  C_18
    9  A    between atoms: C_10  and  C_13
   10  A    between atoms: C_13  and  C_24
   11  A    between atoms: C_14  and  C_18
   12  A    between atoms: C_19  and  C_21
                            x       y       z     vdW  Elec       q    Type
                         _______ _______ _______ _____ _____    ______ ____

>  <TORSDO>
F 12

$$$$
=
 OpenBabel11052413363D

 28 29  0  0  1  0  0  0  0  0999 V2000
  190.0510  176.7300  141.7200 O   0  0  0  0  0  0  0  0  0  0  0  0
  187.2690  176.5120  142.3370 O   0  0  0  0  0  1  0  0  0  0  0  0
  188.5470  177.5160  144.1060 C   0  0  1  0  0  3  0  0  0  0  0  0
  190.8550  178.5200  144.2110 C   0  0  0  0  0  3  0  0  0  0  0  0
  188.0300  177.6390  142.6600 C   0  0  1  0  0  3  0  0  0  0  0  0
  189.5410  178.5810  144.4750 C   0  0  0  0  0  3  0  0  0  0  0  0
  191.5790  177.4040  143.5010 C   0  0  2  0  0  3  0  0  0  0  0  0
  191.3090  177.2820  141.9980 C   0  0  0  0  0  2  0  0  0  0  0  0
  189.1680  177.8180  141.6400 C   0  0  2  0  0  3  0  0  0  0  0  0
  189.3090  179.1780  139.6720 O   0  0  0  0  0  1  0  0  0  0  0  0
  188.6730  178.0470  140.1870 C   0  0  2  0  0  0  0  0  0  0  0  0
  187.1630  178.3360  140.1450 C   0  0  0  0  0  2  0  0  0  0  0  0
  186.5270  178.1630  138.7720 C   0  0  0  0  0  1  0  0  0  0  0  0
  189.0220  176.8670  139.2590 C   0  0  0  0  0  2  0  0  0  0  0  0
  190.0740  177.1730  138.1980 C   0  0  0  0  0  2  0  0  0  0  0  0
  191.3160  176.3340  138.4230 C   0  0  0  0  0  1  0  0  0  0  0  0
  191.8350  176.2980  145.7830 C   0  0  0  0  0  1  0  0  0  0  0  0
  191.7590  176.0990  144.2800 C   0  0  0  0  0  2  0  0  0  0  0  0
  187.4320  177.4800  145.1640 C   0  0  1  0  0  3  0  0  0  0  0  0
  187.9020  177.1400  146.5860 C   0  0  0  0  0  2  0  0  0  0  0  0
  187.3050  178.0590  147.6440 C   0  0  0  0  0  2  0  0  0  0  0  0
  188.3060  178.3030  148.7590 C   0  0  0  0  0  2  0  0  0  0  0  0
  189.7110  177.9840  148.2840 C   0  0  0  0  0  1  0  0  0  0  0  0
  186.5080  178.6950  145.0860 C   0  0  0  0  0  2  0  0  0  0  0  0
  185.0990  178.2920  144.6800 C   0  0  0  0  0  2  0  0  0  0  0  0
  184.5360  179.2640  143.6590 C   0  0  2  0  0  3  0  0  0  0  0  0
  183.2140  178.8900  143.3580 O   0  0  0  0  0  0  0  0  0  0  0  0
  184.1980  178.5460  142.4130 C   0  0  0  0  0  2  0  0  0  0  0  0
  1  8  1  0  0  0  0
  3  6  1  0  0  0  0
  3 19  1  1  0  0  0
  4  6  2  0  0  0  0
  5  2  1  6  0  0  0
  5  3  1  0  0  0  0
  7  4  1  0  0  0  0
  7 18  1  1  0  0  0
  8  7  1  0  0  0  0
  9 11  1  6  0  0  0
  9  1  1  0  0  0  0
  9  5  1  0  0  0  0
 11 10  1  6  0  0  0
 12 11  1  0  0  0  0
 13 12  1  0  0  0  0
 14 11  1  0  0  0  0
 15 16  1  0  0  0  0
 15 14  1  0  0  0  0
 18 17  1  0  0  0  0
 19 24  1  1  0  0  0
 19 20  1  0  0  0  0
 20 21  1  0  0  0  0
 21 22  1  0  0  0  0
 23 22  1  0  0  0  0
 25 24  1  0  0  0  0
 26 25  1  1  0  0  0
 27 26  1  0  0  0  0
 28 27  1  0  0  0  0
 28 26  1  0  0  0  0
M  END
>  <MODEL>
5

>  <REMARK>
 VINA RESULT:      -6.2      1.276      2.138
  Name = 
  12 active torsions:
  status: ('A' for Active; 'I' for Inactive)
    1  A    between atoms: C_3  and  C_7
    2  A    between atoms: C_3  and  C_11
    3  A    between atoms: C_3  and  C_27
    4  A    between atoms: C_4  and  C_12
    5  A    between atoms: C_4  and  C_24
    6  A    between atoms: C_6  and  C_11
    7  A    between atoms: C_9  and  C_13
    8  A    between atoms: C_9  and  C_18
    9  A    between atoms: C_10  and  C_13
   10  A    between atoms: C_13  and  C_24
   11  A    between atoms: C_14  and  C_18
   12  A    between atoms: C_19  and  C_21
                            x       y       z     vdW  Elec       q    Type
                         _______ _______ _______ _____ _____    ______ ____

>  <TORSDO>
F 12

$$$$
=
 OpenBabel11052413363D

 28 29  0  0  1  0  0  0  0  0999 V2000
  190.6170  177.8860  145.1200 O   0  0  0  0  0  0  0  0  0  0  0  0
  187.9210  178.7980  145.3870 O   0  0  0  0  0  1  0  0  0  0  0  0
  188.2470  177.3750  143.4780 C   0  0  1  0  0  3  0  0  0  0  0  0
  190.0810  175.7860  142.8040 C   0  0  0  0  0  3  0  0  0  0  0  0
  188.2450  177.4900  145.0150 C   0  0  1  0  0  3  0  0  0  0  0  0
  188.7800  176.0620  142.9810 C   0  0  0  0  0  3  0  0  0  0  0  0
  191.2410  176.7130  143.0720 C   0  0  2  0  0  3  0  0  0  0  0  0
  191.5400  177.0010  144.5460 C   0  0  0  0  0  2  0  0  0  0  0  0
  189.5910  177.0810  145.6390 C   0  0  2  0  0  3  0  0  0  0  0  0
  188.8870  175.9670  147.6410 O   0  0  0  0  0  1  0  0  0  0  0  0
  189.5870  177.0880  147.1900 C   0  0  2  0  0  0  0  0  0  0  0  0
  188.8500  178.3190  147.7470 C   0  0  0  0  0  2  0  0  0  0  0  0
  187.8860  178.0140  148.8860 C   0  0  0  0  0  1  0  0  0  0  0  0
  191.0090  177.0010  147.7770 C   0  0  0  0  0  2  0  0  0  0  0  0
  191.6800  175.6380  147.6370 C   0  0  0  0  0  2  0  0  0  0  0  0
  193.0840  175.6750  148.2070 C   0  0  0  0  0  1  0  0  0  0  0  0
  191.8650  177.4170  140.7030 C   0  0  0  0  0  1  0  0  0  0  0  0
  191.4360  177.8690  142.0870 C   0  0  0  0  0  2  0  0  0  0  0  0
  186.8760  177.6380  142.8350 C   0  0  1  0  0  3  0  0  0  0  0  0
  185.6950  177.6570  143.8160 C   0  0  0  0  0  2  0  0  0  0  0  0
  184.8590  178.9270  143.7150 C   0  0  0  0  0  2  0  0  0  0  0  0
  183.8910  179.0170  144.8810 C   0  0  0  0  0  2  0  0  0  0  0  0
  184.5660  178.5670  146.1630 C   0  0  0  0  0  1  0  0  0  0  0  0
  186.8980  178.8170  141.8630 C   0  0  0  0  0  2  0  0  0  0  0  0
  186.8990  178.3430  140.4180 C   0  0  0  0  0  2  0  0  0  0  0  0
  188.3180  178.1640  139.9120 C   0  0  2  0  0  3  0  0  0  0  0  0
  188.4750  178.9050  138.7280 O   0  0  0  0  0  0  0  0  0  0  0  0
  188.3020  177.5170  138.5840 C   0  0  0  0  0  2  0  0  0  0  0  0
  1  9  1  0  0  0  0
  3 19  1  1  0  0  0
  3  5  1  0  0  0  0
  4  6  2  0  0  0  0
  4  7  1  0  0  0  0
  5  2  1  6  0  0  0
  5  9  1  0  0  0  0
  6  3  1  0  0  0  0
  7 18  1  6  0  0  0
  7  8  1  0  0  0  0
  8  1  1  0  0  0  0
  9 11  1  1  0  0  0
 11 10  1  1  0  0  0
 11 12  1  0  0  0  0
 11 14  1  0  0  0  0
 12 13  1  0  0  0  0
 15 14  1  0  0  0  0
 15 16  1  0  0  0  0
 17 18  1  0  0  0  0
 19 24  1  1  0  0  0
 19 20  1  0  0  0  0
 21 20  1  0  0  0  0
 21 22  1  0  0  0  0
 22 23  1  0  0  0  0
 25 24  1  0  0  0  0
 26 25  1  6  0  0  0
 27 26  1  0  0  0  0
 28 27  1  0  0  0  0
 28 26  1  0  0  0  0
M  END
>  <MODEL>
6

>  <REMARK>
 VINA RESULT:      -6.1      1.958      5.880
  Name = 
  12 active torsions:
  status: ('A' for Active; 'I' for Inactive)
    1  A    between atoms: C_3  and  C_7
    2  A    between atoms: C_3  and  C_11
    3  A    between atoms: C_3  and  C_27
    4  A    between atoms: C_4  and  C_12
    5  A    between atoms: C_4  and  C_24
    6  A    between atoms: C_6  and  C_11
    7  A    between atoms: C_9  and  C_13
    8  A    between atoms: C_9  and  C_18
    9  A    between atoms: C_10  and  C_13
   10  A    between atoms: C_13  and  C_24
   11  A    between atoms: C_14  and  C_18
   12  A    between atoms: C_19  and  C_21
                            x       y       z     vdW  Elec       q    Type
                         _______ _______ _______ _____ _____    ______ ____

>  <TORSDO>
F 12

$$$$
=
 OpenBabel11052413363D

 28 29  0  0  1  0  0  0  0  0999 V2000
  190.8880  176.2550  142.4360 O   0  0  0  0  0  0  0  0  0  0  0  0
  188.0820  176.3880  141.9060 O   0  0  0  0  0  1  0  0  0  0  0  0
  188.7360  177.6630  143.8350 C   0  0  1  0  0  3  0  0  0  0  0  0
  190.9590  178.4900  144.6830 C   0  0  0  0  0  3  0  0  0  0  0  0
  188.8310  177.4980  142.3060 C   0  0  1  0  0  3  0  0  0  0  0  0
  189.6700  178.7060  144.3800 C   0  0  0  0  0  3  0  0  0  0  0  0
  191.7130  177.1930  144.5330 C   0  0  2  0  0  3  0  0  0  0  0  0
  192.0160  176.7590  143.0960 C   0  0  0  0  0  2  0  0  0  0  0  0
  190.2830  177.3600  141.8170 C   0  0  2  0  0  3  0  0  0  0  0  0
  190.1650  175.9870  139.8560 O   0  0  0  0  0  1  0  0  0  0  0  0
  190.4180  177.2950  140.2720 C   0  0  2  0  0  0  0  0  0  0  0  0
  191.8470  177.6330  139.8160 C   0  0  0  0  0  2  0  0  0  0  0  0
  192.4280  176.6630  138.7950 C   0  0  0  0  0  1  0  0  0  0  0  0
  189.3960  178.2040  139.5600 C   0  0  0  0  0  2  0  0  0  0  0  0
  188.9890  177.7420  138.1650 C   0  0  0  0  0  2  0  0  0  0  0  0
  189.0650  178.8930  137.1810 C   0  0  0  0  0  1  0  0  0  0  0  0
  191.9570  176.3240  146.9160 C   0  0  0  0  0  1  0  0  0  0  0  0
  191.3770  176.0850  145.5340 C   0  0  0  0  0  2  0  0  0  0  0  0
  187.3130  177.9480  144.3420 C   0  0  1  0  0  3  0  0  0  0  0  0
  186.2360  177.9950  143.2480 C   0  0  0  0  0  2  0  0  0  0  0  0
  185.3280  179.2120  143.3610 C   0  0  0  0  0  2  0  0  0  0  0  0
  183.8930  178.7810  143.6080 C   0  0  0  0  0  2  0  0  0  0  0  0
  183.5490  178.9140  145.0800 C   0  0  0  0  0  1  0  0  0  0  0  0
  186.9370  177.0930  145.5510 C   0  0  0  0  0  2  0  0  0  0  0  0
  187.0270  177.8910  146.8430 C   0  0  0  0  0  2  0  0  0  0  0  0
  188.0070  177.2460  147.8050 C   0  0  2  0  0  3  0  0  0  0  0  0
  187.9580  177.9330  149.0310 O   0  0  0  0  0  0  0  0  0  0  0  0
  189.0490  178.2200  148.1910 C   0  0  0  0  0  2  0  0  0  0  0  0
  1  8  1  0  0  0  0
  3 19  1  6  0  0  0
  3  6  1  0  0  0  0
  5  2  1  1  0  0  0
  5  3  1  0  0  0  0
  6  4  2  0  0  0  0
  7  4  1  0  0  0  0
  7 18  1  6  0  0  0
  8  7  1  0  0  0  0
  9 11  1  6  0  0  0
  9  5  1  0  0  0  0
  9  1  1  0  0  0  0
 11 10  1  6  0  0  0
 12 11  1  0  0  0  0
 13 12  1  0  0  0  0
 14 11  1  0  0  0  0
 15 14  1  0  0  0  0
 16 15  1  0  0  0  0
 18 17  1  0  0  0  0
 19 20  1  6  0  0  0
 19 24  1  0  0  0  0
 20 21  1  0  0  0  0
 21 22  1  0  0  0  0
 22 23  1  0  0  0  0
 24 25  1  0  0  0  0
 26 25  1  6  0  0  0
 26 28  1  0  0  0  0
 26 27  1  0  0  0  0
 28 27  1  0  0  0  0
M  END
>  <MODEL>
7

>  <REMARK>
 VINA RESULT:      -6.1      1.337      2.997
  Name = 
  12 active torsions:
  status: ('A' for Active; 'I' for Inactive)
    1  A    between atoms: C_3  and  C_7
    2  A    between atoms: C_3  and  C_11
    3  A    between atoms: C_3  and  C_27
    4  A    between atoms: C_4  and  C_12
    5  A    between atoms: C_4  and  C_24
    6  A    between atoms: C_6  and  C_11
    7  A    between atoms: C_9  and  C_13
    8  A    between atoms: C_9  and  C_18
    9  A    between atoms: C_10  and  C_13
   10  A    between atoms: C_13  and  C_24
   11  A    between atoms: C_14  and  C_18
   12  A    between atoms: C_19  and  C_21
                            x       y       z     vdW  Elec       q    Type
                         _______ _______ _______ _____ _____    ______ ____

>  <TORSDO>
F 12

$$$$
=
 OpenBabel11052413363D

 28 29  0  0  1  0  0  0  0  0999 V2000
  185.6840  177.5550  145.7400 O   0  0  0  0  0  0  0  0  0  0  0  0
  187.3680  176.5260  143.6710 O   0  0  0  0  0  1  0  0  0  0  0  0
  185.9950  178.3590  142.9420 C   0  0  1  0  0  3  0  0  0  0  0  0
  184.6660  180.1130  144.1670 C   0  0  0  0  0  3  0  0  0  0  0  0
  187.1440  177.8940  143.8560 C   0  0  1  0  0  3  0  0  0  0  0  0
  185.5470  179.7660  143.2170 C   0  0  0  0  0  3  0  0  0  0  0  0
  183.9710  179.1840  145.1320 C   0  0  2  0  0  3  0  0  0  0  0  0
  184.8540  178.5740  146.2250 C   0  0  0  0  0  2  0  0  0  0  0  0
  186.8720  178.1880  145.3420 C   0  0  2  0  0  3  0  0  0  0  0  0
  187.9150  176.4960  146.6800 O   0  0  0  0  0  1  0  0  0  0  0  0
  188.0560  177.8250  146.2770 C   0  0  2  0  0  0  0  0  0  0  0  0
  188.0440  178.6760  147.5580 C   0  0  0  0  0  2  0  0  0  0  0  0
  188.0930  177.8710  148.8500 C   0  0  0  0  0  1  0  0  0  0  0  0
  189.4170  177.9410  145.5650 C   0  0  0  0  0  2  0  0  0  0  0  0
  190.4750  176.9460  146.0310 C   0  0  0  0  0  2  0  0  0  0  0  0
  191.5110  176.7230  144.9470 C   0  0  0  0  0  1  0  0  0  0  0  0
  181.9160  179.0300  143.6320 C   0  0  0  0  0  1  0  0  0  0  0  0
  182.8710  178.2920  144.5520 C   0  0  0  0  0  2  0  0  0  0  0  0
  186.2960  178.2110  141.4420 C   0  0  1  0  0  3  0  0  0  0  0  0
  185.2140  178.7730  140.5080 C   0  0  0  0  0  2  0  0  0  0  0  0
  183.8700  178.0750  140.6680 C   0  0  0  0  0  2  0  0  0  0  0  0
  182.8120  178.7630  139.8240 C   0  0  0  0  0  2  0  0  0  0  0  0
  183.4360  179.8720  138.9980 C   0  0  0  0  0  1  0  0  0  0  0  0
  187.7170  178.6420  141.0820 C   0  0  0  0  0  2  0  0  0  0  0  0
  188.2670  177.8240  139.9230 C   0  0  0  0  0  2  0  0  0  0  0  0
  189.1820  178.6680  139.0560 C   0  0  2  0  0  3  0  0  0  0  0  0
  188.4580  179.1230  137.9410 O   0  0  0  0  0  0  0  0  0  0  0  0
  189.3330  178.0430  137.7260 C   0  0  0  0  0  2  0  0  0  0  0  0
  1  8  1  0  0  0  0
  3 19  1  6  0  0  0
  3  6  1  0  0  0  0
  3  5  1  0  0  0  0
  4  7  1  0  0  0  0
  5  2  1  1  0  0  0
  5  9  1  0  0  0  0
  6  4  2  0  0  0  0
  7 18  1  6  0  0  0
  7  8  1  0  0  0  0
  9  1  1  0  0  0  0
  9 11  1  1  0  0  0
 11 10  1  1  0  0  0
 11 12  1  0  0  0  0
 12 13  1  0  0  0  0
 14 15  1  0  0  0  0
 14 11  1  0  0  0  0
 16 15  1  0  0  0  0
 17 18  1  0  0  0  0
 19 20  1  6  0  0  0
 20 21  1  0  0  0  0
 22 21  1  0  0  0  0
 23 22  1  0  0  0  0
 24 19  1  0  0  0  0
 25 24  1  0  0  0  0
 26 25  1  1  0  0  0
 27 26  1  0  0  0  0
 28 27  1  0  0  0  0
 28 26  1  0  0  0  0
M  END
>  <MODEL>
8

>  <REMARK>
 VINA RESULT:      -6.0      2.271      7.178
  Name = 
  12 active torsions:
  status: ('A' for Active; 'I' for Inactive)
    1  A    between atoms: C_3  and  C_7
    2  A    between atoms: C_3  and  C_11
    3  A    between atoms: C_3  and  C_27
    4  A    between atoms: C_4  and  C_12
    5  A    between atoms: C_4  and  C_24
    6  A    between atoms: C_6  and  C_11
    7  A    between atoms: C_9  and  C_13
    8  A    between atoms: C_9  and  C_18
    9  A    between atoms: C_10  and  C_13
   10  A    between atoms: C_13  and  C_24
   11  A    between atoms: C_14  and  C_18
   12  A    between atoms: C_19  and  C_21
                            x       y       z     vdW  Elec       q    Type
                         _______ _______ _______ _____ _____    ______ ____

>  <TORSDO>
F 12

$$$$
=
 OpenBabel11052413363D

 28 29  0  0  1  0  0  0  0  0999 V2000
  191.4980  177.3770  144.7580 O   0  0  0  0  0  0  0  0  0  0  0  0
  189.2250  178.8630  145.6520 O   0  0  0  0  0  1  0  0  0  0  0  0
  188.8020  177.6160  143.6410 C   0  0  1  0  0  3  0  0  0  0  0  0
  190.0100  175.7230  142.5000 C   0  0  0  0  0  3  0  0  0  0  0  0
  189.1300  177.5630  145.1460 C   0  0  1  0  0  3  0  0  0  0  0  0
  188.8800  176.2750  142.9680 C   0  0  0  0  0  3  0  0  0  0  0  0
  191.3940  176.3170  142.5620 C   0  0  2  0  0  3  0  0  0  0  0  0
  192.0380  176.3670  143.9510 C   0  0  0  0  0  2  0  0  0  0  0  0
  190.4240  176.7850  145.4410 C   0  0  2  0  0  3  0  0  0  0  0  0
  191.4680  177.7290  147.3800 O   0  0  0  0  0  1  0  0  0  0  0  0
  190.7250  176.6270  146.9550 C   0  0  2  0  0  0  0  0  0  0  0  0
  191.5870  175.3830  147.2310 C   0  0  0  0  0  2  0  0  0  0  0  0
  192.7910  175.6380  148.1290 C   0  0  0  0  0  1  0  0  0  0  0  0
  189.4390  176.5910  147.8040 C   0  0  0  0  0  2  0  0  0  0  0  0
  189.1390  177.8750  148.5710 C   0  0  0  0  0  2  0  0  0  0  0  0
  187.6520  178.1690  148.5550 C   0  0  0  0  0  1  0  0  0  0  0  0
  191.4660  177.1620  140.1590 C   0  0  0  0  0  1  0  0  0  0  0  0
  191.6790  177.4930  141.6240 C   0  0  0  0  0  2  0  0  0  0  0  0
  187.4440  178.2610  143.3240 C   0  0  1  0  0  3  0  0  0  0  0  0
  187.0050  178.1520  141.8560 C   0  0  0  0  0  2  0  0  0  0  0  0
  187.9900  178.8010  140.8920 C   0  0  0  0  0  2  0  0  0  0  0  0
  188.2390  177.8950  139.7000 C   0  0  0  0  0  2  0  0  0  0  0  0
  187.2770  178.2270  138.5750 C   0  0  0  0  0  1  0  0  0  0  0  0
  186.3600  177.8750  144.3290 C   0  0  0  0  0  2  0  0  0  0  0  0
  184.9690  178.1370  143.7720 C   0  0  0  0  0  2  0  0  0  0  0  0
  184.3700  179.3880  144.3890 C   0  0  2  0  0  3  0  0  0  0  0  0
  183.5750  179.0160  145.4870 O   0  0  0  0  0  0  0  0  0  0  0  0
  182.8970  179.3380  144.2980 C   0  0  0  0  0  2  0  0  0  0  0  0
  1  9  1  0  0  0  0
  3 19  1  1  0  0  0
  3  5  1  0  0  0  0
  4  7  1  0  0  0  0
  4  6  2  0  0  0  0
  5  9  1  0  0  0  0
  5  2  1  6  0  0  0
  6  3  1  0  0  0  0
  7 18  1  1  0  0  0
  7  8  1  0  0  0  0
  8  1  1  0  0  0  0
  9 11  1  1  0  0  0
 11 12  1  0  0  0  0
 11 10  1  1  0  0  0
 11 14  1  0  0  0  0
 12 13  1  0  0  0  0
 14 15  1  0  0  0  0
 16 15  1  0  0  0  0
 17 18  1  0  0  0  0
 19 20  1  6  0  0  0
 19 24  1  0  0  0  0
 21 20  1  0  0  0  0
 22 21  1  0  0  0  0
 23 22  1  0  0  0  0
 25 24  1  0  0  0  0
 26 25  1  6  0  0  0
 26 27  1  0  0  0  0
 28 26  1  0  0  0  0
 28 27  1  0  0  0  0
M  END
>  <MODEL>
9

>  <REMARK>
 VINA RESULT:      -5.6      1.679      5.592
  Name = 
  12 active torsions:
  status: ('A' for Active; 'I' for Inactive)
    1  A    between atoms: C_3  and  C_7
    2  A    between atoms: C_3  and  C_11
    3  A    between atoms: C_3  and  C_27
    4  A    between atoms: C_4  and  C_12
    5  A    between atoms: C_4  and  C_24
    6  A    between atoms: C_6  and  C_11
    7  A    between atoms: C_9  and  C_13
    8  A    between atoms: C_9  and  C_18
    9  A    between atoms: C_10  and  C_13
   10  A    between atoms: C_13  and  C_24
   11  A    between atoms: C_14  and  C_18
   12  A    between atoms: C_19  and  C_21
                            x       y       z     vdW  Elec       q    Type
                         _______ _______ _______ _____ _____    ______ ____

>  <TORSDO>
F 12

$$$$
