=
 OpenBabel11052414483D

 55 60  0  0  1  0  0  0  0  0999 V2000
  189.4760  176.3180  138.8330 C   0  0  0  0  0  3  0  0  0  0  0  0
  184.8440  177.3220  138.5210 C   0  0  0  0  0  2  0  0  0  0  0  0
  183.9490  176.0170  135.2640 C   0  0  0  0  0  1  0  0  0  0  0  0
  187.7600  172.4500  135.8370 C   0  0  1  0  0  0  0  0  0  0  0  0
  187.5690  171.0160  135.5420 C   0  0  0  0  0  2  0  0  0  0  0  0
  186.0030  175.4890  136.4200 C   0  0  0  0  0  0  0  0  0  0  0  0
  187.2690  172.0160  134.5940 O   0  0  0  0  0  0  0  0  0  0  0  0
  190.5430  177.0080  140.9540 C   0  0  0  0  0  3  0  0  0  0  0  0
  186.6880  173.1840  136.6340 C   0  0  2  0  0  3  0  0  0  0  0  0
  188.2110  178.3330  141.7800 C   0  0  0  0  0  0  0  0  0  0  0  0
  188.3770  175.8580  138.2370 C   0  0  0  0  0  3  0  0  0  0  0  0
  188.2610  177.6890  140.5340 C   0  0  0  0  0  3  0  0  0  0  0  0
  189.4400  174.0300  136.8350 C   0  0  2  0  0  3  0  0  0  0  0  0
  184.9760  178.6240  139.2810 C   0  0  0  0  0  2  0  0  0  0  0  0
  189.1630  173.0310  135.7080 C   0  0  0  0  0  2  0  0  0  0  0  0
  184.9600  177.5980  137.0310 C   0  0  0  0  0  2  0  0  0  0  0  0
  185.0130  176.3230  136.2560 C   0  0  0  0  0  0  0  0  0  0  0  0
  190.4960  177.6340  142.2030 C   0  0  0  0  0  3  0  0  0  0  0  0
  185.2430  178.3470  140.7470 C   0  0  1  0  0  3  0  0  0  0  0  0
  189.4210  177.0190  140.1210 C   0  0  0  0  0  0  0  0  0  0  0  0
  186.9860  174.6530  136.6240 C   0  0  0  0  0  0  0  0  0  0  0  0
  188.3820  175.1650  136.9030 C   0  0  1  0  0  3  0  0  0  0  0  0
  186.0680  179.4960  141.3060 C   0  0  0  0  0  2  0  0  0  0  0  0
  187.0730  179.0300  142.2020 O   0  0  0  0  0  0  0  0  0  0  0  0
  189.3300  178.2870  142.6180 C   0  0  0  0  0  3  0  0  0  0  0  0
  191.1070  175.4890  135.6750 C   0  0  0  0  0  3  0  0  0  0  0  0
  193.4200  175.6200  136.4010 C   0  0  0  0  0  0  0  0  0  0  0  0
  191.8550  174.1750  137.5650 C   0  0  0  0  0  3  0  0  0  0  0  0
  193.1410  174.7000  137.4210 C   0  0  0  0  0  3  0  0  0  0  0  0
  192.3950  176.0120  135.5300 C   0  0  0  0  0  3  0  0  0  0  0  0
  190.8330  174.5650  136.6890 C   0  0  0  0  0  0  0  0  0  0  0  0
  194.7730  176.1810  136.2490 C   0  0  0  0  0  0  0  0  0  0  0  0
  194.9590  177.2260  135.5700 O   0  0  0  0  0  0  0  0  0  0  0  0
  195.8590  175.5610  136.8570 O   0  0  0  0  0  1  0  0  0  0  0  0
  186.6850  172.7220  137.9520 O   0  0  0  0  0  0  0  0  0  0  0  0
  185.4170  172.7440  138.3080 O   0  0  0  0  0  1  0  0  0  0  0  0
  183.9270  178.2270  141.4980 C   0  0  0  0  0  2  0  0  0  0  0  0
  182.8060  178.9180  140.7340 C   0  0  0  0  0  2  0  0  0  0  0  0
  182.1300  176.6820  140.3290 F   0  0  0  0  0  0  0  0  0  0  0  0
  181.6360  177.9700  140.4530 C   0  0  0  0  0  0  0  0  0  0  0  0
  180.7630  178.0100  141.5300 F   0  0  0  0  0  0  0  0  0  0  0  0
  180.9020  178.3670  139.1420 C   0  0  2  0  0  0  0  0  0  0  0  0
  179.8120  179.1560  139.4790 F   0  0  0  0  0  0  0  0  0  0  0  0
  180.0210  177.3630  136.9420 C   0  0  0  0  0  2  0  0  0  0  0  0
  179.3320  176.3960  139.0360 O   0  0  0  0  0  1  0  0  0  0  0  0
  180.3440  177.1260  138.4010 C   0  0  2  0  0  0  0  0  0  0  0  0
  181.1580  176.4140  137.3190 C   0  0  1  0  0  3  0  0  0  0  0  0
  180.7520  174.9810  137.1160 C   0  0  0  0  0  0  0  0  0  0  0  0
  181.2830  174.0950  137.7680 O   0  0  0  0  0  0  0  0  0  0  0  0
  179.7350  174.6270  136.0800 C   0  0  0  0  0  2  0  0  0  0  0  0
  180.3340  173.8820  135.0620 O   0  0  0  0  0  1  0  0  0  0  0  0
  181.7350  179.1760  138.2930 O   0  0  0  0  0  0  0  0  0  0  0  0
  181.4820  180.4860  137.8560 C   0  0  0  0  0  0  0  0  0  0  0  0
  180.8400  180.7160  136.7980 O   0  0  0  0  0  0  0  0  0  0  0  0
  181.9480  181.5520  138.6110 O   0  0  0  0  0  1  0  0  0  0  0  0
  1 20  1  0  0  0  0
  2 14  1  0  0  0  0
  3 17  1  0  0  0  0
  4  5  1  1  0  0  0
  4  9  1  0  0  0  0
  6 21  2  0  0  0  0
  7  5  1  0  0  0  0
  7  4  1  0  0  0  0
  8 18  1  0  0  0  0
  9 35  1  1  0  0  0
 10 24  1  0  0  0  0
 10 25  1  0  0  0  0
 11  1  2  0  0  0  0
 12 10  2  0  0  0  0
 13 31  1  6  0  0  0
 13 22  1  0  0  0  0
 14 19  1  0  0  0  0
 15  4  1  0  0  0  0
 15 13  1  0  0  0  0
 16  2  1  0  0  0  0
 17  6  2  0  0  0  0
 17 16  1  0  0  0  0
 18 25  2  0  0  0  0
 19 23  1  0  0  0  0
 19 37  1  1  0  0  0
 20 12  1  0  0  0  0
 20  8  2  0  0  0  0
 21  9  1  0  0  0  0
 21 22  1  0  0  0  0
 22 11  1  1  0  0  0
 23 24  1  0  0  0  0
 26 31  1  0  0  0  0
 27 29  2  0  0  0  0
 29 28  1  0  0  0  0
 30 26  2  0  0  0  0
 30 27  1  0  0  0  0
 31 28  2  0  0  0  0
 32 27  1  0  0  0  0
 32 34  1  0  0  0  0
 33 32  2  0  0  0  0
 35 36  1  0  0  0  0
 38 37  1  0  0  0  0
 39 40  1  0  0  0  0
 40 38  1  0  0  0  0
 40 41  1  0  0  0  0
 42 43  1  1  0  0  0
 42 40  1  0  0  0  0
 44 47  1  0  0  0  0
 44 46  1  0  0  0  0
 46 45  1  1  0  0  0
 46 42  1  0  0  0  0
 47 48  1  1  0  0  0
 47 46  1  0  0  0  0
 48 49  2  0  0  0  0
 50 48  1  0  0  0  0
 51 50  1  0  0  0  0
 52 42  1  0  0  0  0
 53 52  1  0  0  0  0
 53 55  1  0  0  0  0
 54 53  2  0  0  0  0
M  END
>  <MODEL>
1

>  <REMARK>
 VINA RESULT:      -5.9      0.000      0.000
  Name = 
  12 active torsions:
  status: ('A' for Active; 'I' for Inactive)
    1  A    between atoms: C_1  and  O_53
    2  A    between atoms: C_6  and  C_14
    3  A    between atoms: C_6  and  C_20
    4  A    between atoms: C_6  and  O_53
    5  A    between atoms: C_8  and  C_22
    6  A    between atoms: C_8  and  C_43
    7  A    between atoms: O_9  and  C_26
    8  A    between atoms: C_10  and  C_32
    9  A    between atoms: C_11  and  C_29
   10  A    between atoms: C_20  and  C_22
   11  A    between atoms: C_29  and  C_38
   12  A    between atoms: C_33  and  C_52
                            x       y       z     vdW  Elec       q    Type
                         _______ _______ _______ _____ _____    ______ ____

>  <TORSDO>
F 12

$$$$
=
 OpenBabel11052414483D

 55 60  0  0  1  0  0  0  0  0999 V2000
  189.5520  176.3170  138.7400 C   0  0  0  0  0  3  0  0  0  0  0  0
  184.9040  177.2350  138.4050 C   0  0  0  0  0  2  0  0  0  0  0  0
  184.0340  175.8450  135.1760 C   0  0  0  0  0  1  0  0  0  0  0  0
  187.9040  172.3570  135.8280 C   0  0  1  0  0  0  0  0  0  0  0  0
  187.7390  170.9140  135.5640 C   0  0  0  0  0  2  0  0  0  0  0  0
  186.0960  175.3770  136.3440 C   0  0  0  0  0  0  0  0  0  0  0  0
  187.4220  171.8880  134.5940 O   0  0  0  0  0  0  0  0  0  0  0  0
  190.6060  177.0710  140.8460 C   0  0  0  0  0  3  0  0  0  0  0  0
  186.8200  173.0900  136.6080 C   0  0  2  0  0  3  0  0  0  0  0  0
  188.2510  178.3730  141.6430 C   0  0  0  0  0  0  0  0  0  0  0  0
  188.4610  175.8250  138.1540 C   0  0  0  0  0  3  0  0  0  0  0  0
  188.3120  177.7030  140.4110 C   0  0  0  0  0  3  0  0  0  0  0  0
  189.5570  173.9870  136.7920 C   0  0  2  0  0  3  0  0  0  0  0  0
  185.0140  178.5550  139.1370 C   0  0  0  0  0  2  0  0  0  0  0  0
  189.2980  172.9580  135.6870 C   0  0  0  0  0  2  0  0  0  0  0  0
  185.0170  177.4810  136.9090 C   0  0  0  0  0  2  0  0  0  0  0  0
  185.0920  176.1910  136.1610 C   0  0  0  0  0  0  0  0  0  0  0  0
  190.5470  177.7220  142.0820 C   0  0  0  0  0  3  0  0  0  0  0  0
  185.2840  178.3140  140.6090 C   0  0  1  0  0  3  0  0  0  0  0  0
  189.4840  177.0440  140.0130 C   0  0  0  0  0  0  0  0  0  0  0  0
  187.0920  174.5620  136.5660 C   0  0  0  0  0  0  0  0  0  0  0  0
  188.4790  175.1040  136.8350 C   0  0  1  0  0  3  0  0  0  0  0  0
  186.0890  179.4890  141.1420 C   0  0  0  0  0  2  0  0  0  0  0  0
  187.1010  179.0590  142.0490 O   0  0  0  0  0  0  0  0  0  0  0  0
  189.3690  178.3640  142.4820 C   0  0  0  0  0  3  0  0  0  0  0  0
  191.1750  175.5310  135.6750 C   0  0  0  0  0  3  0  0  0  0  0  0
  193.5100  175.6350  136.3320 C   0  0  0  0  0  0  0  0  0  0  0  0
  191.9930  174.1050  137.4500 C   0  0  0  0  0  3  0  0  0  0  0  0
  193.2710  174.6490  137.2980 C   0  0  0  0  0  3  0  0  0  0  0  0
  192.4540  176.0730  135.5220 C   0  0  0  0  0  3  0  0  0  0  0  0
  190.9410  174.5420  136.6350 C   0  0  0  0  0  0  0  0  0  0  0  0
  194.8530  176.2160  136.1720 C   0  0  0  0  0  0  0  0  0  0  0  0
  195.0190  177.2630  135.4900 O   0  0  0  0  0  0  0  0  0  0  0  0
  195.9520  175.6140  136.7750 O   0  0  0  0  0  1  0  0  0  0  0  0
  186.8230  172.6560  137.9360 O   0  0  0  0  0  0  0  0  0  0  0  0
  185.5600  172.7060  138.3040 O   0  0  0  0  0  1  0  0  0  0  0  0
  183.9690  178.1880  141.3610 C   0  0  0  0  0  2  0  0  0  0  0  0
  182.8970  177.5710  140.4740 C   0  0  0  0  0  2  0  0  0  0  0  0
  180.6870  177.7210  141.3190 F   0  0  0  0  0  0  0  0  0  0  0  0
  181.5950  178.3770  140.5050 C   0  0  0  0  0  0  0  0  0  0  0  0
  181.8590  179.6260  141.0470 F   0  0  0  0  0  0  0  0  0  0  0  0
  180.9950  178.5180  139.0780 C   0  0  2  0  0  0  0  0  0  0  0  0
  182.0450  178.5930  138.1740 F   0  0  0  0  0  0  0  0  0  0  0  0
  180.1120  180.6690  140.1820 C   0  0  0  0  0  2  0  0  0  0  0  0
  178.9320  179.7420  138.3000 O   0  0  0  0  0  1  0  0  0  0  0  0
  180.1810  179.8280  138.9270 C   0  0  2  0  0  0  0  0  0  0  0  0
  180.8640  181.1960  138.9590 C   0  0  1  0  0  3  0  0  0  0  0  0
  180.0760  182.2720  138.2660 C   0  0  0  0  0  0  0  0  0  0  0  0
  179.2080  182.8820  138.8710 O   0  0  0  0  0  0  0  0  0  0  0  0
  180.3140  182.5660  136.8210 C   0  0  0  0  0  2  0  0  0  0  0  0
  179.5490  183.6660  136.4280 O   0  0  0  0  0  1  0  0  0  0  0  0
  180.2300  177.3580  138.7070 O   0  0  0  0  0  0  0  0  0  0  0  0
  180.4300  176.5300  137.5920 C   0  0  0  0  0  0  0  0  0  0  0  0
  181.0220  175.4240  137.6890 O   0  0  0  0  0  1  0  0  0  0  0  0
  179.9590  176.9400  136.3530 O   0  0  0  0  0  0  0  0  0  0  0  0
  1 20  1  0  0  0  0
  2 14  1  0  0  0  0
  3 17  1  0  0  0  0
  4  5  1  1  0  0  0
  4  9  1  0  0  0  0
  6 21  2  0  0  0  0
  7  5  1  0  0  0  0
  7  4  1  0  0  0  0
  8 18  1  0  0  0  0
  9 35  1  1  0  0  0
 10 24  1  0  0  0  0
 10 25  1  0  0  0  0
 11  1  2  0  0  0  0
 12 10  2  0  0  0  0
 13 31  1  6  0  0  0
 13 22  1  0  0  0  0
 14 19  1  0  0  0  0
 15  4  1  0  0  0  0
 15 13  1  0  0  0  0
 16  2  1  0  0  0  0
 17  6  2  0  0  0  0
 17 16  1  0  0  0  0
 18 25  2  0  0  0  0
 19 23  1  0  0  0  0
 19 37  1  1  0  0  0
 20 12  1  0  0  0  0
 20  8  2  0  0  0  0
 21  9  1  0  0  0  0
 21 22  1  0  0  0  0
 22 11  1  1  0  0  0
 23 24  1  0  0  0  0
 26 31  1  0  0  0  0
 27 29  2  0  0  0  0
 29 28  1  0  0  0  0
 30 26  2  0  0  0  0
 30 27  1  0  0  0  0
 31 28  2  0  0  0  0
 32 27  1  0  0  0  0
 32 34  1  0  0  0  0
 33 32  2  0  0  0  0
 35 36  1  0  0  0  0
 38 40  1  0  0  0  0
 38 37  1  0  0  0  0
 40 41  1  0  0  0  0
 40 39  1  0  0  0  0
 42 43  1  6  0  0  0
 42 40  1  0  0  0  0
 46 45  1  6  0  0  0
 46 47  1  0  0  0  0
 46 42  1  0  0  0  0
 46 44  1  0  0  0  0
 47 48  1  6  0  0  0
 47 44  1  0  0  0  0
 48 49  2  0  0  0  0
 50 48  1  0  0  0  0
 51 50  1  0  0  0  0
 52 42  1  0  0  0  0
 53 54  1  0  0  0  0
 53 52  1  0  0  0  0
 55 53  2  0  0  0  0
M  END
>  <MODEL>
2

>  <REMARK>
 VINA RESULT:      -4.6      1.182      2.912
  Name = 
  12 active torsions:
  status: ('A' for Active; 'I' for Inactive)
    1  A    between atoms: C_1  and  O_53
    2  A    between atoms: C_6  and  C_14
    3  A    between atoms: C_6  and  C_20
    4  A    between atoms: C_6  and  O_53
    5  A    between atoms: C_8  and  C_22
    6  A    between atoms: C_8  and  C_43
    7  A    between atoms: O_9  and  C_26
    8  A    between atoms: C_10  and  C_32
    9  A    between atoms: C_11  and  C_29
   10  A    between atoms: C_20  and  C_22
   11  A    between atoms: C_29  and  C_38
   12  A    between atoms: C_33  and  C_52
                            x       y       z     vdW  Elec       q    Type
                         _______ _______ _______ _____ _____    ______ ____

>  <TORSDO>
F 12

$$$$
=
 OpenBabel11052414483D

 55 60  0  0  1  0  0  0  0  0999 V2000
  190.2450  175.9120  138.4180 C   0  0  0  0  0  3  0  0  0  0  0  0
  185.7150  177.2840  138.0150 C   0  0  0  0  0  2  0  0  0  0  0  0
  184.6840  175.7670  134.8920 C   0  0  0  0  0  1  0  0  0  0  0  0
  188.1740  171.9490  135.7940 C   0  0  1  0  0  0  0  0  0  0  0  0
  187.8580  170.5160  135.6340 C   0  0  0  0  0  2  0  0  0  0  0  0
  186.6940  175.1700  136.0930 C   0  0  0  0  0  0  0  0  0  0  0  0
  187.6380  171.4470  134.5960 O   0  0  0  0  0  0  0  0  0  0  0  0
  191.3860  176.7000  140.4650 C   0  0  0  0  0  3  0  0  0  0  0  0
  187.1780  172.8440  136.5200 C   0  0  2  0  0  3  0  0  0  0  0  0
  189.1850  178.2940  141.1650 C   0  0  0  0  0  0  0  0  0  0  0  0
  189.1050  175.4970  137.8670 C   0  0  0  0  0  3  0  0  0  0  0  0
  189.1680  177.5360  139.9850 C   0  0  0  0  0  3  0  0  0  0  0  0
  189.9940  173.4620  136.6410 C   0  0  2  0  0  3  0  0  0  0  0  0
  185.9670  178.6340  138.6510 C   0  0  0  0  0  2  0  0  0  0  0  0
  189.6220  172.3900  135.6120 C   0  0  0  0  0  2  0  0  0  0  0  0
  185.8430  177.4100  136.5050 C   0  0  0  0  0  2  0  0  0  0  0  0
  185.7780  176.0690  135.8520 C   0  0  0  0  0  0  0  0  0  0  0  0
  191.4030  177.4400  141.6520 C   0  0  0  0  0  3  0  0  0  0  0  0
  186.2210  178.4720  140.1360 C   0  0  1  0  0  3  0  0  0  0  0  0
  190.2620  176.7320  139.6350 C   0  0  0  0  0  0  0  0  0  0  0  0
  187.6010  174.2740  136.3730 C   0  0  0  0  0  0  0  0  0  0  0  0
  189.0390  174.6860  136.6030 C   0  0  1  0  0  3  0  0  0  0  0  0
  187.1470  179.5910  140.5850 C   0  0  0  0  0  2  0  0  0  0  0  0
  188.1150  179.1240  141.5210 O   0  0  0  0  0  0  0  0  0  0  0  0
  190.3020  178.2280  142.0040 C   0  0  0  0  0  3  0  0  0  0  0  0
  191.7240  175.0130  135.7160 C   0  0  0  0  0  3  0  0  0  0  0  0
  194.0960  174.6540  136.0860 C   0  0  0  0  0  0  0  0  0  0  0  0
  192.4690  173.1030  137.0020 C   0  0  0  0  0  3  0  0  0  0  0  0
  193.7960  173.5000  136.8220 C   0  0  0  0  0  3  0  0  0  0  0  0
  193.0520  175.4080  135.5350 C   0  0  0  0  0  3  0  0  0  0  0  0
  191.4270  173.8570  136.4450 C   0  0  0  0  0  0  0  0  0  0  0  0
  195.4930  175.0800  135.8980 C   0  0  0  0  0  0  0  0  0  0  0  0
  196.2510  175.2380  136.8920 O   0  0  0  0  0  1  0  0  0  0  0  0
  195.9890  175.3100  134.6200 O   0  0  0  0  0  0  0  0  0  0  0  0
  187.1450  172.5080  137.8750 O   0  0  0  0  0  0  0  0  0  0  0  0
  185.8650  172.4970  138.1820 O   0  0  0  0  0  1  0  0  0  0  0  0
  184.9060  178.5370  140.8950 C   0  0  0  0  0  2  0  0  0  0  0  0
  185.0680  179.3250  142.1880 C   0  0  0  0  0  2  0  0  0  0  0  0
  184.3540  177.2650  143.1200 F   0  0  0  0  0  0  0  0  0  0  0  0
  185.0700  178.4120  143.4180 C   0  0  0  0  0  0  0  0  0  0  0  0
  186.3800  178.0580  143.7040 F   0  0  0  0  0  0  0  0  0  0  0  0
  184.4190  179.1220  144.6380 C   0  0  2  0  0  0  0  0  0  0  0  0
  184.3010  180.4720  144.3390 F   0  0  0  0  0  0  0  0  0  0  0  0
  184.7660  178.1020  146.9750 C   0  0  0  0  0  2  0  0  0  0  0  0
  185.7940  180.2140  146.4470 O   0  0  0  0  0  1  0  0  0  0  0  0
  185.3080  179.0190  145.9010 C   0  0  2  0  0  0  0  0  0  0  0  0
  186.0560  177.7290  146.2440 C   0  0  1  0  0  3  0  0  0  0  0  0
  187.2550  177.9520  147.1230 C   0  0  0  0  0  0  0  0  0  0  0  0
  187.1080  178.3190  148.2780 O   0  0  0  0  0  0  0  0  0  0  0  0
  188.6330  177.7730  146.5750 C   0  0  0  0  0  2  0  0  0  0  0  0
  188.6350  178.0270  145.2020 O   0  0  0  0  0  1  0  0  0  0  0  0
  183.0820  178.6460  144.8750 O   0  0  0  0  0  0  0  0  0  0  0  0
  181.9280  178.9550  144.1390 C   0  0  0  0  0  0  0  0  0  0  0  0
  181.9740  179.6830  143.1130 O   0  0  0  0  0  0  0  0  0  0  0  0
  180.7060  178.4400  144.5500 O   0  0  0  0  0  1  0  0  0  0  0  0
  1 20  1  0  0  0  0
  2 14  1  0  0  0  0
  3 17  1  0  0  0  0
  4 15  1  1  0  0  0
  4  9  1  0  0  0  0
  5  4  1  0  0  0  0
  6 21  2  0  0  0  0
  7  5  1  0  0  0  0
  7  4  1  0  0  0  0
  8 18  1  0  0  0  0
  9 35  1  1  0  0  0
 10 24  1  0  0  0  0
 10 25  1  0  0  0  0
 11  1  2  0  0  0  0
 12 10  2  0  0  0  0
 13 31  1  6  0  0  0
 14 19  1  0  0  0  0
 15 13  1  0  0  0  0
 16  2  1  0  0  0  0
 17  6  2  0  0  0  0
 17 16  1  0  0  0  0
 18 25  2  0  0  0  0
 19 23  1  0  0  0  0
 19 37  1  1  0  0  0
 20 12  1  0  0  0  0
 20  8  2  0  0  0  0
 21  9  1  0  0  0  0
 21 22  1  0  0  0  0
 22 13  1  0  0  0  0
 22 11  1  1  0  0  0
 23 24  1  0  0  0  0
 26 31  1  0  0  0  0
 27 29  2  0  0  0  0
 29 28  1  0  0  0  0
 30 26  2  0  0  0  0
 30 27  1  0  0  0  0
 31 28  2  0  0  0  0
 32 27  1  0  0  0  0
 32 33  1  0  0  0  0
 34 32  2  0  0  0  0
 35 36  1  0  0  0  0
 37 38  1  0  0  0  0
 38 40  1  0  0  0  0
 39 40  1  0  0  0  0
 40 41  1  0  0  0  0
 40 42  1  0  0  0  0
 42 43  1  6  0  0  0
 42 52  1  0  0  0  0
 42 46  1  0  0  0  0
 46 47  1  0  0  0  0
 46 45  1  1  0  0  0
 46 44  1  0  0  0  0
 47 44  1  0  0  0  0
 47 48  1  1  0  0  0
 48 49  2  0  0  0  0
 50 48  1  0  0  0  0
 51 50  1  0  0  0  0
 53 55  1  0  0  0  0
 53 52  1  0  0  0  0
 54 53  2  0  0  0  0
M  END
>  <MODEL>
3

>  <REMARK>
 VINA RESULT:      -4.3      2.946      5.251
  Name = 
  12 active torsions:
  status: ('A' for Active; 'I' for Inactive)
    1  A    between atoms: C_1  and  O_53
    2  A    between atoms: C_6  and  C_14
    3  A    between atoms: C_6  and  C_20
    4  A    between atoms: C_6  and  O_53
    5  A    between atoms: C_8  and  C_22
    6  A    between atoms: C_8  and  C_43
    7  A    between atoms: O_9  and  C_26
    8  A    between atoms: C_10  and  C_32
    9  A    between atoms: C_11  and  C_29
   10  A    between atoms: C_20  and  C_22
   11  A    between atoms: C_29  and  C_38
   12  A    between atoms: C_33  and  C_52
                            x       y       z     vdW  Elec       q    Type
                         _______ _______ _______ _____ _____    ______ ____

>  <TORSDO>
F 12

$$$$
=
 OpenBabel11052414483D

 55 60  0  0  1  0  0  0  0  0999 V2000
  189.0440  176.4120  138.5800 C   0  0  0  0  0  3  0  0  0  0  0  0
  184.4260  177.2350  137.8380 C   0  0  0  0  0  2  0  0  0  0  0  0
  183.8160  175.6180  134.6550 C   0  0  0  0  0  1  0  0  0  0  0  0
  187.6610  172.2400  135.8310 C   0  0  1  0  0  0  0  0  0  0  0  0
  187.5300  170.7810  135.6540 C   0  0  0  0  0  2  0  0  0  0  0  0
  185.7890  175.2610  136.0040 C   0  0  0  0  0  0  0  0  0  0  0  0
  187.2780  171.6830  134.5990 O   0  0  0  0  0  0  0  0  0  0  0  0
  189.9290  177.3220  140.7030 C   0  0  0  0  0  3  0  0  0  0  0  0
  186.5140  173.0080  136.4760 C   0  0  2  0  0  3  0  0  0  0  0  0
  187.5080  178.6390  141.2310 C   0  0  0  0  0  0  0  0  0  0  0  0
  188.0060  175.8660  137.9500 C   0  0  0  0  0  3  0  0  0  0  0  0
  187.6690  177.8890  140.0560 C   0  0  0  0  0  3  0  0  0  0  0  0
  189.2200  173.9570  136.8020 C   0  0  2  0  0  3  0  0  0  0  0  0
  184.4670  178.6030  138.4840 C   0  0  0  0  0  2  0  0  0  0  0  0
  189.0550  172.8520  135.7530 C   0  0  0  0  0  2  0  0  0  0  0  0
  184.6480  177.3810  136.3420 C   0  0  0  0  0  2  0  0  0  0  0  0
  184.7930  176.0450  135.6910 C   0  0  0  0  0  0  0  0  0  0  0  0
  189.7700  178.0540  141.8830 C   0  0  0  0  0  3  0  0  0  0  0  0
  184.6280  178.4660  139.9850 C   0  0  1  0  0  3  0  0  0  0  0  0
  188.8730  177.2230  139.7920 C   0  0  0  0  0  0  0  0  0  0  0  0
  186.7730  174.4780  136.3540 C   0  0  0  0  0  0  0  0  0  0  0  0
  188.1310  175.0580  136.6880 C   0  0  1  0  0  3  0  0  0  0  0  0
  185.3780  179.6860  140.4960 C   0  0  0  0  0  2  0  0  0  0  0  0
  186.3240  179.3340  141.5030 O   0  0  0  0  0  0  0  0  0  0  0  0
  188.5600  178.7040  142.1500 C   0  0  0  0  0  3  0  0  0  0  0  0
  191.5840  174.0790  137.6080 C   0  0  0  0  0  3  0  0  0  0  0  0
  193.2240  175.5240  136.5520 C   0  0  0  0  0  0  0  0  0  0  0  0
  190.9420  175.4600  135.7270 C   0  0  0  0  0  3  0  0  0  0  0  0
  192.2450  175.9590  135.6490 C   0  0  0  0  0  3  0  0  0  0  0  0
  192.8860  174.5800  137.5300 C   0  0  0  0  0  3  0  0  0  0  0  0
  190.6060  174.5210  136.7110 C   0  0  0  0  0  0  0  0  0  0  0  0
  194.6000  176.0420  136.4700 C   0  0  0  0  0  0  0  0  0  0  0  0
  194.8170  177.2200  136.0790 O   0  0  0  0  0  0  0  0  0  0  0  0
  195.6740  175.2340  136.8260 O   0  0  0  0  0  1  0  0  0  0  0  0
  186.4210  172.6650  137.8270 O   0  0  0  0  0  0  0  0  0  0  0  0
  185.1830  172.2440  137.9780 O   0  0  0  0  0  1  0  0  0  0  0  0
  183.2620  178.3710  140.6440 C   0  0  0  0  0  2  0  0  0  0  0  0
  182.6000  177.0380  140.3240 C   0  0  0  0  0  2  0  0  0  0  0  0
  181.5280  177.8950  138.3900 F   0  0  0  0  0  0  0  0  0  0  0  0
  181.2760  177.2220  139.5740 C   0  0  0  0  0  0  0  0  0  0  0  0
  180.7600  175.9700  139.2730 F   0  0  0  0  0  0  0  0  0  0  0  0
  180.2650  178.0390  140.4250 C   0  0  2  0  0  0  0  0  0  0  0  0
  179.1550  177.2400  140.6610 F   0  0  0  0  0  0  0  0  0  0  0  0
  178.9360  180.2410  140.5080 C   0  0  0  0  0  2  0  0  0  0  0  0
  179.1830  179.0940  138.4060 O   0  0  0  0  0  1  0  0  0  0  0  0
  179.7600  179.2910  139.6670 C   0  0  2  0  0  0  0  0  0  0  0  0
  180.3030  180.6850  139.9860 C   0  0  1  0  0  3  0  0  0  0  0  0
  180.1540  181.6570  138.8490 C   0  0  0  0  0  0  0  0  0  0  0  0
  179.3020  182.5300  138.8970 O   0  0  0  0  0  0  0  0  0  0  0  0
  181.0130  181.5300  137.6330 C   0  0  0  0  0  2  0  0  0  0  0  0
  180.2720  181.8470  136.4930 O   0  0  0  0  0  1  0  0  0  0  0  0
  180.8040  178.3680  141.7180 O   0  0  0  0  0  0  0  0  0  0  0  0
  180.1190  178.3900  142.9420 C   0  0  0  0  0  0  0  0  0  0  0  0
  178.9320  177.9830  143.0420 O   0  0  0  0  0  0  0  0  0  0  0  0
  180.7690  178.8670  144.0720 O   0  0  0  0  0  1  0  0  0  0  0  0
  1 20  1  0  0  0  0
  2 14  1  0  0  0  0
  3 17  1  0  0  0  0
  4  5  1  1  0  0  0
  4  9  1  0  0  0  0
  6 21  2  0  0  0  0
  7  5  1  0  0  0  0
  7  4  1  0  0  0  0
  8 18  1  0  0  0  0
  9 35  1  1  0  0  0
 10 24  1  0  0  0  0
 10 25  1  0  0  0  0
 11  1  2  0  0  0  0
 12 10  2  0  0  0  0
 13 31  1  6  0  0  0
 14 19  1  0  0  0  0
 15  4  1  0  0  0  0
 15 13  1  0  0  0  0
 16  2  1  0  0  0  0
 17  6  2  0  0  0  0
 17 16  1  0  0  0  0
 18 25  2  0  0  0  0
 19 23  1  0  0  0  0
 19 37  1  1  0  0  0
 20 12  1  0  0  0  0
 20  8  2  0  0  0  0
 21  9  1  0  0  0  0
 21 22  1  0  0  0  0
 22 13  1  0  0  0  0
 22 11  1  1  0  0  0
 23 24  1  0  0  0  0
 27 30  2  0  0  0  0
 28 31  1  0  0  0  0
 29 28  2  0  0  0  0
 29 27  1  0  0  0  0
 30 26  1  0  0  0  0
 31 26  2  0  0  0  0
 32 27  1  0  0  0  0
 32 34  1  0  0  0  0
 33 32  2  0  0  0  0
 35 36  1  0  0  0  0
 38 37  1  0  0  0  0
 39 40  1  0  0  0  0
 40 38  1  0  0  0  0
 40 42  1  0  0  0  0
 41 40  1  0  0  0  0
 42 43  1  1  0  0  0
 42 52  1  0  0  0  0
 46 45  1  6  0  0  0
 46 47  1  0  0  0  0
 46 42  1  0  0  0  0
 46 44  1  0  0  0  0
 47 48  1  6  0  0  0
 47 44  1  0  0  0  0
 48 49  2  0  0  0  0
 50 48  1  0  0  0  0
 51 50  1  0  0  0  0
 52 53  1  0  0  0  0
 53 54  2  0  0  0  0
 53 55  1  0  0  0  0
M  END
>  <MODEL>
4

>  <REMARK>
 VINA RESULT:      -4.0      1.684      3.027
  Name = 
  12 active torsions:
  status: ('A' for Active; 'I' for Inactive)
    1  A    between atoms: C_1  and  O_53
    2  A    between atoms: C_6  and  C_14
    3  A    between atoms: C_6  and  C_20
    4  A    between atoms: C_6  and  O_53
    5  A    between atoms: C_8  and  C_22
    6  A    between atoms: C_8  and  C_43
    7  A    between atoms: O_9  and  C_26
    8  A    between atoms: C_10  and  C_32
    9  A    between atoms: C_11  and  C_29
   10  A    between atoms: C_20  and  C_22
   11  A    between atoms: C_29  and  C_38
   12  A    between atoms: C_33  and  C_52
                            x       y       z     vdW  Elec       q    Type
                         _______ _______ _______ _____ _____    ______ ____

>  <TORSDO>
F 12

$$$$
=
 OpenBabel11052414483D

 55 60  0  0  1  0  0  0  0  0999 V2000
  187.4910  176.3500  138.2600 C   0  0  0  0  0  3  0  0  0  0  0  0
  192.1210  175.4620  137.6780 C   0  0  0  0  0  2  0  0  0  0  0  0
  193.6910  177.8760  139.8730 C   0  0  0  0  0  1  0  0  0  0  0  0
  189.4050  177.6560  142.8980 C   0  0  1  0  0  0  0  0  0  0  0  0
  189.4630  177.5250  144.3670 C   0  0  0  0  0  2  0  0  0  0  0  0
  191.3430  177.3120  139.9340 C   0  0  0  0  0  0  0  0  0  0  0  0
  190.1540  178.5470  143.6840 O   0  0  0  0  0  0  0  0  0  0  0  0
  185.9850  174.8880  136.9520 C   0  0  0  0  0  3  0  0  0  0  0  0
  190.3050  176.7700  142.0450 C   0  0  2  0  0  3  0  0  0  0  0  0
  188.1590  173.7320  135.6050 C   0  0  0  0  0  0  0  0  0  0  0  0
  188.6350  176.4520  138.9340 C   0  0  0  0  0  3  0  0  0  0  0  0
  188.3670  174.7400  136.5590 C   0  0  0  0  0  3  0  0  0  0  0  0
  187.7550  177.6300  141.0010 C   0  0  2  0  0  3  0  0  0  0  0  0
  191.9680  175.1150  136.2120 C   0  0  0  0  0  2  0  0  0  0  0  0
  188.1900  178.3440  142.2850 C   0  0  0  0  0  2  0  0  0  0  0  0
  192.4640  176.9360  137.8100 C   0  0  0  0  0  2  0  0  0  0  0  0
  192.4480  177.3610  139.2420 C   0  0  0  0  0  0  0  0  0  0  0  0
  185.7710  173.8730  136.0150 C   0  0  0  0  0  3  0  0  0  0  0  0
  191.2680  173.7790  136.0630 C   0  0  1  0  0  3  0  0  0  0  0  0
  187.2850  175.3150  137.2400 C   0  0  0  0  0  0  0  0  0  0  0  0
  190.2340  177.2230  140.6190 C   0  0  0  0  0  0  0  0  0  0  0  0
  188.9030  177.5170  139.9620 C   0  0  1  0  0  3  0  0  0  0  0  0
  190.4920  173.7930  134.7550 C   0  0  0  0  0  2  0  0  0  0  0  0
  189.2210  173.1630  134.8940 O   0  0  0  0  0  0  0  0  0  0  0  0
  186.8570  173.2910  135.3500 C   0  0  0  0  0  3  0  0  0  0  0  0
  186.4730  178.5470  139.0600 C   0  0  0  0  0  3  0  0  0  0  0  0
  184.2910  179.5750  139.3360 C   0  0  0  0  0  0  0  0  0  0  0  0
  185.4890  178.7140  141.2650 C   0  0  0  0  0  3  0  0  0  0  0  0
  184.3660  179.3390  140.7160 C   0  0  0  0  0  3  0  0  0  0  0  0
  185.3500  179.1740  138.5130 C   0  0  0  0  0  3  0  0  0  0  0  0
  186.5490  178.3190  140.4380 C   0  0  0  0  0  0  0  0  0  0  0  0
  183.1070  180.2270  138.7530 C   0  0  0  0  0  0  0  0  0  0  0  0
  182.1560  179.5370  138.2980 O   0  0  0  0  0  0  0  0  0  0  0  0
  183.0280  181.6150  138.7000 O   0  0  0  0  0  1  0  0  0  0  0  0
  189.8760  175.4440  142.1310 O   0  0  0  0  0  0  0  0  0  0  0  0
  190.6430  174.9060  143.0560 O   0  0  0  0  0  1  0  0  0  0  0  0
  192.2920  172.6560  136.0590 C   0  0  0  0  0  2  0  0  0  0  0  0
  193.5460  173.0730  135.3020 C   0  0  0  0  0  2  0  0  0  0  0  0
  194.4780  172.3870  137.3720 F   0  0  0  0  0  0  0  0  0  0  0  0
  194.8220  172.7210  136.0730 C   0  0  0  0  0  0  0  0  0  0  0  0
  195.4140  171.6200  135.4710 F   0  0  0  0  0  0  0  0  0  0  0  0
  195.8070  173.9230  136.0960 C   0  0  2  0  0  0  0  0  0  0  0  0
  196.9250  173.5800  135.3480 F   0  0  0  0  0  0  0  0  0  0  0  0
  196.9180  173.0430  138.2430 C   0  0  0  0  0  2  0  0  0  0  0  0
  195.4450  174.9430  138.3740 O   0  0  0  0  0  1  0  0  0  0  0  0
  196.3050  174.2280  137.5310 C   0  0  2  0  0  0  0  0  0  0  0  0
  197.7970  174.2370  137.8680 C   0  0  1  0  0  3  0  0  0  0  0  0
  198.1280  175.0620  139.0800 C   0  0  0  0  0  0  0  0  0  0  0  0
  199.0600  175.8500  139.0480 O   0  0  0  0  0  0  0  0  0  0  0  0
  197.3520  174.8880  140.3440 C   0  0  0  0  0  2  0  0  0  0  0  0
  196.7170  176.0840  140.6800 O   0  0  0  0  0  1  0  0  0  0  0  0
  195.2410  175.0840  135.4600 O   0  0  0  0  0  0  0  0  0  0  0  0
  195.8690  176.3180  135.2340 C   0  0  0  0  0  0  0  0  0  0  0  0
  197.1200  176.4130  135.1330 O   0  0  0  0  0  1  0  0  0  0  0  0
  195.0910  177.4610  135.1140 O   0  0  0  0  0  0  0  0  0  0  0  0
  1 11  2  0  0  0  0
  2 16  1  0  0  0  0
  4 15  1  6  0  0  0
  4  7  1  0  0  0  0
  4  5  1  0  0  0  0
  6 21  2  0  0  0  0
  7  5  1  0  0  0  0
  8 20  1  0  0  0  0
  9 35  1  6  0  0  0
  9  4  1  0  0  0  0
 10 12  1  0  0  0  0
 12 20  2  0  0  0  0
 13 31  1  6  0  0  0
 13 15  1  0  0  0  0
 14  2  1  0  0  0  0
 16 17  1  0  0  0  0
 17  3  1  0  0  0  0
 17  6  2  0  0  0  0
 18  8  2  0  0  0  0
 19 37  1  6  0  0  0
 19 14  1  0  0  0  0
 20  1  1  0  0  0  0
 21  9  1  0  0  0  0
 22 11  1  6  0  0  0
 22 21  1  0  0  0  0
 22 13  1  0  0  0  0
 23 24  1  0  0  0  0
 23 19  1  0  0  0  0
 24 10  1  0  0  0  0
 25 10  2  0  0  0  0
 25 18  1  0  0  0  0
 26 31  1  0  0  0  0
 27 29  2  0  0  0  0
 29 28  1  0  0  0  0
 30 26  2  0  0  0  0
 30 27  1  0  0  0  0
 31 28  2  0  0  0  0
 32 27  1  0  0  0  0
 33 32  2  0  0  0  0
 34 32  1  0  0  0  0
 35 36  1  0  0  0  0
 38 37  1  0  0  0  0
 38 40  1  0  0  0  0
 40 42  1  0  0  0  0
 40 39  1  0  0  0  0
 41 40  1  0  0  0  0
 42 43  1  6  0  0  0
 42 46  1  0  0  0  0
 46 47  1  0  0  0  0
 46 44  1  0  0  0  0
 46 45  1  1  0  0  0
 47 44  1  0  0  0  0
 47 48  1  1  0  0  0
 48 50  1  0  0  0  0
 49 48  2  0  0  0  0
 50 51  1  0  0  0  0
 52 42  1  0  0  0  0
 53 52  1  0  0  0  0
 54 53  1  0  0  0  0
 55 53  2  0  0  0  0
M  END
>  <MODEL>
5

>  <REMARK>
 VINA RESULT:      -3.5      4.366     11.681
  Name = 
  12 active torsions:
  status: ('A' for Active; 'I' for Inactive)
    1  A    between atoms: C_1  and  O_53
    2  A    between atoms: C_6  and  C_14
    3  A    between atoms: C_6  and  C_20
    4  A    between atoms: C_6  and  O_53
    5  A    between atoms: C_8  and  C_22
    6  A    between atoms: C_8  and  C_43
    7  A    between atoms: O_9  and  C_26
    8  A    between atoms: C_10  and  C_32
    9  A    between atoms: C_11  and  C_29
   10  A    between atoms: C_20  and  C_22
   11  A    between atoms: C_29  and  C_38
   12  A    between atoms: C_33  and  C_52
                            x       y       z     vdW  Elec       q    Type
                         _______ _______ _______ _____ _____    ______ ____

>  <TORSDO>
F 12

$$$$
