=
 OpenBabel11052413073D

 31 34  0  0  1  0  0  0  0  0999 V2000
  188.1630  178.2330  147.6090 C   0  0  0  0  0  0  0  0  0  0  0  0
  187.8370  177.5350  143.9270 N   0  0  0  0  0  0  0  0  0  0  0  0
  187.5130  177.8970  145.2890 C   0  0  0  0  0  0  0  0  0  0  0  0
  186.8580  178.6100  147.9270 C   0  0  0  0  0  3  0  0  0  0  0  0
  185.6720  178.4110  143.1770 C   0  0  1  0  0  3  0  0  0  0  0  0
  189.3940  178.2050  148.8540 Cl  0  0  0  0  0  0  0  0  0  0  0  0
  185.1070  178.2540  144.5880 C   0  0  0  0  0  2  0  0  0  0  0  0
  186.7590  177.3700  142.9480 C   0  0  0  0  0  2  0  0  0  0  0  0
  188.4900  177.8750  146.2990 C   0  0  0  0  0  3  0  0  0  0  0  0
  186.1970  178.2850  145.6180 C   0  0  0  0  0  0  0  0  0  0  0  0
  185.8750  178.6300  146.9350 C   0  0  0  0  0  3  0  0  0  0  0  0
  189.1930  177.3120  143.5000 C   0  0  0  0  0  0  0  0  0  0  0  0
  191.3840  176.4590  143.9710 N   0  0  0  0  0  0  0  0  0  0  0  0
  190.0960  176.6600  144.3520 C   0  0  0  0  0  3  0  0  0  0  0  0
  191.8410  176.8810  142.7630 C   0  0  0  0  0  3  0  0  0  0  0  0
  190.9820  177.5340  141.8790 C   0  0  0  0  0  3  0  0  0  0  0  0
  189.6460  177.7530  142.2420 C   0  0  0  0  0  0  0  0  0  0  0  0
  188.7560  178.3930  141.3680 O   0  0  0  0  0  0  0  0  0  0  0  0
  188.3650  177.3880  139.2120 C   0  0  0  0  0  1  0  0  0  0  0  0
  188.9960  178.5390  139.9730 C   0  0  0  0  0  2  0  0  0  0  0  0
  185.6890  179.4510  140.5280 O   0  0  0  0  0  0  0  0  0  0  0  0
  184.6730  178.7910  140.8790 C   0  0  0  0  0  0  0  0  0  0  0  0
  184.6140  178.2280  142.1950 N   0  0  0  0  0  2  0  0  0  0  0  0
  181.3840  178.1110  138.2040 C   0  0  0  0  0  0  0  0  0  0  0  0
  182.8310  177.3790  139.9960 C   0  0  0  0  0  3  0  0  0  0  0  0
  183.8220  180.7800  138.8950 O   0  0  0  0  0  1  0  0  0  0  0  0
  180.0400  177.8130  137.1220 Cl  0  0  0  0  0  0  0  0  0  0  0  0
  181.7580  177.1410  139.1340 C   0  0  0  0  0  3  0  0  0  0  0  0
  183.1560  179.5650  138.9960 C   0  0  0  0  0  0  0  0  0  0  0  0
  183.5430  178.5870  139.9420 C   0  0  0  0  0  0  0  0  0  0  0  0
  182.0800  179.3180  138.1360 C   0  0  0  0  0  3  0  0  0  0  0  0
  1  4  1  0  0  0  0
  1  6  1  0  0  0  0
  2  3  1  0  0  0  0
  3 10  2  0  0  0  0
  3  9  1  0  0  0  0
  5 23  1  6  0  0  0
  5  7  1  0  0  0  0
  7 10  1  0  0  0  0
  8  5  1  0  0  0  0
  8  2  1  0  0  0  0
  9  1  2  0  0  0  0
 10 11  1  0  0  0  0
 11  4  2  0  0  0  0
 12  2  1  0  0  0  0
 12 14  1  0  0  0  0
 13 14  2  0  0  0  0
 15 13  1  0  0  0  0
 16 17  1  0  0  0  0
 16 15  2  0  0  0  0
 17 12  2  0  0  0  0
 18 17  1  0  0  0  0
 19 20  1  0  0  0  0
 20 18  1  0  0  0  0
 21 22  2  0  0  0  0
 22 23  1  0  0  0  0
 24 28  1  0  0  0  0
 26 29  1  0  0  0  0
 27 24  1  0  0  0  0
 28 25  2  0  0  0  0
 29 30  2  0  0  0  0
 30 25  1  0  0  0  0
 30 22  1  0  0  0  0
 31 24  2  0  0  0  0
 31 29  1  0  0  0  0
M  END
>  <MODEL>
1

>  <REMARK>
 VINA RESULT:      -8.9      0.000      0.000
  Name = 
  5 active torsions:
  status: ('A' for Active; 'I' for Inactive)
    1  A    between atoms: N_4  and  C_5
    2  A    between atoms: C_9  and  C_22
    3  A    between atoms: C_15  and  N_23
    4  A    between atoms: C_29  and  O_31
    5  A    between atoms: C_30  and  O_31
                            x       y       z     vdW  Elec       q    Type
                         _______ _______ _______ _____ _____    ______ ____

>  <TORSDO>
F 5

$$$$
=
 OpenBabel11052413073D

 31 34  0  0  1  0  0  0  0  0999 V2000
  192.1870  176.0060  136.2470 C   0  0  0  0  0  0  0  0  0  0  0  0
  189.1580  176.9500  138.2690 N   0  0  0  0  0  0  0  0  0  0  0  0
  190.5240  176.6480  137.9030 C   0  0  0  0  0  0  0  0  0  0  0  0
  193.1870  176.0720  137.2170 C   0  0  0  0  0  3  0  0  0  0  0  0
  189.9290  177.8390  140.4210 C   0  0  1  0  0  3  0  0  0  0  0  0
  192.5900  175.5640  134.6010 Cl  0  0  0  0  0  0  0  0  0  0  0  0
  191.2180  177.0280  140.3070 C   0  0  0  0  0  2  0  0  0  0  0  0
  188.8100  177.1180  139.6820 C   0  0  0  0  0  2  0  0  0  0  0  0
  190.8620  176.2890  136.5870 C   0  0  0  0  0  3  0  0  0  0  0  0
  191.5430  176.7190  138.8760 C   0  0  0  0  0  0  0  0  0  0  0  0
  192.8660  176.4220  138.5300 C   0  0  0  0  0  3  0  0  0  0  0  0
  188.1150  177.0730  137.2850 C   0  0  0  0  0  0  0  0  0  0  0  0
  186.8540  178.4560  135.7860 N   0  0  0  0  0  0  0  0  0  0  0  0
  187.8480  178.3200  136.7020 C   0  0  0  0  0  3  0  0  0  0  0  0
  186.0870  177.4000  135.4080 C   0  0  0  0  0  3  0  0  0  0  0  0
  186.3140  176.1390  135.9590 C   0  0  0  0  0  3  0  0  0  0  0  0
  187.3350  175.9650  136.9040 C   0  0  0  0  0  0  0  0  0  0  0  0
  187.5950  174.7060  137.4620 O   0  0  0  0  0  0  0  0  0  0  0  0
  185.9950  172.9050  137.5530 C   0  0  0  0  0  1  0  0  0  0  0  0
  187.2100  173.4810  136.8480 C   0  0  0  0  0  2  0  0  0  0  0  0
  189.9710  175.7690  142.3740 O   0  0  0  0  0  0  0  0  0  0  0  0
  189.5890  176.9100  142.7540 C   0  0  0  0  0  0  0  0  0  0  0  0
  189.5620  177.9950  141.8200 N   0  0  0  0  0  2  0  0  0  0  0  0
  188.2870  177.5750  146.7920 C   0  0  0  0  0  0  0  0  0  0  0  0
  187.8060  177.2960  144.4390 C   0  0  0  0  0  3  0  0  0  0  0  0
  191.4640  177.0550  145.0070 O   0  0  0  0  0  1  0  0  0  0  0  0
  187.7350  177.8480  148.4300 Cl  0  0  0  0  0  0  0  0  0  0  0  0
  187.3650  177.5120  145.7460 C   0  0  0  0  0  3  0  0  0  0  0  0
  190.0990  177.2030  145.2240 C   0  0  0  0  0  0  0  0  0  0  0  0
  189.1730  177.1380  144.1580 C   0  0  0  0  0  0  0  0  0  0  0  0
  189.6490  177.4210  146.5300 C   0  0  0  0  0  3  0  0  0  0  0  0
  1  9  2  0  0  0  0
  1  4  1  0  0  0  0
  2  8  1  0  0  0  0
  3  2  1  0  0  0  0
  3 10  2  0  0  0  0
  4 11  2  0  0  0  0
  5 23  1  1  0  0  0
  6  1  1  0  0  0  0
  7  5  1  0  0  0  0
  8  5  1  0  0  0  0
  9  3  1  0  0  0  0
 10  7  1  0  0  0  0
 11 10  1  0  0  0  0
 12  2  1  0  0  0  0
 13 14  1  0  0  0  0
 14 12  2  0  0  0  0
 15 13  2  0  0  0  0
 15 16  1  0  0  0  0
 16 17  2  0  0  0  0
 17 12  1  0  0  0  0
 17 18  1  0  0  0  0
 20 18  1  0  0  0  0
 20 19  1  0  0  0  0
 21 22  2  0  0  0  0
 22 30  1  0  0  0  0
 23 22  1  0  0  0  0
 24 27  1  0  0  0  0
 25 28  1  0  0  0  0
 26 29  1  0  0  0  0
 28 24  2  0  0  0  0
 29 31  2  0  0  0  0
 30 25  2  0  0  0  0
 30 29  1  0  0  0  0
 31 24  1  0  0  0  0
M  END
>  <MODEL>
2

>  <REMARK>
 VINA RESULT:      -8.7      4.216      8.827
  Name = 
  5 active torsions:
  status: ('A' for Active; 'I' for Inactive)
    1  A    between atoms: N_4  and  C_5
    2  A    between atoms: C_9  and  C_22
    3  A    between atoms: C_15  and  N_23
    4  A    between atoms: C_29  and  O_31
    5  A    between atoms: C_30  and  O_31
                            x       y       z     vdW  Elec       q    Type
                         _______ _______ _______ _____ _____    ______ ____

>  <TORSDO>
F 5

$$$$
=
 OpenBabel11052413073D

 31 34  0  0  1  0  0  0  0  0999 V2000
  189.9440  177.2870  147.2510 C   0  0  0  0  0  0  0  0  0  0  0  0
  188.5790  177.2130  143.7460 N   0  0  0  0  0  0  0  0  0  0  0  0
  188.6550  177.3020  145.1870 C   0  0  0  0  0  0  0  0  0  0  0  0
  188.7760  177.4840  147.9890 C   0  0  0  0  0  3  0  0  0  0  0  0
  186.2590  178.0080  143.8170 C   0  0  1  0  0  3  0  0  0  0  0  0
  191.4850  177.1530  148.0700 Cl  0  0  0  0  0  0  0  0  0  0  0  0
  186.1380  177.5580  145.2720 C   0  0  0  0  0  2  0  0  0  0  0  0
  187.2680  177.1250  143.0970 C   0  0  0  0  0  2  0  0  0  0  0  0
  189.8850  177.1930  145.8590 C   0  0  0  0  0  3  0  0  0  0  0  0
  187.4800  177.5080  145.9410 C   0  0  0  0  0  0  0  0  0  0  0  0
  187.5450  177.5880  147.3360 C   0  0  0  0  0  3  0  0  0  0  0  0
  189.7580  177.1900  142.9210 C   0  0  0  0  0  0  0  0  0  0  0  0
  192.1060  176.7590  142.6990 N   0  0  0  0  0  0  0  0  0  0  0  0
  190.9810  176.7680  143.4600 C   0  0  0  0  0  3  0  0  0  0  0  0
  192.0880  177.1580  141.4000 C   0  0  0  0  0  3  0  0  0  0  0  0
  190.8960  177.5860  140.8170 C   0  0  0  0  0  3  0  0  0  0  0  0
  189.7160  177.6030  141.5750 C   0  0  0  0  0  0  0  0  0  0  0  0
  188.5010  178.0140  141.0110 O   0  0  0  0  0  0  0  0  0  0  0  0
  186.9780  178.0520  139.1420 C   0  0  0  0  0  1  0  0  0  0  0  0
  188.3620  178.4090  139.6500 C   0  0  0  0  0  2  0  0  0  0  0  0
  185.3770  179.6470  141.6650 O   0  0  0  0  0  0  0  0  0  0  0  0
  184.5730  178.7700  142.0850 C   0  0  0  0  0  0  0  0  0  0  0  0
  184.9670  177.9040  143.1560 N   0  0  0  0  0  2  0  0  0  0  0  0
  180.7210  178.3180  140.2440 C   0  0  0  0  0  0  0  0  0  0  0  0
  183.1320  178.1750  140.1540 C   0  0  0  0  0  3  0  0  0  0  0  0
  182.0740  179.3730  143.5000 O   0  0  0  0  0  1  0  0  0  0  0  0
  179.1610  178.1270  139.4740 Cl  0  0  0  0  0  0  0  0  0  0  0  0
  181.8880  178.0210  139.5390 C   0  0  0  0  0  3  0  0  0  0  0  0
  182.0410  178.9230  142.1860 C   0  0  0  0  0  0  0  0  0  0  0  0
  183.2290  178.6250  141.4790 C   0  0  0  0  0  0  0  0  0  0  0  0
  180.7990  178.7670  141.5630 C   0  0  0  0  0  3  0  0  0  0  0  0
  1  4  1  0  0  0  0
  1  6  1  0  0  0  0
  2  3  1  0  0  0  0
  3  9  1  0  0  0  0
  3 10  2  0  0  0  0
  5 23  1  6  0  0  0
  5  7  1  0  0  0  0
  7 10  1  0  0  0  0
  8  2  1  0  0  0  0
  8  5  1  0  0  0  0
  9  1  2  0  0  0  0
 10 11  1  0  0  0  0
 11  4  2  0  0  0  0
 12 14  1  0  0  0  0
 12  2  1  0  0  0  0
 13 14  2  0  0  0  0
 15 13  1  0  0  0  0
 16 15  2  0  0  0  0
 16 17  1  0  0  0  0
 17 12  2  0  0  0  0
 18 17  1  0  0  0  0
 19 20  1  0  0  0  0
 20 18  1  0  0  0  0
 21 22  2  0  0  0  0
 22 23  1  0  0  0  0
 24 31  1  0  0  0  0
 25 30  2  0  0  0  0
 27 24  1  0  0  0  0
 28 25  1  0  0  0  0
 28 24  2  0  0  0  0
 29 26  1  0  0  0  0
 30 22  1  0  0  0  0
 30 29  1  0  0  0  0
 31 29  2  0  0  0  0
M  END
>  <MODEL>
3

>  <REMARK>
 VINA RESULT:      -8.5      1.657      1.903
  Name = 
  5 active torsions:
  status: ('A' for Active; 'I' for Inactive)
    1  A    between atoms: N_4  and  C_5
    2  A    between atoms: C_9  and  C_22
    3  A    between atoms: C_15  and  N_23
    4  A    between atoms: C_29  and  O_31
    5  A    between atoms: C_30  and  O_31
                            x       y       z     vdW  Elec       q    Type
                         _______ _______ _______ _____ _____    ______ ____

>  <TORSDO>
F 5

$$$$
=
 OpenBabel11052413073D

 31 34  0  0  1  0  0  0  0  0999 V2000
  184.3500  178.8070  143.9410 C   0  0  0  0  0  0  0  0  0  0  0  0
  187.8400  177.4010  143.9300 N   0  0  0  0  0  0  0  0  0  0  0  0
  186.5750  177.9360  143.4780 C   0  0  0  0  0  0  0  0  0  0  0  0
  184.1270  178.9780  142.5740 C   0  0  0  0  0  3  0  0  0  0  0  0
  188.7690  177.6930  141.6780 C   0  0  1  0  0  3  0  0  0  0  0  0
  183.1070  179.2430  145.0930 Cl  0  0  0  0  0  0  0  0  0  0  0  0
  187.3620  177.6900  141.0850 C   0  0  0  0  0  2  0  0  0  0  0  0
  188.7840  176.8570  142.9510 C   0  0  0  0  0  2  0  0  0  0  0  0
  185.5650  178.2870  144.3910 C   0  0  0  0  0  3  0  0  0  0  0  0
  186.3410  178.1180  142.0980 C   0  0  0  0  0  0  0  0  0  0  0  0
  185.1170  178.6280  141.6540 C   0  0  0  0  0  3  0  0  0  0  0  0
  188.1990  177.3680  145.3230 C   0  0  0  0  0  0  0  0  0  0  0  0
  187.5350  177.5020  147.6230 N   0  0  0  0  0  0  0  0  0  0  0  0
  187.2080  177.5120  146.3040 C   0  0  0  0  0  3  0  0  0  0  0  0
  188.8220  177.3580  148.0350 C   0  0  0  0  0  3  0  0  0  0  0  0
  189.8440  177.2110  147.0980 C   0  0  0  0  0  3  0  0  0  0  0  0
  189.5390  177.2130  145.7290 C   0  0  0  0  0  0  0  0  0  0  0  0
  190.5430  177.0520  144.7650 O   0  0  0  0  0  0  0  0  0  0  0  0
  191.3050  179.1960  143.9690 C   0  0  0  0  0  1  0  0  0  0  0  0
  191.6800  177.9030  144.6680 C   0  0  0  0  0  2  0  0  0  0  0  0
  189.3330  178.7700  139.1050 O   0  0  0  0  0  0  0  0  0  0  0  0
  189.9440  177.7150  139.4330 C   0  0  0  0  0  0  0  0  0  0  0  0
  189.7130  177.1350  140.7220 N   0  0  0  0  0  2  0  0  0  0  0  0
  192.6370  175.8440  136.6620 C   0  0  0  0  0  0  0  0  0  0  0  0
  190.4250  176.6100  137.2620 C   0  0  0  0  0  3  0  0  0  0  0  0
  192.7970  177.3500  140.0160 O   0  0  0  0  0  1  0  0  0  0  0  0
  193.7180  175.0780  135.5180 Cl  0  0  0  0  0  0  0  0  0  0  0  0
  191.2870  176.0000  136.3480 C   0  0  0  0  0  3  0  0  0  0  0  0
  192.2690  176.9120  138.8080 C   0  0  0  0  0  0  0  0  0  0  0  0
  190.8990  177.0740  138.4990 C   0  0  0  0  0  0  0  0  0  0  0  0
  193.1260  176.2990  137.8870 C   0  0  0  0  0  3  0  0  0  0  0  0
  1  9  1  0  0  0  0
  1  6  1  0  0  0  0
  2 12  1  0  0  0  0
  3  2  1  0  0  0  0
  3  9  2  0  0  0  0
  4  1  2  0  0  0  0
  5 23  1  6  0  0  0
  5  8  1  0  0  0  0
  7  5  1  0  0  0  0
  7 10  1  0  0  0  0
  8  2  1  0  0  0  0
 10  3  1  0  0  0  0
 11 10  2  0  0  0  0
 11  4  1  0  0  0  0
 12 17  2  0  0  0  0
 12 14  1  0  0  0  0
 13 15  1  0  0  0  0
 14 13  2  0  0  0  0
 16 15  2  0  0  0  0
 17 16  1  0  0  0  0
 18 17  1  0  0  0  0
 19 20  1  0  0  0  0
 20 18  1  0  0  0  0
 21 22  2  0  0  0  0
 22 23  1  0  0  0  0
 24 31  1  0  0  0  0
 25 30  2  0  0  0  0
 27 24  1  0  0  0  0
 28 24  2  0  0  0  0
 28 25  1  0  0  0  0
 29 26  1  0  0  0  0
 30 29  1  0  0  0  0
 30 22  1  0  0  0  0
 31 29  2  0  0  0  0
M  END
>  <MODEL>
4

>  <REMARK>
 VINA RESULT:      -8.2      3.812      6.631
  Name = 
  5 active torsions:
  status: ('A' for Active; 'I' for Inactive)
    1  A    between atoms: N_4  and  C_5
    2  A    between atoms: C_9  and  C_22
    3  A    between atoms: C_15  and  N_23
    4  A    between atoms: C_29  and  O_31
    5  A    between atoms: C_30  and  O_31
                            x       y       z     vdW  Elec       q    Type
                         _______ _______ _______ _____ _____    ______ ____

>  <TORSDO>
F 5

$$$$
=
 OpenBabel11052413073D

 31 34  0  0  1  0  0  0  0  0999 V2000
  180.4700  179.7750  136.8510 C   0  0  0  0  0  0  0  0  0  0  0  0
  181.9090  177.0470  139.0060 N   0  0  0  0  0  0  0  0  0  0  0  0
  181.6390  178.3500  138.4400 C   0  0  0  0  0  0  0  0  0  0  0  0
  181.1290  180.8940  137.3610 C   0  0  0  0  0  3  0  0  0  0  0  0
  183.1020  178.1020  140.8710 C   0  0  1  0  0  3  0  0  0  0  0  0
  179.3240  179.9550  135.5400 Cl  0  0  0  0  0  0  0  0  0  0  0  0
  183.3320  179.3560  140.0290 C   0  0  0  0  0  2  0  0  0  0  0  0
  183.0110  176.8880  139.9570 C   0  0  0  0  0  2  0  0  0  0  0  0
  180.7250  178.5090  137.3840 C   0  0  0  0  0  3  0  0  0  0  0  0
  182.2960  179.4880  138.9530 C   0  0  0  0  0  0  0  0  0  0  0  0
  182.0450  180.7510  138.4050 C   0  0  0  0  0  3  0  0  0  0  0  0
  181.1360  175.8870  138.6490 C   0  0  0  0  0  0  0  0  0  0  0  0
  179.2700  174.4440  139.0820 N   0  0  0  0  0  0  0  0  0  0  0  0
  179.9980  175.5480  139.3950 C   0  0  0  0  0  3  0  0  0  0  0  0
  179.6160  173.6350  138.0470 C   0  0  0  0  0  3  0  0  0  0  0  0
  180.7390  173.9290  137.2750 C   0  0  0  0  0  3  0  0  0  0  0  0
  181.5090  175.0630  137.5700 C   0  0  0  0  0  0  0  0  0  0  0  0
  182.6340  175.3920  136.8000 O   0  0  0  0  0  0  0  0  0  0  0  0
  184.4250  173.9860  137.5930 C   0  0  0  0  0  1  0  0  0  0  0  0
  183.6120  174.4410  136.3950 C   0  0  0  0  0  2  0  0  0  0  0  0
  183.1600  179.0720  143.5460 O   0  0  0  0  0  0  0  0  0  0  0  0
  184.1790  178.4480  143.1390 C   0  0  0  0  0  0  0  0  0  0  0  0
  184.2010  177.9220  141.8070 N   0  0  0  0  0  2  0  0  0  0  0  0
  187.6220  177.8440  145.6320 C   0  0  0  0  0  0  0  0  0  0  0  0
  186.5440  177.7710  143.4690 C   0  0  0  0  0  3  0  0  0  0  0  0
  184.1500  179.0030  146.0210 O   0  0  0  0  0  1  0  0  0  0  0  0
  189.0370  177.5900  146.6300 Cl  0  0  0  0  0  0  0  0  0  0  0  0
  187.6740  177.5690  144.2650 C   0  0  0  0  0  3  0  0  0  0  0  0
  185.3050  178.5270  145.4130 C   0  0  0  0  0  0  0  0  0  0  0  0
  185.3490  178.2510  144.0270 C   0  0  0  0  0  0  0  0  0  0  0  0
  186.4410  178.3220  146.2030 C   0  0  0  0  0  3  0  0  0  0  0  0
  1  4  2  0  0  0  0
  1  9  1  0  0  0  0
  2  8  1  0  0  0  0
  3 10  1  0  0  0  0
  3  2  1  0  0  0  0
  4 11  1  0  0  0  0
  5 23  1  1  0  0  0
  6  1  1  0  0  0  0
  7  5  1  0  0  0  0
  8  5  1  0  0  0  0
  9  3  2  0  0  0  0
 10  7  1  0  0  0  0
 11 10  2  0  0  0  0
 12  2  1  0  0  0  0
 12 14  1  0  0  0  0
 13 14  2  0  0  0  0
 15 13  1  0  0  0  0
 16 17  1  0  0  0  0
 16 15  2  0  0  0  0
 17 12  2  0  0  0  0
 18 17  1  0  0  0  0
 20 18  1  0  0  0  0
 20 19  1  0  0  0  0
 22 21  2  0  0  0  0
 22 30  1  0  0  0  0
 23 22  1  0  0  0  0
 24 31  1  0  0  0  0
 24 27  1  0  0  0  0
 25 30  2  0  0  0  0
 25 28  1  0  0  0  0
 28 24  2  0  0  0  0
 29 26  1  0  0  0  0
 29 31  2  0  0  0  0
 30 29  1  0  0  0  0
M  END
>  <MODEL>
5

>  <REMARK>
 VINA RESULT:      -8.2      3.011      9.245
  Name = 
  5 active torsions:
  status: ('A' for Active; 'I' for Inactive)
    1  A    between atoms: N_4  and  C_5
    2  A    between atoms: C_9  and  C_22
    3  A    between atoms: C_15  and  N_23
    4  A    between atoms: C_29  and  O_31
    5  A    between atoms: C_30  and  O_31
                            x       y       z     vdW  Elec       q    Type
                         _______ _______ _______ _____ _____    ______ ____

>  <TORSDO>
F 5

$$$$
=
 OpenBabel11052413073D

 31 34  0  0  1  0  0  0  0  0999 V2000
  188.6970  177.7370  147.5930 C   0  0  0  0  0  0  0  0  0  0  0  0
  187.1820  177.8810  144.1520 N   0  0  0  0  0  0  0  0  0  0  0  0
  188.1170  177.6510  145.2320 C   0  0  0  0  0  0  0  0  0  0  0  0
  189.9490  177.1900  147.3110 C   0  0  0  0  0  3  0  0  0  0  0  0
  188.5970  176.5610  142.6440 C   0  0  1  0  0  3  0  0  0  0  0  0
  188.2670  178.1370  149.2420 Cl  0  0  0  0  0  0  0  0  0  0  0  0
  189.8050  176.8040  143.5470 C   0  0  0  0  0  2  0  0  0  0  0  0
  187.6310  177.7310  142.7660 C   0  0  0  0  0  2  0  0  0  0  0  0
  187.7870  177.9700  146.5600 C   0  0  0  0  0  3  0  0  0  0  0  0
  189.3830  177.0920  144.9570 C   0  0  0  0  0  0  0  0  0  0  0  0
  190.2950  176.8740  145.9950 C   0  0  0  0  0  3  0  0  0  0  0  0
  185.8190  178.2730  144.3950 C   0  0  0  0  0  0  0  0  0  0  0  0
  184.0910  178.8490  145.9540 N   0  0  0  0  0  0  0  0  0  0  0  0
  185.3800  178.4980  145.7070 C   0  0  0  0  0  3  0  0  0  0  0  0
  183.1880  178.9910  144.9480 C   0  0  0  0  0  3  0  0  0  0  0  0
  183.5760  178.7780  143.6250 C   0  0  0  0  0  3  0  0  0  0  0  0
  184.9010  178.4190  143.3380 C   0  0  0  0  0  0  0  0  0  0  0  0
  185.3230  178.2140  142.0170 O   0  0  0  0  0  0  0  0  0  0  0  0
  183.9710  178.2440  140.0210 C   0  0  0  0  0  1  0  0  0  0  0  0
  184.9050  179.0270  140.9250 C   0  0  0  0  0  2  0  0  0  0  0  0
  188.6200  178.6620  140.7250 O   0  0  0  0  0  0  0  0  0  0  0  0
  189.0020  177.5240  140.3350 C   0  0  0  0  0  0  0  0  0  0  0  0
  189.0280  176.4320  141.2610 N   0  0  0  0  0  2  0  0  0  0  0  0
  190.3180  176.8500  136.3040 C   0  0  0  0  0  0  0  0  0  0  0  0
  190.5880  176.5570  138.6890 C   0  0  0  0  0  3  0  0  0  0  0  0
  187.5600  178.5900  138.0120 O   0  0  0  0  0  1  0  0  0  0  0  0
  190.8720  176.5630  134.6690 Cl  0  0  0  0  0  0  0  0  0  0  0  0
  191.0300  176.3260  137.3840 C   0  0  0  0  0  3  0  0  0  0  0  0
  188.7140  177.8360  137.8320 C   0  0  0  0  0  0  0  0  0  0  0  0
  189.4290  177.3100  138.9330 C   0  0  0  0  0  0  0  0  0  0  0  0
  189.1640  177.6010  136.5290 C   0  0  0  0  0  3  0  0  0  0  0  0
  1  6  1  0  0  0  0
  2 12  1  0  0  0  0
  2  3  1  0  0  0  0
  3  9  1  0  0  0  0
  4  1  1  0  0  0  0
  5 23  1  6  0  0  0
  5  8  1  0  0  0  0
  5  7  1  0  0  0  0
  7 10  1  0  0  0  0
  8  2  1  0  0  0  0
  9  1  2  0  0  0  0
 10  3  2  0  0  0  0
 10 11  1  0  0  0  0
 11  4  2  0  0  0  0
 12 14  1  0  0  0  0
 14 13  2  0  0  0  0
 15 13  1  0  0  0  0
 16 15  2  0  0  0  0
 17 16  1  0  0  0  0
 17 12  2  0  0  0  0
 18 17  1  0  0  0  0
 19 20  1  0  0  0  0
 20 18  1  0  0  0  0
 22 21  2  0  0  0  0
 22 23  1  0  0  0  0
 24 31  2  0  0  0  0
 24 28  1  0  0  0  0
 25 30  1  0  0  0  0
 27 24  1  0  0  0  0
 28 25  2  0  0  0  0
 29 26  1  0  0  0  0
 29 30  2  0  0  0  0
 30 22  1  0  0  0  0
 31 29  1  0  0  0  0
M  END
>  <MODEL>
6

>  <REMARK>
 VINA RESULT:      -8.1      2.732      5.608
  Name = 
  5 active torsions:
  status: ('A' for Active; 'I' for Inactive)
    1  A    between atoms: N_4  and  C_5
    2  A    between atoms: C_9  and  C_22
    3  A    between atoms: C_15  and  N_23
    4  A    between atoms: C_29  and  O_31
    5  A    between atoms: C_30  and  O_31
                            x       y       z     vdW  Elec       q    Type
                         _______ _______ _______ _____ _____    ______ ____

>  <TORSDO>
F 5

$$$$
=
 OpenBabel11052413073D

 31 34  0  0  1  0  0  0  0  0999 V2000
  187.5800  177.5190  144.2970 C   0  0  0  0  0  0  0  0  0  0  0  0
  188.1950  177.9170  140.6070 N   0  0  0  0  0  0  0  0  0  0  0  0
  188.3870  177.5910  142.0030 C   0  0  0  0  0  0  0  0  0  0  0  0
  188.7830  176.9430  144.7080 C   0  0  0  0  0  3  0  0  0  0  0  0
  190.2060  176.6350  140.0300 C   0  0  1  0  0  3  0  0  0  0  0  0
  186.3160  177.8380  145.4660 Cl  0  0  0  0  0  0  0  0  0  0  0  0
  190.7230  176.7810  141.4600 C   0  0  0  0  0  2  0  0  0  0  0  0
  189.3300  177.8310  139.6840 C   0  0  0  0  0  2  0  0  0  0  0  0
  187.3830  177.8440  142.9530 C   0  0  0  0  0  3  0  0  0  0  0  0
  189.5970  177.0030  142.4270 C   0  0  0  0  0  0  0  0  0  0  0  0
  189.7920  176.6910  143.7770 C   0  0  0  0  0  3  0  0  0  0  0  0
  186.9210  178.3440  140.0920 C   0  0  0  0  0  0  0  0  0  0  0  0
  184.8450  179.4940  140.4330 N   0  0  0  0  0  0  0  0  0  0  0  0
  186.0590  179.1000  140.8980 C   0  0  0  0  0  3  0  0  0  0  0  0
  184.4240  179.1690  139.1820 C   0  0  0  0  0  3  0  0  0  0  0  0
  185.2450  178.4180  138.3420 C   0  0  0  0  0  3  0  0  0  0  0  0
  186.5060  178.0000  138.7910 C   0  0  0  0  0  0  0  0  0  0  0  0
  187.3580  177.2580  137.9620 O   0  0  0  0  0  0  0  0  0  0  0  0
  187.9840  177.5380  135.6510 C   0  0  0  0  0  1  0  0  0  0  0  0
  187.0260  176.8840  136.6300 C   0  0  0  0  0  2  0  0  0  0  0  0
  190.5410  174.6760  137.9930 O   0  0  0  0  0  0  0  0  0  0  0  0
  191.4460  175.5480  138.1050 C   0  0  0  0  0  0  0  0  0  0  0  0
  191.3240  176.5700  139.1010 N   0  0  0  0  0  2  0  0  0  0  0  0
  194.9300  175.4620  135.5980 C   0  0  0  0  0  0  0  0  0  0  0  0
  193.8720  175.1650  137.7510 C   0  0  0  0  0  3  0  0  0  0  0  0
  191.3470  176.2310  135.2520 O   0  0  0  0  0  1  0  0  0  0  0  0
  196.3630  175.4210  134.5940 Cl  0  0  0  0  0  0  0  0  0  0  0  0
  195.0170  175.1310  136.9500 C   0  0  0  0  0  3  0  0  0  0  0  0
  192.5500  175.8630  135.8410 C   0  0  0  0  0  0  0  0  0  0  0  0
  192.6280  175.5290  137.2130 C   0  0  0  0  0  0  0  0  0  0  0  0
  193.7010  175.8260  135.0460 C   0  0  0  0  0  3  0  0  0  0  0  0
  1  4  1  0  0  0  0
  1  6  1  0  0  0  0
  2  3  1  0  0  0  0
  3 10  2  0  0  0  0
  3  9  1  0  0  0  0
  5 23  1  6  0  0  0
  5  7  1  0  0  0  0
  7 10  1  0  0  0  0
  8  5  1  0  0  0  0
  8  2  1  0  0  0  0
  9  1  2  0  0  0  0
 10 11  1  0  0  0  0
 11  4  2  0  0  0  0
 12  2  1  0  0  0  0
 12 14  1  0  0  0  0
 13 14  2  0  0  0  0
 15 13  1  0  0  0  0
 16 17  1  0  0  0  0
 16 15  2  0  0  0  0
 17 12  2  0  0  0  0
 18 17  1  0  0  0  0
 19 20  1  0  0  0  0
 20 18  1  0  0  0  0
 21 22  2  0  0  0  0
 22 23  1  0  0  0  0
 24 28  1  0  0  0  0
 26 29  1  0  0  0  0
 27 24  1  0  0  0  0
 28 25  2  0  0  0  0
 29 30  2  0  0  0  0
 30 25  1  0  0  0  0
 30 22  1  0  0  0  0
 31 24  2  0  0  0  0
 31 29  1  0  0  0  0
M  END
>  <MODEL>
7

>  <REMARK>
 VINA RESULT:      -7.6      4.815      7.952
  Name = 
  5 active torsions:
  status: ('A' for Active; 'I' for Inactive)
    1  A    between atoms: N_4  and  C_5
    2  A    between atoms: C_9  and  C_22
    3  A    between atoms: C_15  and  N_23
    4  A    between atoms: C_29  and  O_31
    5  A    between atoms: C_30  and  O_31
                            x       y       z     vdW  Elec       q    Type
                         _______ _______ _______ _____ _____    ______ ____

>  <TORSDO>
F 5

$$$$
=
 OpenBabel11052413073D

 31 34  0  0  1  0  0  0  0  0999 V2000
  191.2400  176.7470  138.7610 C   0  0  0  0  0  0  0  0  0  0  0  0
  188.8040  178.1190  141.2770 N   0  0  0  0  0  0  0  0  0  0  0  0
  189.3860  177.6830  140.0270 C   0  0  0  0  0  0  0  0  0  0  0  0
  190.4910  176.8380  137.5860 C   0  0  0  0  0  3  0  0  0  0  0  0
  186.6010  178.2540  140.2070 C   0  0  1  0  0  3  0  0  0  0  0  0
  192.8690  176.1050  138.7140 Cl  0  0  0  0  0  0  0  0  0  0  0  0
  187.2630  178.3730  138.8350 C   0  0  0  0  0  2  0  0  0  0  0  0
  187.5260  178.8360  141.2670 C   0  0  0  0  0  2  0  0  0  0  0  0
  190.6940  177.1700  139.9740 C   0  0  0  0  0  3  0  0  0  0  0  0
  188.6340  177.7660  138.8360 C   0  0  0  0  0  0  0  0  0  0  0  0
  189.1940  177.3520  137.6230 C   0  0  0  0  0  3  0  0  0  0  0  0
  189.4520  177.8880  142.5410 C   0  0  0  0  0  0  0  0  0  0  0  0
  191.4590  177.8790  143.8530 N   0  0  0  0  0  0  0  0  0  0  0  0
  190.8300  178.1120  142.6720 C   0  0  0  0  0  3  0  0  0  0  0  0
  190.7830  177.4220  144.9400 C   0  0  0  0  0  3  0  0  0  0  0  0
  189.4120  177.1850  144.8610 C   0  0  0  0  0  3  0  0  0  0  0  0
  188.7330  177.4190  143.6570 C   0  0  0  0  0  0  0  0  0  0  0  0
  187.3520  177.2030  143.5530 O   0  0  0  0  0  0  0  0  0  0  0  0
  185.2350  178.2530  144.0370 C   0  0  0  0  0  1  0  0  0  0  0  0
  186.4300  177.5030  144.5960 C   0  0  0  0  0  2  0  0  0  0  0  0
  184.2460  177.4730  138.8150 O   0  0  0  0  0  0  0  0  0  0  0  0
  184.1910  178.5440  139.4800 C   0  0  0  0  0  0  0  0  0  0  0  0
  185.3400  178.9800  140.2150 N   0  0  0  0  0  2  0  0  0  0  0  0
  180.6320  180.9450  139.5080 C   0  0  0  0  0  0  0  0  0  0  0  0
  182.8740  180.5050  138.7190 C   0  0  0  0  0  3  0  0  0  0  0  0
  181.8520  177.8700  141.1210 O   0  0  0  0  0  1  0  0  0  0  0  0
  179.1910  181.9390  139.5050 Cl  0  0  0  0  0  0  0  0  0  0  0  0
  181.7240  181.2980  138.7140 C   0  0  0  0  0  3  0  0  0  0  0  0
  181.8370  179.0010  140.3130 C   0  0  0  0  0  0  0  0  0  0  0  0
  182.9480  179.3500  139.5130 C   0  0  0  0  0  0  0  0  0  0  0  0
  180.6890  179.8000  140.3040 C   0  0  0  0  0  3  0  0  0  0  0  0
  1  9  1  0  0  0  0
  2 12  1  0  0  0  0
  3  2  1  0  0  0  0
  4 11  1  0  0  0  0
  4  1  2  0  0  0  0
  5 23  1  6  0  0  0
  5  8  1  0  0  0  0
  6  1  1  0  0  0  0
  7 10  1  0  0  0  0
  7  5  1  0  0  0  0
  8  2  1  0  0  0  0
  9  3  2  0  0  0  0
 10  3  1  0  0  0  0
 11 10  2  0  0  0  0
 12 14  2  0  0  0  0
 12 17  1  0  0  0  0
 13 15  2  0  0  0  0
 14 13  1  0  0  0  0
 16 15  1  0  0  0  0
 17 16  2  0  0  0  0
 18 17  1  0  0  0  0
 18 20  1  0  0  0  0
 19 20  1  0  0  0  0
 21 22  2  0  0  0  0
 22 30  1  0  0  0  0
 22 23  1  0  0  0  0
 24 31  1  0  0  0  0
 25 30  2  0  0  0  0
 27 24  1  0  0  0  0
 28 25  1  0  0  0  0
 28 24  2  0  0  0  0
 29 26  1  0  0  0  0
 30 29  1  0  0  0  0
 31 29  2  0  0  0  0
M  END
>  <MODEL>
8

>  <REMARK>
 VINA RESULT:      -7.4      2.878      5.175
  Name = 
  5 active torsions:
  status: ('A' for Active; 'I' for Inactive)
    1  A    between atoms: N_4  and  C_5
    2  A    between atoms: C_9  and  C_22
    3  A    between atoms: C_15  and  N_23
    4  A    between atoms: C_29  and  O_31
    5  A    between atoms: C_30  and  O_31
                            x       y       z     vdW  Elec       q    Type
                         _______ _______ _______ _____ _____    ______ ____

>  <TORSDO>
F 5

$$$$
=
 OpenBabel11052413073D

 31 34  0  0  1  0  0  0  0  0999 V2000
  190.4020  176.7980  142.5440 C   0  0  0  0  0  0  0  0  0  0  0  0
  186.9920  178.3450  142.9070 N   0  0  0  0  0  0  0  0  0  0  0  0
  188.2010  177.8120  142.3210 C   0  0  0  0  0  0  0  0  0  0  0  0
  190.5390  176.7770  141.1560 C   0  0  0  0  0  3  0  0  0  0  0  0
  185.9230  178.3550  140.6990 C   0  0  1  0  0  3  0  0  0  0  0  0
  191.6850  176.1790  143.5610 Cl  0  0  0  0  0  0  0  0  0  0  0  0
  187.2940  178.3660  140.0240 C   0  0  0  0  0  2  0  0  0  0  0  0
  186.0220  179.0390  142.0560 C   0  0  0  0  0  2  0  0  0  0  0  0
  189.2420  177.3150  143.1250 C   0  0  0  0  0  3  0  0  0  0  0  0
  188.3470  177.7810  140.9180 C   0  0  0  0  0  0  0  0  0  0  0  0
  189.5170  177.2730  140.3440 C   0  0  0  0  0  3  0  0  0  0  0  0
  186.7130  178.2320  144.3150 C   0  0  0  0  0  0  0  0  0  0  0  0
  187.4980  177.8010  146.5390 N   0  0  0  0  0  0  0  0  0  0  0  0
  187.7490  177.9300  145.2100 C   0  0  0  0  0  3  0  0  0  0  0  0
  186.2460  177.9550  147.0440 C   0  0  0  0  0  3  0  0  0  0  0  0
  185.1820  178.2560  146.1940 C   0  0  0  0  0  3  0  0  0  0  0  0
  185.4090  178.3990  144.8180 C   0  0  0  0  0  0  0  0  0  0  0  0
  184.3610  178.7170  143.9420 O   0  0  0  0  0  0  0  0  0  0  0  0
  182.0930  179.0020  143.1760 C   0  0  0  0  0  1  0  0  0  0  0  0
  183.0260  178.9580  144.3720 C   0  0  0  0  0  2  0  0  0  0  0  0
  183.2370  177.5320  140.2460 O   0  0  0  0  0  0  0  0  0  0  0  0
  183.6200  178.5870  139.6690 C   0  0  0  0  0  0  0  0  0  0  0  0
  184.9560  179.0600  139.8720 N   0  0  0  0  0  2  0  0  0  0  0  0
  180.9620  180.8580  137.1760 C   0  0  0  0  0  0  0  0  0  0  0  0
  182.4180  180.6830  139.0980 C   0  0  0  0  0  3  0  0  0  0  0  0
  182.3300  177.4440  137.2930 O   0  0  0  0  0  1  0  0  0  0  0  0
  179.8820  181.8020  136.1730 Cl  0  0  0  0  0  0  0  0  0  0  0  0
  181.5570  181.4380  138.2970 C   0  0  0  0  0  3  0  0  0  0  0  0
  182.0920  178.7650  137.6490 C   0  0  0  0  0  0  0  0  0  0  0  0
  182.6980  179.3430  138.7880 C   0  0  0  0  0  0  0  0  0  0  0  0
  181.2300  179.5270  136.8530 C   0  0  0  0  0  3  0  0  0  0  0  0
  1  9  1  0  0  0  0
  1  6  1  0  0  0  0
  2 12  1  0  0  0  0
  3  2  1  0  0  0  0
  3  9  2  0  0  0  0
  4  1  2  0  0  0  0
  5 23  1  6  0  0  0
  5  8  1  0  0  0  0
  7  5  1  0  0  0  0
  7 10  1  0  0  0  0
  8  2  1  0  0  0  0
 10  3  1  0  0  0  0
 11 10  2  0  0  0  0
 11  4  1  0  0  0  0
 12 17  2  0  0  0  0
 12 14  1  0  0  0  0
 13 15  1  0  0  0  0
 14 13  2  0  0  0  0
 16 15  2  0  0  0  0
 17 16  1  0  0  0  0
 18 20  1  0  0  0  0
 18 17  1  0  0  0  0
 19 20  1  0  0  0  0
 22 23  1  0  0  0  0
 22 21  2  0  0  0  0
 24 28  1  0  0  0  0
 26 29  1  0  0  0  0
 27 24  1  0  0  0  0
 28 25  2  0  0  0  0
 29 30  2  0  0  0  0
 30 25  1  0  0  0  0
 30 22  1  0  0  0  0
 31 24  2  0  0  0  0
 31 29  1  0  0  0  0
M  END
>  <MODEL>
9

>  <REMARK>
 VINA RESULT:      -7.2      2.353      4.695
  Name = 
  5 active torsions:
  status: ('A' for Active; 'I' for Inactive)
    1  A    between atoms: N_4  and  C_5
    2  A    between atoms: C_9  and  C_22
    3  A    between atoms: C_15  and  N_23
    4  A    between atoms: C_29  and  O_31
    5  A    between atoms: C_30  and  O_31
                            x       y       z     vdW  Elec       q    Type
                         _______ _______ _______ _____ _____    ______ ____

>  <TORSDO>
F 5

$$$$
