=
 OpenBabel11052413063D

 31 35  0  0  1  0  0  0  0  0999 V2000
  191.6070  177.4800  140.9220 C   0  0  0  0  0  0  0  0  0  0  0  0
  189.3060  177.7800  143.9620 C   0  0  1  0  0  3  0  0  0  0  0  0
  184.9920  178.7680  141.0580 O   0  0  0  0  0  0  0  0  0  0  0  0
  184.6280  178.4870  142.2320 C   0  0  0  0  0  0  0  0  0  0  0  0
  189.8040  177.6380  142.5420 C   0  0  0  0  0  0  0  0  0  0  0  0
  190.6850  177.5920  139.8790 C   0  0  0  0  0  3  0  0  0  0  0  0
  186.9890  177.8400  142.9640 C   0  0  0  0  0  0  0  0  0  0  0  0
  192.9940  177.3400  140.6340 N   0  0  0  0  0  1  0  0  0  0  0  0
  187.4900  177.9620  141.7680 N   0  0  0  0  0  0  0  0  0  0  0  0
  187.8410  177.3500  144.1040 C   0  0  0  0  0  2  0  0  0  0  0  0
  185.5910  178.0400  143.1980 N   0  0  0  0  0  2  0  0  0  0  0  0
  191.1720  177.5180  142.2490 C   0  0  0  0  0  3  0  0  0  0  0  0
  188.8820  177.7690  141.4870 C   0  0  0  0  0  0  0  0  0  0  0  0
  189.3240  177.7430  140.1610 C   0  0  0  0  0  3  0  0  0  0  0  0
  180.4790  178.8600  143.2780 C   0  0  0  0  0  0  0  0  0  0  0  0
  182.2190  178.5400  141.6320 C   0  0  0  0  0  3  0  0  0  0  0  0
  183.7350  178.9130  144.9960 O   0  0  0  0  0  1  0  0  0  0  0  0
  179.1670  178.9760  143.5930 F   0  0  0  0  0  0  0  0  0  0  0  0
  180.8650  178.6580  141.9540 C   0  0  0  0  0  3  0  0  0  0  0  0
  182.8040  178.8250  143.9670 C   0  0  0  0  0  0  0  0  0  0  0  0
  183.2050  178.6200  142.6270 C   0  0  0  0  0  0  0  0  0  0  0  0
  181.4470  178.9430  144.2820 C   0  0  0  0  0  3  0  0  0  0  0  0
  190.1650  177.0670  144.9740 C   0  0  0  0  0  0  0  0  0  0  0  0
  192.0590  175.6210  145.4570 C   0  0  0  0  0  3  0  0  0  0  0  0
  191.2280  176.2600  144.5370 C   0  0  0  0  0  3  0  0  0  0  0  0
  191.8440  175.7890  146.8250 C   0  0  0  0  0  3  0  0  0  0  0  0
  190.7920  176.5900  147.2730 C   0  0  0  0  0  3  0  0  0  0  0  0
  189.9320  177.2210  146.3600 C   0  0  0  0  0  0  0  0  0  0  0  0
  188.9650  178.3420  148.3740 C   0  0  0  0  0  2  0  0  0  0  0  0
  187.9500  177.3580  147.8460 C   0  0  0  0  0  2  0  0  0  0  0  0
  188.8370  178.1190  146.8750 C   0  0  0  0  0  3  0  0  0  0  0  0
  1 12  1  0  0  0  0
  2 10  1  0  0  0  0
  2 23  1  1  0  0  0
  3  4  2  0  0  0  0
  4 21  1  0  0  0  0
  4 11  1  0  0  0  0
  5  2  1  0  0  0  0
  6 14  1  0  0  0  0
  6  1  2  0  0  0  0
  7 11  1  0  0  0  0
  7 10  1  0  0  0  0
  8  1  1  0  0  0  0
  9  7  2  0  0  0  0
 12  5  2  0  0  0  0
 13  9  1  0  0  0  0
 13  5  1  0  0  0  0
 14 13  2  0  0  0  0
 15 18  1  0  0  0  0
 15 22  1  0  0  0  0
 16 19  1  0  0  0  0
 16 21  2  0  0  0  0
 19 15  2  0  0  0  0
 20 22  2  0  0  0  0
 20 17  1  0  0  0  0
 21 20  1  0  0  0  0
 23 28  1  0  0  0  0
 24 26  2  0  0  0  0
 25 23  2  0  0  0  0
 25 24  1  0  0  0  0
 26 27  1  0  0  0  0
 28 31  1  0  0  0  0
 28 27  2  0  0  0  0
 30 29  1  0  0  0  0
 31 30  1  0  0  0  0
 31 29  1  0  0  0  0
M  END
>  <MODEL>
1

>  <REMARK>
 VINA RESULT:     -11.1      0.000      0.000
  Name = 
  3 active torsions:
  status: ('A' for Active; 'I' for Inactive)
    1  A    between atoms: C_4  and  C_5
    2  A    between atoms: C_9  and  C_22
    3  A    between atoms: C_30  and  C_31
                            x       y       z     vdW  Elec       q    Type
                         _______ _______ _______ _____ _____    ______ ____

>  <TORSDO>
F 3

$$$$
=
 OpenBabel11052413063D

 31 35  0  0  1  0  0  0  0  0999 V2000
  184.2760  178.7970  144.3170 C   0  0  0  0  0  0  0  0  0  0  0  0
  187.7650  177.2320  144.3750 C   0  0  1  0  0  3  0  0  0  0  0  0
  188.3050  177.3530  139.1100 O   0  0  0  0  0  0  0  0  0  0  0  0
  189.4350  177.1290  139.6230 C   0  0  0  0  0  0  0  0  0  0  0  0
  186.5150  177.9470  143.9140 C   0  0  0  0  0  0  0  0  0  0  0  0
  184.1350  179.0830  142.9570 C   0  0  0  0  0  3  0  0  0  0  0  0
  188.5890  177.5040  142.0050 C   0  0  0  0  0  0  0  0  0  0  0  0
  183.2120  179.0840  145.2180 N   0  0  0  0  0  1  0  0  0  0  0  0
  187.4050  177.8860  141.6190 N   0  0  0  0  0  0  0  0  0  0  0  0
  188.9630  177.5230  143.4620 C   0  0  0  0  0  2  0  0  0  0  0  0
  189.6040  177.1830  141.0470 N   0  0  0  0  0  2  0  0  0  0  0  0
  185.4540  178.2170  144.7930 C   0  0  0  0  0  3  0  0  0  0  0  0
  186.3600  178.2200  142.5420 C   0  0  0  0  0  0  0  0  0  0  0  0
  185.1740  178.7890  142.0690 C   0  0  0  0  0  3  0  0  0  0  0  0
  192.7380  176.1570  137.0550 C   0  0  0  0  0  0  0  0  0  0  0  0
  190.3620  176.2980  137.4740 C   0  0  0  0  0  3  0  0  0  0  0  0
  192.2290  177.4790  140.4540 O   0  0  0  0  0  1  0  0  0  0  0  0
  193.7690  175.8460  136.2340 F   0  0  0  0  0  0  0  0  0  0  0  0
  191.4250  175.9780  136.6250 C   0  0  0  0  0  3  0  0  0  0  0  0
  191.9340  176.9820  139.1890 C   0  0  0  0  0  0  0  0  0  0  0  0
  190.5980  176.8040  138.7620 C   0  0  0  0  0  0  0  0  0  0  0  0
  192.9910  176.6580  138.3340 C   0  0  0  0  0  3  0  0  0  0  0  0
  188.1180  177.5080  145.8130 C   0  0  0  0  0  0  0  0  0  0  0  0
  187.4430  178.2710  148.0210 C   0  0  0  0  0  3  0  0  0  0  0  0
  187.1480  178.0440  146.6760 C   0  0  0  0  0  3  0  0  0  0  0  0
  188.7060  177.9570  148.5210 C   0  0  0  0  0  3  0  0  0  0  0  0
  189.6790  177.4220  147.6740 C   0  0  0  0  0  3  0  0  0  0  0  0
  189.4070  177.2090  146.3130 C   0  0  0  0  0  0  0  0  0  0  0  0
  191.7370  176.3100  146.2180 C   0  0  0  0  0  2  0  0  0  0  0  0
  191.6560  177.5140  145.3120 C   0  0  0  0  0  2  0  0  0  0  0  0
  190.4610  176.5840  145.4370 C   0  0  0  0  0  3  0  0  0  0  0  0
  1 12  1  0  0  0  0
  1  8  1  0  0  0  0
  2 23  1  1  0  0  0
  3  4  2  0  0  0  0
  4 11  1  0  0  0  0
  5  2  1  0  0  0  0
  5 12  2  0  0  0  0
  6  1  2  0  0  0  0
  7 10  1  0  0  0  0
  9  7  2  0  0  0  0
  9 13  1  0  0  0  0
 10  2  1  0  0  0  0
 11  7  1  0  0  0  0
 13  5  1  0  0  0  0
 14 13  2  0  0  0  0
 14  6  1  0  0  0  0
 15 22  1  0  0  0  0
 16 21  2  0  0  0  0
 18 15  1  0  0  0  0
 19 15  2  0  0  0  0
 19 16  1  0  0  0  0
 20 17  1  0  0  0  0
 21 20  1  0  0  0  0
 21  4  1  0  0  0  0
 22 20  2  0  0  0  0
 23 28  2  0  0  0  0
 23 25  1  0  0  0  0
 24 26  1  0  0  0  0
 25 24  2  0  0  0  0
 27 26  2  0  0  0  0
 28 27  1  0  0  0  0
 30 31  1  0  0  0  0
 30 29  1  0  0  0  0
 31 29  1  0  0  0  0
 31 28  1  0  0  0  0
M  END
>  <MODEL>
2

>  <REMARK>
 VINA RESULT:     -11.0      3.758      7.383
  Name = 
  3 active torsions:
  status: ('A' for Active; 'I' for Inactive)
    1  A    between atoms: C_4  and  C_5
    2  A    between atoms: C_9  and  C_22
    3  A    between atoms: C_30  and  C_31
                            x       y       z     vdW  Elec       q    Type
                         _______ _______ _______ _____ _____    ______ ____

>  <TORSDO>
F 3

$$$$
=
 OpenBabel11052413063D

 31 35  0  0  1  0  0  0  0  0999 V2000
  187.2920  178.3120  136.6560 C   0  0  0  0  0  0  0  0  0  0  0  0
  185.0230  178.0980  139.7270 C   0  0  1  0  0  3  0  0  0  0  0  0
  189.0540  177.6320  143.1270 O   0  0  0  0  0  0  0  0  0  0  0  0
  188.0080  177.8960  143.7800 C   0  0  0  0  0  0  0  0  0  0  0  0
  186.2410  178.2530  138.8450 C   0  0  0  0  0  0  0  0  0  0  0  0
  188.5530  178.3280  137.2580 C   0  0  0  0  0  3  0  0  0  0  0  0
  186.6170  178.2930  141.6730 C   0  0  0  0  0  0  0  0  0  0  0  0
  187.1810  178.3350  135.2380 N   0  0  0  0  0  1  0  0  0  0  0  0
  187.6370  178.1750  140.8710 N   0  0  0  0  0  0  0  0  0  0  0  0
  185.2600  178.6540  141.1370 C   0  0  0  0  0  2  0  0  0  0  0  0
  186.7880  178.2120  143.0920 N   0  0  0  0  0  2  0  0  0  0  0  0
  186.1400  178.2580  137.4450 C   0  0  0  0  0  3  0  0  0  0  0  0
  187.5140  178.2510  139.4450 C   0  0  0  0  0  0  0  0  0  0  0  0
  188.6630  178.2920  138.6510 C   0  0  0  0  0  3  0  0  0  0  0  0
  187.9610  177.8770  148.0750 C   0  0  0  0  0  0  0  0  0  0  0  0
  186.8640  178.2530  145.9550 C   0  0  0  0  0  3  0  0  0  0  0  0
  190.3470  177.1190  145.3760 O   0  0  0  0  0  1  0  0  0  0  0  0
  187.9310  177.8750  149.4290 F   0  0  0  0  0  0  0  0  0  0  0  0
  186.8300  178.2510  147.3510 C   0  0  0  0  0  3  0  0  0  0  0  0
  189.1680  177.4990  146.0050 C   0  0  0  0  0  0  0  0  0  0  0  0
  188.0260  177.8780  145.2620 C   0  0  0  0  0  0  0  0  0  0  0  0
  189.1260  177.5010  147.4030 C   0  0  0  0  0  3  0  0  0  0  0  0
  183.7700  178.6860  139.1310 C   0  0  0  0  0  0  0  0  0  0  0  0
  182.4740  180.6480  138.5120 C   0  0  0  0  0  3  0  0  0  0  0  0
  183.6080  180.0810  139.0940 C   0  0  0  0  0  3  0  0  0  0  0  0
  181.4940  179.8300  137.9530 C   0  0  0  0  0  3  0  0  0  0  0  0
  181.6430  178.4420  137.9820 C   0  0  0  0  0  3  0  0  0  0  0  0
  182.7660  177.8540  138.5840 C   0  0  0  0  0  0  0  0  0  0  0  0
  183.3800  175.8750  137.1850 C   0  0  0  0  0  2  0  0  0  0  0  0
  181.9290  175.7460  137.5800 C   0  0  0  0  0  2  0  0  0  0  0  0
  182.9230  176.3560  138.5550 C   0  0  0  0  0  3  0  0  0  0  0  0
  1  6  2  0  0  0  0
  1 12  1  0  0  0  0
  2 23  1  6  0  0  0
  2 10  1  0  0  0  0
  3  4  2  0  0  0  0
  4 21  1  0  0  0  0
  5 13  1  0  0  0  0
  5  2  1  0  0  0  0
  6 14  1  0  0  0  0
  7 11  1  0  0  0  0
  8  1  1  0  0  0  0
  9  7  2  0  0  0  0
 10  7  1  0  0  0  0
 11  4  1  0  0  0  0
 12  5  2  0  0  0  0
 13  9  1  0  0  0  0
 14 13  2  0  0  0  0
 15 18  1  0  0  0  0
 16 19  1  0  0  0  0
 17 20  1  0  0  0  0
 19 15  2  0  0  0  0
 20 22  2  0  0  0  0
 21 16  2  0  0  0  0
 21 20  1  0  0  0  0
 22 15  1  0  0  0  0
 24 25  2  0  0  0  0
 25 23  1  0  0  0  0
 26 27  2  0  0  0  0
 26 24  1  0  0  0  0
 27 28  1  0  0  0  0
 28 23  2  0  0  0  0
 29 30  1  0  0  0  0
 29 31  1  0  0  0  0
 30 31  1  0  0  0  0
 31 28  1  0  0  0  0
M  END
>  <MODEL>
3

>  <REMARK>
 VINA RESULT:     -10.2      3.812      8.096
  Name = 
  3 active torsions:
  status: ('A' for Active; 'I' for Inactive)
    1  A    between atoms: C_4  and  C_5
    2  A    between atoms: C_9  and  C_22
    3  A    between atoms: C_30  and  C_31
                            x       y       z     vdW  Elec       q    Type
                         _______ _______ _______ _____ _____    ______ ____

>  <TORSDO>
F 3

$$$$
=
 OpenBabel11052413063D

 31 35  0  0  1  0  0  0  0  0999 V2000
  191.4940  176.3680  146.3490 C   0  0  0  0  0  0  0  0  0  0  0  0
  188.5200  177.9990  144.5820 C   0  0  1  0  0  3  0  0  0  0  0  0
  190.2620  176.7770  139.7340 O   0  0  0  0  0  0  0  0  0  0  0  0
  189.0560  177.1340  139.6470 C   0  0  0  0  0  0  0  0  0  0  0  0
  189.7550  177.1710  144.8550 C   0  0  0  0  0  0  0  0  0  0  0  0
  192.1660  175.7970  145.2660 C   0  0  0  0  0  3  0  0  0  0  0  0
  188.7580  177.2520  142.1830 C   0  0  0  0  0  0  0  0  0  0  0  0
  192.0310  176.2520  147.6610 N   0  0  0  0  0  1  0  0  0  0  0  0
  189.9400  176.7660  142.4340 N   0  0  0  0  0  0  0  0  0  0  0  0
  187.8000  177.5520  143.3030 C   0  0  0  0  0  2  0  0  0  0  0  0
  188.2920  177.3890  140.8360 N   0  0  0  0  0  2  0  0  0  0  0  0
  190.3010  177.0660  146.1440 C   0  0  0  0  0  3  0  0  0  0  0  0
  190.4460  176.6090  143.7650 C   0  0  0  0  0  0  0  0  0  0  0  0
  191.6460  175.9230  143.9740 C   0  0  0  0  0  3  0  0  0  0  0  0
  187.1760  177.5130  135.8050 C   0  0  0  0  0  0  0  0  0  0  0  0
  187.7730  176.1950  137.7410 C   0  0  0  0  0  3  0  0  0  0  0  0
  189.0560  179.6520  138.1370 O   0  0  0  0  0  1  0  0  0  0  0  0
  186.5770  177.6160  134.5940 F   0  0  0  0  0  0  0  0  0  0  0  0
  187.1540  176.3000  136.4920 C   0  0  0  0  0  3  0  0  0  0  0  0
  188.4330  178.5250  137.6150 C   0  0  0  0  0  0  0  0  0  0  0  0
  188.4170  177.2990  138.3200 C   0  0  0  0  0  0  0  0  0  0  0  0
  187.8130  178.6220  136.3660 C   0  0  0  0  0  3  0  0  0  0  0  0
  187.5580  178.0440  145.7400 C   0  0  0  0  0  0  0  0  0  0  0  0
  187.1820  178.0800  148.1430 C   0  0  0  0  0  3  0  0  0  0  0  0
  188.0520  178.0010  147.0550 C   0  0  0  0  0  3  0  0  0  0  0  0
  185.8110  178.2120  147.9300 C   0  0  0  0  0  3  0  0  0  0  0  0
  185.3060  178.2590  146.6290 C   0  0  0  0  0  3  0  0  0  0  0  0
  186.1650  178.1570  145.5230 C   0  0  0  0  0  0  0  0  0  0  0  0
  185.1250  179.6760  143.8330 C   0  0  0  0  0  2  0  0  0  0  0  0
  184.1190  178.6110  144.1970 C   0  0  0  0  0  2  0  0  0  0  0  0
  185.5960  178.2610  144.1320 C   0  0  0  0  0  3  0  0  0  0  0  0
  1  8  1  0  0  0  0
  2  5  1  0  0  0  0
  2 23  1  1  0  0  0
  4  3  2  0  0  0  0
  4 11  1  0  0  0  0
  5 12  2  0  0  0  0
  6  1  2  0  0  0  0
  7  9  2  0  0  0  0
  7 10  1  0  0  0  0
  9 13  1  0  0  0  0
 10  2  1  0  0  0  0
 11  7  1  0  0  0  0
 12  1  1  0  0  0  0
 13 14  2  0  0  0  0
 13  5  1  0  0  0  0
 14  6  1  0  0  0  0
 15 22  2  0  0  0  0
 15 19  1  0  0  0  0
 16 21  1  0  0  0  0
 18 15  1  0  0  0  0
 19 16  2  0  0  0  0
 20 17  1  0  0  0  0
 20 21  2  0  0  0  0
 21  4  1  0  0  0  0
 22 20  1  0  0  0  0
 23 25  1  0  0  0  0
 25 24  2  0  0  0  0
 26 24  1  0  0  0  0
 27 26  2  0  0  0  0
 28 23  2  0  0  0  0
 28 27  1  0  0  0  0
 29 31  1  0  0  0  0
 29 30  1  0  0  0  0
 31 30  1  0  0  0  0
 31 28  1  0  0  0  0
M  END
>  <MODEL>
4

>  <REMARK>
 VINA RESULT:     -10.2      3.516      6.135
  Name = 
  3 active torsions:
  status: ('A' for Active; 'I' for Inactive)
    1  A    between atoms: C_4  and  C_5
    2  A    between atoms: C_9  and  C_22
    3  A    between atoms: C_30  and  C_31
                            x       y       z     vdW  Elec       q    Type
                         _______ _______ _______ _____ _____    ______ ____

>  <TORSDO>
F 3

$$$$
=
 OpenBabel11052413063D

 31 35  0  0  1  0  0  0  0  0999 V2000
  187.2070  178.0060  147.2850 C   0  0  0  0  0  0  0  0  0  0  0  0
  187.5550  177.4910  143.5110 C   0  0  1  0  0  3  0  0  0  0  0  0
  182.4810  178.6270  142.5190 O   0  0  0  0  0  0  0  0  0  0  0  0
  183.1150  178.6460  141.4300 C   0  0  0  0  0  0  0  0  0  0  0  0
  187.0180  177.8940  144.8660 C   0  0  0  0  0  0  0  0  0  0  0  0
  185.8890  178.4620  147.3700 C   0  0  0  0  0  3  0  0  0  0  0  0
  185.3820  178.3700  142.5780 C   0  0  0  0  0  0  0  0  0  0  0  0
  187.9780  177.8310  148.4690 N   0  0  0  0  0  1  0  0  0  0  0  0
  184.8850  178.4650  143.7780 N   0  0  0  0  0  0  0  0  0  0  0  0
  186.8670  178.2520  142.3710 C   0  0  0  0  0  2  0  0  0  0  0  0
  184.5440  178.5080  141.4250 N   0  0  0  0  0  2  0  0  0  0  0  0
  187.7660  177.7080  146.0400 C   0  0  0  0  0  3  0  0  0  0  0  0
  185.6850  178.3360  144.9600 C   0  0  0  0  0  0  0  0  0  0  0  0
  185.1270  178.6210  146.2090 C   0  0  0  0  0  3  0  0  0  0  0  0
  180.9460  179.0520  137.7450 C   0  0  0  0  0  0  0  0  0  0  0  0
  181.1270  178.2160  140.0050 C   0  0  0  0  0  3  0  0  0  0  0  0
  184.1800  180.1330  139.1330 O   0  0  0  0  0  1  0  0  0  0  0  0
  180.2500  179.1720  136.5890 F   0  0  0  0  0  0  0  0  0  0  0  0
  180.4070  178.3390  138.8140 C   0  0  0  0  0  3  0  0  0  0  0  0
  182.9310  179.5280  139.0550 C   0  0  0  0  0  0  0  0  0  0  0  0
  182.3930  178.8060  140.1450 C   0  0  0  0  0  0  0  0  0  0  0  0
  182.2050  179.6450  137.8660 C   0  0  0  0  0  3  0  0  0  0  0  0
  189.0530  177.6120  143.3980 C   0  0  0  0  0  0  0  0  0  0  0  0
  191.2090  177.9410  144.4740 C   0  0  0  0  0  3  0  0  0  0  0  0
  189.8180  177.8630  144.5490 C   0  0  0  0  0  3  0  0  0  0  0  0
  191.8520  177.7610  143.2490 C   0  0  0  0  0  3  0  0  0  0  0  0
  191.1030  177.5100  142.0980 C   0  0  0  0  0  3  0  0  0  0  0  0
  189.7010  177.4520  142.1520 C   0  0  0  0  0  0  0  0  0  0  0  0
  189.8540  176.7530  139.7570 C   0  0  0  0  0  2  0  0  0  0  0  0
  189.2510  178.1350  139.8110 C   0  0  0  0  0  2  0  0  0  0  0  0
  188.9250  177.1290  140.9020 C   0  0  0  0  0  3  0  0  0  0  0  0
  1  6  1  0  0  0  0
  1  8  1  0  0  0  0
  2 23  1  1  0  0  0
  2  5  1  0  0  0  0
  4  3  2  0  0  0  0
  5 13  2  0  0  0  0
  5 12  1  0  0  0  0
  7  9  2  0  0  0  0
  9 13  1  0  0  0  0
 10  7  1  0  0  0  0
 10  2  1  0  0  0  0
 11  4  1  0  0  0  0
 11  7  1  0  0  0  0
 12  1  2  0  0  0  0
 13 14  1  0  0  0  0
 14  6  2  0  0  0  0
 15 22  2  0  0  0  0
 15 19  1  0  0  0  0
 16 21  1  0  0  0  0
 18 15  1  0  0  0  0
 19 16  2  0  0  0  0
 20 17  1  0  0  0  0
 20 21  2  0  0  0  0
 21  4  1  0  0  0  0
 22 20  1  0  0  0  0
 23 25  1  0  0  0  0
 24 25  2  0  0  0  0
 26 24  1  0  0  0  0
 27 28  1  0  0  0  0
 27 26  2  0  0  0  0
 28 23  2  0  0  0  0
 29 30  1  0  0  0  0
 29 31  1  0  0  0  0
 30 31  1  0  0  0  0
 31 28  1  0  0  0  0
M  END
>  <MODEL>
5

>  <REMARK>
 VINA RESULT:      -9.9      2.731      5.223
  Name = 
  3 active torsions:
  status: ('A' for Active; 'I' for Inactive)
    1  A    between atoms: C_4  and  C_5
    2  A    between atoms: C_9  and  C_22
    3  A    between atoms: C_30  and  C_31
                            x       y       z     vdW  Elec       q    Type
                         _______ _______ _______ _____ _____    ______ ____

>  <TORSDO>
F 3

$$$$
=
 OpenBabel11052413063D

 31 35  0  0  1  0  0  0  0  0999 V2000
  188.3890  177.6710  147.5520 C   0  0  0  0  0  0  0  0  0  0  0  0
  187.2280  178.3920  143.9810 C   0  0  1  0  0  3  0  0  0  0  0  0
  191.7560  176.7490  141.7860 O   0  0  0  0  0  0  0  0  0  0  0  0
  190.8860  176.8500  140.8790 C   0  0  0  0  0  0  0  0  0  0  0  0
  188.0160  177.8710  145.1610 C   0  0  0  0  0  0  0  0  0  0  0  0
  189.6270  177.0690  147.3130 C   0  0  0  0  0  3  0  0  0  0  0  0
  189.0020  177.3220  142.5400 C   0  0  0  0  0  0  0  0  0  0  0  0
  187.9440  177.8750  148.8880 N   0  0  0  0  0  1  0  0  0  0  0  0
  189.7520  177.1190  143.5850 N   0  0  0  0  0  0  0  0  0  0  0  0
  187.5340  177.6130  142.6950 C   0  0  0  0  0  2  0  0  0  0  0  0
  189.5230  177.1450  141.2180 N   0  0  0  0  0  2  0  0  0  0  0  0
  187.5930  178.0850  146.4820 C   0  0  0  0  0  3  0  0  0  0  0  0
  189.2720  177.2810  144.9260 C   0  0  0  0  0  0  0  0  0  0  0  0
  190.0710  176.8800  146.0010 C   0  0  0  0  0  3  0  0  0  0  0  0
  191.8760  176.3100  136.7350 C   0  0  0  0  0  0  0  0  0  0  0  0
  190.2580  176.3480  138.5300 C   0  0  0  0  0  3  0  0  0  0  0  0
  193.6290  177.1280  139.8680 O   0  0  0  0  0  1  0  0  0  0  0  0
  192.1720  176.1360  135.4250 F   0  0  0  0  0  0  0  0  0  0  0  0
  190.5620  176.1700  137.1780 C   0  0  0  0  0  3  0  0  0  0  0  0
  192.5920  176.8100  138.9980 C   0  0  0  0  0  0  0  0  0  0  0  0
  191.2620  176.6710  139.4570 C   0  0  0  0  0  0  0  0  0  0  0  0
  192.8880  176.6290  137.6430 C   0  0  0  0  0  3  0  0  0  0  0  0
  185.7420  178.4420  144.2260 C   0  0  0  0  0  0  0  0  0  0  0  0
  183.8890  178.7160  145.7770 C   0  0  0  0  0  3  0  0  0  0  0  0
  185.2600  178.6290  145.5320 C   0  0  0  0  0  3  0  0  0  0  0  0
  182.9850  178.6280  144.7180 C   0  0  0  0  0  3  0  0  0  0  0  0
  183.4510  178.4450  143.4150 C   0  0  0  0  0  3  0  0  0  0  0  0
  184.8260  178.3310  143.1550 C   0  0  0  0  0  0  0  0  0  0  0  0
  184.8840  179.3780  140.8860 C   0  0  0  0  0  2  0  0  0  0  0  0
  184.1090  178.0860  140.7930 C   0  0  0  0  0  2  0  0  0  0  0  0
  185.3000  178.1840  141.7320 C   0  0  0  0  0  3  0  0  0  0  0  0
  1  8  1  0  0  0  0
  2 23  1  1  0  0  0
  2  5  1  0  0  0  0
  4 11  1  0  0  0  0
  4  3  2  0  0  0  0
  5 12  1  0  0  0  0
  6  1  1  0  0  0  0
  7 10  1  0  0  0  0
  7  9  2  0  0  0  0
  9 13  1  0  0  0  0
 10  2  1  0  0  0  0
 11  7  1  0  0  0  0
 12  1  2  0  0  0  0
 13  5  2  0  0  0  0
 13 14  1  0  0  0  0
 14  6  2  0  0  0  0
 15 19  2  0  0  0  0
 15 22  1  0  0  0  0
 16 21  2  0  0  0  0
 18 15  1  0  0  0  0
 19 16  1  0  0  0  0
 20 21  1  0  0  0  0
 20 17  1  0  0  0  0
 21  4  1  0  0  0  0
 22 20  2  0  0  0  0
 23 25  1  0  0  0  0
 25 24  2  0  0  0  0
 26 24  1  0  0  0  0
 27 26  2  0  0  0  0
 28 27  1  0  0  0  0
 28 23  2  0  0  0  0
 29 31  1  0  0  0  0
 30 29  1  0  0  0  0
 30 31  1  0  0  0  0
 31 28  1  0  0  0  0
M  END
>  <MODEL>
6

>  <REMARK>
 VINA RESULT:      -9.8      4.024      8.199
  Name = 
  3 active torsions:
  status: ('A' for Active; 'I' for Inactive)
    1  A    between atoms: C_4  and  C_5
    2  A    between atoms: C_9  and  C_22
    3  A    between atoms: C_30  and  C_31
                            x       y       z     vdW  Elec       q    Type
                         _______ _______ _______ _____ _____    ______ ____

>  <TORSDO>
F 3

$$$$
=
 OpenBabel11052413063D

 31 35  0  0  1  0  0  0  0  0999 V2000
  188.0470  177.9710  147.4650 C   0  0  0  0  0  0  0  0  0  0  0  0
  187.5440  177.2460  143.7440 C   0  0  1  0  0  3  0  0  0  0  0  0
  182.4570  178.7110  143.7710 O   0  0  0  0  0  0  0  0  0  0  0  0
  182.8430  178.6280  142.5740 C   0  0  0  0  0  0  0  0  0  0  0  0
  187.3370  177.7550  145.1520 C   0  0  0  0  0  0  0  0  0  0  0  0
  186.8100  178.5290  147.7960 C   0  0  0  0  0  3  0  0  0  0  0  0
  185.2810  178.2390  143.2340 C   0  0  0  0  0  0  0  0  0  0  0  0
  189.0410  177.7980  148.4680 N   0  0  0  0  0  1  0  0  0  0  0  0
  185.0610  178.4300  144.5030 N   0  0  0  0  0  0  0  0  0  0  0  0
  186.6770  177.9990  142.7270 C   0  0  0  0  0  2  0  0  0  0  0  0
  184.2260  178.3830  142.2760 N   0  0  0  0  0  2  0  0  0  0  0  0
  188.3050  177.5710  146.1520 C   0  0  0  0  0  3  0  0  0  0  0  0
  186.0860  178.2990  145.4960 C   0  0  0  0  0  0  0  0  0  0  0  0
  185.8280  178.6870  146.8140 C   0  0  0  0  0  3  0  0  0  0  0  0
  180.0940  178.9980  139.2950 C   0  0  0  0  0  0  0  0  0  0  0  0
  182.1130  178.0890  140.2620 C   0  0  0  0  0  3  0  0  0  0  0  0
  180.4310  180.2950  142.7240 O   0  0  0  0  0  1  0  0  0  0  0  0
  179.2360  179.1050  138.2520 F   0  0  0  0  0  0  0  0  0  0  0  0
  181.2280  178.1960  139.1860 C   0  0  0  0  0  3  0  0  0  0  0  0
  180.7200  179.5880  141.5620 C   0  0  0  0  0  0  0  0  0  0  0  0
  181.8740  178.7780  141.4620 C   0  0  0  0  0  0  0  0  0  0  0  0
  179.8410  179.6920  140.4800 C   0  0  0  0  0  3  0  0  0  0  0  0
  188.9870  177.2480  143.3100 C   0  0  0  0  0  0  0  0  0  0  0  0
  191.3290  176.8650  143.8430 C   0  0  0  0  0  3  0  0  0  0  0  0
  189.9900  176.9070  144.2330 C   0  0  0  0  0  3  0  0  0  0  0  0
  191.6800  177.1550  142.5250 C   0  0  0  0  0  3  0  0  0  0  0  0
  190.6940  177.4940  141.5970 C   0  0  0  0  0  3  0  0  0  0  0  0
  189.3440  177.5640  141.9790 C   0  0  0  0  0  0  0  0  0  0  0  0
  188.5820  177.1660  139.6320 C   0  0  0  0  0  2  0  0  0  0  0  0
  188.9270  178.6280  139.7770 C   0  0  0  0  0  2  0  0  0  0  0  0
  188.2980  177.8830  140.9430 C   0  0  0  0  0  3  0  0  0  0  0  0
  1  6  1  0  0  0  0
  1  8  1  0  0  0  0
  2 23  1  6  0  0  0
  2  5  1  0  0  0  0
  4  3  2  0  0  0  0
  5 13  2  0  0  0  0
  5 12  1  0  0  0  0
  7  9  2  0  0  0  0
  9 13  1  0  0  0  0
 10  7  1  0  0  0  0
 10  2  1  0  0  0  0
 11  4  1  0  0  0  0
 11  7  1  0  0  0  0
 12  1  2  0  0  0  0
 13 14  1  0  0  0  0
 14  6  2  0  0  0  0
 15 22  1  0  0  0  0
 16 21  2  0  0  0  0
 18 15  1  0  0  0  0
 19 15  2  0  0  0  0
 19 16  1  0  0  0  0
 20 17  1  0  0  0  0
 21 20  1  0  0  0  0
 21  4  1  0  0  0  0
 22 20  2  0  0  0  0
 23 25  1  0  0  0  0
 24 25  2  0  0  0  0
 26 24  1  0  0  0  0
 27 28  1  0  0  0  0
 27 26  2  0  0  0  0
 28 23  2  0  0  0  0
 29 30  1  0  0  0  0
 29 31  1  0  0  0  0
 30 31  1  0  0  0  0
 31 28  1  0  0  0  0
M  END
>  <MODEL>
7

>  <REMARK>
 VINA RESULT:      -9.7      2.465      4.894
  Name = 
  3 active torsions:
  status: ('A' for Active; 'I' for Inactive)
    1  A    between atoms: C_4  and  C_5
    2  A    between atoms: C_9  and  C_22
    3  A    between atoms: C_30  and  C_31
                            x       y       z     vdW  Elec       q    Type
                         _______ _______ _______ _____ _____    ______ ____

>  <TORSDO>
F 3

$$$$
=
 OpenBabel11052413063D

 31 35  0  0  1  0  0  0  0  0999 V2000
  191.0680  177.4800  141.2810 C   0  0  0  0  0  0  0  0  0  0  0  0
  187.8500  178.5310  143.0590 C   0  0  1  0  0  3  0  0  0  0  0  0
  185.1710  179.2770  138.5540 O   0  0  0  0  0  0  0  0  0  0  0  0
  184.3490  179.2540  139.5090 C   0  0  0  0  0  0  0  0  0  0  0  0
  188.8270  178.0820  141.9960 C   0  0  0  0  0  0  0  0  0  0  0  0
  190.6430  177.4620  139.9500 C   0  0  0  0  0  3  0  0  0  0  0  0
  186.1270  178.5780  141.2160 C   0  0  0  0  0  0  0  0  0  0  0  0
  192.4230  177.1810  141.5980 N   0  0  0  0  0  1  0  0  0  0  0  0
  187.0590  178.4310  140.3180 N   0  0  0  0  0  0  0  0  0  0  0  0
  186.3960  178.2500  142.6590 C   0  0  0  0  0  2  0  0  0  0  0  0
  184.7910  178.9260  140.8350 N   0  0  0  0  0  2  0  0  0  0  0  0
  190.1690  177.8040  142.2990 C   0  0  0  0  0  3  0  0  0  0  0  0
  188.4090  178.0810  140.6520 C   0  0  0  0  0  0  0  0  0  0  0  0
  189.3160  177.7690  139.6360 C   0  0  0  0  0  3  0  0  0  0  0  0
  180.2350  180.2610  138.7960 C   0  0  0  0  0  0  0  0  0  0  0  0
  182.5840  180.8260  138.7480 C   0  0  0  0  0  3  0  0  0  0  0  0
  182.1510  177.3950  140.0880 O   0  0  0  0  0  1  0  0  0  0  0  0
  178.9420  180.5930  138.5650 F   0  0  0  0  0  0  0  0  0  0  0  0
  181.2510  181.1700  138.5080 C   0  0  0  0  0  3  0  0  0  0  0  0
  181.8810  178.6540  139.5640 C   0  0  0  0  0  0  0  0  0  0  0  0
  182.9190  179.5690  139.2750 C   0  0  0  0  0  0  0  0  0  0  0  0
  180.5500  179.0060  139.3220 C   0  0  0  0  0  3  0  0  0  0  0  0
  188.1410  177.9590  144.4220 C   0  0  0  0  0  0  0  0  0  0  0  0
  189.7570  177.1110  146.0300 C   0  0  0  0  0  3  0  0  0  0  0  0
  189.4580  177.6060  144.7600 C   0  0  0  0  0  3  0  0  0  0  0  0
  188.7450  176.9710  146.9790 C   0  0  0  0  0  3  0  0  0  0  0  0
  187.4320  177.3200  146.6570 C   0  0  0  0  0  3  0  0  0  0  0  0
  187.1100  177.7970  145.3760 C   0  0  0  0  0  0  0  0  0  0  0  0
  185.3680  179.5590  145.7040 C   0  0  0  0  0  2  0  0  0  0  0  0
  184.8880  178.2880  146.3620 C   0  0  0  0  0  2  0  0  0  0  0  0
  185.6940  178.2120  145.0760 C   0  0  0  0  0  3  0  0  0  0  0  0
  1  8  1  0  0  0  0
  1 12  1  0  0  0  0
  2 23  1  1  0  0  0
  3  4  2  0  0  0  0
  4 11  1  0  0  0  0
  5 12  2  0  0  0  0
  5  2  1  0  0  0  0
  6  1  2  0  0  0  0
  7 10  1  0  0  0  0
  9 13  1  0  0  0  0
  9  7  2  0  0  0  0
 10  2  1  0  0  0  0
 11  7  1  0  0  0  0
 13  5  1  0  0  0  0
 14  6  1  0  0  0  0
 14 13  2  0  0  0  0
 15 22  1  0  0  0  0
 16 21  2  0  0  0  0
 18 15  1  0  0  0  0
 19 16  1  0  0  0  0
 19 15  2  0  0  0  0
 20 17  1  0  0  0  0
 21  4  1  0  0  0  0
 21 20  1  0  0  0  0
 22 20  2  0  0  0  0
 23 25  2  0  0  0  0
 23 28  1  0  0  0  0
 24 26  2  0  0  0  0
 25 24  1  0  0  0  0
 27 26  1  0  0  0  0
 28 27  2  0  0  0  0
 29 30  1  0  0  0  0
 31 28  1  0  0  0  0
 31 29  1  0  0  0  0
 31 30  1  0  0  0  0
M  END
>  <MODEL>
8

>  <REMARK>
 VINA RESULT:      -9.6      2.379      3.158
  Name = 
  3 active torsions:
  status: ('A' for Active; 'I' for Inactive)
    1  A    between atoms: C_4  and  C_5
    2  A    between atoms: C_9  and  C_22
    3  A    between atoms: C_30  and  C_31
                            x       y       z     vdW  Elec       q    Type
                         _______ _______ _______ _____ _____    ______ ____

>  <TORSDO>
F 3

$$$$
=
 OpenBabel11052413063D

 31 35  0  0  1  0  0  0  0  0999 V2000
  180.9810  179.8850  136.8330 C   0  0  0  0  0  0  0  0  0  0  0  0
  182.3500  176.8840  138.7690 C   0  0  1  0  0  3  0  0  0  0  0  0
  185.0580  179.8710  142.2010 O   0  0  0  0  0  0  0  0  0  0  0  0
  184.9990  178.6960  142.6530 C   0  0  0  0  0  0  0  0  0  0  0  0
  181.9630  178.2940  138.3840 C   0  0  0  0  0  0  0  0  0  0  0  0
  181.4590  180.9430  137.6090 C   0  0  0  0  0  3  0  0  0  0  0  0
  183.3970  177.9150  140.8210 C   0  0  0  0  0  0  0  0  0  0  0  0
  180.2360  180.1500  135.6500 N   0  0  0  0  0  1  0  0  0  0  0  0
  183.2530  179.1070  140.3160 N   0  0  0  0  0  0  0  0  0  0  0  0
  182.6150  176.7530  140.2750 C   0  0  0  0  0  2  0  0  0  0  0  0
  184.2000  177.7060  141.9880 N   0  0  0  0  0  2  0  0  0  0  0  0
  181.2440  178.5650  137.2090 C   0  0  0  0  0  3  0  0  0  0  0  0
  182.4580  179.3650  139.1510 C   0  0  0  0  0  0  0  0  0  0  0  0
  182.2030  180.6830  138.7640 C   0  0  0  0  0  3  0  0  0  0  0  0
  187.2700  177.5780  146.1230 C   0  0  0  0  0  0  0  0  0  0  0  0
  187.0120  177.7120  143.7240 C   0  0  0  0  0  3  0  0  0  0  0  0
  184.0280  179.1590  145.3850 O   0  0  0  0  0  1  0  0  0  0  0  0
  187.9980  177.2210  147.2080 F   0  0  0  0  0  0  0  0  0  0  0  0
  187.7650  177.3430  144.8420 C   0  0  0  0  0  3  0  0  0  0  0  0
  185.2640  178.5580  145.1760 C   0  0  0  0  0  0  0  0  0  0  0  0
  185.7570  178.3230  143.8710 C   0  0  0  0  0  0  0  0  0  0  0  0
  186.0230  178.1850  146.2890 C   0  0  0  0  0  3  0  0  0  0  0  0
  181.3590  175.8440  138.3150 C   0  0  0  0  0  0  0  0  0  0  0  0
  179.1480  174.8470  138.4920 C   0  0  0  0  0  3  0  0  0  0  0  0
  180.0940  175.7770  138.9230 C   0  0  0  0  0  3  0  0  0  0  0  0
  179.4520  173.9790  137.4440 C   0  0  0  0  0  3  0  0  0  0  0  0
  180.7040  174.0350  136.8300 C   0  0  0  0  0  3  0  0  0  0  0  0
  181.6760  174.9500  137.2670 C   0  0  0  0  0  0  0  0  0  0  0  0
  182.8900  175.8260  135.2650 C   0  0  0  0  0  2  0  0  0  0  0  0
  182.9050  174.3180  135.2070 C   0  0  0  0  0  2  0  0  0  0  0  0
  183.0000  175.0210  136.5510 C   0  0  0  0  0  3  0  0  0  0  0  0
  1 12  2  0  0  0  0
  1  6  1  0  0  0  0
  2 23  1  1  0  0  0
  2 10  1  0  0  0  0
  3  4  2  0  0  0  0
  4 21  1  0  0  0  0
  5  2  1  0  0  0  0
  5 13  2  0  0  0  0
  6 14  2  0  0  0  0
  7 11  1  0  0  0  0
  8  1  1  0  0  0  0
  9  7  2  0  0  0  0
 10  7  1  0  0  0  0
 11  4  1  0  0  0  0
 12  5  1  0  0  0  0
 13  9  1  0  0  0  0
 14 13  1  0  0  0  0
 15 22  1  0  0  0  0
 15 18  1  0  0  0  0
 16 21  2  0  0  0  0
 16 19  1  0  0  0  0
 19 15  2  0  0  0  0
 20 17  1  0  0  0  0
 20 22  2  0  0  0  0
 21 20  1  0  0  0  0
 23 25  1  0  0  0  0
 24 25  2  0  0  0  0
 26 24  1  0  0  0  0
 27 28  1  0  0  0  0
 27 26  2  0  0  0  0
 28 23  2  0  0  0  0
 29 31  1  0  0  0  0
 30 29  1  0  0  0  0
 30 31  1  0  0  0  0
 31 28  1  0  0  0  0
M  END
>  <MODEL>
9

>  <REMARK>
 VINA RESULT:      -9.5      4.687      9.607
  Name = 
  3 active torsions:
  status: ('A' for Active; 'I' for Inactive)
    1  A    between atoms: C_4  and  C_5
    2  A    between atoms: C_9  and  C_22
    3  A    between atoms: C_30  and  C_31
                            x       y       z     vdW  Elec       q    Type
                         _______ _______ _______ _____ _____    ______ ____

>  <TORSDO>
F 3

$$$$
