=
 OpenBabel11052414333D

 32 37  0  0  1  0  0  0  0  0999 V2000
  189.5870  178.0660  142.5290 C   0  0  0  0  0  0  0  0  0  0  0  0
  187.6760  177.6370  144.0640 C   0  0  1  0  0  3  0  0  0  0  0  0
  191.0400  178.0500  142.2420 C   0  0  0  0  0  3  0  0  0  0  0  0
  189.1520  177.7750  143.7790 C   0  0  0  0  0  0  0  0  0  0  0  0
  187.3270  177.9150  145.5420 C   0  0  1  0  0  3  0  0  0  0  0  0
  182.1150  179.2820  143.2350 O   0  0  0  0  0  0  0  0  0  0  0  0
  186.7940  178.4730  143.1200 C   0  0  1  0  0  3  0  0  0  0  0  0
  183.6830  178.7110  144.8920 N   0  0  0  0  0  2  0  0  0  0  0  0
  185.1210  178.6000  144.7610 C   0  0  1  0  0  3  0  0  0  0  0  0
  190.1300  177.2230  144.8060 C   0  0  2  0  0  3  0  0  0  0  0  0
  185.8180  177.7210  145.7830 C   0  0  0  0  0  2  0  0  0  0  0  0
  189.6590  177.4590  146.2420 C   0  0  0  0  0  2  0  0  0  0  0  0
  191.5150  177.8550  144.6510 C   0  0  0  0  0  2  0  0  0  0  0  0
  187.1720  178.1020  141.6960 C   0  0  0  0  0  2  0  0  0  0  0  0
  188.6290  178.5000  141.4270 C   0  0  2  0  0  3  0  0  0  0  0  0
  185.4050  178.1210  143.4080 N   0  0  1  0  0  0  0  0  0  0  0  0
  188.2000  177.0550  146.4560 C   0  0  1  0  0  3  0  0  0  0  0  0
  191.9410  177.9070  143.2140 C   0  0  0  0  0  3  0  0  0  0  0  0
  183.2920  178.9750  143.5580 C   0  0  0  0  0  0  0  0  0  0  0  0
  184.4160  178.8330  142.6040 C   0  0  0  0  0  2  0  0  0  0  0  0
  187.1810  177.8040  138.2330 C   0  0  1  0  0  3  0  0  0  0  0  0
  188.9460  175.1340  136.8550 O   0  0  0  0  0  1  0  0  0  0  0  0
  186.7510  178.3660  137.0440 F   0  0  0  0  0  0  0  0  0  0  0  0
  189.7620  176.2230  138.8220 C   0  0  0  0  0  2  0  0  0  0  0  0
  189.0770  178.0120  140.0460 C   0  0  1  0  0  3  0  0  0  0  0  0
  187.4900  176.4310  138.0550 O   0  0  0  0  0  0  0  0  0  0  0  0
  189.0850  176.6030  139.9940 O   0  0  0  0  0  0  0  0  0  0  0  0
  188.2480  178.6900  138.9310 C   0  0  1  0  0  3  0  0  0  0  0  0
  189.1110  179.2550  137.9880 O   0  0  0  0  0  1  0  0  0  0  0  0
  188.8190  176.2950  137.6170 C   0  0  2  0  0  3  0  0  0  0  0  0
  187.8370  177.2800  147.9190 C   0  0  0  0  0  2  0  0  0  0  0  0
  188.7760  178.2920  148.5470 C   0  0  0  0  0  1  0  0  0  0  0  0
  1  4  2  0  0  0  0
  2  4  1  1  0  0  0
  2  5  1  0  0  0  0
  3  1  1  0  0  0  0
  3 18  2  0  0  0  0
  4 10  1  0  0  0  0
  5 11  1  6  0  0  0
  5 17  1  0  0  0  0
  6 19  2  0  0  0  0
  7 14  1  6  0  0  0
  7 16  1  0  0  0  0
  7  2  1  0  0  0  0
  9  8  1  0  0  0  0
  9 11  1  1  0  0  0
 10 13  1  1  0  0  0
 10 12  1  0  0  0  0
 12 17  1  0  0  0  0
 15 14  1  1  0  0  0
 15  1  1  0  0  0  0
 16 20  1  6  0  0  0
 16  9  1  0  0  0  0
 17 31  1  1  0  0  0
 18 13  1  0  0  0  0
 19  8  1  0  0  0  0
 20 19  1  0  0  0  0
 21 23  1  6  0  0  0
 21 28  1  0  0  0  0
 24 27  1  0  0  0  0
 25 27  1  1  0  0  0
 25 15  1  0  0  0  0
 26 21  1  0  0  0  0
 28 29  1  6  0  0  0
 28 25  1  0  0  0  0
 30 22  1  1  0  0  0
 30 26  1  0  0  0  0
 30 24  1  0  0  0  0
 31 32  1  0  0  0  0
M  END
>  <MODEL>
1

>  <REMARK>
 VINA RESULT:     -11.0      0.000      0.000
  Name = 
  2 active torsions:
  status: ('A' for Active; 'I' for Inactive)
    1  A    between atoms: C_13  and  C_29
    2  A    between atoms: C_16  and  C_27
                            x       y       z     vdW  Elec       q    Type
                         _______ _______ _______ _____ _____    ______ ____

>  <TORSDO>
F 2

$$$$
=
 OpenBabel11052414333D

 32 37  0  0  1  0  0  0  0  0999 V2000
  188.9790  178.2180  142.1230 C   0  0  0  0  0  0  0  0  0  0  0  0
  186.6450  177.9230  142.9350 C   0  0  1  0  0  3  0  0  0  0  0  0
  190.4400  178.1910  142.3620 C   0  0  0  0  0  3  0  0  0  0  0  0
  188.1310  178.0490  143.1670 C   0  0  0  0  0  0  0  0  0  0  0  0
  185.8120  178.3440  144.1640 C   0  0  1  0  0  3  0  0  0  0  0  0
  181.7560  179.4120  140.0690 O   0  0  0  0  0  0  0  0  0  0  0  0
  186.1650  178.6500  141.6660 C   0  0  1  0  0  3  0  0  0  0  0  0
  182.6390  179.0280  142.2160 N   0  0  0  0  0  2  0  0  0  0  0  0
  184.0300  178.9220  142.6030 C   0  0  1  0  0  3  0  0  0  0  0  0
  188.6790  177.6150  144.5180 C   0  0  2  0  0  3  0  0  0  0  0  0
  184.3090  178.1580  143.8850 C   0  0  0  0  0  2  0  0  0  0  0  0
  187.7460  177.9890  145.6710 C   0  0  0  0  0  2  0  0  0  0  0  0
  190.0470  178.2450  144.7920 C   0  0  0  0  0  2  0  0  0  0  0  0
  187.0040  178.1420  140.5050 C   0  0  0  0  0  2  0  0  0  0  0  0
  188.4730  178.5280  140.7210 C   0  0  2  0  0  3  0  0  0  0  0  0
  184.7540  178.3130  141.4870 N   0  0  1  0  0  0  0  0  0  0  0  0
  186.2940  177.5910  145.4050 C   0  0  1  0  0  3  0  0  0  0  0  0
  190.9460  178.1570  143.5950 C   0  0  0  0  0  3  0  0  0  0  0  0
  182.7410  179.1520  140.8090 C   0  0  0  0  0  0  0  0  0  0  0  0
  184.1220  178.9280  140.3230 C   0  0  0  0  0  2  0  0  0  0  0  0
  188.0940  176.6650  137.6930 C   0  0  1  0  0  3  0  0  0  0  0  0
  190.8080  174.4910  137.4680 O   0  0  0  0  0  1  0  0  0  0  0  0
  187.8270  176.7590  136.3370 F   0  0  0  0  0  0  0  0  0  0  0  0
  190.7880  176.2160  139.1240 C   0  0  0  0  0  2  0  0  0  0  0  0
  189.3590  177.9090  139.6360 C   0  0  1  0  0  3  0  0  0  0  0  0
  188.8040  175.4730  137.9820 O   0  0  0  0  0  0  0  0  0  0  0  0
  189.7690  176.6120  140.0080 O   0  0  0  0  0  0  0  0  0  0  0  0
  188.6720  177.9930  138.2540 C   0  0  1  0  0  3  0  0  0  0  0  0
  189.5470  178.5770  137.3340 O   0  0  0  0  0  1  0  0  0  0  0  0
  190.1840  175.6880  137.8190 C   0  0  2  0  0  3  0  0  0  0  0  0
  185.4530  177.9580  146.6210 C   0  0  0  0  0  2  0  0  0  0  0  0
  185.9900  179.2160  147.2750 C   0  0  0  0  0  1  0  0  0  0  0  0
  1  3  1  0  0  0  0
  1  4  2  0  0  0  0
  2  4  1  1  0  0  0
  2  5  1  0  0  0  0
  3 18  2  0  0  0  0
  4 10  1  0  0  0  0
  5 11  1  6  0  0  0
  5 17  1  0  0  0  0
  6 19  2  0  0  0  0
  7 14  1  6  0  0  0
  7  2  1  0  0  0  0
  8  9  1  0  0  0  0
  9 11  1  1  0  0  0
 10 13  1  1  0  0  0
 10 12  1  0  0  0  0
 15 14  1  1  0  0  0
 15  1  1  0  0  0  0
 16 20  1  6  0  0  0
 16  7  1  0  0  0  0
 16  9  1  0  0  0  0
 17 12  1  0  0  0  0
 17 31  1  1  0  0  0
 18 13  1  0  0  0  0
 19  8  1  0  0  0  0
 20 19  1  0  0  0  0
 21 23  1  6  0  0  0
 21 26  1  0  0  0  0
 21 28  1  0  0  0  0
 24 27  1  0  0  0  0
 25 27  1  1  0  0  0
 25 15  1  0  0  0  0
 28 29  1  6  0  0  0
 28 25  1  0  0  0  0
 30 22  1  1  0  0  0
 30 26  1  0  0  0  0
 30 24  1  0  0  0  0
 31 32  1  0  0  0  0
M  END
>  <MODEL>
2

>  <REMARK>
 VINA RESULT:      -9.6      1.474      1.894
  Name = 
  2 active torsions:
  status: ('A' for Active; 'I' for Inactive)
    1  A    between atoms: C_13  and  C_29
    2  A    between atoms: C_16  and  C_27
                            x       y       z     vdW  Elec       q    Type
                         _______ _______ _______ _____ _____    ______ ____

>  <TORSDO>
F 2

$$$$
=
 OpenBabel11052414333D

 32 37  0  0  1  0  0  0  0  0999 V2000
  184.8480  178.3940  143.4660 C   0  0  0  0  0  0  0  0  0  0  0  0
  187.3260  178.2510  143.6490 C   0  0  1  0  0  3  0  0  0  0  0  0
  183.5210  178.6310  144.0800 C   0  0  0  0  0  3  0  0  0  0  0  0
  185.9470  178.3420  144.2580 C   0  0  0  0  0  0  0  0  0  0  0  0
  188.3550  177.6050  144.6000 C   0  0  1  0  0  3  0  0  0  0  0  0
  191.0030  176.2550  139.5480 O   0  0  0  0  0  0  0  0  0  0  0  0
  187.3380  177.5660  142.2720 C   0  0  1  0  0  3  0  0  0  0  0  0
  190.7680  176.5950  141.8650 N   0  0  0  0  0  2  0  0  0  0  0  0
  189.5590  176.8860  142.6060 C   0  0  1  0  0  3  0  0  0  0  0  0
  185.8400  178.7440  145.7210 C   0  0  2  0  0  3  0  0  0  0  0  0
  189.7480  177.5750  143.9450 C   0  0  0  0  0  2  0  0  0  0  0  0
  186.9540  178.1340  146.5740 C   0  0  0  0  0  2  0  0  0  0  0  0
  184.4970  178.3160  146.3180 C   0  0  0  0  0  2  0  0  0  0  0  0
  186.3350  178.2930  141.3920 C   0  0  0  0  0  2  0  0  0  0  0  0
  184.9240  178.1260  141.9690 C   0  0  2  0  0  3  0  0  0  0  0  0
  188.6950  177.6910  141.7430 N   0  0  1  0  0  0  0  0  0  0  0  0
  188.3380  178.3200  145.9520 C   0  0  1  0  0  3  0  0  0  0  0  0
  183.3560  178.6420  145.4030 C   0  0  0  0  0  3  0  0  0  0  0  0
  190.2960  176.6040  140.5300 C   0  0  0  0  0  0  0  0  0  0  0  0
  188.8970  177.0820  140.4320 C   0  0  0  0  0  2  0  0  0  0  0  0
  181.9720  177.6220  140.0150 C   0  0  1  0  0  3  0  0  0  0  0  0
  181.9820  180.0200  137.4870 O   0  0  0  0  0  1  0  0  0  0  0  0
  180.6030  177.4270  140.0710 F   0  0  0  0  0  0  0  0  0  0  0  0
  183.5520  180.1680  139.2850 C   0  0  0  0  0  2  0  0  0  0  0  0
  183.9140  178.9640  141.1800 C   0  0  1  0  0  3  0  0  0  0  0  0
  182.3510  178.1500  138.7550 O   0  0  0  0  0  0  0  0  0  0  0  0
  184.3650  179.1770  139.8610 O   0  0  0  0  0  0  0  0  0  0  0  0
  182.4970  178.3530  141.2810 C   0  0  1  0  0  3  0  0  0  0  0  0
  181.5940  179.3360  141.6920 O   0  0  0  0  0  1  0  0  0  0  0  0
  182.2460  179.5520  138.7740 C   0  0  2  0  0  3  0  0  0  0  0  0
  189.3820  177.7260  146.8910 C   0  0  0  0  0  2  0  0  0  0  0  0
  189.0210  178.0180  148.3350 C   0  0  0  0  0  1  0  0  0  0  0  0
  1  3  1  0  0  0  0
  1  4  2  0  0  0  0
  2  4  1  1  0  0  0
  2  5  1  0  0  0  0
  3 18  2  0  0  0  0
  4 10  1  0  0  0  0
  5 11  1  6  0  0  0
  5 17  1  0  0  0  0
  6 19  2  0  0  0  0
  7 14  1  6  0  0  0
  7  2  1  0  0  0  0
  8  9  1  0  0  0  0
  9 11  1  1  0  0  0
 10 13  1  1  0  0  0
 10 12  1  0  0  0  0
 15 14  1  6  0  0  0
 15  1  1  0  0  0  0
 16 20  1  6  0  0  0
 16  7  1  0  0  0  0
 16  9  1  0  0  0  0
 17 12  1  0  0  0  0
 17 31  1  1  0  0  0
 18 13  1  0  0  0  0
 19  8  1  0  0  0  0
 20 19  1  0  0  0  0
 21 23  1  1  0  0  0
 21 28  1  0  0  0  0
 24 27  1  0  0  0  0
 25 27  1  6  0  0  0
 25 28  1  0  0  0  0
 25 15  1  0  0  0  0
 26 30  1  0  0  0  0
 26 21  1  0  0  0  0
 28 29  1  6  0  0  0
 30 22  1  6  0  0  0
 30 24  1  0  0  0  0
 31 32  1  0  0  0  0
M  END
>  <MODEL>
3

>  <REMARK>
 VINA RESULT:      -9.4      2.805      5.741
  Name = 
  2 active torsions:
  status: ('A' for Active; 'I' for Inactive)
    1  A    between atoms: C_13  and  C_29
    2  A    between atoms: C_16  and  C_27
                            x       y       z     vdW  Elec       q    Type
                         _______ _______ _______ _____ _____    ______ ____

>  <TORSDO>
F 2

$$$$
=
 OpenBabel11052414333D

 32 37  0  0  1  0  0  0  0  0999 V2000
  189.4030  177.7240  141.5050 C   0  0  0  0  0  0  0  0  0  0  0  0
  188.3160  177.3920  143.7190 C   0  0  1  0  0  3  0  0  0  0  0  0
  190.5880  177.6240  140.6220 C   0  0  0  0  0  3  0  0  0  0  0  0
  189.5320  177.4440  142.8250 C   0  0  0  0  0  0  0  0  0  0  0  0
  188.6530  177.6730  145.1980 C   0  0  1  0  0  3  0  0  0  0  0  0
  183.0470  179.3790  145.3350 O   0  0  0  0  0  0  0  0  0  0  0  0
  187.1650  178.2910  143.2330 C   0  0  1  0  0  3  0  0  0  0  0  0
  185.1390  178.6940  146.1660 N   0  0  0  0  0  2  0  0  0  0  0  0
  186.3710  178.4990  145.4310 C   0  0  1  0  0  3  0  0  0  0  0  0
  190.8210  176.8220  143.3400 C   0  0  2  0  0  3  0  0  0  0  0  0
  187.3860  177.5670  146.0680 C   0  0  0  0  0  2  0  0  0  0  0  0
  191.0280  177.0700  144.8360 C   0  0  0  0  0  2  0  0  0  0  0  0
  192.0400  177.3720  142.5950 C   0  0  0  0  0  2  0  0  0  0  0  0
  186.8720  177.9150  141.7900 C   0  0  0  0  0  2  0  0  0  0  0  0
  188.0930  178.2280  140.9150 C   0  0  2  0  0  3  0  0  0  0  0  0
  186.0170  178.0200  144.0950 N   0  0  1  0  0  0  0  0  0  0  0  0
  189.7820  176.7510  145.6620 C   0  0  1  0  0  3  0  0  0  0  0  0
  191.8100  177.4160  141.1140 C   0  0  0  0  0  3  0  0  0  0  0  0
  184.2280  178.9980  145.1250 C   0  0  0  0  0  0  0  0  0  0  0  0
  184.8220  178.7990  143.7830 C   0  0  0  0  0  2  0  0  0  0  0  0
  188.8300  179.2710  137.5760 C   0  0  1  0  0  3  0  0  0  0  0  0
  186.1950  178.2130  135.5550 O   0  0  0  0  0  1  0  0  0  0  0  0
  189.8060  179.3030  136.5940 F   0  0  0  0  0  0  0  0  0  0  0  0
  186.3610  177.4390  137.8120 C   0  0  0  0  0  2  0  0  0  0  0  0
  187.8740  177.7310  139.4840 C   0  0  1  0  0  3  0  0  0  0  0  0
  187.5380  179.3750  137.0000 O   0  0  0  0  0  0  0  0  0  0  0  0
  186.6180  178.1490  138.9970 O   0  0  0  0  0  0  0  0  0  0  0  0
  189.0700  178.1120  138.5820 C   0  0  1  0  0  3  0  0  0  0  0  0
  189.5370  176.9740  137.9200 O   0  0  0  0  0  1  0  0  0  0  0  0
  187.0760  178.1000  136.6300 C   0  0  2  0  0  3  0  0  0  0  0  0
  190.0970  176.9800  147.1350 C   0  0  0  0  0  2  0  0  0  0  0  0
  191.4370  176.3640  147.4900 C   0  0  0  0  0  1  0  0  0  0  0  0
  1  4  2  0  0  0  0
  2  4  1  6  0  0  0
  2  5  1  0  0  0  0
  3 18  2  0  0  0  0
  3  1  1  0  0  0  0
  4 10  1  0  0  0  0
  5 17  1  0  0  0  0
  5 11  1  1  0  0  0
  7 14  1  6  0  0  0
  7  2  1  0  0  0  0
  7 16  1  0  0  0  0
  9 11  1  1  0  0  0
  9  8  1  0  0  0  0
 10 13  1  6  0  0  0
 10 12  1  0  0  0  0
 12 17  1  0  0  0  0
 15  1  1  0  0  0  0
 15 14  1  1  0  0  0
 16 20  1  6  0  0  0
 16  9  1  0  0  0  0
 17 31  1  1  0  0  0
 18 13  1  0  0  0  0
 19  6  2  0  0  0  0
 19  8  1  0  0  0  0
 20 19  1  0  0  0  0
 21 23  1  6  0  0  0
 21 28  1  0  0  0  0
 24 27  1  0  0  0  0
 25 27  1  6  0  0  0
 25 15  1  0  0  0  0
 26 21  1  0  0  0  0
 28 29  1  6  0  0  0
 28 25  1  0  0  0  0
 30 22  1  6  0  0  0
 30 26  1  0  0  0  0
 30 24  1  0  0  0  0
 31 32  1  0  0  0  0
M  END
>  <MODEL>
4

>  <REMARK>
 VINA RESULT:      -9.2      1.565      2.156
  Name = 
  2 active torsions:
  status: ('A' for Active; 'I' for Inactive)
    1  A    between atoms: C_13  and  C_29
    2  A    between atoms: C_16  and  C_27
                            x       y       z     vdW  Elec       q    Type
                         _______ _______ _______ _____ _____    ______ ____

>  <TORSDO>
F 2

$$$$
=
 OpenBabel11052414333D

 32 37  0  0  1  0  0  0  0  0999 V2000
  187.1140  178.0480  145.1140 C   0  0  0  0  0  0  0  0  0  0  0  0
  186.4970  177.8780  142.7090 C   0  0  1  0  0  3  0  0  0  0  0  0
  186.7300  178.1950  146.5370 C   0  0  0  0  0  3  0  0  0  0  0  0
  186.1660  178.1690  144.1530 C   0  0  0  0  0  0  0  0  0  0  0  0
  185.5660  178.6170  141.7240 C   0  0  1  0  0  3  0  0  0  0  0  0
  190.1800  178.0410  138.1560 O   0  0  0  0  0  0  0  0  0  0  0  0
  187.9760  178.1240  142.3630 C   0  0  1  0  0  3  0  0  0  0  0  0
  187.9470  178.4270  138.7880 N   0  0  0  0  0  2  0  0  0  0  0  0
  187.4050  178.5430  140.1250 C   0  0  1  0  0  3  0  0  0  0  0  0
  184.6980  178.2300  144.5480 C   0  0  2  0  0  3  0  0  0  0  0  0
  185.9230  178.2530  140.2710 C   0  0  0  0  0  2  0  0  0  0  0  0
  183.8340  178.8940  143.4740 C   0  0  0  0  0  2  0  0  0  0  0  0
  184.5060  179.0030  145.8550 C   0  0  0  0  0  2  0  0  0  0  0  0
  188.8130  177.3260  143.3480 C   0  0  0  0  0  2  0  0  0  0  0  0
  188.5850  177.8560  144.7700 C   0  0  2  0  0  3  0  0  0  0  0  0
  188.1800  177.6550  140.9930 N   0  0  1  0  0  0  0  0  0  0  0  0
  184.1040  178.3370  142.0760 C   0  0  1  0  0  3  0  0  0  0  0  0
  185.5080  178.5930  146.8920 C   0  0  0  0  0  3  0  0  0  0  0  0
  189.2990  178.0980  139.0520 C   0  0  0  0  0  0  0  0  0  0  0  0
  189.5390  177.8210  140.4880 C   0  0  0  0  0  2  0  0  0  0  0  0
  190.1030  178.2000  147.9880 C   0  0  1  0  0  3  0  0  0  0  0  0
  192.8050  176.0030  148.1000 O   0  0  0  0  0  1  0  0  0  0  0  0
  189.8600  178.2530  149.3500 F   0  0  0  0  0  0  0  0  0  0  0  0
  191.2380  175.8850  146.2970 C   0  0  0  0  0  2  0  0  0  0  0  0
  189.3090  176.9800  145.7960 C   0  0  1  0  0  3  0  0  0  0  0  0
  191.4410  177.8050  147.7340 O   0  0  0  0  0  0  0  0  0  0  0  0
  190.6870  176.9080  145.5060 O   0  0  0  0  0  0  0  0  0  0  0  0
  188.9800  177.4370  147.2360 C   0  0  1  0  0  3  0  0  0  0  0  0
  188.5430  176.3410  147.9840 O   0  0  0  0  0  1  0  0  0  0  0  0
  191.5270  176.4020  147.7100 C   0  0  2  0  0  3  0  0  0  0  0  0
  183.1690  179.0200  141.0860 C   0  0  0  0  0  2  0  0  0  0  0  0
  181.7300  178.6320  141.3650 C   0  0  0  0  0  1  0  0  0  0  0  0
  1  3  1  0  0  0  0
  2  4  1  1  0  0  0
  3 18  2  0  0  0  0
  4 10  1  0  0  0  0
  4  1  2  0  0  0  0
  5 11  1  6  0  0  0
  5 17  1  0  0  0  0
  5  2  1  0  0  0  0
  6 19  2  0  0  0  0
  7  2  1  0  0  0  0
  7 14  1  1  0  0  0
  8 19  1  0  0  0  0
  8  9  1  0  0  0  0
  9 11  1  6  0  0  0
  9 16  1  0  0  0  0
 10 12  1  6  0  0  0
 10 13  1  0  0  0  0
 13 18  1  0  0  0  0
 15 14  1  6  0  0  0
 15  1  1  0  0  0  0
 15 25  1  0  0  0  0
 16 20  1  6  0  0  0
 16  7  1  0  0  0  0
 17 31  1  6  0  0  0
 17 12  1  0  0  0  0
 19 20  1  0  0  0  0
 21 23  1  1  0  0  0
 24 30  1  0  0  0  0
 25 27  1  6  0  0  0
 25 28  1  0  0  0  0
 26 21  1  0  0  0  0
 27 24  1  0  0  0  0
 28 29  1  1  0  0  0
 28 21  1  0  0  0  0
 30 26  1  0  0  0  0
 30 22  1  6  0  0  0
 31 32  1  0  0  0  0
M  END
>  <MODEL>
5

>  <REMARK>
 VINA RESULT:      -8.9      3.944      7.359
  Name = 
  2 active torsions:
  status: ('A' for Active; 'I' for Inactive)
    1  A    between atoms: C_13  and  C_29
    2  A    between atoms: C_16  and  C_27
                            x       y       z     vdW  Elec       q    Type
                         _______ _______ _______ _____ _____    ______ ____

>  <TORSDO>
F 2

$$$$
=
 OpenBabel11052414333D

 32 37  0  0  1  0  0  0  0  0999 V2000
  184.0250  178.7420  142.2010 C   0  0  0  0  0  0  0  0  0  0  0  0
  186.5110  178.6430  142.1250 C   0  0  1  0  0  3  0  0  0  0  0  0
  182.7620  178.8600  142.9660 C   0  0  0  0  0  3  0  0  0  0  0  0
  185.1980  178.6150  142.8690 C   0  0  0  0  0  0  0  0  0  0  0  0
  187.6380  177.9050  142.8770 C   0  0  1  0  0  3  0  0  0  0  0  0
  189.7930  177.3080  137.4590 O   0  0  0  0  0  0  0  0  0  0  0  0
  186.3970  178.1470  140.6730 C   0  0  1  0  0  3  0  0  0  0  0  0
  189.7830  177.3310  139.8110 N   0  0  0  0  0  2  0  0  0  0  0  0
  188.6490  177.4890  140.6980 C   0  0  1  0  0  3  0  0  0  0  0  0
  185.2300  178.8170  144.3770 C   0  0  2  0  0  3  0  0  0  0  0  0
  188.9600  178.0000  142.0930 C   0  0  0  0  0  2  0  0  0  0  0  0
  186.4320  178.1300  145.0290 C   0  0  0  0  0  2  0  0  0  0  0  0
  183.9590  178.2770  145.0370 C   0  0  0  0  0  2  0  0  0  0  0  0
  185.3010  178.9560  139.9990 C   0  0  0  0  0  2  0  0  0  0  0  0
  183.9570  178.6760  140.6810 C   0  0  2  0  0  3  0  0  0  0  0  0
  187.6930  178.3770  140.0380 N   0  0  1  0  0  0  0  0  0  0  0  0
  187.7450  178.4330  144.3080 C   0  0  1  0  0  3  0  0  0  0  0  0
  182.7280  178.6910  144.2880 C   0  0  0  0  0  3  0  0  0  0  0  0
  189.1820  177.5050  138.5420 C   0  0  0  0  0  0  0  0  0  0  0  0
  187.7730  177.9530  138.6430 C   0  0  0  0  0  2  0  0  0  0  0  0
  181.2950  178.4930  138.3020 C   0  0  1  0  0  3  0  0  0  0  0  0
  181.0200  181.6300  136.8100 O   0  0  0  0  0  1  0  0  0  0  0  0
  179.9860  178.0850  138.1030 F   0  0  0  0  0  0  0  0  0  0  0  0
  182.4070  181.3350  138.7360 C   0  0  0  0  0  2  0  0  0  0  0  0
  182.8620  179.5840  140.1120 C   0  0  1  0  0  3  0  0  0  0  0  0
  181.6510  179.5020  137.3720 O   0  0  0  0  0  0  0  0  0  0  0  0
  183.3540  180.3380  139.0270 O   0  0  0  0  0  0  0  0  0  0  0  0
  181.5840  178.7710  139.8020 C   0  0  1  0  0  3  0  0  0  0  0  0
  180.4840  179.3820  140.4100 O   0  0  0  0  0  1  0  0  0  0  0  0
  181.2800  180.7630  137.8710 C   0  0  2  0  0  3  0  0  0  0  0  0
  188.8840  177.7500  145.0540 C   0  0  0  0  0  2  0  0  0  0  0  0
  188.4730  177.4430  146.4810 C   0  0  0  0  0  1  0  0  0  0  0  0
  1  4  2  0  0  0  0
  1  3  1  0  0  0  0
  2  4  1  1  0  0  0
  2  5  1  0  0  0  0
  3 18  2  0  0  0  0
  4 10  1  0  0  0  0
  5 11  1  6  0  0  0
  5 17  1  0  0  0  0
  6 19  2  0  0  0  0
  7 14  1  6  0  0  0
  7  2  1  0  0  0  0
  8  9  1  0  0  0  0
  9 11  1  1  0  0  0
 10 12  1  1  0  0  0
 10 13  1  0  0  0  0
 15 14  1  6  0  0  0
 15  1  1  0  0  0  0
 16 20  1  6  0  0  0
 16  7  1  0  0  0  0
 16  9  1  0  0  0  0
 17 12  1  0  0  0  0
 17 31  1  1  0  0  0
 18 13  1  0  0  0  0
 19 20  1  0  0  0  0
 19  8  1  0  0  0  0
 21 23  1  1  0  0  0
 21 28  1  0  0  0  0
 24 27  1  0  0  0  0
 25 27  1  6  0  0  0
 25 15  1  0  0  0  0
 26 30  1  0  0  0  0
 26 21  1  0  0  0  0
 28 25  1  0  0  0  0
 28 29  1  6  0  0  0
 30 22  1  6  0  0  0
 30 24  1  0  0  0  0
 31 32  1  0  0  0  0
M  END
>  <MODEL>
6

>  <REMARK>
 VINA RESULT:      -8.9      3.335      6.363
  Name = 
  2 active torsions:
  status: ('A' for Active; 'I' for Inactive)
    1  A    between atoms: C_13  and  C_29
    2  A    between atoms: C_16  and  C_27
                            x       y       z     vdW  Elec       q    Type
                         _______ _______ _______ _____ _____    ______ ____

>  <TORSDO>
F 2

$$$$
=
 OpenBabel11052414333D

 32 37  0  0  1  0  0  0  0  0999 V2000
  187.0980  178.3080  140.1630 C   0  0  0  0  0  0  0  0  0  0  0  0
  187.5840  177.4220  142.4370 C   0  0  1  0  0  3  0  0  0  0  0  0
  187.4730  178.4890  138.7420 C   0  0  0  0  0  3  0  0  0  0  0  0
  187.9890  177.7550  141.0220 C   0  0  0  0  0  0  0  0  0  0  0  0
  188.7820  177.3930  143.4090 C   0  0  1  0  0  3  0  0  0  0  0  0
  184.6170  178.6280  147.3430 O   0  0  0  0  0  0  0  0  0  0  0  0
  186.4570  178.3220  142.9750 C   0  0  1  0  0  3  0  0  0  0  0  0
  186.7110  177.9260  146.5320 N   0  0  0  0  0  2  0  0  0  0  0  0
  187.2070  177.9850  145.1730 C   0  0  1  0  0  3  0  0  0  0  0  0
  189.2650  177.1280  140.4800 C   0  0  2  0  0  3  0  0  0  0  0  0
  188.3170  177.0100  144.8260 C   0  0  0  0  0  2  0  0  0  0  0  0
  190.3690  177.0540  141.5370 C   0  0  0  0  0  2  0  0  0  0  0  0
  189.8050  177.9130  139.2830 C   0  0  0  0  0  2  0  0  0  0  0  0
  185.3070  178.2530  141.9840 C   0  0  0  0  0  2  0  0  0  0  0  0
  185.7490  178.8360  140.6360 C   0  0  2  0  0  3  0  0  0  0  0  0
  186.0660  177.7880  144.2780 N   0  0  1  0  0  0  0  0  0  0  0  0
  189.8760  176.4750  142.8620 C   0  0  1  0  0  3  0  0  0  0  0  0
  188.7160  178.2640  138.3150 C   0  0  0  0  0  3  0  0  0  0  0  0
  185.3810  178.3860  146.3730 C   0  0  0  0  0  0  0  0  0  0  0  0
  185.0030  178.5300  144.9480 C   0  0  0  0  0  2  0  0  0  0  0  0
  182.1800  178.9060  140.4410 C   0  0  1  0  0  3  0  0  0  0  0  0
  181.2270  176.5530  138.0540 O   0  0  0  0  0  1  0  0  0  0  0  0
  181.0730  179.7300  140.3310 F   0  0  0  0  0  0  0  0  0  0  0  0
  183.5290  177.1560  138.2900 C   0  0  0  0  0  2  0  0  0  0  0  0
  184.6540  178.6510  139.5810 C   0  0  1  0  0  3  0  0  0  0  0  0
  181.8770  177.5980  139.9840 O   0  0  0  0  0  0  0  0  0  0  0  0
  184.3170  177.2880  139.4460 O   0  0  0  0  0  0  0  0  0  0  0  0
  183.4550  179.5830  139.8680 C   0  0  1  0  0  3  0  0  0  0  0  0
  183.1490  180.3160  138.7190 O   0  0  0  0  0  1  0  0  0  0  0  0
  182.0730  177.5210  138.5940 C   0  0  2  0  0  3  0  0  0  0  0  0
  191.0500  176.3960  143.8310 C   0  0  0  0  0  2  0  0  0  0  0  0
  191.6810  177.7630  144.0090 C   0  0  0  0  0  1  0  0  0  0  0  0
  1 15  1  0  0  0  0
  1  4  2  0  0  0  0
  2  4  1  6  0  0  0
  2  7  1  0  0  0  0
  2  5  1  0  0  0  0
  3  1  1  0  0  0  0
  5 11  1  1  0  0  0
  7 14  1  6  0  0  0
  7 16  1  0  0  0  0
  9 11  1  1  0  0  0
  9  8  1  0  0  0  0
 10 13  1  6  0  0  0
 10  4  1  0  0  0  0
 10 12  1  0  0  0  0
 12 17  1  0  0  0  0
 15 14  1  1  0  0  0
 16 20  1  1  0  0  0
 16  9  1  0  0  0  0
 17  5  1  0  0  0  0
 17 31  1  1  0  0  0
 18  3  2  0  0  0  0
 18 13  1  0  0  0  0
 19  8  1  0  0  0  0
 19  6  2  0  0  0  0
 20 19  1  0  0  0  0
 21 23  1  6  0  0  0
 24 30  1  0  0  0  0
 24 27  1  0  0  0  0
 25 27  1  1  0  0  0
 25 28  1  0  0  0  0
 25 15  1  0  0  0  0
 26 21  1  0  0  0  0
 28 29  1  6  0  0  0
 28 21  1  0  0  0  0
 30 22  1  1  0  0  0
 30 26  1  0  0  0  0
 31 32  1  0  0  0  0
M  END
>  <MODEL>
7

>  <REMARK>
 VINA RESULT:      -8.8      2.817      4.636
  Name = 
  2 active torsions:
  status: ('A' for Active; 'I' for Inactive)
    1  A    between atoms: C_13  and  C_29
    2  A    between atoms: C_16  and  C_27
                            x       y       z     vdW  Elec       q    Type
                         _______ _______ _______ _____ _____    ______ ____

>  <TORSDO>
F 2

$$$$
=
 OpenBabel11052414333D

 32 37  0  0  1  0  0  0  0  0999 V2000
  189.3710  177.8330  140.6880 C   0  0  0  0  0  0  0  0  0  0  0  0
  187.9130  177.4560  142.6690 C   0  0  1  0  0  3  0  0  0  0  0  0
  190.6950  177.7580  140.0280 C   0  0  0  0  0  3  0  0  0  0  0  0
  189.2670  177.5340  142.0060 C   0  0  0  0  0  0  0  0  0  0  0  0
  187.9790  177.7160  144.1890 C   0  0  1  0  0  3  0  0  0  0  0  0
  182.4180  179.3700  143.3530 O   0  0  0  0  0  0  0  0  0  0  0  0
  186.8560  178.3530  141.9990 C   0  0  1  0  0  3  0  0  0  0  0  0
  184.3370  178.6910  144.5320 N   0  0  0  0  0  2  0  0  0  0  0  0
  185.6820  178.5190  144.0250 C   0  0  1  0  0  3  0  0  0  0  0  0
  190.4520  176.9150  142.7330 C   0  0  2  0  0  3  0  0  0  0  0  0
  186.5790  177.5860  144.8180 C   0  0  0  0  0  2  0  0  0  0  0  0
  190.3880  177.1400  144.2450 C   0  0  0  0  0  2  0  0  0  0  0  0
  191.7770  177.4880  142.2240 C   0  0  0  0  0  2  0  0  0  0  0  0
  186.8280  177.9980  140.5220 C   0  0  0  0  0  2  0  0  0  0  0  0
  188.1800  178.3350  139.8820 C   0  0  2  0  0  3  0  0  0  0  0  0
  185.5760  178.0580  142.6400 N   0  0  1  0  0  0  0  0  0  0  0  0
  189.0190  176.7980  144.8320 C   0  0  1  0  0  3  0  0  0  0  0  0
  191.8120  177.5530  140.7260 C   0  0  0  0  0  3  0  0  0  0  0  0
  183.6220  179.0030  143.3510 C   0  0  0  0  0  0  0  0  0  0  0  0
  184.4470  178.8320  142.1320 C   0  0  0  0  0  2  0  0  0  0  0  0
  189.7280  175.7510  137.9570 C   0  0  1  0  0  3  0  0  0  0  0  0
  190.3890  177.0670  134.7990 O   0  0  0  0  0  1  0  0  0  0  0  0
  189.6450  174.4210  137.5820 F   0  0  0  0  0  0  0  0  0  0  0  0
  189.0210  178.2800  136.3410 C   0  0  0  0  0  2  0  0  0  0  0  0
  188.2240  177.8590  138.4280 C   0  0  1  0  0  3  0  0  0  0  0  0
  190.4840  176.4900  137.0120 O   0  0  0  0  0  0  0  0  0  0  0  0
  189.2170  178.5520  137.7060 O   0  0  0  0  0  0  0  0  0  0  0  0
  188.3390  176.3180  138.3590 C   0  0  1  0  0  3  0  0  0  0  0  0
  187.3400  175.8130  137.5240 O   0  0  0  0  0  1  0  0  0  0  0  0
  189.6470  176.9320  135.9720 C   0  0  2  0  0  3  0  0  0  0  0  0
  189.0650  177.0060  146.3410 C   0  0  0  0  0  2  0  0  0  0  0  0
  190.4840  176.8490  146.8520 C   0  0  0  0  0  1  0  0  0  0  0  0
  1  4  2  0  0  0  0
  2  4  1  6  0  0  0
  2  5  1  0  0  0  0
  3  1  1  0  0  0  0
  3 18  2  0  0  0  0
  4 10  1  0  0  0  0
  5 11  1  1  0  0  0
  5 17  1  0  0  0  0
  7 14  1  6  0  0  0
  7 16  1  0  0  0  0
  7  2  1  0  0  0  0
  9  8  1  0  0  0  0
  9 11  1  1  0  0  0
 10 13  1  6  0  0  0
 10 12  1  0  0  0  0
 12 17  1  0  0  0  0
 15 14  1  1  0  0  0
 15  1  1  0  0  0  0
 16 20  1  6  0  0  0
 16  9  1  0  0  0  0
 17 31  1  1  0  0  0
 18 13  1  0  0  0  0
 19  6  2  0  0  0  0
 19  8  1  0  0  0  0
 20 19  1  0  0  0  0
 21 23  1  6  0  0  0
 21 28  1  0  0  0  0
 24 27  1  0  0  0  0
 25 27  1  1  0  0  0
 25 15  1  0  0  0  0
 26 21  1  0  0  0  0
 28 29  1  6  0  0  0
 28 25  1  0  0  0  0
 30 22  1  6  0  0  0
 30 24  1  0  0  0  0
 30 26  1  0  0  0  0
 31 32  1  0  0  0  0
M  END
>  <MODEL>
8

>  <REMARK>
 VINA RESULT:      -8.6      1.520      2.277
  Name = 
  2 active torsions:
  status: ('A' for Active; 'I' for Inactive)
    1  A    between atoms: C_13  and  C_29
    2  A    between atoms: C_16  and  C_27
                            x       y       z     vdW  Elec       q    Type
                         _______ _______ _______ _____ _____    ______ ____

>  <TORSDO>
F 2

$$$$
=
 OpenBabel11052414333D

 32 37  0  0  1  0  0  0  0  0999 V2000
  187.5310  177.8760  140.5250 C   0  0  0  0  0  0  0  0  0  0  0  0
  186.9960  178.4710  142.8820 C   0  0  1  0  0  3  0  0  0  0  0  0
  187.1990  177.9010  139.0820 C   0  0  0  0  0  3  0  0  0  0  0  0
  186.6300  178.3450  141.4230 C   0  0  0  0  0  0  0  0  0  0  0  0
  185.7650  178.4180  143.8110 C   0  0  1  0  0  3  0  0  0  0  0  0
  189.7430  176.5080  147.6690 O   0  0  0  0  0  0  0  0  0  0  0  0
  188.0710  177.4640  143.3270 C   0  0  1  0  0  3  0  0  0  0  0  0
  187.7050  177.3940  146.8960 N   0  0  0  0  0  2  0  0  0  0  0  0
  187.2560  177.5350  145.5270 C   0  0  1  0  0  3  0  0  0  0  0  0
  185.3970  179.0890  140.9320 C   0  0  2  0  0  3  0  0  0  0  0  0
  186.1930  178.5910  145.2810 C   0  0  0  0  0  2  0  0  0  0  0  0
  184.2590  179.0650  141.9540 C   0  0  0  0  0  2  0  0  0  0  0  0
  184.8710  178.4920  139.6240 C   0  0  0  0  0  2  0  0  0  0  0  0
  189.2570  177.6180  142.3900 C   0  0  0  0  0  2  0  0  0  0  0  0
  188.8420  177.2380  140.9630 C   0  0  2  0  0  3  0  0  0  0  0  0
  188.4340  177.8040  144.7020 N   0  0  1  0  0  0  0  0  0  0  0  0
  184.7250  179.4440  143.3600 C   0  0  1  0  0  3  0  0  0  0  0  0
  185.9810  178.2300  138.6510 C   0  0  0  0  0  3  0  0  0  0  0  0
  189.0230  176.9070  146.7180 C   0  0  0  0  0  0  0  0  0  0  0  0
  189.4460  176.9380  145.2980 C   0  0  0  0  0  2  0  0  0  0  0  0
  190.3630  175.6910  138.1210 C   0  0  1  0  0  3  0  0  0  0  0  0
  193.7560  176.4770  138.2060 O   0  0  0  0  0  1  0  0  0  0  0  0
  190.2590  175.4940  136.7550 F   0  0  0  0  0  0  0  0  0  0  0  0
  192.2330  177.5800  139.6830 C   0  0  0  0  0  2  0  0  0  0  0  0
  189.9790  177.5170  139.9770 C   0  0  1  0  0  3  0  0  0  0  0  0
  191.7040  175.5230  138.5510 O   0  0  0  0  0  0  0  0  0  0  0  0
  191.2080  177.0520  140.4880 O   0  0  0  0  0  0  0  0  0  0  0  0
  189.6270  176.9830  138.5690 C   0  0  1  0  0  3  0  0  0  0  0  0
  189.8010  178.0000  137.6280 O   0  0  0  0  0  1  0  0  0  0  0  0
  192.4020  176.7360  138.4170 C   0  0  2  0  0  3  0  0  0  0  0  0
  183.5210  179.4400  144.2950 C   0  0  0  0  0  2  0  0  0  0  0  0
  182.2720  179.0190  143.5450 C   0  0  0  0  0  1  0  0  0  0  0  0
  1 15  1  0  0  0  0
  1  4  2  0  0  0  0
  2  4  1  6  0  0  0
  2  7  1  0  0  0  0
  2  5  1  0  0  0  0
  3  1  1  0  0  0  0
  5 11  1  1  0  0  0
  7 14  1  6  0  0  0
  7 16  1  0  0  0  0
  9 11  1  1  0  0  0
  9  8  1  0  0  0  0
 10 13  1  6  0  0  0
 10  4  1  0  0  0  0
 10 12  1  0  0  0  0
 12 17  1  0  0  0  0
 15 14  1  1  0  0  0
 16 20  1  1  0  0  0
 16  9  1  0  0  0  0
 17  5  1  0  0  0  0
 17 31  1  1  0  0  0
 18  3  2  0  0  0  0
 18 13  1  0  0  0  0
 19  8  1  0  0  0  0
 19  6  2  0  0  0  0
 20 19  1  0  0  0  0
 21 23  1  6  0  0  0
 21 26  1  0  0  0  0
 21 28  1  0  0  0  0
 24 27  1  0  0  0  0
 25 27  1  1  0  0  0
 25 15  1  0  0  0  0
 28 29  1  6  0  0  0
 28 25  1  0  0  0  0
 30 22  1  1  0  0  0
 30 26  1  0  0  0  0
 30 24  1  0  0  0  0
 32 31  1  0  0  0  0
M  END
>  <MODEL>
9

>  <REMARK>
 VINA RESULT:      -8.5      2.541      4.801
  Name = 
  2 active torsions:
  status: ('A' for Active; 'I' for Inactive)
    1  A    between atoms: C_13  and  C_29
    2  A    between atoms: C_16  and  C_27
                            x       y       z     vdW  Elec       q    Type
                         _______ _______ _______ _____ _____    ______ ____

>  <TORSDO>
F 2

$$$$
