=
 OpenBabel11052414153D

 34 38  0  0  1  0  0  0  0  0999 V2000
  189.7460  177.6560  138.2010 C   0  0  0  0  0  0  0  0  0  0  0  0
  187.8050  178.3170  139.1940 C   0  0  2  0  0  3  0  0  0  0  0  0
  189.5930  177.4670  140.5980 C   0  0  0  0  0  0  0  0  0  0  0  0
  188.7670  176.6510  142.8670 C   0  0  1  0  0  3  0  0  0  0  0  0
  187.6740  178.2380  137.8680 C   0  0  2  0  0  3  0  0  0  0  0  0
  186.3760  178.3210  137.1430 C   0  0  0  0  0  1  0  0  0  0  0  0
  187.4400  178.2970  141.6630 C   0  0  1  0  0  3  0  0  0  0  0  0
  189.1520  177.9390  139.4540 C   0  0  0  0  0  0  0  0  0  0  0  0
  187.4720  176.8740  143.6350 C   0  0  0  0  0  2  0  0  0  0  0  0
  188.8970  177.8010  137.2340 N   0  0  0  0  0  0  0  0  0  0  0  0
  191.5420  176.5220  139.2310 C   0  0  0  0  0  3  0  0  0  0  0  0
  190.9760  176.9370  138.1260 N   0  0  0  0  0  0  0  0  0  0  0  0
  186.7620  178.2370  140.2690 C   0  0  0  0  0  2  0  0  0  0  0  0
  186.5480  177.6770  142.7200 C   0  0  1  0  0  3  0  0  0  0  0  0
  188.6980  177.5420  141.7250 N   0  0  0  0  0  0  0  0  0  0  0  0
  190.9330  176.7500  140.6220 C   0  0  0  0  0  2  0  0  0  0  0  0
  185.8260  178.7650  143.5000 C   0  0  0  0  0  2  0  0  0  0  0  0
  185.6160  178.3580  144.9510 C   0  0  0  0  0  2  0  0  0  0  0  0
  184.2400  178.7820  145.4280 C   0  0  0  0  0  2  0  0  0  0  0  0
  183.5000  179.4620  144.2930 C   0  0  0  0  0  2  0  0  0  0  0  0
  182.1760  178.7640  144.0270 C   0  0  0  0  0  2  0  0  0  0  0  0
  181.8230  178.8230  142.5730 C   0  0  0  0  0  0  0  0  0  0  0  0
  180.6110  178.8340  142.2360 O   0  0  0  0  0  0  0  0  0  0  0  0
  182.9350  177.8010  140.6210 C   0  0  0  0  0  1  0  0  0  0  0  0
  182.8070  178.8390  141.5810 O   0  0  0  0  0  0  0  0  0  0  0  0
  189.9590  177.0130  143.7450 C   0  0  0  0  0  2  0  0  0  0  0  0
  189.7190  178.3220  144.4800 C   0  0  0  0  0  2  0  0  0  0  0  0
  190.1330  178.1990  145.9360 C   0  0  2  0  0  3  0  0  0  0  0  0
  190.2690  176.7320  146.2930 C   0  0  2  0  0  3  0  0  0  0  0  0
  189.0260  177.5240  146.7210 C   0  0  1  0  0  3  0  0  0  0  0  0
  191.3140  176.5720  147.3550 C   0  0  0  0  0  3  0  0  0  0  0  0
  192.2380  175.6220  147.2410 C   0  0  0  0  0  2  0  0  0  0  0  0
  189.0400  178.0360  148.1570 C   0  0  0  0  0  2  0  0  0  0  0  0
  187.8770  177.6300  148.8060 O   0  0  0  0  0  1  0  0  0  0  0  0
  1  8  1  0  0  0  0
  2  8  1  0  0  0  0
  2 13  1  1  0  0  0
  3 16  1  0  0  0  0
  3 15  1  0  0  0  0
  4  9  1  0  0  0  0
  4 26  1  1  0  0  0
  5  6  1  1  0  0  0
  5  2  1  0  0  0  0
  7 13  1  6  0  0  0
  7 15  1  0  0  0  0
  7 14  1  0  0  0  0
  8  3  2  0  0  0  0
 10  5  1  0  0  0  0
 10  1  2  0  0  0  0
 11 16  1  0  0  0  0
 12  1  1  0  0  0  0
 12 11  2  0  0  0  0
 14 17  1  1  0  0  0
 14  9  1  0  0  0  0
 15  4  1  0  0  0  0
 17 18  1  0  0  0  0
 18 19  1  0  0  0  0
 20 19  1  0  0  0  0
 21 20  1  0  0  0  0
 22 21  1  0  0  0  0
 23 22  2  0  0  0  0
 24 25  1  0  0  0  0
 25 22  1  0  0  0  0
 26 27  1  0  0  0  0
 28 27  1  6  0  0  0
 28 29  1  0  0  0  0
 28 30  1  0  0  0  0
 29 30  1  0  0  0  0
 29 31  1  1  0  0  0
 30 33  1  1  0  0  0
 32 31  2  0  0  0  0
 33 34  1  0  0  0  0
M  END
>  <MODEL>
1

>  <REMARK>
 VINA RESULT:      -8.1      0.000      0.000
  Name = 
  12 active torsions:
  status: ('A' for Active; 'I' for Inactive)
    1  A    between atoms: C_3  and  C_13
    2  A    between atoms: C_3  and  C_17
    3  A    between atoms: C_5  and  C_26
    4  A    between atoms: C_7  and  C_16
    5  A    between atoms: C_12  and  C_28
    6  A    between atoms: C_13  and  C_33
    7  A    between atoms: O_14  and  C_20
    8  A    between atoms: C_17  and  C_29
    9  A    between atoms: C_20  and  C_34
   10  A    between atoms: C_23  and  C_27
   11  A    between atoms: C_26  and  C_28
   12  A    between atoms: C_33  and  C_34
                            x       y       z     vdW  Elec       q    Type
                         _______ _______ _______ _____ _____    ______ ____

>  <TORSDO>
F 12

$$$$
=
 OpenBabel11052414153D

 34 38  0  0  1  0  0  0  0  0999 V2000
  182.3390  179.0720  140.7090 C   0  0  0  0  0  0  0  0  0  0  0  0
  182.6840  179.0120  142.9610 C   0  0  2  0  0  3  0  0  0  0  0  0
  184.6040  178.8090  141.4900 C   0  0  0  0  0  0  0  0  0  0  0  0
  186.6120  177.7280  142.6280 C   0  0  1  0  0  3  0  0  0  0  0  0
  181.3870  178.9110  142.6600 C   0  0  2  0  0  3  0  0  0  0  0  0
  180.3210  178.5540  143.6370 C   0  0  0  0  0  1  0  0  0  0  0  0
  184.9420  178.8350  144.0090 C   0  0  1  0  0  3  0  0  0  0  0  0
  183.3450  179.1170  141.7040 C   0  0  0  0  0  0  0  0  0  0  0  0
  186.9620  177.4820  144.0880 C   0  0  0  0  0  2  0  0  0  0  0  0
  181.1640  178.9300  141.2330 N   0  0  0  0  0  0  0  0  0  0  0  0
  183.9300  178.6100  139.0270 C   0  0  0  0  0  3  0  0  0  0  0  0
  182.6780  178.8210  139.3460 N   0  0  0  0  0  0  0  0  0  0  0  0
  183.4250  178.5650  144.1850 C   0  0  0  0  0  2  0  0  0  0  0  0
  185.7560  177.9320  144.9130 C   0  0  1  0  0  3  0  0  0  0  0  0
  185.4230  178.5570  142.6480 N   0  0  0  0  0  0  0  0  0  0  0  0
  185.0680  178.5960  140.0580 C   0  0  0  0  0  2  0  0  0  0  0  0
  186.2020  178.6940  146.1510 C   0  0  0  0  0  2  0  0  0  0  0  0
  186.9810  177.7980  147.1030 C   0  0  0  0  0  2  0  0  0  0  0  0
  187.7240  178.6300  148.1290 C   0  0  0  0  0  2  0  0  0  0  0  0
  189.1330  178.0930  148.2890 C   0  0  0  0  0  2  0  0  0  0  0  0
  189.3410  176.8730  147.4070 C   0  0  0  0  0  2  0  0  0  0  0  0
  190.5220  177.0600  146.5060 C   0  0  0  0  0  0  0  0  0  0  0  0
  190.3310  177.3830  145.3050 O   0  0  0  0  0  0  0  0  0  0  0  0
  192.3640  175.5620  147.1770 C   0  0  0  0  0  1  0  0  0  0  0  0
  191.8280  176.8580  146.9580 O   0  0  0  0  0  0  0  0  0  0  0  0
  187.7540  178.4660  141.9390 C   0  0  0  0  0  2  0  0  0  0  0  0
  188.9060  177.5230  141.6280 C   0  0  0  0  0  2  0  0  0  0  0  0
  188.9620  177.2230  140.1400 C   0  0  2  0  0  3  0  0  0  0  0  0
  190.3710  177.4590  139.6370 C   0  0  2  0  0  3  0  0  0  0  0  0
  189.2700  178.4960  139.3790 C   0  0  1  0  0  3  0  0  0  0  0  0
  190.6530  176.5370  138.4900 C   0  0  0  0  0  3  0  0  0  0  0  0
  191.9090  176.2600  138.1510 C   0  0  0  0  0  2  0  0  0  0  0  0
  188.6210  178.4310  138.0010 C   0  0  0  0  0  2  0  0  0  0  0  0
  188.8390  179.6300  137.3270 O   0  0  0  0  0  1  0  0  0  0  0  0
  1 10  2  0  0  0  0
  1  8  1  0  0  0  0
  2 13  1  6  0  0  0
  3  8  2  0  0  0  0
  3 15  1  0  0  0  0
  4 26  1  1  0  0  0
  4 15  1  0  0  0  0
  4  9  1  0  0  0  0
  5  2  1  0  0  0  0
  5  6  1  6  0  0  0
  7 13  1  6  0  0  0
  7 14  1  0  0  0  0
  8  2  1  0  0  0  0
  9 14  1  0  0  0  0
 10  5  1  0  0  0  0
 11 12  2  0  0  0  0
 11 16  1  0  0  0  0
 12  1  1  0  0  0  0
 14 17  1  1  0  0  0
 15  7  1  0  0  0  0
 16  3  1  0  0  0  0
 17 18  1  0  0  0  0
 18 19  1  0  0  0  0
 19 20  1  0  0  0  0
 21 20  1  0  0  0  0
 22 25  1  0  0  0  0
 22 21  1  0  0  0  0
 23 22  2  0  0  0  0
 25 24  1  0  0  0  0
 27 26  1  0  0  0  0
 28 27  1  1  0  0  0
 29 31  1  6  0  0  0
 29 28  1  0  0  0  0
 30 33  1  6  0  0  0
 30 29  1  0  0  0  0
 30 28  1  0  0  0  0
 32 31  2  0  0  0  0
 34 33  1  0  0  0  0
M  END
>  <MODEL>
2

>  <REMARK>
 VINA RESULT:      -8.0      3.070      7.249
  Name = 
  12 active torsions:
  status: ('A' for Active; 'I' for Inactive)
    1  A    between atoms: C_3  and  C_13
    2  A    between atoms: C_3  and  C_17
    3  A    between atoms: C_5  and  C_26
    4  A    between atoms: C_7  and  C_16
    5  A    between atoms: C_12  and  C_28
    6  A    between atoms: C_13  and  C_33
    7  A    between atoms: O_14  and  C_20
    8  A    between atoms: C_17  and  C_29
    9  A    between atoms: C_20  and  C_34
   10  A    between atoms: C_23  and  C_27
   11  A    between atoms: C_26  and  C_28
   12  A    between atoms: C_33  and  C_34
                            x       y       z     vdW  Elec       q    Type
                         _______ _______ _______ _____ _____    ______ ____

>  <TORSDO>
F 12

$$$$
=
 OpenBabel11052414153D

 34 38  0  0  1  0  0  0  0  0999 V2000
  189.3960  177.3830  147.1720 C   0  0  0  0  0  0  0  0  0  0  0  0
  190.8920  176.9450  145.5090 C   0  0  2  0  0  3  0  0  0  0  0  0
  188.7340  177.8810  144.9090 C   0  0  0  0  0  0  0  0  0  0  0  0
  188.1210  177.4680  142.4690 C   0  0  1  0  0  3  0  0  0  0  0  0
  191.2740  176.4030  146.6670 C   0  0  2  0  0  3  0  0  0  0  0  0
  192.3920  175.4300  146.8140 C   0  0  0  0  0  1  0  0  0  0  0  0
  190.4700  177.4540  143.1020 C   0  0  1  0  0  3  0  0  0  0  0  0
  189.6580  177.5960  145.7970 C   0  0  0  0  0  0  0  0  0  0  0  0
  188.9380  177.0520  141.2560 C   0  0  0  0  0  2  0  0  0  0  0  0
  190.3210  176.6620  147.7210 N   0  0  0  0  0  0  0  0  0  0  0  0
  187.1350  178.0050  146.9050 C   0  0  0  0  0  3  0  0  0  0  0  0
  188.0940  177.6130  147.7060 N   0  0  0  0  0  0  0  0  0  0  0  0
  191.2500  176.5630  144.1030 C   0  0  0  0  0  2  0  0  0  0  0  0
  190.3570  176.7720  141.7540 C   0  0  1  0  0  3  0  0  0  0  0  0
  189.0860  177.7170  143.5210 N   0  0  0  0  0  0  0  0  0  0  0  0
  187.3330  178.2110  145.3960 C   0  0  0  0  0  2  0  0  0  0  0  0
  191.3890  177.3390  140.7910 C   0  0  0  0  0  2  0  0  0  0  0  0
  190.7570  177.7150  139.4600 C   0  0  0  0  0  2  0  0  0  0  0  0
  191.0000  176.6310  138.4290 C   0  0  0  0  0  2  0  0  0  0  0  0
  189.8170  176.5580  137.4840 C   0  0  0  0  0  2  0  0  0  0  0  0
  189.4210  177.9510  137.0190 C   0  0  0  0  0  2  0  0  0  0  0  0
  187.9590  178.1920  137.2410 C   0  0  0  0  0  0  0  0  0  0  0  0
  187.4650  179.3030  136.9170 O   0  0  0  0  0  0  0  0  0  0  0  0
  185.9870  176.7110  137.1710 C   0  0  0  0  0  1  0  0  0  0  0  0
  187.1380  177.2240  137.8240 O   0  0  0  0  0  0  0  0  0  0  0  0
  187.3430  178.7400  142.1580 C   0  0  0  0  0  2  0  0  0  0  0  0
  186.2710  178.4850  141.1100 C   0  0  0  0  0  2  0  0  0  0  0  0
  184.9290  179.0190  141.5780 C   0  0  2  0  0  3  0  0  0  0  0  0
  184.5150  178.2900  142.8410 C   0  0  2  0  0  3  0  0  0  0  0  0
  183.8880  177.9220  141.4890 C   0  0  1  0  0  3  0  0  0  0  0  0
  183.6870  179.2010  143.6950 C   0  0  0  0  0  3  0  0  0  0  0  0
  183.6080  178.9940  145.0060 C   0  0  0  0  0  2  0  0  0  0  0  0
  182.5240  178.5410  141.2120 C   0  0  0  0  0  2  0  0  0  0  0  0
  181.7710  177.6740  140.4240 O   0  0  0  0  0  1  0  0  0  0  0  0
  1 12  1  0  0  0  0
  1 10  2  0  0  0  0
  2 13  1  6  0  0  0
  2  8  1  0  0  0  0
  2  5  1  0  0  0  0
  3 16  1  0  0  0  0
  3  8  2  0  0  0  0
  4 26  1  6  0  0  0
  4 15  1  0  0  0  0
  5  6  1  6  0  0  0
  5 10  1  0  0  0  0
  7 15  1  0  0  0  0
  7 13  1  1  0  0  0
  8  1  1  0  0  0  0
  9 14  1  0  0  0  0
  9  4  1  0  0  0  0
 11 12  2  0  0  0  0
 14 17  1  6  0  0  0
 14  7  1  0  0  0  0
 15  3  1  0  0  0  0
 16 11  1  0  0  0  0
 18 17  1  0  0  0  0
 19 18  1  0  0  0  0
 20 19  1  0  0  0  0
 21 22  1  0  0  0  0
 21 20  1  0  0  0  0
 22 25  1  0  0  0  0
 23 22  2  0  0  0  0
 24 25  1  0  0  0  0
 27 26  1  0  0  0  0
 28 27  1  6  0  0  0
 28 29  1  0  0  0  0
 29 31  1  1  0  0  0
 30 33  1  1  0  0  0
 30 28  1  0  0  0  0
 30 29  1  0  0  0  0
 31 32  2  0  0  0  0
 34 33  1  0  0  0  0
M  END
>  <MODEL>
3

>  <REMARK>
 VINA RESULT:      -7.9      2.620      7.630
  Name = 
  12 active torsions:
  status: ('A' for Active; 'I' for Inactive)
    1  A    between atoms: C_3  and  C_13
    2  A    between atoms: C_3  and  C_17
    3  A    between atoms: C_5  and  C_26
    4  A    between atoms: C_7  and  C_16
    5  A    between atoms: C_12  and  C_28
    6  A    between atoms: C_13  and  C_33
    7  A    between atoms: O_14  and  C_20
    8  A    between atoms: C_17  and  C_29
    9  A    between atoms: C_20  and  C_34
   10  A    between atoms: C_23  and  C_27
   11  A    between atoms: C_26  and  C_28
   12  A    between atoms: C_33  and  C_34
                            x       y       z     vdW  Elec       q    Type
                         _______ _______ _______ _____ _____    ______ ____

>  <TORSDO>
F 12

$$$$
=
 OpenBabel11052414153D

 34 38  0  0  1  0  0  0  0  0999 V2000
  189.2310  177.6820  138.0540 C   0  0  0  0  0  0  0  0  0  0  0  0
  187.2810  178.2320  139.0970 C   0  0  2  0  0  3  0  0  0  0  0  0
  189.2510  177.8330  140.4590 C   0  0  0  0  0  0  0  0  0  0  0  0
  188.6830  177.2650  142.8780 C   0  0  1  0  0  3  0  0  0  0  0  0
  187.0820  177.9410  137.8100 C   0  0  2  0  0  3  0  0  0  0  0  0
  185.7430  177.7510  137.1860 C   0  0  0  0  0  1  0  0  0  0  0  0
  187.0730  178.5330  141.5670 C   0  0  1  0  0  3  0  0  0  0  0  0
  188.6810  178.0700  139.3000 C   0  0  0  0  0  0  0  0  0  0  0  0
  187.4190  177.4340  143.7080 C   0  0  0  0  0  2  0  0  0  0  0  0
  188.3120  177.5730  137.1470 N   0  0  0  0  0  0  0  0  0  0  0  0
  191.2230  176.9490  139.0860 C   0  0  0  0  0  3  0  0  0  0  0  0
  190.5400  177.1210  137.9820 N   0  0  0  0  0  0  0  0  0  0  0  0
  186.3260  178.1820  140.2530 C   0  0  0  0  0  2  0  0  0  0  0  0
  186.3400  177.9690  142.7670 C   0  0  1  0  0  3  0  0  0  0  0  0
  188.4240  177.9600  141.6320 N   0  0  0  0  0  0  0  0  0  0  0  0
  190.6750  177.3020  140.4760 C   0  0  0  0  0  2  0  0  0  0  0  0
  185.5250  179.0600  143.4430 C   0  0  0  0  0  2  0  0  0  0  0  0
  185.2250  178.7090  144.8930 C   0  0  0  0  0  2  0  0  0  0  0  0
  183.7680  178.9770  145.2150 C   0  0  0  0  0  2  0  0  0  0  0  0
  183.0600  179.4770  143.9710 C   0  0  0  0  0  2  0  0  0  0  0  0
  181.7660  178.7120  143.7500 C   0  0  0  0  0  2  0  0  0  0  0  0
  180.9110  179.3920  142.7250 C   0  0  0  0  0  0  0  0  0  0  0  0
  180.3260  180.4640  143.0280 O   0  0  0  0  0  0  0  0  0  0  0  0
  179.9570  179.5040  140.4530 C   0  0  0  0  0  1  0  0  0  0  0  0
  180.7250  178.8500  141.4510 O   0  0  0  0  0  0  0  0  0  0  0  0
  189.8650  177.9010  143.5990 C   0  0  0  0  0  2  0  0  0  0  0  0
  190.8940  176.8530  143.9920 C   0  0  0  0  0  2  0  0  0  0  0  0
  190.5740  176.2790  145.3610 C   0  0  2  0  0  3  0  0  0  0  0  0
  190.1700  177.4040  146.2910 C   0  0  2  0  0  3  0  0  0  0  0  0
  191.5760  176.7950  146.3730 C   0  0  1  0  0  3  0  0  0  0  0  0
  189.1960  176.8880  147.3070 C   0  0  0  0  0  3  0  0  0  0  0  0
  188.5460  177.7370  148.0970 C   0  0  0  0  0  2  0  0  0  0  0  0
  191.7730  175.7510  147.4660 C   0  0  0  0  0  2  0  0  0  0  0  0
  192.9130  176.0590  148.2040 O   0  0  0  0  0  1  0  0  0  0  0  0
  1  8  1  0  0  0  0
  2  8  1  0  0  0  0
  2 13  1  1  0  0  0
  3 16  1  0  0  0  0
  3 15  1  0  0  0  0
  4 26  1  1  0  0  0
  4  9  1  0  0  0  0
  5  6  1  1  0  0  0
  5  2  1  0  0  0  0
  7 13  1  6  0  0  0
  7 15  1  0  0  0  0
  7 14  1  0  0  0  0
  8  3  2  0  0  0  0
 10  5  1  0  0  0  0
 10  1  2  0  0  0  0
 11 16  1  0  0  0  0
 12  1  1  0  0  0  0
 12 11  2  0  0  0  0
 14 17  1  1  0  0  0
 14  9  1  0  0  0  0
 15  4  1  0  0  0  0
 17 18  1  0  0  0  0
 18 19  1  0  0  0  0
 20 19  1  0  0  0  0
 21 20  1  0  0  0  0
 22 23  2  0  0  0  0
 22 21  1  0  0  0  0
 24 25  1  0  0  0  0
 25 22  1  0  0  0  0
 26 27  1  0  0  0  0
 28 27  1  6  0  0  0
 28 29  1  0  0  0  0
 28 30  1  0  0  0  0
 29 30  1  0  0  0  0
 29 31  1  1  0  0  0
 30 33  1  1  0  0  0
 31 32  2  0  0  0  0
 33 34  1  0  0  0  0
M  END
>  <MODEL>
4

>  <REMARK>
 VINA RESULT:      -7.8      1.296      1.785
  Name = 
  12 active torsions:
  status: ('A' for Active; 'I' for Inactive)
    1  A    between atoms: C_3  and  C_13
    2  A    between atoms: C_3  and  C_17
    3  A    between atoms: C_5  and  C_26
    4  A    between atoms: C_7  and  C_16
    5  A    between atoms: C_12  and  C_28
    6  A    between atoms: C_13  and  C_33
    7  A    between atoms: O_14  and  C_20
    8  A    between atoms: C_17  and  C_29
    9  A    between atoms: C_20  and  C_34
   10  A    between atoms: C_23  and  C_27
   11  A    between atoms: C_26  and  C_28
   12  A    between atoms: C_33  and  C_34
                            x       y       z     vdW  Elec       q    Type
                         _______ _______ _______ _____ _____    ______ ____

>  <TORSDO>
F 12

$$$$
=
 OpenBabel11052414153D

 34 38  0  0  1  0  0  0  0  0999 V2000
  189.5700  176.9180  136.8090 C   0  0  0  0  0  0  0  0  0  0  0  0
  190.7090  176.4080  138.7160 C   0  0  2  0  0  3  0  0  0  0  0  0
  188.5550  177.5080  138.9140 C   0  0  0  0  0  0  0  0  0  0  0  0
  188.2470  178.6850  141.1540 C   0  0  1  0  0  3  0  0  0  0  0  0
  191.4750  176.2590  137.6330 C   0  0  2  0  0  3  0  0  0  0  0  0
  192.9470  176.0360  137.6660 C   0  0  0  0  0  1  0  0  0  0  0  0
  189.8270  176.8410  141.0100 C   0  0  1  0  0  3  0  0  0  0  0  0
  189.4480  176.8430  138.2180 C   0  0  0  0  0  0  0  0  0  0  0  0
  188.9760  178.5780  142.4840 C   0  0  0  0  0  2  0  0  0  0  0  0
  190.7630  176.5990  136.4220 N   0  0  0  0  0  0  0  0  0  0  0  0
  187.6180  178.2350  136.6440 C   0  0  0  0  0  3  0  0  0  0  0  0
  188.6070  177.6310  136.0350 N   0  0  0  0  0  0  0  0  0  0  0  0
  191.0990  176.6540  140.1430 C   0  0  0  0  0  2  0  0  0  0  0  0
  190.1470  177.6180  142.2710 C   0  0  1  0  0  3  0  0  0  0  0  0
  188.7760  177.6130  140.3340 N   0  0  0  0  0  0  0  0  0  0  0  0
  187.4480  178.2380  138.1700 C   0  0  0  0  0  2  0  0  0  0  0  0
  190.2900  176.6680  143.4500 C   0  0  0  0  0  2  0  0  0  0  0  0
  190.4770  177.4300  144.7540 C   0  0  0  0  0  2  0  0  0  0  0  0
  191.4160  176.6790  145.6780 C   0  0  0  0  0  2  0  0  0  0  0  0
  191.0190  176.9370  147.1190 C   0  0  0  0  0  2  0  0  0  0  0  0
  189.5600  176.5720  147.3420 C   0  0  0  0  0  2  0  0  0  0  0  0
  188.8170  177.7070  147.9770 C   0  0  0  0  0  0  0  0  0  0  0  0
  189.4020  178.4200  148.8330 O   0  0  0  0  0  0  0  0  0  0  0  0
  186.9870  177.9030  146.3350 C   0  0  0  0  0  1  0  0  0  0  0  0
  187.4830  177.9760  147.6630 O   0  0  0  0  0  0  0  0  0  0  0  0
  186.7500  178.4940  141.3660 C   0  0  0  0  0  2  0  0  0  0  0  0
  186.4600  177.9490  142.7550 C   0  0  0  0  0  2  0  0  0  0  0  0
  184.9650  177.9510  143.0260 C   0  0  2  0  0  3  0  0  0  0  0  0
  184.3100  179.0390  142.2000 C   0  0  2  0  0  3  0  0  0  0  0  0
  184.5750  179.2530  143.6960 C   0  0  1  0  0  3  0  0  0  0  0  0
  182.9100  178.6300  141.8570 C   0  0  0  0  0  3  0  0  0  0  0  0
  182.6670  177.9650  140.7310 C   0  0  0  0  0  2  0  0  0  0  0  0
  183.3800  179.0110  144.6120 C   0  0  0  0  0  2  0  0  0  0  0  0
  183.7980  179.0440  145.9400 O   0  0  0  0  0  1  0  0  0  0  0  0
  1  8  1  0  0  0  0
  2 13  1  1  0  0  0
  3 15  1  0  0  0  0
  4 26  1  1  0  0  0
  4  9  1  0  0  0  0
  5  6  1  1  0  0  0
  5  2  1  0  0  0  0
  7 13  1  6  0  0  0
  7 14  1  0  0  0  0
  8  2  1  0  0  0  0
  8  3  2  0  0  0  0
 10  1  2  0  0  0  0
 10  5  1  0  0  0  0
 11 16  1  0  0  0  0
 12 11  2  0  0  0  0
 12  1  1  0  0  0  0
 14  9  1  0  0  0  0
 14 17  1  1  0  0  0
 15  7  1  0  0  0  0
 15  4  1  0  0  0  0
 16  3  1  0  0  0  0
 17 18  1  0  0  0  0
 18 19  1  0  0  0  0
 19 20  1  0  0  0  0
 20 21  1  0  0  0  0
 21 22  1  0  0  0  0
 22 23  2  0  0  0  0
 24 25  1  0  0  0  0
 25 22  1  0  0  0  0
 26 27  1  0  0  0  0
 28 27  1  6  0  0  0
 28 30  1  0  0  0  0
 29 31  1  1  0  0  0
 29 28  1  0  0  0  0
 29 30  1  0  0  0  0
 30 33  1  1  0  0  0
 32 31  2  0  0  0  0
 33 34  1  0  0  0  0
M  END
>  <MODEL>
5

>  <REMARK>
 VINA RESULT:      -7.7      1.602      6.033
  Name = 
  12 active torsions:
  status: ('A' for Active; 'I' for Inactive)
    1  A    between atoms: C_3  and  C_13
    2  A    between atoms: C_3  and  C_17
    3  A    between atoms: C_5  and  C_26
    4  A    between atoms: C_7  and  C_16
    5  A    between atoms: C_12  and  C_28
    6  A    between atoms: C_13  and  C_33
    7  A    between atoms: O_14  and  C_20
    8  A    between atoms: C_17  and  C_29
    9  A    between atoms: C_20  and  C_34
   10  A    between atoms: C_23  and  C_27
   11  A    between atoms: C_26  and  C_28
   12  A    between atoms: C_33  and  C_34
                            x       y       z     vdW  Elec       q    Type
                         _______ _______ _______ _____ _____    ______ ____

>  <TORSDO>
F 12

$$$$
=
 OpenBabel11052414153D

 34 38  0  0  1  0  0  0  0  0999 V2000
  189.2260  177.4140  147.1450 C   0  0  0  0  0  0  0  0  0  0  0  0
  190.7950  177.0620  145.5290 C   0  0  2  0  0  3  0  0  0  0  0  0
  188.6120  177.8880  144.8640 C   0  0  0  0  0  0  0  0  0  0  0  0
  188.0980  177.4560  142.4040 C   0  0  1  0  0  3  0  0  0  0  0  0
  191.1680  176.5350  146.6970 C   0  0  2  0  0  3  0  0  0  0  0  0
  192.3300  175.6200  146.8760 C   0  0  0  0  0  1  0  0  0  0  0  0
  190.4230  177.5600  143.1120 C   0  0  1  0  0  3  0  0  0  0  0  0
  189.5210  177.6470  145.7800 C   0  0  0  0  0  0  0  0  0  0  0  0
  188.9740  177.0890  141.2160 C   0  0  0  0  0  2  0  0  0  0  0  0
  190.1690  176.7390  147.7210 N   0  0  0  0  0  0  0  0  0  0  0  0
  186.9450  177.9200  146.8080 C   0  0  0  0  0  3  0  0  0  0  0  0
  187.8980  177.5740  147.6380 N   0  0  0  0  0  0  0  0  0  0  0  0
  191.2170  176.7060  144.1350 C   0  0  0  0  0  2  0  0  0  0  0  0
  190.3890  176.8810  141.7580 C   0  0  1  0  0  3  0  0  0  0  0  0
  189.0160  177.7500  143.4870 N   0  0  0  0  0  0  0  0  0  0  0  0
  187.1800  178.1430  145.3070 C   0  0  0  0  0  2  0  0  0  0  0  0
  191.4210  177.5050  140.8310 C   0  0  0  0  0  2  0  0  0  0  0  0
  190.9440  177.4950  139.3870 C   0  0  0  0  0  2  0  0  0  0  0  0
  190.9200  176.0810  138.8430 C   0  0  0  0  0  2  0  0  0  0  0  0
  191.6600  176.0360  137.5200 C   0  0  0  0  0  2  0  0  0  0  0  0
  192.7260  174.9520  137.5420 C   0  0  0  0  0  2  0  0  0  0  0  0
  194.0980  175.5530  137.5400 C   0  0  0  0  0  0  0  0  0  0  0  0
  194.3350  176.5360  136.7910 O   0  0  0  0  0  0  0  0  0  0  0  0
  195.3630  173.6360  138.4420 C   0  0  0  0  0  1  0  0  0  0  0  0
  195.1270  175.0310  138.3270 O   0  0  0  0  0  0  0  0  0  0  0  0
  187.2660  178.6890  142.0730 C   0  0  0  0  0  2  0  0  0  0  0  0
  186.1110  178.3370  141.1480 C   0  0  0  0  0  2  0  0  0  0  0  0
  184.8190  178.9590  141.6490 C   0  0  2  0  0  3  0  0  0  0  0  0
  184.3830  178.2520  142.9160 C   0  0  2  0  0  3  0  0  0  0  0  0
  183.7030  177.9360  141.5770 C   0  0  1  0  0  3  0  0  0  0  0  0
  183.6380  179.2120  143.7930 C   0  0  0  0  0  3  0  0  0  0  0  0
  183.5730  179.0020  145.1050 C   0  0  0  0  0  2  0  0  0  0  0  0
  182.3790  178.6500  141.3330 C   0  0  0  0  0  2  0  0  0  0  0  0
  182.2500  178.9380  139.9760 O   0  0  0  0  0  1  0  0  0  0  0  0
  1 12  1  0  0  0  0
  1 10  2  0  0  0  0
  2 13  1  6  0  0  0
  2  8  1  0  0  0  0
  2  5  1  0  0  0  0
  3 16  1  0  0  0  0
  3  8  2  0  0  0  0
  4 26  1  6  0  0  0
  4 15  1  0  0  0  0
  5  6  1  6  0  0  0
  5 10  1  0  0  0  0
  7 15  1  0  0  0  0
  7 13  1  1  0  0  0
  8  1  1  0  0  0  0
  9 14  1  0  0  0  0
  9  4  1  0  0  0  0
 11 12  2  0  0  0  0
 14 17  1  6  0  0  0
 14  7  1  0  0  0  0
 15  3  1  0  0  0  0
 16 11  1  0  0  0  0
 18 17  1  0  0  0  0
 19 18  1  0  0  0  0
 20 21  1  0  0  0  0
 20 19  1  0  0  0  0
 22 21  1  0  0  0  0
 22 25  1  0  0  0  0
 23 22  2  0  0  0  0
 25 24  1  0  0  0  0
 27 26  1  0  0  0  0
 28 27  1  6  0  0  0
 28 29  1  0  0  0  0
 29 31  1  1  0  0  0
 30 33  1  1  0  0  0
 30 28  1  0  0  0  0
 30 29  1  0  0  0  0
 31 32  2  0  0  0  0
 34 33  1  0  0  0  0
M  END
>  <MODEL>
6

>  <REMARK>
 VINA RESULT:      -7.7      3.788      8.813
  Name = 
  12 active torsions:
  status: ('A' for Active; 'I' for Inactive)
    1  A    between atoms: C_3  and  C_13
    2  A    between atoms: C_3  and  C_17
    3  A    between atoms: C_5  and  C_26
    4  A    between atoms: C_7  and  C_16
    5  A    between atoms: C_12  and  C_28
    6  A    between atoms: C_13  and  C_33
    7  A    between atoms: O_14  and  C_20
    8  A    between atoms: C_17  and  C_29
    9  A    between atoms: C_20  and  C_34
   10  A    between atoms: C_23  and  C_27
   11  A    between atoms: C_26  and  C_28
   12  A    between atoms: C_33  and  C_34
                            x       y       z     vdW  Elec       q    Type
                         _______ _______ _______ _____ _____    ______ ____

>  <TORSDO>
F 12

$$$$
=
 OpenBabel11052414153D

 34 38  0  0  1  0  0  0  0  0999 V2000
  190.1920  177.1970  145.5890 C   0  0  0  0  0  0  0  0  0  0  0  0
  187.9270  177.4400  145.5340 C   0  0  2  0  0  3  0  0  0  0  0  0
  189.1480  177.4780  143.4360 C   0  0  0  0  0  0  0  0  0  0  0  0
  187.8500  178.6100  141.5560 C   0  0  1  0  0  3  0  0  0  0  0  0
  188.4010  177.5420  146.7770 C   0  0  2  0  0  3  0  0  0  0  0  0
  187.6020  178.0030  147.9470 C   0  0  0  0  0  1  0  0  0  0  0  0
  186.6130  177.6590  143.4230 C   0  0  1  0  0  3  0  0  0  0  0  0
  189.0740  177.2160  144.7200 C   0  0  0  0  0  0  0  0  0  0  0  0
  186.3820  178.9710  141.3880 C   0  0  0  0  0  2  0  0  0  0  0  0
  189.8380  177.4080  146.8170 N   0  0  0  0  0  0  0  0  0  0  0  0
  191.6850  177.4830  143.7830 C   0  0  0  0  0  3  0  0  0  0  0  0
  191.5150  177.3260  145.0720 N   0  0  0  0  0  0  0  0  0  0  0  0
  186.6570  177.9740  144.9410 C   0  0  0  0  0  2  0  0  0  0  0  0
  185.6860  178.6180  142.7030 C   0  0  1  0  0  3  0  0  0  0  0  0
  187.9170  177.8110  142.7640 N   0  0  0  0  0  0  0  0  0  0  0  0
  190.5200  177.5600  142.7860 C   0  0  0  0  0  2  0  0  0  0  0  0
  184.3430  177.9530  142.4430 C   0  0  0  0  0  2  0  0  0  0  0  0
  183.2550  178.9860  142.1920 C   0  0  0  0  0  2  0  0  0  0  0  0
  182.1220  178.3800  141.3870 C   0  0  0  0  0  2  0  0  0  0  0  0
  181.8000  179.2820  140.2110 C   0  0  0  0  0  2  0  0  0  0  0  0
  182.3840  178.7140  138.9280 C   0  0  0  0  0  2  0  0  0  0  0  0
  183.8240  179.0980  138.7810 C   0  0  0  0  0  0  0  0  0  0  0  0
  184.1850  180.2610  139.1030 O   0  0  0  0  0  0  0  0  0  0  0  0
  184.4330  177.1890  137.3420 C   0  0  0  0  0  1  0  0  0  0  0  0
  184.7710  178.2070  138.2710 O   0  0  0  0  0  0  0  0  0  0  0  0
  188.3230  177.7930  140.3600 C   0  0  0  0  0  2  0  0  0  0  0  0
  189.0710  178.6650  139.3640 C   0  0  0  0  0  2  0  0  0  0  0  0
  189.4020  177.8760  138.1090 C   0  0  2  0  0  3  0  0  0  0  0  0
  188.1520  177.1750  137.6160 C   0  0  2  0  0  3  0  0  0  0  0  0
  189.2300  176.3950  138.3820 C   0  0  1  0  0  3  0  0  0  0  0  0
  188.2110  177.0380  136.1250 C   0  0  0  0  0  3  0  0  0  0  0  0
  187.5480  177.8930  135.3520 C   0  0  0  0  0  2  0  0  0  0  0  0
  190.2030  175.6050  137.5150 C   0  0  0  0  0  2  0  0  0  0  0  0
  191.0990  174.9180  138.3310 O   0  0  0  0  0  1  0  0  0  0  0  0
  1 10  2  0  0  0  0
  2 13  1  6  0  0  0
  2  5  1  0  0  0  0
  3  8  2  0  0  0  0
  4 26  1  6  0  0  0
  4 15  1  0  0  0  0
  5 10  1  0  0  0  0
  5  6  1  6  0  0  0
  7 13  1  1  0  0  0
  8  2  1  0  0  0  0
  8  1  1  0  0  0  0
  9  4  1  0  0  0  0
  9 14  1  0  0  0  0
 11 12  2  0  0  0  0
 12  1  1  0  0  0  0
 14 17  1  6  0  0  0
 14  7  1  0  0  0  0
 15  7  1  0  0  0  0
 15  3  1  0  0  0  0
 16  3  1  0  0  0  0
 16 11  1  0  0  0  0
 18 17  1  0  0  0  0
 19 18  1  0  0  0  0
 20 19  1  0  0  0  0
 21 20  1  0  0  0  0
 22 21  1  0  0  0  0
 22 23  2  0  0  0  0
 24 25  1  0  0  0  0
 25 22  1  0  0  0  0
 27 26  1  0  0  0  0
 28 30  1  0  0  0  0
 28 27  1  1  0  0  0
 29 31  1  6  0  0  0
 29 28  1  0  0  0  0
 29 30  1  0  0  0  0
 30 33  1  6  0  0  0
 32 31  2  0  0  0  0
 33 34  1  0  0  0  0
M  END
>  <MODEL>
7

>  <REMARK>
 VINA RESULT:      -7.5      2.887      6.662
  Name = 
  12 active torsions:
  status: ('A' for Active; 'I' for Inactive)
    1  A    between atoms: C_3  and  C_13
    2  A    between atoms: C_3  and  C_17
    3  A    between atoms: C_5  and  C_26
    4  A    between atoms: C_7  and  C_16
    5  A    between atoms: C_12  and  C_28
    6  A    between atoms: C_13  and  C_33
    7  A    between atoms: O_14  and  C_20
    8  A    between atoms: C_17  and  C_29
    9  A    between atoms: C_20  and  C_34
   10  A    between atoms: C_23  and  C_27
   11  A    between atoms: C_26  and  C_28
   12  A    between atoms: C_33  and  C_34
                            x       y       z     vdW  Elec       q    Type
                         _______ _______ _______ _____ _____    ______ ____

>  <TORSDO>
F 12

$$$$
=
 OpenBabel11052414153D

 34 38  0  0  1  0  0  0  0  0999 V2000
  187.4520  178.0360  138.3560 C   0  0  0  0  0  0  0  0  0  0  0  0
  185.7440  178.6190  139.7460 C   0  0  2  0  0  3  0  0  0  0  0  0
  187.9030  178.0930  140.7220 C   0  0  0  0  0  0  0  0  0  0  0  0
  187.7460  177.4550  143.1850 C   0  0  1  0  0  3  0  0  0  0  0  0
  185.3080  178.3860  138.5060 C   0  0  2  0  0  3  0  0  0  0  0  0
  183.8730  178.2710  138.1250 C   0  0  0  0  0  1  0  0  0  0  0  0
  185.9890  178.8330  142.2210 C   0  0  1  0  0  3  0  0  0  0  0  0
  187.1490  178.3960  139.6910 C   0  0  0  0  0  0  0  0  0  0  0  0
  186.6580  177.6400  144.2320 C   0  0  0  0  0  2  0  0  0  0  0  0
  186.3840  177.9970  137.6240 N   0  0  0  0  0  0  0  0  0  0  0  0
  189.5610  177.1880  138.9930 C   0  0  0  0  0  3  0  0  0  0  0  0
  188.7020  177.4280  138.0340 N   0  0  0  0  0  0  0  0  0  0  0  0
  185.0070  178.5610  141.0510 C   0  0  0  0  0  2  0  0  0  0  0  0
  185.4550  178.2520  143.5150 C   0  0  1  0  0  3  0  0  0  0  0  0
  187.3030  178.2070  142.0280 N   0  0  0  0  0  0  0  0  0  0  0  0
  189.2830  177.5080  140.4690 C   0  0  0  0  0  2  0  0  0  0  0  0
  184.8210  179.3460  144.3590 C   0  0  0  0  0  2  0  0  0  0  0  0
  183.3940  178.9890  144.7490 C   0  0  0  0  0  2  0  0  0  0  0  0
  182.4910  179.0040  143.5320 C   0  0  0  0  0  2  0  0  0  0  0  0
  181.0620  178.7290  143.9600 C   0  0  0  0  0  2  0  0  0  0  0  0
  180.2320  178.2620  142.7760 C   0  0  0  0  0  2  0  0  0  0  0  0
  180.6080  179.0070  141.5330 C   0  0  0  0  0  0  0  0  0  0  0  0
  181.3250  178.4380  140.6690 O   0  0  0  0  0  0  0  0  0  0  0  0
  179.0400  180.8720  141.9200 C   0  0  0  0  0  1  0  0  0  0  0  0
  180.2060  180.3280  141.3210 O   0  0  0  0  0  0  0  0  0  0  0  0
  189.0650  178.0170  143.7030 C   0  0  0  0  0  2  0  0  0  0  0  0
  190.0410  176.9010  144.0390 C   0  0  0  0  0  2  0  0  0  0  0  0
  189.9510  176.5400  145.5120 C   0  0  2  0  0  3  0  0  0  0  0  0
  190.0600  177.8030  146.3420 C   0  0  2  0  0  3  0  0  0  0  0  0
  191.2650  176.8640  146.1940 C   0  0  1  0  0  3  0  0  0  0  0  0
  189.2800  177.6350  147.6110 C   0  0  0  0  0  3  0  0  0  0  0  0
  187.9570  177.5040  147.5670 C   0  0  0  0  0  2  0  0  0  0  0  0
  191.4860  175.8960  147.3510 C   0  0  0  0  0  2  0  0  0  0  0  0
  192.8010  175.9990  147.7980 O   0  0  0  0  0  1  0  0  0  0  0  0
  1  8  1  0  0  0  0
  2 13  1  1  0  0  0
  3 15  1  0  0  0  0
  4 26  1  1  0  0  0
  4  9  1  0  0  0  0
  5  6  1  1  0  0  0
  5  2  1  0  0  0  0
  7 13  1  6  0  0  0
  7 14  1  0  0  0  0
  8  2  1  0  0  0  0
  8  3  2  0  0  0  0
 10  1  2  0  0  0  0
 10  5  1  0  0  0  0
 11 16  1  0  0  0  0
 12  1  1  0  0  0  0
 12 11  2  0  0  0  0
 14  9  1  0  0  0  0
 14 17  1  1  0  0  0
 15  7  1  0  0  0  0
 15  4  1  0  0  0  0
 16  3  1  0  0  0  0
 17 18  1  0  0  0  0
 19 20  1  0  0  0  0
 19 18  1  0  0  0  0
 21 20  1  0  0  0  0
 22 21  1  0  0  0  0
 23 22  2  0  0  0  0
 25 22  1  0  0  0  0
 25 24  1  0  0  0  0
 26 27  1  0  0  0  0
 28 27  1  6  0  0  0
 28 30  1  0  0  0  0
 28 29  1  0  0  0  0
 29 31  1  1  0  0  0
 30 29  1  0  0  0  0
 30 33  1  1  0  0  0
 32 31  2  0  0  0  0
 33 34  1  0  0  0  0
M  END
>  <MODEL>
8

>  <REMARK>
 VINA RESULT:      -7.5      1.669      2.502
  Name = 
  12 active torsions:
  status: ('A' for Active; 'I' for Inactive)
    1  A    between atoms: C_3  and  C_13
    2  A    between atoms: C_3  and  C_17
    3  A    between atoms: C_5  and  C_26
    4  A    between atoms: C_7  and  C_16
    5  A    between atoms: C_12  and  C_28
    6  A    between atoms: C_13  and  C_33
    7  A    between atoms: O_14  and  C_20
    8  A    between atoms: C_17  and  C_29
    9  A    between atoms: C_20  and  C_34
   10  A    between atoms: C_23  and  C_27
   11  A    between atoms: C_26  and  C_28
   12  A    between atoms: C_33  and  C_34
                            x       y       z     vdW  Elec       q    Type
                         _______ _______ _______ _____ _____    ______ ____

>  <TORSDO>
F 12

$$$$
=
 OpenBabel11052414153D

 34 38  0  0  1  0  0  0  0  0999 V2000
  190.1800  176.9270  145.6910 C   0  0  0  0  0  0  0  0  0  0  0  0
  187.9420  177.3310  145.5470 C   0  0  2  0  0  3  0  0  0  0  0  0
  189.2480  177.3080  143.5010 C   0  0  0  0  0  0  0  0  0  0  0  0
  188.1130  178.5530  141.5880 C   0  0  1  0  0  3  0  0  0  0  0  0
  188.3690  177.3830  146.8100 C   0  0  2  0  0  3  0  0  0  0  0  0
  187.5570  177.8850  147.9540 C   0  0  0  0  0  1  0  0  0  0  0  0
  186.7350  177.6690  143.3880 C   0  0  1  0  0  3  0  0  0  0  0  0
  189.1030  177.0360  144.7780 C   0  0  0  0  0  0  0  0  0  0  0  0
  186.6820  179.0190  141.3660 C   0  0  0  0  0  2  0  0  0  0  0  0
  189.7910  177.1460  146.9060 N   0  0  0  0  0  0  0  0  0  0  0  0
  191.7630  177.1290  143.9520 C   0  0  0  0  0  3  0  0  0  0  0  0
  191.5290  176.9680  145.2300 N   0  0  0  0  0  0  0  0  0  0  0  0
  186.7380  177.9610  144.9110 C   0  0  0  0  0  2  0  0  0  0  0  0
  185.9090  178.6990  142.6460 C   0  0  1  0  0  3  0  0  0  0  0  0
  188.0730  177.7360  142.7850 N   0  0  0  0  0  0  0  0  0  0  0  0
  190.6490  177.3010  142.9100 C   0  0  0  0  0  2  0  0  0  0  0  0
  184.5340  178.1350  142.3220 C   0  0  0  0  0  2  0  0  0  0  0  0
  183.4290  179.0870  142.7550 C   0  0  0  0  0  2  0  0  0  0  0  0
  182.8260  178.6390  144.0710 C   0  0  0  0  0  2  0  0  0  0  0  0
  181.3130  178.6720  143.9700 C   0  0  0  0  0  2  0  0  0  0  0  0
  180.8820  179.2420  142.6280 C   0  0  0  0  0  2  0  0  0  0  0  0
  180.1390  178.2170  141.8270 C   0  0  0  0  0  0  0  0  0  0  0  0
  179.3090  177.4700  142.4060 O   0  0  0  0  0  0  0  0  0  0  0  0
  180.6770  176.7900  139.8880 C   0  0  0  0  0  1  0  0  0  0  0  0
  180.3670  178.0520  140.4590 O   0  0  0  0  0  0  0  0  0  0  0  0
  188.5770  177.7200  140.4000 C   0  0  0  0  0  2  0  0  0  0  0  0
  189.0370  178.6080  139.2550 C   0  0  0  0  0  2  0  0  0  0  0  0
  189.3140  177.7780  138.0140 C   0  0  2  0  0  3  0  0  0  0  0  0
  188.1950  176.7730  137.8270 C   0  0  2  0  0  3  0  0  0  0  0  0
  189.5450  176.3340  138.4120 C   0  0  1  0  0  3  0  0  0  0  0  0
  188.0170  176.4900  136.3670 C   0  0  0  0  0  3  0  0  0  0  0  0
  187.4190  177.3840  135.5830 C   0  0  0  0  0  2  0  0  0  0  0  0
  190.5050  175.6850  137.4230 C   0  0  0  0  0  2  0  0  0  0  0  0
  191.0060  174.5050  137.9680 O   0  0  0  0  0  1  0  0  0  0  0  0
  1 10  2  0  0  0  0
  2 13  1  6  0  0  0
  2  5  1  0  0  0  0
  3  8  2  0  0  0  0
  4 26  1  6  0  0  0
  4 15  1  0  0  0  0
  5 10  1  0  0  0  0
  5  6  1  6  0  0  0
  7 13  1  1  0  0  0
  8  2  1  0  0  0  0
  8  1  1  0  0  0  0
  9  4  1  0  0  0  0
  9 14  1  0  0  0  0
 11 12  2  0  0  0  0
 12  1  1  0  0  0  0
 14 17  1  6  0  0  0
 14  7  1  0  0  0  0
 15  7  1  0  0  0  0
 15  3  1  0  0  0  0
 16  3  1  0  0  0  0
 16 11  1  0  0  0  0
 17 18  1  0  0  0  0
 18 19  1  0  0  0  0
 20 19  1  0  0  0  0
 21 20  1  0  0  0  0
 22 23  2  0  0  0  0
 22 21  1  0  0  0  0
 24 25  1  0  0  0  0
 25 22  1  0  0  0  0
 27 26  1  0  0  0  0
 28 30  1  0  0  0  0
 28 27  1  1  0  0  0
 29 31  1  6  0  0  0
 29 28  1  0  0  0  0
 29 30  1  0  0  0  0
 30 33  1  6  0  0  0
 32 31  2  0  0  0  0
 33 34  1  0  0  0  0
M  END
>  <MODEL>
9

>  <REMARK>
 VINA RESULT:      -7.4      2.710      6.436
  Name = 
  12 active torsions:
  status: ('A' for Active; 'I' for Inactive)
    1  A    between atoms: C_3  and  C_13
    2  A    between atoms: C_3  and  C_17
    3  A    between atoms: C_5  and  C_26
    4  A    between atoms: C_7  and  C_16
    5  A    between atoms: C_12  and  C_28
    6  A    between atoms: C_13  and  C_33
    7  A    between atoms: O_14  and  C_20
    8  A    between atoms: C_17  and  C_29
    9  A    between atoms: C_20  and  C_34
   10  A    between atoms: C_23  and  C_27
   11  A    between atoms: C_26  and  C_28
   12  A    between atoms: C_33  and  C_34
                            x       y       z     vdW  Elec       q    Type
                         _______ _______ _______ _____ _____    ______ ____

>  <TORSDO>
F 12

$$$$
