=
 OpenBabel11052413353D

 28 32  0  0  1  0  0  0  0  0999 V2000
  190.1630  178.2460  142.5210 C   0  0  2  0  0  3  0  0  0  0  0  0
  185.0520  178.9740  142.7150 C   0  0  0  0  0  3  0  0  0  0  0  0
  188.8590  177.0390  147.2800 C   0  0  0  0  0  1  0  0  0  0  0  0
  184.4520  178.4060  145.0000 C   0  0  0  0  0  0  0  0  0  0  0  0
  186.7850  178.2310  144.2950 C   0  0  0  0  0  0  0  0  0  0  0  0
  182.7480  179.1370  143.4420 C   0  0  0  0  0  0  0  0  0  0  0  0
  185.4400  178.5390  143.9940 C   0  0  0  0  0  0  0  0  0  0  0  0
  186.1350  177.6740  146.5720 C   0  0  0  0  0  3  0  0  0  0  0  0
  183.1170  178.7060  144.7180 C   0  0  0  0  0  3  0  0  0  0  0  0
  189.4740  177.6300  144.9090 C   0  0  0  0  0  0  0  0  0  0  0  0
  187.7840  178.3480  143.3210 C   0  0  0  0  0  3  0  0  0  0  0  0
  184.8070  177.9750  146.2780 C   0  0  0  0  0  3  0  0  0  0  0  0
  191.8850  178.0150  144.3270 C   0  0  0  0  0  2  0  0  0  0  0  0
  188.4810  177.4950  145.9000 C   0  0  0  0  0  0  0  0  0  0  0  0
  190.9070  177.2800  145.2310 C   0  0  0  0  0  2  0  0  0  0  0  0
  181.4210  179.4330  143.1670 O   0  0  0  0  0  1  0  0  0  0  0  0
  183.7140  179.2710  142.4420 C   0  0  0  0  0  3  0  0  0  0  0  0
  187.1360  177.7960  145.5960 C   0  0  0  0  0  0  0  0  0  0  0  0
  191.5460  177.6970  142.8820 C   0  0  0  0  0  2  0  0  0  0  0  0
  189.1160  178.0280  143.5990 C   0  0  0  0  0  0  0  0  0  0  0  0
  189.7330  177.7160  141.1850 C   0  0  0  0  0  0  0  0  0  0  0  0
  190.4930  176.7480  140.5110 C   0  0  0  0  0  3  0  0  0  0  0  0
  188.8830  176.7360  138.7000 C   0  0  0  0  0  0  0  0  0  0  0  0
  188.5480  178.1890  140.6100 C   0  0  0  0  0  3  0  0  0  0  0  0
  190.8320  175.3020  138.6140 O   0  0  0  0  0  1  0  0  0  0  0  0
  190.0710  176.2600  139.2720 C   0  0  0  0  0  0  0  0  0  0  0  0
  188.4540  176.2570  137.4690 O   0  0  0  0  0  1  0  0  0  0  0  0
  188.1240  177.7000  139.3710 C   0  0  0  0  0  3  0  0  0  0  0  0
  1 21  1  6  0  0  0
  1 19  1  0  0  0  0
  1 20  1  0  0  0  0
  2  7  1  0  0  0  0
  4 12  1  0  0  0  0
  5 18  1  0  0  0  0
  6  9  2  0  0  0  0
  7  5  1  0  0  0  0
  7  4  2  0  0  0  0
  9  4  1  0  0  0  0
 10 15  1  0  0  0  0
 10 14  1  0  0  0  0
 11 20  1  0  0  0  0
 11  5  2  0  0  0  0
 12  8  2  0  0  0  0
 13 15  1  0  0  0  0
 14  3  1  0  0  0  0
 16  6  1  0  0  0  0
 17  2  2  0  0  0  0
 17  6  1  0  0  0  0
 18 14  2  0  0  0  0
 18  8  1  0  0  0  0
 19 13  1  0  0  0  0
 20 10  2  0  0  0  0
 22 21  2  0  0  0  0
 23 26  2  0  0  0  0
 23 28  1  0  0  0  0
 24 21  1  0  0  0  0
 25 26  1  0  0  0  0
 26 22  1  0  0  0  0
 27 23  1  0  0  0  0
 28 24  2  0  0  0  0
M  END
>  <MODEL>
1

>  <REMARK>
 VINA RESULT:     -11.0      0.000      0.000
  Name = 
  1 active torsions:
  status: ('A' for Active; 'I' for Inactive)
    1  A    between atoms: C_1  and  C_2
                            x       y       z     vdW  Elec       q    Type
                         _______ _______ _______ _____ _____    ______ ____

>  <TORSDO>
F 1

$$$$
=
 OpenBabel11052413353D

 28 32  0  0  1  0  0  0  0  0999 V2000
  190.1360  178.2700  142.5450 C   0  0  2  0  0  3  0  0  0  0  0  0
  185.0260  179.0010  142.7510 C   0  0  0  0  0  3  0  0  0  0  0  0
  188.8350  177.0250  147.2950 C   0  0  0  0  0  1  0  0  0  0  0  0
  184.4280  178.4150  145.0320 C   0  0  0  0  0  0  0  0  0  0  0  0
  186.7600  178.2440  144.3220 C   0  0  0  0  0  0  0  0  0  0  0  0
  182.7230  179.1600  143.4810 C   0  0  0  0  0  0  0  0  0  0  0  0
  185.4150  178.5550  144.0250 C   0  0  0  0  0  0  0  0  0  0  0  0
  186.1120  177.6680  146.5960 C   0  0  0  0  0  3  0  0  0  0  0  0
  183.0920  178.7180  144.7530 C   0  0  0  0  0  3  0  0  0  0  0  0
  189.4490  177.6360  144.9290 C   0  0  0  0  0  0  0  0  0  0  0  0
  187.7580  178.3680  143.3480 C   0  0  0  0  0  3  0  0  0  0  0  0
  184.7830  177.9730  146.3050 C   0  0  0  0  0  3  0  0  0  0  0  0
  191.8590  178.0230  144.3470 C   0  0  0  0  0  2  0  0  0  0  0  0
  188.4570  177.4930  145.9200 C   0  0  0  0  0  0  0  0  0  0  0  0
  190.8810  177.2820  145.2460 C   0  0  0  0  0  2  0  0  0  0  0  0
  181.3950  179.4590  143.2090 O   0  0  0  0  0  1  0  0  0  0  0  0
  183.6880  179.3010  142.4810 C   0  0  0  0  0  3  0  0  0  0  0  0
  187.1110  177.7970  145.6190 C   0  0  0  0  0  0  0  0  0  0  0  0
  191.5180  177.7180  142.9000 C   0  0  0  0  0  2  0  0  0  0  0  0
  189.0900  178.0440  143.6230 C   0  0  0  0  0  0  0  0  0  0  0  0
  189.7040  177.7520  141.2050 C   0  0  0  0  0  0  0  0  0  0  0  0
  188.5720  178.2710  140.5590 C   0  0  0  0  0  3  0  0  0  0  0  0
  188.9420  176.7700  138.6930 C   0  0  0  0  0  0  0  0  0  0  0  0
  190.4510  176.7420  140.5880 C   0  0  0  0  0  3  0  0  0  0  0  0
  187.0680  178.3040  138.6760 O   0  0  0  0  0  1  0  0  0  0  0  0
  188.1910  177.7820  139.3070 C   0  0  0  0  0  0  0  0  0  0  0  0
  188.5730  176.2780  137.4480 O   0  0  0  0  0  1  0  0  0  0  0  0
  190.0710  176.2530  139.3360 C   0  0  0  0  0  3  0  0  0  0  0  0
  1 21  1  6  0  0  0
  1 19  1  0  0  0  0
  1 20  1  0  0  0  0
  2  7  1  0  0  0  0
  4 12  1  0  0  0  0
  5 18  1  0  0  0  0
  6  9  2  0  0  0  0
  7  5  1  0  0  0  0
  7  4  2  0  0  0  0
  9  4  1  0  0  0  0
 10 15  1  0  0  0  0
 10 14  1  0  0  0  0
 11 20  1  0  0  0  0
 11  5  2  0  0  0  0
 12  8  2  0  0  0  0
 13 15  1  0  0  0  0
 14  3  1  0  0  0  0
 16  6  1  0  0  0  0
 17  2  2  0  0  0  0
 17  6  1  0  0  0  0
 18 14  2  0  0  0  0
 18  8  1  0  0  0  0
 19 13  1  0  0  0  0
 20 10  2  0  0  0  0
 22 21  2  0  0  0  0
 23 26  2  0  0  0  0
 23 28  1  0  0  0  0
 24 21  1  0  0  0  0
 25 26  1  0  0  0  0
 26 22  1  0  0  0  0
 27 23  1  0  0  0  0
 28 24  2  0  0  0  0
M  END
>  <MODEL>
2

>  <REMARK>
 VINA RESULT:     -11.0      0.523      1.291
  Name = 
  1 active torsions:
  status: ('A' for Active; 'I' for Inactive)
    1  A    between atoms: C_1  and  C_2
                            x       y       z     vdW  Elec       q    Type
                         _______ _______ _______ _____ _____    ______ ____

>  <TORSDO>
F 1

$$$$
=
 OpenBabel11052413353D

 28 32  0  0  1  0  0  0  0  0999 V2000
  189.8920  177.8000  140.0150 C   0  0  2  0  0  3  0  0  0  0  0  0
  185.1580  178.6340  141.9080 C   0  0  0  0  0  3  0  0  0  0  0  0
  190.3060  176.8970  144.9960 C   0  0  0  0  0  1  0  0  0  0  0  0
  185.3820  178.2120  144.2900 C   0  0  0  0  0  0  0  0  0  0  0  0
  187.3300  177.9520  142.8380 C   0  0  0  0  0  0  0  0  0  0  0  0
  183.2440  178.8830  143.3700 C   0  0  0  0  0  0  0  0  0  0  0  0
  185.9630  178.2670  143.0000 C   0  0  0  0  0  0  0  0  0  0  0  0
  187.5040  177.5400  145.2300 C   0  0  0  0  0  3  0  0  0  0  0  0
  184.0300  178.5190  144.4660 C   0  0  0  0  0  3  0  0  0  0  0  0
  190.0680  177.3380  142.5270 C   0  0  0  0  0  0  0  0  0  0  0  0
  187.9330  177.9940  141.5750 C   0  0  0  0  0  3  0  0  0  0  0  0
  186.1550  177.8490  145.3910 C   0  0  0  0  0  3  0  0  0  0  0  0
  192.1300  177.6420  141.1300 C   0  0  0  0  0  2  0  0  0  0  0  0
  189.4760  177.2790  143.8050 C   0  0  0  0  0  0  0  0  0  0  0  0
  191.5240  176.9800  142.3580 C   0  0  0  0  0  2  0  0  0  0  0  0
  181.9020  179.1870  143.5500 O   0  0  0  0  0  1  0  0  0  0  0  0
  183.8070  178.9400  142.0930 C   0  0  0  0  0  3  0  0  0  0  0  0
  188.1070  177.5870  143.9640 C   0  0  0  0  0  0  0  0  0  0  0  0
  191.3150  177.2470  139.9110 C   0  0  0  0  0  2  0  0  0  0  0  0
  189.2800  177.6650  141.3980 C   0  0  0  0  0  0  0  0  0  0  0  0
  189.0290  177.2010  138.9430 C   0  0  0  0  0  0  0  0  0  0  0  0
  187.8140  177.7980  138.5740 C   0  0  0  0  0  3  0  0  0  0  0  0
  187.4570  176.0630  136.9200 C   0  0  0  0  0  0  0  0  0  0  0  0
  189.4530  176.0360  138.2950 C   0  0  0  0  0  3  0  0  0  0  0  0
  185.8280  177.8300  137.2110 O   0  0  0  0  0  1  0  0  0  0  0  0
  187.0290  177.2300  137.5670 C   0  0  0  0  0  0  0  0  0  0  0  0
  186.6850  175.4920  135.9170 O   0  0  0  0  0  1  0  0  0  0  0  0
  188.6690  175.4680  137.2860 C   0  0  0  0  0  3  0  0  0  0  0  0
  1 21  1  6  0  0  0
  1 20  1  0  0  0  0
  2 17  2  0  0  0  0
  2  7  1  0  0  0  0
  4  9  1  0  0  0  0
  4 12  1  0  0  0  0
  5  7  1  0  0  0  0
  5 18  1  0  0  0  0
  6 16  1  0  0  0  0
  6  9  2  0  0  0  0
  7  4  2  0  0  0  0
  8 12  2  0  0  0  0
 10 14  1  0  0  0  0
 11  5  2  0  0  0  0
 13 15  1  0  0  0  0
 14 18  2  0  0  0  0
 14  3  1  0  0  0  0
 15 10  1  0  0  0  0
 17  6  1  0  0  0  0
 18  8  1  0  0  0  0
 19  1  1  0  0  0  0
 19 13  1  0  0  0  0
 20 11  1  0  0  0  0
 20 10  2  0  0  0  0
 22 21  1  0  0  0  0
 23 28  2  0  0  0  0
 23 26  1  0  0  0  0
 24 21  2  0  0  0  0
 25 26  1  0  0  0  0
 26 22  2  0  0  0  0
 27 23  1  0  0  0  0
 28 24  1  0  0  0  0
M  END
>  <MODEL>
3

>  <REMARK>
 VINA RESULT:     -10.6      1.489      2.509
  Name = 
  1 active torsions:
  status: ('A' for Active; 'I' for Inactive)
    1  A    between atoms: C_1  and  C_2
                            x       y       z     vdW  Elec       q    Type
                         _______ _______ _______ _____ _____    ______ ____

>  <TORSDO>
F 1

$$$$
=
 OpenBabel11052413353D

 28 32  0  0  1  0  0  0  0  0999 V2000
  186.3650  177.5030  142.8610 C   0  0  2  0  0  3  0  0  0  0  0  0
  190.6420  176.2760  145.4870 C   0  0  0  0  0  3  0  0  0  0  0  0
  185.6780  179.5120  147.4750 C   0  0  0  0  0  1  0  0  0  0  0  0
  190.2860  177.2330  147.6920 C   0  0  0  0  0  0  0  0  0  0  0  0
  188.5720  177.5120  145.9730 C   0  0  0  0  0  0  0  0  0  0  0  0
  192.3240  176.0150  147.2090 C   0  0  0  0  0  0  0  0  0  0  0  0
  189.8280  177.0040  146.3710 C   0  0  0  0  0  0  0  0  0  0  0  0
  188.2620  178.4520  148.1960 C   0  0  0  0  0  3  0  0  0  0  0  0
  191.5270  176.7370  148.1000 C   0  0  0  0  0  3  0  0  0  0  0  0
  186.0520  178.5170  145.1910 C   0  0  0  0  0  0  0  0  0  0  0  0
  188.0930  177.3070  144.6740 C   0  0  0  0  0  3  0  0  0  0  0  0
  189.5020  177.9530  148.5910 C   0  0  0  0  0  3  0  0  0  0  0  0
  184.1090  178.2870  143.6200 C   0  0  0  0  0  2  0  0  0  0  0  0
  186.5230  178.7440  146.5010 C   0  0  0  0  0  0  0  0  0  0  0  0
  184.7180  179.0800  144.7660 C   0  0  0  0  0  2  0  0  0  0  0  0
  193.5560  175.5250  147.6190 O   0  0  0  0  0  1  0  0  0  0  0  0
  191.8820  175.7840  145.9040 C   0  0  0  0  0  3  0  0  0  0  0  0
  187.7820  178.2420  146.8940 C   0  0  0  0  0  0  0  0  0  0  0  0
  185.0960  178.2610  142.4660 C   0  0  0  0  0  2  0  0  0  0  0  0
  186.8600  177.8220  144.2610 C   0  0  0  0  0  0  0  0  0  0  0  0
  187.4250  177.6960  141.8170 C   0  0  0  0  0  0  0  0  0  0  0  0
  188.7000  177.1290  141.9660 C   0  0  0  0  0  3  0  0  0  0  0  0
  189.3700  178.0630  139.8330 C   0  0  0  0  0  0  0  0  0  0  0  0
  187.1300  178.4450  140.6720 C   0  0  0  0  0  3  0  0  0  0  0  0
  190.9290  176.7460  141.1360 O   0  0  0  0  0  1  0  0  0  0  0  0
  189.6700  177.3120  140.9780 C   0  0  0  0  0  0  0  0  0  0  0  0
  190.3280  178.2500  138.8450 O   0  0  0  0  0  1  0  0  0  0  0  0
  188.1000  178.6280  139.6830 C   0  0  0  0  0  3  0  0  0  0  0  0
  1 21  1  6  0  0  0
  1 20  1  0  0  0  0
  2 17  2  0  0  0  0
  2  7  1  0  0  0  0
  4  9  1  0  0  0  0
  4 12  1  0  0  0  0
  5  7  1  0  0  0  0
  5 18  1  0  0  0  0
  6 16  1  0  0  0  0
  6  9  2  0  0  0  0
  7  4  2  0  0  0  0
  8 12  2  0  0  0  0
 10 14  1  0  0  0  0
 11  5  2  0  0  0  0
 13 15  1  0  0  0  0
 14 18  2  0  0  0  0
 14  3  1  0  0  0  0
 15 10  1  0  0  0  0
 17  6  1  0  0  0  0
 18  8  1  0  0  0  0
 19  1  1  0  0  0  0
 19 13  1  0  0  0  0
 20 11  1  0  0  0  0
 20 10  2  0  0  0  0
 21 22  1  0  0  0  0
 23 26  1  0  0  0  0
 24 21  2  0  0  0  0
 26 25  1  0  0  0  0
 26 22  2  0  0  0  0
 27 23  1  0  0  0  0
 28 23  2  0  0  0  0
 28 24  1  0  0  0  0
M  END
>  <MODEL>
4

>  <REMARK>
 VINA RESULT:     -10.4      2.471      5.599
  Name = 
  1 active torsions:
  status: ('A' for Active; 'I' for Inactive)
    1  A    between atoms: C_1  and  C_2
                            x       y       z     vdW  Elec       q    Type
                         _______ _______ _______ _____ _____    ______ ____

>  <TORSDO>
F 1

$$$$
=
 OpenBabel11052413353D

 28 32  0  0  1  0  0  0  0  0999 V2000
  189.7380  177.7300  139.7500 C   0  0  2  0  0  3  0  0  0  0  0  0
  185.2050  178.6570  142.0480 C   0  0  0  0  0  3  0  0  0  0  0  0
  190.5510  176.7530  144.6670 C   0  0  0  0  0  1  0  0  0  0  0  0
  185.6200  178.1980  144.3980 C   0  0  0  0  0  0  0  0  0  0  0  0
  187.4300  177.9090  142.7820 C   0  0  0  0  0  0  0  0  0  0  0  0
  183.4290  178.9340  143.6710 C   0  0  0  0  0  0  0  0  0  0  0  0
  186.0900  178.2560  143.0630 C   0  0  0  0  0  0  0  0  0  0  0  0
  187.7970  177.4620  145.1460 C   0  0  0  0  0  3  0  0  0  0  0  0
  184.2960  178.5370  144.6920 C   0  0  0  0  0  3  0  0  0  0  0  0
  190.1150  177.2310  142.2320 C   0  0  0  0  0  0  0  0  0  0  0  0
  187.9240  177.9520  141.4730 C   0  0  0  0  0  3  0  0  0  0  0  0
  186.4740  177.8030  145.4260 C   0  0  0  0  0  3  0  0  0  0  0  0
  192.0580  177.5020  140.6680 C   0  0  0  0  0  2  0  0  0  0  0  0
  189.6330  177.1710  143.5560 C   0  0  0  0  0  0  0  0  0  0  0  0
  191.5420  176.8400  141.9360 C   0  0  0  0  0  2  0  0  0  0  0  0
  182.1160  179.2690  143.9680 O   0  0  0  0  0  1  0  0  0  0  0  0
  183.8830  178.9940  142.3510 C   0  0  0  0  0  3  0  0  0  0  0  0
  188.2910  177.5100  143.8340 C   0  0  0  0  0  0  0  0  0  0  0  0
  191.1320  177.1430  139.5190 C   0  0  0  0  0  2  0  0  0  0  0  0
  189.2420  177.5920  141.1790 C   0  0  0  0  0  0  0  0  0  0  0  0
  188.7720  177.1670  138.7490 C   0  0  0  0  0  0  0  0  0  0  0  0
  189.0030  175.9230  138.1400 C   0  0  0  0  0  3  0  0  0  0  0  0
  186.9330  176.1400  136.8990 C   0  0  0  0  0  0  0  0  0  0  0  0
  187.6180  177.8910  138.4280 C   0  0  0  0  0  3  0  0  0  0  0  0
  188.3260  174.1790  136.6210 O   0  0  0  0  0  1  0  0  0  0  0  0
  188.0870  175.4120  137.2180 C   0  0  0  0  0  0  0  0  0  0  0  0
  186.0160  175.6400  135.9840 O   0  0  0  0  0  1  0  0  0  0  0  0
  186.7010  177.3790  137.5060 C   0  0  0  0  0  3  0  0  0  0  0  0
  1 21  1  6  0  0  0
  1 20  1  0  0  0  0
  2 17  2  0  0  0  0
  2  7  1  0  0  0  0
  4  9  1  0  0  0  0
  4 12  1  0  0  0  0
  5  7  1  0  0  0  0
  5 18  1  0  0  0  0
  6 16  1  0  0  0  0
  6  9  2  0  0  0  0
  7  4  2  0  0  0  0
  8 12  2  0  0  0  0
 10 14  1  0  0  0  0
 11  5  2  0  0  0  0
 13 15  1  0  0  0  0
 14 18  2  0  0  0  0
 14  3  1  0  0  0  0
 15 10  1  0  0  0  0
 17  6  1  0  0  0  0
 18  8  1  0  0  0  0
 19  1  1  0  0  0  0
 19 13  1  0  0  0  0
 20 11  1  0  0  0  0
 20 10  2  0  0  0  0
 22 21  2  0  0  0  0
 23 26  2  0  0  0  0
 23 28  1  0  0  0  0
 24 21  1  0  0  0  0
 25 26  1  0  0  0  0
 26 22  1  0  0  0  0
 27 23  1  0  0  0  0
 28 24  2  0  0  0  0
M  END
>  <MODEL>
5

>  <REMARK>
 VINA RESULT:     -10.4      1.378      2.428
  Name = 
  1 active torsions:
  status: ('A' for Active; 'I' for Inactive)
    1  A    between atoms: C_1  and  C_2
                            x       y       z     vdW  Elec       q    Type
                         _______ _______ _______ _____ _____    ______ ____

>  <TORSDO>
F 1

$$$$
=
 OpenBabel11052413353D

 28 32  0  0  1  0  0  0  0  0999 V2000
  186.4430  177.4490  142.7820 C   0  0  2  0  0  3  0  0  0  0  0  0
  190.6590  176.2430  145.5150 C   0  0  0  0  0  3  0  0  0  0  0  0
  185.6810  179.5510  147.3430 C   0  0  0  0  0  1  0  0  0  0  0  0
  190.2670  177.2440  147.6940 C   0  0  0  0  0  0  0  0  0  0  0  0
  188.5890  177.5030  145.9370 C   0  0  0  0  0  0  0  0  0  0  0  0
  192.3040  176.0030  147.2750 C   0  0  0  0  0  0  0  0  0  0  0  0
  189.8330  176.9940  146.3690 C   0  0  0  0  0  0  0  0  0  0  0  0
  188.2420  178.4870  148.1350 C   0  0  0  0  0  3  0  0  0  0  0  0
  191.4960  176.7480  148.1370 C   0  0  0  0  0  3  0  0  0  0  0  0
  186.0920  178.5100  145.0860 C   0  0  0  0  0  0  0  0  0  0  0  0
  188.1340  177.2760  144.6320 C   0  0  0  0  0  3  0  0  0  0  0  0
  189.4700  177.9860  148.5640 C   0  0  0  0  0  3  0  0  0  0  0  0
  184.1790  178.2630  143.4810 C   0  0  0  0  0  2  0  0  0  0  0  0
  186.5380  178.7580  146.4000 C   0  0  0  0  0  0  0  0  0  0  0  0
  184.7710  179.0740  144.6240 C   0  0  0  0  0  2  0  0  0  0  0  0
  193.5240  175.5130  147.7190 O   0  0  0  0  0  1  0  0  0  0  0  0
  191.8860  175.7510  145.9660 C   0  0  0  0  0  3  0  0  0  0  0  0
  187.7860  178.2550  146.8280 C   0  0  0  0  0  0  0  0  0  0  0  0
  185.1880  178.2090  142.3480 C   0  0  0  0  0  2  0  0  0  0  0  0
  186.9140  177.7920  144.1850 C   0  0  0  0  0  0  0  0  0  0  0  0
  187.5250  177.6160  141.7560 C   0  0  0  0  0  0  0  0  0  0  0  0
  187.2650  178.2350  140.5240 C   0  0  0  0  0  3  0  0  0  0  0  0
  189.5790  177.9250  139.8730 C   0  0  0  0  0  0  0  0  0  0  0  0
  188.8150  177.1550  142.0400 C   0  0  0  0  0  3  0  0  0  0  0  0
  188.0180  179.0030  138.3680 O   0  0  0  0  0  1  0  0  0  0  0  0
  188.2880  178.3880  139.5850 C   0  0  0  0  0  0  0  0  0  0  0  0
  190.6020  178.0740  138.9470 O   0  0  0  0  0  1  0  0  0  0  0  0
  189.8390  177.3090  141.1020 C   0  0  0  0  0  3  0  0  0  0  0  0
  1 21  1  6  0  0  0
  1 20  1  0  0  0  0
  2 17  2  0  0  0  0
  2  7  1  0  0  0  0
  4  9  1  0  0  0  0
  4 12  1  0  0  0  0
  5  7  1  0  0  0  0
  5 18  1  0  0  0  0
  6 16  1  0  0  0  0
  6  9  2  0  0  0  0
  7  4  2  0  0  0  0
  8 12  2  0  0  0  0
 10 14  1  0  0  0  0
 11  5  2  0  0  0  0
 13 15  1  0  0  0  0
 14 18  2  0  0  0  0
 14  3  1  0  0  0  0
 15 10  1  0  0  0  0
 17  6  1  0  0  0  0
 18  8  1  0  0  0  0
 19  1  1  0  0  0  0
 19 13  1  0  0  0  0
 20 11  1  0  0  0  0
 20 10  2  0  0  0  0
 21 24  1  0  0  0  0
 22 21  2  0  0  0  0
 23 28  1  0  0  0  0
 25 26  1  0  0  0  0
 26 23  2  0  0  0  0
 26 22  1  0  0  0  0
 27 23  1  0  0  0  0
 28 24  2  0  0  0  0
M  END
>  <MODEL>
6

>  <REMARK>
 VINA RESULT:     -10.3      2.412      5.684
  Name = 
  1 active torsions:
  status: ('A' for Active; 'I' for Inactive)
    1  A    between atoms: C_1  and  C_2
                            x       y       z     vdW  Elec       q    Type
                         _______ _______ _______ _____ _____    ______ ____

>  <TORSDO>
F 1

$$$$
=
 OpenBabel11052413353D

 28 32  0  0  1  0  0  0  0  0999 V2000
  184.3740  177.9630  142.5290 C   0  0  2  0  0  3  0  0  0  0  0  0
  189.1750  176.1660  143.1760 C   0  0  0  0  0  3  0  0  0  0  0  0
  185.6780  179.4010  147.2230 C   0  0  0  0  0  1  0  0  0  0  0  0
  189.7720  176.8510  145.4290 C   0  0  0  0  0  0  0  0  0  0  0  0
  187.5760  177.4470  144.5380 C   0  0  0  0  0  0  0  0  0  0  0  0
  191.3440  175.5900  144.0850 C   0  0  0  0  0  0  0  0  0  0  0  0
  188.8310  176.8210  144.3710 C   0  0  0  0  0  0  0  0  0  0  0  0
  188.2200  178.1110  146.7880 C   0  0  0  0  0  3  0  0  0  0  0  0
  191.0180  176.2370  145.2800 C   0  0  0  0  0  3  0  0  0  0  0  0
  185.0640  178.6860  144.8860 C   0  0  0  0  0  0  0  0  0  0  0  0
  186.6260  177.4380  143.5090 C   0  0  0  0  0  3  0  0  0  0  0  0
  189.4600  177.4950  146.6260 C   0  0  0  0  0  3  0  0  0  0  0  0
  182.6610  178.7710  144.1680 C   0  0  0  0  0  2  0  0  0  0  0  0
  186.0110  178.7160  145.9290 C   0  0  0  0  0  0  0  0  0  0  0  0
  183.7330  179.3750  145.0620 C   0  0  0  0  0  2  0  0  0  0  0  0
  192.5830  174.9830  143.9410 O   0  0  0  0  0  1  0  0  0  0  0  0
  190.4230  175.5550  143.0350 C   0  0  0  0  0  3  0  0  0  0  0  0
  187.2680  178.0960  145.7580 C   0  0  0  0  0  0  0  0  0  0  0  0
  183.1340  178.8370  142.7270 C   0  0  0  0  0  2  0  0  0  0  0  0
  185.3880  178.0710  143.6540 C   0  0  0  0  0  0  0  0  0  0  0  0
  184.9780  178.2270  141.1810 C   0  0  0  0  0  0  0  0  0  0  0  0
  186.3680  178.3430  141.0210 C   0  0  0  0  0  3  0  0  0  0  0  0
  186.0690  178.7000  138.6430 C   0  0  0  0  0  0  0  0  0  0  0  0
  184.1410  178.3470  140.0670 C   0  0  0  0  0  3  0  0  0  0  0  0
  188.2890  178.6940  139.6100 O   0  0  0  0  0  1  0  0  0  0  0  0
  186.9120  178.5800  139.7560 C   0  0  0  0  0  0  0  0  0  0  0  0
  186.6000  178.9340  137.3810 O   0  0  0  0  0  1  0  0  0  0  0  0
  184.6850  178.5830  138.8010 C   0  0  0  0  0  3  0  0  0  0  0  0
  1 21  1  6  0  0  0
  1 19  1  0  0  0  0
  1 20  1  0  0  0  0
  2  7  1  0  0  0  0
  4 12  1  0  0  0  0
  5 18  1  0  0  0  0
  6  9  2  0  0  0  0
  7  5  1  0  0  0  0
  7  4  2  0  0  0  0
  9  4  1  0  0  0  0
 10 15  1  0  0  0  0
 10 14  1  0  0  0  0
 11 20  1  0  0  0  0
 11  5  2  0  0  0  0
 12  8  2  0  0  0  0
 13 15  1  0  0  0  0
 14  3  1  0  0  0  0
 16  6  1  0  0  0  0
 17  2  2  0  0  0  0
 17  6  1  0  0  0  0
 18 14  2  0  0  0  0
 18  8  1  0  0  0  0
 19 13  1  0  0  0  0
 20 10  2  0  0  0  0
 22 21  1  0  0  0  0
 23 28  2  0  0  0  0
 23 26  1  0  0  0  0
 24 21  2  0  0  0  0
 25 26  1  0  0  0  0
 26 22  2  0  0  0  0
 27 23  1  0  0  0  0
 28 24  1  0  0  0  0
M  END
>  <MODEL>
7

>  <REMARK>
 VINA RESULT:     -10.2      2.447      5.663
  Name = 
  1 active torsions:
  status: ('A' for Active; 'I' for Inactive)
    1  A    between atoms: C_1  and  C_2
                            x       y       z     vdW  Elec       q    Type
                         _______ _______ _______ _____ _____    ______ ____

>  <TORSDO>
F 1

$$$$
=
 OpenBabel11052413353D

 28 32  0  0  1  0  0  0  0  0999 V2000
  190.2950  178.0970  141.0390 C   0  0  2  0  0  3  0  0  0  0  0  0
  185.2470  178.9160  140.3040 C   0  0  0  0  0  3  0  0  0  0  0  0
  188.1750  177.3120  145.5880 C   0  0  0  0  0  1  0  0  0  0  0  0
  184.2560  178.5500  142.4920 C   0  0  0  0  0  0  0  0  0  0  0  0
  186.6680  178.2820  142.2090 C   0  0  0  0  0  0  0  0  0  0  0  0
  182.8600  179.1740  140.6130 C   0  0  0  0  0  0  0  0  0  0  0  0
  185.4020  178.5840  141.6610 C   0  0  0  0  0  0  0  0  0  0  0  0
  185.6290  177.9260  144.3800 C   0  0  0  0  0  3  0  0  0  0  0  0
  182.9960  178.8450  141.9640 C   0  0  0  0  0  3  0  0  0  0  0  0
  189.1970  177.6940  143.3170 C   0  0  0  0  0  0  0  0  0  0  0  0
  187.8190  178.3020  141.4130 C   0  0  0  0  0  3  0  0  0  0  0  0
  184.3780  178.2220  143.8410 C   0  0  0  0  0  3  0  0  0  0  0  0
  191.6810  177.9920  143.1240 C   0  0  0  0  0  2  0  0  0  0  0  0
  188.0480  177.6570  144.1330 C   0  0  0  0  0  0  0  0  0  0  0  0
  190.5440  177.3500  143.9040 C   0  0  0  0  0  2  0  0  0  0  0  0
  181.6060  179.4660  140.0940 O   0  0  0  0  0  1  0  0  0  0  0  0
  183.9830  179.2090  139.7850 C   0  0  0  0  0  3  0  0  0  0  0  0
  186.7820  177.9510  143.5810 C   0  0  0  0  0  0  0  0  0  0  0  0
  191.5810  177.5590  141.6720 C   0  0  0  0  0  2  0  0  0  0  0  0
  189.0750  177.9860  141.9380 C   0  0  0  0  0  0  0  0  0  0  0  0
  190.0800  177.4640  139.6960 C   0  0  0  0  0  0  0  0  0  0  0  0
  190.6030  176.1950  139.4010 C   0  0  0  0  0  3  0  0  0  0  0  0
  189.6380  176.3070  137.1810 C   0  0  0  0  0  0  0  0  0  0  0  0
  189.3350  178.1470  138.7280 C   0  0  0  0  0  3  0  0  0  0  0  0
  190.9070  174.3630  137.8670 O   0  0  0  0  0  1  0  0  0  0  0  0
  190.3840  175.6190  138.1480 C   0  0  0  0  0  0  0  0  0  0  0  0
  189.4140  175.7420  135.9330 O   0  0  0  0  0  1  0  0  0  0  0  0
  189.1150  177.5710  137.4750 C   0  0  0  0  0  3  0  0  0  0  0  0
  1 21  1  6  0  0  0
  1 19  1  0  0  0  0
  1 20  1  0  0  0  0
  2  7  1  0  0  0  0
  4 12  1  0  0  0  0
  5 18  1  0  0  0  0
  6  9  2  0  0  0  0
  7  5  1  0  0  0  0
  7  4  2  0  0  0  0
  9  4  1  0  0  0  0
 10 15  1  0  0  0  0
 10 14  1  0  0  0  0
 11 20  1  0  0  0  0
 11  5  2  0  0  0  0
 12  8  2  0  0  0  0
 13 15  1  0  0  0  0
 14  3  1  0  0  0  0
 16  6  1  0  0  0  0
 17  2  2  0  0  0  0
 17  6  1  0  0  0  0
 18 14  2  0  0  0  0
 18  8  1  0  0  0  0
 19 13  1  0  0  0  0
 20 10  2  0  0  0  0
 22 21  1  0  0  0  0
 23 28  2  0  0  0  0
 23 26  1  0  0  0  0
 24 21  2  0  0  0  0
 25 26  1  0  0  0  0
 26 22  2  0  0  0  0
 27 23  1  0  0  0  0
 28 24  1  0  0  0  0
M  END
>  <MODEL>
8

>  <REMARK>
 VINA RESULT:     -10.0      1.443      2.028
  Name = 
  1 active torsions:
  status: ('A' for Active; 'I' for Inactive)
    1  A    between atoms: C_1  and  C_2
                            x       y       z     vdW  Elec       q    Type
                         _______ _______ _______ _____ _____    ______ ____

>  <TORSDO>
F 1

$$$$
=
 OpenBabel11052413353D

 28 32  0  0  1  0  0  0  0  0999 V2000
  186.8000  178.7160  138.4070 C   0  0  2  0  0  3  0  0  0  0  0  0
  185.3060  178.6280  143.3520 C   0  0  0  0  0  3  0  0  0  0  0  0
  190.7920  176.8550  140.9380 C   0  0  0  0  0  1  0  0  0  0  0  0
  187.2320  177.7500  144.5440 C   0  0  0  0  0  0  0  0  0  0  0  0
  187.3400  178.0060  142.1170 C   0  0  0  0  0  0  0  0  0  0  0  0
  185.2270  178.3620  145.7570 C   0  0  0  0  0  0  0  0  0  0  0  0
  186.6210  178.1320  143.3260 C   0  0  0  0  0  0  0  0  0  0  0  0
  189.2430  177.1310  143.3550 C   0  0  0  0  0  3  0  0  0  0  0  0
  186.5330  177.8670  145.7490 C   0  0  0  0  0  3  0  0  0  0  0  0
  188.7910  177.7670  139.7070 C   0  0  0  0  0  0  0  0  0  0  0  0
  186.7620  178.3720  140.8950 C   0  0  0  0  0  3  0  0  0  0  0  0
  188.5350  177.2530  144.5490 C   0  0  0  0  0  3  0  0  0  0  0  0
  189.0650  178.5730  137.3470 C   0  0  0  0  0  2  0  0  0  0  0  0
  189.3860  177.3830  140.9260 C   0  0  0  0  0  0  0  0  0  0  0  0
  189.5570  177.6110  138.4160 C   0  0  0  0  0  2  0  0  0  0  0  0
  184.5370  178.4770  146.9560 O   0  0  0  0  0  1  0  0  0  0  0  0
  184.6140  178.7420  144.5610 C   0  0  0  0  0  3  0  0  0  0  0  0
  188.6630  177.5020  142.1320 C   0  0  0  0  0  0  0  0  0  0  0  0
  187.5770  178.3530  137.1400 C   0  0  0  0  0  2  0  0  0  0  0  0
  187.4550  178.2330  139.6890 C   0  0  0  0  0  0  0  0  0  0  0  0
  185.3750  178.2620  138.2830 C   0  0  0  0  0  0  0  0  0  0  0  0
  184.3270  179.0060  138.8450 C   0  0  0  0  0  3  0  0  0  0  0  0
  182.7250  177.3910  138.0110 C   0  0  0  0  0  0  0  0  0  0  0  0
  185.0900  177.0830  137.5850 C   0  0  0  0  0  3  0  0  0  0  0  0
  181.9760  179.3170  139.2720 O   0  0  0  0  0  1  0  0  0  0  0  0
  183.0050  178.5720  138.7110 C   0  0  0  0  0  0  0  0  0  0  0  0
  181.4150  176.9520  137.8700 O   0  0  0  0  0  1  0  0  0  0  0  0
  183.7690  176.6490  137.4490 C   0  0  0  0  0  3  0  0  0  0  0  0
  1 21  1  6  0  0  0
  1 20  1  0  0  0  0
  2 17  1  0  0  0  0
  4 12  1  0  0  0  0
  4  9  2  0  0  0  0
  5 18  1  0  0  0  0
  5  7  1  0  0  0  0
  6 16  1  0  0  0  0
  7  2  2  0  0  0  0
  7  4  1  0  0  0  0
  8 12  2  0  0  0  0
  9  6  1  0  0  0  0
 10 14  1  0  0  0  0
 11  5  2  0  0  0  0
 13 15  1  0  0  0  0
 14  3  1  0  0  0  0
 14 18  2  0  0  0  0
 15 10  1  0  0  0  0
 17  6  2  0  0  0  0
 18  8  1  0  0  0  0
 19 13  1  0  0  0  0
 19  1  1  0  0  0  0
 20 10  2  0  0  0  0
 20 11  1  0  0  0  0
 21 22  1  0  0  0  0
 23 26  1  0  0  0  0
 24 21  2  0  0  0  0
 26 22  2  0  0  0  0
 26 25  1  0  0  0  0
 27 23  1  0  0  0  0
 28 24  1  0  0  0  0
 28 23  2  0  0  0  0
M  END
>  <MODEL>
9

>  <REMARK>
 VINA RESULT:     -10.0      2.766      5.307
  Name = 
  1 active torsions:
  status: ('A' for Active; 'I' for Inactive)
    1  A    between atoms: C_1  and  C_2
                            x       y       z     vdW  Elec       q    Type
                         _______ _______ _______ _____ _____    ______ ____

>  <TORSDO>
F 1

$$$$
