=
 OpenBabel11052414003D

 34 38  0  0  1  0  0  0  0  0999 V2000
  189.8850  176.8420  141.7420 C   0  0  1  0  0  0  0  0  0  0  0  0
  187.7580  178.0960  140.5020 S   0  0  0  0  0  0  0  0  0  0  0  0
  188.7100  176.7700  142.7020 C   0  0  0  0  0  2  0  0  0  0  0  0
  190.5640  175.6230  141.7420 O   0  0  0  0  0  1  0  0  0  0  0  0
  187.7200  177.8550  142.3090 C   0  0  2  0  0  3  0  0  0  0  0  0
  189.2670  177.0760  140.3670 C   0  0  1  0  0  3  0  0  0  0  0  0
  190.9210  175.4680  137.7490 C   0  0  0  0  0  0  0  0  0  0  0  0
  192.6500  176.6130  139.0630 C   0  0  0  0  0  0  0  0  0  0  0  0
  190.2410  177.4420  139.2350 C   0  0  1  0  0  3  0  0  0  0  0  0
  193.2560  174.7220  137.6140 C   0  0  0  0  0  3  0  0  0  0  0  0
  193.6380  175.7740  138.3520 C   0  0  0  0  0  3  0  0  0  0  0  0
  191.1890  176.2560  139.0000 C   0  0  1  0  0  3  0  0  0  0  0  0
  191.8110  174.2980  137.4910 C   0  0  0  0  0  2  0  0  0  0  0  0
  189.5620  177.9500  137.9790 C   0  0  0  0  0  0  0  0  0  0  0  0
  190.1660  175.9570  136.7690 C   0  0  0  0  0  3  0  0  0  0  0  0
  193.0480  177.5770  139.7700 O   0  0  0  0  0  0  0  0  0  0  0  0
  188.9220  179.2270  138.0090 N   0  0  0  0  0  2  0  0  0  0  0  0
  189.5090  177.2230  136.9000 N   0  0  0  0  0  0  0  0  0  0  0  0
  188.2220  179.7820  136.8620 C   0  0  0  0  0  2  0  0  0  0  0  0
  186.8980  179.3490  136.8750 O   0  0  0  0  0  1  0  0  0  0  0  0
  186.3150  177.5510  142.8170 C   0  0  0  0  0  2  0  0  0  0  0  0
  185.9000  178.4760  143.9600 C   0  0  0  0  0  2  0  0  0  0  0  0
  184.1060  178.9940  146.2530 O   0  0  0  0  0  0  0  0  0  0  0  0
  185.9590  177.7820  145.3190 C   0  0  2  0  0  3  0  0  0  0  0  0
  185.2870  178.5860  146.4080 C   0  0  0  0  0  0  0  0  0  0  0  0
  187.2360  178.4350  147.8620 C   0  0  0  0  0  3  0  0  0  0  0  0
  187.9460  177.6650  146.8270 C   0  0  0  0  0  3  0  0  0  0  0  0
  187.3710  177.3700  145.6580 C   0  0  0  0  0  3  0  0  0  0  0  0
  185.9910  178.8700  147.6680 C   0  0  0  0  0  3  0  0  0  0  0  0
  190.8410  177.9720  142.1400 C   0  0  0  0  0  2  0  0  0  0  0  0
  191.3650  178.2160  144.6130 C   0  0  1  0  0  3  0  0  0  0  0  0
  191.7440  177.5850  143.3130 C   0  0  2  0  0  3  0  0  0  0  0  0
  192.3880  178.7380  143.8010 O   0  0  0  0  0  0  0  0  0  0  0  0
  190.2350  179.0340  144.5150 O   0  0  0  0  0  1  0  0  0  0  0  0
  1  4  1  1  0  0  0
  1 30  1  0  0  0  0
  1  3  1  0  0  0  0
  2  5  1  0  0  0  0
  5  3  1  0  0  0  0
  5 21  1  6  0  0  0
  6  2  1  1  0  0  0
  6  1  1  0  0  0  0
  8 16  2  0  0  0  0
  9 14  1  6  0  0  0
  9  6  1  0  0  0  0
 10 11  2  0  0  0  0
 11  8  1  0  0  0  0
 12  7  1  6  0  0  0
 12  8  1  0  0  0  0
 12  9  1  0  0  0  0
 13 10  1  0  0  0  0
 13  7  1  0  0  0  0
 14 17  1  0  0  0  0
 15 18  1  0  0  0  0
 15  7  2  0  0  0  0
 18 14  2  0  0  0  0
 19 20  1  0  0  0  0
 19 17  1  0  0  0  0
 21 22  1  0  0  0  0
 23 25  2  0  0  0  0
 24 22  1  6  0  0  0
 24 28  1  0  0  0  0
 24 25  1  0  0  0  0
 25 29  1  0  0  0  0
 27 26  1  0  0  0  0
 28 27  2  0  0  0  0
 29 26  2  0  0  0  0
 31 34  1  6  0  0  0
 32 30  1  6  0  0  0
 32 33  1  0  0  0  0
 32 31  1  0  0  0  0
 33 31  1  0  0  0  0
M  END
>  <MODEL>
1

>  <REMARK>
 VINA RESULT:      -7.1      0.000      0.000
  Name = 
  7 active torsions:
  status: ('A' for Active; 'I' for Inactive)
    1  A    between atoms: C_3  and  C_13
    2  A    between atoms: C_3  and  C_17
    3  A    between atoms: C_4  and  C_31
    4  A    between atoms: C_5  and  C_27
    5  A    between atoms: C_8  and  C_27
    6  A    between atoms: C_12  and  N_28
    7  A    between atoms: C_17  and  C_29
                            x       y       z     vdW  Elec       q    Type
                         _______ _______ _______ _____ _____    ______ ____

>  <TORSDO>
F 7

$$$$
=
 OpenBabel11052414003D

 34 38  0  0  1  0  0  0  0  0999 V2000
  191.1500  175.4090  137.7110 C   0  0  1  0  0  0  0  0  0  0  0  0
  189.2200  176.9540  138.9430 S   0  0  0  0  0  0  0  0  0  0  0  0
  191.7590  175.9270  139.0020 C   0  0  0  0  0  2  0  0  0  0  0  0
  191.5050  174.0710  137.5310 O   0  0  0  0  0  1  0  0  0  0  0  0
  190.9660  177.1500  139.4330 C   0  0  2  0  0  3  0  0  0  0  0  0
  189.6410  175.5090  137.9090 C   0  0  1  0  0  3  0  0  0  0  0  0
  186.6640  173.8900  137.0750 C   0  0  0  0  0  0  0  0  0  0  0  0
  188.3780  173.0220  135.5460 C   0  0  0  0  0  0  0  0  0  0  0  0
  188.7720  175.2860  136.6590 C   0  0  1  0  0  3  0  0  0  0  0  0
  186.3320  171.7250  135.9670 C   0  0  0  0  0  3  0  0  0  0  0  0
  187.4320  171.9320  135.2290 C   0  0  0  0  0  3  0  0  0  0  0  0
  188.1310  173.8930  136.7490 C   0  0  1  0  0  3  0  0  0  0  0  0
  186.0050  172.5550  137.1860 C   0  0  0  0  0  2  0  0  0  0  0  0
  187.7880  176.4060  136.3880 C   0  0  0  0  0  0  0  0  0  0  0  0
  185.9240  174.9890  136.9520 C   0  0  0  0  0  3  0  0  0  0  0  0
  189.4160  173.1690  134.8470 O   0  0  0  0  0  0  0  0  0  0  0  0
  188.2860  177.6770  135.9660 N   0  0  0  0  0  2  0  0  0  0  0  0
  186.5110  176.2410  136.5810 N   0  0  0  0  0  0  0  0  0  0  0  0
  187.4190  178.8150  135.7110 C   0  0  0  0  0  2  0  0  0  0  0  0
  187.4600  179.6810  136.8000 O   0  0  0  0  0  1  0  0  0  0  0  0
  191.1150  177.4250  140.9250 C   0  0  0  0  0  2  0  0  0  0  0  0
  189.7950  177.2590  141.6780 C   0  0  0  0  0  2  0  0  0  0  0  0
  187.6250  176.5020  143.5380 O   0  0  0  0  0  0  0  0  0  0  0  0
  189.9600  176.4660  142.9710 C   0  0  2  0  0  3  0  0  0  0  0  0
  188.8080  176.6760  143.9290 C   0  0  0  0  0  0  0  0  0  0  0  0
  190.3060  177.2230  145.7700 C   0  0  0  0  0  3  0  0  0  0  0  0
  191.4640  177.0530  144.8760 C   0  0  0  0  0  3  0  0  0  0  0  0
  191.3120  176.7140  143.5930 C   0  0  0  0  0  3  0  0  0  0  0  0
  189.0610  177.0490  145.3280 C   0  0  0  0  0  3  0  0  0  0  0  0
  191.6280  176.2400  136.5150 C   0  0  0  0  0  2  0  0  0  0  0  0
  193.9320  175.7580  135.5620 C   0  0  1  0  0  3  0  0  0  0  0  0
  192.4760  175.4230  135.5390 C   0  0  2  0  0  3  0  0  0  0  0  0
  193.0590  176.2890  134.5950 O   0  0  0  0  0  0  0  0  0  0  0  0
  194.2500  176.7510  136.4940 O   0  0  0  0  0  1  0  0  0  0  0  0
  1  4  1  6  0  0  0
  1  6  1  0  0  0  0
  1  3  1  0  0  0  0
  2  5  1  0  0  0  0
  3  5  1  0  0  0  0
  5 21  1  1  0  0  0
  6  2  1  6  0  0  0
  7 13  1  0  0  0  0
  9 14  1  1  0  0  0
  9 12  1  0  0  0  0
  9  6  1  0  0  0  0
 10 13  1  0  0  0  0
 11  8  1  0  0  0  0
 11 10  2  0  0  0  0
 12  8  1  6  0  0  0
 12  7  1  0  0  0  0
 14 18  2  0  0  0  0
 15  7  2  0  0  0  0
 16  8  2  0  0  0  0
 17 14  1  0  0  0  0
 18 15  1  0  0  0  0
 19 17  1  0  0  0  0
 19 20  1  0  0  0  0
 21 22  1  0  0  0  0
 23 25  2  0  0  0  0
 24 22  1  6  0  0  0
 24 28  1  0  0  0  0
 24 25  1  0  0  0  0
 25 29  1  0  0  0  0
 27 26  1  0  0  0  0
 28 27  2  0  0  0  0
 29 26  2  0  0  0  0
 30  1  1  0  0  0  0
 31 34  1  1  0  0  0
 32 31  1  0  0  0  0
 32 30  1  1  0  0  0
 33 32  1  0  0  0  0
 33 31  1  0  0  0  0
M  END
>  <MODEL>
2

>  <REMARK>
 VINA RESULT:      -6.8      3.109      5.485
  Name = 
  7 active torsions:
  status: ('A' for Active; 'I' for Inactive)
    1  A    between atoms: C_3  and  C_13
    2  A    between atoms: C_3  and  C_17
    3  A    between atoms: C_4  and  C_31
    4  A    between atoms: C_5  and  C_27
    5  A    between atoms: C_8  and  C_27
    6  A    between atoms: C_12  and  N_28
    7  A    between atoms: C_17  and  C_29
                            x       y       z     vdW  Elec       q    Type
                         _______ _______ _______ _____ _____    ______ ____

>  <TORSDO>
F 7

$$$$
=
 OpenBabel11052414003D

 34 38  0  0  1  0  0  0  0  0999 V2000
  190.0360  176.7500  141.9440 C   0  0  1  0  0  0  0  0  0  0  0  0
  187.8250  177.9740  140.8260 S   0  0  0  0  0  0  0  0  0  0  0  0
  188.8980  176.5960  142.9370 C   0  0  0  0  0  2  0  0  0  0  0  0
  190.7580  175.5570  141.8710 O   0  0  0  0  0  1  0  0  0  0  0  0
  187.8570  177.6590  142.6220 C   0  0  2  0  0  3  0  0  0  0  0  0
  189.3640  177.0160  140.6000 C   0  0  1  0  0  3  0  0  0  0  0  0
  191.0270  175.5690  137.8950 C   0  0  0  0  0  0  0  0  0  0  0  0
  192.7300  176.7680  139.1950 C   0  0  0  0  0  0  0  0  0  0  0  0
  190.2860  177.4640  139.4540 C   0  0  1  0  0  3  0  0  0  0  0  0
  193.3930  174.9510  137.6780 C   0  0  0  0  0  3  0  0  0  0  0  0
  193.7390  176.0030  138.4350 C   0  0  0  0  0  3  0  0  0  0  0  0
  191.2880  176.3360  139.1610 C   0  0  1  0  0  3  0  0  0  0  0  0
  191.9690  174.4550  137.5810 C   0  0  0  0  0  2  0  0  0  0  0  0
  189.5460  177.9690  138.2310 C   0  0  0  0  0  0  0  0  0  0  0  0
  190.2200  176.0440  136.9500 C   0  0  0  0  0  3  0  0  0  0  0  0
  193.0960  177.7330  139.9190 O   0  0  0  0  0  0  0  0  0  0  0  0
  188.8420  179.2090  138.3140 N   0  0  0  0  0  2  0  0  0  0  0  0
  189.5020  177.2690  137.1340 N   0  0  0  0  0  0  0  0  0  0  0  0
  188.0820  179.7560  137.2020 C   0  0  0  0  0  2  0  0  0  0  0  0
  186.8110  179.1870  137.1860 O   0  0  0  0  0  1  0  0  0  0  0  0
  186.4810  177.2820  143.1620 C   0  0  0  0  0  2  0  0  0  0  0  0
  186.0450  178.1850  144.3150 C   0  0  0  0  0  2  0  0  0  0  0  0
  183.8680  179.0830  146.1020 O   0  0  0  0  0  0  0  0  0  0  0  0
  184.8900  179.1040  143.9270 C   0  0  2  0  0  3  0  0  0  0  0  0
  183.7070  178.9700  144.8590 C   0  0  0  0  0  0  0  0  0  0  0  0
  182.1590  178.6320  143.0080 C   0  0  0  0  0  3  0  0  0  0  0  0
  183.2780  178.7340  142.0560 C   0  0  0  0  0  3  0  0  0  0  0  0
  184.5310  178.9420  142.4710 C   0  0  0  0  0  3  0  0  0  0  0  0
  182.3570  178.7400  144.3220 C   0  0  0  0  0  3  0  0  0  0  0  0
  190.9640  177.8960  142.3580 C   0  0  0  0  0  2  0  0  0  0  0  0
  191.1570  179.0930  144.5900 C   0  0  1  0  0  3  0  0  0  0  0  0
  191.3620  177.8210  143.8330 C   0  0  2  0  0  3  0  0  0  0  0  0
  192.4140  178.7240  144.0760 O   0  0  0  0  0  0  0  0  0  0  0  0
  190.6180  180.1160  143.8040 O   0  0  0  0  0  1  0  0  0  0  0  0
  1  4  1  6  0  0  0
  1 30  1  0  0  0  0
  1  3  1  0  0  0  0
  2  5  1  0  0  0  0
  5  3  1  0  0  0  0
  5 21  1  6  0  0  0
  6  2  1  1  0  0  0
  6  1  1  0  0  0  0
  8 16  2  0  0  0  0
  9 14  1  6  0  0  0
  9  6  1  0  0  0  0
 10 11  2  0  0  0  0
 11  8  1  0  0  0  0
 12  7  1  6  0  0  0
 12  8  1  0  0  0  0
 12  9  1  0  0  0  0
 13 10  1  0  0  0  0
 13  7  1  0  0  0  0
 14 17  1  0  0  0  0
 15 18  1  0  0  0  0
 15  7  2  0  0  0  0
 18 14  2  0  0  0  0
 19 17  1  0  0  0  0
 20 19  1  0  0  0  0
 21 22  1  0  0  0  0
 24 22  1  1  0  0  0
 24 25  1  0  0  0  0
 25 23  2  0  0  0  0
 26 29  2  0  0  0  0
 27 28  2  0  0  0  0
 27 26  1  0  0  0  0
 28 24  1  0  0  0  0
 29 25  1  0  0  0  0
 31 34  1  6  0  0  0
 32 30  1  6  0  0  0
 32 33  1  0  0  0  0
 32 31  1  0  0  0  0
 33 31  1  0  0  0  0
M  END
>  <MODEL>
3

>  <REMARK>
 VINA RESULT:      -6.5      1.264      2.138
  Name = 
  7 active torsions:
  status: ('A' for Active; 'I' for Inactive)
    1  A    between atoms: C_3  and  C_13
    2  A    between atoms: C_3  and  C_17
    3  A    between atoms: C_4  and  C_31
    4  A    between atoms: C_5  and  C_27
    5  A    between atoms: C_8  and  C_27
    6  A    between atoms: C_12  and  N_28
    7  A    between atoms: C_17  and  C_29
                            x       y       z     vdW  Elec       q    Type
                         _______ _______ _______ _____ _____    ______ ____

>  <TORSDO>
F 7

$$$$
=
 OpenBabel11052414003D

 34 38  0  0  1  0  0  0  0  0999 V2000
  181.5860  178.9440  140.9400 C   0  0  1  0  0  0  0  0  0  0  0  0
  184.2820  178.8450  141.5370 S   0  0  0  0  0  0  0  0  0  0  0  0
  181.7060  179.0180  142.4520 C   0  0  0  0  0  2  0  0  0  0  0  0
  180.6130  179.8440  140.5040 O   0  0  0  0  0  1  0  0  0  0  0  0
  183.0660  178.4590  142.8400 C   0  0  2  0  0  3  0  0  0  0  0  0
  182.9490  179.3760  140.4070 C   0  0  1  0  0  3  0  0  0  0  0  0
  182.8400  176.7390  138.1250 C   0  0  0  0  0  0  0  0  0  0  0  0
  185.0790  177.7280  137.9350 C   0  0  0  0  0  0  0  0  0  0  0  0
  183.1950  179.1540  138.9050 C   0  0  1  0  0  3  0  0  0  0  0  0
  184.6860  175.4190  137.1890 C   0  0  0  0  0  3  0  0  0  0  0  0
  185.4750  176.5030  137.2090 C   0  0  0  0  0  3  0  0  0  0  0  0
  183.7870  177.7490  138.7080 C   0  0  1  0  0  3  0  0  0  0  0  0
  183.3720  175.3570  137.9310 C   0  0  0  0  0  2  0  0  0  0  0  0
  181.9900  179.4470  138.0350 C   0  0  0  0  0  0  0  0  0  0  0  0
  181.7160  177.1100  137.5180 C   0  0  0  0  0  3  0  0  0  0  0  0
  185.8590  178.7180  137.9570 O   0  0  0  0  0  0  0  0  0  0  0  0
  181.5560  180.8000  137.8890 N   0  0  0  0  0  2  0  0  0  0  0  0
  181.3210  178.4860  137.4650 N   0  0  0  0  0  0  0  0  0  0  0  0
  180.3940  181.1710  137.0980 C   0  0  0  0  0  2  0  0  0  0  0  0
  180.7990  181.5000  135.8060 O   0  0  0  0  0  1  0  0  0  0  0  0
  183.5150  178.9610  144.2080 C   0  0  0  0  0  2  0  0  0  0  0  0
  185.0320  179.1310  144.2930 C   0  0  0  0  0  2  0  0  0  0  0  0
  185.2320  178.7440  147.2170 O   0  0  0  0  0  0  0  0  0  0  0  0
  185.7080  177.9580  144.9970 C   0  0  2  0  0  3  0  0  0  0  0  0
  186.0920  178.2830  146.4220 C   0  0  0  0  0  0  0  0  0  0  0  0
  188.3840  177.5310  146.0840 C   0  0  0  0  0  3  0  0  0  0  0  0
  188.0720  177.2150  144.6800 C   0  0  0  0  0  3  0  0  0  0  0  0
  186.8510  177.4150  144.1740 C   0  0  0  0  0  3  0  0  0  0  0  0
  187.4600  178.0330  146.9020 C   0  0  0  0  0  3  0  0  0  0  0  0
  181.2200  177.5240  140.4950 C   0  0  0  0  0  2  0  0  0  0  0  0
  179.4660  175.6950  140.6600 C   0  0  1  0  0  3  0  0  0  0  0  0
  179.8030  177.1290  140.9120 C   0  0  2  0  0  3  0  0  0  0  0  0
  179.0820  176.7190  139.7740 O   0  0  0  0  0  0  0  0  0  0  0  0
  180.5270  174.9740  140.1020 O   0  0  0  0  0  1  0  0  0  0  0  0
  1  4  1  6  0  0  0
  1  3  1  0  0  0  0
  2  5  1  0  0  0  0
  3  5  1  0  0  0  0
  5 21  1  1  0  0  0
  6  1  1  0  0  0  0
  6  2  1  1  0  0  0
  7 12  1  0  0  0  0
  8 16  2  0  0  0  0
  9 14  1  6  0  0  0
  9  6  1  0  0  0  0
 10 11  2  0  0  0  0
 10 13  1  0  0  0  0
 11  8  1  0  0  0  0
 12  8  1  6  0  0  0
 12  9  1  0  0  0  0
 13  7  1  0  0  0  0
 15  7  2  0  0  0  0
 17 14  1  0  0  0  0
 18 15  1  0  0  0  0
 18 14  2  0  0  0  0
 19 17  1  0  0  0  0
 20 19  1  0  0  0  0
 21 22  1  0  0  0  0
 24 22  1  6  0  0  0
 24 25  1  0  0  0  0
 25 29  1  0  0  0  0
 25 23  2  0  0  0  0
 26 29  2  0  0  0  0
 27 26  1  0  0  0  0
 28 27  2  0  0  0  0
 28 24  1  0  0  0  0
 30  1  1  0  0  0  0
 31 34  1  6  0  0  0
 31 32  1  0  0  0  0
 32 30  1  6  0  0  0
 33 31  1  0  0  0  0
 33 32  1  0  0  0  0
M  END
>  <MODEL>
4

>  <REMARK>
 VINA RESULT:      -6.3      5.217      7.608
  Name = 
  7 active torsions:
  status: ('A' for Active; 'I' for Inactive)
    1  A    between atoms: C_3  and  C_13
    2  A    between atoms: C_3  and  C_17
    3  A    between atoms: C_4  and  C_31
    4  A    between atoms: C_5  and  C_27
    5  A    between atoms: C_8  and  C_27
    6  A    between atoms: C_12  and  N_28
    7  A    between atoms: C_17  and  C_29
                            x       y       z     vdW  Elec       q    Type
                         _______ _______ _______ _____ _____    ______ ____

>  <TORSDO>
F 7

$$$$
=
 OpenBabel11052414003D

 34 38  0  0  1  0  0  0  0  0999 V2000
  180.7760  178.2400  139.3850 C   0  0  1  0  0  0  0  0  0  0  0  0
  182.4300  180.4280  139.0560 S   0  0  0  0  0  0  0  0  0  0  0  0
  179.8760  179.4500  139.2090 C   0  0  0  0  0  2  0  0  0  0  0  0
  180.2590  177.1640  138.6620 O   0  0  0  0  0  1  0  0  0  0  0  0
  180.6920  180.6900  139.5400 C   0  0  2  0  0  3  0  0  0  0  0  0
  182.1200  178.6490  138.7890 C   0  0  1  0  0  3  0  0  0  0  0  0
  185.0060  177.5720  137.1480 C   0  0  0  0  0  0  0  0  0  0  0  0
  183.7620  175.5470  137.7650 C   0  0  0  0  0  0  0  0  0  0  0  0
  183.3010  177.7000  139.0580 C   0  0  1  0  0  3  0  0  0  0  0  0
  185.4160  175.4700  135.9480 C   0  0  0  0  0  3  0  0  0  0  0  0
  184.6290  174.8180  136.8160 C   0  0  0  0  0  3  0  0  0  0  0  0
  183.7210  177.0510  137.7300 C   0  0  1  0  0  3  0  0  0  0  0  0
  185.4420  176.9770  135.8500 C   0  0  0  0  0  2  0  0  0  0  0  0
  184.4420  178.3410  139.8230 C   0  0  0  0  0  0  0  0  0  0  0  0
  185.8670  178.2700  137.8830 C   0  0  0  0  0  3  0  0  0  0  0  0
  183.0140  174.9000  138.5470 O   0  0  0  0  0  0  0  0  0  0  0  0
  184.2460  178.6850  141.1960 N   0  0  0  0  0  2  0  0  0  0  0  0
  185.5690  178.6260  139.2370 N   0  0  0  0  0  0  0  0  0  0  0  0
  185.2720  179.3280  141.9990 C   0  0  0  0  0  2  0  0  0  0  0  0
  184.8590  179.3740  143.3280 O   0  0  0  0  0  1  0  0  0  0  0  0
  180.1020  181.9430  138.9020 C   0  0  0  0  0  2  0  0  0  0  0  0
  179.3260  181.6310  137.6240 C   0  0  0  0  0  2  0  0  0  0  0  0
  180.7780  181.9720  135.0710 O   0  0  0  0  0  0  0  0  0  0  0  0
  179.2300  182.8370  136.6930 C   0  0  2  0  0  3  0  0  0  0  0  0
  180.4250  182.9540  135.7750 C   0  0  0  0  0  0  0  0  0  0  0  0
  180.8000  185.2810  136.3940 C   0  0  0  0  0  3  0  0  0  0  0  0
  179.6570  185.2170  137.3200 C   0  0  0  0  0  3  0  0  0  0  0  0
  178.9390  184.0990  137.4670 C   0  0  0  0  0  3  0  0  0  0  0  0
  181.1640  184.2220  135.6700 C   0  0  0  0  0  3  0  0  0  0  0  0
  180.8950  177.8640  140.8650 C   0  0  0  0  0  2  0  0  0  0  0  0
  179.7950  178.9320  142.8900 C   0  0  1  0  0  3  0  0  0  0  0  0
  179.6050  178.1340  141.6410 C   0  0  2  0  0  3  0  0  0  0  0  0
  179.6920  177.5290  142.9090 O   0  0  0  0  0  0  0  0  0  0  0  0
  181.1270  179.3010  143.1060 O   0  0  0  0  0  1  0  0  0  0  0  0
  1  4  1  6  0  0  0
  1 30  1  0  0  0  0
  2  5  1  0  0  0  0
  3  1  1  0  0  0  0
  3  5  1  0  0  0  0
  5 21  1  6  0  0  0
  6  2  1  1  0  0  0
  6  9  1  0  0  0  0
  6  1  1  0  0  0  0
  7 15  2  0  0  0  0
  8 16  2  0  0  0  0
  9 14  1  6  0  0  0
 10 11  2  0  0  0  0
 11  8  1  0  0  0  0
 12  7  1  1  0  0  0
 12  8  1  0  0  0  0
 12  9  1  0  0  0  0
 13 10  1  0  0  0  0
 13  7  1  0  0  0  0
 14 17  1  0  0  0  0
 15 18  1  0  0  0  0
 17 19  1  0  0  0  0
 18 14  2  0  0  0  0
 19 20  1  0  0  0  0
 22 21  1  0  0  0  0
 23 25  2  0  0  0  0
 24 28  1  0  0  0  0
 24 22  1  1  0  0  0
 25 24  1  0  0  0  0
 26 27  1  0  0  0  0
 27 28  2  0  0  0  0
 29 25  1  0  0  0  0
 29 26  2  0  0  0  0
 31 33  1  0  0  0  0
 31 34  1  6  0  0  0
 32 30  1  6  0  0  0
 32 31  1  0  0  0  0
 32 33  1  0  0  0  0
M  END
>  <MODEL>
5

>  <REMARK>
 VINA RESULT:      -6.1      6.570      9.785
  Name = 
  7 active torsions:
  status: ('A' for Active; 'I' for Inactive)
    1  A    between atoms: C_3  and  C_13
    2  A    between atoms: C_3  and  C_17
    3  A    between atoms: C_4  and  C_31
    4  A    between atoms: C_5  and  C_27
    5  A    between atoms: C_8  and  C_27
    6  A    between atoms: C_12  and  N_28
    7  A    between atoms: C_17  and  C_29
                            x       y       z     vdW  Elec       q    Type
                         _______ _______ _______ _____ _____    ______ ____

>  <TORSDO>
F 7

$$$$
=
 OpenBabel11052414003D

 34 38  0  0  1  0  0  0  0  0999 V2000
  181.5040  179.2190  141.1080 C   0  0  1  0  0  0  0  0  0  0  0  0
  183.3430  177.3880  140.1600 S   0  0  0  0  0  0  0  0  0  0  0  0
  182.7510  179.3620  141.9640 C   0  0  0  0  0  2  0  0  0  0  0  0
  180.9930  180.4830  140.8120 O   0  0  0  0  0  1  0  0  0  0  0  0
  183.5560  178.0790  141.8340 C   0  0  2  0  0  3  0  0  0  0  0  0
  181.9760  178.5500  139.8210 C   0  0  1  0  0  3  0  0  0  0  0  0
  181.6560  177.6760  136.4570 C   0  0  0  0  0  0  0  0  0  0  0  0
  179.9430  179.3800  136.8980 C   0  0  0  0  0  0  0  0  0  0  0  0
  180.8750  178.0510  138.8690 C   0  0  1  0  0  3  0  0  0  0  0  0
  180.7160  178.9760  134.5990 C   0  0  0  0  0  3  0  0  0  0  0  0
  179.8180  179.5230  135.4320 C   0  0  0  0  0  3  0  0  0  0  0  0
  181.1250  178.6460  137.4750 C   0  0  1  0  0  3  0  0  0  0  0  0
  181.9260  178.2190  135.0930 C   0  0  0  0  0  2  0  0  0  0  0  0
  180.6910  176.5470  138.8770 C   0  0  0  0  0  0  0  0  0  0  0  0
  181.5840  176.3620  136.6480 C   0  0  0  0  0  3  0  0  0  0  0  0
  179.0970  179.9320  137.6510 O   0  0  0  0  0  0  0  0  0  0  0  0
  180.1400  175.9250  140.0390 N   0  0  0  0  0  2  0  0  0  0  0  0
  181.0720  175.8160  137.8690 N   0  0  0  0  0  0  0  0  0  0  0  0
  179.9540  174.4870  140.1470 C   0  0  0  0  0  2  0  0  0  0  0  0
  179.3980  174.1840  141.3870 O   0  0  0  0  0  1  0  0  0  0  0  0
  185.0240  178.2940  142.1830 C   0  0  0  0  0  2  0  0  0  0  0  0
  185.2080  178.8630  143.5890 C   0  0  0  0  0  2  0  0  0  0  0  0
  184.5050  178.6680  146.4540 O   0  0  0  0  0  0  0  0  0  0  0  0
  185.7350  177.8210  144.5720 C   0  0  2  0  0  3  0  0  0  0  0  0
  185.6130  178.2700  146.0110 C   0  0  0  0  0  0  0  0  0  0  0  0
  187.9550  177.7790  146.4680 C   0  0  0  0  0  3  0  0  0  0  0  0
  188.1370  177.3500  145.0710 C   0  0  0  0  0  3  0  0  0  0  0  0
  187.1270  177.3730  144.1970 C   0  0  0  0  0  3  0  0  0  0  0  0
  186.7750  178.2130  146.9110 C   0  0  0  0  0  3  0  0  0  0  0  0
  180.4430  178.3850  141.8330 C   0  0  0  0  0  2  0  0  0  0  0  0
  180.0450  178.9960  144.2660 C   0  0  1  0  0  3  0  0  0  0  0  0
  179.6420  179.2090  142.8420 C   0  0  2  0  0  3  0  0  0  0  0  0
  178.9380  178.3390  143.6970 O   0  0  0  0  0  0  0  0  0  0  0  0
  181.0990  178.0890  144.4060 O   0  0  0  0  0  1  0  0  0  0  0  0
  1  4  1  6  0  0  0
  1 30  1  0  0  0  0
  1  3  1  0  0  0  0
  2  5  1  0  0  0  0
  5  3  1  0  0  0  0
  5 21  1  6  0  0  0
  6  2  1  1  0  0  0
  6  1  1  0  0  0  0
  7 15  2  0  0  0  0
  8 12  1  0  0  0  0
  8 16  2  0  0  0  0
  9 14  1  6  0  0  0
  9  6  1  0  0  0  0
 10 13  1  0  0  0  0
 10 11  2  0  0  0  0
 11  8  1  0  0  0  0
 12  7  1  6  0  0  0
 12  9  1  0  0  0  0
 13  7  1  0  0  0  0
 14 17  1  0  0  0  0
 15 18  1  0  0  0  0
 17 19  1  0  0  0  0
 18 14  2  0  0  0  0
 19 20  1  0  0  0  0
 21 22  1  0  0  0  0
 24 22  1  6  0  0  0
 24 25  1  0  0  0  0
 25 23  2  0  0  0  0
 25 29  1  0  0  0  0
 26 29  2  0  0  0  0
 27 26  1  0  0  0  0
 28 24  1  0  0  0  0
 28 27  2  0  0  0  0
 31 34  1  6  0  0  0
 32 30  1  6  0  0  0
 32 33  1  0  0  0  0
 32 31  1  0  0  0  0
 33 31  1  0  0  0  0
M  END
>  <MODEL>
6

>  <REMARK>
 VINA RESULT:      -6.0      5.904      8.932
  Name = 
  7 active torsions:
  status: ('A' for Active; 'I' for Inactive)
    1  A    between atoms: C_3  and  C_13
    2  A    between atoms: C_3  and  C_17
    3  A    between atoms: C_4  and  C_31
    4  A    between atoms: C_5  and  C_27
    5  A    between atoms: C_8  and  C_27
    6  A    between atoms: C_12  and  N_28
    7  A    between atoms: C_17  and  C_29
                            x       y       z     vdW  Elec       q    Type
                         _______ _______ _______ _____ _____    ______ ____

>  <TORSDO>
F 7

$$$$
=
 OpenBabel11052414003D

 34 38  0  0  1  0  0  0  0  0999 V2000
  183.7920  177.4130  138.8610 C   0  0  1  0  0  0  0  0  0  0  0  0
  181.9020  179.1300  139.9160 S   0  0  0  0  0  0  0  0  0  0  0  0
  184.1290  177.5890  140.3320 C   0  0  0  0  0  2  0  0  0  0  0  0
  183.9480  176.0720  138.5040 O   0  0  0  0  0  1  0  0  0  0  0  0
  183.4720  178.8740  140.8090 C   0  0  2  0  0  3  0  0  0  0  0  0
  182.3220  177.8010  138.7370 C   0  0  1  0  0  3  0  0  0  0  0  0
  179.6140  176.6630  136.8530 C   0  0  0  0  0  0  0  0  0  0  0  0
  181.6340  176.0750  135.5880 C   0  0  0  0  0  0  0  0  0  0  0  0
  181.7780  177.9590  137.3060 C   0  0  1  0  0  3  0  0  0  0  0  0
  179.5310  174.8690  135.1790 C   0  0  0  0  0  3  0  0  0  0  0  0
  180.7800  175.1700  134.7920 C   0  0  0  0  0  3  0  0  0  0  0  0
  181.1160  176.6370  136.8850 C   0  0  1  0  0  3  0  0  0  0  0  0
  178.9310  175.3950  136.4620 C   0  0  0  0  0  2  0  0  0  0  0  0
  180.9020  179.1800  137.1130 C   0  0  0  0  0  0  0  0  0  0  0  0
  178.9390  177.8100  136.8500 C   0  0  0  0  0  3  0  0  0  0  0  0
  182.8120  176.3120  135.2080 O   0  0  0  0  0  0  0  0  0  0  0  0
  181.5040  180.4750  137.1590 N   0  0  0  0  0  2  0  0  0  0  0  0
  179.6140  179.0680  136.9590 N   0  0  0  0  0  0  0  0  0  0  0  0
  180.7380  181.7020  137.0130 C   0  0  0  0  0  2  0  0  0  0  0  0
  180.8910  182.4820  138.1570 O   0  0  0  0  0  1  0  0  0  0  0  0
  183.2780  178.8830  142.3220 C   0  0  0  0  0  2  0  0  0  0  0  0
  184.5580  179.2570  143.0670 C   0  0  0  0  0  2  0  0  0  0  0  0
  183.8820  179.0000  145.9340 O   0  0  0  0  0  0  0  0  0  0  0  0
  185.0300  178.1470  144.0030 C   0  0  2  0  0  3  0  0  0  0  0  0
  184.9570  178.5490  145.4590 C   0  0  0  0  0  0  0  0  0  0  0  0
  187.2680  177.8930  145.8610 C   0  0  0  0  0  3  0  0  0  0  0  0
  187.4020  177.5050  144.4470 C   0  0  0  0  0  3  0  0  0  0  0  0
  186.3850  177.6260  143.5890 C   0  0  0  0  0  3  0  0  0  0  0  0
  186.1240  178.3840  146.3380 C   0  0  0  0  0  3  0  0  0  0  0  0
  184.6940  178.2930  137.9900 C   0  0  0  0  0  2  0  0  0  0  0  0
  187.1350  177.6240  137.7870 C   0  0  1  0  0  3  0  0  0  0  0  0
  185.7520  177.4820  137.2400 C   0  0  2  0  0  3  0  0  0  0  0  0
  186.6940  178.3620  136.6740 O   0  0  0  0  0  0  0  0  0  0  0  0
  187.1990  178.4640  138.9030 O   0  0  0  0  0  1  0  0  0  0  0  0
  1  4  1  6  0  0  0
  1  3  1  0  0  0  0
  2  5  1  0  0  0  0
  3  5  1  0  0  0  0
  5 21  1  1  0  0  0
  6  1  1  0  0  0  0
  6  2  1  1  0  0  0
  7 12  1  0  0  0  0
  9 14  1  1  0  0  0
  9  6  1  0  0  0  0
 10 13  1  0  0  0  0
 11 10  2  0  0  0  0
 11  8  1  0  0  0  0
 12  8  1  6  0  0  0
 12  9  1  0  0  0  0
 13  7  1  0  0  0  0
 14 17  1  0  0  0  0
 15  7  2  0  0  0  0
 15 18  1  0  0  0  0
 16  8  2  0  0  0  0
 18 14  2  0  0  0  0
 19 17  1  0  0  0  0
 19 20  1  0  0  0  0
 21 22  1  0  0  0  0
 24 22  1  6  0  0  0
 24 25  1  0  0  0  0
 25 23  2  0  0  0  0
 25 29  1  0  0  0  0
 26 29  2  0  0  0  0
 27 26  1  0  0  0  0
 28 24  1  0  0  0  0
 28 27  2  0  0  0  0
 30  1  1  0  0  0  0
 31 34  1  1  0  0  0
 32 31  1  0  0  0  0
 32 30  1  1  0  0  0
 33 32  1  0  0  0  0
 33 31  1  0  0  0  0
M  END
>  <MODEL>
7

>  <REMARK>
 VINA RESULT:      -6.0      5.812      7.998
  Name = 
  7 active torsions:
  status: ('A' for Active; 'I' for Inactive)
    1  A    between atoms: C_3  and  C_13
    2  A    between atoms: C_3  and  C_17
    3  A    between atoms: C_4  and  C_31
    4  A    between atoms: C_5  and  C_27
    5  A    between atoms: C_8  and  C_27
    6  A    between atoms: C_12  and  N_28
    7  A    between atoms: C_17  and  C_29
                            x       y       z     vdW  Elec       q    Type
                         _______ _______ _______ _____ _____    ______ ____

>  <TORSDO>
F 7

$$$$
=
 OpenBabel11052414003D

 34 38  0  0  1  0  0  0  0  0999 V2000
  186.9230  177.4700  143.8670 C   0  0  1  0  0  0  0  0  0  0  0  0
  186.0060  179.3780  142.0920 S   0  0  0  0  0  0  0  0  0  0  0  0
  185.4210  177.5720  144.0660 C   0  0  0  0  0  2  0  0  0  0  0  0
  187.3090  176.1290  143.9010 O   0  0  0  0  0  1  0  0  0  0  0  0
  184.9680  178.9150  143.5180 C   0  0  2  0  0  3  0  0  0  0  0  0
  187.1830  178.0350  142.4740 C   0  0  1  0  0  3  0  0  0  0  0  0
  190.2250  176.3320  142.6240 C   0  0  0  0  0  0  0  0  0  0  0  0
  190.5670  178.4670  143.7880 C   0  0  0  0  0  0  0  0  0  0  0  0
  188.6540  178.2890  142.1050 C   0  0  1  0  0  3  0  0  0  0  0  0
  192.0550  176.5640  144.2430 C   0  0  0  0  0  3  0  0  0  0  0  0
  191.8010  177.8770  144.3460 C   0  0  0  0  0  3  0  0  0  0  0  0
  189.5480  177.5740  143.1300 C   0  0  1  0  0  3  0  0  0  0  0  0
  191.0910  175.5990  143.5940 C   0  0  0  0  0  2  0  0  0  0  0  0
  188.9900  177.9710  140.6620 C   0  0  0  0  0  0  0  0  0  0  0  0
  190.3180  176.0740  141.3220 C   0  0  0  0  0  3  0  0  0  0  0  0
  190.3480  179.7000  143.9280 O   0  0  0  0  0  0  0  0  0  0  0  0
  188.4590  178.8040  139.6290 N   0  0  0  0  0  2  0  0  0  0  0  0
  189.7060  176.9290  140.3500 N   0  0  0  0  0  0  0  0  0  0  0  0
  188.7040  178.5580  138.2180 C   0  0  0  0  0  2  0  0  0  0  0  0
  189.0540  179.7530  137.5940 O   0  0  0  0  0  1  0  0  0  0  0  0
  183.4840  178.9140  143.1690 C   0  0  0  0  0  2  0  0  0  0  0  0
  183.2380  178.6280  141.6880 C   0  0  0  0  0  2  0  0  0  0  0  0
  182.0690  179.1080  139.0150 O   0  0  0  0  0  0  0  0  0  0  0  0
  181.7520  178.5970  141.3410 C   0  0  2  0  0  3  0  0  0  0  0  0
  181.4380  179.3590  140.0740 C   0  0  0  0  0  0  0  0  0  0  0  0
  179.6800  180.6460  141.1640 C   0  0  0  0  0  3  0  0  0  0  0  0
  179.9580  179.9490  142.4310 C   0  0  0  0  0  3  0  0  0  0  0  0
  180.9090  179.0150  142.5210 C   0  0  0  0  0  3  0  0  0  0  0  0
  180.3730  180.3740  140.0590 C   0  0  0  0  0  3  0  0  0  0  0  0
  187.6670  178.2550  144.9520 C   0  0  0  0  0  2  0  0  0  0  0  0
  187.2130  177.8780  147.4220 C   0  0  1  0  0  3  0  0  0  0  0  0
  187.9360  177.4120  146.2000 C   0  0  2  0  0  3  0  0  0  0  0  0
  188.5560  178.2150  147.1760 O   0  0  0  0  0  0  0  0  0  0  0  0
  186.4050  178.9950  147.1870 O   0  0  0  0  0  1  0  0  0  0  0  0
  1  4  1  1  0  0  0
  1  3  1  0  0  0  0
  1 30  1  0  0  0  0
  2  5  1  0  0  0  0
  5 21  1  6  0  0  0
  5  3  1  0  0  0  0
  6  2  1  1  0  0  0
  6  1  1  0  0  0  0
  7 13  1  0  0  0  0
  8 16  2  0  0  0  0
  8 11  1  0  0  0  0
  9 14  1  6  0  0  0
  9  6  1  0  0  0  0
  9 12  1  0  0  0  0
 10 11  2  0  0  0  0
 12  7  1  6  0  0  0
 12  8  1  0  0  0  0
 13 10  1  0  0  0  0
 15  7  2  0  0  0  0
 17 14  1  0  0  0  0
 18 14  2  0  0  0  0
 18 15  1  0  0  0  0
 19 17  1  0  0  0  0
 20 19  1  0  0  0  0
 22 21  1  0  0  0  0
 23 25  2  0  0  0  0
 24 22  1  1  0  0  0
 24 28  1  0  0  0  0
 25 24  1  0  0  0  0
 26 27  1  0  0  0  0
 27 28  2  0  0  0  0
 29 25  1  0  0  0  0
 29 26  2  0  0  0  0
 31 34  1  6  0  0  0
 32 30  1  6  0  0  0
 32 33  1  0  0  0  0
 32 31  1  0  0  0  0
 33 31  1  0  0  0  0
M  END
>  <MODEL>
8

>  <REMARK>
 VINA RESULT:      -5.9      3.228      5.410
  Name = 
  7 active torsions:
  status: ('A' for Active; 'I' for Inactive)
    1  A    between atoms: C_3  and  C_13
    2  A    between atoms: C_3  and  C_17
    3  A    between atoms: C_4  and  C_31
    4  A    between atoms: C_5  and  C_27
    5  A    between atoms: C_8  and  C_27
    6  A    between atoms: C_12  and  N_28
    7  A    between atoms: C_17  and  C_29
                            x       y       z     vdW  Elec       q    Type
                         _______ _______ _______ _____ _____    ______ ____

>  <TORSDO>
F 7

$$$$
=
 OpenBabel11052414003D

 34 38  0  0  1  0  0  0  0  0999 V2000
  184.2620  179.1130  139.0260 C   0  0  1  0  0  0  0  0  0  0  0  0
  183.9460  177.0460  137.2200 S   0  0  0  0  0  0  0  0  0  0  0  0
  185.6540  178.7030  138.5780 C   0  0  0  0  0  2  0  0  0  0  0  0
  184.1830  180.5050  139.0930 O   0  0  0  0  0  1  0  0  0  0  0  0
  185.5670  177.2920  138.0190 C   0  0  2  0  0  3  0  0  0  0  0  0
  183.3230  178.6060  137.9350 C   0  0  1  0  0  3  0  0  0  0  0  0
  180.3480  179.3560  136.2710 C   0  0  0  0  0  0  0  0  0  0  0  0
  180.4090  180.7900  138.2630 C   0  0  0  0  0  0  0  0  0  0  0  0
  181.8180  178.6600  138.2520 C   0  0  1  0  0  3  0  0  0  0  0  0
  179.0050  181.4090  136.3430 C   0  0  0  0  0  3  0  0  0  0  0  0
  179.3340  181.5830  137.6310 C   0  0  0  0  0  3  0  0  0  0  0  0
  181.1860  179.8000  137.4370 C   0  0  1  0  0  3  0  0  0  0  0  0
  179.7280  180.4330  135.4450 C   0  0  0  0  0  2  0  0  0  0  0  0
  181.1110  177.3280  138.1070 C   0  0  0  0  0  0  0  0  0  0  0  0
  179.9140  178.1030  136.1660 C   0  0  0  0  0  3  0  0  0  0  0  0
  180.7110  181.0000  139.4690 O   0  0  0  0  0  0  0  0  0  0  0  0
  181.3970  176.2890  139.0450 N   0  0  0  0  0  2  0  0  0  0  0  0
  180.2940  177.1030  137.1180 N   0  0  0  0  0  0  0  0  0  0  0  0
  180.7880  174.9710  138.9660 C   0  0  0  0  0  2  0  0  0  0  0  0
  180.0890  174.7130  140.1420 O   0  0  0  0  0  1  0  0  0  0  0  0
  186.7230  176.9840  137.0750 C   0  0  0  0  0  2  0  0  0  0  0  0
  187.4150  178.2520  136.5740 C   0  0  0  0  0  2  0  0  0  0  0  0
  189.5990  176.7070  135.3170 O   0  0  0  0  0  0  0  0  0  0  0  0
  188.8890  178.3030  136.9670 C   0  0  2  0  0  3  0  0  0  0  0  0
  189.6490  177.0750  136.5200 C   0  0  0  0  0  0  0  0  0  0  0  0
  190.5570  176.7010  138.7490 C   0  0  0  0  0  3  0  0  0  0  0  0
  189.8210  177.8760  139.2440 C   0  0  0  0  0  3  0  0  0  0  0  0
  189.0500  178.6090  138.4360 C   0  0  0  0  0  3  0  0  0  0  0  0
  190.4760  176.3210  137.4730 C   0  0  0  0  0  3  0  0  0  0  0  0
  183.9330  178.5050  140.3940 C   0  0  0  0  0  2  0  0  0  0  0  0
  184.8090  178.7020  142.7690 C   0  0  1  0  0  3  0  0  0  0  0  0
  185.1430  178.4860  141.3290 C   0  0  2  0  0  3  0  0  0  0  0  0
  185.2720  179.7450  141.9460 O   0  0  0  0  0  0  0  0  0  0  0  0
  183.4380  178.8660  142.9940 O   0  0  0  0  0  1  0  0  0  0  0  0
  1  4  1  1  0  0  0
  1 30  1  0  0  0  0
  2  5  1  0  0  0  0
  3  1  1  0  0  0  0
  5 21  1  6  0  0  0
  5  3  1  0  0  0  0
  6  2  1  1  0  0  0
  6  9  1  0  0  0  0
  6  1  1  0  0  0  0
  8 16  2  0  0  0  0
  9 14  1  6  0  0  0
 10 11  2  0  0  0  0
 11  8  1  0  0  0  0
 12  7  1  6  0  0  0
 12  9  1  0  0  0  0
 12  8  1  0  0  0  0
 13  7  1  0  0  0  0
 13 10  1  0  0  0  0
 14 17  1  0  0  0  0
 15  7  2  0  0  0  0
 15 18  1  0  0  0  0
 18 14  2  0  0  0  0
 19 17  1  0  0  0  0
 19 20  1  0  0  0  0
 22 21  1  0  0  0  0
 23 25  2  0  0  0  0
 24 22  1  1  0  0  0
 24 28  1  0  0  0  0
 25 24  1  0  0  0  0
 25 29  1  0  0  0  0
 26 27  1  0  0  0  0
 28 27  2  0  0  0  0
 29 26  2  0  0  0  0
 31 34  1  6  0  0  0
 32 30  1  6  0  0  0
 32 33  1  0  0  0  0
 32 31  1  0  0  0  0
 33 31  1  0  0  0  0
M  END
>  <MODEL>
9

>  <REMARK>
 VINA RESULT:      -5.8      5.694      9.544
  Name = 
  7 active torsions:
  status: ('A' for Active; 'I' for Inactive)
    1  A    between atoms: C_3  and  C_13
    2  A    between atoms: C_3  and  C_17
    3  A    between atoms: C_4  and  C_31
    4  A    between atoms: C_5  and  C_27
    5  A    between atoms: C_8  and  C_27
    6  A    between atoms: C_12  and  N_28
    7  A    between atoms: C_17  and  C_29
                            x       y       z     vdW  Elec       q    Type
                         _______ _______ _______ _____ _____    ______ ____

>  <TORSDO>
F 7

$$$$
