=
 OpenBabel11052412443D

 25 28  0  0  1  0  0  0  0  0999 V2000
  185.5560  178.3980  145.0010 C   0  0  0  0  0  0  0  0  0  0  0  0
  185.7120  178.5270  143.6040 C   0  0  0  0  0  0  0  0  0  0  0  0
  183.1710  178.8120  144.7600 C   0  0  0  0  0  3  0  0  0  0  0  0
  183.3250  178.9530  143.3800 C   0  0  0  0  0  3  0  0  0  0  0  0
  184.7790  178.9270  141.4110 C   0  0  0  0  0  0  0  0  0  0  0  0
  183.8120  179.1860  140.6460 O   0  0  0  0  0  0  0  0  0  0  0  0
  186.9290  178.3610  143.0210 N   0  0  0  0  0  0  0  0  0  0  0  0
  184.2790  178.5310  145.5640 C   0  0  0  0  0  3  0  0  0  0  0  0
  186.0210  178.7560  140.8860 N   0  0  0  0  0  2  0  0  0  0  0  0
  187.0870  178.4690  141.6770 C   0  0  0  0  0  0  0  0  0  0  0  0
  184.5890  178.8100  142.7960 C   0  0  0  0  0  0  0  0  0  0  0  0
  186.6980  178.0890  145.8860 C   0  0  0  0  0  0  0  0  0  0  0  0
  188.9050  177.4470  147.5000 C   0  0  0  0  0  3  0  0  0  0  0  0
  186.8610  178.7060  147.1480 C   0  0  0  0  0  0  0  0  0  0  0  0
  187.9650  178.3820  147.9420 C   0  0  0  0  0  3  0  0  0  0  0  0
  188.7410  176.8260  146.2610 C   0  0  0  0  0  3  0  0  0  0  0  0
  185.8600  179.6710  147.6900 C   0  0  0  0  0  1  0  0  0  0  0  0
  187.6420  177.1430  145.4600 C   0  0  0  0  0  3  0  0  0  0  0  0
  188.7100  178.2440  140.9470 S   0  0  0  0  0  0  0  0  0  0  0  0
  190.6440  175.6350  143.3530 O   0  0  0  0  0  0  0  0  0  0  0  0
  190.5900  178.4830  142.9820 C   0  0  0  0  0  2  0  0  0  0  0  0
  191.7870  176.4040  143.6440 C   0  0  0  0  0  2  0  0  0  0  0  0
  189.5050  177.5510  142.4410 C   0  0  2  0  0  3  0  0  0  0  0  0
  191.3680  177.8000  144.1030 C   0  0  0  0  0  2  0  0  0  0  0  0
  190.0900  176.1620  142.1720 C   0  0  0  0  0  2  0  0  0  0  0  0
  1  8  1  0  0  0  0
  1 12  1  0  0  0  0
  2  1  2  0  0  0  0
  3  8  2  0  0  0  0
  4  3  1  0  0  0  0
  5 11  1  0  0  0  0
  6  5  2  0  0  0  0
  7  2  1  0  0  0  0
  9  5  1  0  0  0  0
  9 10  1  0  0  0  0
 10  7  2  0  0  0  0
 11  4  2  0  0  0  0
 11  2  1  0  0  0  0
 12 14  1  0  0  0  0
 13 15  1  0  0  0  0
 14 17  1  0  0  0  0
 14 15  2  0  0  0  0
 16 13  2  0  0  0  0
 18 12  2  0  0  0  0
 18 16  1  0  0  0  0
 19 10  1  0  0  0  0
 20 22  1  0  0  0  0
 21 24  1  0  0  0  0
 22 24  1  0  0  0  0
 23 19  1  6  0  0  0
 23 21  1  0  0  0  0
 25 23  1  0  0  0  0
 25 20  1  0  0  0  0
M  END
>  <MODEL>
1

>  <REMARK>
 VINA RESULT:      -9.3      0.000      0.000
  Name = 
  3 active torsions:
  status: ('A' for Active; 'I' for Inactive)
    1  A    between atoms: C_1  and  C_5
    2  A    between atoms: S_6  and  C_15
    3  A    between atoms: S_6  and  C_23
                            x       y       z     vdW  Elec       q    Type
                         _______ _______ _______ _____ _____    ______ ____

>  <TORSDO>
F 3

$$$$
=
 OpenBabel11052412443D

 25 28  0  0  1  0  0  0  0  0999 V2000
  187.8160  177.6880  145.2170 C   0  0  0  0  0  0  0  0  0  0  0  0
  187.5110  177.9160  143.8580 C   0  0  0  0  0  0  0  0  0  0  0  0
  185.5240  178.2410  145.8130 C   0  0  0  0  0  3  0  0  0  0  0  0
  185.2220  178.4800  144.4720 C   0  0  0  0  0  3  0  0  0  0  0  0
  185.9370  178.5310  142.1300 C   0  0  0  0  0  0  0  0  0  0  0  0
  184.7930  178.8970  141.7500 O   0  0  0  0  0  0  0  0  0  0  0  0
  188.4500  177.7330  142.8930 N   0  0  0  0  0  0  0  0  0  0  0  0
  186.8110  177.8420  146.1820 C   0  0  0  0  0  3  0  0  0  0  0  0
  186.9180  178.3380  141.2110 N   0  0  0  0  0  2  0  0  0  0  0  0
  188.1620  177.9360  141.5810 C   0  0  0  0  0  0  0  0  0  0  0  0
  186.2080  178.3170  143.4900 C   0  0  0  0  0  0  0  0  0  0  0  0
  189.1610  177.2530  145.6490 C   0  0  0  0  0  0  0  0  0  0  0  0
  191.7430  176.4260  146.3810 C   0  0  0  0  0  3  0  0  0  0  0  0
  189.5240  177.1750  147.0140 C   0  0  0  0  0  0  0  0  0  0  0  0
  190.8140  176.7650  147.3670 C   0  0  0  0  0  3  0  0  0  0  0  0
  191.3850  176.4890  145.0330 C   0  0  0  0  0  3  0  0  0  0  0  0
  188.5550  177.4760  148.1080 C   0  0  0  0  0  1  0  0  0  0  0  0
  190.1000  176.8980  144.6710 C   0  0  0  0  0  3  0  0  0  0  0  0
  189.4300  177.6850  140.3380 S   0  0  0  0  0  0  0  0  0  0  0  0
  188.0830  179.2770  136.8750 O   0  0  0  0  0  0  0  0  0  0  0  0
  188.0570  176.6940  138.1320 C   0  0  0  0  0  2  0  0  0  0  0  0
  188.0630  178.1110  136.0860 C   0  0  0  0  0  2  0  0  0  0  0  0
  188.3520  177.9870  138.8930 C   0  0  2  0  0  3  0  0  0  0  0  0
  187.3250  176.9960  136.8290 C   0  0  0  0  0  2  0  0  0  0  0  0
  188.9600  179.0270  137.9470 C   0  0  0  0  0  2  0  0  0  0  0  0
  1 12  1  0  0  0  0
  1  8  1  0  0  0  0
  2  1  2  0  0  0  0
  3  8  2  0  0  0  0
  4  3  1  0  0  0  0
  5 11  1  0  0  0  0
  6  5  2  0  0  0  0
  7  2  1  0  0  0  0
  9 10  1  0  0  0  0
  9  5  1  0  0  0  0
 10  7  2  0  0  0  0
 11  2  1  0  0  0  0
 11  4  2  0  0  0  0
 12 14  1  0  0  0  0
 13 15  1  0  0  0  0
 14 15  2  0  0  0  0
 14 17  1  0  0  0  0
 16 13  2  0  0  0  0
 18 16  1  0  0  0  0
 18 12  2  0  0  0  0
 19 10  1  0  0  0  0
 20 25  1  0  0  0  0
 21 23  1  0  0  0  0
 22 24  1  0  0  0  0
 22 20  1  0  0  0  0
 23 19  1  1  0  0  0
 24 21  1  0  0  0  0
 25 23  1  0  0  0  0
M  END
>  <MODEL>
2

>  <REMARK>
 VINA RESULT:      -8.8      2.592      3.940
  Name = 
  3 active torsions:
  status: ('A' for Active; 'I' for Inactive)
    1  A    between atoms: C_1  and  C_5
    2  A    between atoms: S_6  and  C_15
    3  A    between atoms: S_6  and  C_23
                            x       y       z     vdW  Elec       q    Type
                         _______ _______ _______ _____ _____    ______ ____

>  <TORSDO>
F 3

$$$$
=
 OpenBabel11052412443D

 25 28  0  0  1  0  0  0  0  0999 V2000
  187.3580  177.6930  145.1730 C   0  0  0  0  0  0  0  0  0  0  0  0
  188.4340  177.4990  144.2800 C   0  0  0  0  0  0  0  0  0  0  0  0
  188.8230  177.1510  147.0370 C   0  0  0  0  0  3  0  0  0  0  0  0
  189.8850  176.9450  146.1560 C   0  0  0  0  0  3  0  0  0  0  0  0
  190.7480  176.9390  143.8640 C   0  0  0  0  0  0  0  0  0  0  0  0
  191.8940  176.5940  144.2560 O   0  0  0  0  0  0  0  0  0  0  0  0
  188.2740  177.6930  142.9450 N   0  0  0  0  0  0  0  0  0  0  0  0
  187.5700  177.5270  146.5490 C   0  0  0  0  0  3  0  0  0  0  0  0
  190.5270  177.1430  142.5400 N   0  0  0  0  0  2  0  0  0  0  0  0
  189.3060  177.5230  142.0790 C   0  0  0  0  0  0  0  0  0  0  0  0
  189.7000  177.1200  144.7790 C   0  0  0  0  0  0  0  0  0  0  0  0
  186.0200  178.1030  144.7010 C   0  0  0  0  0  0  0  0  0  0  0  0
  183.4950  178.8450  143.7190 C   0  0  0  0  0  3  0  0  0  0  0  0
  185.0620  178.6830  145.5640 C   0  0  0  0  0  0  0  0  0  0  0  0
  183.8070  179.0460  145.0650 C   0  0  0  0  0  3  0  0  0  0  0  0
  184.4420  178.2850  142.8600 C   0  0  0  0  0  3  0  0  0  0  0  0
  185.3610  178.9680  146.9980 C   0  0  0  0  0  1  0  0  0  0  0  0
  185.6980  177.9190  143.3480 C   0  0  0  0  0  3  0  0  0  0  0  0
  189.0540  177.7890  140.3230 S   0  0  0  0  0  0  0  0  0  0  0  0
  191.0540  175.0500  138.1240 O   0  0  0  0  0  0  0  0  0  0  0  0
  191.6980  177.4770  139.5190 C   0  0  0  0  0  2  0  0  0  0  0  0
  192.1200  175.8560  137.6790 C   0  0  0  0  0  2  0  0  0  0  0  0
  190.4070  176.6950  139.7610 C   0  0  2  0  0  3  0  0  0  0  0  0
  192.7490  176.5840  138.8670 C   0  0  0  0  0  2  0  0  0  0  0  0
  190.0150  175.9220  138.4980 C   0  0  0  0  0  2  0  0  0  0  0  0
  1  8  1  0  0  0  0
  2 11  1  0  0  0  0
  2  1  2  0  0  0  0
  4  3  1  0  0  0  0
  5  6  2  0  0  0  0
  5 11  1  0  0  0  0
  7  2  1  0  0  0  0
  8  3  2  0  0  0  0
  9  5  1  0  0  0  0
 10  9  1  0  0  0  0
 10  7  2  0  0  0  0
 11  4  2  0  0  0  0
 12  1  1  0  0  0  0
 12 14  1  0  0  0  0
 13 15  1  0  0  0  0
 14 17  1  0  0  0  0
 15 14  2  0  0  0  0
 16 18  1  0  0  0  0
 16 13  2  0  0  0  0
 18 12  2  0  0  0  0
 19 10  1  0  0  0  0
 20 25  1  0  0  0  0
 21 23  1  0  0  0  0
 22 20  1  0  0  0  0
 22 24  1  0  0  0  0
 23 19  1  6  0  0  0
 24 21  1  0  0  0  0
 25 23  1  0  0  0  0
M  END
>  <MODEL>
3

>  <REMARK>
 VINA RESULT:      -8.8      2.335      4.779
  Name = 
  3 active torsions:
  status: ('A' for Active; 'I' for Inactive)
    1  A    between atoms: C_1  and  C_5
    2  A    between atoms: S_6  and  C_15
    3  A    between atoms: S_6  and  C_23
                            x       y       z     vdW  Elec       q    Type
                         _______ _______ _______ _____ _____    ______ ____

>  <TORSDO>
F 3

$$$$
=
 OpenBabel11052412443D

 25 28  0  0  1  0  0  0  0  0999 V2000
  188.0540  177.8970  145.1490 C   0  0  0  0  0  0  0  0  0  0  0  0
  186.8400  178.2690  144.5320 C   0  0  0  0  0  0  0  0  0  0  0  0
  186.9360  177.8770  147.3090 C   0  0  0  0  0  3  0  0  0  0  0  0
  185.7380  178.2590  146.7040 C   0  0  0  0  0  3  0  0  0  0  0  0
  184.4910  178.8190  144.6730 C   0  0  0  0  0  0  0  0  0  0  0  0
  183.4310  179.0030  145.3290 O   0  0  0  0  0  0  0  0  0  0  0  0
  186.7650  178.4330  143.1850 N   0  0  0  0  0  0  0  0  0  0  0  0
  188.0850  177.6930  146.5350 C   0  0  0  0  0  3  0  0  0  0  0  0
  184.4780  178.9730  143.3230 N   0  0  0  0  0  2  0  0  0  0  0  0
  185.5990  178.7770  142.5800 C   0  0  0  0  0  0  0  0  0  0  0  0
  185.6810  178.4530  145.3180 C   0  0  0  0  0  0  0  0  0  0  0  0
  189.2890  177.6790  144.3670 C   0  0  0  0  0  0  0  0  0  0  0  0
  191.6760  177.3370  142.9290 C   0  0  0  0  0  3  0  0  0  0  0  0
  189.4320  176.5940  143.4720 C   0  0  0  0  0  0  0  0  0  0  0  0
  190.6260  176.4310  142.7630 C   0  0  0  0  0  3  0  0  0  0  0  0
  191.5350  178.4170  143.8020 C   0  0  0  0  0  3  0  0  0  0  0  0
  188.3230  175.6280  143.2190 C   0  0  0  0  0  1  0  0  0  0  0  0
  190.3460  178.5880  144.5140 C   0  0  0  0  0  3  0  0  0  0  0  0
  185.5420  178.9840  140.8000 S   0  0  0  0  0  0  0  0  0  0  0  0
  181.8190  179.7300  139.4100 O   0  0  0  0  0  0  0  0  0  0  0  0
  183.2140  177.4850  140.5370 C   0  0  0  0  0  2  0  0  0  0  0  0
  181.4480  178.4200  139.0540 C   0  0  0  0  0  2  0  0  0  0  0  0
  183.7200  178.9230  140.6520 C   0  0  2  0  0  3  0  0  0  0  0  0
  181.7220  177.4680  140.2190 C   0  0  0  0  0  2  0  0  0  0  0  0
  183.2250  179.7530  139.4630 C   0  0  0  0  0  2  0  0  0  0  0  0
  1  8  1  0  0  0  0
  2  1  2  0  0  0  0
  2 11  1  0  0  0  0
  4  3  1  0  0  0  0
  5 11  1  0  0  0  0
  5  6  2  0  0  0  0
  7  2  1  0  0  0  0
  8  3  2  0  0  0  0
  9  5  1  0  0  0  0
 10  7  2  0  0  0  0
 10  9  1  0  0  0  0
 11  4  2  0  0  0  0
 12 18  1  0  0  0  0
 12  1  1  0  0  0  0
 13 16  1  0  0  0  0
 14 12  2  0  0  0  0
 15 13  2  0  0  0  0
 15 14  1  0  0  0  0
 16 18  2  0  0  0  0
 17 14  1  0  0  0  0
 19 10  1  0  0  0  0
 20 25  1  0  0  0  0
 21 23  1  0  0  0  0
 22 20  1  0  0  0  0
 22 24  1  0  0  0  0
 23 19  1  6  0  0  0
 24 21  1  0  0  0  0
 25 23  1  0  0  0  0
M  END
>  <MODEL>
4

>  <REMARK>
 VINA RESULT:      -8.7      2.185      5.704
  Name = 
  3 active torsions:
  status: ('A' for Active; 'I' for Inactive)
    1  A    between atoms: C_1  and  C_5
    2  A    between atoms: S_6  and  C_15
    3  A    between atoms: S_6  and  C_23
                            x       y       z     vdW  Elec       q    Type
                         _______ _______ _______ _____ _____    ______ ____

>  <TORSDO>
F 3

$$$$
=
 OpenBabel11052412443D

 25 28  0  0  1  0  0  0  0  0999 V2000
  185.8670  178.2670  144.2830 C   0  0  0  0  0  0  0  0  0  0  0  0
  186.0260  178.4420  142.8920 C   0  0  0  0  0  0  0  0  0  0  0  0
  183.5030  178.7970  144.0670 C   0  0  0  0  0  3  0  0  0  0  0  0
  183.6600  178.9840  142.6930 C   0  0  0  0  0  3  0  0  0  0  0  0
  185.1080  178.9660  140.7190 C   0  0  0  0  0  0  0  0  0  0  0  0
  184.1520  179.2970  139.9670 O   0  0  0  0  0  0  0  0  0  0  0  0
  187.2330  178.2430  142.2990 N   0  0  0  0  0  0  0  0  0  0  0  0
  184.5980  178.4360  144.8550 C   0  0  0  0  0  3  0  0  0  0  0  0
  186.3400  178.7590  140.1830 N   0  0  0  0  0  2  0  0  0  0  0  0
  187.3940  178.3950  140.9590 C   0  0  0  0  0  0  0  0  0  0  0  0
  184.9160  178.8050  142.0980 C   0  0  0  0  0  0  0  0  0  0  0  0
  186.9950  177.8730  145.1520 C   0  0  0  0  0  0  0  0  0  0  0  0
  189.1870  177.0970  146.7270 C   0  0  0  0  0  3  0  0  0  0  0  0
  187.0010  178.1330  146.5420 C   0  0  0  0  0  0  0  0  0  0  0  0
  188.0990  177.7450  147.3160 C   0  0  0  0  0  3  0  0  0  0  0  0
  189.1790  176.8260  145.3570 C   0  0  0  0  0  3  0  0  0  0  0  0
  185.8430  178.7750  147.2310 C   0  0  0  0  0  1  0  0  0  0  0  0
  188.0880  177.2100  144.5760 C   0  0  0  0  0  3  0  0  0  0  0  0
  189.0030  178.1240  140.2150 S   0  0  0  0  0  0  0  0  0  0  0  0
  188.4420  178.6100  136.2420 O   0  0  0  0  0  0  0  0  0  0  0  0
  188.6860  176.3980  138.0580 C   0  0  0  0  0  2  0  0  0  0  0  0
  188.9660  177.3850  135.7900 C   0  0  0  0  0  2  0  0  0  0  0  0
  188.3890  177.8250  138.5190 C   0  0  2  0  0  3  0  0  0  0  0  0
  188.3440  176.2330  136.5810 C   0  0  0  0  0  2  0  0  0  0  0  0
  188.9750  178.8320  137.5250 C   0  0  0  0  0  2  0  0  0  0  0  0
  1  8  1  0  0  0  0
  1 12  1  0  0  0  0
  2  1  2  0  0  0  0
  3  8  2  0  0  0  0
  4  3  1  0  0  0  0
  5 11  1  0  0  0  0
  6  5  2  0  0  0  0
  7  2  1  0  0  0  0
  9  5  1  0  0  0  0
  9 10  1  0  0  0  0
 10  7  2  0  0  0  0
 11  4  2  0  0  0  0
 11  2  1  0  0  0  0
 12 14  1  0  0  0  0
 13 15  1  0  0  0  0
 14 17  1  0  0  0  0
 14 15  2  0  0  0  0
 16 13  2  0  0  0  0
 18 12  2  0  0  0  0
 18 16  1  0  0  0  0
 19 10  1  0  0  0  0
 20 25  1  0  0  0  0
 21 23  1  0  0  0  0
 22 20  1  0  0  0  0
 22 24  1  0  0  0  0
 23 19  1  1  0  0  0
 24 21  1  0  0  0  0
 25 23  1  0  0  0  0
M  END
>  <MODEL>
5

>  <REMARK>
 VINA RESULT:      -8.7      2.665      3.437
  Name = 
  3 active torsions:
  status: ('A' for Active; 'I' for Inactive)
    1  A    between atoms: C_1  and  C_5
    2  A    between atoms: S_6  and  C_15
    3  A    between atoms: S_6  and  C_23
                            x       y       z     vdW  Elec       q    Type
                         _______ _______ _______ _____ _____    ______ ____

>  <TORSDO>
F 3

$$$$
=
 OpenBabel11052412443D

 25 28  0  0  1  0  0  0  0  0999 V2000
  188.2250  177.6800  144.8450 C   0  0  0  0  0  0  0  0  0  0  0  0
  186.9360  178.1110  144.4640 C   0  0  0  0  0  0  0  0  0  0  0  0
  187.5330  177.7090  147.1770 C   0  0  0  0  0  3  0  0  0  0  0  0
  186.2620  178.1480  146.8040 C   0  0  0  0  0  3  0  0  0  0  0  0
  184.6830  178.7710  145.0400 C   0  0  0  0  0  0  0  0  0  0  0  0
  183.7750  179.0030  145.8810 O   0  0  0  0  0  0  0  0  0  0  0  0
  186.6170  178.2800  143.1540 N   0  0  0  0  0  0  0  0  0  0  0  0
  188.5060  177.4720  146.2020 C   0  0  0  0  0  3  0  0  0  0  0  0
  184.4240  178.9280  143.7150 N   0  0  0  0  0  2  0  0  0  0  0  0
  185.3750  178.6810  142.7770 C   0  0  0  0  0  0  0  0  0  0  0  0
  185.9550  178.3480  145.4530 C   0  0  0  0  0  0  0  0  0  0  0  0
  189.2790  177.4050  143.8470 C   0  0  0  0  0  0  0  0  0  0  0  0
  191.2290  176.8140  141.9150 C   0  0  0  0  0  3  0  0  0  0  0  0
  190.4290  178.2190  143.7230 C   0  0  0  0  0  0  0  0  0  0  0  0
  191.3930  177.9170  142.7560 C   0  0  0  0  0  3  0  0  0  0  0  0
  190.1020  176.0000  142.0420 C   0  0  0  0  0  3  0  0  0  0  0  0
  190.6780  179.3780  144.6300 C   0  0  0  0  0  1  0  0  0  0  0  0
  189.1340  176.2940  143.0050 C   0  0  0  0  0  3  0  0  0  0  0  0
  184.9950  178.8940  141.0370 S   0  0  0  0  0  0  0  0  0  0  0  0
  180.9990  178.3030  141.1910 O   0  0  0  0  0  0  0  0  0  0  0  0
  183.2420  177.0600  139.8970 C   0  0  0  0  0  2  0  0  0  0  0  0
  180.8230  177.6410  139.9610 C   0  0  0  0  0  2  0  0  0  0  0  0
  183.3890  178.0210  141.0780 C   0  0  2  0  0  3  0  0  0  0  0  0
  181.8270  176.4940  139.8430 C   0  0  0  0  0  2  0  0  0  0  0  0
  182.2150  179.0050  141.1050 C   0  0  0  0  0  2  0  0  0  0  0  0
  1  8  1  0  0  0  0
  2  1  2  0  0  0  0
  2 11  1  0  0  0  0
  4  3  1  0  0  0  0
  5 11  1  0  0  0  0
  5  6  2  0  0  0  0
  7  2  1  0  0  0  0
  8  3  2  0  0  0  0
  9  5  1  0  0  0  0
 10  7  2  0  0  0  0
 10  9  1  0  0  0  0
 11  4  2  0  0  0  0
 12  1  1  0  0  0  0
 13 16  2  0  0  0  0
 13 15  1  0  0  0  0
 14 12  1  0  0  0  0
 14 17  1  0  0  0  0
 15 14  2  0  0  0  0
 16 18  1  0  0  0  0
 18 12  2  0  0  0  0
 19 10  1  0  0  0  0
 21 23  1  0  0  0  0
 22 20  1  0  0  0  0
 23 19  1  6  0  0  0
 23 25  1  0  0  0  0
 24 21  1  0  0  0  0
 24 22  1  0  0  0  0
 25 20  1  0  0  0  0
M  END
>  <MODEL>
6

>  <REMARK>
 VINA RESULT:      -8.7      2.274      5.853
  Name = 
  3 active torsions:
  status: ('A' for Active; 'I' for Inactive)
    1  A    between atoms: C_1  and  C_5
    2  A    between atoms: S_6  and  C_15
    3  A    between atoms: S_6  and  C_23
                            x       y       z     vdW  Elec       q    Type
                         _______ _______ _______ _____ _____    ______ ____

>  <TORSDO>
F 3

$$$$
=
 OpenBabel11052412443D

 25 28  0  0  1  0  0  0  0  0999 V2000
  187.7270  177.4670  143.8700 C   0  0  0  0  0  0  0  0  0  0  0  0
  187.3420  177.9740  142.6110 C   0  0  0  0  0  0  0  0  0  0  0  0
  185.4820  177.8800  144.7100 C   0  0  0  0  0  3  0  0  0  0  0  0
  185.1020  178.3950  143.4700 C   0  0  0  0  0  3  0  0  0  0  0  0
  185.6730  178.9350  141.1510 C   0  0  0  0  0  0  0  0  0  0  0  0
  184.5120  179.3710  140.9270 O   0  0  0  0  0  0  0  0  0  0  0  0
  188.2180  177.9980  141.5720 N   0  0  0  0  0  0  0  0  0  0  0  0
  186.7850  177.4150  144.9070 C   0  0  0  0  0  3  0  0  0  0  0  0
  186.5940  178.9390  140.1520 N   0  0  0  0  0  2  0  0  0  0  0  0
  187.8530  178.4700  140.3530 C   0  0  0  0  0  0  0  0  0  0  0  0
  186.0240  178.4420  142.4160 C   0  0  0  0  0  0  0  0  0  0  0  0
  189.0900  176.9520  144.1180 C   0  0  0  0  0  0  0  0  0  0  0  0
  191.6810  175.9380  144.5020 C   0  0  0  0  0  3  0  0  0  0  0  0
  189.8100  177.2640  145.2940 C   0  0  0  0  0  0  0  0  0  0  0  0
  191.1010  176.7570  145.4740 C   0  0  0  0  0  3  0  0  0  0  0  0
  190.9690  175.6160  143.3450 C   0  0  0  0  0  3  0  0  0  0  0  0
  189.2190  178.0910  146.3870 C   0  0  0  0  0  1  0  0  0  0  0  0
  189.6790  176.1190  143.1570 C   0  0  0  0  0  3  0  0  0  0  0  0
  189.0400  178.4860  139.0080 S   0  0  0  0  0  0  0  0  0  0  0  0
  187.3280  175.3820  137.0650 O   0  0  0  0  0  0  0  0  0  0  0  0
  189.9840  176.1380  137.8550 C   0  0  0  0  0  2  0  0  0  0  0  0
  188.4350  174.9540  136.3080 C   0  0  0  0  0  2  0  0  0  0  0  0
  188.7260  176.7740  138.4480 C   0  0  2  0  0  3  0  0  0  0  0  0
  189.6530  174.7910  137.2200 C   0  0  0  0  0  2  0  0  0  0  0  0
  187.5800  176.7160  137.4340 C   0  0  0  0  0  2  0  0  0  0  0  0
  1 12  1  0  0  0  0
  1  8  1  0  0  0  0
  2  1  2  0  0  0  0
  3  8  2  0  0  0  0
  4  3  1  0  0  0  0
  5 11  1  0  0  0  0
  6  5  2  0  0  0  0
  7  2  1  0  0  0  0
  9 10  1  0  0  0  0
  9  5  1  0  0  0  0
 10  7  2  0  0  0  0
 11  2  1  0  0  0  0
 11  4  2  0  0  0  0
 12 14  1  0  0  0  0
 13 15  1  0  0  0  0
 14 15  2  0  0  0  0
 14 17  1  0  0  0  0
 16 13  2  0  0  0  0
 18 16  1  0  0  0  0
 18 12  2  0  0  0  0
 19 10  1  0  0  0  0
 20 25  1  0  0  0  0
 21 23  1  0  0  0  0
 22 20  1  0  0  0  0
 22 24  1  0  0  0  0
 23 19  1  6  0  0  0
 24 21  1  0  0  0  0
 25 23  1  0  0  0  0
M  END
>  <MODEL>
7

>  <REMARK>
 VINA RESULT:      -8.7      2.789      4.008
  Name = 
  3 active torsions:
  status: ('A' for Active; 'I' for Inactive)
    1  A    between atoms: C_1  and  C_5
    2  A    between atoms: S_6  and  C_15
    3  A    between atoms: S_6  and  C_23
                            x       y       z     vdW  Elec       q    Type
                         _______ _______ _______ _____ _____    ______ ____

>  <TORSDO>
F 3

$$$$
=
 OpenBabel11052412443D

 25 28  0  0  1  0  0  0  0  0999 V2000
  187.8730  177.6460  143.6300 C   0  0  0  0  0  0  0  0  0  0  0  0
  187.1550  178.0530  142.4860 C   0  0  0  0  0  0  0  0  0  0  0  0
  185.9500  178.1920  145.0160 C   0  0  0  0  0  3  0  0  0  0  0  0
  185.2430  178.6080  143.8870 C   0  0  0  0  0  3  0  0  0  0  0  0
  185.1490  178.9310  141.4620 C   0  0  0  0  0  0  0  0  0  0  0  0
  183.9730  179.3780  141.5290 O   0  0  0  0  0  0  0  0  0  0  0  0
  187.7090  177.9630  141.2470 N   0  0  0  0  0  0  0  0  0  0  0  0
  187.2550  177.7100  144.8870 C   0  0  0  0  0  3  0  0  0  0  0  0
  185.7570  178.8230  140.2520 N   0  0  0  0  0  2  0  0  0  0  0  0
  187.0210  178.3390  140.1390 C   0  0  0  0  0  0  0  0  0  0  0  0
  185.8360  178.5390  142.6210 C   0  0  0  0  0  0  0  0  0  0  0  0
  189.2500  177.1180  143.5380 C   0  0  0  0  0  0  0  0  0  0  0  0
  191.8310  176.0290  143.3380 C   0  0  0  0  0  3  0  0  0  0  0  0
  190.3860  177.9490  143.6720 C   0  0  0  0  0  0  0  0  0  0  0  0
  191.6670  177.3980  143.5680 C   0  0  0  0  0  3  0  0  0  0  0  0
  190.7130  175.2030  143.2180 C   0  0  0  0  0  3  0  0  0  0  0  0
  190.2670  179.4070  143.9690 C   0  0  0  0  0  1  0  0  0  0  0  0
  189.4300  175.7450  143.3200 C   0  0  0  0  0  3  0  0  0  0  0  0
  187.7880  178.2060  138.5230 S   0  0  0  0  0  0  0  0  0  0  0  0
  190.5550  175.2630  138.3530 O   0  0  0  0  0  0  0  0  0  0  0  0
  190.3600  177.8770  139.5290 C   0  0  0  0  0  2  0  0  0  0  0  0
  191.7160  176.0370  138.5450 C   0  0  0  0  0  2  0  0  0  0  0  0
  189.1430  177.0910  139.0380 C   0  0  2  0  0  3  0  0  0  0  0  0
  191.5400  176.9390  139.7660 C   0  0  0  0  0  2  0  0  0  0  0  0
  189.5510  176.1420  137.9070 C   0  0  0  0  0  2  0  0  0  0  0  0
  1  8  1  0  0  0  0
  2 11  1  0  0  0  0
  2  1  2  0  0  0  0
  4  3  1  0  0  0  0
  5  6  2  0  0  0  0
  5 11  1  0  0  0  0
  7  2  1  0  0  0  0
  8  3  2  0  0  0  0
  9  5  1  0  0  0  0
 10  9  1  0  0  0  0
 10  7  2  0  0  0  0
 11  4  2  0  0  0  0
 12  1  1  0  0  0  0
 12 14  1  0  0  0  0
 13 15  1  0  0  0  0
 14 17  1  0  0  0  0
 15 14  2  0  0  0  0
 16 18  1  0  0  0  0
 16 13  2  0  0  0  0
 18 12  2  0  0  0  0
 19 10  1  0  0  0  0
 20 22  1  0  0  0  0
 21 24  1  0  0  0  0
 22 24  1  0  0  0  0
 23 19  1  6  0  0  0
 23 21  1  0  0  0  0
 25 20  1  0  0  0  0
 25 23  1  0  0  0  0
M  END
>  <MODEL>
8

>  <REMARK>
 VINA RESULT:      -8.4      2.183      3.589
  Name = 
  3 active torsions:
  status: ('A' for Active; 'I' for Inactive)
    1  A    between atoms: C_1  and  C_5
    2  A    between atoms: S_6  and  C_15
    3  A    between atoms: S_6  and  C_23
                            x       y       z     vdW  Elec       q    Type
                         _______ _______ _______ _____ _____    ______ ____

>  <TORSDO>
F 3

$$$$
=
 OpenBabel11052412443D

 25 28  0  0  1  0  0  0  0  0999 V2000
  185.2830  178.3180  142.6920 C   0  0  0  0  0  0  0  0  0  0  0  0
  186.0890  178.3460  141.5350 C   0  0  0  0  0  0  0  0  0  0  0  0
  183.3100  178.6620  141.3110 C   0  0  0  0  0  3  0  0  0  0  0  0
  184.1070  178.7040  140.1660 C   0  0  0  0  0  3  0  0  0  0  0  0
  186.3240  178.5630  139.1390 C   0  0  0  0  0  0  0  0  0  0  0  0
  185.8450  178.7430  137.9880 O   0  0  0  0  0  0  0  0  0  0  0  0
  187.4340  178.1630  141.6180 N   0  0  0  0  0  0  0  0  0  0  0  0
  183.8940  178.4650  142.5650 C   0  0  0  0  0  3  0  0  0  0  0  0
  187.6630  178.3800  139.2850 N   0  0  0  0  0  2  0  0  0  0  0  0
  188.2170  178.1750  140.5090 C   0  0  0  0  0  0  0  0  0  0  0  0
  185.4940  178.5440  140.2690 C   0  0  0  0  0  0  0  0  0  0  0  0
  185.8580  178.0990  144.0360 C   0  0  0  0  0  0  0  0  0  0  0  0
  187.0280  177.6480  146.5480 C   0  0  0  0  0  3  0  0  0  0  0  0
  185.2180  178.5560  145.2120 C   0  0  0  0  0  0  0  0  0  0  0  0
  185.8110  178.3280  146.4570 C   0  0  0  0  0  3  0  0  0  0  0  0
  187.6560  177.1840  145.3920 C   0  0  0  0  0  3  0  0  0  0  0  0
  183.8940  179.2420  145.1750 C   0  0  0  0  0  1  0  0  0  0  0  0
  187.0720  177.4070  144.1430 C   0  0  0  0  0  3  0  0  0  0  0  0
  189.9870  177.9310  140.6610 S   0  0  0  0  0  0  0  0  0  0  0  0
  190.5810  176.0000  144.1630 O   0  0  0  0  0  0  0  0  0  0  0  0
  190.6730  178.7180  143.2390 C   0  0  0  0  0  2  0  0  0  0  0  0
  191.4390  176.9260  144.7860 C   0  0  0  0  0  2  0  0  0  0  0  0
  189.9860  177.5960  142.4590 C   0  0  2  0  0  3  0  0  0  0  0  0
  190.8340  178.3280  144.7040 C   0  0  0  0  0  2  0  0  0  0  0  0
  190.6460  176.2520  142.7800 C   0  0  0  0  0  2  0  0  0  0  0  0
  1 12  1  0  0  0  0
  2  7  1  0  0  0  0
  2  1  2  0  0  0  0
  3  8  2  0  0  0  0
  4 11  2  0  0  0  0
  4  3  1  0  0  0  0
  5  9  1  0  0  0  0
  5 11  1  0  0  0  0
  6  5  2  0  0  0  0
  8  1  1  0  0  0  0
  9 10  1  0  0  0  0
 10 19  1  0  0  0  0
 10  7  2  0  0  0  0
 11  2  1  0  0  0  0
 12 18  2  0  0  0  0
 12 14  1  0  0  0  0
 14 15  2  0  0  0  0
 15 13  1  0  0  0  0
 16 13  2  0  0  0  0
 17 14  1  0  0  0  0
 18 16  1  0  0  0  0
 20 22  1  0  0  0  0
 21 24  1  0  0  0  0
 23 19  1  6  0  0  0
 23 25  1  0  0  0  0
 23 21  1  0  0  0  0
 24 22  1  0  0  0  0
 25 20  1  0  0  0  0
M  END
>  <MODEL>
9

>  <REMARK>
 VINA RESULT:      -8.4      1.396      2.204
  Name = 
  3 active torsions:
  status: ('A' for Active; 'I' for Inactive)
    1  A    between atoms: C_1  and  C_5
    2  A    between atoms: S_6  and  C_15
    3  A    between atoms: S_6  and  C_23
                            x       y       z     vdW  Elec       q    Type
                         _______ _______ _______ _____ _____    ______ ____

>  <TORSDO>
F 3

$$$$
