=
 OpenBabel11052413073D

 31 35  0  0  1  0  0  0  0  0999 V2000
  186.7180  178.1710  146.9760 C   0  0  0  0  0  0  0  0  0  0  0  0
  187.3680  177.5610  143.2340 C   0  0  1  0  0  3  0  0  0  0  0  0
  188.8860  177.4350  143.1700 C   0  0  0  0  0  0  0  0  0  0  0  0
  182.4110  178.5320  141.7840 O   0  0  0  0  0  0  0  0  0  0  0  0
  183.1480  178.6610  140.7680 C   0  0  0  0  0  0  0  0  0  0  0  0
  190.9720  176.6130  144.1020 C   0  0  0  0  0  0  0  0  0  0  0  0
  186.7350  177.9730  144.5520 C   0  0  0  0  0  0  0  0  0  0  0  0
  185.3760  178.5570  146.9420 C   0  0  0  0  0  3  0  0  0  0  0  0
  189.6000  176.8270  144.2110 C   0  0  0  0  0  3  0  0  0  0  0  0
  185.3040  178.4600  142.1300 C   0  0  0  0  0  0  0  0  0  0  0  0
  187.3650  178.0740  148.1610 F   0  0  0  0  0  0  0  0  0  0  0  0
  188.8890  178.3310  140.7810 C   0  0  0  0  0  2  0  0  0  0  0  0
  191.6600  176.0480  145.1230 F   0  0  0  0  0  0  0  0  0  0  0  0
  184.6850  178.4780  143.2760 N   0  0  0  0  0  0  0  0  0  0  0  0
  186.8140  178.4480  142.1080 C   0  0  2  0  0  3  0  0  0  0  0  0
  184.5760  178.6160  140.9030 N   0  0  0  0  0  2  0  0  0  0  0  0
  187.3900  177.8680  145.7890 C   0  0  0  0  0  3  0  0  0  0  0  0
  191.6270  176.9750  142.9270 C   0  0  0  0  0  3  0  0  0  0  0  0
  185.3790  178.3630  144.5280 C   0  0  0  0  0  0  0  0  0  0  0  0
  184.7070  178.6510  145.7190 C   0  0  0  0  0  3  0  0  0  0  0  0
  187.3980  178.0190  140.7710 C   0  0  0  0  0  2  0  0  0  0  0  0
  189.5840  177.7330  141.9730 C   0  0  0  0  0  0  0  0  0  0  0  0
  190.9260  177.5190  141.8980 N   0  0  0  0  0  0  0  0  0  0  0  0
  181.3920  179.3260  136.9060 C   0  0  0  0  0  0  0  0  0  0  0  0
  182.0370  180.1210  139.0940 C   0  0  0  0  0  3  0  0  0  0  0  0
  182.9590  176.5460  138.7410 O   0  0  0  0  0  1  0  0  0  0  0  0
  180.8360  179.5520  135.6920 F   0  0  0  0  0  0  0  0  0  0  0  0
  181.4640  180.3560  137.8440 C   0  0  0  0  0  3  0  0  0  0  0  0
  182.4710  177.8190  138.4700 C   0  0  0  0  0  0  0  0  0  0  0  0
  182.5480  178.8560  139.4270 C   0  0  0  0  0  0  0  0  0  0  0  0
  181.8950  178.0620  137.2190 C   0  0  0  0  0  3  0  0  0  0  0  0
  1 11  1  0  0  0  0
  2  3  1  1  0  0  0
  2  7  1  0  0  0  0
  3  9  1  0  0  0  0
  5 16  1  0  0  0  0
  5  4  2  0  0  0  0
  6  9  2  0  0  0  0
  6 13  1  0  0  0  0
  7 17  1  0  0  0  0
  8  1  1  0  0  0  0
 10 14  2  0  0  0  0
 12 22  1  0  0  0  0
 14 19  1  0  0  0  0
 15 21  1  6  0  0  0
 15 10  1  0  0  0  0
 15  2  1  0  0  0  0
 16 10  1  0  0  0  0
 17  1  2  0  0  0  0
 18  6  1  0  0  0  0
 19  7  2  0  0  0  0
 19 20  1  0  0  0  0
 20  8  2  0  0  0  0
 21 12  1  0  0  0  0
 22  3  2  0  0  0  0
 23 22  1  0  0  0  0
 23 18  2  0  0  0  0
 24 31  2  0  0  0  0
 24 28  1  0  0  0  0
 25 30  1  0  0  0  0
 27 24  1  0  0  0  0
 28 25  2  0  0  0  0
 29 26  1  0  0  0  0
 29 30  2  0  0  0  0
 30  5  1  0  0  0  0
 31 29  1  0  0  0  0
M  END
>  <MODEL>
1

>  <REMARK>
 VINA RESULT:     -10.9      0.000      0.000
  Name = 
  1 active torsions:
  status: ('A' for Active; 'I' for Inactive)
    1  A    between atoms: C_9  and  C_22
                            x       y       z     vdW  Elec       q    Type
                         _______ _______ _______ _____ _____    ______ ____

>  <TORSDO>
F 1

$$$$
=
 OpenBabel11052413073D

 31 35  0  0  1  0  0  0  0  0999 V2000
  185.3890  179.0460  143.5680 C   0  0  0  0  0  0  0  0  0  0  0  0
  188.6930  177.0820  143.6860 C   0  0  1  0  0  3  0  0  0  0  0  0
  189.1100  177.2090  145.1470 C   0  0  0  0  0  0  0  0  0  0  0  0
  189.0150  176.4910  138.4740 O   0  0  0  0  0  0  0  0  0  0  0  0
  190.1670  176.3200  138.9580 C   0  0  0  0  0  0  0  0  0  0  0  0
  188.5390  177.2190  147.5070 C   0  0  0  0  0  0  0  0  0  0  0  0
  187.4920  177.8800  143.2090 C   0  0  0  0  0  0  0  0  0  0  0  0
  185.1990  179.1440  142.1880 C   0  0  0  0  0  3  0  0  0  0  0  0
  188.1520  177.2150  146.1690 C   0  0  0  0  0  3  0  0  0  0  0  0
  189.4520  177.0740  141.2960 C   0  0  0  0  0  0  0  0  0  0  0  0
  184.4650  179.5590  144.4160 F   0  0  0  0  0  0  0  0  0  0  0  0
  191.5700  177.0330  144.4900 C   0  0  0  0  0  2  0  0  0  0  0  0
  187.6070  177.2510  148.4890 F   0  0  0  0  0  0  0  0  0  0  0  0
  188.2670  177.4510  140.9060 N   0  0  0  0  0  0  0  0  0  0  0  0
  189.8700  177.3190  142.7260 C   0  0  2  0  0  3  0  0  0  0  0  0
  190.4110  176.5840  140.3480 N   0  0  0  0  0  2  0  0  0  0  0  0
  186.5220  178.4070  144.0760 C   0  0  0  0  0  3  0  0  0  0  0  0
  189.8950  177.1760  147.8240 C   0  0  0  0  0  3  0  0  0  0  0  0
  187.2910  177.9830  141.8160 C   0  0  0  0  0  0  0  0  0  0  0  0
  186.1480  178.6100  141.3130 C   0  0  0  0  0  3  0  0  0  0  0  0
  191.0690  176.4890  143.1580 C   0  0  0  0  0  2  0  0  0  0  0  0
  190.4740  177.1070  145.5180 C   0  0  0  0  0  0  0  0  0  0  0  0
  190.8230  177.1190  146.8340 N   0  0  0  0  0  0  0  0  0  0  0  0
  193.4370  175.0190  136.4970 C   0  0  0  0  0  0  0  0  0  0  0  0
  192.4090  176.6570  137.9450 C   0  0  0  0  0  3  0  0  0  0  0  0
  190.1490  173.7430  137.5510 O   0  0  0  0  0  1  0  0  0  0  0  0
  194.4770  174.6230  135.7250 F   0  0  0  0  0  0  0  0  0  0  0  0
  193.4820  176.2510  137.1500 C   0  0  0  0  0  3  0  0  0  0  0  0
  191.2420  174.5940  137.4360 C   0  0  0  0  0  0  0  0  0  0  0  0
  191.2780  175.8410  138.1020 C   0  0  0  0  0  0  0  0  0  0  0  0
  192.3200  174.1950  136.6400 C   0  0  0  0  0  3  0  0  0  0  0  0
  1 17  1  0  0  0  0
  1 11  1  0  0  0  0
  2  7  1  6  0  0  0
  2  3  1  0  0  0  0
  3 22  2  0  0  0  0
  3  9  1  0  0  0  0
  4  5  2  0  0  0  0
  5 16  1  0  0  0  0
  6 18  1  0  0  0  0
  6 13  1  0  0  0  0
  7 17  2  0  0  0  0
  8  1  2  0  0  0  0
  9  6  2  0  0  0  0
 10 15  1  0  0  0  0
 12 22  1  0  0  0  0
 14 10  2  0  0  0  0
 14 19  1  0  0  0  0
 15 21  1  1  0  0  0
 15  2  1  0  0  0  0
 16 10  1  0  0  0  0
 19  7  1  0  0  0  0
 20 19  2  0  0  0  0
 20  8  1  0  0  0  0
 21 12  1  0  0  0  0
 22 23  1  0  0  0  0
 23 18  2  0  0  0  0
 24 31  2  0  0  0  0
 24 28  1  0  0  0  0
 25 30  1  0  0  0  0
 27 24  1  0  0  0  0
 28 25  2  0  0  0  0
 29 26  1  0  0  0  0
 29 30  2  0  0  0  0
 30  5  1  0  0  0  0
 31 29  1  0  0  0  0
M  END
>  <MODEL>
2

>  <REMARK>
 VINA RESULT:     -10.6      4.013      6.938
  Name = 
  1 active torsions:
  status: ('A' for Active; 'I' for Inactive)
    1  A    between atoms: C_9  and  C_22
                            x       y       z     vdW  Elec       q    Type
                         _______ _______ _______ _____ _____    ______ ____

>  <TORSDO>
F 1

$$$$
=
 OpenBabel11052413073D

 31 35  0  0  1  0  0  0  0  0999 V2000
  188.0320  178.0330  147.5560 C   0  0  0  0  0  0  0  0  0  0  0  0
  187.4030  177.4820  143.8020 C   0  0  1  0  0  3  0  0  0  0  0  0
  188.8120  177.3140  143.2440 C   0  0  0  0  0  0  0  0  0  0  0  0
  182.2810  178.6280  144.0620 O   0  0  0  0  0  0  0  0  0  0  0  0
  182.6490  178.7570  142.8620 C   0  0  0  0  0  0  0  0  0  0  0  0
  191.0580  176.4120  143.4340 C   0  0  0  0  0  0  0  0  0  0  0  0
  187.2490  177.8860  145.2580 C   0  0  0  0  0  0  0  0  0  0  0  0
  186.7660  178.4590  147.9670 C   0  0  0  0  0  3  0  0  0  0  0  0
  189.8050  176.6630  143.9880 C   0  0  0  0  0  3  0  0  0  0  0  0
  185.1240  178.4650  143.4420 C   0  0  0  0  0  0  0  0  0  0  0  0
  189.0260  177.8930  148.4640 F   0  0  0  0  0  0  0  0  0  0  0  0
  188.0660  178.2580  140.9940 C   0  0  0  0  0  2  0  0  0  0  0  0
  192.0220  175.8060  144.1680 F   0  0  0  0  0  0  0  0  0  0  0  0
  184.9140  178.4760  144.7280 N   0  0  0  0  0  0  0  0  0  0  0  0
  186.5430  178.4090  142.9280 C   0  0  2  0  0  3  0  0  0  0  0  0
  184.0410  178.6670  142.5230 N   0  0  0  0  0  2  0  0  0  0  0  0
  188.2680  177.7350  146.2120 C   0  0  0  0  0  3  0  0  0  0  0  0
  191.3060  176.7790  142.1130 C   0  0  0  0  0  3  0  0  0  0  0  0
  185.9740  178.3160  145.6830 C   0  0  0  0  0  0  0  0  0  0  0  0
  185.7380  178.5980  147.0310 C   0  0  0  0  0  3  0  0  0  0  0  0
  186.6430  177.9900  141.4690 C   0  0  0  0  0  2  0  0  0  0  0  0
  189.0910  177.6150  141.8880 C   0  0  0  0  0  0  0  0  0  0  0  0
  190.3270  177.3640  141.3760 N   0  0  0  0  0  0  0  0  0  0  0  0
  179.8150  179.3930  139.6990 C   0  0  0  0  0  0  0  0  0  0  0  0
  181.8490  178.3950  140.5400 C   0  0  0  0  0  3  0  0  0  0  0  0
  180.2630  180.4340  143.2020 O   0  0  0  0  0  1  0  0  0  0  0  0
  178.9310  179.5840  138.6910 F   0  0  0  0  0  0  0  0  0  0  0  0
  180.9380  178.5900  139.5000 C   0  0  0  0  0  3  0  0  0  0  0  0
  180.5110  179.8100  141.9850 C   0  0  0  0  0  0  0  0  0  0  0  0
  181.6520  178.9980  141.7930 C   0  0  0  0  0  0  0  0  0  0  0  0
  179.6040  180.0010  140.9380 C   0  0  0  0  0  3  0  0  0  0  0  0
  1  8  1  0  0  0  0
  1 11  1  0  0  0  0
  2  3  1  6  0  0  0
  2  7  1  0  0  0  0
  3  9  1  0  0  0  0
  5  4  2  0  0  0  0
  6  9  2  0  0  0  0
  6 13  1  0  0  0  0
  7 19  2  0  0  0  0
  7 17  1  0  0  0  0
 10 14  2  0  0  0  0
 12 21  1  0  0  0  0
 12 22  1  0  0  0  0
 14 19  1  0  0  0  0
 15 21  1  6  0  0  0
 15 10  1  0  0  0  0
 15  2  1  0  0  0  0
 16  5  1  0  0  0  0
 16 10  1  0  0  0  0
 17  1  2  0  0  0  0
 18  6  1  0  0  0  0
 19 20  1  0  0  0  0
 20  8  2  0  0  0  0
 22  3  2  0  0  0  0
 23 22  1  0  0  0  0
 23 18  2  0  0  0  0
 24 31  1  0  0  0  0
 25 30  2  0  0  0  0
 27 24  1  0  0  0  0
 28 24  2  0  0  0  0
 28 25  1  0  0  0  0
 29 26  1  0  0  0  0
 30 29  1  0  0  0  0
 30  5  1  0  0  0  0
 31 29  2  0  0  0  0
M  END
>  <MODEL>
3

>  <REMARK>
 VINA RESULT:     -10.5      1.814      2.293
  Name = 
  1 active torsions:
  status: ('A' for Active; 'I' for Inactive)
    1  A    between atoms: C_9  and  C_22
                            x       y       z     vdW  Elec       q    Type
                         _______ _______ _______ _____ _____    ______ ____

>  <TORSDO>
F 1

$$$$
=
 OpenBabel11052413073D

 31 35  0  0  1  0  0  0  0  0999 V2000
  191.0680  176.4550  143.2570 C   0  0  0  0  0  0  0  0  0  0  0  0
  187.8360  178.0920  144.5480 C   0  0  1  0  0  3  0  0  0  0  0  0
  187.9520  177.9240  146.0590 C   0  0  0  0  0  0  0  0  0  0  0  0
  185.7150  178.6560  139.7730 O   0  0  0  0  0  0  0  0  0  0  0  0
  184.7850  178.7150  140.6230 C   0  0  0  0  0  0  0  0  0  0  0  0
  189.2870  177.9660  148.0870 C   0  0  0  0  0  0  0  0  0  0  0  0
  188.8710  177.4140  143.6680 C   0  0  0  0  0  0  0  0  0  0  0  0
  190.7870  176.3780  141.8910 C   0  0  0  0  0  3  0  0  0  0  0  0
  189.1960  178.0090  146.6970 C   0  0  0  0  0  3  0  0  0  0  0  0
  186.3150  178.0300  142.5560 C   0  0  0  0  0  0  0  0  0  0  0  0
  192.2660  176.0330  143.7260 F   0  0  0  0  0  0  0  0  0  0  0  0
  185.4100  177.8640  146.2770 C   0  0  0  0  0  2  0  0  0  0  0  0
  190.4960  178.0220  148.6960 F   0  0  0  0  0  0  0  0  0  0  0  0
  187.3270  177.7700  141.7770 N   0  0  0  0  0  0  0  0  0  0  0  0
  186.4300  177.7450  144.0340 C   0  0  2  0  0  3  0  0  0  0  0  0
  185.0510  178.4270  142.0040 N   0  0  0  0  0  2  0  0  0  0  0  0
  190.1210  176.9820  144.1390 C   0  0  0  0  0  3  0  0  0  0  0  0
  188.1210  177.8780  148.8440 C   0  0  0  0  0  3  0  0  0  0  0  0
  188.5970  177.3330  142.2850 C   0  0  0  0  0  0  0  0  0  0  0  0
  189.5530  176.8190  141.4060 C   0  0  0  0  0  3  0  0  0  0  0  0
  185.3790  178.4550  144.8730 C   0  0  0  0  0  2  0  0  0  0  0  0
  186.7910  177.8940  146.8720 C   0  0  0  0  0  0  0  0  0  0  0  0
  186.9110  177.8470  148.2270 N   0  0  0  0  0  0  0  0  0  0  0  0
  180.7680  179.7170  139.4820 C   0  0  0  0  0  0  0  0  0  0  0  0
  182.3290  178.3760  140.7490 C   0  0  0  0  0  3  0  0  0  0  0  0
  184.1800  180.8660  138.7190 O   0  0  0  0  0  1  0  0  0  0  0  0
  179.4950  180.0210  139.1330 F   0  0  0  0  0  0  0  0  0  0  0  0
  181.0160  178.6880  140.3900 C   0  0  0  0  0  3  0  0  0  0  0  0
  183.1500  180.1280  139.2880 C   0  0  0  0  0  0  0  0  0  0  0  0
  183.4120  179.0860  140.2080 C   0  0  0  0  0  0  0  0  0  0  0  0
  181.8330  180.4340  138.9340 C   0  0  0  0  0  3  0  0  0  0  0  0
  1 11  1  0  0  0  0
  1 17  1  0  0  0  0
  2  7  1  6  0  0  0
  2  3  1  0  0  0  0
  3  9  2  0  0  0  0
  3 22  1  0  0  0  0
  4  5  2  0  0  0  0
  5 16  1  0  0  0  0
  6 13  1  0  0  0  0
  6 18  2  0  0  0  0
  7 17  2  0  0  0  0
  8  1  2  0  0  0  0
  9  6  1  0  0  0  0
 10 15  1  0  0  0  0
 12 22  1  0  0  0  0
 14 19  1  0  0  0  0
 14 10  2  0  0  0  0
 15  2  1  0  0  0  0
 15 21  1  1  0  0  0
 16 10  1  0  0  0  0
 19  7  1  0  0  0  0
 20  8  1  0  0  0  0
 20 19  2  0  0  0  0
 21 12  1  0  0  0  0
 22 23  2  0  0  0  0
 23 18  1  0  0  0  0
 24 28  1  0  0  0  0
 26 29  1  0  0  0  0
 27 24  1  0  0  0  0
 28 25  2  0  0  0  0
 29 30  2  0  0  0  0
 30  5  1  0  0  0  0
 30 25  1  0  0  0  0
 31 29  1  0  0  0  0
 31 24  2  0  0  0  0
M  END
>  <MODEL>
4

>  <REMARK>
 VINA RESULT:     -10.3      2.087      4.352
  Name = 
  1 active torsions:
  status: ('A' for Active; 'I' for Inactive)
    1  A    between atoms: C_9  and  C_22
                            x       y       z     vdW  Elec       q    Type
                         _______ _______ _______ _____ _____    ______ ____

>  <TORSDO>
F 1

$$$$
=
 OpenBabel11052413073D

 31 35  0  0  1  0  0  0  0  0999 V2000
  191.5240  175.8010  146.7930 C   0  0  0  0  0  0  0  0  0  0  0  0
  188.8600  177.6180  144.6980 C   0  0  1  0  0  3  0  0  0  0  0  0
  187.7540  177.8840  145.7130 C   0  0  0  0  0  0  0  0  0  0  0  0
  191.2670  176.7460  140.1090 O   0  0  0  0  0  0  0  0  0  0  0  0
  190.0570  177.0070  139.8710 C   0  0  0  0  0  0  0  0  0  0  0  0
  187.0580  178.5410  147.9450 C   0  0  0  0  0  0  0  0  0  0  0  0
  190.0360  176.7580  145.1240 C   0  0  0  0  0  0  0  0  0  0  0  0
  192.3690  175.3350  145.7830 C   0  0  0  0  0  3  0  0  0  0  0  0
  188.0620  178.1890  147.0460 C   0  0  0  0  0  3  0  0  0  0  0  0
  189.4090  176.9460  142.3450 C   0  0  0  0  0  0  0  0  0  0  0  0
  191.8310  175.5710  148.0920 F   0  0  0  0  0  0  0  0  0  0  0  0
  185.9950  177.7960  143.8660 C   0  0  0  0  0  2  0  0  0  0  0  0
  187.3600  178.8080  149.2380 F   0  0  0  0  0  0  0  0  0  0  0  0
  190.5770  176.5140  142.7300 N   0  0  0  0  0  0  0  0  0  0  0  0
  188.3050  177.0910  143.3650 C   0  0  2  0  0  3  0  0  0  0  0  0
  189.1200  177.1260  140.9520 N   0  0  0  0  0  2  0  0  0  0  0  0
  190.3720  176.5200  146.4660 C   0  0  0  0  0  3  0  0  0  0  0  0
  185.7410  178.6260  147.4970 C   0  0  0  0  0  3  0  0  0  0  0  0
  190.8960  176.2830  144.1110 C   0  0  0  0  0  0  0  0  0  0  0  0
  192.0560  175.5780  144.4430 C   0  0  0  0  0  3  0  0  0  0  0  0
  187.1560  177.9690  142.8940 C   0  0  0  0  0  2  0  0  0  0  0  0
  186.4100  178.0410  145.2910 C   0  0  0  0  0  0  0  0  0  0  0  0
  185.4490  178.3800  146.1940 N   0  0  0  0  0  0  0  0  0  0  0  0
  188.6780  177.6570  135.8560 C   0  0  0  0  0  0  0  0  0  0  0  0
  189.0560  178.4420  138.1090 C   0  0  0  0  0  3  0  0  0  0  0  0
  190.1790  174.9210  137.8080 O   0  0  0  0  0  1  0  0  0  0  0  0
  188.2390  177.8780  134.5940 F   0  0  0  0  0  0  0  0  0  0  0  0
  188.6040  178.6720  136.8090 C   0  0  0  0  0  3  0  0  0  0  0  0
  189.6620  176.1740  137.5040 C   0  0  0  0  0  0  0  0  0  0  0  0
  189.5900  177.1970  138.4770 C   0  0  0  0  0  0  0  0  0  0  0  0
  189.2050  176.4120  136.2040 C   0  0  0  0  0  3  0  0  0  0  0  0
  1 11  1  0  0  0  0
  2  7  1  1  0  0  0
  2  3  1  0  0  0  0
  3  9  1  0  0  0  0
  5  4  2  0  0  0  0
  5 16  1  0  0  0  0
  6 13  1  0  0  0  0
  7 17  2  0  0  0  0
  8  1  2  0  0  0  0
  9  6  2  0  0  0  0
 10 14  2  0  0  0  0
 10 15  1  0  0  0  0
 12 22  1  0  0  0  0
 14 19  1  0  0  0  0
 15 21  1  6  0  0  0
 15  2  1  0  0  0  0
 16 10  1  0  0  0  0
 17  1  1  0  0  0  0
 18  6  1  0  0  0  0
 19 20  2  0  0  0  0
 19  7  1  0  0  0  0
 20  8  1  0  0  0  0
 21 12  1  0  0  0  0
 22  3  2  0  0  0  0
 22 23  1  0  0  0  0
 23 18  2  0  0  0  0
 24 31  2  0  0  0  0
 24 28  1  0  0  0  0
 25 30  1  0  0  0  0
 27 24  1  0  0  0  0
 28 25  2  0  0  0  0
 29 26  1  0  0  0  0
 29 30  2  0  0  0  0
 30  5  1  0  0  0  0
 31 29  1  0  0  0  0
M  END
>  <MODEL>
5

>  <REMARK>
 VINA RESULT:     -10.1      4.243      6.116
  Name = 
  1 active torsions:
  status: ('A' for Active; 'I' for Inactive)
    1  A    between atoms: C_9  and  C_22
                            x       y       z     vdW  Elec       q    Type
                         _______ _______ _______ _____ _____    ______ ____

>  <TORSDO>
F 1

$$$$
=
 OpenBabel11052413073D

 31 35  0  0  1  0  0  0  0  0999 V2000
  191.1950  177.1210  140.0330 C   0  0  0  0  0  0  0  0  0  0  0  0
  188.3590  178.2240  142.3850 C   0  0  1  0  0  3  0  0  0  0  0  0
  188.8560  177.7700  143.7520 C   0  0  0  0  0  0  0  0  0  0  0  0
  185.0860  179.5620  138.4970 O   0  0  0  0  0  0  0  0  0  0  0  0
  184.4000  179.3820  139.5400 C   0  0  0  0  0  0  0  0  0  0  0  0
  190.6600  177.5090  145.3570 C   0  0  0  0  0  0  0  0  0  0  0  0
  189.1520  177.8130  141.1570 C   0  0  0  0  0  0  0  0  0  0  0  0
  190.5790  177.2940  138.7920 C   0  0  0  0  0  3  0  0  0  0  0  0
  190.2200  177.8190  144.0720 C   0  0  0  0  0  3  0  0  0  0  0  0
  186.3850  178.4440  140.8550 C   0  0  0  0  0  0  0  0  0  0  0  0
  192.4820  176.7050  140.0980 F   0  0  0  0  0  0  0  0  0  0  0  0
  186.4540  177.4780  144.5630 C   0  0  0  0  0  2  0  0  0  0  0  0
  191.9820  177.5340  145.6520 F   0  0  0  0  0  0  0  0  0  0  0  0
  187.1720  178.4190  139.8170 N   0  0  0  0  0  0  0  0  0  0  0  0
  186.8760  177.8810  142.1670 C   0  0  2  0  0  3  0  0  0  0  0  0
  185.0140  178.8470  140.7220 N   0  0  0  0  0  2  0  0  0  0  0  0
  190.4900  177.3910  141.2090 C   0  0  0  0  0  3  0  0  0  0  0  0
  189.7260  177.1860  146.3390 C   0  0  0  0  0  3  0  0  0  0  0  0
  188.5390  177.9870  139.8980 C   0  0  0  0  0  0  0  0  0  0  0  0
  189.2530  177.7300  138.7240 C   0  0  0  0  0  3  0  0  0  0  0  0
  186.0550  178.3310  143.3650 C   0  0  0  0  0  2  0  0  0  0  0  0
  187.9400  177.4920  144.7980 C   0  0  0  0  0  0  0  0  0  0  0  0
  188.4000  177.1870  146.0420 N   0  0  0  0  0  0  0  0  0  0  0  0
  180.2400  180.4470  139.5210 C   0  0  0  0  0  0  0  0  0  0  0  0
  182.4990  180.7520  138.7190 C   0  0  0  0  0  3  0  0  0  0  0  0
  182.4230  178.0320  141.2400 O   0  0  0  0  0  1  0  0  0  0  0  0
  178.9310  180.7950  139.5030 F   0  0  0  0  0  0  0  0  0  0  0  0
  181.1500  181.1110  138.6990 C   0  0  0  0  0  3  0  0  0  0  0  0
  182.0280  179.0570  140.3880 C   0  0  0  0  0  0  0  0  0  0  0  0
  182.9580  179.7240  139.5580 C   0  0  0  0  0  0  0  0  0  0  0  0
  180.6790  179.4230  140.3620 C   0  0  0  0  0  3  0  0  0  0  0  0
  1 11  1  0  0  0  0
  1 17  1  0  0  0  0
  2  7  1  6  0  0  0
  2  3  1  0  0  0  0
  3  9  2  0  0  0  0
  3 22  1  0  0  0  0
  4  5  2  0  0  0  0
  5 30  1  0  0  0  0
  5 16  1  0  0  0  0
  6 13  1  0  0  0  0
  6 18  2  0  0  0  0
  7 17  2  0  0  0  0
  8  1  2  0  0  0  0
  9  6  1  0  0  0  0
 10 15  1  0  0  0  0
 12 22  1  0  0  0  0
 14 19  1  0  0  0  0
 14 10  2  0  0  0  0
 15  2  1  0  0  0  0
 15 21  1  1  0  0  0
 16 10  1  0  0  0  0
 19  7  1  0  0  0  0
 20  8  1  0  0  0  0
 20 19  2  0  0  0  0
 21 12  1  0  0  0  0
 22 23  2  0  0  0  0
 23 18  1  0  0  0  0
 24 31  1  0  0  0  0
 25 30  2  0  0  0  0
 27 24  1  0  0  0  0
 28 25  1  0  0  0  0
 28 24  2  0  0  0  0
 29 26  1  0  0  0  0
 30 29  1  0  0  0  0
 31 29  2  0  0  0  0
M  END
>  <MODEL>
6

>  <REMARK>
 VINA RESULT:      -9.5      2.195      4.399
  Name = 
  1 active torsions:
  status: ('A' for Active; 'I' for Inactive)
    1  A    between atoms: C_9  and  C_22
                            x       y       z     vdW  Elec       q    Type
                         _______ _______ _______ _____ _____    ______ ____

>  <TORSDO>
F 1

$$$$
=
 OpenBabel11052413073D

 31 35  0  0  1  0  0  0  0  0999 V2000
  187.7650  178.5220  136.6840 C   0  0  0  0  0  0  0  0  0  0  0  0
  185.4320  177.9570  139.6880 C   0  0  1  0  0  3  0  0  0  0  0  0
  184.0530  178.2380  139.1030 C   0  0  0  0  0  0  0  0  0  0  0  0
  189.3390  177.5130  143.1750 O   0  0  0  0  0  0  0  0  0  0  0  0
  188.2830  177.7930  143.8060 C   0  0  0  0  0  0  0  0  0  0  0  0
  182.4560  178.0400  137.2840 C   0  0  0  0  0  0  0  0  0  0  0  0
  186.6500  178.2390  138.8260 C   0  0  0  0  0  0  0  0  0  0  0  0
  189.0070  178.5350  137.3240 C   0  0  0  0  0  3  0  0  0  0  0  0
  183.7480  177.8850  137.7820 C   0  0  0  0  0  3  0  0  0  0  0  0
  186.9510  178.2290  141.6650 C   0  0  0  0  0  0  0  0  0  0  0  0
  187.6970  178.6490  135.3370 F   0  0  0  0  0  0  0  0  0  0  0  0
  183.2080  179.0060  141.3860 C   0  0  0  0  0  2  0  0  0  0  0  0
  182.1750  177.7200  135.9980 F   0  0  0  0  0  0  0  0  0  0  0  0
  187.9950  178.1270  140.8910 N   0  0  0  0  0  0  0  0  0  0  0  0
  185.6220  178.6190  141.0630 C   0  0  2  0  0  3  0  0  0  0  0  0
  187.0860  178.1360  143.0900 N   0  0  0  0  0  2  0  0  0  0  0  0
  186.5950  178.3620  137.4290 C   0  0  0  0  0  3  0  0  0  0  0  0
  181.4540  178.5160  138.1260 C   0  0  0  0  0  3  0  0  0  0  0  0
  187.9100  178.2520  139.4630 C   0  0  0  0  0  0  0  0  0  0  0  0
  189.0790  178.3980  138.7120 C   0  0  0  0  0  3  0  0  0  0  0  0
  184.4340  178.3080  141.9600 C   0  0  0  0  0  2  0  0  0  0  0  0
  182.9880  178.6630  139.9370 C   0  0  0  0  0  0  0  0  0  0  0  0
  181.7380  178.8110  139.4210 N   0  0  0  0  0  0  0  0  0  0  0  0
  188.1300  177.7510  148.0970 C   0  0  0  0  0  0  0  0  0  0  0  0
  187.0850  178.1390  145.9530 C   0  0  0  0  0  3  0  0  0  0  0  0
  190.5820  177.0070  145.4540 O   0  0  0  0  0  1  0  0  0  0  0  0
  188.0650  177.7420  149.4500 F   0  0  0  0  0  0  0  0  0  0  0  0
  187.0170  178.1310  147.3470 C   0  0  0  0  0  3  0  0  0  0  0  0
  189.3870  177.3840  146.0560 C   0  0  0  0  0  0  0  0  0  0  0  0
  188.2640  177.7680  145.2870 C   0  0  0  0  0  0  0  0  0  0  0  0
  189.3100  177.3790  147.4520 C   0  0  0  0  0  3  0  0  0  0  0  0
  1  8  2  0  0  0  0
  1 17  1  0  0  0  0
  2  7  1  6  0  0  0
  2 15  1  0  0  0  0
  3  2  1  0  0  0  0
  3 22  1  0  0  0  0
  4  5  2  0  0  0  0
  5 30  1  0  0  0  0
  6  9  1  0  0  0  0
  6 18  2  0  0  0  0
  7 19  1  0  0  0  0
  8 20  1  0  0  0  0
  9  3  2  0  0  0  0
 10 16  1  0  0  0  0
 11  1  1  0  0  0  0
 12 21  1  0  0  0  0
 13  6  1  0  0  0  0
 14 10  2  0  0  0  0
 15 10  1  0  0  0  0
 15 21  1  1  0  0  0
 16  5  1  0  0  0  0
 17  7  2  0  0  0  0
 18 23  1  0  0  0  0
 19 14  1  0  0  0  0
 20 19  2  0  0  0  0
 22 12  1  0  0  0  0
 23 22  2  0  0  0  0
 24 27  1  0  0  0  0
 25 28  1  0  0  0  0
 26 29  1  0  0  0  0
 28 24  2  0  0  0  0
 29 31  2  0  0  0  0
 30 25  2  0  0  0  0
 30 29  1  0  0  0  0
 31 24  1  0  0  0  0
M  END
>  <MODEL>
7

>  <REMARK>
 VINA RESULT:      -9.0      3.100      8.988
  Name = 
  1 active torsions:
  status: ('A' for Active; 'I' for Inactive)
    1  A    between atoms: C_9  and  C_22
                            x       y       z     vdW  Elec       q    Type
                         _______ _______ _______ _____ _____    ______ ____

>  <TORSDO>
F 1

$$$$
=
 OpenBabel11052413073D

 31 35  0  0  1  0  0  0  0  0999 V2000
  183.7820  178.9480  138.4800 C   0  0  0  0  0  0  0  0  0  0  0  0
  183.7980  178.1560  142.2430 C   0  0  1  0  0  3  0  0  0  0  0  0
  182.3960  178.5640  142.6810 C   0  0  0  0  0  0  0  0  0  0  0  0
  188.9500  177.1400  142.4370 O   0  0  0  0  0  0  0  0  0  0  0  0
  188.5590  177.3960  143.6080 C   0  0  0  0  0  0  0  0  0  0  0  0
  180.0030  178.6470  142.2750 C   0  0  0  0  0  0  0  0  0  0  0  0
  184.2300  178.4760  140.8230 C   0  0  0  0  0  0  0  0  0  0  0  0
  185.1440  178.8310  138.1890 C   0  0  0  0  0  3  0  0  0  0  0  0
  181.2960  178.3770  141.8330 C   0  0  0  0  0  3  0  0  0  0  0  0
  186.2370  178.1320  142.8240 C   0  0  0  0  0  0  0  0  0  0  0  0
  182.9010  179.2290  137.4910 F   0  0  0  0  0  0  0  0  0  0  0  0
  183.2530  179.1070  145.0220 C   0  0  0  0  0  2  0  0  0  0  0  0
  178.9480  178.4880  141.4420 F   0  0  0  0  0  0  0  0  0  0  0  0
  186.5490  178.0700  141.5600 N   0  0  0  0  0  0  0  0  0  0  0  0
  184.8750  178.6480  143.2230 C   0  0  2  0  0  3  0  0  0  0  0  0
  187.2230  177.8720  143.8330 N   0  0  0  0  0  2  0  0  0  0  0  0
  183.3270  178.7580  139.7870 C   0  0  0  0  0  3  0  0  0  0  0  0
  179.8060  179.0700  143.5880 C   0  0  0  0  0  3  0  0  0  0  0  0
  185.6040  178.3590  140.5190 C   0  0  0  0  0  0  0  0  0  0  0  0
  186.0530  178.5340  139.2070 C   0  0  0  0  0  3  0  0  0  0  0  0
  184.4850  178.2930  144.6480 C   0  0  0  0  0  2  0  0  0  0  0  0
  182.1410  178.9410  144.0230 C   0  0  0  0  0  0  0  0  0  0  0  0
  180.8670  179.2040  144.4250 N   0  0  0  0  0  0  0  0  0  0  0  0
  191.1130  176.8490  147.0160 C   0  0  0  0  0  0  0  0  0  0  0  0
  188.9300  177.2410  146.0580 C   0  0  0  0  0  3  0  0  0  0  0  0
  191.4480  176.9400  143.3520 O   0  0  0  0  0  1  0  0  0  0  0  0
  191.9060  176.6790  148.1020 F   0  0  0  0  0  0  0  0  0  0  0  0
  189.7450  177.0650  147.1780 C   0  0  0  0  0  3  0  0  0  0  0  0
  190.8570  176.9850  144.6090 C   0  0  0  0  0  0  0  0  0  0  0  0
  189.4680  177.2040  144.7620 C   0  0  0  0  0  0  0  0  0  0  0  0
  191.6660  176.8110  145.7360 C   0  0  0  0  0  3  0  0  0  0  0  0
  1 17  1  0  0  0  0
  2  7  1  6  0  0  0
  2  3  1  0  0  0  0
  2 15  1  0  0  0  0
  3 22  1  0  0  0  0
  4  5  2  0  0  0  0
  5 16  1  0  0  0  0
  5 30  1  0  0  0  0
  6 18  2  0  0  0  0
  8  1  2  0  0  0  0
  8 20  1  0  0  0  0
  9  6  1  0  0  0  0
  9  3  2  0  0  0  0
 10 15  1  0  0  0  0
 10 16  1  0  0  0  0
 11  1  1  0  0  0  0
 13  6  1  0  0  0  0
 14 10  2  0  0  0  0
 15 21  1  1  0  0  0
 17  7  2  0  0  0  0
 18 23  1  0  0  0  0
 19  7  1  0  0  0  0
 19 14  1  0  0  0  0
 20 19  2  0  0  0  0
 21 12  1  0  0  0  0
 22 23  2  0  0  0  0
 22 12  1  0  0  0  0
 24 28  1  0  0  0  0
 24 27  1  0  0  0  0
 25 28  2  0  0  0  0
 26 29  1  0  0  0  0
 29 30  2  0  0  0  0
 29 31  1  0  0  0  0
 30 25  1  0  0  0  0
 31 24  2  0  0  0  0
M  END
>  <MODEL>
8

>  <REMARK>
 VINA RESULT:      -8.9      3.196      9.129
  Name = 
  1 active torsions:
  status: ('A' for Active; 'I' for Inactive)
    1  A    between atoms: C_9  and  C_22
                            x       y       z     vdW  Elec       q    Type
                         _______ _______ _______ _____ _____    ______ ____

>  <TORSDO>
F 1

$$$$
=
 OpenBabel11052413073D

 31 35  0  0  1  0  0  0  0  0999 V2000
  183.8720  178.7800  140.0710 C   0  0  0  0  0  0  0  0  0  0  0  0
  187.6820  178.3040  140.2890 C   0  0  1  0  0  3  0  0  0  0  0  0
  188.0790  178.0770  138.8350 C   0  0  0  0  0  0  0  0  0  0  0  0
  187.7820  178.1150  145.5400 O   0  0  0  0  0  0  0  0  0  0  0  0
  188.8420  177.5850  145.1100 C   0  0  0  0  0  0  0  0  0  0  0  0
  187.8540  178.6250  136.4800 C   0  0  0  0  0  0  0  0  0  0  0  0
  186.2030  178.3730  140.6290 C   0  0  0  0  0  0  0  0  0  0  0  0
  183.5270  178.6990  141.4220 C   0  0  0  0  0  3  0  0  0  0  0  0
  187.4190  178.7490  137.7970 C   0  0  0  0  0  3  0  0  0  0  0  0
  188.0510  177.6360  142.6770 C   0  0  0  0  0  0  0  0  0  0  0  0
  182.9160  179.0180  139.1420 F   0  0  0  0  0  0  0  0  0  0  0  0
  190.0620  176.6480  139.5680 C   0  0  0  0  0  2  0  0  0  0  0  0
  187.1960  179.2570  135.4790 F   0  0  0  0  0  0  0  0  0  0  0  0
  186.8490  178.0330  142.9860 N   0  0  0  0  0  0  0  0  0  0  0  0
  188.3740  177.3130  141.2380 C   0  0  2  0  0  3  0  0  0  0  0  0
  189.0110  177.3490  143.7040 N   0  0  0  0  0  2  0  0  0  0  0  0
  185.2040  178.6310  139.6780 C   0  0  0  0  0  3  0  0  0  0  0  0
  188.9810  177.8540  136.2040 C   0  0  0  0  0  3  0  0  0  0  0  0
  185.8450  178.2950  141.9920 C   0  0  0  0  0  0  0  0  0  0  0  0
  184.5140  178.4590  142.3820 C   0  0  0  0  0  3  0  0  0  0  0  0
  189.8650  177.2660  140.9470 C   0  0  0  0  0  2  0  0  0  0  0  0
  189.2530  177.3520  138.5130 C   0  0  0  0  0  0  0  0  0  0  0  0
  189.6510  177.2430  137.2160 N   0  0  0  0  0  0  0  0  0  0  0  0
  192.0280  176.4360  147.7500 C   0  0  0  0  0  0  0  0  0  0  0  0
  191.0070  176.4550  145.5610 C   0  0  0  0  0  3  0  0  0  0  0  0
  188.8660  178.3090  147.9550 O   0  0  0  0  0  1  0  0  0  0  0  0
  193.0410  176.0660  148.5700 F   0  0  0  0  0  0  0  0  0  0  0  0
  192.0520  176.0730  146.4040 C   0  0  0  0  0  3  0  0  0  0  0  0
  189.9100  177.5680  147.4140 C   0  0  0  0  0  0  0  0  0  0  0  0
  189.9250  177.2050  146.0480 C   0  0  0  0  0  0  0  0  0  0  0  0
  190.9600  177.1810  148.2520 C   0  0  0  0  0  3  0  0  0  0  0  0
  1  8  1  0  0  0  0
  2  3  1  6  0  0  0
  2  7  1  0  0  0  0
  2 15  1  0  0  0  0
  5  4  2  0  0  0  0
  5 30  1  0  0  0  0
  6  9  1  0  0  0  0
  7 19  2  0  0  0  0
  8 20  2  0  0  0  0
  9  3  2  0  0  0  0
 10 14  2  0  0  0  0
 10 16  1  0  0  0  0
 11  1  1  0  0  0  0
 12 21  1  0  0  0  0
 13  6  1  0  0  0  0
 15 21  1  1  0  0  0
 15 10  1  0  0  0  0
 16  5  1  0  0  0  0
 17  1  2  0  0  0  0
 17  7  1  0  0  0  0
 18  6  2  0  0  0  0
 18 23  1  0  0  0  0
 19 20  1  0  0  0  0
 19 14  1  0  0  0  0
 22  3  1  0  0  0  0
 22 12  1  0  0  0  0
 23 22  2  0  0  0  0
 24 31  1  0  0  0  0
 24 27  1  0  0  0  0
 25 30  2  0  0  0  0
 25 28  1  0  0  0  0
 28 24  2  0  0  0  0
 29 26  1  0  0  0  0
 29 31  2  0  0  0  0
 30 29  1  0  0  0  0
M  END
>  <MODEL>
9

>  <REMARK>
 VINA RESULT:      -8.8      3.428      8.530
  Name = 
  1 active torsions:
  status: ('A' for Active; 'I' for Inactive)
    1  A    between atoms: C_9  and  C_22
                            x       y       z     vdW  Elec       q    Type
                         _______ _______ _______ _____ _____    ______ ____

>  <TORSDO>
F 1

$$$$
