=
 OpenBabel11052412543D

 25 28  0  0  1  0  0  0  0  0999 V2000
  189.1050  177.1210  143.9810 C   0  0  0  0  0  0  0  0  0  0  0  0
  188.0920  177.5750  144.8550 C   0  0  0  0  0  0  0  0  0  0  0  0
  190.7450  177.2500  145.7080 C   0  0  0  0  0  3  0  0  0  0  0  0
  188.9440  176.8310  142.5970 N   0  0  0  0  0  0  0  0  0  0  0  0
  185.7570  178.4700  144.8800 N   0  0  0  0  0  0  0  0  0  0  0  0
  191.1380  176.6480  139.8670 O   0  0  0  0  0  0  0  0  0  0  0  0
  189.7740  177.6380  146.5730 N   0  0  0  0  0  0  0  0  0  0  0  0
  190.1040  176.1690  142.0170 C   0  0  1  0  0  3  0  0  0  0  0  0
  190.2410  176.8740  140.7210 C   0  0  0  0  0  0  0  0  0  0  0  0
  187.5900  178.0180  147.2480 C   0  0  0  0  0  0  0  0  0  0  0  0
  188.1180  178.2200  148.6340 C   0  0  0  0  0  1  0  0  0  0  0  0
  186.9160  177.8770  144.2840 C   0  0  0  0  0  3  0  0  0  0  0  0
  189.1680  177.8390  140.5540 C   0  0  0  0  0  3  0  0  0  0  0  0
  190.3980  176.9600  144.4040 C   0  0  0  0  0  0  0  0  0  0  0  0
  191.5420  176.4720  143.1230 S   0  0  0  0  0  0  0  0  0  0  0  0
  186.1300  177.8860  147.2080 C   0  0  0  0  0  3  0  0  0  0  0  0
  188.4440  177.7950  141.6640 C   0  0  0  0  0  3  0  0  0  0  0  0
  185.3230  178.0760  146.1780 C   0  0  0  0  0  3  0  0  0  0  0  0
  188.4530  177.7770  146.2290 C   0  0  0  0  0  0  0  0  0  0  0  0
  183.3770  179.1290  144.6460 C   0  0  0  0  0  1  0  0  0  0  0  0
  184.7390  179.0210  143.9680 C   0  0  2  0  0  3  0  0  0  0  0  0
  184.5880  178.1640  142.7100 C   0  0  0  0  0  2  0  0  0  0  0  0
  184.6620  179.0060  141.4830 C   0  0  0  0  0  0  0  0  0  0  0  0
  183.6210  178.9880  140.5650 O   0  0  0  0  0  0  0  0  0  0  0  0
  185.6790  179.7150  141.2660 O   0  0  0  0  0  1  0  0  0  0  0  0
  1 14  2  0  0  0  0
  1  2  1  0  0  0  0
  2 19  1  0  0  0  0
  3  7  2  0  0  0  0
  4  1  1  0  0  0  0
  5 18  1  0  0  0  0
  6  9  2  0  0  0  0
  8  9  1  6  0  0  0
  8  4  1  0  0  0  0
  8 15  1  0  0  0  0
 10 11  1  0  0  0  0
 12  2  2  0  0  0  0
 12  5  1  0  0  0  0
 13  9  1  0  0  0  0
 13 17  2  0  0  0  0
 14  3  1  0  0  0  0
 15 14  1  0  0  0  0
 16 10  1  0  0  0  0
 17  4  1  0  0  0  0
 18 16  2  0  0  0  0
 19  7  1  0  0  0  0
 19 10  2  0  0  0  0
 21 20  1  1  0  0  0
 21  5  1  0  0  0  0
 22 21  1  0  0  0  0
 23 22  1  0  0  0  0
 24 23  2  0  0  0  0
 25 23  1  0  0  0  0
M  END
>  <MODEL>
1

>  <REMARK>
 VINA RESULT:      -9.1      0.000      0.000
  Name = 
  3 active torsions:
  status: ('A' for Active; 'I' for Inactive)
    1  A    between atoms: C_2  and  C_15
    2  A    between atoms: N_6  and  C_25
    3  A    between atoms: C_15  and  C_25
                            x       y       z     vdW  Elec       q    Type
                         _______ _______ _______ _____ _____    ______ ____

>  <TORSDO>
F 3

$$$$
=
 OpenBabel11052412543D

 25 28  0  0  1  0  0  0  0  0999 V2000
  187.3920  178.0950  145.2290 C   0  0  0  0  0  0  0  0  0  0  0  0
  188.6680  177.6860  144.7780 C   0  0  0  0  0  0  0  0  0  0  0  0
  187.8360  177.2890  147.4290 C   0  0  0  0  0  3  0  0  0  0  0  0
  186.3750  178.6880  144.4270 N   0  0  0  0  0  0  0  0  0  0  0  0
  189.9980  177.2940  142.6980 N   0  0  0  0  0  0  0  0  0  0  0  0
  182.8930  178.9790  144.7180 O   0  0  0  0  0  0  0  0  0  0  0  0
  189.0830  176.9360  147.0250 N   0  0  0  0  0  0  0  0  0  0  0  0
  185.2650  179.2070  145.2120 C   0  0  1  0  0  3  0  0  0  0  0  0
  184.0960  178.7690  144.4140 C   0  0  0  0  0  0  0  0  0  0  0  0
  190.8800  176.8740  145.5640 C   0  0  0  0  0  0  0  0  0  0  0  0
  191.6890  176.2910  146.6810 C   0  0  0  0  0  1  0  0  0  0  0  0
  188.8700  177.7500  143.4540 C   0  0  0  0  0  3  0  0  0  0  0  0
  184.5350  178.0940  143.2040 C   0  0  0  0  0  3  0  0  0  0  0  0
  186.9930  177.9040  146.5250 C   0  0  0  0  0  0  0  0  0  0  0  0
  185.3120  178.4020  146.8650 S   0  0  0  0  0  0  0  0  0  0  0  0
  191.7030  177.3030  144.4280 C   0  0  0  0  0  3  0  0  0  0  0  0
  185.8600  178.0550  143.2510 C   0  0  0  0  0  3  0  0  0  0  0  0
  191.3250  177.4930  143.1760 C   0  0  0  0  0  3  0  0  0  0  0  0
  189.5640  177.1390  145.7570 C   0  0  0  0  0  0  0  0  0  0  0  0
  191.1300  177.3770  140.4920 C   0  0  0  0  0  1  0  0  0  0  0  0
  189.8190  177.1570  141.2410 C   0  0  2  0  0  3  0  0  0  0  0  0
  188.7840  178.1470  140.7070 C   0  0  0  0  0  2  0  0  0  0  0  0
  188.6960  178.0690  139.2210 C   0  0  0  0  0  0  0  0  0  0  0  0
  189.0070  179.1800  138.4480 O   0  0  0  0  0  0  0  0  0  0  0  0
  188.3150  177.0050  138.6680 O   0  0  0  0  0  1  0  0  0  0  0  0
  1 14  2  0  0  0  0
  2  1  1  0  0  0  0
  2 19  1  0  0  0  0
  4  8  1  0  0  0  0
  4  1  1  0  0  0  0
  5 18  1  0  0  0  0
  5 12  1  0  0  0  0
  7  3  2  0  0  0  0
  8  9  1  6  0  0  0
  8 15  1  0  0  0  0
  9  6  2  0  0  0  0
 10 19  2  0  0  0  0
 10 11  1  0  0  0  0
 12  2  2  0  0  0  0
 13 17  2  0  0  0  0
 13  9  1  0  0  0  0
 14 15  1  0  0  0  0
 14  3  1  0  0  0  0
 16 10  1  0  0  0  0
 17  4  1  0  0  0  0
 18 16  2  0  0  0  0
 19  7  1  0  0  0  0
 21 20  1  6  0  0  0
 21  5  1  0  0  0  0
 22 21  1  0  0  0  0
 23 22  1  0  0  0  0
 24 23  2  0  0  0  0
 25 23  1  0  0  0  0
M  END
>  <MODEL>
2

>  <REMARK>
 VINA RESULT:      -9.0      2.260      5.306
  Name = 
  3 active torsions:
  status: ('A' for Active; 'I' for Inactive)
    1  A    between atoms: C_2  and  C_15
    2  A    between atoms: N_6  and  C_25
    3  A    between atoms: C_15  and  C_25
                            x       y       z     vdW  Elec       q    Type
                         _______ _______ _______ _____ _____    ______ ____

>  <TORSDO>
F 3

$$$$
=
 OpenBabel11052412543D

 25 28  0  0  1  0  0  0  0  0999 V2000
  187.3900  177.8640  143.1980 C   0  0  0  0  0  0  0  0  0  0  0  0
  188.7510  177.5420  143.4000 C   0  0  0  0  0  0  0  0  0  0  0  0
  187.8180  178.5690  140.9610 C   0  0  0  0  0  3  0  0  0  0  0  0
  186.3570  177.7690  144.1740 N   0  0  0  0  0  0  0  0  0  0  0  0
  190.4120  177.0100  145.1910 N   0  0  0  0  0  0  0  0  0  0  0  0
  183.2070  179.2640  144.5510 O   0  0  0  0  0  0  0  0  0  0  0  0
  189.1200  178.2180  141.1220 N   0  0  0  0  0  0  0  0  0  0  0  0
  185.0260  177.9490  143.6110 C   0  0  1  0  0  3  0  0  0  0  0  0
  184.3830  178.8210  144.6220 C   0  0  0  0  0  0  0  0  0  0  0  0
  190.9120  177.2350  142.2130 C   0  0  0  0  0  0  0  0  0  0  0  0
  191.7120  177.4560  140.9670 C   0  0  0  0  0  1  0  0  0  0  0  0
  189.1040  177.2490  144.6610 C   0  0  0  0  0  3  0  0  0  0  0  0
  185.2900  179.0630  145.7310 C   0  0  0  0  0  3  0  0  0  0  0  0
  186.9390  178.3600  142.0040 C   0  0  0  0  0  0  0  0  0  0  0  0
  185.2070  178.7930  141.9870 S   0  0  0  0  0  0  0  0  0  0  0  0
  191.5770  176.3410  143.1670 C   0  0  0  0  0  3  0  0  0  0  0  0
  186.4270  178.4480  145.4320 C   0  0  0  0  0  3  0  0  0  0  0  0
  191.3610  176.2330  144.4670 C   0  0  0  0  0  3  0  0  0  0  0  0
  189.6300  177.6740  142.2730 C   0  0  0  0  0  0  0  0  0  0  0  0
  191.6740  176.1370  147.1410 C   0  0  0  0  0  1  0  0  0  0  0  0
  190.5640  177.0650  146.6560 C   0  0  2  0  0  3  0  0  0  0  0  0
  189.2670  176.6840  147.3700 C   0  0  0  0  0  2  0  0  0  0  0  0
  188.8320  177.7700  148.2940 C   0  0  0  0  0  0  0  0  0  0  0  0
  187.5010  177.8640  148.6780 O   0  0  0  0  0  0  0  0  0  0  0  0
  189.6660  178.6180  148.7050 O   0  0  0  0  0  1  0  0  0  0  0  0
  1  2  1  0  0  0  0
  1  4  1  0  0  0  0
  2 12  2  0  0  0  0
  3  7  2  0  0  0  0
  3 14  1  0  0  0  0
  4 17  1  0  0  0  0
  5 21  1  0  0  0  0
  6  9  2  0  0  0  0
  7 19  1  0  0  0  0
  8 15  1  6  0  0  0
  8  4  1  0  0  0  0
  8  9  1  0  0  0  0
  9 13  1  0  0  0  0
 10 19  2  0  0  0  0
 10 16  1  0  0  0  0
 11 10  1  0  0  0  0
 12  5  1  0  0  0  0
 14  1  2  0  0  0  0
 15 14  1  0  0  0  0
 16 18  2  0  0  0  0
 17 13  2  0  0  0  0
 18  5  1  0  0  0  0
 19  2  1  0  0  0  0
 21 20  1  1  0  0  0
 21 22  1  0  0  0  0
 22 23  1  0  0  0  0
 23 24  2  0  0  0  0
 23 25  1  0  0  0  0
M  END
>  <MODEL>
3

>  <REMARK>
 VINA RESULT:      -9.0      3.077      6.408
  Name = 
  3 active torsions:
  status: ('A' for Active; 'I' for Inactive)
    1  A    between atoms: C_2  and  C_15
    2  A    between atoms: N_6  and  C_25
    3  A    between atoms: C_15  and  C_25
                            x       y       z     vdW  Elec       q    Type
                         _______ _______ _______ _____ _____    ______ ____

>  <TORSDO>
F 3

$$$$
=
 OpenBabel11052412543D

 25 28  0  0  1  0  0  0  0  0999 V2000
  187.7940  177.6440  145.7610 C   0  0  0  0  0  0  0  0  0  0  0  0
  187.0230  177.9990  144.6310 C   0  0  0  0  0  0  0  0  0  0  0  0
  186.1990  178.6200  147.2410 C   0  0  0  0  0  3  0  0  0  0  0  0
  189.0650  177.0010  145.7360 N   0  0  0  0  0  0  0  0  0  0  0  0
  187.1420  178.2050  142.1430 N   0  0  0  0  0  0  0  0  0  0  0  0
  191.7370  176.7780  147.9950 O   0  0  0  0  0  0  0  0  0  0  0  0
  185.4220  178.9230  146.1700 N   0  0  0  0  0  0  0  0  0  0  0  0
  189.5040  176.5610  147.0520 C   0  0  1  0  0  3  0  0  0  0  0  0
  190.9350  176.9480  147.0400 C   0  0  0  0  0  0  0  0  0  0  0  0
  184.7910  178.8440  143.9410 C   0  0  0  0  0  0  0  0  0  0  0  0
  183.5100  179.5050  144.3440 C   0  0  0  0  0  1  0  0  0  0  0  0
  187.6150  177.8250  143.4400 C   0  0  0  0  0  3  0  0  0  0  0  0
  191.2940  177.5170  145.7520 C   0  0  0  0  0  3  0  0  0  0  0  0
  187.3840  177.9450  147.0330 C   0  0  0  0  0  0  0  0  0  0  0  0
  188.5470  177.4970  148.3120 S   0  0  0  0  0  0  0  0  0  0  0  0
  184.7540  178.3140  142.5740 C   0  0  0  0  0  3  0  0  0  0  0  0
  190.1840  177.5430  145.0270 C   0  0  0  0  0  3  0  0  0  0  0  0
  185.7750  178.0270  141.7840 C   0  0  0  0  0  3  0  0  0  0  0  0
  185.7490  178.6120  144.8740 C   0  0  0  0  0  0  0  0  0  0  0  0
  187.4490  178.2530  139.6810 C   0  0  0  0  0  1  0  0  0  0  0  0
  188.1280  178.2250  141.0470 C   0  0  2  0  0  3  0  0  0  0  0  0
  189.0550  177.0100  141.1030 C   0  0  0  0  0  2  0  0  0  0  0  0
  190.4590  177.4010  140.7890 C   0  0  0  0  0  0  0  0  0  0  0  0
  190.8730  177.5030  139.4680 O   0  0  0  0  0  0  0  0  0  0  0  0
  191.2760  177.6140  141.7220 O   0  0  0  0  0  1  0  0  0  0  0  0
  1 14  2  0  0  0  0
  2 19  1  0  0  0  0
  2  1  1  0  0  0  0
  4  1  1  0  0  0  0
  4  8  1  0  0  0  0
  5 12  1  0  0  0  0
  7  3  2  0  0  0  0
  8  9  1  1  0  0  0
  8 15  1  0  0  0  0
  9  6  2  0  0  0  0
 10 11  1  0  0  0  0
 10 19  2  0  0  0  0
 12  2  2  0  0  0  0
 13  9  1  0  0  0  0
 14  3  1  0  0  0  0
 14 15  1  0  0  0  0
 16 10  1  0  0  0  0
 17  4  1  0  0  0  0
 17 13  2  0  0  0  0
 18  5  1  0  0  0  0
 18 16  2  0  0  0  0
 19  7  1  0  0  0  0
 21 20  1  6  0  0  0
 21 22  1  0  0  0  0
 21  5  1  0  0  0  0
 23 22  1  0  0  0  0
 23 25  1  0  0  0  0
 24 23  2  0  0  0  0
M  END
>  <MODEL>
4

>  <REMARK>
 VINA RESULT:      -8.6      2.497      5.037
  Name = 
  3 active torsions:
  status: ('A' for Active; 'I' for Inactive)
    1  A    between atoms: C_2  and  C_15
    2  A    between atoms: N_6  and  C_25
    3  A    between atoms: C_15  and  C_25
                            x       y       z     vdW  Elec       q    Type
                         _______ _______ _______ _____ _____    ______ ____

>  <TORSDO>
F 3

$$$$
=
 OpenBabel11052412543D

 25 28  0  0  1  0  0  0  0  0999 V2000
  187.3920  177.7560  145.2250 C   0  0  0  0  0  0  0  0  0  0  0  0
  186.3990  178.1190  144.2880 C   0  0  0  0  0  0  0  0  0  0  0  0
  186.0170  178.4400  147.0490 C   0  0  0  0  0  3  0  0  0  0  0  0
  188.6870  177.2510  144.9140 N   0  0  0  0  0  0  0  0  0  0  0  0
  186.0400  178.5350  141.8490 N   0  0  0  0  0  0  0  0  0  0  0  0
  191.7390  177.1240  146.6380 O   0  0  0  0  0  0  0  0  0  0  0  0
  185.0340  178.7470  146.1660 N   0  0  0  0  0  0  0  0  0  0  0  0
  189.3980  176.7550  146.0840 C   0  0  1  0  0  3  0  0  0  0  0  0
  190.7630  177.2870  145.8600 C   0  0  0  0  0  0  0  0  0  0  0  0
  184.0130  178.7820  144.0850 C   0  0  0  0  0  0  0  0  0  0  0  0
  182.7760  179.2730  144.7690 C   0  0  0  0  0  1  0  0  0  0  0  0
  186.7740  178.1030  143.0000 C   0  0  0  0  0  3  0  0  0  0  0  0
  190.8280  177.9920  144.5910 C   0  0  0  0  0  3  0  0  0  0  0  0
  187.1990  177.9100  146.5720 C   0  0  0  0  0  0  0  0  0  0  0  0
  188.6110  177.4830  147.5780 S   0  0  0  0  0  0  0  0  0  0  0  0
  183.7720  178.3630  142.7010 C   0  0  0  0  0  3  0  0  0  0  0  0
  189.6060  177.9610  144.0770 C   0  0  0  0  0  3  0  0  0  0  0  0
  184.6510  178.2470  141.7200 C   0  0  0  0  0  3  0  0  0  0  0  0
  185.1420  178.5760  144.8090 C   0  0  0  0  0  0  0  0  0  0  0  0
  186.0110  178.2980  139.3790 C   0  0  0  0  0  1  0  0  0  0  0  0
  186.8020  178.7450  140.6050 C   0  0  2  0  0  3  0  0  0  0  0  0
  188.1310  177.9890  140.6260 C   0  0  0  0  0  2  0  0  0  0  0  0
  188.7950  178.0490  139.2940 C   0  0  0  0  0  0  0  0  0  0  0  0
  189.1560  176.8750  138.6440 O   0  0  0  0  0  0  0  0  0  0  0  0
  189.0530  179.1630  138.7680 O   0  0  0  0  0  1  0  0  0  0  0  0
  1 14  2  0  0  0  0
  2 19  1  0  0  0  0
  2  1  1  0  0  0  0
  4  1  1  0  0  0  0
  4  8  1  0  0  0  0
  5 12  1  0  0  0  0
  7  3  2  0  0  0  0
  8  9  1  6  0  0  0
  8 15  1  0  0  0  0
  9  6  2  0  0  0  0
 10 11  1  0  0  0  0
 10 19  2  0  0  0  0
 12  2  2  0  0  0  0
 13  9  1  0  0  0  0
 14  3  1  0  0  0  0
 14 15  1  0  0  0  0
 16 10  1  0  0  0  0
 17 13  2  0  0  0  0
 17  4  1  0  0  0  0
 18  5  1  0  0  0  0
 18 16  2  0  0  0  0
 19  7  1  0  0  0  0
 21 20  1  6  0  0  0
 21 22  1  0  0  0  0
 21  5  1  0  0  0  0
 23 22  1  0  0  0  0
 24 23  2  0  0  0  0
 25 23  1  0  0  0  0
M  END
>  <MODEL>
5

>  <REMARK>
 VINA RESULT:      -8.5      2.319      4.526
  Name = 
  3 active torsions:
  status: ('A' for Active; 'I' for Inactive)
    1  A    between atoms: C_2  and  C_15
    2  A    between atoms: N_6  and  C_25
    3  A    between atoms: C_15  and  C_25
                            x       y       z     vdW  Elec       q    Type
                         _______ _______ _______ _____ _____    ______ ____

>  <TORSDO>
F 3

$$$$
=
 OpenBabel11052412543D

 25 28  0  0  1  0  0  0  0  0999 V2000
  189.6410  177.2200  141.7620 C   0  0  0  0  0  0  0  0  0  0  0  0
  188.8530  177.3990  142.9210 C   0  0  0  0  0  0  0  0  0  0  0  0
  191.6570  177.4780  143.0100 C   0  0  0  0  0  3  0  0  0  0  0  0
  189.1480  177.0380  140.4390 N   0  0  0  0  0  0  0  0  0  0  0  0
  186.5110  177.8530  143.6690 N   0  0  0  0  0  0  0  0  0  0  0  0
  190.5030  177.5120  137.2390 O   0  0  0  0  0  0  0  0  0  0  0  0
  190.9170  177.6020  144.1410 N   0  0  0  0  0  0  0  0  0  0  0  0
  190.1870  176.6530  139.4940 C   0  0  1  0  0  3  0  0  0  0  0  0
  189.8550  177.4910  138.3170 C   0  0  0  0  0  0  0  0  0  0  0  0
  188.9730  177.5160  145.4000 C   0  0  0  0  0  0  0  0  0  0  0  0
  189.8290  177.6780  146.6180 C   0  0  0  0  0  1  0  0  0  0  0  0
  187.5350  177.5370  142.7190 C   0  0  0  0  0  3  0  0  0  0  0  0
  188.6470  178.2590  138.5690 C   0  0  0  0  0  3  0  0  0  0  0  0
  191.0090  177.2540  141.8120 C   0  0  0  0  0  0  0  0  0  0  0  0
  191.8130  177.1040  140.2240 S   0  0  0  0  0  0  0  0  0  0  0  0
  187.5950  177.1280  145.7190 C   0  0  0  0  0  3  0  0  0  0  0  0
  188.2720  177.9800  139.8100 C   0  0  0  0  0  3  0  0  0  0  0  0
  186.5170  177.2660  144.9680 C   0  0  0  0  0  3  0  0  0  0  0  0
  189.5470  177.5320  144.1710 C   0  0  0  0  0  0  0  0  0  0  0  0
  185.3200  178.7210  141.6740 C   0  0  0  0  0  1  0  0  0  0  0  0
  185.2110  178.2960  143.1350 C   0  0  2  0  0  3  0  0  0  0  0  0
  184.6430  179.4660  143.9400 C   0  0  0  0  0  2  0  0  0  0  0  0
  183.5730  179.0000  144.8660 C   0  0  0  0  0  0  0  0  0  0  0  0
  182.3190  178.6660  144.3690 O   0  0  0  0  0  0  0  0  0  0  0  0
  183.7960  178.9340  146.1030 O   0  0  0  0  0  1  0  0  0  0  0  0
  1 14  2  0  0  0  0
  1  2  1  0  0  0  0
  2 19  1  0  0  0  0
  3  7  2  0  0  0  0
  4  1  1  0  0  0  0
  5 18  1  0  0  0  0
  6  9  2  0  0  0  0
  7 19  1  0  0  0  0
  8  9  1  6  0  0  0
  8 15  1  0  0  0  0
  8  4  1  0  0  0  0
  9 13  1  0  0  0  0
 10 16  1  0  0  0  0
 10 11  1  0  0  0  0
 12  2  2  0  0  0  0
 12  5  1  0  0  0  0
 13 17  2  0  0  0  0
 14  3  1  0  0  0  0
 15 14  1  0  0  0  0
 17  4  1  0  0  0  0
 18 16  2  0  0  0  0
 19 10  2  0  0  0  0
 21 20  1  6  0  0  0
 21  5  1  0  0  0  0
 21 22  1  0  0  0  0
 22 23  1  0  0  0  0
 23 25  1  0  0  0  0
 24 23  2  0  0  0  0
M  END
>  <MODEL>
6

>  <REMARK>
 VINA RESULT:      -8.5      2.049      2.688
  Name = 
  3 active torsions:
  status: ('A' for Active; 'I' for Inactive)
    1  A    between atoms: C_2  and  C_15
    2  A    between atoms: N_6  and  C_25
    3  A    between atoms: C_15  and  C_25
                            x       y       z     vdW  Elec       q    Type
                         _______ _______ _______ _____ _____    ______ ____

>  <TORSDO>
F 3

$$$$
=
 OpenBabel11052412543D

 25 28  0  0  1  0  0  0  0  0999 V2000
  189.5080  177.1900  142.9860 C   0  0  0  0  0  0  0  0  0  0  0  0
  189.1490  177.3300  144.3450 C   0  0  0  0  0  0  0  0  0  0  0  0
  191.8230  177.0470  143.5430 C   0  0  0  0  0  3  0  0  0  0  0  0
  188.6140  177.2260  141.8780 N   0  0  0  0  0  0  0  0  0  0  0  0
  187.2460  177.9840  145.8290 N   0  0  0  0  0  0  0  0  0  0  0  0
  188.9870  177.8940  138.4560 O   0  0  0  0  0  0  0  0  0  0  0  0
  191.4900  177.1300  144.8560 N   0  0  0  0  0  0  0  0  0  0  0  0
  189.2430  176.8270  140.6270 C   0  0  1  0  0  3  0  0  0  0  0  0
  188.7020  177.8300  139.6800 C   0  0  0  0  0  0  0  0  0  0  0  0
  190.0340  177.1430  146.6590 C   0  0  0  0  0  0  0  0  0  0  0  0
  191.2340  177.0540  147.5500 C   0  0  0  0  0  1  0  0  0  0  0  0
  187.8690  177.6550  144.5830 C   0  0  0  0  0  3  0  0  0  0  0  0
  187.7630  178.7080  140.3570 C   0  0  0  0  0  3  0  0  0  0  0  0
  190.8150  177.0470  142.6000 C   0  0  0  0  0  0  0  0  0  0  0  0
  191.0630  176.9820  140.8330 S   0  0  0  0  0  0  0  0  0  0  0  0
  188.7760  176.8960  147.3700 C   0  0  0  0  0  3  0  0  0  0  0  0
  187.7460  178.3370  141.6300 C   0  0  0  0  0  3  0  0  0  0  0  0
  187.5550  177.2540  147.0130 C   0  0  0  0  0  3  0  0  0  0  0  0
  190.2010  177.2290  145.3150 C   0  0  0  0  0  0  0  0  0  0  0  0
  185.0850  178.3250  146.9990 C   0  0  0  0  0  1  0  0  0  0  0  0
  185.9300  178.6450  145.7690 C   0  0  2  0  0  3  0  0  0  0  0  0
  185.1480  178.2280  144.5230 C   0  0  0  0  0  2  0  0  0  0  0  0
  183.9740  179.1210  144.3120 C   0  0  0  0  0  0  0  0  0  0  0  0
  182.6860  178.6130  144.4290 O   0  0  0  0  0  1  0  0  0  0  0  0
  184.1470  180.3280  144.0030 O   0  0  0  0  0  0  0  0  0  0  0  0
  1  2  1  0  0  0  0
  2 12  2  0  0  0  0
  2 19  1  0  0  0  0
  3  7  2  0  0  0  0
  4  1  1  0  0  0  0
  5 18  1  0  0  0  0
  6  9  2  0  0  0  0
  7 19  1  0  0  0  0
  8  9  1  6  0  0  0
  8 15  1  0  0  0  0
  8  4  1  0  0  0  0
  9 13  1  0  0  0  0
 10 16  1  0  0  0  0
 10 11  1  0  0  0  0
 12  5  1  0  0  0  0
 13 17  2  0  0  0  0
 14  1  2  0  0  0  0
 14  3  1  0  0  0  0
 15 14  1  0  0  0  0
 17  4  1  0  0  0  0
 18 16  2  0  0  0  0
 19 10  2  0  0  0  0
 21  5  1  0  0  0  0
 21 20  1  1  0  0  0
 22 21  1  0  0  0  0
 23 24  1  0  0  0  0
 23 22  1  0  0  0  0
 25 23  2  0  0  0  0
M  END
>  <MODEL>
7

>  <REMARK>
 VINA RESULT:      -8.5      1.754      2.351
  Name = 
  3 active torsions:
  status: ('A' for Active; 'I' for Inactive)
    1  A    between atoms: C_2  and  C_15
    2  A    between atoms: N_6  and  C_25
    3  A    between atoms: C_15  and  C_25
                            x       y       z     vdW  Elec       q    Type
                         _______ _______ _______ _____ _____    ______ ____

>  <TORSDO>
F 3

$$$$
=
 OpenBabel11052412543D

 25 28  0  0  1  0  0  0  0  0999 V2000
  187.2600  178.3360  141.7600 C   0  0  0  0  0  0  0  0  0  0  0  0
  186.8380  178.2700  143.1070 C   0  0  0  0  0  0  0  0  0  0  0  0
  185.0060  178.4300  140.9870 C   0  0  0  0  0  3  0  0  0  0  0  0
  188.6090  178.2760  141.3060 N   0  0  0  0  0  0  0  0  0  0  0  0
  187.6530  177.7480  145.4120 N   0  0  0  0  0  0  0  0  0  0  0  0
  190.1250  177.4380  138.2570 O   0  0  0  0  0  0  0  0  0  0  0  0
  184.5850  178.4190  142.2770 N   0  0  0  0  0  0  0  0  0  0  0  0
  188.7450  178.5970  139.8920 C   0  0  1  0  0  3  0  0  0  0  0  0
  189.7110  177.5680  139.4380 C   0  0  0  0  0  0  0  0  0  0  0  0
  184.8520  178.5360  144.5760 C   0  0  0  0  0  0  0  0  0  0  0  0
  183.3610  178.6280  144.6820 C   0  0  0  0  0  1  0  0  0  0  0  0
  187.7930  177.9980  144.0090 C   0  0  0  0  0  3  0  0  0  0  0  0
  190.1450  176.7530  140.5600 C   0  0  0  0  0  3  0  0  0  0  0  0
  186.3620  178.4180  140.7300 C   0  0  0  0  0  0  0  0  0  0  0  0
  187.0970  178.3920  139.1020 S   0  0  0  0  0  0  0  0  0  0  0  0
  185.5340  178.8570  145.8340 C   0  0  0  0  0  3  0  0  0  0  0  0
  189.4770  177.1840  141.6220 C   0  0  0  0  0  3  0  0  0  0  0  0
  186.7570  178.5220  146.2050 C   0  0  0  0  0  3  0  0  0  0  0  0
  185.4290  178.3820  143.3590 C   0  0  0  0  0  0  0  0  0  0  0  0
  188.6140  177.1350  147.6160 C   0  0  0  0  0  1  0  0  0  0  0  0
  188.7990  177.1280  146.1020 C   0  0  2  0  0  3  0  0  0  0  0  0
  190.1090  177.8430  145.7700 C   0  0  0  0  0  2  0  0  0  0  0  0
  191.2260  176.8660  145.6360 C   0  0  0  0  0  0  0  0  0  0  0  0
  192.0550  176.6060  146.7200 O   0  0  0  0  0  1  0  0  0  0  0  0
  191.4360  176.2960  144.5340 O   0  0  0  0  0  0  0  0  0  0  0  0
  1  2  1  0  0  0  0
  2 19  1  0  0  0  0
  2 12  2  0  0  0  0
  3  7  2  0  0  0  0
  4 17  1  0  0  0  0
  4  1  1  0  0  0  0
  5 21  1  0  0  0  0
  5 18  1  0  0  0  0
  6  9  2  0  0  0  0
  7 19  1  0  0  0  0
  8 15  1  6  0  0  0
  8  4  1  0  0  0  0
  9  8  1  0  0  0  0
  9 13  1  0  0  0  0
 10 11  1  0  0  0  0
 10 16  1  0  0  0  0
 12  5  1  0  0  0  0
 13 17  2  0  0  0  0
 14  3  1  0  0  0  0
 14  1  2  0  0  0  0
 15 14  1  0  0  0  0
 16 18  2  0  0  0  0
 19 10  2  0  0  0  0
 21 20  1  1  0  0  0
 22 21  1  0  0  0  0
 23 22  1  0  0  0  0
 23 24  1  0  0  0  0
 25 23  2  0  0  0  0
M  END
>  <MODEL>
8

>  <REMARK>
 VINA RESULT:      -8.3      2.557      5.048
  Name = 
  3 active torsions:
  status: ('A' for Active; 'I' for Inactive)
    1  A    between atoms: C_2  and  C_15
    2  A    between atoms: N_6  and  C_25
    3  A    between atoms: C_15  and  C_25
                            x       y       z     vdW  Elec       q    Type
                         _______ _______ _______ _____ _____    ______ ____

>  <TORSDO>
F 3

$$$$
=
 OpenBabel11052412543D

 25 28  0  0  1  0  0  0  0  0999 V2000
  187.0610  177.8870  142.8740 C   0  0  0  0  0  0  0  0  0  0  0  0
  188.4020  177.5030  143.1000 C   0  0  0  0  0  0  0  0  0  0  0  0
  187.5830  178.6640  140.6800 C   0  0  0  0  0  3  0  0  0  0  0  0
  185.9970  177.7960  143.8160 N   0  0  0  0  0  0  0  0  0  0  0  0
  189.9870  176.8320  144.9130 N   0  0  0  0  0  0  0  0  0  0  0  0
  182.8990  179.4010  144.1660 O   0  0  0  0  0  0  0  0  0  0  0  0
  188.8640  178.2540  140.8630 N   0  0  0  0  0  0  0  0  0  0  0  0
  184.6920  178.0530  143.2230 C   0  0  1  0  0  3  0  0  0  0  0  0
  184.0540  178.9090  144.2510 C   0  0  0  0  0  0  0  0  0  0  0  0
  190.5830  177.1550  141.9620 C   0  0  0  0  0  0  0  0  0  0  0  0
  191.4280  177.3930  140.7500 C   0  0  0  0  0  1  0  0  0  0  0  0
  188.7050  177.1460  144.3570 C   0  0  0  0  0  3  0  0  0  0  0  0
  184.9360  179.0690  145.3950 C   0  0  0  0  0  3  0  0  0  0  0  0
  186.6660  178.4490  141.6890 C   0  0  0  0  0  0  0  0  0  0  0  0
  184.9530  178.9520  141.6410 S   0  0  0  0  0  0  0  0  0  0  0  0
  191.1830  176.1980  142.8970 C   0  0  0  0  0  3  0  0  0  0  0  0
  186.0560  178.4210  145.1020 C   0  0  0  0  0  3  0  0  0  0  0  0
  190.9260  176.0470  144.1850 C   0  0  0  0  0  3  0  0  0  0  0  0
  189.3180  177.6440  142.0050 C   0  0  0  0  0  0  0  0  0  0  0  0
  189.1470  177.8290  147.0240 C   0  0  0  0  0  1  0  0  0  0  0  0
  190.0980  176.8230  146.3830 C   0  0  2  0  0  3  0  0  0  0  0  0
  191.5210  177.1410  146.8410 C   0  0  0  0  0  2  0  0  0  0  0  0
  192.0580  176.0480  147.7000 C   0  0  0  0  0  0  0  0  0  0  0  0
  193.0810  176.3110  148.6020 O   0  0  0  0  0  1  0  0  0  0  0  0
  191.6020  174.8800  147.5900 O   0  0  0  0  0  0  0  0  0  0  0  0
  1  2  1  0  0  0  0
  1  4  1  0  0  0  0
  2 12  2  0  0  0  0
  3  7  2  0  0  0  0
  3 14  1  0  0  0  0
  4 17  1  0  0  0  0
  5 21  1  0  0  0  0
  6  9  2  0  0  0  0
  7 19  1  0  0  0  0
  8 15  1  6  0  0  0
  8  4  1  0  0  0  0
  8  9  1  0  0  0  0
  9 13  1  0  0  0  0
 10 19  2  0  0  0  0
 10 16  1  0  0  0  0
 11 10  1  0  0  0  0
 12  5  1  0  0  0  0
 14  1  2  0  0  0  0
 15 14  1  0  0  0  0
 16 18  2  0  0  0  0
 17 13  2  0  0  0  0
 18  5  1  0  0  0  0
 19  2  1  0  0  0  0
 21 22  1  0  0  0  0
 21 20  1  1  0  0  0
 22 23  1  0  0  0  0
 23 24  1  0  0  0  0
 25 23  2  0  0  0  0
M  END
>  <MODEL>
9

>  <REMARK>
 VINA RESULT:      -8.2      3.168      6.810
  Name = 
  3 active torsions:
  status: ('A' for Active; 'I' for Inactive)
    1  A    between atoms: C_2  and  C_15
    2  A    between atoms: N_6  and  C_25
    3  A    between atoms: C_15  and  C_25
                            x       y       z     vdW  Elec       q    Type
                         _______ _______ _______ _____ _____    ______ ____

>  <TORSDO>
F 3

$$$$
