=
 OpenBabel11052412363D

 30 33  0  0  1  0  0  0  0  0999 V2000
  183.3110  177.7610  137.3610 C   0  0  2  0  0  3  0  0  0  0  0  0
  180.0680  179.4130  137.3430 C   0  0  0  0  0  2  0  0  0  0  0  0
  183.3030  178.5270  140.5420 C   0  0  0  0  0  2  0  0  0  0  0  0
  184.3260  177.0130  138.2600 C   0  0  1  0  0  3  0  0  0  0  0  0
  187.6630  176.5570  134.5940 C   0  0  0  0  0  2  0  0  0  0  0  0
  186.2390  178.6690  137.9710 C   0  0  0  0  0  2  0  0  0  0  0  0
  185.4240  179.5420  140.7760 O   0  0  0  0  0  1  0  0  0  0  0  0
  185.2260  175.9370  137.6260 C   0  0  2  0  0  3  0  0  0  0  0  0
  179.2090  179.4270  138.6040 C   0  0  0  0  0  2  0  0  0  0  0  0
  186.8030  177.7220  136.9410 C   0  0  0  0  0  0  0  0  0  0  0  0
  188.5770  177.2970  135.3600 O   0  0  0  0  0  0  0  0  0  0  0  0
  181.5470  179.5840  137.6540 C   0  0  0  0  0  2  0  0  0  0  0  0
  182.0790  178.0880  139.7040 C   0  0  2  0  0  3  0  0  0  0  0  0
  179.5100  178.2570  139.5440 C   0  0  0  0  0  2  0  0  0  0  0  0
  182.1020  178.2630  138.1630 C   0  0  2  0  0  3  0  0  0  0  0  0
  184.1430  180.1820  139.0280 O   0  0  0  0  0  1  0  0  0  0  0  0
  184.5270  179.0890  139.8100 C   0  0  0  0  0  0  0  0  0  0  0  0
  185.2490  178.0220  138.9580 C   0  0  1  0  0  3  0  0  0  0  0  0
  187.8260  178.1930  136.0570 N   0  0  0  0  0  2  0  0  0  0  0  0
  186.8090  175.6950  135.5350 C   0  0  0  0  0  2  0  0  0  0  0  0
  180.7630  178.4940  140.3920 C   0  0  2  0  0  3  0  0  0  0  0  0
  180.8110  179.8140  140.8570 O   0  0  0  0  0  1  0  0  0  0  0  0
  186.2570  176.5160  136.6830 C   0  0  0  0  0  0  0  0  0  0  0  0
  184.4700  174.7500  137.1140 C   0  0  0  0  0  3  0  0  0  0  0  0
  184.6090  173.5560  137.6730 C   0  0  0  0  0  3  0  0  0  0  0  0
  183.8790  172.4360  137.1520 C   0  0  0  0  0  0  0  0  0  0  0  0
  183.2650  171.4960  136.7140 C   0  0  0  0  0  3  0  0  0  0  0  0
  182.7900  176.9630  136.1720 C   0  0  0  0  0  2  0  0  0  0  0  0
  181.2690  175.1130  135.5620 C   0  0  0  0  0  1  0  0  0  0  0  0
  181.5140  176.2360  136.5490 C   0  0  0  0  0  2  0  0  0  0  0  0
  1 28  1  6  0  0  0
  1 15  1  0  0  0  0
  1  4  1  0  0  0  0
  2 12  1  0  0  0  0
  2  9  1  0  0  0  0
  4 18  1  0  0  0  0
  5 11  1  0  0  0  0
  5 20  1  0  0  0  0
  6 18  1  0  0  0  0
  8  4  1  0  0  0  0
  9 14  1  0  0  0  0
 10  6  1  0  0  0  0
 11 19  1  0  0  0  0
 12 15  1  0  0  0  0
 13 21  1  0  0  0  0
 13  3  1  0  0  0  0
 14 21  1  0  0  0  0
 15 13  1  0  0  0  0
 16 17  1  0  0  0  0
 17  3  1  0  0  0  0
 17  7  1  0  0  0  0
 18 17  1  0  0  0  0
 19 10  1  0  0  0  0
 20 23  1  0  0  0  0
 21 22  1  0  0  0  0
 23 10  2  0  0  0  0
 23  8  1  0  0  0  0
 24  8  1  0  0  0  0
 24 25  2  0  0  0  0
 26 25  1  0  0  0  0
 27 26  3  0  0  0  0
 28 30  1  0  0  0  0
 29 30  1  0  0  0  0
M  END
>  <MODEL>
1

>  <REMARK>
 VINA RESULT:      -5.3      0.000      0.000
  Name = 
  4 active torsions:
  status: ('A' for Active; 'I' for Inactive)
    1  A    between atoms: C_1  and  C_5
    2  A    between atoms: C_5  and  C_12
    3  A    between atoms: C_6  and  C_13
    4  A    between atoms: C_9  and  C_21
                            x       y       z     vdW  Elec       q    Type
                         _______ _______ _______ _____ _____    ______ ____

>  <TORSDO>
F 4

$$$$
=
 OpenBabel11052412363D

 30 33  0  0  1  0  0  0  0  0999 V2000
  183.4740  178.6280  142.4060 C   0  0  2  0  0  3  0  0  0  0  0  0
  184.5600  179.2860  145.8170 C   0  0  0  0  0  2  0  0  0  0  0  0
  186.5950  177.7610  141.9410 C   0  0  0  0  0  2  0  0  0  0  0  0
  183.7850  177.8010  141.1340 C   0  0  1  0  0  3  0  0  0  0  0  0
  180.1290  179.9320  138.5120 C   0  0  0  0  0  2  0  0  0  0  0  0
  184.2150  179.7870  139.6000 C   0  0  0  0  0  2  0  0  0  0  0  0
  187.1330  179.0030  140.0040 O   0  0  0  0  0  1  0  0  0  0  0  0
  182.6230  177.3980  140.2080 C   0  0  2  0  0  3  0  0  0  0  0  0
  185.7210  178.4980  146.4160 C   0  0  0  0  0  2  0  0  0  0  0  0
  182.8050  179.6050  139.0940 C   0  0  0  0  0  0  0  0  0  0  0  0
  181.0860  180.4080  137.6020 O   0  0  0  0  0  0  0  0  0  0  0  0
  184.7910  179.6250  144.3530 C   0  0  0  0  0  2  0  0  0  0  0  0
  185.7540  177.5050  143.2140 C   0  0  2  0  0  3  0  0  0  0  0  0
  185.9130  177.1280  145.7620 C   0  0  0  0  0  2  0  0  0  0  0  0
  184.5160  178.3910  143.5090 C   0  0  2  0  0  3  0  0  0  0  0  0
  186.0590  180.0810  141.6760 O   0  0  0  0  0  1  0  0  0  0  0  0
  186.1480  178.8710  140.9820 C   0  0  0  0  0  0  0  0  0  0  0  0
  184.8180  178.5380  140.2710 C   0  0  1  0  0  3  0  0  0  0  0  0
  182.1990  180.6610  138.3430 N   0  0  0  0  0  2  0  0  0  0  0  0
  180.5740  178.5560  139.0260 C   0  0  0  0  0  2  0  0  0  0  0  0
  186.6590  177.2160  144.4260 C   0  0  2  0  0  3  0  0  0  0  0  0
  187.7200  178.1260  144.5040 O   0  0  0  0  0  1  0  0  0  0  0  0
  182.0200  178.5770  139.4780 C   0  0  0  0  0  0  0  0  0  0  0  0
  181.6470  176.4600  140.8470 C   0  0  0  0  0  3  0  0  0  0  0  0
  180.9930  175.5580  140.1280 C   0  0  0  0  0  3  0  0  0  0  0  0
  180.0550  174.6800  140.7680 C   0  0  0  0  0  0  0  0  0  0  0  0
  179.2680  173.9430  141.3060 C   0  0  0  0  0  3  0  0  0  0  0  0
  182.0920  178.3950  143.0060 C   0  0  0  0  0  2  0  0  0  0  0  0
  179.7940  179.2220  142.6300 C   0  0  0  0  0  1  0  0  0  0  0  0
  181.2350  179.6350  142.8430 C   0  0  0  0  0  2  0  0  0  0  0  0
  1 28  1  1  0  0  0
  1 15  1  0  0  0  0
  2  9  1  0  0  0  0
  3 13  1  0  0  0  0
  4  1  1  0  0  0  0
  5 20  1  0  0  0  0
  6 18  1  0  0  0  0
  7 17  1  0  0  0  0
  8 24  1  0  0  0  0
  8  4  1  0  0  0  0
 10 23  2  0  0  0  0
 10  6  1  0  0  0  0
 11 19  1  0  0  0  0
 11  5  1  0  0  0  0
 12  2  1  0  0  0  0
 13 15  1  0  0  0  0
 13 21  1  0  0  0  0
 14  9  1  0  0  0  0
 15 12  1  0  0  0  0
 17 16  1  0  0  0  0
 17  3  1  0  0  0  0
 18 17  1  0  0  0  0
 18  4  1  0  0  0  0
 19 10  1  0  0  0  0
 20 23  1  0  0  0  0
 21 22  1  0  0  0  0
 21 14  1  0  0  0  0
 23  8  1  0  0  0  0
 25 26  1  0  0  0  0
 25 24  2  0  0  0  0
 26 27  3  0  0  0  0
 29 30  1  0  0  0  0
 30 28  1  0  0  0  0
M  END
>  <MODEL>
2

>  <REMARK>
 VINA RESULT:      -5.2      3.682      6.342
  Name = 
  4 active torsions:
  status: ('A' for Active; 'I' for Inactive)
    1  A    between atoms: C_1  and  C_5
    2  A    between atoms: C_5  and  C_12
    3  A    between atoms: C_6  and  C_13
    4  A    between atoms: C_9  and  C_21
                            x       y       z     vdW  Elec       q    Type
                         _______ _______ _______ _____ _____    ______ ____

>  <TORSDO>
F 4

$$$$
=
 OpenBabel11052412363D

 30 33  0  0  1  0  0  0  0  0999 V2000
  182.6760  177.5180  138.1170 C   0  0  2  0  0  3  0  0  0  0  0  0
  180.7900  179.7700  140.2660 C   0  0  0  0  0  2  0  0  0  0  0  0
  180.8900  178.8560  135.7230 C   0  0  0  0  0  2  0  0  0  0  0  0
  183.1820  177.3070  136.6690 C   0  0  1  0  0  3  0  0  0  0  0  0
  185.1950  172.8770  137.7200 C   0  0  0  0  0  2  0  0  0  0  0  0
  181.9330  175.1290  136.2440 C   0  0  0  0  0  2  0  0  0  0  0  0
  180.0880  176.9290  134.6160 O   0  0  0  0  0  1  0  0  0  0  0  0
  184.4980  176.5390  136.4470 C   0  0  2  0  0  3  0  0  0  0  0  0
  180.2620  181.0910  139.7160 C   0  0  0  0  0  2  0  0  0  0  0  0
  183.2250  174.4150  136.5550 C   0  0  0  0  0  0  0  0  0  0  0  0
  184.3420  172.2870  136.7740 O   0  0  0  0  0  0  0  0  0  0  0  0
  180.6830  178.6420  139.2520 C   0  0  0  0  0  2  0  0  0  0  0  0
  181.4520  179.5890  136.9640 C   0  0  2  0  0  3  0  0  0  0  0  0
  181.0740  181.6080  138.5260 C   0  0  0  0  0  2  0  0  0  0  0  0
  181.8080  178.7790  138.2380 C   0  0  2  0  0  3  0  0  0  0  0  0
  179.9390  176.9810  136.8710 O   0  0  0  0  0  1  0  0  0  0  0  0
  180.7400  177.3320  135.7800 C   0  0  0  0  0  0  0  0  0  0  0  0
  182.1020  176.6050  135.8340 C   0  0  1  0  0  3  0  0  0  0  0  0
  183.1900  173.0100  136.8220 N   0  0  0  0  0  2  0  0  0  0  0  0
  185.5950  174.2740  137.2250 C   0  0  0  0  0  2  0  0  0  0  0  0
  180.7000  180.9100  137.2140 C   0  0  2  0  0  3  0  0  0  0  0  0
  179.3140  180.7400  137.1140 O   0  0  0  0  0  1  0  0  0  0  0  0
  184.3820  175.0690  136.7830 C   0  0  0  0  0  0  0  0  0  0  0  0
  185.7000  177.2400  137.0000 C   0  0  0  0  0  3  0  0  0  0  0  0
  186.6100  177.7760  136.1990 C   0  0  0  0  0  3  0  0  0  0  0  0
  187.7570  178.4320  136.7600 C   0  0  0  0  0  0  0  0  0  0  0  0
  188.7190  178.9830  137.2310 C   0  0  0  0  0  3  0  0  0  0  0  0
  183.7660  177.5930  139.1780 C   0  0  0  0  0  2  0  0  0  0  0  0
  185.1170  179.1110  140.5850 C   0  0  0  0  0  1  0  0  0  0  0  0
  184.2050  179.0300  139.3780 C   0  0  0  0  0  2  0  0  0  0  0  0
  1 15  1  0  0  0  0
  1 28  1  1  0  0  0
  3 17  1  0  0  0  0
  3 13  1  0  0  0  0
  4  1  1  0  0  0  0
  6 10  1  0  0  0  0
  7 17  1  0  0  0  0
  8  4  1  0  0  0  0
  8 23  1  0  0  0  0
  8 24  1  0  0  0  0
  9  2  1  0  0  0  0
 10 23  2  0  0  0  0
 10 19  1  0  0  0  0
 11 19  1  0  0  0  0
 11  5  1  0  0  0  0
 12  2  1  0  0  0  0
 13 21  1  0  0  0  0
 13 15  1  0  0  0  0
 14  9  1  0  0  0  0
 15 12  1  0  0  0  0
 17 18  1  0  0  0  0
 17 16  1  0  0  0  0
 18  6  1  0  0  0  0
 18  4  1  0  0  0  0
 20  5  1  0  0  0  0
 21 14  1  0  0  0  0
 22 21  1  0  0  0  0
 23 20  1  0  0  0  0
 25 26  1  0  0  0  0
 25 24  2  0  0  0  0
 26 27  3  0  0  0  0
 28 30  1  0  0  0  0
 30 29  1  0  0  0  0
M  END
>  <MODEL>
3

>  <REMARK>
 VINA RESULT:      -4.9      2.818      4.919
  Name = 
  4 active torsions:
  status: ('A' for Active; 'I' for Inactive)
    1  A    between atoms: C_1  and  C_5
    2  A    between atoms: C_5  and  C_12
    3  A    between atoms: C_6  and  C_13
    4  A    between atoms: C_9  and  C_21
                            x       y       z     vdW  Elec       q    Type
                         _______ _______ _______ _____ _____    ______ ____

>  <TORSDO>
F 4

$$$$
=
 OpenBabel11052412363D

 30 33  0  0  1  0  0  0  0  0999 V2000
  192.1510  175.9980  137.6330 C   0  0  2  0  0  3  0  0  0  0  0  0
  189.4210  177.8310  139.1920 C   0  0  0  0  0  2  0  0  0  0  0  0
  189.8390  175.0080  135.5400 C   0  0  0  0  0  2  0  0  0  0  0  0
  192.6370  175.3780  136.3000 C   0  0  1  0  0  3  0  0  0  0  0  0
  196.7820  173.5300  138.3470 C   0  0  0  0  0  2  0  0  0  0  0  0
  192.7680  172.9750  137.1330 C   0  0  0  0  0  2  0  0  0  0  0  0
  190.1810  172.6690  135.5490 O   0  0  0  0  0  1  0  0  0  0  0  0
  194.1500  175.3120  136.0200 C   0  0  2  0  0  3  0  0  0  0  0  0
  188.2370  178.3020  138.3530 C   0  0  0  0  0  2  0  0  0  0  0  0
  194.2500  173.1950  137.3060 C   0  0  0  0  0  0  0  0  0  0  0  0
  196.3570  172.2390  137.9960 O   0  0  0  0  0  0  0  0  0  0  0  0
  189.9110  176.4540  138.7710 C   0  0  0  0  0  2  0  0  0  0  0  0
  189.9530  176.4110  136.1800 C   0  0  2  0  0  3  0  0  0  0  0  0
  188.5900  178.4890  136.8750 C   0  0  0  0  0  2  0  0  0  0  0  0
  190.7400  176.5900  137.5040 C   0  0  2  0  0  3  0  0  0  0  0  0
  190.1100  173.7270  137.5460 O   0  0  0  0  0  1  0  0  0  0  0  0
  190.5490  173.8330  136.2230 C   0  0  0  0  0  0  0  0  0  0  0  0
  192.0870  173.9520  136.1550 C   0  0  1  0  0  3  0  0  0  0  0  0
  194.9990  172.2640  138.0930 N   0  0  0  0  0  2  0  0  0  0  0  0
  196.3340  174.5140  137.2580 C   0  0  0  0  0  2  0  0  0  0  0  0
  188.6110  177.1640  136.1060 C   0  0  2  0  0  3  0  0  0  0  0  0
  187.5410  176.3460  136.4870 O   0  0  0  0  0  1  0  0  0  0  0  0
  194.8690  174.3280  136.9170 C   0  0  0  0  0  0  0  0  0  0  0  0
  194.7920  176.6570  135.8840 C   0  0  0  0  0  3  0  0  0  0  0  0
  195.4220  177.0070  134.7700 C   0  0  0  0  0  3  0  0  0  0  0  0
  196.0360  178.3000  134.6750 C   0  0  0  0  0  0  0  0  0  0  0  0
  196.5530  179.3850  134.5950 C   0  0  0  0  0  3  0  0  0  0  0  0
  193.0610  177.0720  138.2160 C   0  0  0  0  0  2  0  0  0  0  0  0
  192.8340  177.5070  140.6380 C   0  0  0  0  0  1  0  0  0  0  0  0
  193.5370  176.6620  139.5960 C   0  0  0  0  0  2  0  0  0  0  0  0
  1 28  1  6  0  0  0
  3 13  1  0  0  0  0
  3 17  1  0  0  0  0
  4  1  1  0  0  0  0
  6 10  1  0  0  0  0
  7 17  1  0  0  0  0
  8  4  1  0  0  0  0
  8 23  1  0  0  0  0
  9  2  1  0  0  0  0
 10 19  1  0  0  0  0
 11 19  1  0  0  0  0
 11  5  1  0  0  0  0
 12  2  1  0  0  0  0
 13 15  1  0  0  0  0
 14  9  1  0  0  0  0
 15  1  1  0  0  0  0
 15 12  1  0  0  0  0
 17 16  1  0  0  0  0
 18 17  1  0  0  0  0
 18  4  1  0  0  0  0
 18  6  1  0  0  0  0
 20  5  1  0  0  0  0
 21 13  1  0  0  0  0
 21 22  1  0  0  0  0
 21 14  1  0  0  0  0
 23 20  1  0  0  0  0
 23 10  2  0  0  0  0
 24  8  1  0  0  0  0
 25 24  2  0  0  0  0
 26 25  1  0  0  0  0
 27 26  3  0  0  0  0
 28 30  1  0  0  0  0
 30 29  1  0  0  0  0
M  END
>  <MODEL>
4

>  <REMARK>
 VINA RESULT:      -4.9      6.413     10.050
  Name = 
  4 active torsions:
  status: ('A' for Active; 'I' for Inactive)
    1  A    between atoms: C_1  and  C_5
    2  A    between atoms: C_5  and  C_12
    3  A    between atoms: C_6  and  C_13
    4  A    between atoms: C_9  and  C_21
                            x       y       z     vdW  Elec       q    Type
                         _______ _______ _______ _____ _____    ______ ____

>  <TORSDO>
F 4

$$$$
=
 OpenBabel11052412363D

 30 33  0  0  1  0  0  0  0  0999 V2000
  185.1500  177.3600  137.1320 C   0  0  2  0  0  3  0  0  0  0  0  0
  188.2890  176.4680  135.5200 C   0  0  0  0  0  2  0  0  0  0  0  0
  184.3800  174.2240  136.6020 C   0  0  0  0  0  2  0  0  0  0  0  0
  183.9520  176.7920  137.9320 C   0  0  1  0  0  3  0  0  0  0  0  0
  181.6070  181.1810  138.0790 C   0  0  0  0  0  2  0  0  0  0  0  0
  182.1560  177.4120  136.2370 C   0  0  0  0  0  2  0  0  0  0  0  0
  182.2590  174.4360  135.5830 O   0  0  0  0  0  1  0  0  0  0  0  0
  183.2400  177.7020  138.9480 C   0  0  2  0  0  3  0  0  0  0  0  0
  188.8170  175.0390  135.6100 C   0  0  0  0  0  2  0  0  0  0  0  0
  181.8640  178.6150  137.0990 C   0  0  0  0  0  0  0  0  0  0  0  0
  180.5300  180.6060  137.3860 O   0  0  0  0  0  0  0  0  0  0  0  0
  186.7780  176.5130  135.3560 C   0  0  0  0  0  2  0  0  0  0  0  0
  185.7740  174.7700  136.9920 C   0  0  2  0  0  3  0  0  0  0  0  0
  188.3040  174.2900  136.8420 C   0  0  0  0  0  2  0  0  0  0  0  0
  186.1250  176.2530  136.7050 C   0  0  2  0  0  3  0  0  0  0  0  0
  183.9230  175.7690  134.8300 O   0  0  0  0  0  1  0  0  0  0  0  0
  183.3670  175.1870  135.9730 C   0  0  0  0  0  0  0  0  0  0  0  0
  182.8810  176.2650  136.9670 C   0  0  1  0  0  3  0  0  0  0  0  0
  181.0840  179.6830  136.5530 N   0  0  0  0  0  2  0  0  0  0  0  0
  182.2130  180.1270  139.0170 C   0  0  0  0  0  2  0  0  0  0  0  0
  186.8810  173.7550  136.6530 C   0  0  2  0  0  3  0  0  0  0  0  0
  186.7130  173.2200  135.3700 O   0  0  0  0  0  1  0  0  0  0  0  0
  182.4650  178.8220  138.2890 C   0  0  0  0  0  0  0  0  0  0  0  0
  184.1050  178.1020  140.1020 C   0  0  0  0  0  3  0  0  0  0  0  0
  183.7230  177.8840  141.3540 C   0  0  0  0  0  3  0  0  0  0  0  0
  184.5710  178.2890  142.4380 C   0  0  0  0  0  0  0  0  0  0  0  0
  185.2830  178.6280  143.3500 C   0  0  0  0  0  3  0  0  0  0  0  0
  185.9490  178.4420  137.8470 C   0  0  0  0  0  2  0  0  0  0  0  0
  187.5030  178.3190  139.7650 C   0  0  0  0  0  1  0  0  0  0  0  0
  187.2710  177.8820  138.3330 C   0  0  0  0  0  2  0  0  0  0  0  0
  1 28  1  1  0  0  0
  1  4  1  0  0  0  0
  2  9  1  0  0  0  0
  3 13  1  0  0  0  0
  4  8  1  0  0  0  0
  5 20  1  0  0  0  0
  6 18  1  0  0  0  0
  6 10  1  0  0  0  0
  7 17  1  0  0  0  0
  8 24  1  0  0  0  0
  9 14  1  0  0  0  0
 10 23  2  0  0  0  0
 11  5  1  0  0  0  0
 12  2  1  0  0  0  0
 12 15  1  0  0  0  0
 15 13  1  0  0  0  0
 15  1  1  0  0  0  0
 16 17  1  0  0  0  0
 17  3  1  0  0  0  0
 17 18  1  0  0  0  0
 18  4  1  0  0  0  0
 19 10  1  0  0  0  0
 19 11  1  0  0  0  0
 21 14  1  0  0  0  0
 21 13  1  0  0  0  0
 22 21  1  0  0  0  0
 23  8  1  0  0  0  0
 23 20  1  0  0  0  0
 24 25  2  0  0  0  0
 25 26  1  0  0  0  0
 26 27  3  0  0  0  0
 28 30  1  0  0  0  0
 30 29  1  0  0  0  0
M  END
>  <MODEL>
5

>  <REMARK>
 VINA RESULT:      -4.8      2.678      6.896
  Name = 
  4 active torsions:
  status: ('A' for Active; 'I' for Inactive)
    1  A    between atoms: C_1  and  C_5
    2  A    between atoms: C_5  and  C_12
    3  A    between atoms: C_6  and  C_13
    4  A    between atoms: C_9  and  C_21
                            x       y       z     vdW  Elec       q    Type
                         _______ _______ _______ _____ _____    ______ ____

>  <TORSDO>
F 4

$$$$
=
 OpenBabel11052412363D

 30 33  0  0  1  0  0  0  0  0999 V2000
  184.5950  176.2270  136.7150 C   0  0  2  0  0  3  0  0  0  0  0  0
  187.6230  175.1410  135.0140 C   0  0  0  0  0  2  0  0  0  0  0  0
  184.1910  173.0340  137.3090 C   0  0  0  0  0  2  0  0  0  0  0  0
  183.5800  175.8470  137.8210 C   0  0  1  0  0  3  0  0  0  0  0  0
  180.7070  179.8160  136.9410 C   0  0  0  0  0  2  0  0  0  0  0  0
  181.5380  175.7180  136.3040 C   0  0  0  0  0  2  0  0  0  0  0  0
  181.9600  172.7130  136.6010 O   0  0  0  0  0  1  0  0  0  0  0  0
  182.8720  176.9720  138.5970 C   0  0  2  0  0  3  0  0  0  0  0  0
  188.3420  173.8730  135.4640 C   0  0  0  0  0  2  0  0  0  0  0  0
  181.1890  177.1050  136.7810 C   0  0  0  0  0  0  0  0  0  0  0  0
  179.6440  178.9540  136.6290 O   0  0  0  0  0  0  0  0  0  0  0  0
  186.1110  174.9950  135.0700 C   0  0  0  0  0  2  0  0  0  0  0  0
  185.5350  173.8000  137.2980 C   0  0  2  0  0  3  0  0  0  0  0  0
  188.0740  173.5240  136.9300 C   0  0  0  0  0  2  0  0  0  0  0  0
  185.6530  175.1330  136.5140 C   0  0  2  0  0  3  0  0  0  0  0  0
  183.3380  173.8700  135.2330 O   0  0  0  0  0  1  0  0  0  0  0  0
  182.9960  173.6450  136.5690 C   0  0  0  0  0  0  0  0  0  0  0  0
  182.4860  174.9410  137.2380 C   0  0  1  0  0  3  0  0  0  0  0  0
  180.2180  177.8630  136.0520 N   0  0  0  0  0  2  0  0  0  0  0  0
  181.5480  179.1850  138.0590 C   0  0  0  0  0  2  0  0  0  0  0  0
  186.7220  172.8320  137.1310 C   0  0  2  0  0  3  0  0  0  0  0  0
  186.4830  171.8950  136.1190 O   0  0  0  0  0  1  0  0  0  0  0  0
  181.8870  177.7410  137.7450 C   0  0  0  0  0  0  0  0  0  0  0  0
  183.8000  177.8020  139.4270 C   0  0  0  0  0  3  0  0  0  0  0  0
  183.7030  177.8250  140.7500 C   0  0  0  0  0  3  0  0  0  0  0  0
  184.6020  178.6390  141.5170 C   0  0  0  0  0  0  0  0  0  0  0  0
  185.3560  179.3220  142.1620 C   0  0  0  0  0  3  0  0  0  0  0  0
  185.3190  177.5500  136.9300 C   0  0  0  0  0  2  0  0  0  0  0  0
  187.6750  178.2690  137.1280 C   0  0  0  0  0  1  0  0  0  0  0  0
  186.6250  177.3190  137.6640 C   0  0  0  0  0  2  0  0  0  0  0  0
  1 28  1  1  0  0  0
  1  4  1  0  0  0  0
  2 12  1  0  0  0  0
  2  9  1  0  0  0  0
  4  8  1  0  0  0  0
  5 20  1  0  0  0  0
  6 10  1  0  0  0  0
  6 18  1  0  0  0  0
  8 24  1  0  0  0  0
  9 14  1  0  0  0  0
 10 23  2  0  0  0  0
 11  5  1  0  0  0  0
 12 15  1  0  0  0  0
 13  3  1  0  0  0  0
 14 21  1  0  0  0  0
 15  1  1  0  0  0  0
 15 13  1  0  0  0  0
 16 17  1  0  0  0  0
 17  7  1  0  0  0  0
 17 18  1  0  0  0  0
 17  3  1  0  0  0  0
 18  4  1  0  0  0  0
 19 11  1  0  0  0  0
 19 10  1  0  0  0  0
 21 13  1  0  0  0  0
 22 21  1  0  0  0  0
 23 20  1  0  0  0  0
 23  8  1  0  0  0  0
 24 25  2  0  0  0  0
 25 26  1  0  0  0  0
 26 27  3  0  0  0  0
 28 30  1  0  0  0  0
 29 30  1  0  0  0  0
M  END
>  <MODEL>
6

>  <REMARK>
 VINA RESULT:      -4.6      3.013      7.043
  Name = 
  4 active torsions:
  status: ('A' for Active; 'I' for Inactive)
    1  A    between atoms: C_1  and  C_5
    2  A    between atoms: C_5  and  C_12
    3  A    between atoms: C_6  and  C_13
    4  A    between atoms: C_9  and  C_21
                            x       y       z     vdW  Elec       q    Type
                         _______ _______ _______ _____ _____    ______ ____

>  <TORSDO>
F 4

$$$$
=
 OpenBabel11052412363D

 30 33  0  0  1  0  0  0  0  0999 V2000
  184.0970  176.7780  138.7710 C   0  0  2  0  0  3  0  0  0  0  0  0
  184.0220  173.8430  136.6190 C   0  0  0  0  0  2  0  0  0  0  0  0
  186.1230  177.9730  136.4970 C   0  0  0  0  0  2  0  0  0  0  0  0
  184.3390  178.3070  138.7890 C   0  0  1  0  0  3  0  0  0  0  0  0
  183.7440  178.6280  143.7210 C   0  0  0  0  0  2  0  0  0  0  0  0
  186.3220  178.2640  140.3860 C   0  0  0  0  0  2  0  0  0  0  0  0
  187.9230  178.7220  137.8330 O   0  0  0  0  0  1  0  0  0  0  0  0
  183.5870  179.1660  139.8210 C   0  0  2  0  0  3  0  0  0  0  0  0
  184.2350  173.9910  135.1150 C   0  0  0  0  0  2  0  0  0  0  0  0
  185.3520  178.6370  141.4800 C   0  0  0  0  0  0  0  0  0  0  0  0
  185.0560  179.1130  143.8280 O   0  0  0  0  0  0  0  0  0  0  0  0
  184.9200  174.7730  137.4200 C   0  0  0  0  0  2  0  0  0  0  0  0
  184.8850  177.0820  136.2420 C   0  0  2  0  0  3  0  0  0  0  0  0
  183.8620  175.3810  134.5940 C   0  0  0  0  0  2  0  0  0  0  0  0
  184.3410  176.1780  137.3790 C   0  0  2  0  0  3  0  0  0  0  0  0
  187.1030  176.6550  138.2420 O   0  0  0  0  0  1  0  0  0  0  0  0
  186.7550  177.9640  137.8940 C   0  0  0  0  0  0  0  0  0  0  0  0
  185.8360  178.5980  138.9620 C   0  0  1  0  0  3  0  0  0  0  0  0
  185.7580  178.4870  142.8440 N   0  0  0  0  0  2  0  0  0  0  0  0
  183.1270  179.1490  142.4150 C   0  0  0  0  0  2  0  0  0  0  0  0
  184.9590  176.4180  134.8540 C   0  0  2  0  0  3  0  0  0  0  0  0
  186.2270  175.8800  134.6070 O   0  0  0  0  0  1  0  0  0  0  0  0
  184.0550  178.9220  141.2390 C   0  0  0  0  0  0  0  0  0  0  0  0
  182.1030  179.1810  139.6200 C   0  0  0  0  0  3  0  0  0  0  0  0
  181.5550  179.8350  138.6050 C   0  0  0  0  0  3  0  0  0  0  0  0
  180.1300  179.8390  138.4460 C   0  0  0  0  0  0  0  0  0  0  0  0
  178.9320  179.8410  138.3120 C   0  0  0  0  0  3  0  0  0  0  0  0
  182.7150  176.3370  139.2370 C   0  0  0  0  0  2  0  0  0  0  0  0
  180.3630  176.0190  138.5470 C   0  0  0  0  0  1  0  0  0  0  0  0
  181.7840  176.1890  138.0500 C   0  0  0  0  0  2  0  0  0  0  0  0
  1  4  1  0  0  0  0
  1 28  1  6  0  0  0
  2 12  1  0  0  0  0
  3 17  1  0  0  0  0
  4 18  1  0  0  0  0
  4  8  1  0  0  0  0
  5 11  1  0  0  0  0
  6 10  1  0  0  0  0
  7 17  1  0  0  0  0
  8 23  1  0  0  0  0
  9  2  1  0  0  0  0
 10 19  1  0  0  0  0
 13  3  1  0  0  0  0
 13 15  1  0  0  0  0
 14 21  1  0  0  0  0
 14  9  1  0  0  0  0
 15 12  1  0  0  0  0
 15  1  1  0  0  0  0
 17 16  1  0  0  0  0
 17 18  1  0  0  0  0
 18  6  1  0  0  0  0
 19 11  1  0  0  0  0
 20  5  1  0  0  0  0
 21 13  1  0  0  0  0
 22 21  1  0  0  0  0
 23 10  2  0  0  0  0
 23 20  1  0  0  0  0
 24  8  1  0  0  0  0
 25 24  2  0  0  0  0
 26 25  1  0  0  0  0
 27 26  3  0  0  0  0
 30 29  1  0  0  0  0
 30 28  1  0  0  0  0
M  END
>  <MODEL>
7

>  <REMARK>
 VINA RESULT:      -4.5      2.411      6.065
  Name = 
  4 active torsions:
  status: ('A' for Active; 'I' for Inactive)
    1  A    between atoms: C_1  and  C_5
    2  A    between atoms: C_5  and  C_12
    3  A    between atoms: C_6  and  C_13
    4  A    between atoms: C_9  and  C_21
                            x       y       z     vdW  Elec       q    Type
                         _______ _______ _______ _____ _____    ______ ____

>  <TORSDO>
F 4

$$$$
=
 OpenBabel11052412363D

 30 33  0  0  1  0  0  0  0  0999 V2000
  183.8230  175.0200  137.3260 C   0  0  2  0  0  3  0  0  0  0  0  0
  183.4300  171.4040  137.4460 C   0  0  0  0  0  2  0  0  0  0  0  0
  186.0860  174.3580  135.0570 C   0  0  0  0  0  2  0  0  0  0  0  0
  184.2730  176.1980  136.4270 C   0  0  1  0  0  3  0  0  0  0  0  0
  183.5300  179.5800  140.0040 C   0  0  0  0  0  2  0  0  0  0  0  0
  186.1650  176.9990  137.9320 C   0  0  0  0  0  2  0  0  0  0  0  0
  187.9160  175.6250  135.8490 O   0  0  0  0  0  1  0  0  0  0  0  0
  183.6060  177.5720  136.6150 C   0  0  2  0  0  3  0  0  0  0  0  0
  183.7220  170.5600  136.2080 C   0  0  0  0  0  2  0  0  0  0  0  0
  185.2130  178.0530  138.4410 C   0  0  0  0  0  0  0  0  0  0  0  0
  184.8920  179.9150  139.9430 O   0  0  0  0  0  0  0  0  0  0  0  0
  184.4150  172.5520  137.6040 C   0  0  0  0  0  2  0  0  0  0  0  0
  184.7470  173.6090  135.2600 C   0  0  2  0  0  3  0  0  0  0  0  0
  183.5650  171.3430  134.9020 C   0  0  0  0  0  2  0  0  0  0  0  0
  184.0380  173.6640  136.6390 C   0  0  2  0  0  3  0  0  0  0  0  0
  186.8020  174.3450  137.3420 O   0  0  0  0  0  1  0  0  0  0  0  0
  186.6530  175.1720  136.2260 C   0  0  0  0  0  0  0  0  0  0  0  0
  185.7880  176.4070  136.5600 C   0  0  1  0  0  3  0  0  0  0  0  0
  185.5390  178.7550  139.6440 N   0  0  0  0  0  2  0  0  0  0  0  0
  183.0450  179.2190  138.5930 C   0  0  0  0  0  2  0  0  0  0  0  0
  184.7840  172.2200  134.5960 C   0  0  2  0  0  3  0  0  0  0  0  0
  185.9750  171.5430  134.8840 O   0  0  0  0  0  1  0  0  0  0  0  0
  183.9790  178.2300  137.9250 C   0  0  0  0  0  0  0  0  0  0  0  0
  182.1490  177.5810  136.2750 C   0  0  0  0  0  3  0  0  0  0  0  0
  181.6980  178.2240  135.2060 C   0  0  0  0  0  3  0  0  0  0  0  0
  180.2940  178.2220  134.9120 C   0  0  0  0  0  0  0  0  0  0  0  0
  179.1140  178.2210  134.6650 C   0  0  0  0  0  3  0  0  0  0  0  0
  182.3760  175.0840  137.7980 C   0  0  0  0  0  2  0  0  0  0  0  0
  181.0380  176.2990  139.4840 C   0  0  0  0  0  1  0  0  0  0  0  0
  182.3170  175.5220  139.2480 C   0  0  0  0  0  2  0  0  0  0  0  0
  1 28  1  6  0  0  0
  2 12  1  0  0  0  0
  3 13  1  0  0  0  0
  3 17  1  0  0  0  0
  4 18  1  0  0  0  0
  4  8  1  0  0  0  0
  4  1  1  0  0  0  0
  6 10  1  0  0  0  0
  7 17  1  0  0  0  0
  8 23  1  0  0  0  0
  9  2  1  0  0  0  0
 10 19  1  0  0  0  0
 11  5  1  0  0  0  0
 13 15  1  0  0  0  0
 14  9  1  0  0  0  0
 15  1  1  0  0  0  0
 15 12  1  0  0  0  0
 17 18  1  0  0  0  0
 17 16  1  0  0  0  0
 18  6  1  0  0  0  0
 19 11  1  0  0  0  0
 20  5  1  0  0  0  0
 21 22  1  0  0  0  0
 21 14  1  0  0  0  0
 21 13  1  0  0  0  0
 23 10  2  0  0  0  0
 23 20  1  0  0  0  0
 24  8  1  0  0  0  0
 25 24  2  0  0  0  0
 26 25  1  0  0  0  0
 27 26  3  0  0  0  0
 28 30  1  0  0  0  0
 30 29  1  0  0  0  0
M  END
>  <MODEL>
8

>  <REMARK>
 VINA RESULT:      -4.4      2.221      6.301
  Name = 
  4 active torsions:
  status: ('A' for Active; 'I' for Inactive)
    1  A    between atoms: C_1  and  C_5
    2  A    between atoms: C_5  and  C_12
    3  A    between atoms: C_6  and  C_13
    4  A    between atoms: C_9  and  C_21
                            x       y       z     vdW  Elec       q    Type
                         _______ _______ _______ _____ _____    ______ ____

>  <TORSDO>
F 4

$$$$
=
 OpenBabel11052412363D

 30 33  0  0  1  0  0  0  0  0999 V2000
  184.0990  175.9760  136.2970 C   0  0  2  0  0  3  0  0  0  0  0  0
  186.8420  177.9500  134.9470 C   0  0  0  0  0  2  0  0  0  0  0  0
  186.4780  173.9260  137.2200 C   0  0  0  0  0  2  0  0  0  0  0  0
  183.7310  174.9160  137.3650 C   0  0  1  0  0  3  0  0  0  0  0  0
  179.0020  174.6140  135.8400 C   0  0  0  0  0  2  0  0  0  0  0  0
  182.9580  173.1210  135.7330 C   0  0  0  0  0  2  0  0  0  0  0  0
  185.6570  171.8690  136.3990 O   0  0  0  0  0  1  0  0  0  0  0  0
  182.3100  174.9220  137.9570 C   0  0  2  0  0  3  0  0  0  0  0  0
  188.2250  177.8780  135.5880 C   0  0  0  0  0  2  0  0  0  0  0  0
  181.5480  173.5700  136.0240 C   0  0  0  0  0  0  0  0  0  0  0  0
  179.2010  173.2540  135.5550 O   0  0  0  0  0  0  0  0  0  0  0  0
  186.1540  176.5940  134.9140 C   0  0  0  0  0  2  0  0  0  0  0  0
  186.5520  175.4720  137.2160 C   0  0  2  0  0  3  0  0  0  0  0  0
  188.1790  177.4680  137.0620 C   0  0  0  0  0  2  0  0  0  0  0  0
  185.6030  176.2840  136.2960 C   0  0  2  0  0  3  0  0  0  0  0  0
  185.6020  173.6500  135.0080 O   0  0  0  0  0  1  0  0  0  0  0  0
  185.4300  173.2430  136.3340 C   0  0  0  0  0  0  0  0  0  0  0  0
  183.9860  173.5070  136.8140 C   0  0  1  0  0  3  0  0  0  0  0  0
  180.4960  173.1540  135.1480 N   0  0  0  0  0  2  0  0  0  0  0  0
  179.8270  174.9880  137.0790 C   0  0  0  0  0  2  0  0  0  0  0  0
  188.0140  175.9550  137.2440 C   0  0  2  0  0  3  0  0  0  0  0  0
  188.8060  175.2510  136.3310 O   0  0  0  0  0  1  0  0  0  0  0  0
  181.2570  174.5010  136.9560 C   0  0  0  0  0  0  0  0  0  0  0  0
  181.9970  176.1520  138.7510 C   0  0  0  0  0  3  0  0  0  0  0  0
  182.6840  176.4560  139.8440 C   0  0  0  0  0  3  0  0  0  0  0  0
  182.3530  177.6370  140.5890 C   0  0  0  0  0  0  0  0  0  0  0  0
  182.0740  178.6280  141.2140 C   0  0  0  0  0  3  0  0  0  0  0  0
  183.3480  177.2960  136.4110 C   0  0  0  0  0  2  0  0  0  0  0  0
  181.1960  178.2160  135.6170 C   0  0  0  0  0  1  0  0  0  0  0  0
  182.4640  177.5020  135.1970 C   0  0  0  0  0  2  0  0  0  0  0  0
  1 28  1  1  0  0  0
  1  4  1  0  0  0  0
  2  9  1  0  0  0  0
  4  8  1  0  0  0  0
  5 20  1  0  0  0  0
  6 10  1  0  0  0  0
  6 18  1  0  0  0  0
  8 24  1  0  0  0  0
  9 14  1  0  0  0  0
 10 23  2  0  0  0  0
 11  5  1  0  0  0  0
 12  2  1  0  0  0  0
 12 15  1  0  0  0  0
 13  3  1  0  0  0  0
 13 21  1  0  0  0  0
 14 21  1  0  0  0  0
 15  1  1  0  0  0  0
 15 13  1  0  0  0  0
 16 17  1  0  0  0  0
 17  7  1  0  0  0  0
 17 18  1  0  0  0  0
 17  3  1  0  0  0  0
 18  4  1  0  0  0  0
 19 11  1  0  0  0  0
 19 10  1  0  0  0  0
 22 21  1  0  0  0  0
 23 20  1  0  0  0  0
 23  8  1  0  0  0  0
 24 25  2  0  0  0  0
 25 26  1  0  0  0  0
 26 27  3  0  0  0  0
 30 29  1  0  0  0  0
 30 28  1  0  0  0  0
M  END
>  <MODEL>
9

>  <REMARK>
 VINA RESULT:      -4.4      3.453      6.737
  Name = 
  4 active torsions:
  status: ('A' for Active; 'I' for Inactive)
    1  A    between atoms: C_1  and  C_5
    2  A    between atoms: C_5  and  C_12
    3  A    between atoms: C_6  and  C_13
    4  A    between atoms: C_9  and  C_21
                            x       y       z     vdW  Elec       q    Type
                         _______ _______ _______ _____ _____    ______ ____

>  <TORSDO>
F 4

$$$$
