=
 OpenBabel11052414073D

 34 39  0  0  1  0  0  0  0  0999 V2000
  182.0850  178.6830  140.9910 C   0  0  0  0  0  0  0  0  0  0  0  0
  183.0870  180.1060  139.2200 C   0  0  0  0  0  0  0  0  0  0  0  0
  184.6140  178.7030  140.7530 C   0  0  0  0  0  0  0  0  0  0  0  0
  186.9780  178.3130  140.7040 N   0  0  0  0  0  0  0  0  0  0  0  0
  180.6510  179.8190  139.4110 C   0  0  0  0  0  3  0  0  0  0  0  0
  181.8530  180.4910  138.8650 C   0  0  0  0  0  3  0  0  0  0  0  0
  185.8850  178.4610  138.5820 C   0  0  0  0  0  2  0  0  0  0  0  0
  183.2700  178.8580  140.0660 C   0  0  1  0  0  3  0  0  0  0  0  0
  188.0460  178.1130  139.7540 C   0  0  0  0  0  2  0  0  0  0  0  0
  180.7530  178.9700  140.4400 C   0  0  0  0  0  3  0  0  0  0  0  0
  184.6830  178.5250  142.2350 C   0  0  0  0  0  0  0  0  0  0  0  0
  182.2240  178.4460  142.2950 C   0  0  0  0  0  3  0  0  0  0  0  0
  184.1790  180.8240  138.7490 O   0  0  0  0  0  1  0  0  0  0  0  0
  187.1090  178.2750  142.1270 C   0  0  0  0  0  3  0  0  0  0  0  0
  186.0210  178.3890  142.9040 C   0  0  0  0  0  0  0  0  0  0  0  0
  187.3870  178.2280  138.3680 C   0  0  1  0  0  3  0  0  0  0  0  0
  185.7460  178.5320  140.0550 C   0  0  0  0  0  0  0  0  0  0  0  0
  183.5500  178.3610  142.9250 C   0  0  0  0  0  3  0  0  0  0  0  0
  187.3570  177.5920  146.3740 C   0  0  0  0  0  0  0  0  0  0  0  0
  186.4780  178.3170  147.1820 C   0  0  0  0  0  3  0  0  0  0  0  0
  186.1940  178.3760  144.3830 C   0  0  0  0  0  0  0  0  0  0  0  0
  185.4540  179.0670  146.6000 C   0  0  0  0  0  3  0  0  0  0  0  0
  187.2130  177.6190  144.9850 C   0  0  0  0  0  3  0  0  0  0  0  0
  185.3120  179.0930  145.2100 C   0  0  0  0  0  3  0  0  0  0  0  0
  188.3490  176.8610  146.9380 F   0  0  0  0  0  0  0  0  0  0  0  0
  188.7490  176.3230  137.6350 C   0  0  0  0  0  3  0  0  0  0  0  0
  187.5900  176.9750  137.5880 C   0  0  0  0  0  3  0  0  0  0  0  0
  191.0990  174.7730  138.0630 O   0  0  0  0  0  1  0  0  0  0  0  0
  188.9970  175.0800  136.8840 C   0  0  0  0  0  0  0  0  0  0  0  0
  190.1690  174.3420  137.1230 C   0  0  0  0  0  0  0  0  0  0  0  0
  189.4900  172.7080  135.4670 C   0  0  0  0  0  3  0  0  0  0  0  0
  188.3230  173.4350  135.2230 C   0  0  0  0  0  3  0  0  0  0  0  0
  188.0770  174.6160  135.9280 C   0  0  0  0  0  3  0  0  0  0  0  0
  190.4100  173.1600  136.4150 C   0  0  0  0  0  3  0  0  0  0  0  0
  1 12  2  0  0  0  0
  3 11  1  0  0  0  0
  4 14  1  0  0  0  0
  5 10  2  0  0  0  0
  6  2  2  0  0  0  0
  6  5  1  0  0  0  0
  7 17  1  0  0  0  0
  8  2  1  1  0  0  0
  8  3  1  0  0  0  0
  8  1  1  0  0  0  0
  9  4  1  0  0  0  0
 10  1  1  0  0  0  0
 11 15  1  0  0  0  0
 11 18  2  0  0  0  0
 12 18  1  0  0  0  0
 13  2  1  0  0  0  0
 14 15  2  0  0  0  0
 15 21  1  0  0  0  0
 16 27  1  6  0  0  0
 16  7  1  0  0  0  0
 16  9  1  0  0  0  0
 17  4  1  0  0  0  0
 17  3  2  0  0  0  0
 19 25  1  0  0  0  0
 19 20  1  0  0  0  0
 21 23  1  0  0  0  0
 21 24  2  0  0  0  0
 22 20  2  0  0  0  0
 23 19  2  0  0  0  0
 24 22  1  0  0  0  0
 27 26  2  0  0  0  0
 29 30  1  0  0  0  0
 29 26  1  0  0  0  0
 30 28  1  0  0  0  0
 31 34  1  0  0  0  0
 32 31  2  0  0  0  0
 32 33  1  0  0  0  0
 33 29  2  0  0  0  0
 34 30  2  0  0  0  0
M  END
>  <MODEL>
1

>  <REMARK>
 VINA RESULT:      -9.7      0.000      0.000
  Name = 
  3 active torsions:
  status: ('A' for Active; 'I' for Inactive)
    1  A    between atoms: C_3  and  C_13
    2  A    between atoms: C_12  and  C_28
    3  A    between atoms: C_17  and  C_29
                            x       y       z     vdW  Elec       q    Type
                         _______ _______ _______ _____ _____    ______ ____

>  <TORSDO>
F 3

$$$$
=
 OpenBabel11052414073D

 34 39  0  0  1  0  0  0  0  0999 V2000
  188.3010  178.3580  138.9050 C   0  0  0  0  0  0  0  0  0  0  0  0
  186.5210  177.3110  137.5280 C   0  0  0  0  0  0  0  0  0  0  0  0
  185.9140  178.4310  139.7700 C   0  0  0  0  0  0  0  0  0  0  0  0
  183.7940  178.8680  140.7990 N   0  0  0  0  0  0  0  0  0  0  0  0
  188.8300  177.5110  136.7050 C   0  0  0  0  0  3  0  0  0  0  0  0
  187.4520  176.9750  136.6230 C   0  0  0  0  0  3  0  0  0  0  0  0
  183.8850  179.1000  138.4190 C   0  0  0  0  0  2  0  0  0  0  0  0
  186.8280  178.3820  138.5600 C   0  0  0  0  0  0  0  0  0  0  0  0
  182.4520  179.2630  140.4410 C   0  0  0  0  0  2  0  0  0  0  0  0
  189.2490  178.1540  137.8010 C   0  0  0  0  0  2  0  0  0  0  0  0
  186.4850  178.3300  141.1470 C   0  0  0  0  0  0  0  0  0  0  0  0
  188.7420  178.3490  140.1630 C   0  0  0  0  0  3  0  0  0  0  0  0
  185.2680  176.7140  137.4600 O   0  0  0  0  0  1  0  0  0  0  0  0
  184.2710  178.6420  142.1270 C   0  0  0  0  0  3  0  0  0  0  0  0
  185.5670  178.3640  142.3350 C   0  0  0  0  0  0  0  0  0  0  0  0
  182.4600  179.3970  138.9080 C   0  0  1  0  0  3  0  0  0  0  0  0
  184.6160  178.7510  139.6590 C   0  0  0  0  0  0  0  0  0  0  0  0
  187.8130  178.3410  141.3040 C   0  0  0  0  0  3  0  0  0  0  0  0
  185.6990  178.2700  146.1350 C   0  0  0  0  0  0  0  0  0  0  0  0
  186.9330  177.6530  146.3530 C   0  0  0  0  0  3  0  0  0  0  0  0
  186.0280  178.1040  143.7270 C   0  0  0  0  0  0  0  0  0  0  0  0
  187.7200  177.2650  145.2680 C   0  0  0  0  0  3  0  0  0  0  0  0
  185.2520  178.4970  144.8310 C   0  0  0  0  0  3  0  0  0  0  0  0
  187.2710  177.4920  143.9630 C   0  0  0  0  0  3  0  0  0  0  0  0
  184.9360  178.6500  147.1880 F   0  0  0  0  0  0  0  0  0  0  0  0
  180.9730  180.9950  137.7870 C   0  0  0  0  0  3  0  0  0  0  0  0
  182.0730  180.7770  138.5020 C   0  0  0  0  0  3  0  0  0  0  0  0
  179.1520  182.5350  139.3440 O   0  0  0  0  0  1  0  0  0  0  0  0
  180.5480  182.3400  137.3650 C   0  0  0  0  0  0  0  0  0  0  0  0
  179.6480  183.0710  138.1600 C   0  0  0  0  0  0  0  0  0  0  0  0
  179.7260  184.9070  136.5800 C   0  0  0  0  0  3  0  0  0  0  0  0
  180.6200  184.1890  135.7850 C   0  0  0  0  0  3  0  0  0  0  0  0
  181.0300  182.9110  136.1750 C   0  0  0  0  0  3  0  0  0  0  0  0
  179.2410  184.3490  137.7650 C   0  0  0  0  0  3  0  0  0  0  0  0
  1 12  2  0  0  0  0
  2  8  2  0  0  0  0
  3 11  1  0  0  0  0
  4 14  1  0  0  0  0
  5 10  1  0  0  0  0
  6  5  2  0  0  0  0
  6  2  1  0  0  0  0
  7 16  1  0  0  0  0
  7 17  1  0  0  0  0
  8  1  1  0  0  0  0
  8  3  1  0  0  0  0
  9  4  1  0  0  0  0
 10  1  1  0  0  0  0
 11 18  2  0  0  0  0
 11 15  1  0  0  0  0
 12 18  1  0  0  0  0
 13  2  1  0  0  0  0
 14 15  2  0  0  0  0
 15 21  1  0  0  0  0
 16 27  1  1  0  0  0
 16  9  1  0  0  0  0
 17  3  2  0  0  0  0
 17  4  1  0  0  0  0
 19 20  1  0  0  0  0
 19 25  1  0  0  0  0
 21 24  2  0  0  0  0
 21 23  1  0  0  0  0
 22 20  2  0  0  0  0
 23 19  2  0  0  0  0
 24 22  1  0  0  0  0
 26 27  2  0  0  0  0
 29 26  1  0  0  0  0
 29 30  1  0  0  0  0
 30 28  1  0  0  0  0
 31 34  1  0  0  0  0
 32 33  1  0  0  0  0
 32 31  2  0  0  0  0
 33 29  2  0  0  0  0
 34 30  2  0  0  0  0
M  END
>  <MODEL>
2

>  <REMARK>
 VINA RESULT:      -9.7      2.476      7.566
  Name = 
  3 active torsions:
  status: ('A' for Active; 'I' for Inactive)
    1  A    between atoms: C_3  and  C_13
    2  A    between atoms: C_12  and  C_28
    3  A    between atoms: C_17  and  C_29
                            x       y       z     vdW  Elec       q    Type
                         _______ _______ _______ _____ _____    ______ ____

>  <TORSDO>
F 3

$$$$
=
 OpenBabel11052414073D

 34 39  0  0  1  0  0  0  0  0999 V2000
  188.1890  178.2530  138.9480 C   0  0  0  0  0  0  0  0  0  0  0  0
  186.4190  177.1360  137.6130 C   0  0  0  0  0  0  0  0  0  0  0  0
  185.7930  178.3760  139.7850 C   0  0  0  0  0  0  0  0  0  0  0  0
  183.6650  178.8710  140.7690 N   0  0  0  0  0  0  0  0  0  0  0  0
  188.7360  177.2880  136.8020 C   0  0  0  0  0  3  0  0  0  0  0  0
  187.3580  176.7510  136.7370 C   0  0  0  0  0  3  0  0  0  0  0  0
  183.7780  178.9730  138.3810 C   0  0  0  0  0  2  0  0  0  0  0  0
  186.7190  178.2600  138.5890 C   0  0  0  0  0  0  0  0  0  0  0  0
  182.3270  179.2480  140.3780 C   0  0  0  0  0  2  0  0  0  0  0  0
  189.1460  177.9890  137.8650 C   0  0  0  0  0  2  0  0  0  0  0  0
  186.3510  178.3490  141.1710 C   0  0  0  0  0  0  0  0  0  0  0  0
  188.6170  178.3130  140.2090 C   0  0  0  0  0  3  0  0  0  0  0  0
  185.1660  176.5380  137.5650 O   0  0  0  0  0  1  0  0  0  0  0  0
  184.1290  178.7160  142.1110 C   0  0  0  0  0  3  0  0  0  0  0  0
  185.4230  178.4480  142.3470 C   0  0  0  0  0  0  0  0  0  0  0  0
  182.3500  179.2980  138.8400 C   0  0  1  0  0  3  0  0  0  0  0  0
  184.4970  178.6910  139.6450 C   0  0  0  0  0  0  0  0  0  0  0  0
  187.6780  178.3670  141.3400 C   0  0  0  0  0  3  0  0  0  0  0  0
  187.4710  177.4000  145.3760 C   0  0  0  0  0  0  0  0  0  0  0  0
  186.6790  177.8760  146.4230 C   0  0  0  0  0  3  0  0  0  0  0  0
  185.8700  178.2630  143.7550 C   0  0  0  0  0  0  0  0  0  0  0  0
  185.4820  178.5390  146.1460 C   0  0  0  0  0  3  0  0  0  0  0  0
  187.0670  177.5900  144.0520 C   0  0  0  0  0  3  0  0  0  0  0  0
  185.0790  178.7290  144.8210 C   0  0  0  0  0  3  0  0  0  0  0  0
  188.6300  176.7530  145.6430 F   0  0  0  0  0  0  0  0  0  0  0  0
  181.1800  180.8050  137.2960 C   0  0  0  0  0  3  0  0  0  0  0  0
  181.9690  180.6550  138.3570 C   0  0  0  0  0  3  0  0  0  0  0  0
  180.2190  181.1320  134.6350 O   0  0  0  0  0  1  0  0  0  0  0  0
  180.7740  182.1240  136.7820 C   0  0  0  0  0  0  0  0  0  0  0  0
  180.3050  182.2460  135.4630 C   0  0  0  0  0  0  0  0  0  0  0  0
  179.9950  184.6280  135.7820 C   0  0  0  0  0  3  0  0  0  0  0  0
  180.4590  184.5160  137.0940 C   0  0  0  0  0  3  0  0  0  0  0  0
  180.8480  183.2700  137.5930 C   0  0  0  0  0  3  0  0  0  0  0  0
  179.9170  183.4960  134.9690 C   0  0  0  0  0  3  0  0  0  0  0  0
  1 12  2  0  0  0  0
  2  8  2  0  0  0  0
  3 11  1  0  0  0  0
  4 14  1  0  0  0  0
  5 10  1  0  0  0  0
  6  5  2  0  0  0  0
  6  2  1  0  0  0  0
  7 16  1  0  0  0  0
  7 17  1  0  0  0  0
  8  1  1  0  0  0  0
  8  3  1  0  0  0  0
  9  4  1  0  0  0  0
 10  1  1  0  0  0  0
 11 18  2  0  0  0  0
 11 15  1  0  0  0  0
 12 18  1  0  0  0  0
 13  2  1  0  0  0  0
 14 15  2  0  0  0  0
 15 21  1  0  0  0  0
 16 27  1  1  0  0  0
 16  9  1  0  0  0  0
 17  3  2  0  0  0  0
 17  4  1  0  0  0  0
 19 25  1  0  0  0  0
 19 20  1  0  0  0  0
 21 23  1  0  0  0  0
 21 24  2  0  0  0  0
 22 20  2  0  0  0  0
 23 19  2  0  0  0  0
 24 22  1  0  0  0  0
 26 27  2  0  0  0  0
 28 30  1  0  0  0  0
 29 26  1  0  0  0  0
 29 33  1  0  0  0  0
 30 29  2  0  0  0  0
 31 32  1  0  0  0  0
 32 33  2  0  0  0  0
 34 30  1  0  0  0  0
 34 31  2  0  0  0  0
M  END
>  <MODEL>
3

>  <REMARK>
 VINA RESULT:      -9.5      2.459      7.303
  Name = 
  3 active torsions:
  status: ('A' for Active; 'I' for Inactive)
    1  A    between atoms: C_3  and  C_13
    2  A    between atoms: C_12  and  C_28
    3  A    between atoms: C_17  and  C_29
                            x       y       z     vdW  Elec       q    Type
                         _______ _______ _______ _____ _____    ______ ____

>  <TORSDO>
F 3

$$$$
=
 OpenBabel11052414073D

 34 39  0  0  1  0  0  0  0  0999 V2000
  182.1410  178.6940  140.9760 C   0  0  0  0  0  0  0  0  0  0  0  0
  183.1660  180.0830  139.1920 C   0  0  0  0  0  0  0  0  0  0  0  0
  184.6710  178.6760  140.7430 C   0  0  0  0  0  0  0  0  0  0  0  0
  187.0300  178.2540  140.7030 N   0  0  0  0  0  0  0  0  0  0  0  0
  180.7260  179.8320  139.3820 C   0  0  0  0  0  3  0  0  0  0  0  0
  181.9380  180.4820  138.8310 C   0  0  0  0  0  3  0  0  0  0  0  0
  185.9420  178.3940  138.5760 C   0  0  0  0  0  2  0  0  0  0  0  0
  183.3300  178.8420  140.0520 C   0  0  1  0  0  3  0  0  0  0  0  0
  188.0970  178.0280  139.7560 C   0  0  0  0  0  2  0  0  0  0  0  0
  180.8140  178.9920  140.4200 C   0  0  0  0  0  3  0  0  0  0  0  0
  184.7350  178.5130  142.2260 C   0  0  0  0  0  0  0  0  0  0  0  0
  182.2750  178.4680  142.2830 C   0  0  0  0  0  3  0  0  0  0  0  0
  184.2690  180.7820  138.7160 O   0  0  0  0  0  1  0  0  0  0  0  0
  187.1580  178.2280  142.1260 C   0  0  0  0  0  3  0  0  0  0  0  0
  186.0700  178.3660  142.9000 C   0  0  0  0  0  0  0  0  0  0  0  0
  187.4410  178.1380  138.3680 C   0  0  1  0  0  3  0  0  0  0  0  0
  185.8020  178.4820  140.0480 C   0  0  0  0  0  0  0  0  0  0  0  0
  183.5980  178.3710  142.9170 C   0  0  0  0  0  3  0  0  0  0  0  0
  187.3930  177.5920  146.3800 C   0  0  0  0  0  0  0  0  0  0  0  0
  186.5190  178.3320  147.1790 C   0  0  0  0  0  3  0  0  0  0  0  0
  186.2400  178.3650  144.3790 C   0  0  0  0  0  0  0  0  0  0  0  0
  185.5020  179.0850  146.5880 C   0  0  0  0  0  3  0  0  0  0  0  0
  187.2510  177.6060  144.9900 C   0  0  0  0  0  3  0  0  0  0  0  0
  185.3620  179.0990  145.1970 C   0  0  0  0  0  3  0  0  0  0  0  0
  188.3770  176.8580  146.9530 F   0  0  0  0  0  0  0  0  0  0  0  0
  186.5940  176.0830  137.3280 C   0  0  0  0  0  3  0  0  0  0  0  0
  187.6280  176.8740  137.6010 C   0  0  0  0  0  3  0  0  0  0  0  0
  184.8190  173.8970  137.7570 O   0  0  0  0  0  1  0  0  0  0  0  0
  186.7270  174.8260  136.5730 C   0  0  0  0  0  0  0  0  0  0  0  0
  185.8320  173.7690  136.8120 C   0  0  0  0  0  0  0  0  0  0  0  0
  186.9620  172.4210  135.1450 C   0  0  0  0  0  3  0  0  0  0  0  0
  187.8550  173.4660  134.9010 C   0  0  0  0  0  3  0  0  0  0  0  0
  187.7390  174.6640  135.6110 C   0  0  0  0  0  3  0  0  0  0  0  0
  185.9530  172.5720  136.0980 C   0  0  0  0  0  3  0  0  0  0  0  0
  1 12  2  0  0  0  0
  3 11  1  0  0  0  0
  4 14  1  0  0  0  0
  5 10  2  0  0  0  0
  6  2  2  0  0  0  0
  6  5  1  0  0  0  0
  7 17  1  0  0  0  0
  8  2  1  1  0  0  0
  8  3  1  0  0  0  0
  8  1  1  0  0  0  0
  9  4  1  0  0  0  0
 10  1  1  0  0  0  0
 11 15  1  0  0  0  0
 11 18  2  0  0  0  0
 12 18  1  0  0  0  0
 13  2  1  0  0  0  0
 14 15  2  0  0  0  0
 15 21  1  0  0  0  0
 16 27  1  1  0  0  0
 16  7  1  0  0  0  0
 16  9  1  0  0  0  0
 17  4  1  0  0  0  0
 17  3  2  0  0  0  0
 19 25  1  0  0  0  0
 19 20  1  0  0  0  0
 21 23  1  0  0  0  0
 21 24  2  0  0  0  0
 22 20  2  0  0  0  0
 23 19  2  0  0  0  0
 24 22  1  0  0  0  0
 26 27  2  0  0  0  0
 29 30  1  0  0  0  0
 29 26  1  0  0  0  0
 30 28  1  0  0  0  0
 31 34  1  0  0  0  0
 32 31  2  0  0  0  0
 32 33  1  0  0  0  0
 33 29  2  0  0  0  0
 34 30  2  0  0  0  0
M  END
>  <MODEL>
4

>  <REMARK>
 VINA RESULT:      -9.5      1.400      1.691
  Name = 
  3 active torsions:
  status: ('A' for Active; 'I' for Inactive)
    1  A    between atoms: C_3  and  C_13
    2  A    between atoms: C_12  and  C_28
    3  A    between atoms: C_17  and  C_29
                            x       y       z     vdW  Elec       q    Type
                         _______ _______ _______ _____ _____    ______ ____

>  <TORSDO>
F 3

$$$$
=
 OpenBabel11052414073D

 34 39  0  0  1  0  0  0  0  0999 V2000
  186.8180  177.3550  145.0400 C   0  0  0  0  0  0  0  0  0  0  0  0
  185.3270  179.3170  144.7440 C   0  0  0  0  0  0  0  0  0  0  0  0
  186.3590  178.1700  142.6780 C   0  0  0  0  0  0  0  0  0  0  0  0
  186.0070  178.5170  140.3330 N   0  0  0  0  0  0  0  0  0  0  0  0
  185.6720  178.2890  146.9510 C   0  0  0  0  0  3  0  0  0  0  0  0
  185.1830  179.3780  146.0750 C   0  0  0  0  0  3  0  0  0  0  0  0
  184.0810  178.7290  141.7360 C   0  0  0  0  0  2  0  0  0  0  0  0
  185.8520  178.0450  144.1020 C   0  0  1  0  0  3  0  0  0  0  0  0
  184.9420  178.8250  139.4080 C   0  0  0  0  0  2  0  0  0  0  0  0
  186.4710  177.3310  146.4680 C   0  0  0  0  0  3  0  0  0  0  0  0
  187.7510  177.7460  142.3370 C   0  0  0  0  0  0  0  0  0  0  0  0
  188.0180  176.9290  144.6440 C   0  0  0  0  0  3  0  0  0  0  0  0
  184.9310  180.4030  143.9720 O   0  0  0  0  0  1  0  0  0  0  0  0
  187.3670  178.2530  139.9810 C   0  0  0  0  0  3  0  0  0  0  0  0
  188.2470  177.8900  140.9270 C   0  0  0  0  0  0  0  0  0  0  0  0
  183.6840  178.9980  140.2780 C   0  0  1  0  0  3  0  0  0  0  0  0
  185.5390  178.4780  141.6620 C   0  0  0  0  0  0  0  0  0  0  0  0
  188.4880  177.1250  143.2650 C   0  0  0  0  0  3  0  0  0  0  0  0
  191.3240  177.0420  138.8590 C   0  0  0  0  0  0  0  0  0  0  0  0
  192.3370  177.1510  139.8140 C   0  0  0  0  0  3  0  0  0  0  0  0
  189.6630  177.6510  140.5330 C   0  0  0  0  0  0  0  0  0  0  0  0
  192.0220  177.5030  141.1280 C   0  0  0  0  0  3  0  0  0  0  0  0
  189.9960  177.2860  139.2180 C   0  0  0  0  0  3  0  0  0  0  0  0
  190.6930  177.7480  141.4850 C   0  0  0  0  0  3  0  0  0  0  0  0
  191.6280  176.6970  137.5850 F   0  0  0  0  0  0  0  0  0  0  0  0
  182.9410  176.7840  139.5250 C   0  0  0  0  0  3  0  0  0  0  0  0
  182.6270  178.0320  139.8650 C   0  0  0  0  0  3  0  0  0  0  0  0
  183.3210  175.1510  137.2230 O   0  0  0  0  0  1  0  0  0  0  0  0
  181.9330  175.7920  139.1110 C   0  0  0  0  0  0  0  0  0  0  0  0
  182.1570  175.0040  137.9690 C   0  0  0  0  0  0  0  0  0  0  0  0
  180.0280  173.8950  138.3050 C   0  0  0  0  0  3  0  0  0  0  0  0
  179.7990  174.6730  139.4420 C   0  0  0  0  0  3  0  0  0  0  0  0
  180.7470  175.6180  139.8440 C   0  0  0  0  0  3  0  0  0  0  0  0
  181.2050  174.0600  137.5710 C   0  0  0  0  0  3  0  0  0  0  0  0
  1 10  1  0  0  0  0
  2  6  2  0  0  0  0
  4 17  1  0  0  0  0
  6  5  1  0  0  0  0
  8  3  1  6  0  0  0
  8  2  1  0  0  0  0
  8  1  1  0  0  0  0
  9 16  1  0  0  0  0
  9  4  1  0  0  0  0
 10  5  2  0  0  0  0
 11  3  1  0  0  0  0
 11 18  2  0  0  0  0
 12  1  2  0  0  0  0
 13  2  1  0  0  0  0
 14  4  1  0  0  0  0
 14 15  2  0  0  0  0
 15 11  1  0  0  0  0
 16 27  1  6  0  0  0
 16  7  1  0  0  0  0
 17  7  1  0  0  0  0
 17  3  2  0  0  0  0
 18 12  1  0  0  0  0
 19 23  2  0  0  0  0
 19 20  1  0  0  0  0
 20 22  2  0  0  0  0
 21 15  1  0  0  0  0
 21 24  2  0  0  0  0
 22 24  1  0  0  0  0
 23 21  1  0  0  0  0
 25 19  1  0  0  0  0
 26 27  2  0  0  0  0
 28 30  1  0  0  0  0
 29 26  1  0  0  0  0
 29 33  1  0  0  0  0
 30 29  2  0  0  0  0
 31 32  1  0  0  0  0
 32 33  2  0  0  0  0
 34 30  1  0  0  0  0
 34 31  2  0  0  0  0
M  END
>  <MODEL>
5

>  <REMARK>
 VINA RESULT:      -9.5      3.328      6.730
  Name = 
  3 active torsions:
  status: ('A' for Active; 'I' for Inactive)
    1  A    between atoms: C_3  and  C_13
    2  A    between atoms: C_12  and  C_28
    3  A    between atoms: C_17  and  C_29
                            x       y       z     vdW  Elec       q    Type
                         _______ _______ _______ _____ _____    ______ ____

>  <TORSDO>
F 3

$$$$
=
 OpenBabel11052414073D

 34 39  0  0  1  0  0  0  0  0999 V2000
  191.6840  173.6780  136.7580 C   0  0  0  0  0  0  0  0  0  0  0  0
  193.1770  175.5570  137.3940 C   0  0  0  0  0  0  0  0  0  0  0  0
  190.6650  175.6670  137.9670 C   0  0  0  0  0  0  0  0  0  0  0  0
  189.4020  177.2490  139.2480 N   0  0  0  0  0  0  0  0  0  0  0  0
  194.0690  173.4780  136.4270 C   0  0  0  0  0  3  0  0  0  0  0  0
  194.2060  174.8910  136.8500 C   0  0  0  0  0  3  0  0  0  0  0  0
  191.6040  176.7590  140.0440 C   0  0  0  0  0  2  0  0  0  0  0  0
  191.8980  174.8130  137.7360 C   0  0  0  0  0  0  0  0  0  0  0  0
  189.5260  178.0620  140.4350 C   0  0  0  0  0  2  0  0  0  0  0  0
  192.8650  172.8990  136.3610 C   0  0  0  0  0  2  0  0  0  0  0  0
  189.4260  175.4280  137.1670 C   0  0  0  0  0  0  0  0  0  0  0  0
  190.5210  173.4770  136.1390 C   0  0  0  0  0  3  0  0  0  0  0  0
  193.3290  176.9050  137.6930 O   0  0  0  0  0  1  0  0  0  0  0  0
  188.2400  177.1520  138.4220 C   0  0  0  0  0  3  0  0  0  0  0  0
  188.2180  176.2910  137.3930 C   0  0  0  0  0  0  0  0  0  0  0  0
  190.9470  177.7960  140.9650 C   0  0  1  0  0  3  0  0  0  0  0  0
  190.5810  176.5170  139.0010 C   0  0  0  0  0  0  0  0  0  0  0  0
  189.3700  174.3670  136.3530 C   0  0  0  0  0  3  0  0  0  0  0  0
  184.8510  175.2470  135.9670 C   0  0  0  0  0  0  0  0  0  0  0  0
  184.7390  176.1040  134.8690 C   0  0  0  0  0  3  0  0  0  0  0  0
  187.0040  176.2350  136.5330 C   0  0  0  0  0  0  0  0  0  0  0  0
  185.7540  177.0210  134.5940 C   0  0  0  0  0  3  0  0  0  0  0  0
  185.9780  175.3100  136.7900 C   0  0  0  0  0  3  0  0  0  0  0  0
  186.8810  177.0840  135.4190 C   0  0  0  0  0  3  0  0  0  0  0  0
  183.8680  174.3540  136.2320 F   0  0  0  0  0  0  0  0  0  0  0  0
  190.4610  178.0210  143.3600 C   0  0  0  0  0  3  0  0  0  0  0  0
  190.8930  177.2630  142.3560 C   0  0  0  0  0  3  0  0  0  0  0  0
  188.0100  178.0390  144.8110 O   0  0  0  0  0  1  0  0  0  0  0  0
  190.3870  177.5390  144.7500 C   0  0  0  0  0  0  0  0  0  0  0  0
  189.1590  177.5630  145.4340 C   0  0  0  0  0  0  0  0  0  0  0  0
  190.2230  176.6230  147.3980 C   0  0  0  0  0  3  0  0  0  0  0  0
  191.4470  176.5950  146.7260 C   0  0  0  0  0  3  0  0  0  0  0  0
  191.5290  177.0500  145.4070 C   0  0  0  0  0  3  0  0  0  0  0  0
  189.0820  177.1060  146.7530 C   0  0  0  0  0  3  0  0  0  0  0  0
  1  8  1  0  0  0  0
  2 13  1  0  0  0  0
  2  8  2  0  0  0  0
  3 17  2  0  0  0  0
  4  9  1  0  0  0  0
  5  6  2  0  0  0  0
  6  2  1  0  0  0  0
  7 16  1  0  0  0  0
  8  3  1  0  0  0  0
  9 16  1  0  0  0  0
 10  5  1  0  0  0  0
 10  1  1  0  0  0  0
 11 15  1  0  0  0  0
 11  3  1  0  0  0  0
 12 18  1  0  0  0  0
 12  1  2  0  0  0  0
 14  4  1  0  0  0  0
 15 14  2  0  0  0  0
 16 27  1  1  0  0  0
 17  4  1  0  0  0  0
 17  7  1  0  0  0  0
 18 11  2  0  0  0  0
 19 25  1  0  0  0  0
 19 23  1  0  0  0  0
 20 19  2  0  0  0  0
 21 23  2  0  0  0  0
 21 15  1  0  0  0  0
 22 20  1  0  0  0  0
 22 24  2  0  0  0  0
 24 21  1  0  0  0  0
 26 29  1  0  0  0  0
 27 26  2  0  0  0  0
 28 30  1  0  0  0  0
 29 33  2  0  0  0  0
 29 30  1  0  0  0  0
 30 34  2  0  0  0  0
 32 31  2  0  0  0  0
 33 32  1  0  0  0  0
 34 31  1  0  0  0  0
M  END
>  <MODEL>
6

>  <REMARK>
 VINA RESULT:      -9.0      4.641      9.712
  Name = 
  3 active torsions:
  status: ('A' for Active; 'I' for Inactive)
    1  A    between atoms: C_3  and  C_13
    2  A    between atoms: C_12  and  C_28
    3  A    between atoms: C_17  and  C_29
                            x       y       z     vdW  Elec       q    Type
                         _______ _______ _______ _____ _____    ______ ____

>  <TORSDO>
F 3

$$$$
=
 OpenBabel11052414073D

 34 39  0  0  1  0  0  0  0  0999 V2000
  186.2830  177.5010  143.4910 C   0  0  0  0  0  0  0  0  0  0  0  0
  186.9050  179.0660  141.6670 C   0  0  0  0  0  0  0  0  0  0  0  0
  188.6820  177.4780  142.6530 C   0  0  0  0  0  0  0  0  0  0  0  0
  190.9440  177.0340  142.0010 N   0  0  0  0  0  0  0  0  0  0  0  0
  184.5730  178.8250  142.4130 C   0  0  0  0  0  3  0  0  0  0  0  0
  185.6420  179.5170  141.6560 C   0  0  0  0  0  3  0  0  0  0  0  0
  189.3870  177.4200  140.2270 C   0  0  0  0  0  2  0  0  0  0  0  0
  187.2220  177.7360  142.3280 C   0  0  1  0  0  3  0  0  0  0  0  0
  191.7450  176.9010  140.8070 C   0  0  0  0  0  2  0  0  0  0  0  0
  184.8740  177.8750  143.3060 C   0  0  0  0  0  3  0  0  0  0  0  0
  189.0920  177.1520  144.0520 C   0  0  0  0  0  0  0  0  0  0  0  0
  186.7160  177.1320  144.6960 C   0  0  0  0  0  3  0  0  0  0  0  0
  187.8880  179.7990  141.0130 O   0  0  0  0  0  1  0  0  0  0  0  0
  191.4080  176.8510  143.3400 C   0  0  0  0  0  3  0  0  0  0  0  0
  190.5420  176.9160  144.3640 C   0  0  0  0  0  0  0  0  0  0  0  0
  190.7820  177.1710  139.6370 C   0  0  1  0  0  3  0  0  0  0  0  0
  189.6060  177.3480  141.6900 C   0  0  0  0  0  0  0  0  0  0  0  0
  188.1480  176.9490  144.9780 C   0  0  0  0  0  3  0  0  0  0  0  0
  191.1270  177.4410  148.0850 C   0  0  0  0  0  0  0  0  0  0  0  0
  192.0850  176.4610  148.3550 C   0  0  0  0  0  3  0  0  0  0  0  0
  191.0600  176.7510  145.7500 C   0  0  0  0  0  0  0  0  0  0  0  0
  192.5380  175.6280  147.3310 C   0  0  0  0  0  3  0  0  0  0  0  0
  190.6220  177.5870  146.7910 C   0  0  0  0  0  3  0  0  0  0  0  0
  192.0310  175.7740  146.0360 C   0  0  0  0  0  3  0  0  0  0  0  0
  190.6900  178.2530  149.0770 F   0  0  0  0  0  0  0  0  0  0  0  0
  191.8010  175.6370  138.0160 C   0  0  0  0  0  3  0  0  0  0  0  0
  190.7320  175.9970  138.7210 C   0  0  0  0  0  3  0  0  0  0  0  0
  194.1570  174.1030  137.5600 O   0  0  0  0  0  1  0  0  0  0  0  0
  191.8020  174.4830  137.1000 C   0  0  0  0  0  0  0  0  0  0  0  0
  192.9840  173.7500  136.9000 C   0  0  0  0  0  0  0  0  0  0  0  0
  191.8260  172.2810  135.3600 C   0  0  0  0  0  3  0  0  0  0  0  0
  190.6470  173.0030  135.5530 C   0  0  0  0  0  3  0  0  0  0  0  0
  190.6340  174.0990  136.4190 C   0  0  0  0  0  3  0  0  0  0  0  0
  192.9920  172.6530  136.0330 C   0  0  0  0  0  3  0  0  0  0  0  0
  1 12  2  0  0  0  0
  3 11  1  0  0  0  0
  4 14  1  0  0  0  0
  5 10  2  0  0  0  0
  6  2  2  0  0  0  0
  6  5  1  0  0  0  0
  7 17  1  0  0  0  0
  8  2  1  1  0  0  0
  8  3  1  0  0  0  0
  8  1  1  0  0  0  0
  9  4  1  0  0  0  0
 10  1  1  0  0  0  0
 11 15  1  0  0  0  0
 11 18  2  0  0  0  0
 12 18  1  0  0  0  0
 13  2  1  0  0  0  0
 14 15  2  0  0  0  0
 15 21  1  0  0  0  0
 16 27  1  6  0  0  0
 16  7  1  0  0  0  0
 16  9  1  0  0  0  0
 17  4  1  0  0  0  0
 17  3  2  0  0  0  0
 19 20  1  0  0  0  0
 19 25  1  0  0  0  0
 21 24  2  0  0  0  0
 21 23  1  0  0  0  0
 22 20  2  0  0  0  0
 23 19  2  0  0  0  0
 24 22  1  0  0  0  0
 26 27  2  0  0  0  0
 29 26  1  0  0  0  0
 30 29  1  0  0  0  0
 30 28  1  0  0  0  0
 31 32  2  0  0  0  0
 31 34  1  0  0  0  0
 32 33  1  0  0  0  0
 33 29  2  0  0  0  0
 34 30  2  0  0  0  0
M  END
>  <MODEL>
7

>  <REMARK>
 VINA RESULT:      -8.5      2.991      4.532
  Name = 
  3 active torsions:
  status: ('A' for Active; 'I' for Inactive)
    1  A    between atoms: C_3  and  C_13
    2  A    between atoms: C_12  and  C_28
    3  A    between atoms: C_17  and  C_29
                            x       y       z     vdW  Elec       q    Type
                         _______ _______ _______ _____ _____    ______ ____

>  <TORSDO>
F 3

$$$$
=
 OpenBabel11052414073D

 34 39  0  0  1  0  0  0  0  0999 V2000
  187.1350  176.3180  136.3410 C   0  0  0  0  0  0  0  0  0  0  0  0
  188.6950  178.1650  136.9020 C   0  0  0  0  0  0  0  0  0  0  0  0
  186.6390  177.7280  138.3950 C   0  0  0  0  0  0  0  0  0  0  0  0
  185.9640  178.6940  140.4820 N   0  0  0  0  0  0  0  0  0  0  0  0
  189.1780  176.5860  135.0790 C   0  0  0  0  0  3  0  0  0  0  0  0
  189.4300  177.8380  135.8290 C   0  0  0  0  0  3  0  0  0  0  0  0
  188.3130  178.3550  140.1820 C   0  0  0  0  0  2  0  0  0  0  0  0
  187.6950  177.1690  137.4600 C   0  0  0  0  0  0  0  0  0  0  0  0
  186.5390  179.1680  141.7190 C   0  0  0  0  0  2  0  0  0  0  0  0
  188.0720  175.8670  135.3030 C   0  0  0  0  0  2  0  0  0  0  0  0
  185.1890  177.5240  138.0980 C   0  0  0  0  0  0  0  0  0  0  0  0
  185.8270  176.1130  136.1840 C   0  0  0  0  0  3  0  0  0  0  0  0
  188.9130  179.3910  137.5190 O   0  0  0  0  0  1  0  0  0  0  0  0
  184.5690  178.6430  140.1770 C   0  0  0  0  0  3  0  0  0  0  0  0
  184.1540  178.0970  139.0230 C   0  0  0  0  0  0  0  0  0  0  0  0
  188.0600  178.9930  141.5550 C   0  0  1  0  0  3  0  0  0  0  0  0
  186.9600  178.2460  139.5900 C   0  0  0  0  0  0  0  0  0  0  0  0
  184.8380  176.7250  137.0840 C   0  0  0  0  0  3  0  0  0  0  0  0
  180.4880  177.0850  138.9600 C   0  0  0  0  0  0  0  0  0  0  0  0
  179.9520  178.0460  138.1000 C   0  0  0  0  0  3  0  0  0  0  0  0
  182.6960  178.0860  138.7200 C   0  0  0  0  0  0  0  0  0  0  0  0
  180.7780  179.0230  137.5430 C   0  0  0  0  0  3  0  0  0  0  0  0
  181.8520  177.1030  139.2640 C   0  0  0  0  0  3  0  0  0  0  0  0
  182.1420  179.0410  137.8500 C   0  0  0  0  0  3  0  0  0  0  0  0
  179.6880  176.1340  139.4970 F   0  0  0  0  0  0  0  0  0  0  0  0
  189.3290  178.6020  143.6180 C   0  0  0  0  0  3  0  0  0  0  0  0
  188.6000  178.1050  142.6230 C   0  0  0  0  0  3  0  0  0  0  0  0
  191.8850  177.3680  143.3790 O   0  0  0  0  0  1  0  0  0  0  0  0
  189.8830  177.7660  144.6970 C   0  0  0  0  0  0  0  0  0  0  0  0
  191.1490  177.1730  144.5430 C   0  0  0  0  0  0  0  0  0  0  0  0
  190.9590  176.1700  146.7400 C   0  0  0  0  0  3  0  0  0  0  0  0
  189.7010  176.7550  146.9030 C   0  0  0  0  0  3  0  0  0  0  0  0
  189.1650  177.5500  145.8860 C   0  0  0  0  0  3  0  0  0  0  0  0
  191.6810  176.3790  145.5630 C   0  0  0  0  0  3  0  0  0  0  0  0
  1  8  1  0  0  0  0
  2  8  2  0  0  0  0
  2 13  1  0  0  0  0
  3 17  2  0  0  0  0
  4  9  1  0  0  0  0
  5 10  1  0  0  0  0
  5  6  2  0  0  0  0
  6  2  1  0  0  0  0
  7 16  1  0  0  0  0
  8  3  1  0  0  0  0
 10  1  1  0  0  0  0
 11  3  1  0  0  0  0
 11 15  1  0  0  0  0
 12  1  2  0  0  0  0
 12 18  1  0  0  0  0
 14  4  1  0  0  0  0
 15 14  2  0  0  0  0
 16  9  1  0  0  0  0
 16 27  1  1  0  0  0
 17  7  1  0  0  0  0
 17  4  1  0  0  0  0
 18 11  2  0  0  0  0
 19 23  1  0  0  0  0
 19 25  1  0  0  0  0
 20 19  2  0  0  0  0
 21 15  1  0  0  0  0
 21 23  2  0  0  0  0
 22 24  2  0  0  0  0
 22 20  1  0  0  0  0
 24 21  1  0  0  0  0
 26 29  1  0  0  0  0
 27 26  2  0  0  0  0
 28 30  1  0  0  0  0
 29 33  1  0  0  0  0
 30 29  2  0  0  0  0
 30 34  1  0  0  0  0
 31 32  1  0  0  0  0
 33 32  2  0  0  0  0
 34 31  2  0  0  0  0
M  END
>  <MODEL>
8

>  <REMARK>
 VINA RESULT:      -8.5      3.185      7.595
  Name = 
  3 active torsions:
  status: ('A' for Active; 'I' for Inactive)
    1  A    between atoms: C_3  and  C_13
    2  A    between atoms: C_12  and  C_28
    3  A    between atoms: C_17  and  C_29
                            x       y       z     vdW  Elec       q    Type
                         _______ _______ _______ _____ _____    ______ ____

>  <TORSDO>
F 3

$$$$
=
 OpenBabel11052414073D

 34 39  0  0  1  0  0  0  0  0999 V2000
  186.1680  177.5030  143.4840 C   0  0  0  0  0  0  0  0  0  0  0  0
  186.7930  179.0440  141.6410 C   0  0  0  0  0  0  0  0  0  0  0  0
  188.5650  177.4610  142.6420 C   0  0  0  0  0  0  0  0  0  0  0  0
  190.8250  177.0000  141.9910 N   0  0  0  0  0  0  0  0  0  0  0  0
  184.4620  178.8220  142.3930 C   0  0  0  0  0  3  0  0  0  0  0  0
  185.5320  179.5010  141.6270 C   0  0  0  0  0  3  0  0  0  0  0  0
  189.2650  177.3720  140.2150 C   0  0  0  0  0  2  0  0  0  0  0  0
  187.1060  177.7210  142.3160 C   0  0  1  0  0  3  0  0  0  0  0  0
  191.6230  176.8500  140.7970 C   0  0  0  0  0  2  0  0  0  0  0  0
  184.7610  177.8810  143.2970 C   0  0  0  0  0  3  0  0  0  0  0  0
  188.9760  177.1490  144.0440 C   0  0  0  0  0  0  0  0  0  0  0  0
  186.6020  177.1460  144.6920 C   0  0  0  0  0  3  0  0  0  0  0  0
  187.7780  179.7660  140.9770 O   0  0  0  0  0  1  0  0  0  0  0  0
  191.2890  176.8300  143.3310 C   0  0  0  0  0  3  0  0  0  0  0  0
  190.4260  176.9100  144.3560 C   0  0  0  0  0  0  0  0  0  0  0  0
  190.6580  177.1110  139.6260 C   0  0  1  0  0  3  0  0  0  0  0  0
  189.4870  177.3160  141.6790 C   0  0  0  0  0  0  0  0  0  0  0  0
  188.0330  176.9610  144.9740 C   0  0  0  0  0  3  0  0  0  0  0  0
  190.9850  177.4460  148.0790 C   0  0  0  0  0  0  0  0  0  0  0  0
  191.9730  176.4960  148.3500 C   0  0  0  0  0  3  0  0  0  0  0  0
  190.9460  176.7590  145.7430 C   0  0  0  0  0  0  0  0  0  0  0  0
  192.4560  175.6810  147.3240 C   0  0  0  0  0  3  0  0  0  0  0  0
  190.4780  177.5780  146.7840 C   0  0  0  0  0  3  0  0  0  0  0  0
  191.9470  175.8130  146.0290 C   0  0  0  0  0  3  0  0  0  0  0  0
  190.5190  178.2400  149.0720 F   0  0  0  0  0  0  0  0  0  0  0  0
  189.6780  175.8390  137.7700 C   0  0  0  0  0  3  0  0  0  0  0  0
  190.6020  175.9260  138.7230 C   0  0  0  0  0  3  0  0  0  0  0  0
  187.1720  174.6330  137.1540 O   0  0  0  0  0  1  0  0  0  0  0  0
  189.5830  174.6900  136.8530 C   0  0  0  0  0  0  0  0  0  0  0  0
  188.3280  174.1220  136.5730 C   0  0  0  0  0  0  0  0  0  0  0  0
  189.3770  172.5020  135.1070 C   0  0  0  0  0  3  0  0  0  0  0  0
  190.6280  173.0610  135.3790 C   0  0  0  0  0  3  0  0  0  0  0  0
  190.7310  174.1500  136.2480 C   0  0  0  0  0  3  0  0  0  0  0  0
  188.2300  173.0320  135.7020 C   0  0  0  0  0  3  0  0  0  0  0  0
  1 12  2  0  0  0  0
  3 11  1  0  0  0  0
  4 14  1  0  0  0  0
  5 10  2  0  0  0  0
  6  2  2  0  0  0  0
  6  5  1  0  0  0  0
  7 17  1  0  0  0  0
  8  2  1  1  0  0  0
  8  3  1  0  0  0  0
  8  1  1  0  0  0  0
  9  4  1  0  0  0  0
 10  1  1  0  0  0  0
 11 15  1  0  0  0  0
 11 18  2  0  0  0  0
 12 18  1  0  0  0  0
 13  2  1  0  0  0  0
 14 15  2  0  0  0  0
 15 21  1  0  0  0  0
 16 27  1  6  0  0  0
 16  7  1  0  0  0  0
 16  9  1  0  0  0  0
 17  4  1  0  0  0  0
 17  3  2  0  0  0  0
 19 20  1  0  0  0  0
 19 25  1  0  0  0  0
 21 24  2  0  0  0  0
 21 23  1  0  0  0  0
 22 20  2  0  0  0  0
 23 19  2  0  0  0  0
 24 22  1  0  0  0  0
 26 27  2  0  0  0  0
 29 26  1  0  0  0  0
 30 29  1  0  0  0  0
 30 28  1  0  0  0  0
 31 32  2  0  0  0  0
 31 34  1  0  0  0  0
 32 33  1  0  0  0  0
 33 29  2  0  0  0  0
 34 30  2  0  0  0  0
M  END
>  <MODEL>
9

>  <REMARK>
 VINA RESULT:      -8.4      2.840      4.374
  Name = 
  3 active torsions:
  status: ('A' for Active; 'I' for Inactive)
    1  A    between atoms: C_3  and  C_13
    2  A    between atoms: C_12  and  C_28
    3  A    between atoms: C_17  and  C_29
                            x       y       z     vdW  Elec       q    Type
                         _______ _______ _______ _____ _____    ______ ____

>  <TORSDO>
F 3

$$$$
