=
 OpenBabel11052415483D

 34 39  0  0  1  0  0  0  0  0999 V2000
  184.7610  178.7640  138.7070 C   0  0  0  0  0  2  0  0  0  0  0  0
  183.5160  178.3200  140.8370 C   0  0  0  0  0  0  0  0  0  0  0  0
  184.4840  178.9840  140.1760 C   0  0  0  0  0  3  0  0  0  0  0  0
  183.0880  176.9200  138.9160 C   0  0  0  0  0  0  0  0  0  0  0  0
  182.4160  176.0030  138.0990 N   0  0  0  0  0  0  0  0  0  0  0  0
  182.7310  177.2750  140.1460 C   0  0  0  0  0  3  0  0  0  0  0  0
  184.2240  177.0580  136.9240 N   0  0  0  0  0  0  0  0  0  0  0  0
  184.1690  177.5060  138.2520 N   0  0  0  0  0  0  0  0  0  0  0  0
  183.1400  176.0500  136.8260 C   0  0  0  0  0  3  0  0  0  0  0  0
  185.4340  176.3640  136.7750 N   0  0  0  0  0  2  0  0  0  0  0  0
  187.5170  177.5110  136.8890 C   0  0  2  0  0  3  0  0  0  0  0  0
  190.8010  176.2310  138.1680 C   0  0  0  0  0  0  0  0  0  0  0  0
  190.5940  176.0120  139.3910 O   0  0  0  0  0  0  0  0  0  0  0  0
  188.3630  176.7660  137.8950 C   0  0  0  0  0  2  0  0  0  0  0  0
  192.1850  176.0660  137.6360 C   0  0  0  0  0  1  0  0  0  0  0  0
  189.7190  176.6260  137.3100 N   0  0  0  0  0  0  0  0  0  0  0  0
  189.9700  176.8170  135.8520 C   0  0  0  0  0  2  0  0  0  0  0  0
  186.3460  177.2420  136.0590 C   0  0  1  0  0  3  0  0  0  0  0  0
  188.6790  177.1630  135.0640 C   0  0  0  0  0  2  0  0  0  0  0  0
  187.5870  176.5340  135.7770 N   0  0  1  0  0  0  0  0  0  0  0  0
  183.2250  178.5820  142.2190 N   0  0  0  0  0  2  0  0  0  0  0  0
  184.5850  178.7880  145.7220 C   0  0  0  0  0  3  0  0  0  0  0  0
  185.3910  177.9790  143.1640 C   0  0  0  0  0  3  0  0  0  0  0  0
  188.0450  177.6390  146.4180 C   0  0  0  0  0  0  0  0  0  0  0  0
  186.7510  178.1560  146.6050 C   0  0  0  0  0  3  0  0  0  0  0  0
  185.8680  178.2700  145.5300 C   0  0  0  0  0  0  0  0  0  0  0  0
  187.5560  177.3470  144.0470 C   0  0  0  0  0  3  0  0  0  0  0  0
  186.2740  177.8630  144.2400 C   0  0  0  0  0  0  0  0  0  0  0  0
  188.4350  177.2360  145.1290 C   0  0  0  0  0  3  0  0  0  0  0  0
  184.1030  178.4960  143.3540 C   0  0  0  0  0  0  0  0  0  0  0  0
  183.7080  178.8980  144.6400 C   0  0  0  0  0  3  0  0  0  0  0  0
  188.9520  177.5190  147.5290 N   0  0  0  0  0  0  0  0  0  0  0  0
  190.2010  176.7800  147.4060 C   0  0  0  0  0  1  0  0  0  0  0  0
  188.6590  178.1340  148.8150 C   0  0  0  0  0  1  0  0  0  0  0  0
  1  3  1  0  0  0  0
  2 21  1  0  0  0  0
  3  2  2  0  0  0  0
  4  6  2  0  0  0  0
  5  4  1  0  0  0  0
  6  2  1  0  0  0  0
  7  8  1  0  0  0  0
  8  1  1  0  0  0  0
  8  4  1  0  0  0  0
  9  7  1  0  0  0  0
  9  5  2  0  0  0  0
 10  7  1  0  0  0  0
 11 14  1  1  0  0  0
 12 13  2  0  0  0  0
 15 12  1  0  0  0  0
 16 14  1  0  0  0  0
 16 12  1  0  0  0  0
 17 16  1  0  0  0  0
 18 10  1  1  0  0  0
 18 11  1  0  0  0  0
 19 17  1  0  0  0  0
 20 19  1  6  0  0  0
 20 18  1  0  0  0  0
 20 11  1  0  0  0  0
 21 30  1  0  0  0  0
 23 30  2  0  0  0  0
 23 28  1  0  0  0  0
 24 25  1  0  0  0  0
 24 32  1  0  0  0  0
 26 22  1  0  0  0  0
 26 25  2  0  0  0  0
 27 28  2  0  0  0  0
 27 29  1  0  0  0  0
 28 26  1  0  0  0  0
 29 24  2  0  0  0  0
 30 31  1  0  0  0  0
 31 22  2  0  0  0  0
 32 34  1  0  0  0  0
 33 32  1  0  0  0  0
M  END
>  <MODEL>
1

>  <REMARK>
 VINA RESULT:      -9.8      0.000      0.000
  Name = 
  5 active torsions:
  status: ('A' for Active; 'I' for Inactive)
    1  A    between atoms: N_5  and  N_19
    2  A    between atoms: N_5  and  C_32
    3  A    between atoms: C_7  and  N_11
    4  A    between atoms: C_8  and  N_18
    5  A    between atoms: N_18  and  C_30
                            x       y       z     vdW  Elec       q    Type
                         _______ _______ _______ _____ _____    ______ ____

>  <TORSDO>
F 5

$$$$
=
 OpenBabel11052415483D

 34 39  0  0  1  0  0  0  0  0999 V2000
  184.4620  179.0070  141.6580 C   0  0  0  0  0  2  0  0  0  0  0  0
  184.0670  179.0580  144.1330 C   0  0  0  0  0  0  0  0  0  0  0  0
  184.9260  179.0420  143.0960 C   0  0  0  0  0  3  0  0  0  0  0  0
  182.1870  178.7250  142.6530 C   0  0  0  0  0  0  0  0  0  0  0  0
  180.8510  178.6720  142.2400 N   0  0  0  0  0  0  0  0  0  0  0  0
  182.6110  178.9600  143.8900 C   0  0  0  0  0  3  0  0  0  0  0  0
  182.3500  178.4950  140.3730 N   0  0  0  0  0  0  0  0  0  0  0  0
  183.0660  178.5790  141.5760 N   0  0  0  0  0  0  0  0  0  0  0  0
  180.9250  178.4960  140.7870 C   0  0  0  0  0  3  0  0  0  0  0  0
  182.6100  177.2290  139.8280 N   0  0  0  0  0  2  0  0  0  0  0  0
  183.7110  178.1440  137.9260 C   0  0  2  0  0  3  0  0  0  0  0  0
  187.3780  178.1320  137.1450 C   0  0  0  0  0  0  0  0  0  0  0  0
  187.8940  178.8250  138.0620 O   0  0  0  0  0  0  0  0  0  0  0  0
  185.1630  178.3130  138.3120 C   0  0  0  0  0  2  0  0  0  0  0  0
  188.2510  177.6520  136.0350 C   0  0  0  0  0  1  0  0  0  0  0  0
  185.9780  177.8130  137.1780 N   0  0  0  0  0  0  0  0  0  0  0  0
  185.4000  176.9380  136.1180 C   0  0  0  0  0  2  0  0  0  0  0  0
  182.5620  177.3670  138.3810 C   0  0  1  0  0  3  0  0  0  0  0  0
  183.8970  176.6310  136.3520 C   0  0  0  0  0  2  0  0  0  0  0  0
  183.6920  176.6700  137.7850 N   0  0  1  0  0  0  0  0  0  0  0  0
  184.5210  179.1500  145.4930 N   0  0  0  0  0  2  0  0  0  0  0  0
  187.2310  178.2740  147.9530 C   0  0  0  0  0  3  0  0  0  0  0  0
  186.7530  178.2170  145.1930 C   0  0  0  0  0  3  0  0  0  0  0  0
  190.4280  176.8420  146.7270 C   0  0  0  0  0  0  0  0  0  0  0  0
  189.4340  177.3310  147.5920 C   0  0  0  0  0  3  0  0  0  0  0  0
  188.2140  177.7870  147.0880 C   0  0  0  0  0  0  0  0  0  0  0  0
  188.9550  177.2730  144.8320 C   0  0  0  0  0  3  0  0  0  0  0  0
  187.9730  177.7590  145.6970 C   0  0  0  0  0  0  0  0  0  0  0  0
  190.1740  176.8190  145.3440 C   0  0  0  0  0  3  0  0  0  0  0  0
  185.7650  178.7040  146.0580 C   0  0  0  0  0  0  0  0  0  0  0  0
  186.0130  178.7280  147.4400 C   0  0  0  0  0  3  0  0  0  0  0  0
  191.6840  176.3690  147.2490 N   0  0  0  0  0  0  0  0  0  0  0  0
  192.2340  176.9020  148.4870 C   0  0  0  0  0  1  0  0  0  0  0  0
  192.4470  175.3380  146.5620 C   0  0  0  0  0  1  0  0  0  0  0  0
  1  3  1  0  0  0  0
  2 21  1  0  0  0  0
  3  2  2  0  0  0  0
  4  6  2  0  0  0  0
  5  4  1  0  0  0  0
  6  2  1  0  0  0  0
  7  9  1  0  0  0  0
  7  8  1  0  0  0  0
  8  1  1  0  0  0  0
  8  4  1  0  0  0  0
  9  5  2  0  0  0  0
 10  7  1  0  0  0  0
 11 14  1  1  0  0  0
 11 18  1  0  0  0  0
 12 16  1  0  0  0  0
 12 13  2  0  0  0  0
 15 12  1  0  0  0  0
 16 14  1  0  0  0  0
 17 19  1  0  0  0  0
 17 16  1  0  0  0  0
 18 10  1  1  0  0  0
 20 19  1  6  0  0  0
 20 11  1  0  0  0  0
 20 18  1  0  0  0  0
 21 30  1  0  0  0  0
 23 28  2  0  0  0  0
 23 30  1  0  0  0  0
 24 32  1  0  0  0  0
 24 25  2  0  0  0  0
 26 25  1  0  0  0  0
 26 22  2  0  0  0  0
 27 29  2  0  0  0  0
 27 28  1  0  0  0  0
 28 26  1  0  0  0  0
 29 24  1  0  0  0  0
 30 31  2  0  0  0  0
 31 22  1  0  0  0  0
 32 33  1  0  0  0  0
 34 32  1  0  0  0  0
M  END
>  <MODEL>
2

>  <REMARK>
 VINA RESULT:      -9.4      1.898      3.754
  Name = 
  5 active torsions:
  status: ('A' for Active; 'I' for Inactive)
    1  A    between atoms: N_5  and  N_19
    2  A    between atoms: N_5  and  C_32
    3  A    between atoms: C_7  and  N_11
    4  A    between atoms: C_8  and  N_18
    5  A    between atoms: N_18  and  C_30
                            x       y       z     vdW  Elec       q    Type
                         _______ _______ _______ _____ _____    ______ ____

>  <TORSDO>
F 5

$$$$
=
 OpenBabel11052415483D

 34 39  0  0  1  0  0  0  0  0999 V2000
  190.7000  176.8350  141.5580 C   0  0  0  0  0  2  0  0  0  0  0  0
  188.6280  177.5160  142.7930 C   0  0  0  0  0  0  0  0  0  0  0  0
  189.8010  176.8550  142.7720 C   0  0  0  0  0  3  0  0  0  0  0  0
  188.8050  178.0180  140.4380 C   0  0  0  0  0  0  0  0  0  0  0  0
  188.5190  178.6360  139.2150 N   0  0  0  0  0  0  0  0  0  0  0  0
  188.1360  178.1910  141.5720 C   0  0  0  0  0  3  0  0  0  0  0  0
  190.5430  177.3510  139.0910 N   0  0  0  0  0  0  0  0  0  0  0  0
  189.9600  177.2340  140.3610 N   0  0  0  0  0  0  0  0  0  0  0  0
  189.6010  178.2030  138.3250 C   0  0  0  0  0  3  0  0  0  0  0  0
  190.5060  176.0790  138.5020 N   0  0  0  0  0  2  0  0  0  0  0  0
  192.6880  176.2640  137.5670 C   0  0  2  0  0  3  0  0  0  0  0  0
  195.8070  174.4530  138.5890 C   0  0  0  0  0  0  0  0  0  0  0  0
  196.0290  174.8530  139.7630 O   0  0  0  0  0  0  0  0  0  0  0  0
  193.6460  175.7310  138.6060 C   0  0  0  0  0  2  0  0  0  0  0  0
  196.8110  173.5630  137.9360 C   0  0  0  0  0  1  0  0  0  0  0  0
  194.6100  174.8490  137.9020 N   0  0  0  0  0  0  0  0  0  0  0  0
  194.3350  174.3140  136.5380 C   0  0  0  0  0  2  0  0  0  0  0  0
  191.2640  176.1570  137.2630 C   0  0  1  0  0  3  0  0  0  0  0  0
  192.9640  174.7790  135.9790 C   0  0  0  0  0  2  0  0  0  0  0  0
  192.1030  174.9760  137.1270 N   0  0  1  0  0  0  0  0  0  0  0  0
  187.8110  177.5750  143.9740 N   0  0  0  0  0  2  0  0  0  0  0  0
  184.5160  178.7090  145.3960 C   0  0  0  0  0  3  0  0  0  0  0  0
  185.6400  177.9730  142.9380 C   0  0  0  0  0  3  0  0  0  0  0  0
  181.5910  179.1180  143.1490 C   0  0  0  0  0  0  0  0  0  0  0  0
  182.3880  179.1020  144.3070 C   0  0  0  0  0  3  0  0  0  0  0  0
  183.7310  178.7250  144.2410 C   0  0  0  0  0  0  0  0  0  0  0  0
  183.5120  178.3680  141.8480 C   0  0  0  0  0  3  0  0  0  0  0  0
  184.2970  178.3530  143.0030 C   0  0  0  0  0  0  0  0  0  0  0  0
  182.1690  178.7470  141.9220 C   0  0  0  0  0  3  0  0  0  0  0  0
  186.4300  177.9590  144.0930 C   0  0  0  0  0  0  0  0  0  0  0  0
  185.8590  178.3300  145.3210 C   0  0  0  0  0  3  0  0  0  0  0  0
  180.2080  179.5120  143.2180 N   0  0  0  0  0  0  0  0  0  0  0  0
  179.3460  179.0510  144.2980 C   0  0  0  0  0  1  0  0  0  0  0  0
  179.6200  180.3870  142.2160 C   0  0  0  0  0  1  0  0  0  0  0  0
  1  3  1  0  0  0  0
  2 21  1  0  0  0  0
  3  2  2  0  0  0  0
  4  6  2  0  0  0  0
  5  4  1  0  0  0  0
  6  2  1  0  0  0  0
  7  8  1  0  0  0  0
  8  4  1  0  0  0  0
  8  1  1  0  0  0  0
  9  7  1  0  0  0  0
  9  5  2  0  0  0  0
 10  7  1  0  0  0  0
 11 14  1  1  0  0  0
 12 13  2  0  0  0  0
 15 12  1  0  0  0  0
 16 12  1  0  0  0  0
 16 14  1  0  0  0  0
 17 16  1  0  0  0  0
 18 11  1  0  0  0  0
 18 10  1  1  0  0  0
 19 17  1  0  0  0  0
 20 19  1  6  0  0  0
 20 18  1  0  0  0  0
 20 11  1  0  0  0  0
 21 30  1  0  0  0  0
 23 28  2  0  0  0  0
 23 30  1  0  0  0  0
 24 32  1  0  0  0  0
 24 25  2  0  0  0  0
 26 25  1  0  0  0  0
 26 22  2  0  0  0  0
 27 29  2  0  0  0  0
 27 28  1  0  0  0  0
 28 26  1  0  0  0  0
 29 24  1  0  0  0  0
 30 31  2  0  0  0  0
 31 22  1  0  0  0  0
 32 33  1  0  0  0  0
 34 32  1  0  0  0  0
M  END
>  <MODEL>
3

>  <REMARK>
 VINA RESULT:      -9.3      3.221      6.017
  Name = 
  5 active torsions:
  status: ('A' for Active; 'I' for Inactive)
    1  A    between atoms: N_5  and  N_19
    2  A    between atoms: N_5  and  C_32
    3  A    between atoms: C_7  and  N_11
    4  A    between atoms: C_8  and  N_18
    5  A    between atoms: N_18  and  C_30
                            x       y       z     vdW  Elec       q    Type
                         _______ _______ _______ _____ _____    ______ ____

>  <TORSDO>
F 5

$$$$
=
 OpenBabel11052415483D

 34 39  0  0  1  0  0  0  0  0999 V2000
  183.2750  178.5830  141.2830 C   0  0  0  0  0  2  0  0  0  0  0  0
  183.1190  178.9550  143.7570 C   0  0  0  0  0  0  0  0  0  0  0  0
  183.8720  178.7300  142.6630 C   0  0  0  0  0  3  0  0  0  0  0  0
  181.0860  178.6570  142.4870 C   0  0  0  0  0  0  0  0  0  0  0  0
  179.7180  178.7000  142.1940 N   0  0  0  0  0  0  0  0  0  0  0  0
  181.6440  178.9840  143.6480 C   0  0  0  0  0  3  0  0  0  0  0  0
  181.0120  178.1550  140.2470 N   0  0  0  0  0  0  0  0  0  0  0  0
  181.8430  178.2980  141.3680 N   0  0  0  0  0  0  0  0  0  0  0  0
  179.6390  178.3540  140.7720 C   0  0  0  0  0  3  0  0  0  0  0  0
  181.0970  176.8150  139.8410 N   0  0  0  0  0  2  0  0  0  0  0  0
  182.2810  176.1830  137.8740 C   0  0  2  0  0  3  0  0  0  0  0  0
  184.1040  172.9770  137.1970 C   0  0  0  0  0  0  0  0  0  0  0  0
  185.0410  172.9690  138.0390 O   0  0  0  0  0  0  0  0  0  0  0  0
  183.2110  175.0610  138.2750 C   0  0  0  0  0  2  0  0  0  0  0  0
  184.0510  171.8910  136.1750 C   0  0  0  0  0  1  0  0  0  0  0  0
  183.1100  174.0130  137.2310 N   0  0  0  0  0  0  0  0  0  0  0  0
  181.9720  173.9700  136.2670 C   0  0  0  0  0  2  0  0  0  0  0  0
  181.0640  176.8040  138.3870 C   0  0  1  0  0  3  0  0  0  0  0  0
  180.9530  175.1170  136.4950 C   0  0  0  0  0  2  0  0  0  0  0  0
  181.0050  175.4310  137.9080 N   0  0  1  0  0  0  0  0  0  0  0  0
  183.7050  179.1510  145.0540 N   0  0  0  0  0  2  0  0  0  0  0  0
  186.5870  178.3050  147.3220 C   0  0  0  0  0  3  0  0  0  0  0  0
  185.9430  178.2980  144.5960 C   0  0  0  0  0  3  0  0  0  0  0  0
  189.7450  177.0070  145.8690 C   0  0  0  0  0  0  0  0  0  0  0  0
  188.7910  177.4430  146.8050 C   0  0  0  0  0  3  0  0  0  0  0  0
  187.5290  177.8710  146.3870 C   0  0  0  0  0  0  0  0  0  0  0  0
  188.1460  177.4350  144.0780 C   0  0  0  0  0  3  0  0  0  0  0  0
  187.2040  177.8680  145.0130 C   0  0  0  0  0  0  0  0  0  0  0  0
  189.4080  177.0090  144.5040 C   0  0  0  0  0  3  0  0  0  0  0  0
  184.9950  178.7320  145.5310 C   0  0  0  0  0  0  0  0  0  0  0  0
  185.3260  178.7320  146.8960 C   0  0  0  0  0  3  0  0  0  0  0  0
  191.0440  176.5630  146.3020 N   0  0  0  0  0  0  0  0  0  0  0  0
  191.9700  175.9240  145.3770 C   0  0  0  0  0  1  0  0  0  0  0  0
  191.4830  176.7390  147.6780 C   0  0  0  0  0  1  0  0  0  0  0  0
  1  8  1  0  0  0  0
  1  3  1  0  0  0  0
  2 21  1  0  0  0  0
  3  2  2  0  0  0  0
  4  6  2  0  0  0  0
  5  4  1  0  0  0  0
  6  2  1  0  0  0  0
  7  9  1  0  0  0  0
  7  8  1  0  0  0  0
  8  4  1  0  0  0  0
  9  5  2  0  0  0  0
 10  7  1  0  0  0  0
 11 20  1  0  0  0  0
 11 14  1  1  0  0  0
 11 18  1  0  0  0  0
 12 16  1  0  0  0  0
 12 13  2  0  0  0  0
 15 12  1  0  0  0  0
 16 14  1  0  0  0  0
 17 19  1  0  0  0  0
 17 16  1  0  0  0  0
 18 10  1  1  0  0  0
 20 19  1  6  0  0  0
 20 18  1  0  0  0  0
 21 30  1  0  0  0  0
 23 28  2  0  0  0  0
 23 30  1  0  0  0  0
 24 32  1  0  0  0  0
 24 25  2  0  0  0  0
 26 25  1  0  0  0  0
 26 22  2  0  0  0  0
 27 29  2  0  0  0  0
 27 28  1  0  0  0  0
 28 26  1  0  0  0  0
 29 24  1  0  0  0  0
 30 31  2  0  0  0  0
 31 22  1  0  0  0  0
 32 34  1  0  0  0  0
 33 32  1  0  0  0  0
M  END
>  <MODEL>
4

>  <REMARK>
 VINA RESULT:      -9.2      3.714      4.787
  Name = 
  5 active torsions:
  status: ('A' for Active; 'I' for Inactive)
    1  A    between atoms: N_5  and  N_19
    2  A    between atoms: N_5  and  C_32
    3  A    between atoms: C_7  and  N_11
    4  A    between atoms: C_8  and  N_18
    5  A    between atoms: N_18  and  C_30
                            x       y       z     vdW  Elec       q    Type
                         _______ _______ _______ _____ _____    ______ ____

>  <TORSDO>
F 5

$$$$
=
 OpenBabel11052415483D

 34 39  0  0  1  0  0  0  0  0999 V2000
  181.0580  178.9900  142.5510 C   0  0  0  0  0  2  0  0  0  0  0  0
  183.1110  178.9880  143.9910 C   0  0  0  0  0  0  0  0  0  0  0  0
  181.7850  179.1870  143.8610 C   0  0  0  0  0  3  0  0  0  0  0  0
  183.3500  178.6620  141.6090 C   0  0  0  0  0  0  0  0  0  0  0  0
  183.9540  178.2960  140.4010 N   0  0  0  0  0  0  0  0  0  0  0  0
  183.9260  178.6420  142.8060 C   0  0  0  0  0  3  0  0  0  0  0  0
  181.6230  178.7810  140.0990 N   0  0  0  0  0  0  0  0  0  0  0  0
  182.0010  178.9880  141.4340 N   0  0  0  0  0  0  0  0  0  0  0  0
  182.8780  178.3910  139.4110 C   0  0  0  0  0  3  0  0  0  0  0  0
  181.2500  180.0290  139.5800 N   0  0  0  0  0  2  0  0  0  0  0  0
  179.8490  181.0200  137.9290 C   0  0  2  0  0  3  0  0  0  0  0  0
  180.3190  184.2880  136.1510 C   0  0  0  0  0  0  0  0  0  0  0  0
  180.2400  185.1530  137.0650 O   0  0  0  0  0  0  0  0  0  0  0  0
  180.1940  182.4910  137.9000 C   0  0  0  0  0  2  0  0  0  0  0  0
  180.4320  184.7500  134.7370 C   0  0  0  0  0  1  0  0  0  0  0  0
  180.3020  182.8890  136.4750 N   0  0  0  0  0  0  0  0  0  0  0  0
  180.4600  181.8820  135.3870 C   0  0  0  0  0  2  0  0  0  0  0  0
  180.4740  179.7780  138.3760 C   0  0  1  0  0  3  0  0  0  0  0  0
  180.5000  180.4260  135.9220 C   0  0  0  0  0  2  0  0  0  0  0  0
  181.0610  180.4980  137.2550 N   0  0  1  0  0  0  0  0  0  0  0  0
  183.7790  179.1210  145.2560 N   0  0  0  0  0  2  0  0  0  0  0  0
  186.7990  178.1730  147.2920 C   0  0  0  0  0  3  0  0  0  0  0  0
  185.9740  178.2740  144.6170 C   0  0  0  0  0  3  0  0  0  0  0  0
  189.8430  176.9140  145.5830 C   0  0  0  0  0  0  0  0  0  0  0  0
  188.9560  177.3200  146.5960 C   0  0  0  0  0  3  0  0  0  0  0  0
  187.6730  177.7700  146.2800 C   0  0  0  0  0  0  0  0  0  0  0  0
  188.1310  177.4190  143.9200 C   0  0  0  0  0  3  0  0  0  0  0  0
  187.2570  177.8210  144.9320 C   0  0  0  0  0  0  0  0  0  0  0  0
  189.4150  176.9700  144.2440 C   0  0  0  0  0  3  0  0  0  0  0  0
  185.0940  178.6770  145.6290 C   0  0  0  0  0  0  0  0  0  0  0  0
  185.5160  178.6230  146.9670 C   0  0  0  0  0  3  0  0  0  0  0  0
  191.1640  176.4470  145.9110 N   0  0  0  0  0  0  0  0  0  0  0  0
  192.0520  175.9160  144.8860 C   0  0  0  0  0  1  0  0  0  0  0  0
  191.6640  176.4900  147.2760 C   0  0  0  0  0  1  0  0  0  0  0  0
  1  3  1  0  0  0  0
  2 21  1  0  0  0  0
  3  2  2  0  0  0  0
  4  6  2  0  0  0  0
  5  4  1  0  0  0  0
  6  2  1  0  0  0  0
  7  8  1  0  0  0  0
  8  4  1  0  0  0  0
  8  1  1  0  0  0  0
  9  7  1  0  0  0  0
  9  5  2  0  0  0  0
 10  7  1  0  0  0  0
 11 14  1  1  0  0  0
 11 18  1  0  0  0  0
 12 16  1  0  0  0  0
 12 13  2  0  0  0  0
 15 12  1  0  0  0  0
 16 14  1  0  0  0  0
 17 19  1  0  0  0  0
 17 16  1  0  0  0  0
 18 10  1  1  0  0  0
 20 19  1  6  0  0  0
 20 11  1  0  0  0  0
 20 18  1  0  0  0  0
 21 30  1  0  0  0  0
 23 28  2  0  0  0  0
 23 30  1  0  0  0  0
 24 32  1  0  0  0  0
 24 25  2  0  0  0  0
 26 25  1  0  0  0  0
 26 22  2  0  0  0  0
 27 29  2  0  0  0  0
 27 28  1  0  0  0  0
 28 26  1  0  0  0  0
 29 24  1  0  0  0  0
 30 31  2  0  0  0  0
 31 22  1  0  0  0  0
 32 34  1  0  0  0  0
 33 32  1  0  0  0  0
M  END
>  <MODEL>
5

>  <REMARK>
 VINA RESULT:      -9.1      4.474      6.567
  Name = 
  5 active torsions:
  status: ('A' for Active; 'I' for Inactive)
    1  A    between atoms: N_5  and  N_19
    2  A    between atoms: N_5  and  C_32
    3  A    between atoms: C_7  and  N_11
    4  A    between atoms: C_8  and  N_18
    5  A    between atoms: N_18  and  C_30
                            x       y       z     vdW  Elec       q    Type
                         _______ _______ _______ _____ _____    ______ ____

>  <TORSDO>
F 5

$$$$
=
 OpenBabel11052415483D

 34 39  0  0  1  0  0  0  0  0999 V2000
  184.5410  178.9120  138.5690 C   0  0  0  0  0  2  0  0  0  0  0  0
  183.4390  178.3690  140.7550 C   0  0  0  0  0  0  0  0  0  0  0  0
  184.2460  179.1670  140.0290 C   0  0  0  0  0  3  0  0  0  0  0  0
  183.2740  176.7900  138.9350 C   0  0  0  0  0  0  0  0  0  0  0  0
  182.7880  175.7070  138.1930 N   0  0  0  0  0  0  0  0  0  0  0  0
  182.8700  177.1450  140.1490 C   0  0  0  0  0  3  0  0  0  0  0  0
  184.3320  177.0210  136.9090 N   0  0  0  0  0  0  0  0  0  0  0  0
  184.2070  177.5350  138.2080 N   0  0  0  0  0  0  0  0  0  0  0  0
  183.4700  175.8140  136.9010 C   0  0  0  0  0  3  0  0  0  0  0  0
  185.6540  176.5740  136.7700 N   0  0  0  0  0  2  0  0  0  0  0  0
  186.7790  174.9420  135.4500 C   0  0  2  0  0  3  0  0  0  0  0  0
  190.4290  174.0830  135.4440 C   0  0  0  0  0  0  0  0  0  0  0  0
  190.9940  175.1330  135.0380 O   0  0  0  0  0  0  0  0  0  0  0  0
  188.2430  175.3180  135.4600 C   0  0  0  0  0  2  0  0  0  0  0  0
  191.2580  172.8630  135.6640 C   0  0  0  0  0  1  0  0  0  0  0  0
  189.0140  174.0710  135.6900 N   0  0  0  0  0  0  0  0  0  0  0  0
  188.3730  172.8380  136.2320 C   0  0  0  0  0  2  0  0  0  0  0  0
  185.5950  175.2130  136.2610 C   0  0  1  0  0  3  0  0  0  0  0  0
  186.8590  173.0270  136.5130 C   0  0  0  0  0  2  0  0  0  0  0  0
  186.6760  174.4270  136.8360 N   0  0  1  0  0  0  0  0  0  0  0  0
  183.1210  178.6560  142.1260 N   0  0  0  0  0  2  0  0  0  0  0  0
  184.3930  178.8670  145.6620 C   0  0  0  0  0  3  0  0  0  0  0  0
  185.2650  178.0610  143.1240 C   0  0  0  0  0  3  0  0  0  0  0  0
  187.8380  177.7300  146.4430 C   0  0  0  0  0  0  0  0  0  0  0  0
  186.5380  178.2430  146.5980 C   0  0  0  0  0  3  0  0  0  0  0  0
  185.6820  178.3540  145.5010 C   0  0  0  0  0  0  0  0  0  0  0  0
  187.4100  177.4360  144.0600 C   0  0  0  0  0  3  0  0  0  0  0  0
  186.1210  177.9490  144.2220 C   0  0  0  0  0  0  0  0  0  0  0  0
  188.2620  177.3290  145.1640 C   0  0  0  0  0  3  0  0  0  0  0  0
  183.9710  178.5740  143.2820 C   0  0  0  0  0  0  0  0  0  0  0  0
  183.5420  178.9750  144.5580 C   0  0  0  0  0  3  0  0  0  0  0  0
  188.7180  177.6130  147.5760 N   0  0  0  0  0  0  0  0  0  0  0  0
  188.2840  177.9990  148.9110 C   0  0  0  0  0  1  0  0  0  0  0  0
  190.0720  177.1010  147.4310 C   0  0  0  0  0  1  0  0  0  0  0  0
  1  3  1  0  0  0  0
  2 21  1  0  0  0  0
  3  2  2  0  0  0  0
  4  6  2  0  0  0  0
  5  4  1  0  0  0  0
  6  2  1  0  0  0  0
  7  8  1  0  0  0  0
  8  1  1  0  0  0  0
  8  4  1  0  0  0  0
  9  7  1  0  0  0  0
  9  5  2  0  0  0  0
 10  7  1  0  0  0  0
 11 14  1  1  0  0  0
 11 18  1  0  0  0  0
 11 20  1  0  0  0  0
 12 15  1  0  0  0  0
 12 16  1  0  0  0  0
 13 12  2  0  0  0  0
 14 16  1  0  0  0  0
 16 17  1  0  0  0  0
 17 19  1  0  0  0  0
 18 10  1  1  0  0  0
 18 20  1  0  0  0  0
 20 19  1  6  0  0  0
 21 30  1  0  0  0  0
 23 30  2  0  0  0  0
 23 28  1  0  0  0  0
 24 25  1  0  0  0  0
 24 32  1  0  0  0  0
 26 22  1  0  0  0  0
 26 25  2  0  0  0  0
 27 28  2  0  0  0  0
 27 29  1  0  0  0  0
 28 26  1  0  0  0  0
 29 24  2  0  0  0  0
 30 31  1  0  0  0  0
 31 22  2  0  0  0  0
 32 33  1  0  0  0  0
 34 32  1  0  0  0  0
M  END
>  <MODEL>
6

>  <REMARK>
 VINA RESULT:      -8.9      1.786      2.028
  Name = 
  5 active torsions:
  status: ('A' for Active; 'I' for Inactive)
    1  A    between atoms: N_5  and  N_19
    2  A    between atoms: N_5  and  C_32
    3  A    between atoms: C_7  and  N_11
    4  A    between atoms: C_8  and  N_18
    5  A    between atoms: N_18  and  C_30
                            x       y       z     vdW  Elec       q    Type
                         _______ _______ _______ _____ _____    ______ ____

>  <TORSDO>
F 5

$$$$
=
 OpenBabel11052415483D

 34 39  0  0  1  0  0  0  0  0999 V2000
  189.2090  176.2760  142.5630 C   0  0  0  0  0  2  0  0  0  0  0  0
  188.1210  177.5500  144.4280 C   0  0  0  0  0  0  0  0  0  0  0  0
  188.0250  176.6640  143.4180 C   0  0  0  0  0  3  0  0  0  0  0  0
  190.3990  178.0750  143.8230 C   0  0  0  0  0  0  0  0  0  0  0  0
  191.6910  178.6000  143.9510 N   0  0  0  0  0  0  0  0  0  0  0  0
  189.4020  178.2450  144.6830 C   0  0  0  0  0  3  0  0  0  0  0  0
  191.5270  177.1380  142.0540 N   0  0  0  0  0  0  0  0  0  0  0  0
  190.2850  177.2570  142.6950 N   0  0  0  0  0  0  0  0  0  0  0  0
  192.4270  178.0390  142.8150 C   0  0  0  0  0  3  0  0  0  0  0  0
  191.3840  177.6970  140.7750 N   0  0  0  0  0  2  0  0  0  0  0  0
  189.8080  176.6660  139.3180 C   0  0  2  0  0  3  0  0  0  0  0  0
  187.4910  178.3150  136.8740 C   0  0  0  0  0  0  0  0  0  0  0  0
  186.7190  179.0030  137.5940 O   0  0  0  0  0  0  0  0  0  0  0  0
  188.8210  177.7410  138.9250 C   0  0  0  0  0  2  0  0  0  0  0  0
  187.2250  178.2400  135.4080 C   0  0  0  0  0  1  0  0  0  0  0  0
  188.6040  177.6230  137.4620 N   0  0  0  0  0  0  0  0  0  0  0  0
  189.5440  176.8660  136.5850 C   0  0  0  0  0  2  0  0  0  0  0  0
  191.1670  176.5970  139.8490 C   0  0  1  0  0  3  0  0  0  0  0  0
  190.7290  176.2490  137.3730 C   0  0  0  0  0  2  0  0  0  0  0  0
  190.9620  177.1210  138.5060 N   0  0  1  0  0  0  0  0  0  0  0  0
  187.0010  177.8660  145.2700 N   0  0  0  0  0  2  0  0  0  0  0  0
  183.4010  178.9570  145.4080 C   0  0  0  0  0  3  0  0  0  0  0  0
  185.2980  178.0900  143.5380 C   0  0  0  0  0  3  0  0  0  0  0  0
  181.3970  179.0690  142.2870 C   0  0  0  0  0  0  0  0  0  0  0  0
  181.7580  179.1740  143.6410 C   0  0  0  0  0  3  0  0  0  0  0  0
  183.0500  178.8520  144.0600 C   0  0  0  0  0  0  0  0  0  0  0  0
  183.6560  178.3080  141.7710 C   0  0  0  0  0  3  0  0  0  0  0  0
  184.0060  178.4150  143.1180 C   0  0  0  0  0  0  0  0  0  0  0  0
  182.3590  178.6320  141.3600 C   0  0  0  0  0  3  0  0  0  0  0  0
  185.6540  178.1960  144.8880 C   0  0  0  0  0  0  0  0  0  0  0  0
  184.6970  178.6330  145.8180 C   0  0  0  0  0  3  0  0  0  0  0  0
  180.0650  179.4050  141.8560 N   0  0  0  0  0  0  0  0  0  0  0  0
  179.3290  180.5030  142.4680 C   0  0  0  0  0  1  0  0  0  0  0  0
  179.4050  178.6650  140.7920 C   0  0  0  0  0  1  0  0  0  0  0  0
  1  8  1  0  0  0  0
  1  3  1  0  0  0  0
  2  6  1  0  0  0  0
  2 21  1  0  0  0  0
  3  2  2  0  0  0  0
  4  5  1  0  0  0  0
  4  6  2  0  0  0  0
  7  8  1  0  0  0  0
  7  9  1  0  0  0  0
  8  4  1  0  0  0  0
  9  5  2  0  0  0  0
 10  7  1  0  0  0  0
 11 14  1  1  0  0  0
 11 18  1  0  0  0  0
 12 16  1  0  0  0  0
 12 13  2  0  0  0  0
 15 12  1  0  0  0  0
 16 14  1  0  0  0  0
 17 19  1  0  0  0  0
 17 16  1  0  0  0  0
 18 10  1  1  0  0  0
 20 19  1  6  0  0  0
 20 11  1  0  0  0  0
 20 18  1  0  0  0  0
 22 31  1  0  0  0  0
 23 30  1  0  0  0  0
 24 25  2  0  0  0  0
 25 26  1  0  0  0  0
 26 22  2  0  0  0  0
 27 28  1  0  0  0  0
 28 23  2  0  0  0  0
 28 26  1  0  0  0  0
 29 27  2  0  0  0  0
 29 24  1  0  0  0  0
 30 21  1  0  0  0  0
 30 31  2  0  0  0  0
 32 24  1  0  0  0  0
 32 33  1  0  0  0  0
 34 32  1  0  0  0  0
M  END
>  <MODEL>
7

>  <REMARK>
 VINA RESULT:      -8.9      2.692      6.640
  Name = 
  5 active torsions:
  status: ('A' for Active; 'I' for Inactive)
    1  A    between atoms: N_5  and  N_19
    2  A    between atoms: N_5  and  C_32
    3  A    between atoms: C_7  and  N_11
    4  A    between atoms: C_8  and  N_18
    5  A    between atoms: N_18  and  C_30
                            x       y       z     vdW  Elec       q    Type
                         _______ _______ _______ _____ _____    ______ ____

>  <TORSDO>
F 5

$$$$
=
 OpenBabel11052415483D

 34 39  0  0  1  0  0  0  0  0999 V2000
  186.9440  177.2510  144.6010 C   0  0  0  0  0  2  0  0  0  0  0  0
  184.9300  178.4780  145.4510 C   0  0  0  0  0  0  0  0  0  0  0  0
  185.5780  177.8750  144.4360 C   0  0  0  0  0  3  0  0  0  0  0  0
  186.8630  178.2640  146.8830 C   0  0  0  0  0  0  0  0  0  0  0  0
  187.6120  178.2690  148.0660 N   0  0  0  0  0  0  0  0  0  0  0  0
  185.5880  178.6210  146.7680 C   0  0  0  0  0  3  0  0  0  0  0  0
  188.8570  177.3160  146.2480 N   0  0  0  0  0  0  0  0  0  0  0  0
  187.5970  177.7500  145.8100 N   0  0  0  0  0  0  0  0  0  0  0  0
  188.9040  177.6940  147.6820 C   0  0  0  0  0  3  0  0  0  0  0  0
  189.8130  178.1050  145.5910 N   0  0  0  0  0  2  0  0  0  0  0  0
  190.0820  176.8020  143.6170 C   0  0  2  0  0  3  0  0  0  0  0  0
  189.3040  177.7710  140.0790 C   0  0  0  0  0  0  0  0  0  0  0  0
  188.0560  177.9410  140.0710 O   0  0  0  0  0  0  0  0  0  0  0  0
  189.1980  177.4310  142.5650 C   0  0  0  0  0  2  0  0  0  0  0  0
  190.0460  177.8590  138.7880 C   0  0  0  0  0  1  0  0  0  0  0  0
  189.9900  177.5000  141.3120 N   0  0  0  0  0  0  0  0  0  0  0  0
  191.4750  177.3650  141.3110 C   0  0  0  0  0  2  0  0  0  0  0  0
  190.7000  177.2000  144.8780 C   0  0  1  0  0  3  0  0  0  0  0  0
  192.0560  177.1560  142.7340 C   0  0  0  0  0  2  0  0  0  0  0  0
  191.1520  177.8260  143.6450 N   0  0  1  0  0  0  0  0  0  0  0  0
  183.6070  179.0150  145.2950 N   0  0  0  0  0  2  0  0  0  0  0  0
  180.4670  178.7510  143.2370 C   0  0  0  0  0  3  0  0  0  0  0  0
  183.2470  178.7550  142.8970 C   0  0  0  0  0  3  0  0  0  0  0  0
  180.7130  178.3850  139.5520 C   0  0  0  0  0  0  0  0  0  0  0  0
  180.1730  178.5080  140.8450 C   0  0  0  0  0  3  0  0  0  0  0  0
  181.0100  178.6320  141.9560 C   0  0  0  0  0  0  0  0  0  0  0  0
  182.9540  178.5130  140.5050 C   0  0  0  0  0  3  0  0  0  0  0  0
  182.4110  178.6330  141.7850 C   0  0  0  0  0  0  0  0  0  0  0  0
  182.1110  178.3890  139.3970 C   0  0  0  0  0  3  0  0  0  0  0  0
  182.7060  178.8770  144.1830 C   0  0  0  0  0  0  0  0  0  0  0  0
  181.3110  178.8750  144.3440 C   0  0  0  0  0  3  0  0  0  0  0  0
  179.8490  178.2620  138.4080 N   0  0  0  0  0  0  0  0  0  0  0  0
  178.9320  177.1390  138.2730 C   0  0  0  0  0  1  0  0  0  0  0  0
  179.8570  179.2550  137.3450 C   0  0  0  0  0  1  0  0  0  0  0  0
  1  8  1  0  0  0  0
  2  6  1  0  0  0  0
  3  1  1  0  0  0  0
  3  2  2  0  0  0  0
  4  5  1  0  0  0  0
  6  4  2  0  0  0  0
  7  9  1  0  0  0  0
  8  7  1  0  0  0  0
  8  4  1  0  0  0  0
  9  5  2  0  0  0  0
 10  7  1  0  0  0  0
 11 14  1  1  0  0  0
 11 20  1  0  0  0  0
 11 18  1  0  0  0  0
 12 16  1  0  0  0  0
 13 12  2  0  0  0  0
 15 12  1  0  0  0  0
 16 14  1  0  0  0  0
 17 16  1  0  0  0  0
 17 19  1  0  0  0  0
 18 10  1  1  0  0  0
 20 19  1  6  0  0  0
 20 18  1  0  0  0  0
 21  2  1  0  0  0  0
 22 31  1  0  0  0  0
 23 30  1  0  0  0  0
 24 25  2  0  0  0  0
 25 26  1  0  0  0  0
 26 22  2  0  0  0  0
 27 28  1  0  0  0  0
 28 26  1  0  0  0  0
 28 23  2  0  0  0  0
 29 24  1  0  0  0  0
 29 27  2  0  0  0  0
 30 31  2  0  0  0  0
 30 21  1  0  0  0  0
 32 24  1  0  0  0  0
 33 32  1  0  0  0  0
 34 32  1  0  0  0  0
M  END
>  <MODEL>
8

>  <REMARK>
 VINA RESULT:      -8.7      2.899      7.965
  Name = 
  5 active torsions:
  status: ('A' for Active; 'I' for Inactive)
    1  A    between atoms: N_5  and  N_19
    2  A    between atoms: N_5  and  C_32
    3  A    between atoms: C_7  and  N_11
    4  A    between atoms: C_8  and  N_18
    5  A    between atoms: N_18  and  C_30
                            x       y       z     vdW  Elec       q    Type
                         _______ _______ _______ _____ _____    ______ ____

>  <TORSDO>
F 5

$$$$
=
 OpenBabel11052415483D

 34 39  0  0  1  0  0  0  0  0999 V2000
  182.3250  176.8050  138.7080 C   0  0  0  0  0  2  0  0  0  0  0  0
  183.1300  178.3100  140.5440 C   0  0  0  0  0  0  0  0  0  0  0  0
  183.3940  177.5790  139.4440 C   0  0  0  0  0  3  0  0  0  0  0  0
  180.8620  177.4830  140.6170 C   0  0  0  0  0  0  0  0  0  0  0  0
  179.5180  177.4070  140.9980 N   0  0  0  0  0  0  0  0  0  0  0  0
  181.7690  178.3120  141.1230 C   0  0  0  0  0  3  0  0  0  0  0  0
  179.9750  175.9780  139.1240 N   0  0  0  0  0  0  0  0  0  0  0  0
  181.1460  176.6210  139.5530 N   0  0  0  0  0  0  0  0  0  0  0  0
  178.9310  176.4290  140.0780 C   0  0  0  0  0  3  0  0  0  0  0  0
  180.1570  174.6050  139.3450 N   0  0  0  0  0  2  0  0  0  0  0  0
  180.6230  173.7100  137.1880 C   0  0  2  0  0  3  0  0  0  0  0  0
  183.5920  171.6910  136.1100 C   0  0  0  0  0  0  0  0  0  0  0  0
  184.5680  172.4770  136.2460 O   0  0  0  0  0  0  0  0  0  0  0  0
  182.1060  173.4250  137.1530 C   0  0  0  0  0  2  0  0  0  0  0  0
  183.8320  170.3530  135.4950 C   0  0  0  0  0  1  0  0  0  0  0  0
  182.2810  172.0840  136.5430 N   0  0  0  0  0  0  0  0  0  0  0  0
  181.1510  171.1170  136.4330 C   0  0  0  0  0  2  0  0  0  0  0  0
  179.5900  173.9090  138.2010 C   0  0  1  0  0  3  0  0  0  0  0  0
  179.8270  171.6750  137.0200 C   0  0  0  0  0  2  0  0  0  0  0  0
  180.2060  172.5960  138.0710 N   0  0  1  0  0  0  0  0  0  0  0  0
  184.1450  179.0880  141.1990 N   0  0  0  0  0  2  0  0  0  0  0  0
  184.8140  178.8870  144.8970 C   0  0  0  0  0  3  0  0  0  0  0  0
  186.0660  178.2810  142.4660 C   0  0  0  0  0  3  0  0  0  0  0  0
  188.0330  177.4890  146.1060 C   0  0  0  0  0  0  0  0  0  0  0  0
  186.7470  178.0570  146.1000 C   0  0  0  0  0  3  0  0  0  0  0  0
  186.0910  178.3200  144.8960 C   0  0  0  0  0  0  0  0  0  0  0  0
  187.9980  177.4500  143.6680 C   0  0  0  0  0  3  0  0  0  0  0  0
  186.7210  178.0150  143.6700 C   0  0  0  0  0  0  0  0  0  0  0  0
  188.6480  177.1900  144.8780 C   0  0  0  0  0  3  0  0  0  0  0  0
  184.7850  178.8470  142.4640 C   0  0  0  0  0  0  0  0  0  0  0  0
  184.1650  179.1470  143.6880 C   0  0  0  0  0  3  0  0  0  0  0  0
  188.7060  177.2150  147.3490 N   0  0  0  0  0  0  0  0  0  0  0  0
  190.0620  176.6850  147.3710 C   0  0  0  0  0  1  0  0  0  0  0  0
  188.0590  177.4610  148.6280 C   0  0  0  0  0  1  0  0  0  0  0  0
  1  3  1  0  0  0  0
  1  8  1  0  0  0  0
  2  6  1  0  0  0  0
  2 21  1  0  0  0  0
  3  2  2  0  0  0  0
  4  5  1  0  0  0  0
  4  6  2  0  0  0  0
  7 10  1  0  0  0  0
  7  8  1  0  0  0  0
  7  9  1  0  0  0  0
  8  4  1  0  0  0  0
  9  5  2  0  0  0  0
 11 14  1  1  0  0  0
 11 20  1  0  0  0  0
 11 18  1  0  0  0  0
 12 13  2  0  0  0  0
 12 16  1  0  0  0  0
 15 12  1  0  0  0  0
 16 14  1  0  0  0  0
 17 16  1  0  0  0  0
 17 19  1  0  0  0  0
 18 10  1  1  0  0  0
 20 19  1  6  0  0  0
 20 18  1  0  0  0  0
 21 30  1  0  0  0  0
 23 28  1  0  0  0  0
 24 32  1  0  0  0  0
 25 24  1  0  0  0  0
 26 22  1  0  0  0  0
 26 25  2  0  0  0  0
 27 28  2  0  0  0  0
 27 29  1  0  0  0  0
 28 26  1  0  0  0  0
 29 24  2  0  0  0  0
 30 23  2  0  0  0  0
 30 31  1  0  0  0  0
 31 22  2  0  0  0  0
 32 33  1  0  0  0  0
 32 34  1  0  0  0  0
M  END
>  <MODEL>
9

>  <REMARK>
 VINA RESULT:      -8.6      3.870      5.275
  Name = 
  5 active torsions:
  status: ('A' for Active; 'I' for Inactive)
    1  A    between atoms: N_5  and  N_19
    2  A    between atoms: N_5  and  C_32
    3  A    between atoms: C_7  and  N_11
    4  A    between atoms: C_8  and  N_18
    5  A    between atoms: N_18  and  C_30
                            x       y       z     vdW  Elec       q    Type
                         _______ _______ _______ _____ _____    ______ ____

>  <TORSDO>
F 5

$$$$
