=
 OpenBabel11052417053D

 32 34  0  0  1  0  0  0  0  0999 V2000
  187.3210  178.4620  139.9210 O   0  0  0  0  0  0  0  0  0  0  0  0
  188.8860  178.5890  138.1420 C   0  0  0  0  0  0  0  0  0  0  0  0
  188.7930  177.4380  137.2310 C   0  0  0  0  0  0  0  0  0  0  0  0
  186.3340  178.4650  142.0880 C   0  0  1  0  0  3  0  0  0  0  0  0
  188.0680  176.8290  142.8920 C   0  0  0  0  0  2  0  0  0  0  0  0
  188.5990  175.2140  135.5430 C   0  0  0  0  0  3  0  0  0  0  0  0
  189.5070  177.2630  143.0970 C   0  0  0  0  0  2  0  0  0  0  0  0
  190.4440  176.5130  142.1450 C   0  0  1  0  0  3  0  0  0  0  0  0
  189.2330  177.0440  140.1210 C   0  0  2  0  0  3  0  0  0  0  0  0
  188.4100  176.5050  135.0290 C   0  0  0  0  0  3  0  0  0  0  0  0
  187.1160  177.9450  143.3050 C   0  0  2  0  0  3  0  0  0  0  0  0
  188.5080  177.6160  135.8730 C   0  0  0  0  0  3  0  0  0  0  0  0
  185.3300  179.3410  142.5000 O   0  0  0  0  0  1  0  0  0  0  0  0
  190.5110  177.2180  140.8410 N   0  0  0  0  0  0  0  0  0  0  0  0
  189.2300  175.9500  139.1380 N   0  0  0  0  0  2  0  0  0  0  0  0
  187.2510  179.1900  141.1120 C   0  0  0  0  0  2  0  0  0  0  0  0
  189.0540  179.7540  137.6890 O   0  0  0  0  0  0  0  0  0  0  0  0
  188.8770  175.0350  136.9000 C   0  0  0  0  0  3  0  0  0  0  0  0
  188.6790  178.3850  139.6150 C   0  0  2  0  0  3  0  0  0  0  0  0
  188.9750  176.1440  137.7440 C   0  0  0  0  0  0  0  0  0  0  0  0
  191.7910  175.3930  143.7790 O   0  0  0  0  0  1  0  0  0  0  0  0
  191.8070  176.4190  142.8330 C   0  0  0  0  0  2  0  0  0  0  0  0
  192.8680  177.8690  140.2270 C   0  0  0  0  0  1  0  0  0  0  0  0
  191.6950  176.9130  140.0070 C   0  0  0  0  0  2  0  0  0  0  0  0
  186.2230  177.4460  144.2620 O   0  0  0  0  0  0  0  0  0  0  0  0
  186.3810  178.2770  145.3770 C   0  0  0  0  0  2  0  0  0  0  0  0
  187.0120  177.4900  146.5080 C   0  0  0  0  0  2  0  0  0  0  0  0
  188.4940  177.8080  146.6010 C   0  0  0  0  0  2  0  0  0  0  0  0
  189.2430  176.6930  147.3150 C   0  0  0  0  0  2  0  0  0  0  0  0
  190.7040  176.7750  147.0540 C   0  0  0  0  0  0  0  0  0  0  0  0
  191.1840  177.6200  146.0660 O   0  0  0  0  0  0  0  0  0  0  0  0
  191.5020  176.0660  147.7200 O   0  0  0  0  0  1  0  0  0  0  0  0
  1 16  1  0  0  0  0
  3 20  1  0  0  0  0
  3  2  1  0  0  0  0
  4 13  1  1  0  0  0
  4 11  1  0  0  0  0
  5  7  1  0  0  0  0
  5 11  1  0  0  0  0
  6 18  1  0  0  0  0
  8 22  1  1  0  0  0
  8  7  1  0  0  0  0
  9 15  1  6  0  0  0
  9 14  1  0  0  0  0
 10  6  2  0  0  0  0
 10 12  1  0  0  0  0
 11 25  1  1  0  0  0
 12  3  2  0  0  0  0
 14  8  1  0  0  0  0
 16  4  1  0  0  0  0
 17  2  2  0  0  0  0
 18 20  2  0  0  0  0
 19  2  1  6  0  0  0
 19  1  1  0  0  0  0
 19  9  1  0  0  0  0
 20 15  1  0  0  0  0
 22 21  1  0  0  0  0
 24 23  1  0  0  0  0
 24 14  1  0  0  0  0
 25 26  1  0  0  0  0
 26 27  1  0  0  0  0
 27 28  1  0  0  0  0
 28 29  1  0  0  0  0
 30 29  1  0  0  0  0
 30 32  1  0  0  0  0
 31 30  2  0  0  0  0
M  END
>  <MODEL>
1

>  <REMARK>
 VINA RESULT:      -7.0      0.000      0.000
  Name = 
  8 active torsions:
  status: ('A' for Active; 'I' for Inactive)
    1  A    between atoms: C_1  and  C_10
    2  A    between atoms: C_2  and  C_19
    3  A    between atoms: C_2  and  C_24
    4  A    between atoms: C_10  and  C_24
    5  A    between atoms: O_12  and  C_19
    6  A    between atoms: O_12  and  C_21
    7  A    between atoms: C_13  and  C_15
    8  A    between atoms: C_25  and  N_26
                            x       y       z     vdW  Elec       q    Type
                         _______ _______ _______ _____ _____    ______ ____

>  <TORSDO>
F 8

$$$$
=
 OpenBabel11052417053D

 32 34  0  0  1  0  0  0  0  0999 V2000
  187.4950  176.8030  137.9900 O   0  0  0  0  0  0  0  0  0  0  0  0
  187.8690  176.0280  135.7780 C   0  0  0  0  0  0  0  0  0  0  0  0
  187.6640  174.5770  135.6510 C   0  0  0  0  0  0  0  0  0  0  0  0
  187.7530  177.8800  140.0970 C   0  0  1  0  0  3  0  0  0  0  0  0
  190.0340  176.8530  140.3570 C   0  0  0  0  0  2  0  0  0  0  0  0
  187.2900  171.8100  135.4640 C   0  0  0  0  0  3  0  0  0  0  0  0
  191.1990  177.3280  139.5080 C   0  0  0  0  0  2  0  0  0  0  0  0
  191.7090  176.2030  138.6030 C   0  0  1  0  0  3  0  0  0  0  0  0
  189.5640  175.6650  137.6270 C   0  0  2  0  0  3  0  0  0  0  0  0
  186.5210  172.6770  134.6760 C   0  0  0  0  0  3  0  0  0  0  0  0
  189.1430  178.0290  140.7360 C   0  0  2  0  0  3  0  0  0  0  0  0
  186.7080  174.0600  134.7690 C   0  0  0  0  0  3  0  0  0  0  0  0
  186.8850  178.8470  140.6040 O   0  0  0  0  0  1  0  0  0  0  0  0
  190.9240  176.1690  137.3450 N   0  0  0  0  0  0  0  0  0  0  0  0
  189.3820  174.2280  137.3730 N   0  0  0  0  0  2  0  0  0  0  0  0
  187.8230  178.0250  138.5830 C   0  0  0  0  0  2  0  0  0  0  0  0
  187.4580  176.8160  134.8830 O   0  0  0  0  0  0  0  0  0  0  0  0
  188.2410  172.3250  136.3480 C   0  0  0  0  0  3  0  0  0  0  0  0
  188.4840  176.5810  137.0320 C   0  0  2  0  0  3  0  0  0  0  0  0
  188.4280  173.7070  136.4430 C   0  0  0  0  0  0  0  0  0  0  0  0
  193.7620  177.0780  139.4750 O   0  0  0  0  0  1  0  0  0  0  0  0
  193.1980  176.4580  138.3590 C   0  0  0  0  0  2  0  0  0  0  0  0
  191.3820  176.2100  134.8660 C   0  0  0  0  0  1  0  0  0  0  0  0
  191.5710  175.4890  136.2010 C   0  0  0  0  0  2  0  0  0  0  0  0
  189.0200  178.0720  142.1300 O   0  0  0  0  0  0  0  0  0  0  0  0
  189.0640  176.7360  142.5410 C   0  0  0  0  0  2  0  0  0  0  0  0
  187.9160  176.4610  143.4910 C   0  0  0  0  0  2  0  0  0  0  0  0
  187.7970  177.5870  144.5050 C   0  0  0  0  0  2  0  0  0  0  0  0
  186.3410  177.8430  144.8620 C   0  0  0  0  0  2  0  0  0  0  0  0
  186.1980  178.2320  146.2890 C   0  0  0  0  0  0  0  0  0  0  0  0
  185.1200  179.0060  146.6900 O   0  0  0  0  0  0  0  0  0  0  0  0
  187.0640  177.8730  147.1280 O   0  0  0  0  0  1  0  0  0  0  0  0
  1 16  1  0  0  0  0
  3  2  1  0  0  0  0
  3 20  1  0  0  0  0
  4 13  1  1  0  0  0
  4 11  1  0  0  0  0
  5 11  1  0  0  0  0
  6 18  1  0  0  0  0
  7  5  1  0  0  0  0
  8 22  1  6  0  0  0
  8  7  1  0  0  0  0
  9 15  1  6  0  0  0
 10 12  1  0  0  0  0
 10  6  2  0  0  0  0
 11 25  1  1  0  0  0
 12  3  2  0  0  0  0
 14  9  1  0  0  0  0
 14  8  1  0  0  0  0
 16  4  1  0  0  0  0
 17  2  2  0  0  0  0
 18 20  2  0  0  0  0
 19  2  1  6  0  0  0
 19  9  1  0  0  0  0
 19  1  1  0  0  0  0
 20 15  1  0  0  0  0
 22 21  1  0  0  0  0
 23 24  1  0  0  0  0
 24 14  1  0  0  0  0
 25 26  1  0  0  0  0
 26 27  1  0  0  0  0
 27 28  1  0  0  0  0
 28 29  1  0  0  0  0
 29 30  1  0  0  0  0
 30 31  2  0  0  0  0
 30 32  1  0  0  0  0
M  END
>  <MODEL>
2

>  <REMARK>
 VINA RESULT:      -7.0      2.353      3.832
  Name = 
  8 active torsions:
  status: ('A' for Active; 'I' for Inactive)
    1  A    between atoms: C_1  and  C_10
    2  A    between atoms: C_2  and  C_19
    3  A    between atoms: C_2  and  C_24
    4  A    between atoms: C_10  and  C_24
    5  A    between atoms: O_12  and  C_19
    6  A    between atoms: O_12  and  C_21
    7  A    between atoms: C_13  and  C_15
    8  A    between atoms: C_25  and  N_26
                            x       y       z     vdW  Elec       q    Type
                         _______ _______ _______ _____ _____    ______ ____

>  <TORSDO>
F 8

$$$$
=
 OpenBabel11052417053D

 32 34  0  0  1  0  0  0  0  0999 V2000
  187.4970  177.0550  138.1350 O   0  0  0  0  0  0  0  0  0  0  0  0
  187.5590  176.3950  135.8570 C   0  0  0  0  0  0  0  0  0  0  0  0
  187.1740  174.9870  135.6710 C   0  0  0  0  0  0  0  0  0  0  0  0
  188.0850  177.9530  140.2600 C   0  0  1  0  0  3  0  0  0  0  0  0
  190.2450  176.6630  140.2210 C   0  0  0  0  0  2  0  0  0  0  0  0
  186.4610  172.2970  135.3700 C   0  0  0  0  0  3  0  0  0  0  0  0
  191.3680  177.0620  139.2830 C   0  0  0  0  0  2  0  0  0  0  0  0
  191.6520  175.9510  138.2680 C   0  0  1  0  0  3  0  0  0  0  0  0
  189.3730  175.7220  137.4940 C   0  0  2  0  0  3  0  0  0  0  0  0
  185.7250  173.2950  134.7180 C   0  0  0  0  0  3  0  0  0  0  0  0
  189.5390  177.9040  140.7570 C   0  0  2  0  0  3  0  0  0  0  0  0
  186.0820  174.6400  134.8670 C   0  0  0  0  0  3  0  0  0  0  0  0
  187.3910  178.9740  140.9080 O   0  0  0  0  0  1  0  0  0  0  0  0
  190.7480  176.0890  137.0990 N   0  0  0  0  0  0  0  0  0  0  0  0
  188.9990  174.3340  137.1810 N   0  0  0  0  0  2  0  0  0  0  0  0
  188.0230  178.1910  138.7580 C   0  0  0  0  0  2  0  0  0  0  0  0
  187.1580  177.2810  135.0550 O   0  0  0  0  0  0  0  0  0  0  0  0
  187.5480  172.6430  136.1780 C   0  0  0  0  0  3  0  0  0  0  0  0
  188.3550  176.7900  137.0670 C   0  0  2  0  0  3  0  0  0  0  0  0
  187.9040  173.9860  136.3290 C   0  0  0  0  0  0  0  0  0  0  0  0
  193.8410  176.6910  138.9020 O   0  0  0  0  0  1  0  0  0  0  0  0
  193.1290  176.0550  137.8830 C   0  0  0  0  0  2  0  0  0  0  0  0
  190.9780  176.2530  134.5940 C   0  0  0  0  0  1  0  0  0  0  0  0
  191.1960  175.4200  135.8580 C   0  0  0  0  0  2  0  0  0  0  0  0
  189.5600  177.8660  142.1570 O   0  0  0  0  0  0  0  0  0  0  0  0
  189.1010  176.5880  142.4940 C   0  0  0  0  0  2  0  0  0  0  0  0
  188.3020  176.6600  143.7790 C   0  0  0  0  0  2  0  0  0  0  0  0
  188.8980  177.7060  144.7060 C   0  0  0  0  0  2  0  0  0  0  0  0
  189.6050  177.0490  145.8810 C   0  0  0  0  0  2  0  0  0  0  0  0
  191.0760  177.2460  145.8010 C   0  0  0  0  0  0  0  0  0  0  0  0
  191.8820  176.8740  146.8660 O   0  0  0  0  0  1  0  0  0  0  0  0
  191.5860  177.7650  144.7750 O   0  0  0  0  0  0  0  0  0  0  0  0
  1 16  1  0  0  0  0
  3  2  1  0  0  0  0
  3 20  1  0  0  0  0
  4 11  1  0  0  0  0
  4 13  1  1  0  0  0
  5 11  1  0  0  0  0
  6 18  1  0  0  0  0
  7  5  1  0  0  0  0
  8 22  1  6  0  0  0
  8  7  1  0  0  0  0
  9 15  1  6  0  0  0
 10 12  1  0  0  0  0
 10  6  2  0  0  0  0
 11 25  1  1  0  0  0
 12  3  2  0  0  0  0
 14  9  1  0  0  0  0
 14  8  1  0  0  0  0
 16  4  1  0  0  0  0
 17  2  2  0  0  0  0
 18 20  2  0  0  0  0
 19  2  1  6  0  0  0
 19  9  1  0  0  0  0
 19  1  1  0  0  0  0
 20 15  1  0  0  0  0
 22 21  1  0  0  0  0
 23 24  1  0  0  0  0
 24 14  1  0  0  0  0
 25 26  1  0  0  0  0
 26 27  1  0  0  0  0
 27 28  1  0  0  0  0
 28 29  1  0  0  0  0
 30 29  1  0  0  0  0
 30 31  1  0  0  0  0
 32 30  2  0  0  0  0
M  END
>  <MODEL>
3

>  <REMARK>
 VINA RESULT:      -6.8      2.281      3.560
  Name = 
  8 active torsions:
  status: ('A' for Active; 'I' for Inactive)
    1  A    between atoms: C_1  and  C_10
    2  A    between atoms: C_2  and  C_19
    3  A    between atoms: C_2  and  C_24
    4  A    between atoms: C_10  and  C_24
    5  A    between atoms: O_12  and  C_19
    6  A    between atoms: O_12  and  C_21
    7  A    between atoms: C_13  and  C_15
    8  A    between atoms: C_25  and  N_26
                            x       y       z     vdW  Elec       q    Type
                         _______ _______ _______ _____ _____    ______ ____

>  <TORSDO>
F 8

$$$$
=
 OpenBabel11052417053D

 32 34  0  0  1  0  0  0  0  0999 V2000
  183.6540  178.7180  140.2630 O   0  0  0  0  0  0  0  0  0  0  0  0
  181.8340  178.2400  138.8170 C   0  0  0  0  0  0  0  0  0  0  0  0
  181.2980  179.4490  138.1720 C   0  0  0  0  0  0  0  0  0  0  0  0
  185.0900  178.8070  142.1590 C   0  0  1  0  0  3  0  0  0  0  0  0
  183.1620  179.5400  143.6000 C   0  0  0  0  0  2  0  0  0  0  0  0
  180.2950  181.7800  136.9920 C   0  0  0  0  0  3  0  0  0  0  0  0
  182.0570  178.5690  143.9680 C   0  0  0  0  0  2  0  0  0  0  0  0
  180.7150  179.0230  143.3880 C   0  0  1  0  0  3  0  0  0  0  0  0
  181.4870  179.2630  141.1100 C   0  0  2  0  0  3  0  0  0  0  0  0
  180.7770  180.7370  136.1880 C   0  0  0  0  0  3  0  0  0  0  0  0
  184.5090  178.8260  143.5820 C   0  0  2  0  0  3  0  0  0  0  0  0
  181.2780  179.5720  136.7780 C   0  0  0  0  0  3  0  0  0  0  0  0
  186.4020  178.3330  142.1830 O   0  0  0  0  0  1  0  0  0  0  0  0
  180.5680  178.5240  141.9990 N   0  0  0  0  0  0  0  0  0  0  0  0
  180.8710  180.3940  140.4000 N   0  0  0  0  0  2  0  0  0  0  0  0
  184.2630  177.9220  141.2370 C   0  0  0  0  0  2  0  0  0  0  0  0
  181.9650  177.1690  138.1640 O   0  0  0  0  0  0  0  0  0  0  0  0
  180.3200  181.6600  138.3830 C   0  0  0  0  0  3  0  0  0  0  0  0
  182.3190  178.3120  140.2360 C   0  0  2  0  0  3  0  0  0  0  0  0
  180.8210  180.4970  138.9740 C   0  0  0  0  0  0  0  0  0  0  0  0
  179.6950  177.1110  144.4090 O   0  0  0  0  0  1  0  0  0  0  0  0
  179.6180  178.5020  144.3180 C   0  0  0  0  0  2  0  0  0  0  0  0
  178.9310  177.2900  140.5310 C   0  0  0  0  0  1  0  0  0  0  0  0
  179.1830  178.4620  141.4810 C   0  0  0  0  0  2  0  0  0  0  0  0
  185.3870  179.4970  144.4430 O   0  0  0  0  0  0  0  0  0  0  0  0
  185.3880  178.7440  145.6220 C   0  0  0  0  0  2  0  0  0  0  0  0
  186.3240  177.5630  145.4670 C   0  0  0  0  0  2  0  0  0  0  0  0
  187.7010  177.9140  146.0020 C   0  0  0  0  0  2  0  0  0  0  0  0
  188.7820  177.1380  145.2670 C   0  0  0  0  0  2  0  0  0  0  0  0
  190.0780  177.2040  145.9920 C   0  0  0  0  0  0  0  0  0  0  0  0
  190.1380  176.8600  147.3330 O   0  0  0  0  0  1  0  0  0  0  0  0
  191.1150  177.5880  145.3910 O   0  0  0  0  0  0  0  0  0  0  0  0
  1 16  1  0  0  0  0
  3  2  1  0  0  0  0
  3 20  1  0  0  0  0
  4 13  1  1  0  0  0
  4 11  1  0  0  0  0
  5  7  1  0  0  0  0
  6 18  1  0  0  0  0
  8  7  1  0  0  0  0
  8 22  1  1  0  0  0
  9 15  1  6  0  0  0
  9 14  1  0  0  0  0
 10 12  1  0  0  0  0
 10  6  2  0  0  0  0
 11  5  1  0  0  0  0
 11 25  1  1  0  0  0
 12  3  2  0  0  0  0
 14  8  1  0  0  0  0
 16  4  1  0  0  0  0
 17  2  2  0  0  0  0
 18 20  2  0  0  0  0
 19  2  1  6  0  0  0
 19  1  1  0  0  0  0
 19  9  1  0  0  0  0
 20 15  1  0  0  0  0
 22 21  1  0  0  0  0
 23 24  1  0  0  0  0
 24 14  1  0  0  0  0
 25 26  1  0  0  0  0
 27 26  1  0  0  0  0
 27 28  1  0  0  0  0
 29 30  1  0  0  0  0
 29 28  1  0  0  0  0
 30 31  1  0  0  0  0
 32 30  2  0  0  0  0
M  END
>  <MODEL>
4

>  <REMARK>
 VINA RESULT:      -6.7      5.401      7.579
  Name = 
  8 active torsions:
  status: ('A' for Active; 'I' for Inactive)
    1  A    between atoms: C_1  and  C_10
    2  A    between atoms: C_2  and  C_19
    3  A    between atoms: C_2  and  C_24
    4  A    between atoms: C_10  and  C_24
    5  A    between atoms: O_12  and  C_19
    6  A    between atoms: O_12  and  C_21
    7  A    between atoms: C_13  and  C_15
    8  A    between atoms: C_25  and  N_26
                            x       y       z     vdW  Elec       q    Type
                         _______ _______ _______ _____ _____    ______ ____

>  <TORSDO>
F 8

$$$$
=
 OpenBabel11052417053D

 32 34  0  0  1  0  0  0  0  0999 V2000
  182.5320  178.6180  143.2760 O   0  0  0  0  0  0  0  0  0  0  0  0
  181.4300  179.1190  141.2350 C   0  0  0  0  0  0  0  0  0  0  0  0
  180.8430  177.9250  140.6080 C   0  0  0  0  0  0  0  0  0  0  0  0
  184.1560  178.4860  145.0120 C   0  0  1  0  0  3  0  0  0  0  0  0
  185.8740  177.6810  143.3600 C   0  0  0  0  0  2  0  0  0  0  0  0
  179.7680  175.6210  139.4380 C   0  0  0  0  0  3  0  0  0  0  0  0
  186.4560  178.6250  142.3250 C   0  0  0  0  0  2  0  0  0  0  0  0
  186.0940  178.1720  140.9080 C   0  0  1  0  0  3  0  0  0  0  0  0
  183.7120  178.0170  141.2870 C   0  0  2  0  0  3  0  0  0  0  0  0
  178.9310  176.6950  139.7700 C   0  0  0  0  0  3  0  0  0  0  0  0
  185.6540  178.4130  144.6790 C   0  0  2  0  0  3  0  0  0  0  0  0
  179.4690  177.8470  140.3540 C   0  0  0  0  0  3  0  0  0  0  0  0
  183.9750  178.9770  146.3050 O   0  0  0  0  0  1  0  0  0  0  0  0
  184.7670  178.7140  140.5250 N   0  0  0  0  0  0  0  0  0  0  0  0
  183.0770  176.9010  140.5690 N   0  0  0  0  0  2  0  0  0  0  0  0
  183.4170  179.3900  144.0340 C   0  0  0  0  0  2  0  0  0  0  0  0
  180.8020  180.2130  141.2460 O   0  0  0  0  0  0  0  0  0  0  0  0
  181.1390  175.6950  139.6960 C   0  0  0  0  0  3  0  0  0  0  0  0
  182.7440  179.0070  141.9530 C   0  0  2  0  0  3  0  0  0  0  0  0
  181.6770  176.8450  140.2810 C   0  0  0  0  0  0  0  0  0  0  0  0
  188.3680  178.9030  140.7220 O   0  0  0  0  0  1  0  0  0  0  0  0
  187.2130  178.6480  139.9800 C   0  0  0  0  0  2  0  0  0  0  0  0
  183.6160  179.9570  138.6590 C   0  0  0  0  0  1  0  0  0  0  0  0
  184.4920  178.7750  139.0720 C   0  0  0  0  0  2  0  0  0  0  0  0
  186.3320  177.7260  145.6940 O   0  0  0  0  0  0  0  0  0  0  0  0
  187.6380  178.2250  145.6640 C   0  0  0  0  0  2  0  0  0  0  0  0
  188.6180  177.0890  145.8760 C   0  0  0  0  0  2  0  0  0  0  0  0
  190.0410  177.6190  145.8710 C   0  0  0  0  0  2  0  0  0  0  0  0
  190.3870  178.2290  144.5210 C   0  0  0  0  0  2  0  0  0  0  0  0
  191.2390  177.3120  143.7200 C   0  0  0  0  0  0  0  0  0  0  0  0
  191.5930  177.6530  142.4240 O   0  0  0  0  0  0  0  0  0  0  0  0
  191.6230  176.2200  144.2120 O   0  0  0  0  0  1  0  0  0  0  0  0
  1 16  1  0  0  0  0
  2 17  2  0  0  0  0
  3  2  1  0  0  0  0
  4 13  1  1  0  0  0
  5 11  1  0  0  0  0
  6 18  2  0  0  0  0
  6 10  1  0  0  0  0
  7  5  1  0  0  0  0
  8 22  1  6  0  0  0
  8  7  1  0  0  0  0
  9 15  1  6  0  0  0
  9 19  1  0  0  0  0
 10 12  2  0  0  0  0
 11  4  1  0  0  0  0
 11 25  1  1  0  0  0
 12  3  1  0  0  0  0
 14  8  1  0  0  0  0
 14  9  1  0  0  0  0
 16  4  1  0  0  0  0
 18 20  1  0  0  0  0
 19  2  1  6  0  0  0
 19  1  1  0  0  0  0
 20 15  1  0  0  0  0
 20  3  2  0  0  0  0
 22 21  1  0  0  0  0
 23 24  1  0  0  0  0
 24 14  1  0  0  0  0
 26 25  1  0  0  0  0
 26 27  1  0  0  0  0
 28 27  1  0  0  0  0
 29 28  1  0  0  0  0
 30 32  1  0  0  0  0
 30 29  1  0  0  0  0
 31 30  2  0  0  0  0
M  END
>  <MODEL>
5

>  <REMARK>
 VINA RESULT:      -6.3      3.992      6.160
  Name = 
  8 active torsions:
  status: ('A' for Active; 'I' for Inactive)
    1  A    between atoms: C_1  and  C_10
    2  A    between atoms: C_2  and  C_19
    3  A    between atoms: C_2  and  C_24
    4  A    between atoms: C_10  and  C_24
    5  A    between atoms: O_12  and  C_19
    6  A    between atoms: O_12  and  C_21
    7  A    between atoms: C_13  and  C_15
    8  A    between atoms: C_25  and  N_26
                            x       y       z     vdW  Elec       q    Type
                         _______ _______ _______ _____ _____    ______ ____

>  <TORSDO>
F 8

$$$$
=
 OpenBabel11052417053D

 32 34  0  0  1  0  0  0  0  0999 V2000
  187.4160  177.9190  139.6110 O   0  0  0  0  0  0  0  0  0  0  0  0
  186.8820  178.1680  137.3120 C   0  0  0  0  0  0  0  0  0  0  0  0
  186.1550  177.0070  136.7770 C   0  0  0  0  0  0  0  0  0  0  0  0
  188.5940  177.8520  141.6780 C   0  0  1  0  0  3  0  0  0  0  0  0
  190.3500  176.3770  140.6430 C   0  0  0  0  0  2  0  0  0  0  0  0
  184.7980  174.7630  135.7970 C   0  0  0  0  0  3  0  0  0  0  0  0
  191.3310  176.9350  139.6300 C   0  0  0  0  0  2  0  0  0  0  0  0
  191.1500  176.2620  138.2660 C   0  0  1  0  0  3  0  0  0  0  0  0
  188.7740  176.6730  138.0910 C   0  0  2  0  0  3  0  0  0  0  0  0
  184.1990  176.0290  135.7330 C   0  0  0  0  0  3  0  0  0  0  0  0
  190.0650  177.4100  141.7270 C   0  0  2  0  0  3  0  0  0  0  0  0
  184.8770  177.1500  136.2220 C   0  0  0  0  0  3  0  0  0  0  0  0
  188.2920  178.6400  142.7880 O   0  0  0  0  0  1  0  0  0  0  0  0
  190.0930  176.9610  137.4930 N   0  0  0  0  0  0  0  0  0  0  0  0
  188.0380  175.5760  137.4440 N   0  0  0  0  0  2  0  0  0  0  0  0
  188.2990  178.6470  140.4130 C   0  0  0  0  0  2  0  0  0  0  0  0
  186.5470  179.3400  136.9870 O   0  0  0  0  0  0  0  0  0  0  0  0
  186.0700  174.6180  136.3560 C   0  0  0  0  0  3  0  0  0  0  0  0
  187.9650  177.9570  138.3290 C   0  0  2  0  0  3  0  0  0  0  0  0
  186.7480  175.7370  136.8460 C   0  0  0  0  0  0  0  0  0  0  0  0
  193.5070  176.6340  138.4740 O   0  0  0  0  0  1  0  0  0  0  0  0
  192.5080  176.2900  137.5620 C   0  0  0  0  0  2  0  0  0  0  0  0
  189.5180  177.9060  135.2280 C   0  0  0  0  0  1  0  0  0  0  0  0
  190.1260  176.7540  136.0280 C   0  0  0  0  0  2  0  0  0  0  0  0
  190.3470  176.8420  142.9760 O   0  0  0  0  0  0  0  0  0  0  0  0
  191.2560  177.7190  143.5780 C   0  0  0  0  0  2  0  0  0  0  0  0
  191.1750  177.5750  145.0840 C   0  0  0  0  0  2  0  0  0  0  0  0
  189.7900  177.1030  145.4900 C   0  0  0  0  0  2  0  0  0  0  0  0
  189.5170  177.4170  146.9520 C   0  0  0  0  0  2  0  0  0  0  0  0
  188.0960  177.8000  147.1640 C   0  0  0  0  0  0  0  0  0  0  0  0
  187.6720  178.2200  148.4150 O   0  0  0  0  0  1  0  0  0  0  0  0
  187.2770  177.7270  146.2110 O   0  0  0  0  0  0  0  0  0  0  0  0
  1 16  1  0  0  0  0
  3 20  1  0  0  0  0
  3  2  1  0  0  0  0
  4 11  1  0  0  0  0
  4 13  1  1  0  0  0
  5 11  1  0  0  0  0
  6 18  1  0  0  0  0
  7  5  1  0  0  0  0
  8 22  1  6  0  0  0
  8  7  1  0  0  0  0
  9 15  1  6  0  0  0
  9 19  1  0  0  0  0
 10  6  2  0  0  0  0
 10 12  1  0  0  0  0
 11 25  1  1  0  0  0
 12  3  2  0  0  0  0
 14  9  1  0  0  0  0
 14  8  1  0  0  0  0
 16  4  1  0  0  0  0
 17  2  2  0  0  0  0
 18 20  2  0  0  0  0
 19  2  1  6  0  0  0
 19  1  1  0  0  0  0
 20 15  1  0  0  0  0
 22 21  1  0  0  0  0
 23 24  1  0  0  0  0
 24 14  1  0  0  0  0
 25 26  1  0  0  0  0
 26 27  1  0  0  0  0
 27 28  1  0  0  0  0
 28 29  1  0  0  0  0
 29 30  1  0  0  0  0
 30 31  1  0  0  0  0
 32 30  2  0  0  0  0
M  END
>  <MODEL>
6

>  <REMARK>
 VINA RESULT:      -6.2      2.428      3.568
  Name = 
  8 active torsions:
  status: ('A' for Active; 'I' for Inactive)
    1  A    between atoms: C_1  and  C_10
    2  A    between atoms: C_2  and  C_19
    3  A    between atoms: C_2  and  C_24
    4  A    between atoms: C_10  and  C_24
    5  A    between atoms: O_12  and  C_19
    6  A    between atoms: O_12  and  C_21
    7  A    between atoms: C_13  and  C_15
    8  A    between atoms: C_25  and  N_26
                            x       y       z     vdW  Elec       q    Type
                         _______ _______ _______ _____ _____    ______ ____

>  <TORSDO>
F 8

$$$$
=
 OpenBabel11052417053D

 32 34  0  0  1  0  0  0  0  0999 V2000
  184.2970  178.4480  137.7590 O   0  0  0  0  0  0  0  0  0  0  0  0
  181.9450  178.3490  137.4600 C   0  0  0  0  0  0  0  0  0  0  0  0
  181.3620  179.6680  137.1620 C   0  0  0  0  0  0  0  0  0  0  0  0
  186.4900  178.1880  138.6470 C   0  0  1  0  0  3  0  0  0  0  0  0
  185.7140  179.0970  140.8610 C   0  0  0  0  0  2  0  0  0  0  0  0
  180.2970  182.1990  136.6260 C   0  0  0  0  0  3  0  0  0  0  0  0
  184.8080  178.2780  141.7600 C   0  0  0  0  0  2  0  0  0  0  0  0
  183.4530  178.9680  141.9440 C   0  0  1  0  0  3  0  0  0  0  0  0
  182.9860  179.2490  139.5890 C   0  0  2  0  0  3  0  0  0  0  0  0
  180.1240  181.1560  135.7060 C   0  0  0  0  0  3  0  0  0  0  0  0
  186.7260  178.1930  140.1660 C   0  0  2  0  0  3  0  0  0  0  0  0
  180.6560  179.8910  135.9740 C   0  0  0  0  0  3  0  0  0  0  0  0
  187.5330  177.5230  138.0010 O   0  0  0  0  0  1  0  0  0  0  0  0
  182.5400  178.5940  140.8350 N   0  0  0  0  0  0  0  0  0  0  0  0
  182.2900  180.5070  139.2770 N   0  0  0  0  0  2  0  0  0  0  0  0
  185.1760  177.5030  138.2950 C   0  0  0  0  0  2  0  0  0  0  0  0
  181.5480  177.3200  136.8500 O   0  0  0  0  0  0  0  0  0  0  0  0
  181.0060  181.9790  137.8090 C   0  0  0  0  0  3  0  0  0  0  0  0
  183.0890  178.2490  138.4270 C   0  0  2  0  0  3  0  0  0  0  0  0
  181.5390  180.7160  138.0780 C   0  0  0  0  0  0  0  0  0  0  0  0
  183.9330  178.6190  144.2650 O   0  0  0  0  0  1  0  0  0  0  0  0
  182.9140  178.5510  143.3130 C   0  0  0  0  0  2  0  0  0  0  0  0
  180.2380  177.5740  140.7060 C   0  0  0  0  0  1  0  0  0  0  0  0
  181.0960  178.7760  141.1030 C   0  0  0  0  0  2  0  0  0  0  0  0
  188.0160  178.6630  140.4430 O   0  0  0  0  0  0  0  0  0  0  0  0
  188.1690  178.5160  141.8250 C   0  0  0  0  0  2  0  0  0  0  0  0
  188.8020  177.1730  142.1230 C   0  0  0  0  0  2  0  0  0  0  0  0
  188.0960  176.5110  143.2940 C   0  0  0  0  0  2  0  0  0  0  0  0
  187.4830  177.5530  144.2170 C   0  0  0  0  0  2  0  0  0  0  0  0
  188.1070  177.5110  145.5650 C   0  0  0  0  0  0  0  0  0  0  0  0
  189.3980  177.0300  145.7140 O   0  0  0  0  0  0  0  0  0  0  0  0
  187.4570  177.8960  146.5710 O   0  0  0  0  0  1  0  0  0  0  0  0
  1 16  1  0  0  0  0
  1 19  1  0  0  0  0
  3  2  1  0  0  0  0
  3 20  1  0  0  0  0
  4 13  1  6  0  0  0
  4 11  1  0  0  0  0
  5  7  1  0  0  0  0
  6 18  1  0  0  0  0
  7  8  1  0  0  0  0
  8 22  1  1  0  0  0
  9 15  1  6  0  0  0
  9 14  1  0  0  0  0
 10 12  1  0  0  0  0
 10  6  2  0  0  0  0
 11 25  1  6  0  0  0
 11  5  1  0  0  0  0
 12  3  2  0  0  0  0
 14 24  1  0  0  0  0
 14  8  1  0  0  0  0
 16  4  1  0  0  0  0
 17  2  2  0  0  0  0
 18 20  2  0  0  0  0
 19  2  1  6  0  0  0
 19  9  1  0  0  0  0
 20 15  1  0  0  0  0
 22 21  1  0  0  0  0
 23 24  1  0  0  0  0
 25 26  1  0  0  0  0
 26 27  1  0  0  0  0
 27 28  1  0  0  0  0
 28 29  1  0  0  0  0
 29 30  1  0  0  0  0
 30 31  2  0  0  0  0
 30 32  1  0  0  0  0
M  END
>  <MODEL>
7

>  <REMARK>
 VINA RESULT:      -6.2      4.963      7.009
  Name = 
  8 active torsions:
  status: ('A' for Active; 'I' for Inactive)
    1  A    between atoms: C_1  and  C_10
    2  A    between atoms: C_2  and  C_19
    3  A    between atoms: C_2  and  C_24
    4  A    between atoms: C_10  and  C_24
    5  A    between atoms: O_12  and  C_19
    6  A    between atoms: O_12  and  C_21
    7  A    between atoms: C_13  and  C_15
    8  A    between atoms: C_25  and  N_26
                            x       y       z     vdW  Elec       q    Type
                         _______ _______ _______ _____ _____    ______ ____

>  <TORSDO>
F 8

$$$$
=
 OpenBabel11052417053D

 32 34  0  0  1  0  0  0  0  0999 V2000
  185.7710  177.4060  137.9690 O   0  0  0  0  0  0  0  0  0  0  0  0
  185.9640  176.6080  135.7420 C   0  0  0  0  0  0  0  0  0  0  0  0
  185.6730  175.1700  135.6360 C   0  0  0  0  0  0  0  0  0  0  0  0
  186.2180  178.4720  140.0500 C   0  0  1  0  0  3  0  0  0  0  0  0
  188.4530  177.3230  140.1720 C   0  0  0  0  0  2  0  0  0  0  0  0
  185.1400  172.4260  135.4870 C   0  0  0  0  0  3  0  0  0  0  0  0
  189.5860  177.7330  139.2500 C   0  0  0  0  0  2  0  0  0  0  0  0
  189.9780  176.5800  138.3200 C   0  0  1  0  0  3  0  0  0  0  0  0
  187.7500  176.1570  137.4830 C   0  0  2  0  0  3  0  0  0  0  0  0
  184.3700  173.3320  134.7440 C   0  0  0  0  0  3  0  0  0  0  0  0
  187.6520  178.5470  140.6000 C   0  0  2  0  0  3  0  0  0  0  0  0
  184.6370  174.7030  134.8180 C   0  0  0  0  0  3  0  0  0  0  0  0
  185.4370  179.4860  140.6050 O   0  0  0  0  0  1  0  0  0  0  0  0
  189.1140  176.5870  137.1140 N   0  0  0  0  0  0  0  0  0  0  0  0
  187.4750  174.7310  137.2490 N   0  0  0  0  0  2  0  0  0  0  0  0
  186.2010  178.6100  138.5340 C   0  0  0  0  0  2  0  0  0  0  0  0
  185.5400  177.4150  134.8700 O   0  0  0  0  0  0  0  0  0  0  0  0
  186.1710  172.8910  136.3080 C   0  0  0  0  0  3  0  0  0  0  0  0
  186.6850  177.1290  136.9520 C   0  0  2  0  0  3  0  0  0  0  0  0
  186.4380  174.2610  136.3830 C   0  0  0  0  0  0  0  0  0  0  0  0
  192.1470  175.5670  138.2410 O   0  0  0  0  0  1  0  0  0  0  0  0
  191.4590  176.7540  137.9820 C   0  0  0  0  0  2  0  0  0  0  0  0
  189.5090  176.6450  134.6250 C   0  0  0  0  0  1  0  0  0  0  0  0
  189.6500  175.8700  135.9360 C   0  0  0  0  0  2  0  0  0  0  0  0
  187.6200  178.5990  141.9990 O   0  0  0  0  0  0  0  0  0  0  0  0
  188.0990  177.3540  142.4210 C   0  0  0  0  0  2  0  0  0  0  0  0
  187.6910  177.1180  143.8610 C   0  0  0  0  0  2  0  0  0  0  0  0
  188.7120  177.7350  144.8010 C   0  0  0  0  0  2  0  0  0  0  0  0
  190.1010  177.7110  144.1830 C   0  0  0  0  0  2  0  0  0  0  0  0
  190.9900  176.7560  144.8940 C   0  0  0  0  0  0  0  0  0  0  0  0
  191.0700  176.7850  146.2780 O   0  0  0  0  0  1  0  0  0  0  0  0
  191.6810  175.9330  144.2400 O   0  0  0  0  0  0  0  0  0  0  0  0
  1 16  1  0  0  0  0
  3  2  1  0  0  0  0
  3 20  1  0  0  0  0
  4 11  1  0  0  0  0
  4 13  1  1  0  0  0
  5 11  1  0  0  0  0
  6 18  1  0  0  0  0
  7  5  1  0  0  0  0
  8 22  1  6  0  0  0
  8  7  1  0  0  0  0
  9 15  1  6  0  0  0
 10 12  1  0  0  0  0
 10  6  2  0  0  0  0
 11 25  1  1  0  0  0
 12  3  2  0  0  0  0
 14  9  1  0  0  0  0
 14  8  1  0  0  0  0
 16  4  1  0  0  0  0
 17  2  2  0  0  0  0
 18 20  2  0  0  0  0
 19  2  1  6  0  0  0
 19  9  1  0  0  0  0
 19  1  1  0  0  0  0
 20 15  1  0  0  0  0
 22 21  1  0  0  0  0
 23 24  1  0  0  0  0
 24 14  1  0  0  0  0
 25 26  1  0  0  0  0
 26 27  1  0  0  0  0
 27 28  1  0  0  0  0
 29 28  1  0  0  0  0
 29 30  1  0  0  0  0
 30 31  1  0  0  0  0
 32 30  2  0  0  0  0
M  END
>  <MODEL>
8

>  <REMARK>
 VINA RESULT:      -6.0      2.582      3.766
  Name = 
  8 active torsions:
  status: ('A' for Active; 'I' for Inactive)
    1  A    between atoms: C_1  and  C_10
    2  A    between atoms: C_2  and  C_19
    3  A    between atoms: C_2  and  C_24
    4  A    between atoms: C_10  and  C_24
    5  A    between atoms: O_12  and  C_19
    6  A    between atoms: O_12  and  C_21
    7  A    between atoms: C_13  and  C_15
    8  A    between atoms: C_25  and  N_26
                            x       y       z     vdW  Elec       q    Type
                         _______ _______ _______ _____ _____    ______ ____

>  <TORSDO>
F 8

$$$$
=
 OpenBabel11052417053D

 32 34  0  0  1  0  0  0  0  0999 V2000
  184.5760  177.8540  139.4130 O   0  0  0  0  0  0  0  0  0  0  0  0
  183.5800  177.4150  137.3040 C   0  0  0  0  0  0  0  0  0  0  0  0
  183.2550  175.9910  137.1240 C   0  0  0  0  0  0  0  0  0  0  0  0
  186.0480  178.6270  141.1160 C   0  0  1  0  0  3  0  0  0  0  0  0
  188.0090  177.6400  139.8860 C   0  0  0  0  0  2  0  0  0  0  0  0
  182.6820  173.2690  136.8150 C   0  0  0  0  0  3  0  0  0  0  0  0
  188.5090  178.2650  138.5970 C   0  0  0  0  0  2  0  0  0  0  0  0
  188.3480  177.2970  137.4220 C   0  0  1  0  0  3  0  0  0  0  0  0
  186.0010  176.8410  137.7850 C   0  0  2  0  0  3  0  0  0  0  0  0
  181.6530  174.2170  136.7330 C   0  0  0  0  0  3  0  0  0  0  0  0
  187.5610  178.7240  140.8590 C   0  0  2  0  0  3  0  0  0  0  0  0
  181.9400  175.5770  136.8870 C   0  0  0  0  0  3  0  0  0  0  0  0
  185.6810  179.4860  142.1510 O   0  0  0  0  0  1  0  0  0  0  0  0
  186.9850  177.4200  136.8470 N   0  0  0  0  0  0  0  0  0  0  0  0
  185.6240  175.4500  137.4910 N   0  0  0  0  0  2  0  0  0  0  0  0
  185.2530  178.9880  139.8690 C   0  0  0  0  0  2  0  0  0  0  0  0
  182.7790  178.3090  136.9190 O   0  0  0  0  0  0  0  0  0  0  0  0
  183.9950  173.6810  137.0580 C   0  0  0  0  0  3  0  0  0  0  0  0
  184.8290  177.8000  138.0420 C   0  0  2  0  0  3  0  0  0  0  0  0
  184.2830  175.0390  137.2130 C   0  0  0  0  0  0  0  0  0  0  0  0
  190.3070  176.5390  136.2710 O   0  0  0  0  0  1  0  0  0  0  0  0
  189.4440  177.6280  136.4080 C   0  0  0  0  0  2  0  0  0  0  0  0
  185.9190  177.8050  134.5960 C   0  0  0  0  0  1  0  0  0  0  0  0
  186.8260  176.9290  135.4600 C   0  0  0  0  0  2  0  0  0  0  0  0
  188.2560  178.5630  142.0650 O   0  0  0  0  0  0  0  0  0  0  0  0
  188.5120  177.1910  142.1580 C   0  0  0  0  0  2  0  0  0  0  0  0
  188.1940  176.7120  143.5600 C   0  0  0  0  0  2  0  0  0  0  0  0
  188.5980  177.7670  144.5760 C   0  0  0  0  0  2  0  0  0  0  0  0
  188.9250  177.1290  145.9170 C   0  0  0  0  0  2  0  0  0  0  0  0
  187.9340  177.5180  146.9540 C   0  0  0  0  0  0  0  0  0  0  0  0
  188.3210  177.6070  148.2820 O   0  0  0  0  0  1  0  0  0  0  0  0
  186.7420  177.7510  146.6270 O   0  0  0  0  0  0  0  0  0  0  0  0
  1 16  1  0  0  0  0
  3 20  1  0  0  0  0
  3  2  1  0  0  0  0
  4 13  1  1  0  0  0
  5 11  1  0  0  0  0
  6 18  1  0  0  0  0
  7  5  1  0  0  0  0
  8 22  1  6  0  0  0
  8  7  1  0  0  0  0
  9 15  1  6  0  0  0
  9 19  1  0  0  0  0
 10  6  2  0  0  0  0
 10 12  1  0  0  0  0
 11  4  1  0  0  0  0
 11 25  1  1  0  0  0
 12  3  2  0  0  0  0
 14  8  1  0  0  0  0
 14  9  1  0  0  0  0
 16  4  1  0  0  0  0
 17  2  2  0  0  0  0
 18 20  2  0  0  0  0
 19  2  1  6  0  0  0
 19  1  1  0  0  0  0
 20 15  1  0  0  0  0
 21 22  1  0  0  0  0
 23 24  1  0  0  0  0
 24 14  1  0  0  0  0
 25 26  1  0  0  0  0
 26 27  1  0  0  0  0
 27 28  1  0  0  0  0
 28 29  1  0  0  0  0
 29 30  1  0  0  0  0
 30 31  1  0  0  0  0
 32 30  2  0  0  0  0
M  END
>  <MODEL>
9

>  <REMARK>
 VINA RESULT:      -5.8      3.529      4.937
  Name = 
  8 active torsions:
  status: ('A' for Active; 'I' for Inactive)
    1  A    between atoms: C_1  and  C_10
    2  A    between atoms: C_2  and  C_19
    3  A    between atoms: C_2  and  C_24
    4  A    between atoms: C_10  and  C_24
    5  A    between atoms: O_12  and  C_19
    6  A    between atoms: O_12  and  C_21
    7  A    between atoms: C_13  and  C_15
    8  A    between atoms: C_25  and  N_26
                            x       y       z     vdW  Elec       q    Type
                         _______ _______ _______ _____ _____    ______ ____

>  <TORSDO>
F 8

$$$$
