=
 OpenBabel11052415343D

 37 40  0  0  1  0  0  0  0  0999 V2000
  182.7480  178.9170  138.2140 C   0  0  0  0  0  2  0  0  0  0  0  0
  181.5930  178.6570  140.4910 C   0  0  2  0  0  3  0  0  0  0  0  0
  183.9550  178.0310  137.9260 C   0  0  2  0  0  3  0  0  0  0  0  0
  182.7730  179.2620  139.6960 C   0  0  1  0  0  3  0  0  0  0  0  0
  183.4930  176.6490  137.4380 C   0  0  2  0  0  3  0  0  0  0  0  0
  181.4850  177.1240  140.4040 C   0  0  0  0  0  2  0  0  0  0  0  0
  184.1730  178.9150  140.2060 C   0  0  2  0  0  3  0  0  0  0  0  0
  180.7300  175.1240  139.1500 C   0  0  0  0  0  2  0  0  0  0  0  0
  180.6780  176.6380  139.1970 C   0  0  2  0  0  3  0  0  0  0  0  0
  181.5090  175.9260  138.1260 C   0  0  1  0  0  3  0  0  0  0  0  0
  184.7840  177.9540  139.2040 C   0  0  2  0  0  3  0  0  0  0  0  0
  182.8710  175.9100  138.4500 O   0  0  0  0  0  0  0  0  0  0  0  0
  179.3810  179.3270  141.4700 C   0  0  0  0  0  1  0  0  0  0  0  0
  180.2700  179.3950  140.2430 C   0  0  1  0  0  3  0  0  0  0  0  0
  180.5130  180.7360  139.9410 O   0  0  0  0  0  1  0  0  0  0  0  0
  183.8660  179.3480  142.5410 O   0  0  0  0  0  0  0  0  0  0  0  0
  185.2440  179.0820  142.4190 C   0  0  2  0  0  3  0  0  0  0  0  0
  184.2310  178.3510  141.6220 C   0  0  2  0  0  3  0  0  0  0  0  0
  185.7070  178.2510  143.5760 C   0  0  0  0  0  0  0  0  0  0  0  0
  185.1070  178.3950  144.7630 C   0  0  0  0  0  2  0  0  0  0  0  0
  186.9570  177.4230  143.4370 C   0  0  2  0  0  3  0  0  0  0  0  0
  187.7210  177.3780  144.7510 C   0  0  0  0  0  1  0  0  0  0  0  0
  187.8400  177.9380  142.3050 C   0  0  0  0  0  2  0  0  0  0  0  0
  188.9280  176.9320  141.9550 C   0  0  0  0  0  2  0  0  0  0  0  0
  189.4060  177.1630  140.6660 O   0  0  0  0  0  1  0  0  0  0  0  0
  184.5940  175.8370  136.7430 C   0  0  0  0  0  2  0  0  0  0  0  0
  184.1020  174.5800  136.0290 C   0  0  0  0  0  2  0  0  0  0  0  0
  184.9700  173.3740  136.3420 C   0  0  2  0  0  3  0  0  0  0  0  0
  184.1010  172.2800  136.9470 C   0  0  0  0  0  2  0  0  0  0  0  0
  182.6380  172.6760  136.9060 C   0  0  0  0  0  1  0  0  0  0  0  0
  186.0460  173.7960  137.3350 C   0  0  0  0  0  2  0  0  0  0  0  0
  187.7520  172.1200  136.6250 O   0  0  0  0  0  1  0  0  0  0  0  0
  188.2320  174.3620  136.5640 O   0  0  0  0  0  0  0  0  0  0  0  0
  187.4050  173.4480  136.8300 C   0  0  0  0  0  0  0  0  0  0  0  0
  186.2450  178.3050  138.9360 C   0  0  0  0  0  2  0  0  0  0  0  0
  186.4150  178.7880  137.6360 O   0  0  0  0  0  0  0  0  0  0  0  0
  187.6360  178.2570  137.2230 C   0  0  0  0  0  1  0  0  0  0  0  0
  2 14  1  6  0  0  0
  3  1  1  1  0  0  0
  3 11  1  0  0  0  0
  4  1  1  6  0  0  0
  4  7  1  0  0  0  0
  4  2  1  0  0  0  0
  5 26  1  1  0  0  0
  5  3  1  0  0  0  0
  5 12  1  0  0  0  0
  6  2  1  0  0  0  0
  7 18  1  1  0  0  0
  9  8  1  1  0  0  0
  9  6  1  0  0  0  0
 10 12  1  0  0  0  0
 10  8  1  1  0  0  0
 10  9  1  0  0  0  0
 11 35  1  6  0  0  0
 11  7  1  0  0  0  0
 14 13  1  1  0  0  0
 15 14  1  0  0  0  0
 17 16  1  0  0  0  0
 17 19  1  1  0  0  0
 18 17  1  0  0  0  0
 18 16  1  1  0  0  0
 19 20  2  0  0  0  0
 21 19  1  0  0  0  0
 21 22  1  1  0  0  0
 23 21  1  0  0  0  0
 24 23  1  0  0  0  0
 25 24  1  0  0  0  0
 27 26  1  0  0  0  0
 28 27  1  1  0  0  0
 28 29  1  0  0  0  0
 28 31  1  0  0  0  0
 30 29  1  0  0  0  0
 32 34  1  0  0  0  0
 33 34  2  0  0  0  0
 34 31  1  0  0  0  0
 36 35  1  0  0  0  0
 37 36  1  0  0  0  0
M  END
>  <MODEL>
1

>  <REMARK>
 VINA RESULT:      -5.5      0.000      0.000
  Name = 
  14 active torsions:
  status: ('A' for Active; 'I' for Inactive)
    1  A    between atoms: C_1  and  C_5
    2  A    between atoms: C_1  and  C_23
    3  A    between atoms: C_2  and  C_6
    4  A    between atoms: C_5  and  C_26
    5  A    between atoms: C_6  and  C_8
    6  A    between atoms: C_6  and  C_31
    7  A    between atoms: C_7  and  C_14
    8  A    between atoms: C_7  and  C_31
    9  A    between atoms: C_8  and  C_19
   10  A    between atoms: C_9  and  C_30
   11  A    between atoms: C_11  and  C_26
   12  A    between atoms: C_20  and  C_25
   13  A    between atoms: O_27  and  C_33
   14  A    between atoms: C_29  and  C_33
                            x       y       z     vdW  Elec       q    Type
                         _______ _______ _______ _____ _____    ______ ____

>  <TORSDO>
F 14

$$$$
=
 OpenBabel11052415343D

 37 40  0  0  1  0  0  0  0  0999 V2000
  182.1350  176.9540  140.5610 C   0  0  0  0  0  2  0  0  0  0  0  0
  179.7320  177.7050  140.0680 C   0  0  2  0  0  3  0  0  0  0  0  0
  183.1850  178.0370  140.7870 C   0  0  2  0  0  3  0  0  0  0  0  0
  181.1570  177.4710  139.5170 C   0  0  1  0  0  3  0  0  0  0  0  0
  183.1320  178.5310  142.2410 C   0  0  2  0  0  3  0  0  0  0  0  0
  179.6590  178.6860  141.2530 C   0  0  0  0  0  2  0  0  0  0  0  0
  181.8220  178.6740  138.8460 C   0  0  2  0  0  3  0  0  0  0  0  0
  179.8930  179.0820  143.6880 C   0  0  0  0  0  2  0  0  0  0  0  0
  179.8740  178.0140  142.6120 C   0  0  2  0  0  3  0  0  0  0  0  0
  181.1870  178.3920  143.3040 C   0  0  1  0  0  3  0  0  0  0  0  0
  182.9190  179.1510  139.7790 C   0  0  2  0  0  3  0  0  0  0  0  0
  181.9630  179.2490  142.5140 O   0  0  0  0  0  0  0  0  0  0  0  0
  179.1740  175.4470  139.1250 C   0  0  0  0  0  1  0  0  0  0  0  0
  178.9570  176.3980  140.2870 C   0  0  1  0  0  3  0  0  0  0  0  0
  179.3820  175.7740  141.4610 O   0  0  0  0  0  1  0  0  0  0  0  0
  179.9880  179.3760  137.4770 O   0  0  0  0  0  0  0  0  0  0  0  0
  181.0660  180.1710  137.0400 C   0  0  2  0  0  3  0  0  0  0  0  0
  180.8830  179.8140  138.4670 C   0  0  2  0  0  3  0  0  0  0  0  0
  180.5950  181.5680  136.7800 C   0  0  0  0  0  0  0  0  0  0  0  0
  180.2210  181.9100  135.5430 C   0  0  0  0  0  2  0  0  0  0  0  0
  180.7420  182.6090  137.8600 C   0  0  2  0  0  3  0  0  0  0  0  0
  179.3940  183.2300  138.1940 C   0  0  0  0  0  1  0  0  0  0  0  0
  181.7570  183.6770  137.4670 C   0  0  0  0  0  2  0  0  0  0  0  0
  181.0840  185.0270  137.2640 C   0  0  0  0  0  2  0  0  0  0  0  0
  181.0280  185.3430  135.9060 O   0  0  0  0  0  1  0  0  0  0  0  0
  184.3830  179.3040  142.6790 C   0  0  0  0  0  2  0  0  0  0  0  0
  185.6230  178.4370  142.8880 C   0  0  0  0  0  2  0  0  0  0  0  0
  185.6860  177.8690  144.2950 C   0  0  2  0  0  3  0  0  0  0  0  0
  185.0010  178.8360  145.2510 C   0  0  0  0  0  2  0  0  0  0  0  0
  185.7620  178.9240  146.5590 C   0  0  0  0  0  1  0  0  0  0  0  0
  187.1490  177.6970  144.6840 C   0  0  0  0  0  2  0  0  0  0  0  0
  188.7870  178.0030  142.8290 O   0  0  0  0  0  0  0  0  0  0  0  0
  187.8790  175.9390  143.2450 O   0  0  0  0  0  1  0  0  0  0  0  0
  187.9470  177.1620  143.5440 C   0  0  0  0  0  0  0  0  0  0  0  0
  184.1830  179.5020  138.9990 C   0  0  0  0  0  2  0  0  0  0  0  0
  185.2500  178.6820  139.3750 O   0  0  0  0  0  0  0  0  0  0  0  0
  185.7450  178.1790  138.1730 C   0  0  0  0  0  1  0  0  0  0  0  0
  2 14  1  1  0  0  0
  2  6  1  0  0  0  0
  3  1  1  1  0  0  0
  3  5  1  0  0  0  0
  4  2  1  0  0  0  0
  4  1  1  1  0  0  0
  5 12  1  0  0  0  0
  5 26  1  6  0  0  0
  7 18  1  1  0  0  0
  7  4  1  0  0  0  0
  7 11  1  0  0  0  0
  9  6  1  6  0  0  0
  9 10  1  0  0  0  0
  9  8  1  0  0  0  0
 10  8  1  1  0  0  0
 11 35  1  6  0  0  0
 11  3  1  0  0  0  0
 12 10  1  0  0  0  0
 14 13  1  6  0  0  0
 14 15  1  0  0  0  0
 17 19  1  1  0  0  0
 17 16  1  0  0  0  0
 17 18  1  0  0  0  0
 18 16  1  6  0  0  0
 19 21  1  0  0  0  0
 20 19  2  0  0  0  0
 21 22  1  6  0  0  0
 23 21  1  0  0  0  0
 24 23  1  0  0  0  0
 25 24  1  0  0  0  0
 26 27  1  0  0  0  0
 28 27  1  6  0  0  0
 28 31  1  0  0  0  0
 28 29  1  0  0  0  0
 29 30  1  0  0  0  0
 32 34  2  0  0  0  0
 33 34  1  0  0  0  0
 34 31  1  0  0  0  0
 35 36  1  0  0  0  0
 37 36  1  0  0  0  0
M  END
>  <MODEL>
2

>  <REMARK>
 VINA RESULT:      -5.2      3.035      7.212
  Name = 
  14 active torsions:
  status: ('A' for Active; 'I' for Inactive)
    1  A    between atoms: C_1  and  C_5
    2  A    between atoms: C_1  and  C_23
    3  A    between atoms: C_2  and  C_6
    4  A    between atoms: C_5  and  C_26
    5  A    between atoms: C_6  and  C_8
    6  A    between atoms: C_6  and  C_31
    7  A    between atoms: C_7  and  C_14
    8  A    between atoms: C_7  and  C_31
    9  A    between atoms: C_8  and  C_19
   10  A    between atoms: C_9  and  C_30
   11  A    between atoms: C_11  and  C_26
   12  A    between atoms: C_20  and  C_25
   13  A    between atoms: O_27  and  C_33
   14  A    between atoms: C_29  and  C_33
                            x       y       z     vdW  Elec       q    Type
                         _______ _______ _______ _____ _____    ______ ____

>  <TORSDO>
F 14

$$$$
=
 OpenBabel11052415343D

 37 40  0  0  1  0  0  0  0  0999 V2000
  182.8520  178.7220  137.8370 C   0  0  0  0  0  2  0  0  0  0  0  0
  181.9740  178.9680  140.2350 C   0  0  2  0  0  3  0  0  0  0  0  0
  183.9270  177.6730  137.5780 C   0  0  2  0  0  3  0  0  0  0  0  0
  183.0950  179.3000  139.2230 C   0  0  1  0  0  3  0  0  0  0  0  0
  183.2840  176.2890  137.3930 C   0  0  2  0  0  3  0  0  0  0  0  0
  181.7170  177.4630  140.4310 C   0  0  0  0  0  2  0  0  0  0  0  0
  184.5100  178.8880  139.6310 C   0  0  2  0  0  3  0  0  0  0  0  0
  180.6320  175.3820  139.6370 C   0  0  0  0  0  2  0  0  0  0  0  0
  180.7230  176.8790  139.4230 C   0  0  2  0  0  3  0  0  0  0  0  0
  181.3450  175.9140  138.4100 C   0  0  1  0  0  3  0  0  0  0  0  0
  184.9000  177.7140  138.7520 C   0  0  2  0  0  3  0  0  0  0  0  0
  182.7290  175.8000  138.5810 O   0  0  0  0  0  0  0  0  0  0  0  0
  180.0330  180.1250  141.3280 C   0  0  0  0  0  1  0  0  0  0  0  0
  180.7030  179.7980  140.0070 C   0  0  1  0  0  3  0  0  0  0  0  0
  181.0150  180.9920  139.3560 O   0  0  0  0  0  1  0  0  0  0  0  0
  185.0160  179.7310  141.8140 O   0  0  0  0  0  0  0  0  0  0  0  0
  186.0850  178.8600  141.5260 C   0  0  2  0  0  3  0  0  0  0  0  0
  184.6950  178.5590  141.1080 C   0  0  2  0  0  3  0  0  0  0  0  0
  186.4500  178.0790  142.7510 C   0  0  0  0  0  0  0  0  0  0  0  0
  185.7140  178.2220  143.8580 C   0  0  0  0  0  2  0  0  0  0  0  0
  187.7440  177.3070  142.7760 C   0  0  2  0  0  3  0  0  0  0  0  0
  188.3220  177.2750  144.1820 C   0  0  0  0  0  1  0  0  0  0  0  0
  188.7490  177.8780  141.7810 C   0  0  0  0  0  2  0  0  0  0  0  0
  189.8690  176.8860  141.5010 C   0  0  0  0  0  2  0  0  0  0  0  0
  191.1110  177.4760  141.7380 O   0  0  0  0  0  1  0  0  0  0  0  0
  184.2100  175.2580  136.7360 C   0  0  0  0  0  2  0  0  0  0  0  0
  184.4530  174.0020  137.5690 C   0  0  0  0  0  2  0  0  0  0  0  0
  183.9980  172.7460  136.8460 C   0  0  2  0  0  3  0  0  0  0  0  0
  185.0710  172.3330  135.8470 C   0  0  0  0  0  2  0  0  0  0  0  0
  185.0070  170.8420  135.5790 C   0  0  0  0  0  1  0  0  0  0  0  0
  182.6950  173.0500  136.1180 C   0  0  0  0  0  2  0  0  0  0  0  0
  180.9270  172.3810  137.7450 O   0  0  0  0  0  1  0  0  0  0  0  0
  181.2860  171.1430  135.8480 O   0  0  0  0  0  0  0  0  0  0  0  0
  181.6070  172.1320  136.5610 C   0  0  0  0  0  0  0  0  0  0  0  0
  186.3410  177.8520  138.2690 C   0  0  0  0  0  2  0  0  0  0  0  0
  186.4840  178.9520  137.4200 O   0  0  0  0  0  0  0  0  0  0  0  0
  187.4800  178.5730  136.5220 C   0  0  0  0  0  1  0  0  0  0  0  0
  2 14  1  6  0  0  0
  2  6  1  0  0  0  0
  3  1  1  1  0  0  0
  3 11  1  0  0  0  0
  4  1  1  6  0  0  0
  4  7  1  0  0  0  0
  4  2  1  0  0  0  0
  5 26  1  1  0  0  0
  5  3  1  0  0  0  0
  5 12  1  0  0  0  0
  7 18  1  1  0  0  0
  9  8  1  1  0  0  0
  9  6  1  0  0  0  0
 10 12  1  0  0  0  0
 10  9  1  0  0  0  0
 10  8  1  1  0  0  0
 11 35  1  6  0  0  0
 11  7  1  0  0  0  0
 14 13  1  1  0  0  0
 15 14  1  0  0  0  0
 17 16  1  0  0  0  0
 17 19  1  1  0  0  0
 18 17  1  0  0  0  0
 18 16  1  1  0  0  0
 19 21  1  0  0  0  0
 19 20  2  0  0  0  0
 21 22  1  1  0  0  0
 23 21  1  0  0  0  0
 24 25  1  0  0  0  0
 24 23  1  0  0  0  0
 26 27  1  0  0  0  0
 28 29  1  6  0  0  0
 28 27  1  0  0  0  0
 30 29  1  0  0  0  0
 31 34  1  0  0  0  0
 31 28  1  0  0  0  0
 33 34  2  0  0  0  0
 34 32  1  0  0  0  0
 36 35  1  0  0  0  0
 37 36  1  0  0  0  0
M  END
>  <MODEL>
3

>  <REMARK>
 VINA RESULT:      -5.2      1.649      2.292
  Name = 
  14 active torsions:
  status: ('A' for Active; 'I' for Inactive)
    1  A    between atoms: C_1  and  C_5
    2  A    between atoms: C_1  and  C_23
    3  A    between atoms: C_2  and  C_6
    4  A    between atoms: C_5  and  C_26
    5  A    between atoms: C_6  and  C_8
    6  A    between atoms: C_6  and  C_31
    7  A    between atoms: C_7  and  C_14
    8  A    between atoms: C_7  and  C_31
    9  A    between atoms: C_8  and  C_19
   10  A    between atoms: C_9  and  C_30
   11  A    between atoms: C_11  and  C_26
   12  A    between atoms: C_20  and  C_25
   13  A    between atoms: O_27  and  C_33
   14  A    between atoms: C_29  and  C_33
                            x       y       z     vdW  Elec       q    Type
                         _______ _______ _______ _____ _____    ______ ____

>  <TORSDO>
F 14

$$$$
=
 OpenBabel11052415343D

 37 40  0  0  1  0  0  0  0  0999 V2000
  189.2600  178.1340  137.2450 C   0  0  0  0  0  2  0  0  0  0  0  0
  190.6540  175.9800  137.1960 C   0  0  2  0  0  3  0  0  0  0  0  0
  187.8970  178.0810  137.9260 C   0  0  2  0  0  3  0  0  0  0  0  0
  189.4920  176.7880  136.5730 C   0  0  1  0  0  3  0  0  0  0  0  0
  188.0550  178.2510  139.4450 C   0  0  2  0  0  3  0  0  0  0  0  0
  190.4970  175.6920  138.7000 C   0  0  0  0  0  2  0  0  0  0  0  0
  188.1370  176.0820  136.5200 C   0  0  2  0  0  3  0  0  0  0  0  0
  190.7370  176.4740  141.0390 C   0  0  0  0  0  2  0  0  0  0  0  0
  191.0430  176.8100  139.5930 C   0  0  2  0  0  3  0  0  0  0  0  0
  189.9690  177.5890  140.3580 C   0  0  1  0  0  3  0  0  0  0  0  0
  187.2470  176.7540  137.5490 C   0  0  2  0  0  3  0  0  0  0  0  0
  188.6800  177.1480  140.0390 O   0  0  0  0  0  0  0  0  0  0  0  0
  193.1360  175.7070  137.4480 C   0  0  0  0  0  1  0  0  0  0  0  0
  192.0340  176.5240  136.8010 C   0  0  1  0  0  3  0  0  0  0  0  0
  192.1950  176.4740  135.4160 O   0  0  0  0  0  1  0  0  0  0  0  0
  188.8510  173.9690  135.6500 O   0  0  0  0  0  0  0  0  0  0  0  0
  187.4450  173.8890  135.6330 C   0  0  2  0  0  3  0  0  0  0  0  0
  188.1780  174.5710  136.7260 C   0  0  2  0  0  3  0  0  0  0  0  0
  187.0070  172.5230  136.0630 C   0  0  0  0  0  0  0  0  0  0  0  0
  187.9050  171.5320  136.0970 C   0  0  0  0  0  2  0  0  0  0  0  0
  185.5390  172.2440  136.2510 C   0  0  2  0  0  3  0  0  0  0  0  0
  185.1300  170.9860  135.5000 C   0  0  0  0  0  1  0  0  0  0  0  0
  184.6890  173.4370  135.8280 C   0  0  0  0  0  2  0  0  0  0  0  0
  183.5690  173.6960  136.8270 C   0  0  0  0  0  2  0  0  0  0  0  0
  184.0880  174.2110  138.0150 O   0  0  0  0  0  1  0  0  0  0  0  0
  186.7530  178.6180  140.1670 C   0  0  0  0  0  2  0  0  0  0  0  0
  186.9090  178.8790  141.6640 C   0  0  0  0  0  2  0  0  0  0  0  0
  186.1160  177.8870  142.4970 C   0  0  2  0  0  3  0  0  0  0  0  0
  184.6670  178.3480  142.5730 C   0  0  0  0  0  2  0  0  0  0  0  0
  184.2770  178.6550  144.0050 C   0  0  0  0  0  1  0  0  0  0  0  0
  186.7220  177.8330  143.8940 C   0  0  0  0  0  2  0  0  0  0  0  0
  188.8630  177.0460  144.9000 O   0  0  0  0  0  1  0  0  0  0  0  0
  187.9290  175.9210  143.1330 O   0  0  0  0  0  0  0  0  0  0  0  0
  187.8710  176.8850  143.9430 C   0  0  0  0  0  0  0  0  0  0  0  0
  185.8400  176.9650  136.9960 C   0  0  0  0  0  2  0  0  0  0  0  0
  185.8640  177.1150  135.6070 O   0  0  0  0  0  0  0  0  0  0  0  0
  184.5220  177.0820  135.2300 C   0  0  0  0  0  1  0  0  0  0  0  0
  2 14  1  1  0  0  0
  2  6  1  0  0  0  0
  3  1  1  6  0  0  0
  3  5  1  0  0  0  0
  4  2  1  0  0  0  0
  4  1  1  1  0  0  0
  5 12  1  0  0  0  0
  5 26  1  1  0  0  0
  7  4  1  0  0  0  0
  7 18  1  1  0  0  0
  7 11  1  0  0  0  0
  9  6  1  6  0  0  0
  9 10  1  0  0  0  0
  9  8  1  0  0  0  0
 10  8  1  1  0  0  0
 11 35  1  6  0  0  0
 11  3  1  0  0  0  0
 12 10  1  0  0  0  0
 14 13  1  1  0  0  0
 15 14  1  0  0  0  0
 17 16  1  0  0  0  0
 17 19  1  1  0  0  0
 17 18  1  0  0  0  0
 18 16  1  6  0  0  0
 19 20  2  0  0  0  0
 19 21  1  0  0  0  0
 21 22  1  6  0  0  0
 23 21  1  0  0  0  0
 23 24  1  0  0  0  0
 24 25  1  0  0  0  0
 26 27  1  0  0  0  0
 28 27  1  6  0  0  0
 28 29  1  0  0  0  0
 28 31  1  0  0  0  0
 29 30  1  0  0  0  0
 31 34  1  0  0  0  0
 33 34  2  0  0  0  0
 34 32  1  0  0  0  0
 36 35  1  0  0  0  0
 37 36  1  0  0  0  0
M  END
>  <MODEL>
4

>  <REMARK>
 VINA RESULT:      -5.1      2.951      8.547
  Name = 
  14 active torsions:
  status: ('A' for Active; 'I' for Inactive)
    1  A    between atoms: C_1  and  C_5
    2  A    between atoms: C_1  and  C_23
    3  A    between atoms: C_2  and  C_6
    4  A    between atoms: C_5  and  C_26
    5  A    between atoms: C_6  and  C_8
    6  A    between atoms: C_6  and  C_31
    7  A    between atoms: C_7  and  C_14
    8  A    between atoms: C_7  and  C_31
    9  A    between atoms: C_8  and  C_19
   10  A    between atoms: C_9  and  C_30
   11  A    between atoms: C_11  and  C_26
   12  A    between atoms: C_20  and  C_25
   13  A    between atoms: O_27  and  C_33
   14  A    between atoms: C_29  and  C_33
                            x       y       z     vdW  Elec       q    Type
                         _______ _______ _______ _____ _____    ______ ____

>  <TORSDO>
F 14

$$$$
=
 OpenBabel11052415343D

 37 40  0  0  1  0  0  0  0  0999 V2000
  186.8870  178.6120  137.0660 C   0  0  0  0  0  2  0  0  0  0  0  0
  188.4260  176.6140  136.5960 C   0  0  2  0  0  3  0  0  0  0  0  0
  185.7840  178.4300  138.1030 C   0  0  2  0  0  3  0  0  0  0  0  0
  187.0590  177.2870  136.3380 C   0  0  1  0  0  3  0  0  0  0  0  0
  186.3470  178.6400  139.5180 C   0  0  2  0  0  3  0  0  0  0  0  0
  188.7300  176.3360  138.0790 C   0  0  0  0  0  2  0  0  0  0  0  0
  185.8240  176.4430  136.6600 C   0  0  2  0  0  3  0  0  0  0  0  0
  189.5380  177.1770  140.2660 C   0  0  0  0  0  2  0  0  0  0  0  0
  189.3870  177.5180  138.7970 C   0  0  2  0  0  3  0  0  0  0  0  0
  188.4980  178.1950  139.8440 C   0  0  1  0  0  3  0  0  0  0  0  0
  185.1960  177.0370  137.9070 C   0  0  2  0  0  3  0  0  0  0  0  0
  187.2240  177.6180  139.8960 O   0  0  0  0  0  0  0  0  0  0  0  0
  190.7170  176.3170  135.6140 C   0  0  0  0  0  1  0  0  0  0  0  0
  189.5740  177.2900  135.8350 C   0  0  1  0  0  3  0  0  0  0  0  0
  189.1290  177.7470  134.5940 O   0  0  0  0  0  1  0  0  0  0  0  0
  186.5910  174.4240  135.6270 O   0  0  0  0  0  0  0  0  0  0  0  0
  185.2270  174.1810  135.8850 C   0  0  2  0  0  3  0  0  0  0  0  0
  186.0780  174.9490  136.8250 C   0  0  2  0  0  3  0  0  0  0  0  0
  185.0430  172.7760  136.3670 C   0  0  0  0  0  0  0  0  0  0  0  0
  185.9780  171.8620  136.0840 C   0  0  0  0  0  2  0  0  0  0  0  0
  183.7270  172.3720  136.9790 C   0  0  2  0  0  3  0  0  0  0  0  0
  183.4430  170.9000  136.7220 C   0  0  0  0  0  1  0  0  0  0  0  0
  182.5870  173.2480  136.4710 C   0  0  0  0  0  2  0  0  0  0  0  0
  181.9100  172.6220  135.2600 C   0  0  0  0  0  2  0  0  0  0  0  0
  180.5270  172.7880  135.3360 O   0  0  0  0  0  1  0  0  0  0  0  0
  185.2700  178.8830  140.5830 C   0  0  0  0  0  2  0  0  0  0  0  0
  185.8040  179.0040  142.0090 C   0  0  0  0  0  2  0  0  0  0  0  0
  184.7850  178.5410  143.0360 C   0  0  2  0  0  3  0  0  0  0  0  0
  183.3910  178.6470  142.4350 C   0  0  0  0  0  2  0  0  0  0  0  0
  182.3770  179.0240  143.4980 C   0  0  0  0  0  1  0  0  0  0  0  0
  184.8950  179.4340  144.2650 C   0  0  0  0  0  2  0  0  0  0  0  0
  185.0440  179.0450  146.7240 O   0  0  0  0  0  1  0  0  0  0  0  0
  186.1510  177.6680  145.2620 O   0  0  0  0  0  0  0  0  0  0  0  0
  185.4080  178.6710  145.4380 C   0  0  0  0  0  0  0  0  0  0  0  0
  183.6760  177.0930  137.7770 C   0  0  0  0  0  2  0  0  0  0  0  0
  183.0770  175.9980  138.4040 O   0  0  0  0  0  0  0  0  0  0  0  0
  182.5300  176.5230  139.5740 C   0  0  0  0  0  1  0  0  0  0  0  0
  2 14  1  1  0  0  0
  2  6  1  0  0  0  0
  3  1  1  6  0  0  0
  3  5  1  0  0  0  0
  4  2  1  0  0  0  0
  4  7  1  0  0  0  0
  4  1  1  1  0  0  0
  5 12  1  0  0  0  0
  5 26  1  1  0  0  0
  7 18  1  1  0  0  0
  7 11  1  0  0  0  0
  9  6  1  6  0  0  0
  9 10  1  0  0  0  0
  9  8  1  0  0  0  0
 10 12  1  0  0  0  0
 10  8  1  1  0  0  0
 11 35  1  6  0  0  0
 11  3  1  0  0  0  0
 14 13  1  6  0  0  0
 15 14  1  0  0  0  0
 16 17  1  0  0  0  0
 17 19  1  1  0  0  0
 17 18  1  0  0  0  0
 18 16  1  6  0  0  0
 19 21  1  0  0  0  0
 20 19  2  0  0  0  0
 21 22  1  6  0  0  0
 23 21  1  0  0  0  0
 24 25  1  0  0  0  0
 24 23  1  0  0  0  0
 26 27  1  0  0  0  0
 28 27  1  6  0  0  0
 28 31  1  0  0  0  0
 29 28  1  0  0  0  0
 29 30  1  0  0  0  0
 31 34  1  0  0  0  0
 33 34  2  0  0  0  0
 34 32  1  0  0  0  0
 35 36  1  0  0  0  0
 36 37  1  0  0  0  0
M  END
>  <MODEL>
5

>  <REMARK>
 VINA RESULT:      -5.1      2.158      8.340
  Name = 
  14 active torsions:
  status: ('A' for Active; 'I' for Inactive)
    1  A    between atoms: C_1  and  C_5
    2  A    between atoms: C_1  and  C_23
    3  A    between atoms: C_2  and  C_6
    4  A    between atoms: C_5  and  C_26
    5  A    between atoms: C_6  and  C_8
    6  A    between atoms: C_6  and  C_31
    7  A    between atoms: C_7  and  C_14
    8  A    between atoms: C_7  and  C_31
    9  A    between atoms: C_8  and  C_19
   10  A    between atoms: C_9  and  C_30
   11  A    between atoms: C_11  and  C_26
   12  A    between atoms: C_20  and  C_25
   13  A    between atoms: O_27  and  C_33
   14  A    between atoms: C_29  and  C_33
                            x       y       z     vdW  Elec       q    Type
                         _______ _______ _______ _____ _____    ______ ____

>  <TORSDO>
F 14

$$$$
=
 OpenBabel11052415343D

 37 40  0  0  1  0  0  0  0  0999 V2000
  189.2100  178.3260  137.7160 C   0  0  0  0  0  2  0  0  0  0  0  0
  190.5830  176.1640  137.5630 C   0  0  2  0  0  3  0  0  0  0  0  0
  187.8250  178.2440  138.3480 C   0  0  2  0  0  3  0  0  0  0  0  0
  189.4500  177.0260  136.9610 C   0  0  1  0  0  3  0  0  0  0  0  0
  187.9370  178.3080  139.8800 C   0  0  2  0  0  3  0  0  0  0  0  0
  190.3750  175.7770  139.0380 C   0  0  0  0  0  2  0  0  0  0  0  0
  188.0900  176.3420  136.8180 C   0  0  2  0  0  3  0  0  0  0  0  0
  190.5470  176.3950  141.4320 C   0  0  0  0  0  2  0  0  0  0  0  0
  190.9030  176.8240  140.0230 C   0  0  2  0  0  3  0  0  0  0  0  0
  189.8130  177.5630  140.8050 C   0  0  1  0  0  3  0  0  0  0  0  0
  187.1740  176.9530  137.8620 C   0  0  2  0  0  3  0  0  0  0  0  0
  188.5300  177.1600  140.4160 O   0  0  0  0  0  0  0  0  0  0  0  0
  193.0480  175.9080  137.9640 C   0  0  0  0  0  1  0  0  0  0  0  0
  191.9800  176.7160  137.2500 C   0  0  1  0  0  3  0  0  0  0  0  0
  192.2240  176.6650  135.8770 O   0  0  0  0  0  1  0  0  0  0  0  0
  188.4240  174.2690  135.6680 O   0  0  0  0  0  0  0  0  0  0  0  0
  187.0670  174.2380  136.0440 C   0  0  2  0  0  3  0  0  0  0  0  0
  188.1090  174.8210  136.9210 C   0  0  2  0  0  3  0  0  0  0  0  0
  186.6970  172.8620  136.5040 C   0  0  0  0  0  0  0  0  0  0  0  0
  187.4250  171.8190  136.0920 C   0  0  0  0  0  2  0  0  0  0  0  0
  185.4050  172.6560  137.2520 C   0  0  2  0  0  3  0  0  0  0  0  0
  184.4670  171.7540  136.4650 C   0  0  0  0  0  1  0  0  0  0  0  0
  184.7380  173.9870  137.5840 C   0  0  0  0  0  2  0  0  0  0  0  0
  183.2530  173.9550  137.2560 C   0  0  0  0  0  2  0  0  0  0  0  0
  183.0110  174.5830  136.0350 O   0  0  0  0  0  1  0  0  0  0  0  0
  186.6150  178.6420  140.5840 C   0  0  0  0  0  2  0  0  0  0  0  0
  186.6810  178.5990  142.1090 C   0  0  0  0  0  2  0  0  0  0  0  0
  185.3330  178.2670  142.7250 C   0  0  2  0  0  3  0  0  0  0  0  0
  184.3110  178.0830  141.6110 C   0  0  0  0  0  2  0  0  0  0  0  0
  182.9600  178.6290  142.0290 C   0  0  0  0  0  1  0  0  0  0  0  0
  184.9160  179.4170  143.6320 C   0  0  0  0  0  2  0  0  0  0  0  0
  186.0750  178.6100  145.6880 O   0  0  0  0  0  0  0  0  0  0  0  0
  183.8160  179.0060  145.7090 O   0  0  0  0  0  1  0  0  0  0  0  0
  184.8970  178.9920  145.0610 C   0  0  0  0  0  0  0  0  0  0  0  0
  185.7880  177.2190  137.2800 C   0  0  0  0  0  2  0  0  0  0  0  0
  185.0610  178.0920  138.0930 O   0  0  0  0  0  0  0  0  0  0  0  0
  183.7480  177.6310  138.0140 C   0  0  0  0  0  1  0  0  0  0  0  0
  2 14  1  1  0  0  0
  2  6  1  0  0  0  0
  3  1  1  6  0  0  0
  3  5  1  0  0  0  0
  4  2  1  0  0  0  0
  4  1  1  1  0  0  0
  5 12  1  0  0  0  0
  5 26  1  1  0  0  0
  7 18  1  1  0  0  0
  7  4  1  0  0  0  0
  7 11  1  0  0  0  0
  9  6  1  6  0  0  0
  9 10  1  0  0  0  0
  9  8  1  0  0  0  0
 10  8  1  1  0  0  0
 11 35  1  6  0  0  0
 11  3  1  0  0  0  0
 12 10  1  0  0  0  0
 14 13  1  1  0  0  0
 15 14  1  0  0  0  0
 16 17  1  0  0  0  0
 17 19  1  1  0  0  0
 17 18  1  0  0  0  0
 18 16  1  6  0  0  0
 19 21  1  0  0  0  0
 20 19  2  0  0  0  0
 21 22  1  6  0  0  0
 21 23  1  0  0  0  0
 24 23  1  0  0  0  0
 25 24  1  0  0  0  0
 26 27  1  0  0  0  0
 27 28  1  0  0  0  0
 28 29  1  6  0  0  0
 28 31  1  0  0  0  0
 29 30  1  0  0  0  0
 31 34  1  0  0  0  0
 34 32  2  0  0  0  0
 34 33  1  0  0  0  0
 35 36  1  0  0  0  0
 37 36  1  0  0  0  0
M  END
>  <MODEL>
6

>  <REMARK>
 VINA RESULT:      -4.8      2.320      8.560
  Name = 
  14 active torsions:
  status: ('A' for Active; 'I' for Inactive)
    1  A    between atoms: C_1  and  C_5
    2  A    between atoms: C_1  and  C_23
    3  A    between atoms: C_2  and  C_6
    4  A    between atoms: C_5  and  C_26
    5  A    between atoms: C_6  and  C_8
    6  A    between atoms: C_6  and  C_31
    7  A    between atoms: C_7  and  C_14
    8  A    between atoms: C_7  and  C_31
    9  A    between atoms: C_8  and  C_19
   10  A    between atoms: C_9  and  C_30
   11  A    between atoms: C_11  and  C_26
   12  A    between atoms: C_20  and  C_25
   13  A    between atoms: O_27  and  C_33
   14  A    between atoms: C_29  and  C_33
                            x       y       z     vdW  Elec       q    Type
                         _______ _______ _______ _____ _____    ______ ____

>  <TORSDO>
F 14

$$$$
=
 OpenBabel11052415343D

 37 40  0  0  1  0  0  0  0  0999 V2000
  190.0950  175.9170  143.0910 C   0  0  0  0  0  2  0  0  0  0  0  0
  188.9890  177.2610  144.9760 C   0  0  2  0  0  3  0  0  0  0  0  0
  190.1970  176.5720  141.7180 C   0  0  2  0  0  3  0  0  0  0  0  0
  188.7900  176.3760  143.7250 C   0  0  1  0  0  3  0  0  0  0  0  0
  191.4230  177.4970  141.6620 C   0  0  2  0  0  3  0  0  0  0  0  0
  189.8220  178.5320  144.7320 C   0  0  0  0  0  2  0  0  0  0  0  0
  187.9430  176.9800  142.6040 C   0  0  2  0  0  3  0  0  0  0  0  0
  192.0530  179.5890  144.5110 C   0  0  0  0  0  2  0  0  0  0  0  0
  191.3300  178.3090  144.8800 C   0  0  2  0  0  3  0  0  0  0  0  0
  192.1140  178.4040  143.5680 C   0  0  1  0  0  3  0  0  0  0  0  0
  188.8900  177.3160  141.4670 C   0  0  2  0  0  3  0  0  0  0  0  0
  191.2720  178.6270  142.4730 O   0  0  0  0  0  0  0  0  0  0  0  0
  190.8620  176.7530  146.5690 C   0  0  0  0  0  1  0  0  0  0  0  0
  189.4180  176.4560  146.2110 C   0  0  1  0  0  3  0  0  0  0  0  0
  188.6110  176.7790  147.3030 O   0  0  0  0  0  1  0  0  0  0  0  0
  186.4520  177.9300  144.2180 O   0  0  0  0  0  0  0  0  0  0  0  0
  185.6680  177.8130  143.0540 C   0  0  2  0  0  3  0  0  0  0  0  0
  187.1010  178.1880  142.9990 C   0  0  2  0  0  3  0  0  0  0  0  0
  184.7980  179.0220  142.9010 C   0  0  0  0  0  0  0  0  0  0  0  0
  184.5440  179.7800  143.9730 C   0  0  0  0  0  2  0  0  0  0  0  0
  184.0690  179.2480  141.6020 C   0  0  2  0  0  3  0  0  0  0  0  0
  182.7330  178.5220  141.6030 C   0  0  0  0  0  1  0  0  0  0  0  0
  184.9210  178.8320  140.4080 C   0  0  0  0  0  2  0  0  0  0  0  0
  184.2110  179.1280  139.0960 C   0  0  0  0  0  2  0  0  0  0  0  0
  184.1820  180.5020  138.8580 O   0  0  0  0  0  1  0  0  0  0  0  0
  191.8470  177.8780  140.2370 C   0  0  0  0  0  2  0  0  0  0  0  0
  192.9810  177.0300  139.6650 C   0  0  0  0  0  2  0  0  0  0  0  0
  192.7390  176.6680  138.2100 C   0  0  2  0  0  3  0  0  0  0  0  0
  191.2420  176.7010  137.9340 C   0  0  0  0  0  2  0  0  0  0  0  0
  190.7200  175.3070  137.6440 C   0  0  0  0  0  1  0  0  0  0  0  0
  193.2860  175.2680  137.9610 C   0  0  0  0  0  2  0  0  0  0  0  0
  195.6970  175.2480  137.3250 O   0  0  0  0  0  1  0  0  0  0  0  0
  194.0720  175.3230  135.7080 O   0  0  0  0  0  0  0  0  0  0  0  0
  194.3670  175.2910  136.9340 C   0  0  0  0  0  0  0  0  0  0  0  0
  188.2830  176.9270  140.1210 C   0  0  0  0  0  2  0  0  0  0  0  0
  188.1670  178.0380  139.2820 O   0  0  0  0  0  0  0  0  0  0  0  0
  187.5940  177.5350  138.1150 C   0  0  0  0  0  1  0  0  0  0  0  0
  2 14  1  1  0  0  0
  3  1  1  1  0  0  0
  4  1  1  6  0  0  0
  4  2  1  0  0  0  0
  5 26  1  6  0  0  0
  5  3  1  0  0  0  0
  5 12  1  0  0  0  0
  6  9  1  0  0  0  0
  6  2  1  0  0  0  0
  7 18  1  1  0  0  0
  7  4  1  0  0  0  0
  9  8  1  1  0  0  0
 10  8  1  1  0  0  0
 10  9  1  0  0  0  0
 11 35  1  6  0  0  0
 11  3  1  0  0  0  0
 11  7  1  0  0  0  0
 12 10  1  0  0  0  0
 14 13  1  1  0  0  0
 14 15  1  0  0  0  0
 17 19  1  1  0  0  0
 17 16  1  0  0  0  0
 18 17  1  0  0  0  0
 18 16  1  1  0  0  0
 19 20  2  0  0  0  0
 21 22  1  1  0  0  0
 21 19  1  0  0  0  0
 23 21  1  0  0  0  0
 24 23  1  0  0  0  0
 25 24  1  0  0  0  0
 27 26  1  0  0  0  0
 28 29  1  1  0  0  0
 28 27  1  0  0  0  0
 30 29  1  0  0  0  0
 31 28  1  0  0  0  0
 33 34  2  0  0  0  0
 34 32  1  0  0  0  0
 34 31  1  0  0  0  0
 36 35  1  0  0  0  0
 37 36  1  0  0  0  0
M  END
>  <MODEL>
7

>  <REMARK>
 VINA RESULT:      -4.6      3.536      7.850
  Name = 
  14 active torsions:
  status: ('A' for Active; 'I' for Inactive)
    1  A    between atoms: C_1  and  C_5
    2  A    between atoms: C_1  and  C_23
    3  A    between atoms: C_2  and  C_6
    4  A    between atoms: C_5  and  C_26
    5  A    between atoms: C_6  and  C_8
    6  A    between atoms: C_6  and  C_31
    7  A    between atoms: C_7  and  C_14
    8  A    between atoms: C_7  and  C_31
    9  A    between atoms: C_8  and  C_19
   10  A    between atoms: C_9  and  C_30
   11  A    between atoms: C_11  and  C_26
   12  A    between atoms: C_20  and  C_25
   13  A    between atoms: O_27  and  C_33
   14  A    between atoms: C_29  and  C_33
                            x       y       z     vdW  Elec       q    Type
                         _______ _______ _______ _____ _____    ______ ____

>  <TORSDO>
F 14

$$$$
=
 OpenBabel11052415343D

 37 40  0  0  1  0  0  0  0  0999 V2000
  185.3500  179.1320  138.2110 C   0  0  0  0  0  2  0  0  0  0  0  0
  186.9880  177.4570  137.1640 C   0  0  2  0  0  3  0  0  0  0  0  0
  184.5210  178.6640  139.4020 C   0  0  2  0  0  3  0  0  0  0  0  0
  185.5250  177.9450  137.2760 C   0  0  1  0  0  3  0  0  0  0  0  0
  185.3390  178.7850  140.6980 C   0  0  2  0  0  3  0  0  0  0  0  0
  187.6290  177.0520  138.5030 C   0  0  0  0  0  2  0  0  0  0  0  0
  184.4980  176.8940  137.7000 C   0  0  2  0  0  3  0  0  0  0  0  0
  188.7700  177.7350  140.5950 C   0  0  0  0  0  2  0  0  0  0  0  0
  188.2730  178.2240  139.2490 C   0  0  2  0  0  3  0  0  0  0  0  0
  187.5480  178.6290  140.5360 C   0  0  1  0  0  3  0  0  0  0  0  0
  184.0790  177.2320  139.1180 C   0  0  2  0  0  3  0  0  0  0  0  0
  186.3940  177.8660  140.7450 O   0  0  0  0  0  0  0  0  0  0  0  0
  189.1640  177.7030  135.9370 C   0  0  0  0  0  1  0  0  0  0  0  0
  187.8590  178.3840  136.3060 C   0  0  1  0  0  3  0  0  0  0  0  0
  187.1880  178.7300  135.1320 O   0  0  0  0  0  1  0  0  0  0  0  0
  185.0560  175.0840  136.2360 O   0  0  0  0  0  0  0  0  0  0  0  0
  183.9180  174.6260  136.9290 C   0  0  2  0  0  3  0  0  0  0  0  0
  184.9610  175.4450  137.5900 C   0  0  2  0  0  3  0  0  0  0  0  0
  184.0820  173.1790  137.2780 C   0  0  0  0  0  0  0  0  0  0  0  0
  185.2910  172.7250  137.6220 C   0  0  0  0  0  2  0  0  0  0  0  0
  182.9360  172.2290  137.0410 C   0  0  2  0  0  3  0  0  0  0  0  0
  183.4330  170.9350  136.4160 C   0  0  0  0  0  1  0  0  0  0  0  0
  181.8500  172.8720  136.1860 C   0  0  0  0  0  2  0  0  0  0  0  0
  180.5000  172.8260  136.8870 C   0  0  0  0  0  2  0  0  0  0  0  0
  180.1580  171.5110  137.1980 O   0  0  0  0  0  1  0  0  0  0  0  0
  184.4890  178.7340  141.9740 C   0  0  0  0  0  2  0  0  0  0  0  0
  185.1500  179.3560  143.2020 C   0  0  0  0  0  2  0  0  0  0  0  0
  185.3460  178.3400  144.3150 C   0  0  2  0  0  3  0  0  0  0  0  0
  184.3400  178.6190  145.4230 C   0  0  0  0  0  2  0  0  0  0  0  0
  184.9400  178.3080  146.7800 C   0  0  0  0  0  1  0  0  0  0  0  0
  186.7660  178.4750  144.8500 C   0  0  0  0  0  2  0  0  0  0  0  0
  188.8350  177.0990  145.0570 O   0  0  0  0  0  1  0  0  0  0  0  0
  187.1700  176.4800  143.6060 O   0  0  0  0  0  0  0  0  0  0  0  0
  187.5990  177.3030  144.4590 C   0  0  0  0  0  0  0  0  0  0  0  0
  182.5700  177.0760  139.2910 C   0  0  0  0  0  2  0  0  0  0  0  0
  182.2550  175.8330  139.8460 O   0  0  0  0  0  0  0  0  0  0  0  0
  181.0080  175.5170  139.3080 C   0  0  0  0  0  1  0  0  0  0  0  0
  2 14  1  1  0  0  0
  2  4  1  0  0  0  0
  2  6  1  0  0  0  0
  3  1  1  6  0  0  0
  3  5  1  0  0  0  0
  4  7  1  0  0  0  0
  4  1  1  1  0  0  0
  5 12  1  0  0  0  0
  5 26  1  1  0  0  0
  7 18  1  1  0  0  0
  7 11  1  0  0  0  0
  9  6  1  6  0  0  0
  9 10  1  0  0  0  0
  9  8  1  0  0  0  0
 10  8  1  1  0  0  0
 10 12  1  0  0  0  0
 11 35  1  6  0  0  0
 11  3  1  0  0  0  0
 14 13  1  6  0  0  0
 15 14  1  0  0  0  0
 16 17  1  0  0  0  0
 17 19  1  1  0  0  0
 17 18  1  0  0  0  0
 18 16  1  6  0  0  0
 19 20  2  0  0  0  0
 21 22  1  6  0  0  0
 21 19  1  0  0  0  0
 23 24  1  0  0  0  0
 23 21  1  0  0  0  0
 24 25  1  0  0  0  0
 26 27  1  0  0  0  0
 28 27  1  6  0  0  0
 28 31  1  0  0  0  0
 28 29  1  0  0  0  0
 29 30  1  0  0  0  0
 33 34  2  0  0  0  0
 34 31  1  0  0  0  0
 34 32  1  0  0  0  0
 35 36  1  0  0  0  0
 37 36  1  0  0  0  0
M  END
>  <MODEL>
8

>  <REMARK>
 VINA RESULT:      -4.6      2.106      7.906
  Name = 
  14 active torsions:
  status: ('A' for Active; 'I' for Inactive)
    1  A    between atoms: C_1  and  C_5
    2  A    between atoms: C_1  and  C_23
    3  A    between atoms: C_2  and  C_6
    4  A    between atoms: C_5  and  C_26
    5  A    between atoms: C_6  and  C_8
    6  A    between atoms: C_6  and  C_31
    7  A    between atoms: C_7  and  C_14
    8  A    between atoms: C_7  and  C_31
    9  A    between atoms: C_8  and  C_19
   10  A    between atoms: C_9  and  C_30
   11  A    between atoms: C_11  and  C_26
   12  A    between atoms: C_20  and  C_25
   13  A    between atoms: O_27  and  C_33
   14  A    between atoms: C_29  and  C_33
                            x       y       z     vdW  Elec       q    Type
                         _______ _______ _______ _____ _____    ______ ____

>  <TORSDO>
F 14

$$$$
=
 OpenBabel11052415343D

 37 40  0  0  1  0  0  0  0  0999 V2000
  189.0060  179.1230  140.3310 C   0  0  0  0  0  2  0  0  0  0  0  0
  190.3950  176.9860  140.6240 C   0  0  2  0  0  3  0  0  0  0  0  0
  187.5150  178.9670  140.0500 C   0  0  2  0  0  3  0  0  0  0  0  0
  189.7270  177.9740  139.6410 C   0  0  1  0  0  3  0  0  0  0  0  0
  186.7480  178.7510  141.3640 C   0  0  2  0  0  3  0  0  0  0  0  0
  189.4310  176.3450  141.6380 C   0  0  0  0  0  2  0  0  0  0  0  0
  188.7380  177.3660  138.6460 C   0  0  2  0  0  3  0  0  0  0  0  0
  188.1890  176.5160  143.7760 C   0  0  0  0  0  2  0  0  0  0  0  0
  189.2350  177.1820  142.9050 C   0  0  2  0  0  3  0  0  0  0  0  0
  187.8400  177.7980  143.0470 C   0  0  1  0  0  3  0  0  0  0  0  0
  187.3510  177.8040  139.0770 C   0  0  2  0  0  3  0  0  0  0  0  0
  187.0290  177.5090  141.9440 O   0  0  0  0  0  0  0  0  0  0  0  0
  192.0570  176.7640  142.4930 C   0  0  0  0  0  1  0  0  0  0  0  0
  191.6810  177.5460  141.2480 C   0  0  1  0  0  3  0  0  0  0  0  0
  192.7350  177.4680  140.3360 O   0  0  0  0  0  1  0  0  0  0  0  0
  190.0220  175.5050  137.8580 O   0  0  0  0  0  0  0  0  0  0  0  0
  188.8650  175.4890  137.0540 C   0  0  2  0  0  3  0  0  0  0  0  0
  188.8160  175.8510  138.4900 C   0  0  2  0  0  3  0  0  0  0  0  0
  188.4080  174.0790  136.8470 C   0  0  0  0  0  0  0  0  0  0  0  0
  189.3140  173.0950  136.8350 C   0  0  0  0  0  2  0  0  0  0  0  0
  186.9760  173.8170  136.4590 C   0  0  2  0  0  3  0  0  0  0  0  0
  186.2950  175.1030  136.0180 C   0  0  0  0  0  1  0  0  0  0  0  0
  186.2070  173.1490  137.5940 C   0  0  0  0  0  2  0  0  0  0  0  0
  184.7040  173.2940  137.4000 C   0  0  0  0  0  2  0  0  0  0  0  0
  184.1000  172.0390  137.3270 O   0  0  0  0  0  1  0  0  0  0  0  0
  185.2370  178.9890  141.2460 C   0  0  0  0  0  2  0  0  0  0  0  0
  184.3720  177.9010  141.8790 C   0  0  0  0  0  2  0  0  0  0  0  0
  183.7100  178.3780  143.1600 C   0  0  2  0  0  3  0  0  0  0  0  0
  182.3640  179.0030  142.8200 C   0  0  0  0  0  2  0  0  0  0  0  0
  181.8940  178.5510  141.4510 C   0  0  0  0  0  1  0  0  0  0  0  0
  184.6150  179.4110  143.8180 C   0  0  0  0  0  2  0  0  0  0  0  0
  186.0860  178.9930  145.7880 O   0  0  0  0  0  0  0  0  0  0  0  0
  183.8050  178.9920  146.0230 O   0  0  0  0  0  1  0  0  0  0  0  0
  184.8060  179.1110  145.2660 C   0  0  0  0  0  0  0  0  0  0  0  0
  186.5090  178.2100  137.8700 C   0  0  0  0  0  2  0  0  0  0  0  0
  187.1610  179.1820  137.1070 O   0  0  0  0  0  0  0  0  0  0  0  0
  187.2930  178.6040  135.8450 C   0  0  0  0  0  1  0  0  0  0  0  0
  2 14  1  1  0  0  0
  2  6  1  0  0  0  0
  3  1  1  1  0  0  0
  3  5  1  0  0  0  0
  4  1  1  1  0  0  0
  4  2  1  0  0  0  0
  5 26  1  6  0  0  0
  5 12  1  0  0  0  0
  7 18  1  1  0  0  0
  7 11  1  0  0  0  0
  7  4  1  0  0  0  0
  9  6  1  6  0  0  0
  9 10  1  0  0  0  0
  9  8  1  0  0  0  0
 10  8  1  1  0  0  0
 11 35  1  6  0  0  0
 11  3  1  0  0  0  0
 12 10  1  0  0  0  0
 14 13  1  1  0  0  0
 15 14  1  0  0  0  0
 17 19  1  1  0  0  0
 17 16  1  0  0  0  0
 17 18  1  0  0  0  0
 18 16  1  1  0  0  0
 20 19  2  0  0  0  0
 21 22  1  1  0  0  0
 21 19  1  0  0  0  0
 21 23  1  0  0  0  0
 24 23  1  0  0  0  0
 25 24  1  0  0  0  0
 26 27  1  0  0  0  0
 28 27  1  6  0  0  0
 28 31  1  0  0  0  0
 29 28  1  0  0  0  0
 30 29  1  0  0  0  0
 31 34  1  0  0  0  0
 34 32  2  0  0  0  0
 34 33  1  0  0  0  0
 36 35  1  0  0  0  0
 37 36  1  0  0  0  0
M  END
>  <MODEL>
9

>  <REMARK>
 VINA RESULT:      -4.5      2.555      8.132
  Name = 
  14 active torsions:
  status: ('A' for Active; 'I' for Inactive)
    1  A    between atoms: C_1  and  C_5
    2  A    between atoms: C_1  and  C_23
    3  A    between atoms: C_2  and  C_6
    4  A    between atoms: C_5  and  C_26
    5  A    between atoms: C_6  and  C_8
    6  A    between atoms: C_6  and  C_31
    7  A    between atoms: C_7  and  C_14
    8  A    between atoms: C_7  and  C_31
    9  A    between atoms: C_8  and  C_19
   10  A    between atoms: C_9  and  C_30
   11  A    between atoms: C_11  and  C_26
   12  A    between atoms: C_20  and  C_25
   13  A    between atoms: O_27  and  C_33
   14  A    between atoms: C_29  and  C_33
                            x       y       z     vdW  Elec       q    Type
                         _______ _______ _______ _____ _____    ______ ____

>  <TORSDO>
F 14

$$$$
