=
 OpenBabel11052412483D

 25 29  0  0  0  0  0  0  0  0999 V2000
  187.0550  178.0060  145.4690 N   0  0  0  0  0  0  0  0  0  0  0  0
  188.3230  177.6800  145.0920 C   0  0  0  0  0  0  0  0  0  0  0  0
  187.5560  177.7650  147.7950 C   0  0  0  0  0  3  0  0  0  0  0  0
  185.9730  178.3330  144.7440 C   0  0  0  0  0  0  0  0  0  0  0  0
  183.5100  179.0500  143.7000 C   0  0  0  0  0  3  0  0  0  0  0  0
  188.8710  177.4240  147.4480 C   0  0  0  0  0  3  0  0  0  0  0  0
  184.9130  178.5820  145.5840 C   0  0  0  0  0  0  0  0  0  0  0  0
  183.6610  178.9450  145.0940 C   0  0  0  0  0  3  0  0  0  0  0  0
  190.5680  177.0420  145.7000 C   0  0  0  0  0  0  0  0  0  0  0  0
  191.6280  176.7090  146.6970 C   0  0  0  0  0  1  0  0  0  0  0  0
  188.6870  177.6400  143.7830 N   0  0  0  0  0  0  0  0  0  0  0  0
  184.5970  178.7930  142.8370 C   0  0  0  0  0  3  0  0  0  0  0  0
  186.6640  178.0540  146.7630 C   0  0  0  0  0  0  0  0  0  0  0  0
  185.3230  178.4120  146.8990 C   0  0  0  0  0  3  0  0  0  0  0  0
  190.8800  177.0170  144.3770 N   0  0  0  0  0  0  0  0  0  0  0  0
  185.8510  178.4290  143.3570 C   0  0  0  0  0  3  0  0  0  0  0  0
  189.9570  177.3110  143.4180 C   0  0  0  0  0  0  0  0  0  0  0  0
  189.2670  177.3770  146.0960 C   0  0  0  0  0  0  0  0  0  0  0  0
  192.0090  177.3020  140.2520 C   0  0  0  0  0  0  0  0  0  0  0  0
  190.3300  177.2750  141.9920 C   0  0  0  0  0  0  0  0  0  0  0  0
  191.6760  177.3390  141.6080 C   0  0  0  0  0  3  0  0  0  0  0  0
  193.3720  177.3680  139.8550 N   0  0  0  0  0  1  0  0  0  0  0  0
  189.3440  177.1750  141.0020 C   0  0  0  0  0  3  0  0  0  0  0  0
  191.0310  177.2060  139.3120 N   0  0  0  0  0  0  0  0  0  0  0  0
  189.7170  177.1410  139.6570 C   0  0  0  0  0  3  0  0  0  0  0  0
  1 13  1  0  0  0  0
  2  1  1  0  0  0  0
  2 18  2  0  0  0  0
  4  1  1  0  0  0  0
  4  7  1  0  0  0  0
  5  8  1  0  0  0  0
  6  3  2  0  0  0  0
  7 14  1  0  0  0  0
  8  7  2  0  0  0  0
  9 18  1  0  0  0  0
  9 10  1  0  0  0  0
 11  2  1  0  0  0  0
 12 16  1  0  0  0  0
 12  5  2  0  0  0  0
 13 14  2  0  0  0  0
 13  3  1  0  0  0  0
 15  9  2  0  0  0  0
 16  4  2  0  0  0  0
 17 11  2  0  0  0  0
 17 15  1  0  0  0  0
 18  6  1  0  0  0  0
 19 21  1  0  0  0  0
 20 17  1  0  0  0  0
 21 20  2  0  0  0  0
 22 19  1  0  0  0  0
 23 20  1  0  0  0  0
 24 25  1  0  0  0  0
 24 19  2  0  0  0  0
 25 23  2  0  0  0  0
M  END
>  <MODEL>
1

>  <REMARK>
 VINA RESULT:     -11.6      0.000      0.000
  Name = 
  1 active torsions:
  status: ('A' for Active; 'I' for Inactive)
    1  A    between atoms: C_6  and  C_23
                            x       y       z     vdW  Elec       q    Type
                         _______ _______ _______ _____ _____    ______ ____

>  <TORSDO>
F 1

$$$$
=
 OpenBabel11052412483D

 25 29  0  0  0  0  0  0  0  0999 V2000
  186.8780  178.0310  145.1210 N   0  0  0  0  0  0  0  0  0  0  0  0
  188.0920  177.7390  144.5760 C   0  0  0  0  0  0  0  0  0  0  0  0
  187.6740  177.7250  147.3550 C   0  0  0  0  0  3  0  0  0  0  0  0
  185.7080  178.3610  144.5500 C   0  0  0  0  0  0  0  0  0  0  0  0
  183.1230  179.0680  143.8510 C   0  0  0  0  0  3  0  0  0  0  0  0
  188.9390  177.4180  146.8330 C   0  0  0  0  0  3  0  0  0  0  0  0
  184.7610  178.5650  145.5260 C   0  0  0  0  0  0  0  0  0  0  0  0
  183.4520  178.9210  145.2100 C   0  0  0  0  0  3  0  0  0  0  0  0
  190.4050  177.1220  144.8720 C   0  0  0  0  0  0  0  0  0  0  0  0
  191.5870  176.7760  145.7150 C   0  0  0  0  0  1  0  0  0  0  0  0
  188.2880  177.7480  143.2300 N   0  0  0  0  0  0  0  0  0  0  0  0
  184.0950  178.8590  142.8490 C   0  0  0  0  0  3  0  0  0  0  0  0
  186.6540  178.0300  146.4550 C   0  0  0  0  0  0  0  0  0  0  0  0
  185.3370  178.3600  146.7720 C   0  0  0  0  0  3  0  0  0  0  0  0
  190.5460  177.1450  143.5200 N   0  0  0  0  0  0  0  0  0  0  0  0
  185.4100  178.5000  143.1940 C   0  0  0  0  0  3  0  0  0  0  0  0
  189.5050  177.4530  142.6970 C   0  0  0  0  0  0  0  0  0  0  0  0
  189.1600  177.4220  145.4410 C   0  0  0  0  0  0  0  0  0  0  0  0
  188.9380  178.0710  139.0180 C   0  0  0  0  0  0  0  0  0  0  0  0
  189.6940  177.4690  141.2340 C   0  0  0  0  0  0  0  0  0  0  0  0
  188.7400  178.0660  140.4000 C   0  0  0  0  0  3  0  0  0  0  0  0
  187.9730  178.6740  138.1650 N   0  0  0  0  0  1  0  0  0  0  0  0
  190.8310  176.8870  140.6590 C   0  0  0  0  0  3  0  0  0  0  0  0
  190.0510  177.4980  138.4870 N   0  0  0  0  0  0  0  0  0  0  0  0
  190.9930  176.9120  139.2720 C   0  0  0  0  0  3  0  0  0  0  0  0
  1 13  1  0  0  0  0
  2  1  1  0  0  0  0
  2 18  2  0  0  0  0
  4  1  1  0  0  0  0
  4  7  1  0  0  0  0
  5  8  1  0  0  0  0
  6  3  2  0  0  0  0
  7 14  1  0  0  0  0
  8  7  2  0  0  0  0
  9 18  1  0  0  0  0
  9 10  1  0  0  0  0
 11  2  1  0  0  0  0
 12 16  1  0  0  0  0
 12  5  2  0  0  0  0
 13 14  2  0  0  0  0
 13  3  1  0  0  0  0
 15  9  2  0  0  0  0
 16  4  2  0  0  0  0
 17 11  2  0  0  0  0
 17 15  1  0  0  0  0
 18  6  1  0  0  0  0
 19 21  1  0  0  0  0
 20 17  1  0  0  0  0
 21 20  2  0  0  0  0
 22 19  1  0  0  0  0
 23 20  1  0  0  0  0
 24 19  2  0  0  0  0
 24 25  1  0  0  0  0
 25 23  2  0  0  0  0
M  END
>  <MODEL>
2

>  <REMARK>
 VINA RESULT:     -11.6      1.059      1.662
  Name = 
  1 active torsions:
  status: ('A' for Active; 'I' for Inactive)
    1  A    between atoms: C_6  and  C_23
                            x       y       z     vdW  Elec       q    Type
                         _______ _______ _______ _____ _____    ______ ____

>  <TORSDO>
F 1

$$$$
=
 OpenBabel11052412483D

 25 29  0  0  0  0  0  0  0  0999 V2000
  186.8160  178.0140  144.9620 N   0  0  0  0  0  0  0  0  0  0  0  0
  188.0190  177.7280  144.3900 C   0  0  0  0  0  0  0  0  0  0  0  0
  187.6550  177.6850  147.1770 C   0  0  0  0  0  3  0  0  0  0  0  0
  185.6350  178.3500  144.4190 C   0  0  0  0  0  0  0  0  0  0  0  0
  183.0360  179.0640  143.7780 C   0  0  0  0  0  3  0  0  0  0  0  0
  188.9090  177.3840  146.6270 C   0  0  0  0  0  3  0  0  0  0  0  0
  184.7070  178.5440  145.4150 C   0  0  0  0  0  0  0  0  0  0  0  0
  183.3920  178.9030  145.1280 C   0  0  0  0  0  3  0  0  0  0  0  0
  190.3370  177.1080  144.6350 C   0  0  0  0  0  0  0  0  0  0  0  0
  191.5350  176.7530  145.4500 C   0  0  0  0  0  1  0  0  0  0  0  0
  188.1880  177.7500  143.0420 N   0  0  0  0  0  0  0  0  0  0  0  0
  183.9890  178.8650  142.7550 C   0  0  0  0  0  3  0  0  0  0  0  0
  186.6180  178.0000  146.3010 C   0  0  0  0  0  0  0  0  0  0  0  0
  185.3070  178.3260  146.6470 C   0  0  0  0  0  3  0  0  0  0  0  0
  190.4510  177.1450  143.2800 N   0  0  0  0  0  0  0  0  0  0  0  0
  185.3090  178.5030  143.0690 C   0  0  0  0  0  3  0  0  0  0  0  0
  189.3940  177.4620  142.4810 C   0  0  0  0  0  0  0  0  0  0  0  0
  189.1040  177.4010  145.2310 C   0  0  0  0  0  0  0  0  0  0  0  0
  190.7340  176.8320  139.0110 C   0  0  0  0  0  0  0  0  0  0  0  0
  189.5540  177.4920  141.0150 C   0  0  0  0  0  0  0  0  0  0  0  0
  190.5990  176.7910  140.4000 C   0  0  0  0  0  3  0  0  0  0  0  0
  191.7920  176.1230  138.3790 N   0  0  0  0  0  1  0  0  0  0  0  0
  188.6640  178.2230  140.2190 C   0  0  0  0  0  3  0  0  0  0  0  0
  189.8550  177.5510  138.2620 N   0  0  0  0  0  0  0  0  0  0  0  0
  188.8320  178.2400  138.8320 C   0  0  0  0  0  3  0  0  0  0  0  0
  1 13  1  0  0  0  0
  2  1  1  0  0  0  0
  2 18  2  0  0  0  0
  4  1  1  0  0  0  0
  4  7  1  0  0  0  0
  5  8  1  0  0  0  0
  6  3  2  0  0  0  0
  7 14  1  0  0  0  0
  8  7  2  0  0  0  0
  9 18  1  0  0  0  0
  9 10  1  0  0  0  0
 11  2  1  0  0  0  0
 12 16  1  0  0  0  0
 12  5  2  0  0  0  0
 13 14  2  0  0  0  0
 13  3  1  0  0  0  0
 15  9  2  0  0  0  0
 16  4  2  0  0  0  0
 17 11  2  0  0  0  0
 17 15  1  0  0  0  0
 18  6  1  0  0  0  0
 19 21  1  0  0  0  0
 20 17  1  0  0  0  0
 21 20  2  0  0  0  0
 22 19  1  0  0  0  0
 23 20  1  0  0  0  0
 24 25  1  0  0  0  0
 24 19  2  0  0  0  0
 25 23  2  0  0  0  0
M  END
>  <MODEL>
3

>  <REMARK>
 VINA RESULT:     -11.3      1.037      1.135
  Name = 
  1 active torsions:
  status: ('A' for Active; 'I' for Inactive)
    1  A    between atoms: C_6  and  C_23
                            x       y       z     vdW  Elec       q    Type
                         _______ _______ _______ _____ _____    ______ ____

>  <TORSDO>
F 1

$$$$
=
 OpenBabel11052412483D

 25 29  0  0  0  0  0  0  0  0999 V2000
  188.1660  177.5320  145.3790 N   0  0  0  0  0  0  0  0  0  0  0  0
  187.6260  177.7930  144.1560 C   0  0  0  0  0  0  0  0  0  0  0  0
  186.1180  178.0050  146.5180 C   0  0  0  0  0  3  0  0  0  0  0  0
  189.4040  177.1520  145.7370 C   0  0  0  0  0  0  0  0  0  0  0  0
  191.7710  176.3770  146.9490 C   0  0  0  0  0  3  0  0  0  0  0  0
  185.5250  178.2830  145.2780 C   0  0  0  0  0  3  0  0  0  0  0  0
  189.4650  177.0120  147.1040 C   0  0  0  0  0  0  0  0  0  0  0  0
  190.6390  176.6240  147.7460 C   0  0  0  0  0  3  0  0  0  0  0  0
  185.7240  178.4490  142.8250 C   0  0  0  0  0  0  0  0  0  0  0  0
  184.3000  178.8640  142.6630 C   0  0  0  0  0  1  0  0  0  0  0  0
  188.3610  177.6890  143.0170 N   0  0  0  0  0  0  0  0  0  0  0  0
  191.7070  176.5200  145.5460 C   0  0  0  0  0  3  0  0  0  0  0  0
  187.4600  177.6280  146.5290 C   0  0  0  0  0  0  0  0  0  0  0  0
  188.2250  177.3110  147.6500 C   0  0  0  0  0  3  0  0  0  0  0  0
  186.5040  178.3280  141.7180 N   0  0  0  0  0  0  0  0  0  0  0  0
  190.5110  176.9140  144.9220 C   0  0  0  0  0  3  0  0  0  0  0  0
  187.8110  177.9540  141.8010 C   0  0  0  0  0  0  0  0  0  0  0  0
  186.2710  178.1810  144.0870 C   0  0  0  0  0  0  0  0  0  0  0  0
  189.0960  178.4530  138.2880 C   0  0  0  0  0  0  0  0  0  0  0  0
  188.6280  177.8340  140.5780 C   0  0  0  0  0  0  0  0  0  0  0  0
  188.3100  178.5800  139.4360 C   0  0  0  0  0  3  0  0  0  0  0  0
  188.7800  179.2060  137.1250 N   0  0  0  0  0  1  0  0  0  0  0  0
  189.7320  176.9720  140.5430 C   0  0  0  0  0  3  0  0  0  0  0  0
  190.1620  177.6080  138.2820 N   0  0  0  0  0  0  0  0  0  0  0  0
  190.4930  176.8720  139.3770 C   0  0  0  0  0  3  0  0  0  0  0  0
  1  4  1  0  0  0  0
  1 13  1  0  0  0  0
  2  1  1  0  0  0  0
  3 13  1  0  0  0  0
  4  7  1  0  0  0  0
  5  8  1  0  0  0  0
  6  3  2  0  0  0  0
  7 14  1  0  0  0  0
  7  8  2  0  0  0  0
  9 18  1  0  0  0  0
 10  9  1  0  0  0  0
 11  2  1  0  0  0  0
 12  5  2  0  0  0  0
 13 14  2  0  0  0  0
 15 17  1  0  0  0  0
 15  9  2  0  0  0  0
 16 12  1  0  0  0  0
 16  4  2  0  0  0  0
 17 11  2  0  0  0  0
 18  2  2  0  0  0  0
 18  6  1  0  0  0  0
 19 21  1  0  0  0  0
 20 17  1  0  0  0  0
 21 20  2  0  0  0  0
 22 19  1  0  0  0  0
 23 20  1  0  0  0  0
 24 19  2  0  0  0  0
 24 25  1  0  0  0  0
 25 23  2  0  0  0  0
M  END
>  <MODEL>
4

>  <REMARK>
 VINA RESULT:     -10.8      1.447      4.649
  Name = 
  1 active torsions:
  status: ('A' for Active; 'I' for Inactive)
    1  A    between atoms: C_6  and  C_23
                            x       y       z     vdW  Elec       q    Type
                         _______ _______ _______ _____ _____    ______ ____

>  <TORSDO>
F 1

$$$$
=
 OpenBabel11052412483D

 25 29  0  0  0  0  0  0  0  0999 V2000
  188.1380  177.5740  145.5170 N   0  0  0  0  0  0  0  0  0  0  0  0
  187.5260  177.8530  144.3330 C   0  0  0  0  0  0  0  0  0  0  0  0
  186.1670  178.0450  146.7860 C   0  0  0  0  0  3  0  0  0  0  0  0
  189.3930  177.1820  145.7950 C   0  0  0  0  0  0  0  0  0  0  0  0
  191.8240  176.3780  146.8500 C   0  0  0  0  0  3  0  0  0  0  0  0
  185.5010  178.3420  145.5880 C   0  0  0  0  0  3  0  0  0  0  0  0
  189.5370  177.0250  147.1530 C   0  0  0  0  0  0  0  0  0  0  0  0
  190.7450  176.6220  147.7170 C   0  0  0  0  0  3  0  0  0  0  0  0
  185.5500  178.5360  143.1300 C   0  0  0  0  0  0  0  0  0  0  0  0
  184.1220  178.9610  143.0600 C   0  0  0  0  0  1  0  0  0  0  0  0
  188.1890  177.7580  143.1500 N   0  0  0  0  0  0  0  0  0  0  0  0
  191.6760  176.5390  145.4550 C   0  0  0  0  0  3  0  0  0  0  0  0
  187.5040  177.6590  146.7090 C   0  0  0  0  0  0  0  0  0  0  0  0
  188.3350  177.3250  147.7780 C   0  0  0  0  0  3  0  0  0  0  0  0
  186.2600  178.4240  141.9750 N   0  0  0  0  0  0  0  0  0  0  0  0
  190.4470  176.9470  144.9100 C   0  0  0  0  0  3  0  0  0  0  0  0
  187.5680  178.0410  141.9730 C   0  0  0  0  0  0  0  0  0  0  0  0
  186.1720  178.2500  144.3520 C   0  0  0  0  0  0  0  0  0  0  0  0
  190.3230  177.4050  139.4760 C   0  0  0  0  0  0  0  0  0  0  0  0
  188.3070  177.9310  140.7010 C   0  0  0  0  0  0  0  0  0  0  0  0
  189.6410  177.5040  140.6900 C   0  0  0  0  0  3  0  0  0  0  0  0
  191.6780  176.9730  139.4560 N   0  0  0  0  0  1  0  0  0  0  0  0
  187.6850  178.2530  139.4880 C   0  0  0  0  0  3  0  0  0  0  0  0
  189.6950  177.7250  138.3130 N   0  0  0  0  0  0  0  0  0  0  0  0
  188.4010  178.1420  138.2950 C   0  0  0  0  0  3  0  0  0  0  0  0
  1  4  1  0  0  0  0
  1 13  1  0  0  0  0
  2 18  2  0  0  0  0
  2  1  1  0  0  0  0
  4  7  1  0  0  0  0
  5  8  1  0  0  0  0
  6  3  2  0  0  0  0
  7  8  2  0  0  0  0
  7 14  1  0  0  0  0
  9 18  1  0  0  0  0
 10  9  1  0  0  0  0
 11  2  1  0  0  0  0
 12  5  2  0  0  0  0
 13  3  1  0  0  0  0
 13 14  2  0  0  0  0
 15  9  2  0  0  0  0
 16 12  1  0  0  0  0
 16  4  2  0  0  0  0
 17 15  1  0  0  0  0
 17 11  2  0  0  0  0
 18  6  1  0  0  0  0
 19 21  1  0  0  0  0
 20 17  1  0  0  0  0
 21 20  2  0  0  0  0
 22 19  1  0  0  0  0
 23 20  1  0  0  0  0
 24 19  2  0  0  0  0
 25 24  1  0  0  0  0
 25 23  2  0  0  0  0
M  END
>  <MODEL>
5

>  <REMARK>
 VINA RESULT:     -10.7      1.289      4.480
  Name = 
  1 active torsions:
  status: ('A' for Active; 'I' for Inactive)
    1  A    between atoms: C_6  and  C_23
                            x       y       z     vdW  Elec       q    Type
                         _______ _______ _______ _____ _____    ______ ____

>  <TORSDO>
F 1

$$$$
=
 OpenBabel11052412483D

 25 29  0  0  0  0  0  0  0  0999 V2000
  189.6900  177.4490  143.4730 N   0  0  0  0  0  0  0  0  0  0  0  0
  188.6460  177.6220  144.3320 C   0  0  0  0  0  0  0  0  0  0  0  0
  191.2350  177.0240  145.2480 C   0  0  0  0  0  3  0  0  0  0  0  0
  189.7530  177.5110  142.1330 C   0  0  0  0  0  0  0  0  0  0  0  0
  190.3740  177.5280  139.4340 C   0  0  0  0  0  3  0  0  0  0  0  0
  190.1880  177.1940  146.1640 C   0  0  0  0  0  3  0  0  0  0  0  0
  191.0400  177.2610  141.7200 C   0  0  0  0  0  0  0  0  0  0  0  0
  191.3880  177.2630  140.3720 C   0  0  0  0  0  3  0  0  0  0  0  0
  187.8070  177.6740  146.5930 C   0  0  0  0  0  0  0  0  0  0  0  0
  187.9730  177.5570  148.0710 C   0  0  0  0  0  1  0  0  0  0  0  0
  187.3960  177.9110  143.8830 N   0  0  0  0  0  0  0  0  0  0  0  0
  189.0530  177.7840  139.8580 C   0  0  0  0  0  3  0  0  0  0  0  0
  190.9440  177.1610  143.8910 C   0  0  0  0  0  0  0  0  0  0  0  0
  191.8400  177.0310  142.8310 C   0  0  0  0  0  3  0  0  0  0  0  0
  186.5770  177.9620  146.0900 N   0  0  0  0  0  0  0  0  0  0  0  0
  188.7270  177.7780  141.2250 C   0  0  0  0  0  3  0  0  0  0  0  0
  186.3610  178.0820  144.7500 C   0  0  0  0  0  0  0  0  0  0  0  0
  188.8860  177.4950  145.7170 C   0  0  0  0  0  0  0  0  0  0  0  0
  183.4570  178.6290  142.4040 C   0  0  0  0  0  0  0  0  0  0  0  0
  185.0130  178.3950  144.2400 C   0  0  0  0  0  0  0  0  0  0  0  0
  184.7400  178.3290  142.8670 C   0  0  0  0  0  3  0  0  0  0  0  0
  183.1720  178.5640  141.0130 N   0  0  0  0  0  1  0  0  0  0  0  0
  183.9880  178.7620  145.1210 C   0  0  0  0  0  3  0  0  0  0  0  0
  182.4810  178.9830  143.2820 N   0  0  0  0  0  0  0  0  0  0  0  0
  182.7180  179.0550  144.6190 C   0  0  0  0  0  3  0  0  0  0  0  0
  1 13  1  0  0  0  0
  1  2  1  0  0  0  0
  2 18  2  0  0  0  0
  3  6  2  0  0  0  0
  4  1  1  0  0  0  0
  5 12  2  0  0  0  0
  5  8  1  0  0  0  0
  7  4  1  0  0  0  0
  7 14  1  0  0  0  0
  8  7  2  0  0  0  0
  9 10  1  0  0  0  0
 11  2  1  0  0  0  0
 11 17  2  0  0  0  0
 12 16  1  0  0  0  0
 13  3  1  0  0  0  0
 14 13  2  0  0  0  0
 15  9  2  0  0  0  0
 16  4  2  0  0  0  0
 17 15  1  0  0  0  0
 18  6  1  0  0  0  0
 18  9  1  0  0  0  0
 19 21  2  0  0  0  0
 19 24  1  0  0  0  0
 20 17  1  0  0  0  0
 20 23  2  0  0  0  0
 21 20  1  0  0  0  0
 22 19  1  0  0  0  0
 24 25  2  0  0  0  0
 25 23  1  0  0  0  0
M  END
>  <MODEL>
6

>  <REMARK>
 VINA RESULT:     -10.6      1.789      6.162
  Name = 
  1 active torsions:
  status: ('A' for Active; 'I' for Inactive)
    1  A    between atoms: C_6  and  C_23
                            x       y       z     vdW  Elec       q    Type
                         _______ _______ _______ _____ _____    ______ ____

>  <TORSDO>
F 1

$$$$
=
 OpenBabel11052412483D

 25 29  0  0  0  0  0  0  0  0999 V2000
  187.7860  177.8390  145.5920 N   0  0  0  0  0  0  0  0  0  0  0  0
  186.8880  178.1870  144.6290 C   0  0  0  0  0  0  0  0  0  0  0  0
  186.2300  178.2500  147.3610 C   0  0  0  0  0  3  0  0  0  0  0  0
  189.0620  177.4270  145.5060 C   0  0  0  0  0  0  0  0  0  0  0  0
  191.6700  176.5540  145.8350 C   0  0  0  0  0  3  0  0  0  0  0  0
  185.2770  178.6150  146.3990 C   0  0  0  0  0  3  0  0  0  0  0  0
  189.5570  177.1940  146.7670 C   0  0  0  0  0  0  0  0  0  0  0  0
  190.8640  176.7550  146.9690 C   0  0  0  0  0  3  0  0  0  0  0  0
  184.6780  178.9450  144.0300 C   0  0  0  0  0  0  0  0  0  0  0  0
  183.2900  179.3800  144.3640 C   0  0  0  0  0  1  0  0  0  0  0  0
  187.2130  178.1540  143.3090 N   0  0  0  0  0  0  0  0  0  0  0  0
  191.1610  176.7930  144.5400 C   0  0  0  0  0  3  0  0  0  0  0  0
  187.4920  177.8620  146.9130 C   0  0  0  0  0  0  0  0  0  0  0  0
  188.5690  177.4650  147.7030 C   0  0  0  0  0  3  0  0  0  0  0  0
  185.0550  178.8940  142.7240 N   0  0  0  0  0  0  0  0  0  0  0  0
  189.8390  177.2360  144.3620 C   0  0  0  0  0  3  0  0  0  0  0  0
  186.3070  178.5050  142.3550 C   0  0  0  0  0  0  0  0  0  0  0  0
  185.5950  178.5880  145.0270 C   0  0  0  0  0  0  0  0  0  0  0  0
  188.3470  178.2150  139.1950 C   0  0  0  0  0  0  0  0  0  0  0  0
  186.6810  178.4620  140.9290 C   0  0  0  0  0  0  0  0  0  0  0  0
  188.0140  178.2530  140.5500 C   0  0  0  0  0  3  0  0  0  0  0  0
  189.6980  178.0030  138.8020 N   0  0  0  0  0  1  0  0  0  0  0  0
  185.7090  178.6290  139.9350 C   0  0  0  0  0  3  0  0  0  0  0  0
  187.3830  178.3810  138.2510 N   0  0  0  0  0  0  0  0  0  0  0  0
  186.0830  178.5850  138.5900 C   0  0  0  0  0  3  0  0  0  0  0  0
  1 13  1  0  0  0  0
  2 18  2  0  0  0  0
  2  1  1  0  0  0  0
  4  1  1  0  0  0  0
  4  7  1  0  0  0  0
  5  8  1  0  0  0  0
  6  3  2  0  0  0  0
  7  8  2  0  0  0  0
  7 14  1  0  0  0  0
  9 10  1  0  0  0  0
  9 18  1  0  0  0  0
 11  2  1  0  0  0  0
 12  5  2  0  0  0  0
 13  3  1  0  0  0  0
 13 14  2  0  0  0  0
 15  9  2  0  0  0  0
 16 12  1  0  0  0  0
 16  4  2  0  0  0  0
 17 15  1  0  0  0  0
 17 11  2  0  0  0  0
 18  6  1  0  0  0  0
 19 21  1  0  0  0  0
 20 17  1  0  0  0  0
 21 20  2  0  0  0  0
 22 19  1  0  0  0  0
 23 20  1  0  0  0  0
 24 25  1  0  0  0  0
 24 19  2  0  0  0  0
 25 23  2  0  0  0  0
M  END
>  <MODEL>
7

>  <REMARK>
 VINA RESULT:     -10.6      1.837      4.831
  Name = 
  1 active torsions:
  status: ('A' for Active; 'I' for Inactive)
    1  A    between atoms: C_6  and  C_23
                            x       y       z     vdW  Elec       q    Type
                         _______ _______ _______ _____ _____    ______ ____

>  <TORSDO>
F 1

$$$$
=
 OpenBabel11052412483D

 25 29  0  0  0  0  0  0  0  0999 V2000
  186.1290  178.3460  144.8110 N   0  0  0  0  0  0  0  0  0  0  0  0
  186.0690  178.4000  143.4510 C   0  0  0  0  0  0  0  0  0  0  0  0
  183.8120  178.8830  145.0550 C   0  0  0  0  0  3  0  0  0  0  0  0
  187.1510  178.0810  145.6410 C   0  0  0  0  0  0  0  0  0  0  0  0
  188.9150  177.6030  147.7230 C   0  0  0  0  0  3  0  0  0  0  0  0
  183.7090  178.9490  143.6580 C   0  0  0  0  0  3  0  0  0  0  0  0
  186.7150  178.1440  146.9440 C   0  0  0  0  0  0  0  0  0  0  0  0
  187.5740  177.9100  148.0140 C   0  0  0  0  0  3  0  0  0  0  0  0
  184.7800  178.7640  141.4450 C   0  0  0  0  0  0  0  0  0  0  0  0
  183.5140  179.0840  140.7220 C   0  0  0  0  0  1  0  0  0  0  0  0
  187.1640  178.1660  142.6800 N   0  0  0  0  0  0  0  0  0  0  0  0
  189.3630  177.5370  146.3860 C   0  0  0  0  0  3  0  0  0  0  0  0
  185.0570  178.5750  145.6020 C   0  0  0  0  0  0  0  0  0  0  0  0
  185.3630  178.4620  146.9580 C   0  0  0  0  0  3  0  0  0  0  0  0
  185.9060  178.5210  140.7220 N   0  0  0  0  0  0  0  0  0  0  0  0
  188.4760  177.7790  145.3230 C   0  0  0  0  0  3  0  0  0  0  0  0
  187.0930  178.2240  141.3230 C   0  0  0  0  0  0  0  0  0  0  0  0
  184.8330  178.7100  142.8430 C   0  0  0  0  0  0  0  0  0  0  0  0
  189.4260  177.9510  138.3710 C   0  0  0  0  0  0  0  0  0  0  0  0
  188.2940  177.9660  140.5070 C   0  0  0  0  0  0  0  0  0  0  0  0
  188.2790  178.2010  139.1260 C   0  0  0  0  0  3  0  0  0  0  0  0
  189.4190  178.1860  136.9690 N   0  0  0  0  0  1  0  0  0  0  0  0
  189.4660  177.4820  141.1020 C   0  0  0  0  0  3  0  0  0  0  0  0
  190.5510  177.4800  138.9750 N   0  0  0  0  0  0  0  0  0  0  0  0
  190.5930  177.2440  140.3130 C   0  0  0  0  0  3  0  0  0  0  0  0
  1 13  1  0  0  0  0
  1  4  1  0  0  0  0
  2  1  1  0  0  0  0
  3 13  1  0  0  0  0
  4  7  1  0  0  0  0
  5  8  1  0  0  0  0
  6  3  2  0  0  0  0
  7 14  1  0  0  0  0
  7  8  2  0  0  0  0
  9 18  1  0  0  0  0
 10  9  1  0  0  0  0
 11  2  1  0  0  0  0
 12  5  2  0  0  0  0
 13 14  2  0  0  0  0
 15 17  1  0  0  0  0
 15  9  2  0  0  0  0
 16  4  2  0  0  0  0
 16 12  1  0  0  0  0
 17 11  2  0  0  0  0
 18  2  2  0  0  0  0
 18  6  1  0  0  0  0
 19 24  2  0  0  0  0
 19 21  1  0  0  0  0
 20 23  1  0  0  0  0
 20 17  1  0  0  0  0
 21 20  2  0  0  0  0
 22 19  1  0  0  0  0
 24 25  1  0  0  0  0
 25 23  2  0  0  0  0
M  END
>  <MODEL>
8

>  <REMARK>
 VINA RESULT:     -10.6      1.514      4.568
  Name = 
  1 active torsions:
  status: ('A' for Active; 'I' for Inactive)
    1  A    between atoms: C_6  and  C_23
                            x       y       z     vdW  Elec       q    Type
                         _______ _______ _______ _____ _____    ______ ____

>  <TORSDO>
F 1

$$$$
=
 OpenBabel11052412483D

 25 29  0  0  0  0  0  0  0  0999 V2000
  188.3130  177.6190  144.5040 N   0  0  0  0  0  0  0  0  0  0  0  0
  188.0990  177.7710  143.1670 C   0  0  0  0  0  0  0  0  0  0  0  0
  186.0910  178.3070  145.0590 C   0  0  0  0  0  3  0  0  0  0  0  0
  189.4000  177.2240  145.1870 C   0  0  0  0  0  0  0  0  0  0  0  0
  191.3490  176.4760  147.0070 C   0  0  0  0  0  3  0  0  0  0  0  0
  185.8320  178.4760  143.6910 C   0  0  0  0  0  3  0  0  0  0  0  0
  189.1240  177.2300  146.5340 C   0  0  0  0  0  0  0  0  0  0  0  0
  190.0810  176.8600  147.4770 C   0  0  0  0  0  3  0  0  0  0  0  0
  186.6200  178.3660  141.3570 C   0  0  0  0  0  0  0  0  0  0  0  0
  185.3080  178.8260  140.8140 C   0  0  0  0  0  1  0  0  0  0  0  0
  189.0750  177.5110  142.2570 N   0  0  0  0  0  0  0  0  0  0  0  0
  191.6320  176.4700  145.6240 C   0  0  0  0  0  3  0  0  0  0  0  0
  187.3620  177.8710  145.4320 C   0  0  0  0  0  0  0  0  0  0  0  0
  187.8140  177.6430  146.7310 C   0  0  0  0  0  3  0  0  0  0  0  0
  187.6300  178.0910  140.4900 N   0  0  0  0  0  0  0  0  0  0  0  0
  190.6500  176.8480  144.6920 C   0  0  0  0  0  3  0  0  0  0  0  0
  188.8510  177.6680  140.9240 C   0  0  0  0  0  0  0  0  0  0  0  0
  186.8310  178.2120  142.7330 C   0  0  0  0  0  0  0  0  0  0  0  0
  192.2680  177.1240  139.4200 C   0  0  0  0  0  0  0  0  0  0  0  0
  189.9240  177.3790  139.9540 C   0  0  0  0  0  0  0  0  0  0  0  0
  191.2670  177.4000  140.3530 C   0  0  0  0  0  3  0  0  0  0  0  0
  193.6330  177.1440  139.8180 N   0  0  0  0  0  1  0  0  0  0  0  0
  189.6150  177.0790  138.6210 C   0  0  0  0  0  3  0  0  0  0  0  0
  191.9390  176.8360  138.1320 N   0  0  0  0  0  0  0  0  0  0  0  0
  190.6450  176.8080  137.7180 C   0  0  0  0  0  3  0  0  0  0  0  0
  1  4  1  0  0  0  0
  1 13  1  0  0  0  0
  2  1  1  0  0  0  0
  3 13  1  0  0  0  0
  4  7  1  0  0  0  0
  5  8  1  0  0  0  0
  6  3  2  0  0  0  0
  7 14  1  0  0  0  0
  7  8  2  0  0  0  0
  9 18  1  0  0  0  0
 10  9  1  0  0  0  0
 11  2  1  0  0  0  0
 12  5  2  0  0  0  0
 13 14  2  0  0  0  0
 15 17  1  0  0  0  0
 15  9  2  0  0  0  0
 16  4  2  0  0  0  0
 16 12  1  0  0  0  0
 17 11  2  0  0  0  0
 18  2  2  0  0  0  0
 18  6  1  0  0  0  0
 19 22  1  0  0  0  0
 19 21  1  0  0  0  0
 20 21  2  0  0  0  0
 20 17  1  0  0  0  0
 23 20  1  0  0  0  0
 24 19  2  0  0  0  0
 25 24  1  0  0  0  0
 25 23  2  0  0  0  0
M  END
>  <MODEL>
9

>  <REMARK>
 VINA RESULT:     -10.3      1.388      4.444
  Name = 
  1 active torsions:
  status: ('A' for Active; 'I' for Inactive)
    1  A    between atoms: C_6  and  C_23
                            x       y       z     vdW  Elec       q    Type
                         _______ _______ _______ _____ _____    ______ ____

>  <TORSDO>
F 1

$$$$
