=
 OpenBabel11052413453D

 27 31  0  0  0  0  0  0  0  0999 V2000
  187.4600  179.1680  141.2890 C   0  0  0  0  0  2  0  0  0  0  0  0
  187.7570  177.9410  143.4150 C   0  0  0  0  0  0  0  0  0  0  0  0
  189.9570  177.8820  142.1570 N   0  0  0  0  0  2  0  0  0  0  0  0
  189.7090  176.7550  147.2630 C   0  0  0  0  0  3  0  0  0  0  0  0
  192.1120  176.5460  147.0620 O   0  0  0  0  0  1  0  0  0  0  0  0
  187.3410  177.6700  144.6390 O   0  0  0  0  0  0  0  0  0  0  0  0
  190.8080  177.1930  145.1230 C   0  0  0  0  0  0  0  0  0  0  0  0
  190.0450  176.1290  139.1250 C   0  0  0  0  0  3  0  0  0  0  0  0
  191.9520  177.2680  144.3360 O   0  0  0  0  0  1  0  0  0  0  0  0
  188.9650  176.1010  138.3500 C   0  0  0  0  0  3  0  0  0  0  0  0
  189.5470  177.4770  144.5940 C   0  0  0  0  0  0  0  0  0  0  0  0
  186.9000  178.3400  142.3470 N   0  0  0  0  0  0  0  0  0  0  0  0
  190.8820  176.8320  146.4810 C   0  0  0  0  0  0  0  0  0  0  0  0
  188.4060  177.3900  145.3560 C   0  0  0  0  0  0  0  0  0  0  0  0
  188.3250  178.3590  140.3800 C   0  0  0  0  0  0  0  0  0  0  0  0
  189.1360  177.8310  143.3300 C   0  0  0  0  0  0  0  0  0  0  0  0
  190.5170  177.3780  139.7870 C   0  0  0  0  0  2  0  0  0  0  0  0
  188.4490  177.0350  146.7020 C   0  0  0  0  0  3  0  0  0  0  0  0
  188.0770  177.2540  138.1200 C   0  0  0  0  0  3  0  0  0  0  0  0
  187.8140  178.2330  138.9950 C   0  0  0  0  0  3  0  0  0  0  0  0
  189.5230  177.8760  140.7840 C   0  0  0  0  0  0  0  0  0  0  0  0
  182.6720  178.3550  142.7260 C   0  0  0  0  0  2  0  0  0  0  0  0
  185.4590  178.1540  142.4650 C   0  0  0  0  0  3  0  0  0  0  0  0
  184.7340  178.6790  141.2250 C   0  0  0  0  0  2  0  0  0  0  0  0
  183.2280  178.3960  141.2950 C   0  0  0  0  0  2  0  0  0  0  0  0
  183.4740  179.2590  143.6590 C   0  0  0  0  0  2  0  0  0  0  0  0
  184.9320  178.7930  143.7610 C   0  0  0  0  0  2  0  0  0  0  0  0
  1 12  1  0  0  0  0
  2  6  1  0  0  0  0
  3 16  1  0  0  0  0
  6 14  1  0  0  0  0
  7 13  1  0  0  0  0
  8 17  1  0  0  0  0
  9  7  1  0  0  0  0
 10  8  2  0  0  0  0
 11  7  2  0  0  0  0
 11 14  1  0  0  0  0
 12 23  1  0  0  0  0
 12  2  1  0  0  0  0
 13  5  1  0  0  0  0
 13  4  2  0  0  0  0
 14 18  2  0  0  0  0
 15 21  2  0  0  0  0
 15  1  1  0  0  0  0
 16  2  2  0  0  0  0
 16 11  1  0  0  0  0
 17 21  1  0  0  0  0
 18  4  1  0  0  0  0
 19 10  1  0  0  0  0
 19 20  2  0  0  0  0
 20 15  1  0  0  0  0
 21  3  1  0  0  0  0
 22 26  1  0  0  0  0
 23 27  1  0  0  0  0
 24 25  1  0  0  0  0
 24 23  1  0  0  0  0
 25 22  1  0  0  0  0
 26 27  1  0  0  0  0
M  END
>  <MODEL>
1

>  <REMARK>
 VINA RESULT:      -9.2      0.000      0.000
  Name = 
  1 active torsions:
  status: ('A' for Active; 'I' for Inactive)
    1  A    between atoms: C_9  and  N_15
                            x       y       z     vdW  Elec       q    Type
                         _______ _______ _______ _____ _____    ______ ____

>  <TORSDO>
F 1

$$$$
=
 OpenBabel11052413453D

 27 31  0  0  0  0  0  0  0  0999 V2000
  186.9490  179.2680  141.6650 C   0  0  0  0  0  2  0  0  0  0  0  0
  188.5100  177.6880  140.5770 C   0  0  0  0  0  0  0  0  0  0  0  0
  186.8210  178.4460  138.8450 N   0  0  0  0  0  2  0  0  0  0  0  0
  191.3090  176.1420  137.4460 C   0  0  0  0  0  3  0  0  0  0  0  0
  190.5140  176.5620  135.1980 O   0  0  0  0  0  1  0  0  0  0  0  0
  189.6670  177.0510  140.5780 O   0  0  0  0  0  0  0  0  0  0  0  0
  189.1910  177.3110  137.0880 C   0  0  0  0  0  0  0  0  0  0  0  0
  183.4780  177.5140  139.3250 C   0  0  0  0  0  3  0  0  0  0  0  0
  188.2190  177.8350  136.2420 O   0  0  0  0  0  1  0  0  0  0  0  0
  182.9940  177.4110  140.5600 C   0  0  0  0  0  3  0  0  0  0  0  0
  189.0670  177.4020  138.4750 C   0  0  0  0  0  0  0  0  0  0  0  0
  187.8260  178.1080  141.7550 N   0  0  0  0  0  0  0  0  0  0  0  0
  190.3350  176.6740  136.5720 C   0  0  0  0  0  0  0  0  0  0  0  0
  190.0120  176.8730  139.3230 C   0  0  0  0  0  0  0  0  0  0  0  0
  185.6750  178.9200  140.9700 C   0  0  0  0  0  0  0  0  0  0  0  0
  188.0860  177.9320  139.2800 C   0  0  0  0  0  0  0  0  0  0  0  0
  184.3430  178.6510  138.9020 C   0  0  0  0  0  2  0  0  0  0  0  0
  191.1530  176.2370  138.8410 C   0  0  0  0  0  3  0  0  0  0  0  0
  183.3130  178.3410  141.6570 C   0  0  0  0  0  3  0  0  0  0  0  0
  184.4660  179.0000  141.8220 C   0  0  0  0  0  3  0  0  0  0  0  0
  185.6400  178.6550  139.6420 C   0  0  0  0  0  0  0  0  0  0  0  0
  188.9890  177.0530  145.6990 C   0  0  0  0  0  2  0  0  0  0  0  0
  188.2110  177.5630  143.0520 C   0  0  0  0  0  3  0  0  0  0  0  0
  187.1300  177.8270  144.1020 C   0  0  0  0  0  2  0  0  0  0  0  0
  187.4810  177.1690  145.4430 C   0  0  0  0  0  2  0  0  0  0  0  0
  189.7590  178.1740  145.0050 C   0  0  0  0  0  2  0  0  0  0  0  0
  189.5840  178.1040  143.4830 C   0  0  0  0  0  2  0  0  0  0  0  0
  1 12  1  0  0  0  0
  2  6  1  0  0  0  0
  2 12  1  0  0  0  0
  3 16  1  0  0  0  0
  3 21  1  0  0  0  0
  4 18  1  0  0  0  0
  5 13  1  0  0  0  0
  7 11  2  0  0  0  0
  8 10  2  0  0  0  0
  9  7  1  0  0  0  0
 10 19  1  0  0  0  0
 11 16  1  0  0  0  0
 11 14  1  0  0  0  0
 12 23  1  0  0  0  0
 13  7  1  0  0  0  0
 13  4  2  0  0  0  0
 14  6  1  0  0  0  0
 15  1  1  0  0  0  0
 15 20  1  0  0  0  0
 16  2  2  0  0  0  0
 17  8  1  0  0  0  0
 17 21  1  0  0  0  0
 18 14  2  0  0  0  0
 19 20  2  0  0  0  0
 21 15  2  0  0  0  0
 23 27  1  0  0  0  0
 23 24  1  0  0  0  0
 24 25  1  0  0  0  0
 25 22  1  0  0  0  0
 26 22  1  0  0  0  0
 27 26  1  0  0  0  0
M  END
>  <MODEL>
2

>  <REMARK>
 VINA RESULT:      -9.1      2.902      6.353
  Name = 
  1 active torsions:
  status: ('A' for Active; 'I' for Inactive)
    1  A    between atoms: C_9  and  N_15
                            x       y       z     vdW  Elec       q    Type
                         _______ _______ _______ _____ _____    ______ ____

>  <TORSDO>
F 1

$$$$
=
 OpenBabel11052413453D

 27 31  0  0  0  0  0  0  0  0999 V2000
  187.7930  176.7020  143.2190 C   0  0  0  0  0  2  0  0  0  0  0  0
  187.5100  177.8640  141.0540 C   0  0  0  0  0  0  0  0  0  0  0  0
  189.8640  176.9270  141.1450 N   0  0  0  0  0  2  0  0  0  0  0  0
  187.7120  178.4500  136.6220 C   0  0  0  0  0  3  0  0  0  0  0  0
  189.7890  177.6490  135.6710 O   0  0  0  0  0  1  0  0  0  0  0  0
  186.7130  178.3750  140.1330 O   0  0  0  0  0  0  0  0  0  0  0  0
  189.4140  177.4390  138.0580 C   0  0  0  0  0  0  0  0  0  0  0  0
  192.0460  178.2520  143.5430 C   0  0  0  0  0  3  0  0  0  0  0  0
  190.6590  176.8450  138.2350 O   0  0  0  0  0  1  0  0  0  0  0  0
  191.5670  178.6560  144.7170 C   0  0  0  0  0  3  0  0  0  0  0  0
  188.5540  177.6510  139.1370 C   0  0  0  0  0  0  0  0  0  0  0  0
  187.1780  177.7670  142.4370 N   0  0  0  0  0  0  0  0  0  0  0  0
  188.9770  177.8430  136.7820 C   0  0  0  0  0  0  0  0  0  0  0  0
  187.3280  178.2530  138.9790 C   0  0  0  0  0  0  0  0  0  0  0  0
  189.2210  177.0170  143.5170 C   0  0  0  0  0  0  0  0  0  0  0  0
  188.6840  177.3970  140.4820 C   0  0  0  0  0  0  0  0  0  0  0  0
  191.6180  176.9750  142.9070 C   0  0  0  0  0  2  0  0  0  0  0  0
  186.8690  178.6630  137.7290 C   0  0  0  0  0  3  0  0  0  0  0  0
  190.5200  177.9490  145.4750 C   0  0  0  0  0  3  0  0  0  0  0  0
  189.5170  177.2320  144.9520 C   0  0  0  0  0  3  0  0  0  0  0  0
  190.1680  177.0020  142.5500 C   0  0  0  0  0  0  0  0  0  0  0  0
  183.6520  179.4990  144.0450 C   0  0  0  0  0  2  0  0  0  0  0  0
  186.0560  178.5300  142.9700 C   0  0  0  0  0  3  0  0  0  0  0  0
  185.8610  178.2530  144.4610 C   0  0  0  0  0  2  0  0  0  0  0  0
  184.7480  179.1280  145.0520 C   0  0  0  0  0  2  0  0  0  0  0  0
  183.4920  178.4210  142.9760 C   0  0  0  0  0  2  0  0  0  0  0  0
  184.7790  178.2600  142.1570 C   0  0  0  0  0  2  0  0  0  0  0  0
  1 15  1  0  0  0  0
  2 12  1  0  0  0  0
  3 21  1  0  0  0  0
  4 13  2  0  0  0  0
  4 18  1  0  0  0  0
  5 13  1  0  0  0  0
  6  2  1  0  0  0  0
  7  9  1  0  0  0  0
  7 11  2  0  0  0  0
  8 10  2  0  0  0  0
 10 19  1  0  0  0  0
 11 16  1  0  0  0  0
 12 23  1  0  0  0  0
 12  1  1  0  0  0  0
 13  7  1  0  0  0  0
 14 11  1  0  0  0  0
 14  6  1  0  0  0  0
 15 20  1  0  0  0  0
 16  2  2  0  0  0  0
 16  3  1  0  0  0  0
 17  8  1  0  0  0  0
 18 14  2  0  0  0  0
 20 19  2  0  0  0  0
 21 17  1  0  0  0  0
 21 15  2  0  0  0  0
 22 25  1  0  0  0  0
 23 24  1  0  0  0  0
 24 25  1  0  0  0  0
 26 22  1  0  0  0  0
 27 23  1  0  0  0  0
 27 26  1  0  0  0  0
M  END
>  <MODEL>
3

>  <REMARK>
 VINA RESULT:      -9.0      2.599      5.774
  Name = 
  1 active torsions:
  status: ('A' for Active; 'I' for Inactive)
    1  A    between atoms: C_9  and  N_15
                            x       y       z     vdW  Elec       q    Type
                         _______ _______ _______ _____ _____    ______ ____

>  <TORSDO>
F 1

$$$$
=
 OpenBabel11052413453D

 27 31  0  0  0  0  0  0  0  0999 V2000
  186.0800  179.3620  142.0950 C   0  0  0  0  0  2  0  0  0  0  0  0
  187.9020  177.9030  141.2780 C   0  0  0  0  0  0  0  0  0  0  0  0
  186.5170  178.6270  139.2820 N   0  0  0  0  0  2  0  0  0  0  0  0
  191.3100  176.6090  138.6830 C   0  0  0  0  0  3  0  0  0  0  0  0
  190.9170  177.0590  136.3370 O   0  0  0  0  0  1  0  0  0  0  0  0
  189.0740  177.3270  141.4780 O   0  0  0  0  0  0  0  0  0  0  0  0
  189.2300  177.6770  137.9660 C   0  0  0  0  0  0  0  0  0  0  0  0
  183.2020  177.5070  139.1160 C   0  0  0  0  0  3  0  0  0  0  0  0
  188.4000  178.1760  136.9680 O   0  0  0  0  0  1  0  0  0  0  0  0
  182.5070  177.3380  140.2380 C   0  0  0  0  0  3  0  0  0  0  0  0
  188.8500  177.7160  139.3090 C   0  0  0  0  0  0  0  0  0  0  0  0
  186.9900  178.2480  142.3190 N   0  0  0  0  0  0  0  0  0  0  0  0
  190.4840  177.1170  137.6560 C   0  0  0  0  0  0  0  0  0  0  0  0
  189.6520  177.2100  140.3040 C   0  0  0  0  0  0  0  0  0  0  0  0
  184.9770  178.9710  141.1680 C   0  0  0  0  0  0  0  0  0  0  0  0
  187.7090  178.1660  139.9310 C   0  0  0  0  0  0  0  0  0  0  0  0
  184.0630  178.7010  138.8860 C   0  0  0  0  0  2  0  0  0  0  0  0
  190.8970  176.6500  140.0270 C   0  0  0  0  0  3  0  0  0  0  0  0
  182.5660  178.2470  141.3960 C   0  0  0  0  0  3  0  0  0  0  0  0
  183.6300  178.9600  141.7850 C   0  0  0  0  0  3  0  0  0  0  0  0
  185.2010  178.7480  139.8520 C   0  0  0  0  0  0  0  0  0  0  0  0
  187.6600  177.1110  146.3530 C   0  0  0  0  0  2  0  0  0  0  0  0
  187.1630  177.6820  143.6520 C   0  0  0  0  0  3  0  0  0  0  0  0
  186.1370  178.2570  144.6290 C   0  0  0  0  0  2  0  0  0  0  0  0
  186.2440  177.5930  146.0080 C   0  0  0  0  0  2  0  0  0  0  0  0
  188.7210  177.9690  145.6700 C   0  0  0  0  0  2  0  0  0  0  0  0
  188.6070  177.8770  144.1430 C   0  0  0  0  0  2  0  0  0  0  0  0
  1 12  1  0  0  0  0
  2  6  1  0  0  0  0
  2 12  1  0  0  0  0
  3 21  1  0  0  0  0
  3 16  1  0  0  0  0
  4 18  1  0  0  0  0
  5 13  1  0  0  0  0
  7 11  2  0  0  0  0
  8 10  2  0  0  0  0
  9  7  1  0  0  0  0
 10 19  1  0  0  0  0
 11 16  1  0  0  0  0
 11 14  1  0  0  0  0
 12 23  1  0  0  0  0
 13  7  1  0  0  0  0
 13  4  2  0  0  0  0
 14  6  1  0  0  0  0
 15 20  1  0  0  0  0
 15  1  1  0  0  0  0
 16  2  2  0  0  0  0
 17  8  1  0  0  0  0
 17 21  1  0  0  0  0
 18 14  2  0  0  0  0
 19 20  2  0  0  0  0
 21 15  2  0  0  0  0
 23 27  1  0  0  0  0
 23 24  1  0  0  0  0
 24 25  1  0  0  0  0
 25 22  1  0  0  0  0
 26 22  1  0  0  0  0
 27 26  1  0  0  0  0
M  END
>  <MODEL>
4

>  <REMARK>
 VINA RESULT:      -8.8      2.650      5.873
  Name = 
  1 active torsions:
  status: ('A' for Active; 'I' for Inactive)
    1  A    between atoms: C_9  and  N_15
                            x       y       z     vdW  Elec       q    Type
                         _______ _______ _______ _____ _____    ______ ____

>  <TORSDO>
F 1

$$$$
=
 OpenBabel11052413453D

 27 31  0  0  0  0  0  0  0  0999 V2000
  185.2240  179.4220  141.1190 C   0  0  0  0  0  2  0  0  0  0  0  0
  187.2860  178.2310  141.7860 C   0  0  0  0  0  0  0  0  0  0  0  0
  187.1950  178.2930  139.2530 N   0  0  0  0  0  2  0  0  0  0  0  0
  191.6390  177.1920  141.7930 C   0  0  0  0  0  3  0  0  0  0  0  0
  192.5830  177.1240  139.5640 O   0  0  0  0  0  1  0  0  0  0  0  0
  188.1860  177.9450  142.7100 O   0  0  0  0  0  0  0  0  0  0  0  0
  190.2390  177.6780  139.8470 C   0  0  0  0  0  0  0  0  0  0  0  0
  184.6130  176.5260  137.6790 C   0  0  0  0  0  3  0  0  0  0  0  0
  190.0700  177.8150  138.4740 O   0  0  0  0  0  1  0  0  0  0  0  0
  183.4260  176.4280  138.2720 C   0  0  0  0  0  3  0  0  0  0  0  0
  189.1760  177.8830  140.7290 C   0  0  0  0  0  0  0  0  0  0  0  0
  185.9300  178.5700  142.0660 N   0  0  0  0  0  0  0  0  0  0  0  0
  191.4880  177.3320  140.3960 C   0  0  0  0  0  0  0  0  0  0  0  0
  189.3240  177.7340  142.0880 C   0  0  0  0  0  0  0  0  0  0  0  0
  184.8480  178.6590  139.8930 C   0  0  0  0  0  0  0  0  0  0  0  0
  187.8550  178.2030  140.5220 C   0  0  0  0  0  0  0  0  0  0  0  0
  185.3750  177.8060  137.6310 C   0  0  0  0  0  2  0  0  0  0  0  0
  190.5480  177.3920  142.6590 C   0  0  0  0  0  3  0  0  0  0  0  0
  182.7710  177.5240  139.0070 C   0  0  0  0  0  3  0  0  0  0  0  0
  183.3900  178.4930  139.6940 C   0  0  0  0  0  3  0  0  0  0  0  0
  185.7790  178.2520  138.9980 C   0  0  0  0  0  0  0  0  0  0  0  0
  184.5590  178.2530  146.0710 C   0  0  0  0  0  2  0  0  0  0  0  0
  185.3720  178.2990  143.3860 C   0  0  0  0  0  3  0  0  0  0  0  0
  184.3030  179.3310  143.7520 C   0  0  0  0  0  2  0  0  0  0  0  0
  183.6390  178.9950  145.0940 C   0  0  0  0  0  2  0  0  0  0  0  0
  186.0230  178.6230  145.8470 C   0  0  0  0  0  2  0  0  0  0  0  0
  186.4860  178.2180  144.4420 C   0  0  0  0  0  2  0  0  0  0  0  0
  1 12  1  0  0  0  0
  2 12  1  0  0  0  0
  2  6  1  0  0  0  0
  3 16  1  0  0  0  0
  4 18  1  0  0  0  0
  5 13  1  0  0  0  0
  7 13  1  0  0  0  0
  7 11  2  0  0  0  0
  8 10  2  0  0  0  0
  9  7  1  0  0  0  0
 10 19  1  0  0  0  0
 11 14  1  0  0  0  0
 12 23  1  0  0  0  0
 13  4  2  0  0  0  0
 14 18  2  0  0  0  0
 14  6  1  0  0  0  0
 15  1  1  0  0  0  0
 16 11  1  0  0  0  0
 16  2  2  0  0  0  0
 17  8  1  0  0  0  0
 17 21  1  0  0  0  0
 19 20  2  0  0  0  0
 20 15  1  0  0  0  0
 21  3  1  0  0  0  0
 21 15  2  0  0  0  0
 23 24  1  0  0  0  0
 23 27  1  0  0  0  0
 24 25  1  0  0  0  0
 25 22  1  0  0  0  0
 26 22  1  0  0  0  0
 27 26  1  0  0  0  0
M  END
>  <MODEL>
5

>  <REMARK>
 VINA RESULT:      -8.6      2.505      4.335
  Name = 
  1 active torsions:
  status: ('A' for Active; 'I' for Inactive)
    1  A    between atoms: C_9  and  N_15
                            x       y       z     vdW  Elec       q    Type
                         _______ _______ _______ _____ _____    ______ ____

>  <TORSDO>
F 1

$$$$
=
 OpenBabel11052413453D

 27 31  0  0  0  0  0  0  0  0999 V2000
  190.1200  178.6480  143.6780 C   0  0  0  0  0  2  0  0  0  0  0  0
  187.8210  178.0530  142.9870 C   0  0  0  0  0  0  0  0  0  0  0  0
  187.8160  178.4430  145.4920 N   0  0  0  0  0  2  0  0  0  0  0  0
  183.3650  178.3870  142.7360 C   0  0  0  0  0  3  0  0  0  0  0  0
  182.3510  178.9240  144.8670 O   0  0  0  0  0  1  0  0  0  0  0  0
  186.9180  177.9240  142.0320 O   0  0  0  0  0  0  0  0  0  0  0  0
  184.7610  178.6980  144.7200 C   0  0  0  0  0  0  0  0  0  0  0  0
  189.6500  176.2200  147.4840 C   0  0  0  0  0  3  0  0  0  0  0  0
  184.9030  178.9710  146.0760 O   0  0  0  0  0  1  0  0  0  0  0  0
  190.7720  175.6850  147.0110 C   0  0  0  0  0  3  0  0  0  0  0  0
  185.8720  178.4450  143.9130 C   0  0  0  0  0  0  0  0  0  0  0  0
  189.2260  177.9230  142.7850 N   0  0  0  0  0  0  0  0  0  0  0  0
  183.4910  178.6720  144.1130 C   0  0  0  0  0  0  0  0  0  0  0  0
  185.7450  178.1570  142.5740 C   0  0  0  0  0  0  0  0  0  0  0  0
  190.1860  177.9890  145.0160 C   0  0  0  0  0  0  0  0  0  0  0  0
  187.2170  178.3770  144.1920 C   0  0  0  0  0  0  0  0  0  0  0  0
  189.3220  177.6630  147.3100 C   0  0  0  0  0  2  0  0  0  0  0  0
  184.5010  178.1230  141.9480 C   0  0  0  0  0  3  0  0  0  0  0  0
  191.7670  176.4170  146.2060 C   0  0  0  0  0  3  0  0  0  0  0  0
  191.5100  177.4190  145.3570 C   0  0  0  0  0  3  0  0  0  0  0  0
  189.1360  178.0120  145.8710 C   0  0  0  0  0  0  0  0  0  0  0  0
  190.7820  176.6680  139.0400 C   0  0  0  0  0  2  0  0  0  0  0  0
  189.7300  177.3130  141.5600 C   0  0  0  0  0  3  0  0  0  0  0  0
  191.2380  177.5260  141.4190 C   0  0  0  0  0  2  0  0  0  0  0  0
  191.7930  176.8010  140.1870 C   0  0  0  0  0  2  0  0  0  0  0  0
  189.7820  177.8200  139.0450 C   0  0  0  0  0  2  0  0  0  0  0  0
  188.9540  177.8280  140.3360 C   0  0  0  0  0  2  0  0  0  0  0  0
  1 15  1  0  0  0  0
  2 16  2  0  0  0  0
  3 21  1  0  0  0  0
  4 13  1  0  0  0  0
  6 14  1  0  0  0  0
  6  2  1  0  0  0  0
  7  9  1  0  0  0  0
 10  8  2  0  0  0  0
 11 16  1  0  0  0  0
 11  7  1  0  0  0  0
 12  2  1  0  0  0  0
 12  1  1  0  0  0  0
 13  7  2  0  0  0  0
 13  5  1  0  0  0  0
 14 11  2  0  0  0  0
 15 20  1  0  0  0  0
 15 21  2  0  0  0  0
 16  3  1  0  0  0  0
 17  8  1  0  0  0  0
 18 14  1  0  0  0  0
 18  4  2  0  0  0  0
 19 10  1  0  0  0  0
 20 19  2  0  0  0  0
 21 17  1  0  0  0  0
 22 26  1  0  0  0  0
 22 25  1  0  0  0  0
 23 12  1  0  0  0  0
 24 23  1  0  0  0  0
 25 24  1  0  0  0  0
 26 27  1  0  0  0  0
 27 23  1  0  0  0  0
M  END
>  <MODEL>
6

>  <REMARK>
 VINA RESULT:      -8.6      2.198      6.529
  Name = 
  1 active torsions:
  status: ('A' for Active; 'I' for Inactive)
    1  A    between atoms: C_9  and  N_15
                            x       y       z     vdW  Elec       q    Type
                         _______ _______ _______ _____ _____    ______ ____

>  <TORSDO>
F 1

$$$$
=
 OpenBabel11052413453D

 27 31  0  0  0  0  0  0  0  0999 V2000
  186.7190  176.7520  145.1930 C   0  0  0  0  0  2  0  0  0  0  0  0
  187.6670  177.7610  143.1450 C   0  0  0  0  0  0  0  0  0  0  0  0
  189.5770  176.7950  144.5040 N   0  0  0  0  0  2  0  0  0  0  0  0
  190.1800  178.0280  139.4520 C   0  0  0  0  0  3  0  0  0  0  0  0
  192.4050  177.1280  139.7730 O   0  0  0  0  0  1  0  0  0  0  0  0
  187.4940  178.2180  141.9170 O   0  0  0  0  0  0  0  0  0  0  0  0
  190.8300  177.0940  141.6170 C   0  0  0  0  0  0  0  0  0  0  0  0
  190.2510  178.2530  147.6170 C   0  0  0  0  0  3  0  0  0  0  0  0
  191.7670  176.4950  142.4510 O   0  0  0  0  0  1  0  0  0  0  0  0
  189.2510  178.7470  148.3430 C   0  0  0  0  0  3  0  0  0  0  0  0
  189.5450  177.3960  142.0730 C   0  0  0  0  0  0  0  0  0  0  0  0
  186.6580  177.7680  144.1510 N   0  0  0  0  0  0  0  0  0  0  0  0
  191.1440  177.4130  140.2820 C   0  0  0  0  0  0  0  0  0  0  0  0
  188.6140  178.0040  141.2640 C   0  0  0  0  0  0  0  0  0  0  0  0
  187.7960  177.0640  146.1790 C   0  0  0  0  0  0  0  0  0  0  0  0
  188.9410  177.2360  143.2980 C   0  0  0  0  0  0  0  0  0  0  0  0
  190.1530  176.9400  146.9180 C   0  0  0  0  0  2  0  0  0  0  0  0
  188.8970  178.3320  139.9400 C   0  0  0  0  0  3  0  0  0  0  0  0
  187.9280  178.1120  148.4750 C   0  0  0  0  0  3  0  0  0  0  0  0
  187.3100  177.3760  147.5430 C   0  0  0  0  0  3  0  0  0  0  0  0
  189.1060  176.9650  145.8540 C   0  0  0  0  0  0  0  0  0  0  0  0
  182.9010  179.6650  143.5940 C   0  0  0  0  0  2  0  0  0  0  0  0
  185.4630  178.5850  143.9760 C   0  0  0  0  0  3  0  0  0  0  0  0
  184.5210  178.4440  145.1730 C   0  0  0  0  0  2  0  0  0  0  0  0
  183.3100  179.3780  145.0450 C   0  0  0  0  0  2  0  0  0  0  0  0
  183.2520  178.4970  142.6760 C   0  0  0  0  0  2  0  0  0  0  0  0
  184.7660  178.2530  142.6470 C   0  0  0  0  0  2  0  0  0  0  0  0
  1 15  1  0  0  0  0
  2 16  2  0  0  0  0
  2 12  1  0  0  0  0
  3 21  1  0  0  0  0
  4 18  2  0  0  0  0
  4 13  1  0  0  0  0
  5 13  1  0  0  0  0
  6  2  1  0  0  0  0
  7 11  1  0  0  0  0
  7  9  1  0  0  0  0
  8 10  2  0  0  0  0
 10 19  1  0  0  0  0
 11 16  1  0  0  0  0
 12  1  1  0  0  0  0
 13  7  2  0  0  0  0
 14  6  1  0  0  0  0
 14 11  2  0  0  0  0
 15 20  1  0  0  0  0
 16  3  1  0  0  0  0
 17  8  1  0  0  0  0
 18 14  1  0  0  0  0
 20 19  2  0  0  0  0
 21 15  2  0  0  0  0
 21 17  1  0  0  0  0
 22 25  1  0  0  0  0
 23 12  1  0  0  0  0
 23 24  1  0  0  0  0
 25 24  1  0  0  0  0
 26 22  1  0  0  0  0
 27 26  1  0  0  0  0
 27 23  1  0  0  0  0
M  END
>  <MODEL>
7

>  <REMARK>
 VINA RESULT:      -8.5      1.728      5.447
  Name = 
  1 active torsions:
  status: ('A' for Active; 'I' for Inactive)
    1  A    between atoms: C_9  and  N_15
                            x       y       z     vdW  Elec       q    Type
                         _______ _______ _______ _____ _____    ______ ____

>  <TORSDO>
F 1

$$$$
=
 OpenBabel11052413453D

 27 31  0  0  0  0  0  0  0  0999 V2000
  185.2520  179.6910  141.3460 C   0  0  0  0  0  2  0  0  0  0  0  0
  187.3830  178.4390  141.4210 C   0  0  0  0  0  0  0  0  0  0  0  0
  186.4420  178.2530  139.0750 N   0  0  0  0  0  2  0  0  0  0  0  0
  191.4500  177.1210  140.0980 C   0  0  0  0  0  3  0  0  0  0  0  0
  191.5820  176.7680  137.7070 O   0  0  0  0  0  1  0  0  0  0  0  0
  188.5340  178.1880  142.0190 O   0  0  0  0  0  0  0  0  0  0  0  0
  189.4890  177.5010  138.6880 C   0  0  0  0  0  0  0  0  0  0  0  0
  183.4300  176.5100  138.6690 C   0  0  0  0  0  3  0  0  0  0  0  0
  188.8690  177.5100  137.4430 O   0  0  0  0  0  1  0  0  0  0  0  0
  182.5120  176.5510  139.6300 C   0  0  0  0  0  3  0  0  0  0  0  0
  188.7940  177.8630  139.8440 C   0  0  0  0  0  0  0  0  0  0  0  0
  186.2120  178.8930  142.0960 N   0  0  0  0  0  0  0  0  0  0  0  0
  190.8400  177.1300  138.8250 C   0  0  0  0  0  0  0  0  0  0  0  0
  189.3880  177.8420  141.0830 C   0  0  0  0  0  0  0  0  0  0  0  0
  184.4620  178.8350  140.4120 C   0  0  0  0  0  0  0  0  0  0  0  0
  187.4900  178.2470  140.0530 C   0  0  0  0  0  0  0  0  0  0  0  0
  184.1670  177.7260  138.2210 C   0  0  0  0  0  2  0  0  0  0  0  0
  190.7230  177.4790  141.2490 C   0  0  0  0  0  3  0  0  0  0  0  0
  182.1760  177.7560  140.4080 C   0  0  0  0  0  3  0  0  0  0  0  0
  183.0180  178.7460  140.7320 C   0  0  0  0  0  3  0  0  0  0  0  0
  185.0230  178.2790  139.3130 C   0  0  0  0  0  0  0  0  0  0  0  0
  185.5110  178.2890  146.2390 C   0  0  0  0  0  2  0  0  0  0  0  0
  186.1260  178.7940  143.5480 C   0  0  0  0  0  3  0  0  0  0  0  0
  186.4310  177.3710  144.0210 C   0  0  0  0  0  2  0  0  0  0  0  0
  186.4430  177.2820  145.5530 C   0  0  0  0  0  2  0  0  0  0  0  0
  184.3130  178.6280  145.3560 C   0  0  0  0  0  2  0  0  0  0  0  0
  184.7610  179.2930  144.0480 C   0  0  0  0  0  2  0  0  0  0  0  0
  1 12  1  0  0  0  0
  2  6  1  0  0  0  0
  2 12  1  0  0  0  0
  3 21  1  0  0  0  0
  3 16  1  0  0  0  0
  4 18  1  0  0  0  0
  5 13  1  0  0  0  0
  7 13  1  0  0  0  0
  7 11  2  0  0  0  0
  8 10  2  0  0  0  0
  9  7  1  0  0  0  0
 10 19  1  0  0  0  0
 11 16  1  0  0  0  0
 11 14  1  0  0  0  0
 12 23  1  0  0  0  0
 13  4  2  0  0  0  0
 14 18  2  0  0  0  0
 14  6  1  0  0  0  0
 15 20  1  0  0  0  0
 15  1  1  0  0  0  0
 16  2  2  0  0  0  0
 17  8  1  0  0  0  0
 17 21  1  0  0  0  0
 19 20  2  0  0  0  0
 21 15  2  0  0  0  0
 23 24  1  0  0  0  0
 23 27  1  0  0  0  0
 24 25  1  0  0  0  0
 25 22  1  0  0  0  0
 26 22  1  0  0  0  0
 27 26  1  0  0  0  0
M  END
>  <MODEL>
8

>  <REMARK>
 VINA RESULT:      -8.4      2.591      5.226
  Name = 
  1 active torsions:
  status: ('A' for Active; 'I' for Inactive)
    1  A    between atoms: C_9  and  N_15
                            x       y       z     vdW  Elec       q    Type
                         _______ _______ _______ _____ _____    ______ ____

>  <TORSDO>
F 1

$$$$
=
 OpenBabel11052413453D

 27 31  0  0  0  0  0  0  0  0999 V2000
  188.7410  178.6340  138.7550 C   0  0  0  0  0  2  0  0  0  0  0  0
  188.3440  177.8100  141.0520 C   0  0  0  0  0  0  0  0  0  0  0  0
  190.7970  177.4730  140.5070 N   0  0  0  0  0  2  0  0  0  0  0  0
  189.0560  177.3020  145.4410 C   0  0  0  0  0  3  0  0  0  0  0  0
  191.3980  177.0070  145.9760 O   0  0  0  0  0  1  0  0  0  0  0  0
  187.5850  177.7760  142.1330 O   0  0  0  0  0  0  0  0  0  0  0  0
  190.7350  177.3180  143.6630 C   0  0  0  0  0  0  0  0  0  0  0  0
  191.5960  175.1950  137.9680 C   0  0  0  0  0  3  0  0  0  0  0  0
  192.0550  177.2220  143.2370 O   0  0  0  0  0  1  0  0  0  0  0  0
  190.7750  175.0500  136.9320 C   0  0  0  0  0  3  0  0  0  0  0  0
  189.6960  177.5290  142.7560 C   0  0  0  0  0  0  0  0  0  0  0  0
  187.8500  178.0250  139.7320 N   0  0  0  0  0  0  0  0  0  0  0  0
  190.4020  177.2090  145.0270 C   0  0  0  0  0  0  0  0  0  0  0  0
  188.3850  177.6080  143.1610 C   0  0  0  0  0  0  0  0  0  0  0  0
  189.7630  177.6540  138.2820 C   0  0  0  0  0  0  0  0  0  0  0  0
  189.6800  177.6560  141.3860 C   0  0  0  0  0  0  0  0  0  0  0  0
  191.9550  176.5330  138.5170 C   0  0  0  0  0  2  0  0  0  0  0  0
  188.0260  177.5030  144.5030 C   0  0  0  0  0  3  0  0  0  0  0  0
  190.0730  176.1610  136.2660 C   0  0  0  0  0  3  0  0  0  0  0  0
  189.6500  177.2890  136.8510 C   0  0  0  0  0  3  0  0  0  0  0  0
  190.7630  177.2270  139.0880 C   0  0  0  0  0  0  0  0  0  0  0  0
  183.7220  178.1730  138.7510 C   0  0  0  0  0  2  0  0  0  0  0  0
  186.4220  177.8960  139.4610 C   0  0  0  0  0  3  0  0  0  0  0  0
  186.1490  177.8780  137.9560 C   0  0  0  0  0  2  0  0  0  0  0  0
  184.6620  177.6400  137.6610 C   0  0  0  0  0  2  0  0  0  0  0  0
  184.3270  179.3780  139.4660 C   0  0  0  0  0  2  0  0  0  0  0  0
  185.6300  178.9990  140.1830 C   0  0  0  0  0  2  0  0  0  0  0  0
  1 12  1  0  0  0  0
  2 16  2  0  0  0  0
  2  6  1  0  0  0  0
  3 16  1  0  0  0  0
  6 14  1  0  0  0  0
  7 13  2  0  0  0  0
  8 17  1  0  0  0  0
  9  7  1  0  0  0  0
 10  8  2  0  0  0  0
 11 14  2  0  0  0  0
 11  7  1  0  0  0  0
 12  2  1  0  0  0  0
 13  4  1  0  0  0  0
 13  5  1  0  0  0  0
 14 18  1  0  0  0  0
 15  1  1  0  0  0  0
 15 21  2  0  0  0  0
 16 11  1  0  0  0  0
 17 21  1  0  0  0  0
 18  4  2  0  0  0  0
 19 20  2  0  0  0  0
 19 10  1  0  0  0  0
 20 15  1  0  0  0  0
 21  3  1  0  0  0  0
 22 26  1  0  0  0  0
 23 12  1  0  0  0  0
 23 27  1  0  0  0  0
 24 23  1  0  0  0  0
 25 24  1  0  0  0  0
 25 22  1  0  0  0  0
 26 27  1  0  0  0  0
M  END
>  <MODEL>
9

>  <REMARK>
 VINA RESULT:      -8.3      1.942      2.680
  Name = 
  1 active torsions:
  status: ('A' for Active; 'I' for Inactive)
    1  A    between atoms: C_9  and  N_15
                            x       y       z     vdW  Elec       q    Type
                         _______ _______ _______ _____ _____    ______ ____

>  <TORSDO>
F 1

$$$$
