=
 OpenBabel11052414493D

 55 62  0  0  1  0  0  0  0  0999 V2000
  190.2200  174.3500  137.2450 O   0  0  0  0  0  0  0  0  0  0  0  0
  186.1540  178.7980  136.5530 C   0  0  0  0  0  2  0  0  0  0  0  0
  188.2430  179.0010  139.1940 O   0  0  0  0  0  0  0  0  0  0  0  0
  189.5770  177.4940  141.4970 C   0  0  0  0  0  3  0  0  0  0  0  0
  190.0210  177.9080  142.8400 C   0  0  0  0  0  3  0  0  0  0  0  0
  191.9080  177.2890  140.8170 C   0  0  0  0  0  0  0  0  0  0  0  0
  192.4120  177.8550  142.1180 C   0  0  0  0  0  3  0  0  0  0  0  0
  188.6210  176.6590  138.8820 C   0  0  0  0  0  2  0  0  0  0  0  0
  191.3170  178.0560  143.1320 C   0  0  0  0  0  3  0  0  0  0  0  0
  188.6060  172.5480  137.1460 C   0  0  0  0  0  3  0  0  0  0  0  0
  190.4600  177.2100  140.5330 C   0  0  1  0  0  3  0  0  0  0  0  0
  186.9840  174.0610  135.4410 C   0  0  0  0  0  0  0  0  0  0  0  0
  190.6220  175.6910  136.9930 C   0  0  0  0  0  2  0  0  0  0  0  0
  188.2010  174.5790  135.8990 C   0  0  0  0  0  3  0  0  0  0  0  0
  192.3620  176.3970  138.6210 C   0  0  0  0  0  0  0  0  0  0  0  0
  186.4840  177.5170  136.1620 C   0  0  1  0  0  3  0  0  0  0  0  0
  192.7570  176.9120  139.9120 N   0  0  0  0  0  0  0  0  0  0  0  0
  187.1650  178.0700  137.3680 N   0  0  0  0  0  0  0  0  0  0  0  0
  188.0430  177.9810  138.4860 C   0  0  0  0  0  0  0  0  0  0  0  0
  187.3880  172.0250  136.6880 C   0  0  0  0  0  3  0  0  0  0  0  0
  185.5230  176.3960  136.6030 C   0  0  2  0  0  3  0  0  0  0  0  0
  189.0180  173.8300  136.7530 C   0  0  0  0  0  0  0  0  0  0  0  0
  190.0440  176.7680  139.2250 N   0  0  0  0  0  0  0  0  0  0  0  0
  191.0510  176.3370  138.2800 C   0  0  0  0  0  0  0  0  0  0  0  0
  184.9920  175.5730  135.4200 C   0  0  0  0  0  2  0  0  0  0  0  0
  186.1000  174.9180  134.5970 C   0  0  0  0  0  2  0  0  0  0  0  0
  186.5720  172.7820  135.8420 C   0  0  0  0  0  3  0  0  0  0  0  0
  194.1290  174.7420  137.9770 C   0  0  0  0  0  3  0  0  0  0  0  0
  195.4180  175.0340  135.9410 C   0  0  0  0  0  0  0  0  0  0  0  0
  193.7120  176.6540  136.5490 C   0  0  0  0  0  3  0  0  0  0  0  0
  194.7080  176.2160  135.6690 C   0  0  0  0  0  3  0  0  0  0  0  0
  195.1230  174.3000  137.0960 C   0  0  0  0  0  3  0  0  0  0  0  0
  193.4310  175.9300  137.7150 C   0  0  0  0  0  0  0  0  0  0  0  0
  196.5180  174.5680  135.0360 C   0  0  0  0  0  3  0  0  0  0  0  0
  196.6800  173.0490  135.0980 C   0  0  0  0  0  1  0  0  0  0  0  0
  197.8440  175.2610  135.3630 C   0  0  0  0  0  1  0  0  0  0  0  0
  184.4150  176.7580  137.6030 C   0  0  0  0  0  2  0  0  0  0  0  0
  183.0060  176.4880  137.0650 C   0  0  0  0  0  2  0  0  0  0  0  0
  181.5790  179.3300  136.4460 F   0  0  0  0  0  0  0  0  0  0  0  0
  180.7020  177.3610  137.4260 C   0  0  1  0  0  3  0  0  0  0  0  0
  181.5880  175.5400  138.7540 O   0  0  0  0  0  1  0  0  0  0  0  0
  181.7590  179.0940  138.7950 C   0  0  1  0  0  3  0  0  0  0  0  0
  180.8880  178.8770  137.5540 C   0  0  1  0  0  0  0  0  0  0  0  0
  181.9220  176.7420  138.1170 C   0  0  1  0  0  0  0  0  0  0  0  0
  179.6930  181.0090  138.3140 C   0  0  1  0  0  3  0  0  0  0  0  0
  180.9760  179.6780  139.9790 C   0  0  1  0  0  3  0  0  0  0  0  0
  179.5520  179.6290  137.6320 C   0  0  0  0  0  2  0  0  0  0  0  0
  182.3910  177.7570  139.1560 C   0  0  0  0  0  2  0  0  0  0  0  0
  179.5160  176.9320  138.0530 O   0  0  0  0  0  1  0  0  0  0  0  0
  180.3770  180.9740  139.6240 N   0  0  0  0  0  2  0  0  0  0  0  0
  180.3700  182.0280  137.3950 C   0  0  0  0  0  2  0  0  0  0  0  0
  181.5050  182.5530  138.0060 O   0  0  0  0  0  1  0  0  0  0  0  0
  179.9820  178.7910  140.4260 O   0  0  0  0  0  0  0  0  0  0  0  0
  180.0900  178.8070  141.8170 C   0  0  0  0  0  2  0  0  0  0  0  0
  179.1860  177.8730  142.3430 O   0  0  0  0  0  1  0  0  0  0  0  0
  2 18  1  0  0  0  0
  4  5  2  0  0  0  0
  5  9  1  0  0  0  0
  6  7  1  0  0  0  0
  7  9  2  0  0  0  0
  8 23  1  0  0  0  0
 11  6  1  0  0  0  0
 11  4  1  1  0  0  0
 12 27  2  0  0  0  0
 12 14  1  0  0  0  0
 13  1  1  0  0  0  0
 13 24  1  0  0  0  0
 14 22  2  0  0  0  0
 15 17  1  0  0  0  0
 16  2  1  1  0  0  0
 16 21  1  0  0  0  0
 16 18  1  0  0  0  0
 17  6  2  0  0  0  0
 18 19  1  0  0  0  0
 19  8  1  0  0  0  0
 19  3  2  0  0  0  0
 20 10  2  0  0  0  0
 21 37  1  6  0  0  0
 22 10  1  0  0  0  0
 22  1  1  0  0  0  0
 23 11  1  0  0  0  0
 24 15  2  0  0  0  0
 24 23  1  0  0  0  0
 25 21  1  0  0  0  0
 26 25  1  0  0  0  0
 26 12  1  0  0  0  0
 27 20  1  0  0  0  0
 29 32  1  0  0  0  0
 30 33  2  0  0  0  0
 31 29  2  0  0  0  0
 31 30  1  0  0  0  0
 32 28  2  0  0  0  0
 33 28  1  0  0  0  0
 33 15  1  0  0  0  0
 34 35  1  0  0  0  0
 34 36  1  0  0  0  0
 34 29  1  0  0  0  0
 38 37  1  0  0  0  0
 38 44  1  0  0  0  0
 40 43  1  0  0  0  0
 40 49  1  1  0  0  0
 40 44  1  0  0  0  0
 42 48  1  1  0  0  0
 42 46  1  0  0  0  0
 43 39  1  6  0  0  0
 43 47  1  0  0  0  0
 43 42  1  0  0  0  0
 44 41  1  1  0  0  0
 44 48  1  0  0  0  0
 45 51  1  6  0  0  0
 45 50  1  0  0  0  0
 46 53  1  6  0  0  0
 47 45  1  0  0  0  0
 50 46  1  0  0  0  0
 51 52  1  0  0  0  0
 53 54  1  0  0  0  0
 54 55  1  0  0  0  0
M  END
>  <MODEL>
1

>  <REMARK>
 VINA RESULT:      -7.0      0.000      0.000
  Name = 
  8 active torsions:
  status: ('A' for Active; 'I' for Inactive)
    1  A    between atoms: C_1  and  O_53
    2  A    between atoms: C_8  and  C_22
    3  A    between atoms: C_8  and  C_43
    4  A    between atoms: C_10  and  C_32
    5  A    between atoms: C_11  and  CA_29
    6  A    between atoms: C_20  and  C_22
    7  A    between atoms: C_30  and  O_53
    8  A    between atoms: C_33  and  C_52
                            x       y       z     vdW  Elec       q    Type
                         _______ _______ _______ _____ _____    ______ ____

>  <TORSDO>
F 8

$$$$
