=
 OpenBabel11052414583D

 55 60  0  0  1  0  0  0  0  0999 V2000
  187.8840  177.1560  142.4390 C   0  0  2  0  0  3  0  0  0  0  0  0
  184.3430  178.3870  138.1180 C   0  0  0  0  0  2  0  0  0  0  0  0
  185.9860  176.4160  136.8340 O   0  0  0  0  0  1  0  0  0  0  0  0
  182.4840  178.8610  139.6830 C   0  0  1  0  0  3  0  0  0  0  0  0
  190.7260  176.5150  136.6820 C   0  0  0  0  0  2  0  0  0  0  0  0
  192.1430  176.5410  136.7270 O   0  0  0  0  0  0  0  0  0  0  0  0
  190.6360  176.4870  139.1570 C   0  0  2  0  0  3  0  0  0  0  0  0
  191.7740  175.6890  138.8950 O   0  0  0  0  0  0  0  0  0  0  0  0
  187.9240  177.8390  136.7920 C   0  0  0  0  0  2  0  0  0  0  0  0
  192.6410  176.4190  138.0510 C   0  0  0  0  0  2  0  0  0  0  0  0
  187.2850  177.8740  144.7780 C   0  0  0  0  0  2  0  0  0  0  0  0
  190.0740  177.1650  137.9030 C   0  0  2  0  0  3  0  0  0  0  0  0
  184.6530  178.4980  143.7440 C   0  0  0  0  0  0  0  0  0  0  0  0
  187.8530  177.6020  140.9910 C   0  0  0  0  0  2  0  0  0  0  0  0
  185.5610  177.8990  142.9650 C   0  0  0  0  0  3  0  0  0  0  0  0
  190.2130  177.0390  141.5440 C   0  0  2  0  0  3  0  0  0  0  0  0
  183.8010  179.3750  139.1300 C   0  0  0  0  0  2  0  0  0  0  0  0
  190.9020  177.4930  140.2660 C   0  0  0  0  0  2  0  0  0  0  0  0
  185.8560  178.4890  138.0550 C   0  0  0  0  0  2  0  0  0  0  0  0
  186.4010  177.7520  136.8380 C   0  0  2  0  0  3  0  0  0  0  0  0
  186.2020  178.4860  145.6950 C   0  0  0  0  0  2  0  0  0  0  0  0
  182.7010  178.2650  141.0430 C   0  0  0  0  0  3  0  0  0  0  0  0
  187.0190  178.0810  143.2800 C   0  0  2  0  0  3  0  0  0  0  0  0
  188.5680  176.9750  137.8690 C   0  0  0  0  0  2  0  0  0  0  0  0
  189.0370  177.9590  141.8650 C   0  0  2  0  0  3  0  0  0  0  0  0
  182.8920  179.0240  142.1250 C   0  0  0  0  0  3  0  0  0  0  0  0
  183.1900  178.3890  143.4440 C   0  0  0  0  0  2  0  0  0  0  0  0
  185.1220  179.2760  144.9420 C   0  0  0  0  0  2  0  0  0  0  0  0
  190.9640  175.7170  143.5690 C   0  0  0  0  0  2  0  0  0  0  0  0
  191.6280  176.6720  145.4910 C   0  0  2  0  0  3  0  0  0  0  0  0
  191.2930  178.2470  143.5200 C   0  0  0  0  0  2  0  0  0  0  0  0
  192.0050  178.0270  144.8560 C   0  0  0  0  0  2  0  0  0  0  0  0
  190.5200  176.0890  144.8500 O   0  0  0  0  0  0  0  0  0  0  0  0
  191.2250  176.9520  142.6910 C   0  0  2  0  0  3  0  0  0  0  0  0
  191.3590  176.7930  146.9880 C   0  0  2  0  0  3  0  0  0  0  0  0
  192.1440  175.8930  147.7090 O   0  0  0  0  0  1  0  0  0  0  0  0
  189.8910  176.5650  147.3010 C   0  0  0  0  0  1  0  0  0  0  0  0
  181.5080  179.9430  139.7350 N   0  0  0  0  0  2  0  0  0  0  0  0
  179.0490  180.0690  138.7430 O   0  0  0  0  0  0  0  0  0  0  0  0
  180.4770  179.8130  138.3460 S   0  0  0  0  0  0  0  0  0  0  0  0
  180.9050  180.8450  137.3430 O   0  0  0  0  0  0  0  0  0  0  0  0
  180.6180  178.2010  137.6350 C   0  0  0  0  0  0  0  0  0  0  0  0
  181.3830  178.0240  136.7020 O   0  0  0  0  0  0  0  0  0  0  0  0
  178.9840  177.4420  139.3520 C   0  0  0  0  0  1  0  0  0  0  0  0
  179.8180  177.0330  138.1460 C   0  0  2  0  0  3  0  0  0  0  0  0
  179.6550  174.2230  140.0800 C   0  0  0  0  0  0  0  0  0  0  0  0
  182.0010  176.0390  138.1450 O   0  0  0  0  0  1  0  0  0  0  0  0
  179.5870  173.8100  141.5060 C   0  0  0  0  0  1  0  0  0  0  0  0
  180.2620  174.6300  137.3590 C   0  0  1  0  0  3  0  0  0  0  0  0
  178.9320  173.5640  139.1740 C   0  0  0  0  0  3  0  0  0  0  0  0
  180.6530  175.7440  138.3590 C   0  0  2  0  0  0  0  0  0  0  0  0
  178.9320  173.9790  137.7350 C   0  0  0  0  0  2  0  0  0  0  0  0
  180.5070  175.2720  139.7060 O   0  0  0  0  0  0  0  0  0  0  0  0
  180.2070  175.1180  136.0490 O   0  0  0  0  0  0  0  0  0  0  0  0
  180.5370  174.0250  135.2460 C   0  0  0  0  0  1  0  0  0  0  0  0
  1 14  1  6  0  0  0
  1 23  1  0  0  0  0
  2 17  1  0  0  0  0
  4 38  1  1  0  0  0
  4 22  1  0  0  0  0
  5  6  1  0  0  0  0
  6 10  1  0  0  0  0
  7 18  1  1  0  0  0
  8  7  1  0  0  0  0
  9 20  1  0  0  0  0
  9 24  1  0  0  0  0
 10  8  1  0  0  0  0
 11 21  1  0  0  0  0
 12  5  1  6  0  0  0
 12  7  1  0  0  0  0
 13 28  1  0  0  0  0
 15 13  2  0  0  0  0
 16 18  1  6  0  0  0
 16 25  1  0  0  0  0
 16 34  1  0  0  0  0
 17  4  1  0  0  0  0
 19  2  1  0  0  0  0
 20  3  1  1  0  0  0
 20 19  1  0  0  0  0
 22 26  2  0  0  0  0
 23 15  1  1  0  0  0
 23 11  1  0  0  0  0
 24 12  1  0  0  0  0
 25 14  1  6  0  0  0
 25  1  1  0  0  0  0
 26 27  1  0  0  0  0
 27 13  1  0  0  0  0
 28 21  1  0  0  0  0
 29 33  1  0  0  0  0
 30 35  1  1  0  0  0
 31 32  1  0  0  0  0
 32 30  1  0  0  0  0
 33 30  1  0  0  0  0
 34 31  1  1  0  0  0
 34 29  1  0  0  0  0
 35 37  1  6  0  0  0
 35 36  1  0  0  0  0
 40 39  2  0  0  0  0
 40 38  1  0  0  0  0
 41 40  2  0  0  0  0
 42 45  1  0  0  0  0
 42 40  1  0  0  0  0
 43 42  2  0  0  0  0
 45 51  1  0  0  0  0
 45 44  1  1  0  0  0
 46 48  1  0  0  0  0
 49 54  1  6  0  0  0
 49 52  1  0  0  0  0
 49 51  1  0  0  0  0
 50 46  2  0  0  0  0
 51 47  1  6  0  0  0
 51 53  1  0  0  0  0
 52 50  1  0  0  0  0
 53 46  1  0  0  0  0
 55 54  1  0  0  0  0
M  END
>  <MODEL>
1

>  <REMARK>
 VINA RESULT:     -10.3      0.000      0.000
  Name = 
  8 active torsions:
  status: ('A' for Active; 'I' for Inactive)
    1  A    between atoms: C_6  and  C_14
    2  A    between atoms: C_6  and  S_20
    3  A    between atoms: C_8  and  N_22
    4  A    between atoms: C_10  and  C_32
    5  A    between atoms: O_11  and  C_29
    6  A    between atoms: C_14  and  C_38
    7  A    between atoms: S_20  and  N_22
    8  A    between atoms: C_33  and  C_52
                            x       y       z     vdW  Elec       q    Type
                         _______ _______ _______ _____ _____    ______ ____

>  <TORSDO>
F 8

$$$$
=
 OpenBabel11052414583D

 55 60  0  0  1  0  0  0  0  0999 V2000
  187.8050  177.2070  142.5830 C   0  0  2  0  0  3  0  0  0  0  0  0
  184.1220  178.3460  138.3570 C   0  0  0  0  0  2  0  0  0  0  0  0
  185.7430  176.3720  137.0490 O   0  0  0  0  0  1  0  0  0  0  0  0
  182.3070  178.8240  139.9730 C   0  0  1  0  0  3  0  0  0  0  0  0
  190.4750  176.5110  136.7490 C   0  0  0  0  0  2  0  0  0  0  0  0
  191.8920  176.5500  136.7500 O   0  0  0  0  0  0  0  0  0  0  0  0
  190.4610  176.5170  139.2270 C   0  0  2  0  0  3  0  0  0  0  0  0
  191.5980  175.7250  138.9400 O   0  0  0  0  0  0  0  0  0  0  0  0
  187.6640  177.8110  136.9280 C   0  0  0  0  0  2  0  0  0  0  0  0
  192.4320  176.4510  138.0600 C   0  0  0  0  0  2  0  0  0  0  0  0
  187.2720  177.9520  144.9290 C   0  0  0  0  0  2  0  0  0  0  0  0
  189.8550  177.1720  137.9810 C   0  0  2  0  0  3  0  0  0  0  0  0
  184.6040  178.5380  143.9690 C   0  0  0  0  0  0  0  0  0  0  0  0
  187.7260  177.6320  141.1300 C   0  0  0  0  0  2  0  0  0  0  0  0
  185.4930  177.9360  143.1710 C   0  0  0  0  0  3  0  0  0  0  0  0
  190.1070  177.0980  141.6170 C   0  0  2  0  0  3  0  0  0  0  0  0
  183.6010  179.3430  139.3720 C   0  0  0  0  0  2  0  0  0  0  0  0
  190.7520  177.5410  140.3130 C   0  0  0  0  0  2  0  0  0  0  0  0
  185.6310  178.4600  138.2450 C   0  0  0  0  0  2  0  0  0  0  0  0
  186.1450  177.7110  137.0220 C   0  0  2  0  0  3  0  0  0  0  0  0
  186.2130  178.5670  145.8710 C   0  0  0  0  0  2  0  0  0  0  0  0
  182.5720  178.2500  141.3330 C   0  0  0  0  0  3  0  0  0  0  0  0
  186.9580  178.1350  143.4370 C   0  0  2  0  0  3  0  0  0  0  0  0
  188.3500  176.9680  137.9970 C   0  0  0  0  0  2  0  0  0  0  0  0
  188.9330  178.0120  141.9620 C   0  0  2  0  0  3  0  0  0  0  0  0
  182.7890  179.0250  142.3980 C   0  0  0  0  0  3  0  0  0  0  0  0
  183.1340  178.4120  143.7160 C   0  0  0  0  0  2  0  0  0  0  0  0
  185.1030  179.3360  145.1410 C   0  0  0  0  0  2  0  0  0  0  0  0
  191.0120  175.7460  143.5580 C   0  0  0  0  0  2  0  0  0  0  0  0
  191.6570  176.6600  145.5070 C   0  0  2  0  0  3  0  0  0  0  0  0
  191.1480  178.2940  143.6210 C   0  0  0  0  0  2  0  0  0  0  0  0
  191.9130  178.0680  144.9280 C   0  0  0  0  0  2  0  0  0  0  0  0
  190.5780  176.0250  144.8660 O   0  0  0  0  0  0  0  0  0  0  0  0
  191.1540  177.0370  142.7340 C   0  0  2  0  0  3  0  0  0  0  0  0
  191.4210  176.6930  147.0130 C   0  0  2  0  0  3  0  0  0  0  0  0
  191.9320  175.5440  147.6210 O   0  0  0  0  0  1  0  0  0  0  0  0
  189.9450  176.8350  147.3350 C   0  0  0  0  0  1  0  0  0  0  0  0
  181.3230  179.8980  140.0390 N   0  0  0  0  0  2  0  0  0  0  0  0
  179.3360  180.9080  138.5990 O   0  0  0  0  0  0  0  0  0  0  0  0
  180.5460  180.0210  138.4940 S   0  0  0  0  0  0  0  0  0  0  0  0
  181.5190  180.6260  137.5230 O   0  0  0  0  0  0  0  0  0  0  0  0
  180.0630  178.4180  137.9290 C   0  0  0  0  0  0  0  0  0  0  0  0
  178.9310  178.0220  138.1510 O   0  0  0  0  0  0  0  0  0  0  0  0
  181.3070  178.0910  135.7980 C   0  0  0  0  0  1  0  0  0  0  0  0
  181.0080  177.5210  137.1780 C   0  0  2  0  0  3  0  0  0  0  0  0
  182.1920  174.5810  135.9050 C   0  0  0  0  0  0  0  0  0  0  0  0
  179.1930  175.9530  137.1970 O   0  0  0  0  0  1  0  0  0  0  0  0
  182.5730  173.9580  134.6110 C   0  0  0  0  0  1  0  0  0  0  0  0
  181.1120  175.2730  138.4140 C   0  0  1  0  0  3  0  0  0  0  0  0
  182.9260  174.3320  136.9910 C   0  0  0  0  0  3  0  0  0  0  0  0
  180.5870  176.0280  137.1700 C   0  0  2  0  0  0  0  0  0  0  0  0
  182.6070  174.9790  138.3030 C   0  0  0  0  0  2  0  0  0  0  0  0
  181.0470  175.3870  135.9710 O   0  0  0  0  0  0  0  0  0  0  0  0
  180.8440  175.9810  139.5900 O   0  0  0  0  0  0  0  0  0  0  0  0
  179.8880  175.2150  140.2580 C   0  0  0  0  0  1  0  0  0  0  0  0
  1 14  1  6  0  0  0
  1 23  1  0  0  0  0
  2 17  1  0  0  0  0
  4 38  1  1  0  0  0
  4 22  1  0  0  0  0
  5  6  1  0  0  0  0
  6 10  1  0  0  0  0
  7 18  1  1  0  0  0
  8  7  1  0  0  0  0
  9 20  1  0  0  0  0
  9 24  1  0  0  0  0
 10  8  1  0  0  0  0
 11 21  1  0  0  0  0
 12  5  1  6  0  0  0
 12 24  1  0  0  0  0
 12  7  1  0  0  0  0
 13 28  1  0  0  0  0
 15 13  2  0  0  0  0
 16 18  1  6  0  0  0
 16 25  1  0  0  0  0
 16 34  1  0  0  0  0
 17  4  1  0  0  0  0
 19  2  1  0  0  0  0
 20  3  1  1  0  0  0
 20 19  1  0  0  0  0
 22 26  2  0  0  0  0
 23 15  1  1  0  0  0
 23 11  1  0  0  0  0
 25 14  1  6  0  0  0
 25  1  1  0  0  0  0
 26 27  1  0  0  0  0
 27 13  1  0  0  0  0
 28 21  1  0  0  0  0
 29 33  1  0  0  0  0
 30 35  1  1  0  0  0
 31 32  1  0  0  0  0
 32 30  1  0  0  0  0
 33 30  1  0  0  0  0
 34 29  1  1  0  0  0
 34 31  1  0  0  0  0
 35 37  1  6  0  0  0
 35 36  1  0  0  0  0
 40 39  2  0  0  0  0
 40 38  1  0  0  0  0
 41 40  2  0  0  0  0
 42 43  2  0  0  0  0
 42 40  1  0  0  0  0
 45 44  1  6  0  0  0
 45 42  1  0  0  0  0
 46 53  1  0  0  0  0
 46 50  2  0  0  0  0
 48 46  1  0  0  0  0
 49 54  1  1  0  0  0
 50 52  1  0  0  0  0
 51 45  1  0  0  0  0
 51 47  1  1  0  0  0
 51 49  1  0  0  0  0
 52 49  1  0  0  0  0
 53 51  1  0  0  0  0
 54 55  1  0  0  0  0
M  END
>  <MODEL>
2

>  <REMARK>
 VINA RESULT:     -10.2      0.903      1.987
  Name = 
  8 active torsions:
  status: ('A' for Active; 'I' for Inactive)
    1  A    between atoms: C_6  and  C_14
    2  A    between atoms: C_6  and  S_20
    3  A    between atoms: C_8  and  N_22
    4  A    between atoms: C_10  and  C_32
    5  A    between atoms: O_11  and  C_29
    6  A    between atoms: C_14  and  C_38
    7  A    between atoms: S_20  and  N_22
    8  A    between atoms: C_33  and  C_52
                            x       y       z     vdW  Elec       q    Type
                         _______ _______ _______ _____ _____    ______ ____

>  <TORSDO>
F 8

$$$$
=
 OpenBabel11052414583D

 55 60  0  0  1  0  0  0  0  0999 V2000
  186.3480  177.8280  140.7310 C   0  0  2  0  0  3  0  0  0  0  0  0
  191.9180  176.6040  141.1760 C   0  0  0  0  0  2  0  0  0  0  0  0
  190.9760  175.3980  143.6030 O   0  0  0  0  0  1  0  0  0  0  0  0
  192.1520  176.4440  138.7160 C   0  0  1  0  0  3  0  0  0  0  0  0
  188.3230  177.5880  146.8700 C   0  0  0  0  0  2  0  0  0  0  0  0
  187.4670  178.2550  147.7820 O   0  0  0  0  0  0  0  0  0  0  0  0
  186.6750  177.9330  145.0520 C   0  0  2  0  0  3  0  0  0  0  0  0
  185.8380  177.7000  146.1690 O   0  0  0  0  0  0  0  0  0  0  0  0
  190.4730  177.5100  144.6350 C   0  0  0  0  0  2  0  0  0  0  0  0
  186.2170  178.5900  147.1990 C   0  0  0  0  0  2  0  0  0  0  0  0
  185.4150  178.5780  138.5150 C   0  0  0  0  0  2  0  0  0  0  0  0
  188.1540  178.0680  145.4270 C   0  0  2  0  0  3  0  0  0  0  0  0
  187.9430  177.7730  137.3550 C   0  0  0  0  0  0  0  0  0  0  0  0
  187.5470  177.9660  141.6480 C   0  0  0  0  0  2  0  0  0  0  0  0
  187.6800  177.5250  138.6440 C   0  0  0  0  0  3  0  0  0  0  0  0
  185.5330  178.6230  142.9550 C   0  0  2  0  0  3  0  0  0  0  0  0
  191.9730  177.3950  139.8850 C   0  0  0  0  0  2  0  0  0  0  0  0
  186.1940  179.1200  144.2320 C   0  0  0  0  0  2  0  0  0  0  0  0
  191.1120  177.3620  142.2140 C   0  0  0  0  0  2  0  0  0  0  0  0
  191.3030  176.7580  143.5990 C   0  0  2  0  0  3  0  0  0  0  0  0
  185.6910  178.7810  137.0080 C   0  0  0  0  0  2  0  0  0  0  0  0
  190.8380  176.2440  138.0180 C   0  0  0  0  0  3  0  0  0  0  0  0
  186.6830  178.3910  139.3600 C   0  0  2  0  0  3  0  0  0  0  0  0
  188.9850  177.2200  144.4810 C   0  0  0  0  0  2  0  0  0  0  0  0
  186.4050  178.9570  141.7460 C   0  0  2  0  0  3  0  0  0  0  0  0
  190.3150  177.1750  137.2170 C   0  0  0  0  0  3  0  0  0  0  0  0
  188.9640  176.9700  136.6110 C   0  0  0  0  0  2  0  0  0  0  0  0
  187.1830  178.8640  136.6550 C   0  0  0  0  0  2  0  0  0  0  0  0
  183.4760  179.3820  144.2200 C   0  0  0  0  0  2  0  0  0  0  0  0
  181.3780  178.9290  143.5530 C   0  0  2  0  0  3  0  0  0  0  0  0
  183.2230  178.3650  141.8930 C   0  0  0  0  0  2  0  0  0  0  0  0
  181.7430  178.7080  142.0700 C   0  0  0  0  0  2  0  0  0  0  0  0
  182.4050  178.4910  144.4100 O   0  0  0  0  0  0  0  0  0  0  0  0
  184.1160  179.1920  142.8350 C   0  0  2  0  0  3  0  0  0  0  0  0
  180.0630  178.2520  143.9280 C   0  0  2  0  0  3  0  0  0  0  0  0
  179.5670  177.5020  142.8600 O   0  0  0  0  0  1  0  0  0  0  0  0
  179.0290  179.2720  144.3680 C   0  0  0  0  0  1  0  0  0  0  0  0
  193.1590  176.9640  137.7990 N   0  0  0  0  0  2  0  0  0  0  0  0
  193.8530  174.4220  137.4800 O   0  0  0  0  0  0  0  0  0  0  0  0
  193.6140  175.6920  136.7110 S   0  0  0  0  0  0  0  0  0  0  0  0
  192.4900  175.4780  135.7390 O   0  0  0  0  0  0  0  0  0  0  0  0
  195.0800  176.1420  135.8330 C   0  0  0  0  0  0  0  0  0  0  0  0
  195.3540  177.3220  135.6920 O   0  0  0  0  0  0  0  0  0  0  0  0
  195.2510  173.8250  134.9410 C   0  0  0  0  0  1  0  0  0  0  0  0
  196.0070  175.1100  135.2500 C   0  0  2  0  0  3  0  0  0  0  0  0
  196.8650  174.2630  138.4450 C   0  0  0  0  0  0  0  0  0  0  0  0
  198.2940  175.7590  135.5690 O   0  0  0  0  0  1  0  0  0  0  0  0
  196.6570  174.7070  139.8480 C   0  0  0  0  0  1  0  0  0  0  0  0
  197.8490  173.4570  135.9310 C   0  0  1  0  0  3  0  0  0  0  0  0
  196.8710  172.9590  138.1660 C   0  0  0  0  0  3  0  0  0  0  0  0
  197.3090  174.9000  136.0650 C   0  0  2  0  0  0  0  0  0  0  0  0
  197.0270  172.4710  136.7590 C   0  0  0  0  0  2  0  0  0  0  0  0
  197.0900  175.2210  137.4460 O   0  0  0  0  0  0  0  0  0  0  0  0
  197.8880  173.0500  134.5940 O   0  0  0  0  0  0  0  0  0  0  0  0
  198.3050  171.7180  134.6370 C   0  0  0  0  0  1  0  0  0  0  0  0
  1 14  1  1  0  0  0
  1 25  1  0  0  0  0
  2 19  1  0  0  0  0
  4 38  1  6  0  0  0
  4 17  1  0  0  0  0
  5  6  1  0  0  0  0
  7 18  1  1  0  0  0
  7 12  1  0  0  0  0
  7  8  1  0  0  0  0
  8 10  1  0  0  0  0
 10  6  1  0  0  0  0
 12 24  1  6  0  0  0
 12  5  1  0  0  0  0
 13 15  2  0  0  0  0
 15 23  1  0  0  0  0
 16 18  1  1  0  0  0
 17  2  1  0  0  0  0
 19 20  1  0  0  0  0
 20  3  1  6  0  0  0
 20  9  1  0  0  0  0
 21 11  1  0  0  0  0
 22  4  1  0  0  0  0
 23 11  1  6  0  0  0
 23  1  1  0  0  0  0
 24  9  1  0  0  0  0
 25 14  1  1  0  0  0
 25 16  1  0  0  0  0
 26 22  2  0  0  0  0
 27 26  1  0  0  0  0
 27 13  1  0  0  0  0
 28 21  1  0  0  0  0
 28 13  1  0  0  0  0
 29 33  1  0  0  0  0
 30 35  1  1  0  0  0
 30 33  1  0  0  0  0
 31 32  1  0  0  0  0
 32 30  1  0  0  0  0
 34 31  1  6  0  0  0
 34 16  1  0  0  0  0
 34 29  1  0  0  0  0
 35 37  1  6  0  0  0
 36 35  1  0  0  0  0
 40 39  2  0  0  0  0
 40 38  1  0  0  0  0
 41 40  2  0  0  0  0
 42 40  1  0  0  0  0
 43 42  2  0  0  0  0
 45 44  1  1  0  0  0
 45 42  1  0  0  0  0
 45 51  1  0  0  0  0
 46 48  1  0  0  0  0
 49 54  1  6  0  0  0
 49 51  1  0  0  0  0
 49 52  1  0  0  0  0
 50 46  2  0  0  0  0
 51 47  1  6  0  0  0
 51 53  1  0  0  0  0
 52 50  1  0  0  0  0
 53 46  1  0  0  0  0
 54 55  1  0  0  0  0
M  END
>  <MODEL>
3

>  <REMARK>
 VINA RESULT:      -8.2      4.267     11.657
  Name = 
  8 active torsions:
  status: ('A' for Active; 'I' for Inactive)
    1  A    between atoms: C_6  and  C_14
    2  A    between atoms: C_6  and  S_20
    3  A    between atoms: C_8  and  N_22
    4  A    between atoms: C_10  and  C_32
    5  A    between atoms: O_11  and  C_29
    6  A    between atoms: C_14  and  C_38
    7  A    between atoms: S_20  and  N_22
    8  A    between atoms: C_33  and  C_52
                            x       y       z     vdW  Elec       q    Type
                         _______ _______ _______ _____ _____    ______ ____

>  <TORSDO>
F 8

$$$$
=
 OpenBabel11052414583D

 55 60  0  0  1  0  0  0  0  0999 V2000
  184.3800  177.3070  138.6500 C   0  0  2  0  0  3  0  0  0  0  0  0
  189.8880  176.8020  140.1080 C   0  0  0  0  0  2  0  0  0  0  0  0
  188.6710  176.0280  142.5890 O   0  0  0  0  0  1  0  0  0  0  0  0
  190.5140  176.1650  137.7980 C   0  0  1  0  0  3  0  0  0  0  0  0
  185.3840  178.5480  144.9020 C   0  0  0  0  0  2  0  0  0  0  0  0
  184.3490  179.2930  145.5210 O   0  0  0  0  0  0  0  0  0  0  0  0
  184.0190  178.3340  142.8460 C   0  0  2  0  0  3  0  0  0  0  0  0
  183.0380  178.2480  143.8620 O   0  0  0  0  0  0  0  0  0  0  0  0
  187.8570  178.2420  143.0540 C   0  0  0  0  0  2  0  0  0  0  0  0
  183.1830  179.3660  144.7130 C   0  0  0  0  0  2  0  0  0  0  0  0
  183.7500  177.4800  136.2170 C   0  0  0  0  0  2  0  0  0  0  0  0
  185.4070  178.7000  143.3800 C   0  0  2  0  0  3  0  0  0  0  0  0
  186.4810  176.7280  135.6190 C   0  0  0  0  0  0  0  0  0  0  0  0
  185.4060  177.7580  139.6700 C   0  0  0  0  0  2  0  0  0  0  0  0
  186.0400  176.7250  136.8820 C   0  0  0  0  0  3  0  0  0  0  0  0
  183.1700  178.4510  140.5130 C   0  0  2  0  0  3  0  0  0  0  0  0
  190.0840  177.3120  138.6950 C   0  0  0  0  0  2  0  0  0  0  0  0
  183.5850  179.2680  141.7270 C   0  0  0  0  0  2  0  0  0  0  0  0
  188.8740  177.6670  140.8350 C   0  0  0  0  0  2  0  0  0  0  0  0
  188.8920  177.3850  142.3320 C   0  0  2  0  0  3  0  0  0  0  0  0
  184.2420  177.3970  134.7550 C   0  0  0  0  0  2  0  0  0  0  0  0
  189.3440  175.6870  136.9890 C   0  0  0  0  0  3  0  0  0  0  0  0
  184.8810  177.6080  137.2480 C   0  0  2  0  0  3  0  0  0  0  0  0
  186.4370  177.7690  142.7660 C   0  0  0  0  0  2  0  0  0  0  0  0
  184.1920  178.6200  139.3900 C   0  0  2  0  0  3  0  0  0  0  0  0
  188.8830  176.3710  135.9400 C   0  0  0  0  0  3  0  0  0  0  0  0
  187.6640  175.9030  135.2150 C   0  0  0  0  0  2  0  0  0  0  0  0
  185.7600  177.5650  134.5990 C   0  0  0  0  0  2  0  0  0  0  0  0
  180.9150  177.5760  139.7660 C   0  0  0  0  0  2  0  0  0  0  0  0
  179.6980  178.5270  138.1340 C   0  0  2  0  0  3  0  0  0  0  0  0
  181.7340  179.8390  138.9190 C   0  0  0  0  0  2  0  0  0  0  0  0
  180.3570  179.9180  138.2550 C   0  0  0  0  0  2  0  0  0  0  0  0
  180.6160  177.4940  138.3950 O   0  0  0  0  0  0  0  0  0  0  0  0
  181.7500  178.8280  140.0790 C   0  0  2  0  0  3  0  0  0  0  0  0
  179.0490  178.3160  136.7700 C   0  0  2  0  0  3  0  0  0  0  0  0
  179.0160  176.9600  136.4400 O   0  0  0  0  0  1  0  0  0  0  0  0
  179.7780  179.0930  135.6900 C   0  0  0  0  0  1  0  0  0  0  0  0
  191.6090  176.5900  136.9360 N   0  0  0  0  0  2  0  0  0  0  0  0
  192.3550  174.1080  137.5110 O   0  0  0  0  0  0  0  0  0  0  0  0
  192.5140  175.1850  136.4730 S   0  0  0  0  0  0  0  0  0  0  0  0
  191.9780  174.6900  135.1600 O   0  0  0  0  0  0  0  0  0  0  0  0
  194.2240  175.5950  136.2980 C   0  0  0  0  0  0  0  0  0  0  0  0
  194.5550  176.7680  136.2480 O   0  0  0  0  0  0  0  0  0  0  0  0
  194.8510  173.4100  135.2860 C   0  0  0  0  0  1  0  0  0  0  0  0
  195.2910  174.5390  136.2070 C   0  0  2  0  0  3  0  0  0  0  0  0
  196.0200  171.5710  137.7320 C   0  0  0  0  0  0  0  0  0  0  0  0
  195.3940  174.9560  138.5670 O   0  0  0  0  0  1  0  0  0  0  0  0
  195.3840  170.2790  138.0990 C   0  0  0  0  0  1  0  0  0  0  0  0
  197.3710  174.0410  137.6280 C   0  0  1  0  0  3  0  0  0  0  0  0
  197.2770  171.5770  137.2850 C   0  0  0  0  0  3  0  0  0  0  0  0
  195.8250  174.0630  137.5830 C   0  0  2  0  0  0  0  0  0  0  0  0
  197.9390  172.8500  136.8580 C   0  0  0  0  0  2  0  0  0  0  0  0
  195.3030  172.7640  137.8990 O   0  0  0  0  0  0  0  0  0  0  0  0
  197.9120  175.2350  137.1380 O   0  0  0  0  0  0  0  0  0  0  0  0
  198.9130  174.8370  136.2500 C   0  0  0  0  0  1  0  0  0  0  0  0
  1 25  1  0  0  0  0
  1 14  1  1  0  0  0
  2 19  1  0  0  0  0
  4 38  1  6  0  0  0
  4 17  1  0  0  0  0
  5  6  1  0  0  0  0
  7 18  1  6  0  0  0
  7 12  1  0  0  0  0
  7  8  1  0  0  0  0
  8 10  1  0  0  0  0
 10  6  1  0  0  0  0
 12 24  1  6  0  0  0
 12  5  1  0  0  0  0
 13 15  2  0  0  0  0
 15 23  1  0  0  0  0
 16 18  1  1  0  0  0
 17  2  1  0  0  0  0
 19 20  1  0  0  0  0
 20  3  1  6  0  0  0
 20  9  1  0  0  0  0
 21 11  1  0  0  0  0
 22  4  1  0  0  0  0
 23 11  1  6  0  0  0
 23  1  1  0  0  0  0
 24  9  1  0  0  0  0
 25 14  1  1  0  0  0
 25 16  1  0  0  0  0
 26 22  2  0  0  0  0
 27 13  1  0  0  0  0
 27 26  1  0  0  0  0
 28 21  1  0  0  0  0
 28 13  1  0  0  0  0
 29 34  1  0  0  0  0
 30 35  1  6  0  0  0
 30 32  1  0  0  0  0
 30 33  1  0  0  0  0
 32 31  1  0  0  0  0
 33 29  1  0  0  0  0
 34 31  1  6  0  0  0
 34 16  1  0  0  0  0
 35 37  1  6  0  0  0
 36 35  1  0  0  0  0
 40 38  1  0  0  0  0
 40 39  2  0  0  0  0
 41 40  2  0  0  0  0
 42 40  1  0  0  0  0
 43 42  2  0  0  0  0
 45 44  1  1  0  0  0
 45 42  1  0  0  0  0
 45 51  1  0  0  0  0
 46 53  1  0  0  0  0
 46 48  1  0  0  0  0
 49 54  1  6  0  0  0
 50 46  2  0  0  0  0
 51 49  1  0  0  0  0
 51 53  1  0  0  0  0
 51 47  1  1  0  0  0
 52 50  1  0  0  0  0
 52 49  1  0  0  0  0
 55 54  1  0  0  0  0
M  END
>  <MODEL>
4

>  <REMARK>
 VINA RESULT:      -7.9      3.935     11.990
  Name = 
  8 active torsions:
  status: ('A' for Active; 'I' for Inactive)
    1  A    between atoms: C_6  and  C_14
    2  A    between atoms: C_6  and  S_20
    3  A    between atoms: C_8  and  N_22
    4  A    between atoms: C_10  and  C_32
    5  A    between atoms: O_11  and  C_29
    6  A    between atoms: C_14  and  C_38
    7  A    between atoms: S_20  and  N_22
    8  A    between atoms: C_33  and  C_52
                            x       y       z     vdW  Elec       q    Type
                         _______ _______ _______ _____ _____    ______ ____

>  <TORSDO>
F 8

$$$$
=
 OpenBabel11052414583D

 55 60  0  0  1  0  0  0  0  0999 V2000
  189.0380  178.3350  141.4160 C   0  0  2  0  0  3  0  0  0  0  0  0
  184.5920  177.8260  137.8520 C   0  0  0  0  0  2  0  0  0  0  0  0
  183.4790  179.6870  139.7320 O   0  0  0  0  0  1  0  0  0  0  0  0
  186.0940  177.4540  135.9190 C   0  0  1  0  0  3  0  0  0  0  0  0
  183.3810  179.0650  144.4340 C   0  0  0  0  0  2  0  0  0  0  0  0
  183.4420  178.8760  145.8370 O   0  0  0  0  0  0  0  0  0  0  0  0
  185.8510  178.9240  144.2940 C   0  0  2  0  0  3  0  0  0  0  0  0
  185.6630  179.6050  145.5200 O   0  0  0  0  0  0  0  0  0  0  0  0
  183.3560  178.0610  141.4990 C   0  0  0  0  0  2  0  0  0  0  0  0
  184.7790  178.8450  146.3170 C   0  0  0  0  0  2  0  0  0  0  0  0
  191.3090  177.5210  140.6910 C   0  0  0  0  0  2  0  0  0  0  0  0
  184.5420  178.4060  143.6870 C   0  0  2  0  0  3  0  0  0  0  0  0
  190.1980  177.2750  138.0290 C   0  0  0  0  0  0  0  0  0  0  0  0
  187.5600  178.0010  141.3660 C   0  0  0  0  0  2  0  0  0  0  0  0
  189.4780  177.8220  139.0140 C   0  0  0  0  0  3  0  0  0  0  0  0
  188.1840  178.2530  143.7620 C   0  0  2  0  0  3  0  0  0  0  0  0
  185.5210  176.8350  137.1820 C   0  0  0  0  0  2  0  0  0  0  0  0
  186.8850  177.8160  144.4230 C   0  0  0  0  0  2  0  0  0  0  0  0
  184.5410  177.5590  139.3460 C   0  0  0  0  0  2  0  0  0  0  0  0
  183.3890  178.3160  139.9940 C   0  0  2  0  0  3  0  0  0  0  0  0
  192.1650  176.9710  139.5280 C   0  0  0  0  0  2  0  0  0  0  0  0
  187.4970  177.9210  136.1730 C   0  0  0  0  0  3  0  0  0  0  0  0
  189.7960  177.4550  140.4360 C   0  0  2  0  0  3  0  0  0  0  0  0
  184.5030  178.7660  142.2130 C   0  0  0  0  0  2  0  0  0  0  0  0
  188.4210  177.4500  142.4840 C   0  0  2  0  0  3  0  0  0  0  0  0
  188.5220  177.0690  136.2540 C   0  0  0  0  0  3  0  0  0  0  0  0
  189.8880  177.5690  136.5940 C   0  0  0  0  0  2  0  0  0  0  0  0
  191.3410  176.3650  138.3830 C   0  0  0  0  0  2  0  0  0  0  0  0
  190.5820  177.5100  144.0880 C   0  0  0  0  0  2  0  0  0  0  0  0
  191.3100  176.4600  145.9370 C   0  0  2  0  0  3  0  0  0  0  0  0
  188.9530  177.4150  146.0500 C   0  0  0  0  0  2  0  0  0  0  0  0
  190.1820  176.9810  146.8520 C   0  0  0  0  0  2  0  0  0  0  0  0
  190.8530  176.2390  144.6250 O   0  0  0  0  0  0  0  0  0  0  0  0
  189.3480  178.1410  144.7530 C   0  0  2  0  0  3  0  0  0  0  0  0
  191.9540  175.1900  146.4850 C   0  0  2  0  0  3  0  0  0  0  0  0
  193.0200  175.4990  147.3310 O   0  0  0  0  0  1  0  0  0  0  0  0
  192.4300  174.2880  145.3610 C   0  0  0  0  0  1  0  0  0  0  0  0
  186.0520  176.4880  134.8280 N   0  0  0  0  0  2  0  0  0  0  0  0
  186.0300  173.8380  134.6770 O   0  0  0  0  0  0  0  0  0  0  0  0
  185.4460  174.9870  135.4510 S   0  0  0  0  0  0  0  0  0  0  0  0
  185.8570  174.8740  136.8910 O   0  0  0  0  0  0  0  0  0  0  0  0
  183.6830  174.9500  135.3330 C   0  0  0  0  0  0  0  0  0  0  0  0
  183.0710  175.9960  135.1990 O   0  0  0  0  0  0  0  0  0  0  0  0
  181.6180  173.7730  134.5940 C   0  0  0  0  0  1  0  0  0  0  0  0
  182.9080  173.6620  135.3950 C   0  0  2  0  0  3  0  0  0  0  0  0
  181.1930  174.5340  138.2170 C   0  0  0  0  0  0  0  0  0  0  0  0
  183.8920  172.4640  137.2250 O   0  0  0  0  0  1  0  0  0  0  0  0
  181.0500  175.6610  139.1740 C   0  0  0  0  0  1  0  0  0  0  0  0
  181.5750  172.0700  136.9040 C   0  0  1  0  0  3  0  0  0  0  0  0
  180.1100  173.8490  137.8470 C   0  0  0  0  0  3  0  0  0  0  0  0
  182.7170  173.1100  136.8310 C   0  0  2  0  0  0  0  0  0  0  0  0
  180.2020  172.7380  136.8460 C   0  0  0  0  0  2  0  0  0  0  0  0
  182.4680  174.1840  137.7490 O   0  0  0  0  0  0  0  0  0  0  0  0
  181.6890  171.1150  135.8880 O   0  0  0  0  0  0  0  0  0  0  0  0
  180.3980  170.6110  135.7230 C   0  0  0  0  0  1  0  0  0  0  0  0
  1 14  1  6  0  0  0
  1 25  1  0  0  0  0
  2 19  1  0  0  0  0
  4 38  1  6  0  0  0
  4 22  1  0  0  0  0
  4 17  1  0  0  0  0
  5  6  1  0  0  0  0
  6 10  1  0  0  0  0
  7 18  1  1  0  0  0
  7  8  1  0  0  0  0
  8 10  1  0  0  0  0
  9 24  1  0  0  0  0
 12 24  1  6  0  0  0
 12  7  1  0  0  0  0
 12  5  1  0  0  0  0
 13 28  1  0  0  0  0
 13 15  2  0  0  0  0
 16 18  1  1  0  0  0
 16 34  1  0  0  0  0
 17  2  1  0  0  0  0
 19 20  1  0  0  0  0
 20  3  1  1  0  0  0
 20  9  1  0  0  0  0
 21 11  1  0  0  0  0
 22 26  2  0  0  0  0
 23 15  1  6  0  0  0
 23 11  1  0  0  0  0
 23  1  1  0  0  0  0
 25 14  1  6  0  0  0
 25 16  1  0  0  0  0
 26 27  1  0  0  0  0
 27 13  1  0  0  0  0
 28 21  1  0  0  0  0
 29 33  1  0  0  0  0
 30 35  1  1  0  0  0
 30 32  1  0  0  0  0
 31 32  1  0  0  0  0
 33 30  1  0  0  0  0
 34 29  1  6  0  0  0
 34 31  1  0  0  0  0
 35 37  1  6  0  0  0
 35 36  1  0  0  0  0
 38 40  1  0  0  0  0
 39 40  2  0  0  0  0
 40 41  2  0  0  0  0
 42 45  1  0  0  0  0
 42 40  1  0  0  0  0
 43 42  2  0  0  0  0
 45 44  1  1  0  0  0
 45 51  1  0  0  0  0
 46 48  1  0  0  0  0
 49 54  1  6  0  0  0
 50 46  2  0  0  0  0
 51 49  1  0  0  0  0
 51 47  1  1  0  0  0
 51 53  1  0  0  0  0
 52 49  1  0  0  0  0
 52 50  1  0  0  0  0
 53 46  1  0  0  0  0
 55 54  1  0  0  0  0
M  END
>  <MODEL>
5

>  <REMARK>
 VINA RESULT:      -7.8      2.649      5.910
  Name = 
  8 active torsions:
  status: ('A' for Active; 'I' for Inactive)
    1  A    between atoms: C_6  and  C_14
    2  A    between atoms: C_6  and  S_20
    3  A    between atoms: C_8  and  N_22
    4  A    between atoms: C_10  and  C_32
    5  A    between atoms: O_11  and  C_29
    6  A    between atoms: C_14  and  C_38
    7  A    between atoms: S_20  and  N_22
    8  A    between atoms: C_33  and  C_52
                            x       y       z     vdW  Elec       q    Type
                         _______ _______ _______ _____ _____    ______ ____

>  <TORSDO>
F 8

$$$$
=
 OpenBabel11052414583D

 55 60  0  0  1  0  0  0  0  0999 V2000
  185.9830  177.9040  140.7930 C   0  0  2  0  0  3  0  0  0  0  0  0
  191.5100  176.4670  141.1290 C   0  0  0  0  0  2  0  0  0  0  0  0
  190.5660  175.2800  143.5650 O   0  0  0  0  0  1  0  0  0  0  0  0
  191.6930  176.3160  138.6640 C   0  0  1  0  0  3  0  0  0  0  0  0
  188.0570  177.5450  146.8930 C   0  0  0  0  0  2  0  0  0  0  0  0
  187.2430  178.2380  147.8250 O   0  0  0  0  0  0  0  0  0  0  0  0
  186.3910  177.9650  145.1080 C   0  0  2  0  0  3  0  0  0  0  0  0
  185.5650  177.7560  146.2380 O   0  0  0  0  0  0  0  0  0  0  0  0
  190.1620  177.4020  144.6200 C   0  0  0  0  0  2  0  0  0  0  0  0
  185.9960  178.6240  147.2670 C   0  0  0  0  0  2  0  0  0  0  0  0
  185.0400  178.7030  138.5990 C   0  0  0  0  0  2  0  0  0  0  0  0
  187.8810  178.0420  145.4570 C   0  0  2  0  0  3  0  0  0  0  0  0
  187.5140  177.8120  137.3880 C   0  0  0  0  0  0  0  0  0  0  0  0
  187.2020  177.9900  141.6890 C   0  0  0  0  0  2  0  0  0  0  0  0
  187.2650  177.5650  138.6800 C   0  0  0  0  0  3  0  0  0  0  0  0
  185.2390  178.7130  143.0360 C   0  0  2  0  0  3  0  0  0  0  0  0
  191.5720  177.2650  139.8430 C   0  0  0  0  0  2  0  0  0  0  0  0
  185.9410  179.1760  144.3040 C   0  0  0  0  0  2  0  0  0  0  0  0
  190.7510  177.2480  142.1870 C   0  0  0  0  0  2  0  0  0  0  0  0
  190.9450  176.6270  143.5640 C   0  0  2  0  0  3  0  0  0  0  0  0
  185.2970  178.9070  137.0880 C   0  0  0  0  0  2  0  0  0  0  0  0
  190.3610  176.1710  137.9890 C   0  0  0  0  0  3  0  0  0  0  0  0
  186.3150  178.4630  139.4190 C   0  0  2  0  0  3  0  0  0  0  0  0
  188.6620  177.1700  144.4900 C   0  0  0  0  0  2  0  0  0  0  0  0
  186.1010  179.0220  141.8140 C   0  0  2  0  0  3  0  0  0  0  0  0
  189.8590  177.1260  137.2040 C   0  0  0  0  0  3  0  0  0  0  0  0
  188.4910  176.9770  136.6200 C   0  0  0  0  0  2  0  0  0  0  0  0
  186.7840  178.9360  136.7090 C   0  0  0  0  0  2  0  0  0  0  0  0
  183.0950  179.2200  144.2850 C   0  0  0  0  0  2  0  0  0  0  0  0
  181.0530  178.9940  143.3760 C   0  0  2  0  0  3  0  0  0  0  0  0
  183.0180  178.7740  141.7730 C   0  0  0  0  0  2  0  0  0  0  0  0
  181.5320  179.1100  141.9140 C   0  0  0  0  0  2  0  0  0  0  0  0
  182.0030  178.3410  144.1820 O   0  0  0  0  0  0  0  0  0  0  0  0
  183.8420  179.3350  142.9450 C   0  0  2  0  0  3  0  0  0  0  0  0
  179.7040  178.2880  143.4850 C   0  0  2  0  0  3  0  0  0  0  0  0
  179.8130  177.1230  144.2460 O   0  0  0  0  0  1  0  0  0  0  0  0
  179.1460  177.9590  142.1130 C   0  0  0  0  0  1  0  0  0  0  0  0
  192.7030  176.8040  137.7330 N   0  0  0  0  0  2  0  0  0  0  0  0
  192.0640  174.4320  136.7290 O   0  0  0  0  0  0  0  0  0  0  0  0
  193.0940  175.5230  136.6320 S   0  0  0  0  0  0  0  0  0  0  0  0
  193.0940  176.0810  135.2380 O   0  0  0  0  0  0  0  0  0  0  0  0
  194.6920  174.8680  137.0080 C   0  0  0  0  0  0  0  0  0  0  0  0
  195.6630  175.6060  136.9800 O   0  0  0  0  0  0  0  0  0  0  0  0
  195.6390  173.2920  138.6860 C   0  0  0  0  0  1  0  0  0  0  0  0
  194.8960  173.4200  137.3630 C   0  0  2  0  0  3  0  0  0  0  0  0
  197.6990  171.5460  136.8180 C   0  0  0  0  0  0  0  0  0  0  0  0
  195.1040  173.1230  134.9920 O   0  0  0  0  0  1  0  0  0  0  0  0
  199.1800  171.6630  136.8240 C   0  0  0  0  0  1  0  0  0  0  0  0
  194.9750  171.1110  136.2430 C   0  0  1  0  0  3  0  0  0  0  0  0
  197.1290  170.4390  137.2960 C   0  0  0  0  0  3  0  0  0  0  0  0
  195.4940  172.5680  136.2140 C   0  0  2  0  0  0  0  0  0  0  0  0
  195.6390  170.3010  137.3550 C   0  0  0  0  0  2  0  0  0  0  0  0
  196.9270  172.5840  136.2750 O   0  0  0  0  0  0  0  0  0  0  0  0
  193.5830  171.0690  136.3800 O   0  0  0  0  0  0  0  0  0  0  0  0
  193.2340  169.7510  136.0810 C   0  0  0  0  0  1  0  0  0  0  0  0
  1 14  1  1  0  0  0
  1 25  1  0  0  0  0
  2 19  1  0  0  0  0
  4 38  1  6  0  0  0
  4 17  1  0  0  0  0
  5  6  1  0  0  0  0
  7 18  1  1  0  0  0
  7 12  1  0  0  0  0
  7  8  1  0  0  0  0
  8 10  1  0  0  0  0
 10  6  1  0  0  0  0
 12 24  1  6  0  0  0
 12  5  1  0  0  0  0
 13 15  2  0  0  0  0
 15 23  1  0  0  0  0
 16 18  1  1  0  0  0
 17  2  1  0  0  0  0
 19 20  1  0  0  0  0
 20  3  1  6  0  0  0
 20  9  1  0  0  0  0
 21 11  1  0  0  0  0
 22  4  1  0  0  0  0
 23 11  1  6  0  0  0
 23  1  1  0  0  0  0
 24  9  1  0  0  0  0
 25 14  1  1  0  0  0
 25 16  1  0  0  0  0
 26 22  2  0  0  0  0
 27 26  1  0  0  0  0
 27 13  1  0  0  0  0
 28 21  1  0  0  0  0
 28 13  1  0  0  0  0
 30 35  1  6  0  0  0
 30 33  1  0  0  0  0
 31 32  1  0  0  0  0
 32 30  1  0  0  0  0
 33 29  1  0  0  0  0
 34 31  1  6  0  0  0
 34 16  1  0  0  0  0
 34 29  1  0  0  0  0
 35 37  1  6  0  0  0
 35 36  1  0  0  0  0
 40 39  2  0  0  0  0
 40 42  1  0  0  0  0
 40 38  1  0  0  0  0
 41 40  2  0  0  0  0
 42 45  1  0  0  0  0
 43 42  2  0  0  0  0
 45 44  1  1  0  0  0
 46 48  1  0  0  0  0
 46 50  2  0  0  0  0
 49 54  1  1  0  0  0
 49 52  1  0  0  0  0
 50 52  1  0  0  0  0
 51 47  1  6  0  0  0
 51 49  1  0  0  0  0
 51 53  1  0  0  0  0
 51 45  1  0  0  0  0
 53 46  1  0  0  0  0
 55 54  1  0  0  0  0
M  END
>  <MODEL>
6

>  <REMARK>
 VINA RESULT:      -7.4      4.246     11.335
  Name = 
  8 active torsions:
  status: ('A' for Active; 'I' for Inactive)
    1  A    between atoms: C_6  and  C_14
    2  A    between atoms: C_6  and  S_20
    3  A    between atoms: C_8  and  N_22
    4  A    between atoms: C_10  and  C_32
    5  A    between atoms: O_11  and  C_29
    6  A    between atoms: C_14  and  C_38
    7  A    between atoms: S_20  and  N_22
    8  A    between atoms: C_33  and  C_52
                            x       y       z     vdW  Elec       q    Type
                         _______ _______ _______ _____ _____    ______ ____

>  <TORSDO>
F 8

$$$$
