=
 OpenBabel11052416173D

 43 49  0  0  1  0  0  0  0  0999 V2000
  191.4320  176.2540  146.9490 C   0  0  0  0  0  0  0  0  0  0  0  0
  187.1910  177.9130  144.5200 C   0  0  0  0  0  0  0  0  0  0  0  0
  187.9290  177.9250  141.7290 C   0  0  0  0  0  0  0  0  0  0  0  0
  189.1610  177.0110  146.4310 C   0  0  0  0  0  0  0  0  0  0  0  0
  191.7710  176.4180  145.6120 C   0  0  0  0  0  3  0  0  0  0  0  0
  192.4590  175.9520  147.9660 C   0  0  0  0  0  1  0  0  0  0  0  0
  189.4800  177.1250  145.0340 C   0  0  0  0  0  0  0  0  0  0  0  0
  190.1020  176.5670  147.3320 C   0  0  0  0  0  3  0  0  0  0  0  0
  190.8270  176.8260  144.6890 C   0  0  0  0  0  3  0  0  0  0  0  0
  188.8160  177.4520  142.7010 C   0  0  0  0  0  3  0  0  0  0  0  0
  188.5170  177.4800  144.0880 C   0  0  0  0  0  0  0  0  0  0  0  0
  186.9350  177.9390  145.9040 C   0  0  0  0  0  3  0  0  0  0  0  0
  186.2460  178.2550  143.4970 C   0  0  0  0  0  0  0  0  0  0  0  0
  186.6060  178.3680  142.1470 C   0  0  0  0  0  3  0  0  0  0  0  0
  187.8840  177.4960  146.8490 C   0  0  0  0  0  3  0  0  0  0  0  0
  188.4240  177.6330  140.2600 C   0  0  2  0  0  3  0  0  0  0  0  0
  189.5590  176.7870  140.1860 O   0  0  0  0  0  0  0  0  0  0  0  0
  188.6220  178.7920  139.2960 C   0  0  0  0  0  2  0  0  0  0  0  0
  190.4040  177.2570  139.1420 C   0  0  2  0  0  3  0  0  0  0  0  0
  189.5760  178.1800  138.2550 C   0  0  0  0  0  2  0  0  0  0  0  0
  191.4240  176.1760  138.6610 C   0  0  0  0  0  2  0  0  0  0  0  0
  191.1740  175.7610  137.2890 N   0  0  0  0  0  0  0  0  0  0  0  0
  191.9980  173.6460  136.6610 C   0  0  0  0  0  2  0  0  0  0  0  0
  190.0230  174.8460  137.1780 C   0  0  0  0  0  2  0  0  0  0  0  0
  192.2840  175.1010  136.5760 C   0  0  1  0  0  0  0  0  0  0  0  0
  192.2020  175.4780  135.2460 O   0  0  0  0  0  1  0  0  0  0  0  0
  190.4910  173.5220  136.6120 C   0  0  0  0  0  2  0  0  0  0  0  0
  193.6910  175.4710  137.0860 C   0  0  0  0  0  2  0  0  0  0  0  0
  194.6020  174.3180  137.2130 N   0  0  0  0  0  0  0  0  0  0  0  0
  196.9450  174.8550  136.6290 C   0  0  0  0  0  2  0  0  0  0  0  0
  196.5660  173.5540  138.5470 C   0  0  0  0  0  2  0  0  0  0  0  0
  197.4620  173.8350  137.4610 O   0  0  0  0  0  0  0  0  0  0  0  0
  195.3060  174.4550  138.5040 C   0  0  0  0  0  2  0  0  0  0  0  0
  195.5920  174.3490  136.1030 C   0  0  0  0  0  2  0  0  0  0  0  0
  184.9520  178.7570  143.9970 O   0  0  0  0  0  0  0  0  0  0  0  0
  182.2350  178.4100  141.2500 C   0  0  0  0  0  2  0  0  0  0  0  0
  181.1300  178.8370  142.1820 C   0  0  2  0  0  3  0  0  0  0  0  0
  182.5800  179.1260  144.1630 C   0  0  0  0  0  2  0  0  0  0  0  0
  183.5800  178.7170  141.8930 C   0  0  0  0  0  2  0  0  0  0  0  0
  183.7090  178.4770  143.3930 C   0  0  1  0  0  3  0  0  0  0  0  0
  181.2330  178.6080  143.6820 C   0  0  0  0  0  2  0  0  0  0  0  0
  179.0310  177.9280  142.5150 O   0  0  0  0  0  1  0  0  0  0  0  0
  179.7680  178.7190  141.6420 C   0  0  0  0  0  2  0  0  0  0  0  0
  1  8  1  0  0  0  0
  1  6  1  0  0  0  0
  2 12  1  0  0  0  0
  3 14  2  0  0  0  0
  3 10  1  0  0  0  0
  4 15  1  0  0  0  0
  4  8  2  0  0  0  0
  5  1  2  0  0  0  0
  7  4  1  0  0  0  0
  9  7  2  0  0  0  0
  9  5  1  0  0  0  0
 10 11  2  0  0  0  0
 11  2  1  0  0  0  0
 11  7  1  0  0  0  0
 12 15  2  0  0  0  0
 13 35  1  0  0  0  0
 13  2  2  0  0  0  0
 14 13  1  0  0  0  0
 16  3  1  1  0  0  0
 17 16  1  0  0  0  0
 18 16  1  0  0  0  0
 19 21  1  6  0  0  0
 19 17  1  0  0  0  0
 20 19  1  0  0  0  0
 20 18  1  0  0  0  0
 22 21  1  0  0  0  0
 24 22  1  0  0  0  0
 25 26  1  6  0  0  0
 25 23  1  0  0  0  0
 25 28  1  0  0  0  0
 25 22  1  0  0  0  0
 27 23  1  0  0  0  0
 27 24  1  0  0  0  0
 28 29  1  0  0  0  0
 29 33  1  0  0  0  0
 30 32  1  0  0  0  0
 32 31  1  0  0  0  0
 33 31  1  0  0  0  0
 34 30  1  0  0  0  0
 34 29  1  0  0  0  0
 36 39  1  0  0  0  0
 36 37  1  0  0  0  0
 37 43  1  6  0  0  0
 37 41  1  0  0  0  0
 39 40  1  0  0  0  0
 40 35  1  1  0  0  0
 40 38  1  0  0  0  0
 41 38  1  0  0  0  0
 43 42  1  0  0  0  0
M  END
>  <MODEL>
1

>  <REMARK>
 VINA RESULT:     -10.9      0.000      0.000
  Name = 
  8 active torsions:
  status: ('A' for Active; 'I' for Inactive)
    1  A    between atoms: O_1  and  C_34
    2  A    between atoms: O_1  and  C_35
    3  A    between atoms: C_2  and  C_13
    4  A    between atoms: C_3  and  N_4
    5  A    between atoms: C_3  and  C_12
    6  A    between atoms: N_11  and  C_14
    7  A    between atoms: C_14  and  C_22
    8  A    between atoms: C_19  and  C_37
                            x       y       z     vdW  Elec       q    Type
                         _______ _______ _______ _____ _____    ______ ____

>  <TORSDO>
F 8

$$$$
=
 OpenBabel11052416173D

 43 49  0  0  1  0  0  0  0  0999 V2000
  191.2960  176.3730  146.7670 C   0  0  0  0  0  0  0  0  0  0  0  0
  187.0960  178.1090  144.3230 C   0  0  0  0  0  0  0  0  0  0  0  0
  187.9360  178.3840  141.5740 C   0  0  0  0  0  0  0  0  0  0  0  0
  189.0230  177.1050  146.2270 C   0  0  0  0  0  0  0  0  0  0  0  0
  191.6790  176.6610  145.4640 C   0  0  0  0  0  3  0  0  0  0  0  0
  192.2950  176.0150  147.7950 C   0  0  0  0  0  1  0  0  0  0  0  0
  189.3900  177.3480  144.8590 C   0  0  0  0  0  0  0  0  0  0  0  0
  189.9440  176.6130  147.1230 C   0  0  0  0  0  3  0  0  0  0  0  0
  190.7570  177.1200  144.5430 C   0  0  0  0  0  3  0  0  0  0  0  0
  188.8010  177.8550  142.5370 C   0  0  0  0  0  3  0  0  0  0  0  0
  188.4510  177.7550  143.9080 C   0  0  0  0  0  0  0  0  0  0  0  0
  186.7890  178.0090  145.6930 C   0  0  0  0  0  3  0  0  0  0  0  0
  186.1780  178.5100  143.2960 C   0  0  0  0  0  0  0  0  0  0  0  0
  186.5840  178.7500  141.9760 C   0  0  0  0  0  3  0  0  0  0  0  0
  187.7160  177.5140  146.6340 C   0  0  0  0  0  3  0  0  0  0  0  0
  188.4940  178.2340  140.1070 C   0  0  2  0  0  3  0  0  0  0  0  0
  187.6050  177.5920  139.2080 O   0  0  0  0  0  0  0  0  0  0  0  0
  189.8880  177.6660  139.8950 C   0  0  0  0  0  2  0  0  0  0  0  0
  188.3630  176.7520  138.3470 C   0  0  2  0  0  3  0  0  0  0  0  0
  189.8200  177.1950  138.4310 C   0  0  0  0  0  2  0  0  0  0  0  0
  187.5860  176.3610  137.0500 C   0  0  0  0  0  2  0  0  0  0  0  0
  187.2230  174.9530  137.0340 N   0  0  0  0  0  0  0  0  0  0  0  0
  186.5740  174.0550  134.9550 C   0  0  0  0  0  2  0  0  0  0  0  0
  188.3200  174.0920  136.5550 C   0  0  0  0  0  2  0  0  0  0  0  0
  186.0380  174.5750  136.2390 C   0  0  1  0  0  0  0  0  0  0  0  0
  185.4140  173.5300  136.9000 O   0  0  0  0  0  1  0  0  0  0  0  0
  187.8730  173.3630  135.3060 C   0  0  0  0  0  2  0  0  0  0  0  0
  185.0020  175.7010  136.0490 C   0  0  0  0  0  2  0  0  0  0  0  0
  183.9060  175.6740  137.0360 N   0  0  0  0  0  0  0  0  0  0  0  0
  182.8250  177.8770  137.3550 C   0  0  0  0  0  2  0  0  0  0  0  0
  181.4370  175.9920  137.1790 C   0  0  0  0  0  2  0  0  0  0  0  0
  181.5980  177.2980  137.7520 O   0  0  0  0  0  0  0  0  0  0  0  0
  182.6390  175.6020  136.2820 C   0  0  0  0  0  2  0  0  0  0  0  0
  183.9340  176.9280  137.8370 C   0  0  0  0  0  2  0  0  0  0  0  0
  184.8520  178.9300  143.7860 O   0  0  0  0  0  0  0  0  0  0  0  0
  182.2080  178.2610  141.0270 C   0  0  0  0  0  2  0  0  0  0  0  0
  181.0680  178.7180  141.9000 C   0  0  2  0  0  3  0  0  0  0  0  0
  182.4640  179.2180  143.8780 C   0  0  0  0  0  2  0  0  0  0  0  0
  183.5270  178.6690  141.6670 C   0  0  0  0  0  2  0  0  0  0  0  0
  183.6320  178.5550  143.1840 C   0  0  1  0  0  3  0  0  0  0  0  0
  181.1480  178.6130  143.4160 C   0  0  0  0  0  2  0  0  0  0  0  0
  179.1100  177.5040  142.0920 O   0  0  0  0  0  1  0  0  0  0  0  0
  179.7240  178.5050  141.3470 C   0  0  0  0  0  2  0  0  0  0  0  0
  1  8  1  0  0  0  0
  1  6  1  0  0  0  0
  2 12  1  0  0  0  0
  3 14  2  0  0  0  0
  3 10  1  0  0  0  0
  4 15  1  0  0  0  0
  4  8  2  0  0  0  0
  5  1  2  0  0  0  0
  7  4  1  0  0  0  0
  9  7  2  0  0  0  0
  9  5  1  0  0  0  0
 10 11  2  0  0  0  0
 11  2  1  0  0  0  0
 11  7  1  0  0  0  0
 12 15  2  0  0  0  0
 13 35  1  0  0  0  0
 13  2  2  0  0  0  0
 14 13  1  0  0  0  0
 16  3  1  1  0  0  0
 17 16  1  0  0  0  0
 18 16  1  0  0  0  0
 19 21  1  6  0  0  0
 19 20  1  0  0  0  0
 19 17  1  0  0  0  0
 20 18  1  0  0  0  0
 22 21  1  0  0  0  0
 23 27  1  0  0  0  0
 23 25  1  0  0  0  0
 24 22  1  0  0  0  0
 25 26  1  1  0  0  0
 25 22  1  0  0  0  0
 27 24  1  0  0  0  0
 28 25  1  0  0  0  0
 28 29  1  0  0  0  0
 29 34  1  0  0  0  0
 30 32  1  0  0  0  0
 30 34  1  0  0  0  0
 31 32  1  0  0  0  0
 33 29  1  0  0  0  0
 33 31  1  0  0  0  0
 36 39  1  0  0  0  0
 36 37  1  0  0  0  0
 37 43  1  6  0  0  0
 37 41  1  0  0  0  0
 39 40  1  0  0  0  0
 40 35  1  1  0  0  0
 40 38  1  0  0  0  0
 41 38  1  0  0  0  0
 43 42  1  0  0  0  0
M  END
>  <MODEL>
2

>  <REMARK>
 VINA RESULT:     -10.5      3.413      5.712
  Name = 
  8 active torsions:
  status: ('A' for Active; 'I' for Inactive)
    1  A    between atoms: O_1  and  C_34
    2  A    between atoms: O_1  and  C_35
    3  A    between atoms: C_2  and  C_13
    4  A    between atoms: C_3  and  N_4
    5  A    between atoms: C_3  and  C_12
    6  A    between atoms: N_11  and  C_14
    7  A    between atoms: C_14  and  C_22
    8  A    between atoms: C_19  and  C_37
                            x       y       z     vdW  Elec       q    Type
                         _______ _______ _______ _____ _____    ______ ____

>  <TORSDO>
F 8

$$$$
=
 OpenBabel11052416173D

 43 49  0  0  1  0  0  0  0  0999 V2000
  191.1730  176.6160  146.8770 C   0  0  0  0  0  0  0  0  0  0  0  0
  189.1210  178.1400  142.3940 C   0  0  0  0  0  0  0  0  0  0  0  0
  186.2710  178.0630  142.8540 C   0  0  0  0  0  0  0  0  0  0  0  0
  190.8600  177.4320  144.5890 C   0  0  0  0  0  0  0  0  0  0  0  0
  189.7980  176.4630  146.9910 C   0  0  0  0  0  3  0  0  0  0  0  0
  192.0870  176.1110  147.9220 C   0  0  0  0  0  1  0  0  0  0  0  0
  189.4310  177.3380  144.7150 C   0  0  0  0  0  0  0  0  0  0  0  0
  191.6800  177.1060  145.6460 C   0  0  0  0  0  3  0  0  0  0  0  0
  188.9600  176.8220  145.9530 C   0  0  0  0  0  3  0  0  0  0  0  0
  187.1700  177.7830  143.8880 C   0  0  0  0  0  3  0  0  0  0  0  0
  188.5750  177.7540  143.6920 C   0  0  0  0  0  0  0  0  0  0  0  0
  190.5180  178.0870  142.2340 C   0  0  0  0  0  3  0  0  0  0  0  0
  188.1880  178.5660  141.3910 C   0  0  0  0  0  0  0  0  0  0  0  0
  186.8010  178.4420  141.5510 C   0  0  0  0  0  3  0  0  0  0  0  0
  191.3810  177.7490  143.2980 C   0  0  0  0  0  3  0  0  0  0  0  0
  184.7840  178.1970  143.3610 C   0  0  2  0  0  3  0  0  0  0  0  0
  183.8070  178.0640  142.3430 O   0  0  0  0  0  0  0  0  0  0  0  0
  184.4020  179.3730  144.2470 C   0  0  0  0  0  2  0  0  0  0  0  0
  182.7590  178.9910  142.6010 C   0  0  2  0  0  3  0  0  0  0  0  0
  182.8760  179.4320  144.0550 C   0  0  0  0  0  2  0  0  0  0  0  0
  181.4400  178.6350  141.8430 C   0  0  0  0  0  2  0  0  0  0  0  0
  181.0870  179.6430  140.8560 N   0  0  0  0  0  0  0  0  0  0  0  0
  179.8820  178.9010  138.9740 C   0  0  0  0  0  2  0  0  0  0  0  0
  179.6960  180.1110  141.0010 C   0  0  0  0  0  2  0  0  0  0  0  0
  181.2430  179.2750  139.4360 C   0  0  1  0  0  0  0  0  0  0  0  0
  181.6290  180.4170  138.7540 O   0  0  0  0  0  1  0  0  0  0  0  0
  178.9310  179.8010  139.7310 C   0  0  0  0  0  2  0  0  0  0  0  0
  182.2960  178.1820  139.1630 C   0  0  0  0  0  2  0  0  0  0  0  0
  183.0580  178.3870  137.9170 N   0  0  0  0  0  0  0  0  0  0  0  0
  185.0510  176.9310  137.7410 C   0  0  0  0  0  2  0  0  0  0  0  0
  183.7010  177.1750  135.8340 C   0  0  0  0  0  2  0  0  0  0  0  0
  185.0320  176.9540  136.3270 O   0  0  0  0  0  0  0  0  0  0  0  0
  182.6730  177.3070  136.9860 C   0  0  0  0  0  2  0  0  0  0  0  0
  184.5130  178.2930  138.2090 C   0  0  0  0  0  2  0  0  0  0  0  0
  188.7910  178.8680  140.0790 O   0  0  0  0  0  0  0  0  0  0  0  0
  188.7290  175.9320  137.5440 C   0  0  0  0  0  2  0  0  0  0  0  0
  188.8740  176.8510  136.3580 C   0  0  2  0  0  3  0  0  0  0  0  0
  188.9110  178.9420  137.6760 C   0  0  0  0  0  2  0  0  0  0  0  0
  189.0270  176.7060  138.8190 C   0  0  0  0  0  2  0  0  0  0  0  0
  188.5210  178.1430  138.8990 C   0  0  1  0  0  3  0  0  0  0  0  0
  188.3760  178.2880  136.4120 C   0  0  0  0  0  2  0  0  0  0  0  0
  189.2590  174.9250  135.1400 O   0  0  0  0  0  1  0  0  0  0  0  0
  188.7400  176.2110  135.0420 C   0  0  0  0  0  2  0  0  0  0  0  0
  1  5  1  0  0  0  0
  1  6  1  0  0  0  0
  2 11  1  0  0  0  0
  3 10  1  0  0  0  0
  4  7  2  0  0  0  0
  4  8  1  0  0  0  0
  7  9  1  0  0  0  0
  8  1  2  0  0  0  0
  9  5  2  0  0  0  0
 11 10  2  0  0  0  0
 11  7  1  0  0  0  0
 12  2  1  0  0  0  0
 12 15  2  0  0  0  0
 13 14  1  0  0  0  0
 13  2  2  0  0  0  0
 14  3  2  0  0  0  0
 15  4  1  0  0  0  0
 16  3  1  6  0  0  0
 16 18  1  0  0  0  0
 17 19  1  0  0  0  0
 17 16  1  0  0  0  0
 19 21  1  1  0  0  0
 19 20  1  0  0  0  0
 20 18  1  0  0  0  0
 22 24  1  0  0  0  0
 22 21  1  0  0  0  0
 23 25  1  0  0  0  0
 23 27  1  0  0  0  0
 25 26  1  6  0  0  0
 25 22  1  0  0  0  0
 27 24  1  0  0  0  0
 28 25  1  0  0  0  0
 29 34  1  0  0  0  0
 29 28  1  0  0  0  0
 30 34  1  0  0  0  0
 31 32  1  0  0  0  0
 31 33  1  0  0  0  0
 32 30  1  0  0  0  0
 33 29  1  0  0  0  0
 35 13  1  0  0  0  0
 36 39  1  0  0  0  0
 37 43  1  6  0  0  0
 37 41  1  0  0  0  0
 37 36  1  0  0  0  0
 38 40  1  0  0  0  0
 39 40  1  0  0  0  0
 40 35  1  1  0  0  0
 41 38  1  0  0  0  0
 43 42  1  0  0  0  0
M  END
>  <MODEL>
3

>  <REMARK>
 VINA RESULT:     -10.3      3.956      8.729
  Name = 
  8 active torsions:
  status: ('A' for Active; 'I' for Inactive)
    1  A    between atoms: O_1  and  C_34
    2  A    between atoms: O_1  and  C_35
    3  A    between atoms: C_2  and  C_13
    4  A    between atoms: C_3  and  N_4
    5  A    between atoms: C_3  and  C_12
    6  A    between atoms: N_11  and  C_14
    7  A    between atoms: C_14  and  C_22
    8  A    between atoms: C_19  and  C_37
                            x       y       z     vdW  Elec       q    Type
                         _______ _______ _______ _____ _____    ______ ____

>  <TORSDO>
F 8

$$$$
=
 OpenBabel11052416173D

 43 49  0  0  1  0  0  0  0  0999 V2000
  187.9200  177.6440  147.2670 C   0  0  0  0  0  0  0  0  0  0  0  0
  185.5860  178.5190  142.7490 C   0  0  0  0  0  0  0  0  0  0  0  0
  187.7080  178.3190  140.8010 C   0  0  0  0  0  0  0  0  0  0  0  0
  186.2540  178.0670  145.5220 C   0  0  0  0  0  0  0  0  0  0  0  0
  188.9170  177.7020  146.3030 C   0  0  0  0  0  3  0  0  0  0  0  0
  188.2500  177.5760  148.7050 C   0  0  0  0  0  1  0  0  0  0  0  0
  187.2700  178.0670  144.5050 C   0  0  0  0  0  0  0  0  0  0  0  0
  186.5810  177.8370  146.8400 C   0  0  0  0  0  3  0  0  0  0  0  0
  188.6020  177.8950  144.9720 C   0  0  0  0  0  3  0  0  0  0  0  0
  187.9520  178.0600  142.1540 C   0  0  0  0  0  3  0  0  0  0  0  0
  186.9530  178.2020  143.1510 C   0  0  0  0  0  0  0  0  0  0  0  0
  184.6250  178.6630  143.7670 C   0  0  0  0  0  3  0  0  0  0  0  0
  185.3260  178.6350  141.3430 C   0  0  0  0  0  0  0  0  0  0  0  0
  186.3500  178.6450  140.3860 C   0  0  0  0  0  3  0  0  0  0  0  0
  184.9340  178.4400  145.1250 C   0  0  0  0  0  3  0  0  0  0  0  0
  188.9270  177.9310  139.8790 C   0  0  2  0  0  3  0  0  0  0  0  0
  188.5740  177.1770  138.7320 O   0  0  0  0  0  0  0  0  0  0  0  0
  190.1640  177.3060  140.5040 C   0  0  0  0  0  2  0  0  0  0  0  0
  189.5800  176.1970  138.5080 C   0  0  2  0  0  3  0  0  0  0  0  0
  190.8180  176.6150  139.2930 C   0  0  0  0  0  2  0  0  0  0  0  0
  189.5520  175.6270  137.0540 C   0  0  0  0  0  2  0  0  0  0  0  0
  189.5850  174.1730  137.0370 N   0  0  0  0  0  0  0  0  0  0  0  0
  189.4920  173.1410  134.9210 C   0  0  0  0  0  2  0  0  0  0  0  0
  190.9280  173.6420  136.7370 C   0  0  0  0  0  2  0  0  0  0  0  0
  188.6650  173.4930  136.1040 C   0  0  1  0  0  0  0  0  0  0  0  0
  188.2600  172.3160  136.7110 O   0  0  0  0  0  1  0  0  0  0  0  0
  190.8680  172.8240  135.4640 C   0  0  0  0  0  2  0  0  0  0  0  0
  187.4010  174.2980  135.7410 C   0  0  0  0  0  2  0  0  0  0  0  0
  186.3820  174.3190  136.8080 N   0  0  0  0  0  0  0  0  0  0  0  0
  184.4700  175.8060  136.3010 C   0  0  0  0  0  2  0  0  0  0  0  0
  184.0020  173.6900  137.2070 C   0  0  0  0  0  2  0  0  0  0  0  0
  183.5830  175.0610  137.1120 O   0  0  0  0  0  0  0  0  0  0  0  0
  185.2890  173.4210  136.3860 C   0  0  0  0  0  2  0  0  0  0  0  0
  185.8560  175.7030  136.9580 C   0  0  0  0  0  2  0  0  0  0  0  0
  183.9470  179.0320  141.0020 O   0  0  0  0  0  0  0  0  0  0  0  0
  181.6340  176.1310  139.8670 C   0  0  0  0  0  2  0  0  0  0  0  0
  180.3810  176.8880  140.2240 C   0  0  2  0  0  3  0  0  0  0  0  0
  181.5440  178.9000  141.0670 C   0  0  0  0  0  2  0  0  0  0  0  0
  182.8190  177.0860  139.8820 C   0  0  0  0  0  2  0  0  0  0  0  0
  182.8510  178.1430  140.9800 C   0  0  1  0  0  3  0  0  0  0  0  0
  180.3860  177.9470  141.3170 C   0  0  0  0  0  2  0  0  0  0  0  0
  179.0020  175.3690  141.2880 O   0  0  0  0  0  1  0  0  0  0  0  0
  179.1310  176.1220  140.1270 C   0  0  0  0  0  2  0  0  0  0  0  0
  1  6  1  0  0  0  0
  2 11  1  0  0  0  0
  2 12  1  0  0  0  0
  3 10  1  0  0  0  0
  4  8  2  0  0  0  0
  5  1  2  0  0  0  0
  7  9  2  0  0  0  0
  7  4  1  0  0  0  0
  8  1  1  0  0  0  0
  9  5  1  0  0  0  0
 10 11  2  0  0  0  0
 11  7  1  0  0  0  0
 12 15  2  0  0  0  0
 13  2  2  0  0  0  0
 14  3  2  0  0  0  0
 14 13  1  0  0  0  0
 15  4  1  0  0  0  0
 16 18  1  0  0  0  0
 16  3  1  1  0  0  0
 17 16  1  0  0  0  0
 19 21  1  6  0  0  0
 19 17  1  0  0  0  0
 19 20  1  0  0  0  0
 20 18  1  0  0  0  0
 22 21  1  0  0  0  0
 23 27  1  0  0  0  0
 23 25  1  0  0  0  0
 24 22  1  0  0  0  0
 25 26  1  1  0  0  0
 25 22  1  0  0  0  0
 27 24  1  0  0  0  0
 28 25  1  0  0  0  0
 28 29  1  0  0  0  0
 29 34  1  0  0  0  0
 30 34  1  0  0  0  0
 30 32  1  0  0  0  0
 32 31  1  0  0  0  0
 33 29  1  0  0  0  0
 33 31  1  0  0  0  0
 35 13  1  0  0  0  0
 36 39  1  0  0  0  0
 36 37  1  0  0  0  0
 37 43  1  1  0  0  0
 37 41  1  0  0  0  0
 38 41  1  0  0  0  0
 39 40  1  0  0  0  0
 40 35  1  6  0  0  0
 40 38  1  0  0  0  0
 43 42  1  0  0  0  0
M  END
>  <MODEL>
4

>  <REMARK>
 VINA RESULT:     -10.1      2.975      5.085
  Name = 
  8 active torsions:
  status: ('A' for Active; 'I' for Inactive)
    1  A    between atoms: O_1  and  C_34
    2  A    between atoms: O_1  and  C_35
    3  A    between atoms: C_2  and  C_13
    4  A    between atoms: C_3  and  N_4
    5  A    between atoms: C_3  and  C_12
    6  A    between atoms: N_11  and  C_14
    7  A    between atoms: C_14  and  C_22
    8  A    between atoms: C_19  and  C_37
                            x       y       z     vdW  Elec       q    Type
                         _______ _______ _______ _____ _____    ______ ____

>  <TORSDO>
F 8

$$$$
=
 OpenBabel11052416173D

 43 49  0  0  1  0  0  0  0  0999 V2000
  180.9820  178.9890  142.1550 C   0  0  0  0  0  0  0  0  0  0  0  0
  185.7810  178.4610  143.9770 C   0  0  0  0  0  0  0  0  0  0  0  0
  187.4070  178.1290  141.6130 C   0  0  0  0  0  0  0  0  0  0  0  0
  182.9440  178.8650  143.6150 C   0  0  0  0  0  0  0  0  0  0  0  0
  181.7930  178.6830  141.0700 C   0  0  0  0  0  3  0  0  0  0  0  0
  179.5120  179.0400  142.0190 C   0  0  0  0  0  1  0  0  0  0  0  0
  183.8050  178.6100  142.4930 C   0  0  0  0  0  0  0  0  0  0  0  0
  181.5950  179.0700  143.4310 C   0  0  0  0  0  3  0  0  0  0  0  0
  183.1540  178.5120  141.2330 C   0  0  0  0  0  3  0  0  0  0  0  0
  186.0350  178.3810  141.5080 C   0  0  0  0  0  3  0  0  0  0  0  0
  185.1890  178.4940  142.6420 C   0  0  0  0  0  0  0  0  0  0  0  0
  184.9100  178.5630  145.0770 C   0  0  0  0  0  3  0  0  0  0  0  0
  187.2090  178.3490  144.0590 C   0  0  0  0  0  0  0  0  0  0  0  0
  188.0090  178.0850  142.9390 C   0  0  0  0  0  3  0  0  0  0  0  0
  183.5230  178.7680  144.9170 C   0  0  0  0  0  3  0  0  0  0  0  0
  188.1480  178.2130  140.2240 C   0  0  2  0  0  3  0  0  0  0  0  0
  187.4610  177.5800  139.1570 O   0  0  0  0  0  0  0  0  0  0  0  0
  189.6190  177.8370  140.1410 C   0  0  0  0  0  2  0  0  0  0  0  0
  188.4160  176.9360  138.3240 C   0  0  2  0  0  3  0  0  0  0  0  0
  189.7840  177.5310  138.6400 C   0  0  0  0  0  2  0  0  0  0  0  0
  187.8540  176.6090  136.9040 C   0  0  0  0  0  2  0  0  0  0  0  0
  187.5140  175.2010  136.7620 N   0  0  0  0  0  0  0  0  0  0  0  0
  186.7540  174.5090  134.6430 C   0  0  0  0  0  2  0  0  0  0  0  0
  188.5940  174.4210  136.1320 C   0  0  0  0  0  2  0  0  0  0  0  0
  186.2890  174.8810  136.0030 C   0  0  1  0  0  0  0  0  0  0  0  0
  185.7240  173.7590  136.5860 O   0  0  0  0  0  1  0  0  0  0  0  0
  188.0840  173.8150  134.8410 C   0  0  0  0  0  2  0  0  0  0  0  0
  185.2240  175.9970  135.9940 C   0  0  0  0  0  2  0  0  0  0  0  0
  184.1890  175.8400  137.0340 N   0  0  0  0  0  0  0  0  0  0  0  0
  182.9130  177.9160  137.4620 C   0  0  0  0  0  2  0  0  0  0  0  0
  181.7110  175.9050  137.3060 C   0  0  0  0  0  2  0  0  0  0  0  0
  181.7720  177.2090  137.9040 O   0  0  0  0  0  0  0  0  0  0  0  0
  182.8980  175.6560  136.3410 C   0  0  0  0  0  2  0  0  0  0  0  0
  184.1340  177.0730  137.8630 C   0  0  0  0  0  2  0  0  0  0  0  0
  187.7400  178.2430  145.4310 O   0  0  0  0  0  0  0  0  0  0  0  0
  189.9890  176.0010  147.6590 C   0  0  0  0  0  2  0  0  0  0  0  0
  191.2470  176.4180  146.9420 C   0  0  2  0  0  3  0  0  0  0  0  0
  190.1220  177.9140  145.3270 C   0  0  0  0  0  2  0  0  0  0  0  0
  188.8530  176.9330  147.2630 C   0  0  0  0  0  2  0  0  0  0  0  0
  188.7910  177.3800  145.8070 C   0  0  1  0  0  3  0  0  0  0  0  0
  191.2120  176.8660  145.4880 C   0  0  0  0  0  2  0  0  0  0  0  0
  192.9870  176.2910  148.4590 O   0  0  0  0  0  1  0  0  0  0  0  0
  192.4630  175.6860  147.3220 C   0  0  0  0  0  2  0  0  0  0  0  0
  1  8  1  0  0  0  0
  2 13  1  0  0  0  0
  2 12  1  0  0  0  0
  3 14  1  0  0  0  0
  4 15  1  0  0  0  0
  5  9  1  0  0  0  0
  5  1  2  0  0  0  0
  6  1  1  0  0  0  0
  7 11  1  0  0  0  0
  7  4  1  0  0  0  0
  8  4  2  0  0  0  0
  9  7  2  0  0  0  0
 10  3  2  0  0  0  0
 10 11  1  0  0  0  0
 11  2  2  0  0  0  0
 13 35  1  0  0  0  0
 14 13  2  0  0  0  0
 15 12  2  0  0  0  0
 16  3  1  1  0  0  0
 17 16  1  0  0  0  0
 18 16  1  0  0  0  0
 19 21  1  6  0  0  0
 19 20  1  0  0  0  0
 19 17  1  0  0  0  0
 20 18  1  0  0  0  0
 22 21  1  0  0  0  0
 23 27  1  0  0  0  0
 23 25  1  0  0  0  0
 24 22  1  0  0  0  0
 25 26  1  1  0  0  0
 25 22  1  0  0  0  0
 27 24  1  0  0  0  0
 28 25  1  0  0  0  0
 28 29  1  0  0  0  0
 29 34  1  0  0  0  0
 30 34  1  0  0  0  0
 30 32  1  0  0  0  0
 31 32  1  0  0  0  0
 33 29  1  0  0  0  0
 33 31  1  0  0  0  0
 37 43  1  6  0  0  0
 37 36  1  0  0  0  0
 38 41  1  0  0  0  0
 38 40  1  0  0  0  0
 39 36  1  0  0  0  0
 40 35  1  1  0  0  0
 40 39  1  0  0  0  0
 41 37  1  0  0  0  0
 43 42  1  0  0  0  0
M  END
>  <MODEL>
5

>  <REMARK>
 VINA RESULT:     -10.0      3.623      8.475
  Name = 
  8 active torsions:
  status: ('A' for Active; 'I' for Inactive)
    1  A    between atoms: O_1  and  C_34
    2  A    between atoms: O_1  and  C_35
    3  A    between atoms: C_2  and  C_13
    4  A    between atoms: C_3  and  N_4
    5  A    between atoms: C_3  and  C_12
    6  A    between atoms: N_11  and  C_14
    7  A    between atoms: C_14  and  C_22
    8  A    between atoms: C_19  and  C_37
                            x       y       z     vdW  Elec       q    Type
                         _______ _______ _______ _____ _____    ______ ____

>  <TORSDO>
F 8

$$$$
=
 OpenBabel11052416173D

 43 49  0  0  1  0  0  0  0  0999 V2000
  191.2610  176.3990  146.9430 C   0  0  0  0  0  0  0  0  0  0  0  0
  187.1430  178.0440  144.3030 C   0  0  0  0  0  0  0  0  0  0  0  0
  188.0800  178.2520  141.5800 C   0  0  0  0  0  0  0  0  0  0  0  0
  189.0040  177.1020  146.3010 C   0  0  0  0  0  0  0  0  0  0  0  0
  191.6890  176.6550  145.6470 C   0  0  0  0  0  3  0  0  0  0  0  0
  192.2230  176.0740  148.0150 C   0  0  0  0  0  1  0  0  0  0  0  0
  189.4190  177.3110  144.9410 C   0  0  0  0  0  0  0  0  0  0  0  0
  189.8950  176.6390  147.2430 C   0  0  0  0  0  3  0  0  0  0  0  0
  190.7990  177.0840  144.6810 C   0  0  0  0  0  3  0  0  0  0  0  0
  188.9130  177.7540  142.5870 C   0  0  0  0  0  3  0  0  0  0  0  0
  188.5130  177.6880  143.9470 C   0  0  0  0  0  0  0  0  0  0  0  0
  186.7860  177.9770  145.6630 C   0  0  0  0  0  3  0  0  0  0  0  0
  186.2610  178.4120  143.2330 C   0  0  0  0  0  0  0  0  0  0  0  0
  186.7130  178.6200  141.9230 C   0  0  0  0  0  3  0  0  0  0  0  0
  187.6820  177.5130  146.6490 C   0  0  0  0  0  3  0  0  0  0  0  0
  188.6920  178.0670  140.1390 C   0  0  2  0  0  3  0  0  0  0  0  0
  188.0120  177.1180  139.3340 O   0  0  0  0  0  0  0  0  0  0  0  0
  190.1890  177.8430  139.9880 C   0  0  0  0  0  2  0  0  0  0  0  0
  188.9760  176.3950  138.5780 C   0  0  2  0  0  3  0  0  0  0  0  0
  190.2740  177.1940  138.5940 C   0  0  0  0  0  2  0  0  0  0  0  0
  188.3510  175.6660  137.3460 C   0  0  0  0  0  2  0  0  0  0  0  0
  187.9690  176.5960  136.2960 N   0  0  0  0  0  0  0  0  0  0  0  0
  186.3920  178.2480  136.8720 C   0  0  0  0  0  2  0  0  0  0  0  0
  188.6830  177.8830  136.3940 C   0  0  0  0  0  2  0  0  0  0  0  0
  186.5370  176.9370  136.1900 C   0  0  1  0  0  0  0  0  0  0  0  0
  186.2540  177.1170  134.8470 O   0  0  0  0  0  1  0  0  0  0  0  0
  187.6770  178.9970  136.5950 C   0  0  0  0  0  2  0  0  0  0  0  0
  185.5750  175.8620  136.7360 C   0  0  0  0  0  2  0  0  0  0  0  0
  185.0450  174.9560  135.6990 N   0  0  0  0  0  0  0  0  0  0  0  0
  184.8660  172.6060  136.4550 C   0  0  0  0  0  2  0  0  0  0  0  0
  183.0680  173.5060  135.2400 C   0  0  0  0  0  2  0  0  0  0  0  0
  183.8170  172.3200  135.5510 O   0  0  0  0  0  0  0  0  0  0  0  0
  183.6120  174.7470  135.9930 C   0  0  0  0  0  2  0  0  0  0  0  0
  185.7600  173.6540  135.7720 C   0  0  0  0  0  2  0  0  0  0  0  0
  184.9150  178.8360  143.6630 O   0  0  0  0  0  0  0  0  0  0  0  0
  182.4080  178.1180  140.7910 C   0  0  0  0  0  2  0  0  0  0  0  0
  181.2330  178.6240  141.5860 C   0  0  2  0  0  3  0  0  0  0  0  0
  182.5320  179.1680  143.6180 C   0  0  0  0  0  2  0  0  0  0  0  0
  183.6990  178.5250  141.4860 C   0  0  0  0  0  2  0  0  0  0  0  0
  183.7220  178.4610  143.0100 C   0  0  1  0  0  3  0  0  0  0  0  0
  181.2310  178.5690  143.1070 C   0  0  0  0  0  2  0  0  0  0  0  0
  179.9530  177.2060  140.2850 O   0  0  0  0  0  1  0  0  0  0  0  0
  179.9160  178.4150  140.9690 C   0  0  0  0  0  2  0  0  0  0  0  0
  1  8  1  0  0  0  0
  1  6  1  0  0  0  0
  2 12  1  0  0  0  0
  3 14  2  0  0  0  0
  3 10  1  0  0  0  0
  4 15  1  0  0  0  0
  4  8  2  0  0  0  0
  5  1  2  0  0  0  0
  7  4  1  0  0  0  0
  9  7  2  0  0  0  0
  9  5  1  0  0  0  0
 10 11  2  0  0  0  0
 11  2  1  0  0  0  0
 11  7  1  0  0  0  0
 12 15  2  0  0  0  0
 13 35  1  0  0  0  0
 13  2  2  0  0  0  0
 14 13  1  0  0  0  0
 16  3  1  1  0  0  0
 17 16  1  0  0  0  0
 18 16  1  0  0  0  0
 19 21  1  6  0  0  0
 19 20  1  0  0  0  0
 19 17  1  0  0  0  0
 20 18  1  0  0  0  0
 22 24  1  0  0  0  0
 22 21  1  0  0  0  0
 24 27  1  0  0  0  0
 25 26  1  6  0  0  0
 25 22  1  0  0  0  0
 25 28  1  0  0  0  0
 25 23  1  0  0  0  0
 27 23  1  0  0  0  0
 29 34  1  0  0  0  0
 29 33  1  0  0  0  0
 29 28  1  0  0  0  0
 31 32  1  0  0  0  0
 31 33  1  0  0  0  0
 32 30  1  0  0  0  0
 34 30  1  0  0  0  0
 36 39  1  0  0  0  0
 36 37  1  0  0  0  0
 37 43  1  6  0  0  0
 37 41  1  0  0  0  0
 39 40  1  0  0  0  0
 40 38  1  0  0  0  0
 40 35  1  1  0  0  0
 41 38  1  0  0  0  0
 42 43  1  0  0  0  0
M  END
>  <MODEL>
6

>  <REMARK>
 VINA RESULT:      -9.6      3.285      5.192
  Name = 
  8 active torsions:
  status: ('A' for Active; 'I' for Inactive)
    1  A    between atoms: O_1  and  C_34
    2  A    between atoms: O_1  and  C_35
    3  A    between atoms: C_2  and  C_13
    4  A    between atoms: C_3  and  N_4
    5  A    between atoms: C_3  and  C_12
    6  A    between atoms: N_11  and  C_14
    7  A    between atoms: C_14  and  C_22
    8  A    between atoms: C_19  and  C_37
                            x       y       z     vdW  Elec       q    Type
                         _______ _______ _______ _____ _____    ______ ____

>  <TORSDO>
F 8

$$$$
=
 OpenBabel11052416173D

 43 49  0  0  1  0  0  0  0  0999 V2000
  184.7630  178.5140  145.2880 C   0  0  0  0  0  0  0  0  0  0  0  0
  182.4620  178.8290  140.6810 C   0  0  0  0  0  0  0  0  0  0  0  0
  184.5890  178.3460  138.7880 C   0  0  0  0  0  0  0  0  0  0  0  0
  183.1120  178.7320  143.4930 C   0  0  0  0  0  0  0  0  0  0  0  0
  185.7650  178.4310  144.3310 C   0  0  0  0  0  3  0  0  0  0  0  0
  185.0870  178.6280  146.7250 C   0  0  0  0  0  1  0  0  0  0  0  0
  184.1310  178.5840  142.4910 C   0  0  0  0  0  0  0  0  0  0  0  0
  183.4300  178.6690  144.8310 C   0  0  0  0  0  3  0  0  0  0  0  0
  185.4590  178.4530  142.9840 C   0  0  0  0  0  3  0  0  0  0  0  0
  184.8230  178.2620  140.1650 C   0  0  0  0  0  3  0  0  0  0  0  0
  183.8220  178.5470  141.1290 C   0  0  0  0  0  0  0  0  0  0  0  0
  181.4990  179.1190  141.6650 C   0  0  0  0  0  3  0  0  0  0  0  0
  182.2090  178.7650  139.2700 C   0  0  0  0  0  0  0  0  0  0  0  0
  183.2380  178.6350  138.3260 C   0  0  0  0  0  3  0  0  0  0  0  0
  181.7990  179.0690  143.0430 C   0  0  0  0  0  3  0  0  0  0  0  0
  185.8050  177.8230  137.9320 C   0  0  2  0  0  3  0  0  0  0  0  0
  187.0470  178.4270  138.2540 O   0  0  0  0  0  0  0  0  0  0  0  0
  185.6780  177.7610  136.4180 C   0  0  0  0  0  2  0  0  0  0  0  0
  187.7760  178.6290  137.0500 C   0  0  2  0  0  3  0  0  0  0  0  0
  187.1530  177.7450  135.9760 C   0  0  0  0  0  2  0  0  0  0  0  0
  189.3030  178.8480  137.3000 C   0  0  0  0  0  2  0  0  0  0  0  0
  190.0560  177.6070  137.2090 N   0  0  0  0  0  0  0  0  0  0  0  0
  189.1630  175.7470  138.3440 C   0  0  0  0  0  2  0  0  0  0  0  0
  189.5060  176.6860  136.1970 C   0  0  0  0  0  2  0  0  0  0  0  0
  190.1910  176.8130  138.4460 C   0  0  1  0  0  0  0  0  0  0  0  0
  191.4380  176.2120  138.4160 O   0  0  0  0  0  1  0  0  0  0  0  0
  189.0760  175.4010  136.8740 C   0  0  0  0  0  2  0  0  0  0  0  0
  190.0900  177.6280  139.7510 C   0  0  0  0  0  2  0  0  0  0  0  0
  190.0350  176.7980  140.9690 N   0  0  0  0  0  0  0  0  0  0  0  0
  190.7230  178.0130  143.0120 C   0  0  0  0  0  2  0  0  0  0  0  0
  188.8180  176.6450  143.1400 C   0  0  0  0  0  2  0  0  0  0  0  0
  189.9410  177.1880  143.8530 O   0  0  0  0  0  0  0  0  0  0  0  0
  188.7780  177.1300  141.6690 C   0  0  0  0  0  2  0  0  0  0  0  0
  191.1910  177.1300  141.8440 C   0  0  0  0  0  2  0  0  0  0  0  0
  180.8380  179.1360  138.8730 O   0  0  0  0  0  0  0  0  0  0  0  0
  180.3920  181.3740  135.7350 C   0  0  0  0  0  2  0  0  0  0  0  0
  180.8040  182.6220  136.4720 C   0  0  2  0  0  3  0  0  0  0  0  0
  181.1520  181.5120  138.6540 C   0  0  0  0  0  2  0  0  0  0  0  0
  180.7390  180.1550  136.5780 C   0  0  0  0  0  2  0  0  0  0  0  0
  180.5210  180.2610  138.0840 C   0  0  1  0  0  3  0  0  0  0  0  0
  180.5960  182.7540  137.9740 C   0  0  0  0  0  2  0  0  0  0  0  0
  181.5550  184.7960  136.2410 O   0  0  0  0  0  1  0  0  0  0  0  0
  180.6480  183.8770  135.7250 C   0  0  0  0  0  2  0  0  0  0  0  0
  1  6  1  0  0  0  0
  2 11  1  0  0  0  0
  2 12  1  0  0  0  0
  3 10  1  0  0  0  0
  4  8  2  0  0  0  0
  5  1  2  0  0  0  0
  7  9  2  0  0  0  0
  7  4  1  0  0  0  0
  8  1  1  0  0  0  0
  9  5  1  0  0  0  0
 10 11  2  0  0  0  0
 11  7  1  0  0  0  0
 12 15  2  0  0  0  0
 13  2  2  0  0  0  0
 14  3  2  0  0  0  0
 14 13  1  0  0  0  0
 15  4  1  0  0  0  0
 16 17  1  0  0  0  0
 16  3  1  6  0  0  0
 18 16  1  0  0  0  0
 19 21  1  1  0  0  0
 19 17  1  0  0  0  0
 20 18  1  0  0  0  0
 20 19  1  0  0  0  0
 22 21  1  0  0  0  0
 22 25  1  0  0  0  0
 23 25  1  0  0  0  0
 24 27  1  0  0  0  0
 24 22  1  0  0  0  0
 25 26  1  6  0  0  0
 25 28  1  0  0  0  0
 27 23  1  0  0  0  0
 28 29  1  0  0  0  0
 29 33  1  0  0  0  0
 29 34  1  0  0  0  0
 30 32  1  0  0  0  0
 31 32  1  0  0  0  0
 33 31  1  0  0  0  0
 34 30  1  0  0  0  0
 35 13  1  0  0  0  0
 36 37  1  0  0  0  0
 36 39  1  0  0  0  0
 37 43  1  6  0  0  0
 37 41  1  0  0  0  0
 39 40  1  0  0  0  0
 40 38  1  0  0  0  0
 40 35  1  1  0  0  0
 41 38  1  0  0  0  0
 43 42  1  0  0  0  0
M  END
>  <MODEL>
7

>  <REMARK>
 VINA RESULT:      -9.4      3.469      6.236
  Name = 
  8 active torsions:
  status: ('A' for Active; 'I' for Inactive)
    1  A    between atoms: O_1  and  C_34
    2  A    between atoms: O_1  and  C_35
    3  A    between atoms: C_2  and  C_13
    4  A    between atoms: C_3  and  N_4
    5  A    between atoms: C_3  and  C_12
    6  A    between atoms: N_11  and  C_14
    7  A    between atoms: C_14  and  C_22
    8  A    between atoms: C_19  and  C_37
                            x       y       z     vdW  Elec       q    Type
                         _______ _______ _______ _____ _____    ______ ____

>  <TORSDO>
F 8

$$$$
=
 OpenBabel11052416173D

 43 49  0  0  1  0  0  0  0  0999 V2000
  187.9610  177.5640  147.0550 C   0  0  0  0  0  0  0  0  0  0  0  0
  185.6020  178.5250  142.5670 C   0  0  0  0  0  0  0  0  0  0  0  0
  187.6920  178.2540  140.5930 C   0  0  0  0  0  0  0  0  0  0  0  0
  186.2890  178.0470  145.3320 C   0  0  0  0  0  0  0  0  0  0  0  0
  188.9470  177.5880  146.0790 C   0  0  0  0  0  3  0  0  0  0  0  0
  188.3070  177.4830  148.4890 C   0  0  0  0  0  1  0  0  0  0  0  0
  187.2910  178.0130  144.3020 C   0  0  0  0  0  0  0  0  0  0  0  0
  186.6240  177.8040  146.6450 C   0  0  0  0  0  3  0  0  0  0  0  0
  188.6220  177.7930  144.7520 C   0  0  0  0  0  3  0  0  0  0  0  0
  187.9440  177.9850  141.9420 C   0  0  0  0  0  3  0  0  0  0  0  0
  186.9620  178.1610  142.9530 C   0  0  0  0  0  0  0  0  0  0  0  0
  184.6600  178.7020  143.5970 C   0  0  0  0  0  3  0  0  0  0  0  0
  185.3290  178.6520  141.1650 C   0  0  0  0  0  0  0  0  0  0  0  0
  186.3410  178.6270  140.1950 C   0  0  0  0  0  3  0  0  0  0  0  0
  184.9780  178.4660  144.9510 C   0  0  0  0  0  3  0  0  0  0  0  0
  188.8850  177.8250  139.6560 C   0  0  2  0  0  3  0  0  0  0  0  0
  188.4920  177.0800  138.5150 O   0  0  0  0  0  0  0  0  0  0  0  0
  190.1100  177.1610  140.2660 C   0  0  0  0  0  2  0  0  0  0  0  0
  189.4620  176.0680  138.2810 C   0  0  2  0  0  3  0  0  0  0  0  0
  190.7240  176.4470  139.0470 C   0  0  0  0  0  2  0  0  0  0  0  0
  189.3970  175.4950  136.8290 C   0  0  0  0  0  2  0  0  0  0  0  0
  189.6550  174.0640  136.7930 N   0  0  0  0  0  0  0  0  0  0  0  0
  189.8550  173.0810  134.6620 C   0  0  0  0  0  2  0  0  0  0  0  0
  191.0800  173.7540  136.5740 C   0  0  0  0  0  2  0  0  0  0  0  0
  188.9120  173.2730  135.7930 C   0  0  1  0  0  0  0  0  0  0  0  0
  188.6570  172.0330  136.3550 O   0  0  0  0  0  1  0  0  0  0  0  0
  191.2270  172.9670  135.2890 C   0  0  0  0  0  2  0  0  0  0  0  0
  187.5640  173.8830  135.3600 C   0  0  0  0  0  2  0  0  0  0  0  0
  186.3890  173.1980  135.9320 N   0  0  0  0  0  0  0  0  0  0  0  0
  184.7880  174.7440  137.0120 C   0  0  0  0  0  2  0  0  0  0  0  0
  183.9170  173.0490  135.6400 C   0  0  0  0  0  2  0  0  0  0  0  0
  183.6920  173.8790  136.7900 O   0  0  0  0  0  0  0  0  0  0  0  0
  185.2810  173.3500  134.9680 C   0  0  0  0  0  2  0  0  0  0  0  0
  186.0190  173.8480  137.2180 C   0  0  0  0  0  2  0  0  0  0  0  0
  183.9600  179.0970  140.8420 O   0  0  0  0  0  0  0  0  0  0  0  0
  181.7100  179.9270  137.7930 C   0  0  0  0  0  2  0  0  0  0  0  0
  181.4890  178.4730  137.4630 C   0  0  2  0  0  3  0  0  0  0  0  0
  182.8950  177.5920  139.2960 C   0  0  0  0  0  2  0  0  0  0  0  0
  182.3300  180.0390  139.1780 C   0  0  0  0  0  2  0  0  0  0  0  0
  183.3790  179.0000  139.5600 C   0  0  1  0  0  3  0  0  0  0  0  0
  182.5210  177.4170  137.8320 C   0  0  0  0  0  2  0  0  0  0  0  0
  181.4890  177.2430  135.5050 O   0  0  0  0  0  1  0  0  0  0  0  0
  180.7780  178.2120  136.2040 C   0  0  0  0  0  2  0  0  0  0  0  0
  1  6  1  0  0  0  0
  2 11  1  0  0  0  0
  2 12  1  0  0  0  0
  3 10  1  0  0  0  0
  4  8  2  0  0  0  0
  5  1  2  0  0  0  0
  7  9  2  0  0  0  0
  7  4  1  0  0  0  0
  8  1  1  0  0  0  0
  9  5  1  0  0  0  0
 10 11  2  0  0  0  0
 11  7  1  0  0  0  0
 12 15  2  0  0  0  0
 13  2  2  0  0  0  0
 14  3  2  0  0  0  0
 14 13  1  0  0  0  0
 15  4  1  0  0  0  0
 16 18  1  0  0  0  0
 16  3  1  1  0  0  0
 17 16  1  0  0  0  0
 19 21  1  6  0  0  0
 19 17  1  0  0  0  0
 19 20  1  0  0  0  0
 20 18  1  0  0  0  0
 22 21  1  0  0  0  0
 23 27  1  0  0  0  0
 23 25  1  0  0  0  0
 24 22  1  0  0  0  0
 25 26  1  1  0  0  0
 25 22  1  0  0  0  0
 27 24  1  0  0  0  0
 28 25  1  0  0  0  0
 28 29  1  0  0  0  0
 29 34  1  0  0  0  0
 30 34  1  0  0  0  0
 31 32  1  0  0  0  0
 32 30  1  0  0  0  0
 33 31  1  0  0  0  0
 33 29  1  0  0  0  0
 35 13  1  0  0  0  0
 36 39  1  0  0  0  0
 37 43  1  6  0  0  0
 37 36  1  0  0  0  0
 37 41  1  0  0  0  0
 38 40  1  0  0  0  0
 39 40  1  0  0  0  0
 40 35  1  1  0  0  0
 41 38  1  0  0  0  0
 42 43  1  0  0  0  0
M  END
>  <MODEL>
8

>  <REMARK>
 VINA RESULT:      -9.4      3.192      5.427
  Name = 
  8 active torsions:
  status: ('A' for Active; 'I' for Inactive)
    1  A    between atoms: O_1  and  C_34
    2  A    between atoms: O_1  and  C_35
    3  A    between atoms: C_2  and  C_13
    4  A    between atoms: C_3  and  N_4
    5  A    between atoms: C_3  and  C_12
    6  A    between atoms: N_11  and  C_14
    7  A    between atoms: C_14  and  C_22
    8  A    between atoms: C_19  and  C_37
                            x       y       z     vdW  Elec       q    Type
                         _______ _______ _______ _____ _____    ______ ____

>  <TORSDO>
F 8

$$$$
=
 OpenBabel11052416173D

 43 49  0  0  1  0  0  0  0  0999 V2000
  188.5550  177.5110  145.3840 C   0  0  0  0  0  0  0  0  0  0  0  0
  190.9420  177.1270  140.8260 C   0  0  0  0  0  0  0  0  0  0  0  0
  188.8310  177.4670  138.8860 C   0  0  0  0  0  0  0  0  0  0  0  0
  190.2420  177.2950  143.6230 C   0  0  0  0  0  0  0  0  0  0  0  0
  187.5660  177.5240  144.4090 C   0  0  0  0  0  3  0  0  0  0  0  0
  188.2110  177.4330  146.8190 C   0  0  0  0  0  1  0  0  0  0  0  0
  189.2350  177.3710  142.6010 C   0  0  0  0  0  0  0  0  0  0  0  0
  189.9010  177.3900  144.9530 C   0  0  0  0  0  3  0  0  0  0  0  0
  187.8960  177.4680  143.0690 C   0  0  0  0  0  3  0  0  0  0  0  0
  188.5710  177.5880  140.2550 C   0  0  0  0  0  3  0  0  0  0  0  0
  189.5650  177.3730  141.2440 C   0  0  0  0  0  0  0  0  0  0  0  0
  191.8980  176.9060  141.8350 C   0  0  0  0  0  3  0  0  0  0  0  0
  191.2160  177.1520  139.4180 C   0  0  0  0  0  0  0  0  0  0  0  0
  190.1990  177.2120  138.4550 C   0  0  0  0  0  3  0  0  0  0  0  0
  191.5740  176.9910  143.2050 C   0  0  0  0  0  3  0  0  0  0  0  0
  187.6110  177.9150  137.9930 C   0  0  2  0  0  3  0  0  0  0  0  0
  186.4640  178.3090  138.7290 O   0  0  0  0  0  0  0  0  0  0  0  0
  187.1630  177.0260  136.8430 C   0  0  0  0  0  2  0  0  0  0  0  0
  185.3080  177.8430  138.0460 C   0  0  2  0  0  3  0  0  0  0  0  0
  185.7170  177.5040  136.6170 C   0  0  0  0  0  2  0  0  0  0  0  0
  184.0070  178.5870  138.4860 C   0  0  0  0  0  2  0  0  0  0  0  0
  182.8860  177.6760  138.6580 N   0  0  0  0  0  0  0  0  0  0  0  0
  180.7490  178.6510  138.8200 C   0  0  0  0  0  2  0  0  0  0  0  0
  182.1760  177.4110  137.3930 C   0  0  0  0  0  2  0  0  0  0  0  0
  181.8480  178.0670  139.6300 C   0  0  1  0  0  0  0  0  0  0  0  0
  181.3770  176.9050  140.2190 O   0  0  0  0  0  1  0  0  0  0  0  0
  180.7390  177.8730  137.5230 C   0  0  0  0  0  2  0  0  0  0  0  0
  182.3350  179.0030  140.7540 C   0  0  0  0  0  2  0  0  0  0  0  0
  182.7590  178.2960  141.9770 N   0  0  0  0  0  0  0  0  0  0  0  0
  184.6710  179.3770  143.1170 C   0  0  0  0  0  2  0  0  0  0  0  0
  182.8860  178.6270  144.4450 C   0  0  0  0  0  2  0  0  0  0  0  0
  184.3010  178.8630  144.3810 O   0  0  0  0  0  0  0  0  0  0  0  0
  182.1740  179.0160  143.1250 C   0  0  0  0  0  2  0  0  0  0  0  0
  184.2430  178.3310  142.0750 C   0  0  0  0  0  2  0  0  0  0  0  0
  192.6060  176.8200  139.0550 O   0  0  0  0  0  0  0  0  0  0  0  0
  192.3170  173.8680  136.5540 C   0  0  0  0  0  2  0  0  0  0  0  0
  193.7590  173.4710  136.7380 C   0  0  2  0  0  3  0  0  0  0  0  0
  194.3050  175.2710  138.3410 C   0  0  0  0  0  2  0  0  0  0  0  0
  191.9250  174.8560  137.6440 C   0  0  0  0  0  2  0  0  0  0  0  0
  192.9610  175.9000  138.0460 C   0  0  1  0  0  3  0  0  0  0  0  0
  194.8120  174.4940  137.1370 C   0  0  0  0  0  2  0  0  0  0  0  0
  193.5950  171.2380  136.1640 O   0  0  0  0  0  1  0  0  0  0  0  0
  194.2450  172.4210  135.8310 C   0  0  0  0  0  2  0  0  0  0  0  0
  1  6  1  0  0  0  0
  2 11  1  0  0  0  0
  2 12  1  0  0  0  0
  3 10  1  0  0  0  0
  4  8  2  0  0  0  0
  5  1  2  0  0  0  0
  7  9  2  0  0  0  0
  7  4  1  0  0  0  0
  8  1  1  0  0  0  0
  9  5  1  0  0  0  0
 10 11  2  0  0  0  0
 11  7  1  0  0  0  0
 12 15  2  0  0  0  0
 13  2  2  0  0  0  0
 14  3  2  0  0  0  0
 14 13  1  0  0  0  0
 15  4  1  0  0  0  0
 16 17  1  0  0  0  0
 16  3  1  1  0  0  0
 18 16  1  0  0  0  0
 19 21  1  6  0  0  0
 19 17  1  0  0  0  0
 20 18  1  0  0  0  0
 20 19  1  0  0  0  0
 21 22  1  0  0  0  0
 22 25  1  0  0  0  0
 23 25  1  0  0  0  0
 24 27  1  0  0  0  0
 24 22  1  0  0  0  0
 25 26  1  1  0  0  0
 25 28  1  0  0  0  0
 27 23  1  0  0  0  0
 28 29  1  0  0  0  0
 29 34  1  0  0  0  0
 29 33  1  0  0  0  0
 30 32  1  0  0  0  0
 32 31  1  0  0  0  0
 33 31  1  0  0  0  0
 34 30  1  0  0  0  0
 35 13  1  0  0  0  0
 36 37  1  0  0  0  0
 36 39  1  0  0  0  0
 37 43  1  6  0  0  0
 37 41  1  0  0  0  0
 39 40  1  0  0  0  0
 40 38  1  0  0  0  0
 40 35  1  1  0  0  0
 41 38  1  0  0  0  0
 43 42  1  0  0  0  0
M  END
>  <MODEL>
9

>  <REMARK>
 VINA RESULT:      -9.4      2.982      9.908
  Name = 
  8 active torsions:
  status: ('A' for Active; 'I' for Inactive)
    1  A    between atoms: O_1  and  C_34
    2  A    between atoms: O_1  and  C_35
    3  A    between atoms: C_2  and  C_13
    4  A    between atoms: C_3  and  N_4
    5  A    between atoms: C_3  and  C_12
    6  A    between atoms: N_11  and  C_14
    7  A    between atoms: C_14  and  C_22
    8  A    between atoms: C_19  and  C_37
                            x       y       z     vdW  Elec       q    Type
                         _______ _______ _______ _____ _____    ______ ____

>  <TORSDO>
F 8

$$$$
