=
 OpenBabel11052414393D

 32 36  0  0  0  0  0  0  0  0999 V2000
  186.2260  178.1500  144.2560 C   0  0  0  0  0  0  0  0  0  0  0  0
  186.6850  178.2870  141.4800 C   0  0  0  0  0  0  0  0  0  0  0  0
  186.0110  178.0500  145.6370 C   0  0  0  0  0  3  0  0  0  0  0  0
  185.1500  178.5230  143.3940 C   0  0  0  0  0  0  0  0  0  0  0  0
  184.3870  178.9550  141.0740 C   0  0  0  0  0  3  0  0  0  0  0  0
  188.3460  178.6740  138.1480 N   0  0  0  0  0  2  0  0  0  0  0  0
  185.3930  178.5920  141.9890 C   0  0  0  0  0  0  0  0  0  0  0  0
  186.1910  178.7380  137.8550 O   0  0  0  0  0  0  0  0  0  0  0  0
  185.8990  178.6960  139.2190 C   0  0  0  0  0  0  0  0  0  0  0  0
  183.8780  178.8030  143.9780 C   0  0  0  0  0  0  0  0  0  0  0  0
  184.6330  179.0090  139.7010 C   0  0  0  0  0  3  0  0  0  0  0  0
  183.7130  178.6970  145.3680 C   0  0  0  0  0  3  0  0  0  0  0  0
  187.7120  177.9310  142.3520 C   0  0  0  0  0  3  0  0  0  0  0  0
  187.5030  177.8680  143.7260 C   0  0  0  0  0  0  0  0  0  0  0  0
  186.9280  178.3530  140.0940 C   0  0  0  0  0  0  0  0  0  0  0  0
  184.7670  178.3210  146.1910 C   0  0  0  0  0  3  0  0  0  0  0  0
  187.3280  178.1760  137.3860 O   0  0  0  0  0  0  0  0  0  0  0  0
  188.2670  178.0550  139.4770 C   0  0  0  0  0  2  0  0  0  0  0  0
  190.8280  176.4700  144.9190 C   0  0  0  0  0  0  0  0  0  0  0  0
  191.9400  175.7960  144.4310 O   0  0  0  0  0  1  0  0  0  0  0  0
  188.6460  177.4900  144.5820 C   0  0  0  0  0  0  0  0  0  0  0  0
  190.7730  176.8080  146.2730 C   0  0  0  0  0  3  0  0  0  0  0  0
  188.6020  177.8150  145.9430 C   0  0  0  0  0  3  0  0  0  0  0  0
  189.7650  176.8040  144.0650 C   0  0  0  0  0  0  0  0  0  0  0  0
  189.8360  176.3220  142.3700 Cl  0  0  0  0  0  0  0  0  0  0  0  0
  189.6580  177.4800  146.7940 C   0  0  0  0  0  0  0  0  0  0  0  0
  188.3470  178.1630  148.7760 C   0  0  0  0  0  1  0  0  0  0  0  0
  189.5750  177.8260  148.1450 O   0  0  0  0  0  0  0  0  0  0  0  0
  182.7860  179.1840  143.1860 O   0  0  0  0  0  0  0  0  0  0  0  0
  181.4340  179.0010  143.5850 C   0  0  0  0  0  2  0  0  0  0  0  0
  180.5340  179.6410  142.5840 C   0  0  0  0  0  3  0  0  0  0  0  0
  180.0120  180.7140  142.8350 O   0  0  0  0  0  0  0  0  0  0  0  0
  1  3  2  0  0  0  0
  2  7  1  0  0  0  0
  2 13  1  0  0  0  0
  3 16  1  0  0  0  0
  4 10  2  0  0  0  0
  4  1  1  0  0  0  0
  5  7  2  0  0  0  0
  6 18  1  0  0  0  0
  7  4  1  0  0  0  0
  8  9  1  0  0  0  0
  9 11  2  0  0  0  0
  9 15  1  0  0  0  0
 10 12  1  0  0  0  0
 11  5  1  0  0  0  0
 12 16  2  0  0  0  0
 13 14  2  0  0  0  0
 14  1  1  0  0  0  0
 14 21  1  0  0  0  0
 15  2  2  0  0  0  0
 17  8  1  0  0  0  0
 17  6  1  0  0  0  0
 18 15  1  0  0  0  0
 19 22  1  0  0  0  0
 20 19  1  0  0  0  0
 21 23  2  0  0  0  0
 22 26  2  0  0  0  0
 23 26  1  0  0  0  0
 24 21  1  0  0  0  0
 24 19  2  0  0  0  0
 25 24  1  0  0  0  0
 26 28  1  0  0  0  0
 28 27  1  0  0  0  0
 29 30  1  0  0  0  0
 29 10  1  0  0  0  0
 31 32  2  0  0  0  0
 31 30  1  0  0  0  0
M  END
>  <MODEL>
1

>  <REMARK>
 VINA RESULT:     -10.8      0.000      0.000
  Name = 
  5 active torsions:
  status: ('A' for Active; 'I' for Inactive)
    1  A    between atoms: C_13  and  C_18
    2  A    between atoms: C_14  and  O_29
    3  A    between atoms: O_15  and  C_26
    4  A    between atoms: C_16  and  C_27
    5  A    between atoms: C_18  and  O_29
                            x       y       z     vdW  Elec       q    Type
                         _______ _______ _______ _____ _____    ______ ____

>  <TORSDO>
F 5

$$$$
=
 OpenBabel11052414393D

 32 36  0  0  0  0  0  0  0  0999 V2000
  188.1160  177.8940  142.8150 C   0  0  0  0  0  0  0  0  0  0  0  0
  185.3550  178.4170  143.0110 C   0  0  0  0  0  0  0  0  0  0  0  0
  189.4960  177.6580  142.7420 C   0  0  0  0  0  3  0  0  0  0  0  0
  187.3710  178.1370  141.6220 C   0  0  0  0  0  0  0  0  0  0  0  0
  185.1680  178.6440  140.6010 C   0  0  0  0  0  3  0  0  0  0  0  0
  181.8100  178.4960  144.2090 N   0  0  0  0  0  2  0  0  0  0  0  0
  185.9720  178.3980  141.7310 C   0  0  0  0  0  0  0  0  0  0  0  0
  181.8560  179.1940  142.1490 O   0  0  0  0  0  0  0  0  0  0  0  0
  183.2170  178.9350  141.9820 C   0  0  0  0  0  0  0  0  0  0  0  0
  188.0630  178.1140  140.3730 C   0  0  0  0  0  0  0  0  0  0  0  0
  183.8030  178.9090  140.7200 C   0  0  0  0  0  3  0  0  0  0  0  0
  189.4450  177.8660  140.3490 C   0  0  0  0  0  3  0  0  0  0  0  0
  186.1130  178.1700  144.1540 C   0  0  0  0  0  3  0  0  0  0  0  0
  187.4750  177.9010  144.0720 C   0  0  0  0  0  0  0  0  0  0  0  0
  183.9750  178.6760  143.1220 C   0  0  0  0  0  0  0  0  0  0  0  0
  190.1560  177.6430  141.5200 C   0  0  0  0  0  3  0  0  0  0  0  0
  181.3650  179.4820  143.3760 O   0  0  0  0  0  0  0  0  0  0  0  0
  183.2450  178.7030  144.4370 C   0  0  0  0  0  2  0  0  0  0  0  0
  188.3430  177.5950  147.7590 C   0  0  0  0  0  0  0  0  0  0  0  0
  187.7760  177.7980  149.0100 O   0  0  0  0  0  1  0  0  0  0  0  0
  188.2040  177.6430  145.3310 C   0  0  0  0  0  0  0  0  0  0  0  0
  189.6570  177.1310  147.6710 C   0  0  0  0  0  3  0  0  0  0  0  0
  189.5260  177.1850  145.2590 C   0  0  0  0  0  3  0  0  0  0  0  0
  187.6090  177.8590  146.5920 C   0  0  0  0  0  0  0  0  0  0  0  0
  185.9690  178.4920  146.7280 Cl  0  0  0  0  0  0  0  0  0  0  0  0
  190.2580  176.9250  146.4200 C   0  0  0  0  0  0  0  0  0  0  0  0
  192.2330  175.7590  147.3450 C   0  0  0  0  0  1  0  0  0  0  0  0
  191.5720  176.4650  146.3040 O   0  0  0  0  0  0  0  0  0  0  0  0
  187.3860  178.3360  139.1660 O   0  0  0  0  0  0  0  0  0  0  0  0
  187.7420  177.7000  137.9450 C   0  0  0  0  0  2  0  0  0  0  0  0
  188.1950  178.7290  136.9680 C   0  0  0  0  0  3  0  0  0  0  0  0
  188.9200  179.6380  137.3330 O   0  0  0  0  0  0  0  0  0  0  0  0
  1 14  1  0  0  0  0
  2 15  1  0  0  0  0
  2 13  1  0  0  0  0
  3  1  1  0  0  0  0
  4  7  1  0  0  0  0
  4  1  2  0  0  0  0
  5 11  2  0  0  0  0
  5  7  1  0  0  0  0
  6 18  1  0  0  0  0
  7  2  2  0  0  0  0
  8 17  1  0  0  0  0
  9  8  1  0  0  0  0
  9 15  2  0  0  0  0
 10  4  1  0  0  0  0
 11  9  1  0  0  0  0
 12 10  2  0  0  0  0
 12 16  1  0  0  0  0
 14 13  2  0  0  0  0
 14 21  1  0  0  0  0
 15 18  1  0  0  0  0
 16  3  2  0  0  0  0
 17  6  1  0  0  0  0
 19 20  1  0  0  0  0
 21 24  1  0  0  0  0
 22 19  1  0  0  0  0
 23 21  2  0  0  0  0
 23 26  1  0  0  0  0
 24 25  1  0  0  0  0
 24 19  2  0  0  0  0
 26 22  2  0  0  0  0
 28 26  1  0  0  0  0
 28 27  1  0  0  0  0
 29 10  1  0  0  0  0
 30 29  1  0  0  0  0
 31 32  2  0  0  0  0
 31 30  1  0  0  0  0
M  END
>  <MODEL>
2

>  <REMARK>
 VINA RESULT:     -10.6      2.351      5.370
  Name = 
  5 active torsions:
  status: ('A' for Active; 'I' for Inactive)
    1  A    between atoms: C_13  and  C_18
    2  A    between atoms: C_14  and  O_29
    3  A    between atoms: O_15  and  C_26
    4  A    between atoms: C_16  and  C_27
    5  A    between atoms: C_18  and  O_29
                            x       y       z     vdW  Elec       q    Type
                         _______ _______ _______ _____ _____    ______ ____

>  <TORSDO>
F 5

$$$$
=
 OpenBabel11052414393D

 32 36  0  0  0  0  0  0  0  0999 V2000
  189.4280  177.1950  142.9070 C   0  0  0  0  0  0  0  0  0  0  0  0
  186.9340  178.0170  143.9270 C   0  0  0  0  0  0  0  0  0  0  0  0
  190.6530  176.7640  142.3780 C   0  0  0  0  0  3  0  0  0  0  0  0
  189.2220  177.1890  144.3200 C   0  0  0  0  0  0  0  0  0  0  0  0
  187.6760  177.6360  146.2070 C   0  0  0  0  0  3  0  0  0  0  0  0
  183.6150  179.7000  144.3200 N   0  0  0  0  0  2  0  0  0  0  0  0
  187.9560  177.6100  144.8270 C   0  0  0  0  0  0  0  0  0  0  0  0
  184.1790  178.8350  146.2350 O   0  0  0  0  0  0  0  0  0  0  0  0
  185.4380  178.4230  145.7950 C   0  0  0  0  0  0  0  0  0  0  0  0
  190.2920  176.7550  145.1600 C   0  0  0  0  0  0  0  0  0  0  0  0
  186.4310  178.0390  146.6910 C   0  0  0  0  0  3  0  0  0  0  0  0
  191.5030  176.3390  144.5850 C   0  0  0  0  0  3  0  0  0  0  0  0
  187.1740  178.0150  142.5540 C   0  0  0  0  0  3  0  0  0  0  0  0
  188.4030  177.6210  142.0360 C   0  0  0  0  0  0  0  0  0  0  0  0
  185.6830  178.4320  144.4240 C   0  0  0  0  0  0  0  0  0  0  0  0
  191.6830  176.3410  143.2080 C   0  0  0  0  0  3  0  0  0  0  0  0
  183.1550  178.9410  145.3570 O   0  0  0  0  0  0  0  0  0  0  0  0
  184.5550  178.8870  143.5400 C   0  0  0  0  0  2  0  0  0  0  0  0
  187.7980  178.1890  138.3290 C   0  0  0  0  0  0  0  0  0  0  0  0
  186.8340  178.7010  137.4690 O   0  0  0  0  0  1  0  0  0  0  0  0
  188.5770  177.6540  140.5690 C   0  0  0  0  0  0  0  0  0  0  0  0
  188.9850  177.6780  137.7980 C   0  0  0  0  0  3  0  0  0  0  0  0
  189.7580  177.1380  140.0220 C   0  0  0  0  0  3  0  0  0  0  0  0
  187.5830  178.1760  139.7160 C   0  0  0  0  0  0  0  0  0  0  0  0
  186.0560  178.7800  140.3580 Cl  0  0  0  0  0  0  0  0  0  0  0  0
  189.9720  177.1480  138.6410 C   0  0  0  0  0  0  0  0  0  0  0  0
  192.4020  176.7320  138.8300 C   0  0  0  0  0  1  0  0  0  0  0  0
  191.1660  176.6270  138.1370 O   0  0  0  0  0  0  0  0  0  0  0  0
  190.1540  176.7350  146.5550 O   0  0  0  0  0  0  0  0  0  0  0  0
  191.2120  177.0600  147.4470 C   0  0  0  0  0  2  0  0  0  0  0  0
  192.0110  175.8350  147.7320 C   0  0  0  0  0  3  0  0  0  0  0  0
  193.0720  175.9260  148.3260 O   0  0  0  0  0  0  0  0  0  0  0  0
  1  4  1  0  0  0  0
  2 15  2  0  0  0  0
  2  7  1  0  0  0  0
  3  1  2  0  0  0  0
  3 16  1  0  0  0  0
  4  7  1  0  0  0  0
  4 10  2  0  0  0  0
  5 11  1  0  0  0  0
  6 17  1  0  0  0  0
  7  5  2  0  0  0  0
  9  8  1  0  0  0  0
  9 11  2  0  0  0  0
 10 29  1  0  0  0  0
 12 10  1  0  0  0  0
 13  2  1  0  0  0  0
 14 13  2  0  0  0  0
 14  1  1  0  0  0  0
 15  9  1  0  0  0  0
 16 12  2  0  0  0  0
 17  8  1  0  0  0  0
 18  6  1  0  0  0  0
 18 15  1  0  0  0  0
 19 24  1  0  0  0  0
 20 19  1  0  0  0  0
 21 14  1  0  0  0  0
 22 19  2  0  0  0  0
 22 26  1  0  0  0  0
 23 21  1  0  0  0  0
 24 25  1  0  0  0  0
 24 21  2  0  0  0  0
 26 23  2  0  0  0  0
 28 26  1  0  0  0  0
 28 27  1  0  0  0  0
 29 30  1  0  0  0  0
 30 31  1  0  0  0  0
 31 32  2  0  0  0  0
M  END
>  <MODEL>
3

>  <REMARK>
 VINA RESULT:     -10.4      2.480      7.620
  Name = 
  5 active torsions:
  status: ('A' for Active; 'I' for Inactive)
    1  A    between atoms: C_13  and  C_18
    2  A    between atoms: C_14  and  O_29
    3  A    between atoms: O_15  and  C_26
    4  A    between atoms: C_16  and  C_27
    5  A    between atoms: C_18  and  O_29
                            x       y       z     vdW  Elec       q    Type
                         _______ _______ _______ _____ _____    ______ ____

>  <TORSDO>
F 5

$$$$
=
 OpenBabel11052414393D

 32 36  0  0  0  0  0  0  0  0999 V2000
  188.0230  177.7570  143.6810 C   0  0  0  0  0  0  0  0  0  0  0  0
  189.6700  177.4570  141.4160 C   0  0  0  0  0  0  0  0  0  0  0  0
  187.2130  177.8750  144.8190 C   0  0  0  0  0  3  0  0  0  0  0  0
  187.4710  178.0000  142.3870 C   0  0  0  0  0  0  0  0  0  0  0  0
  187.8460  178.0710  139.9360 C   0  0  0  0  0  3  0  0  0  0  0  0
  192.6560  177.3080  139.1650 N   0  0  0  0  0  2  0  0  0  0  0  0
  188.3140  177.8480  141.2460 C   0  0  0  0  0  0  0  0  0  0  0  0
  190.8650  177.3420  137.9310 O   0  0  0  0  0  0  0  0  0  0  0  0
  189.9980  177.5150  139.0110 C   0  0  0  0  0  0  0  0  0  0  0  0
  186.0970  178.3770  142.2950 C   0  0  0  0  0  0  0  0  0  0  0  0
  188.6770  177.9090  138.8270 C   0  0  0  0  0  3  0  0  0  0  0  0
  185.3270  178.4900  143.4630 C   0  0  0  0  0  3  0  0  0  0  0  0
  190.1750  177.2330  142.6950 C   0  0  0  0  0  3  0  0  0  0  0  0
  189.3770  177.3870  143.8240 C   0  0  0  0  0  0  0  0  0  0  0  0
  190.5040  177.3040  140.2920 C   0  0  0  0  0  0  0  0  0  0  0  0
  185.8770  178.2390  144.7140 C   0  0  0  0  0  3  0  0  0  0  0  0
  192.0450  176.7050  138.1030 O   0  0  0  0  0  0  0  0  0  0  0  0
  191.9510  176.9050  140.3870 C   0  0  0  0  0  2  0  0  0  0  0  0
  191.6750  176.1090  146.5670 C   0  0  0  0  0  0  0  0  0  0  0  0
  192.7910  175.3000  146.7340 O   0  0  0  0  0  1  0  0  0  0  0  0
  189.9920  177.1380  145.1440 C   0  0  0  0  0  0  0  0  0  0  0  0
  191.0960  176.7150  147.6840 C   0  0  0  0  0  3  0  0  0  0  0  0
  189.4180  177.7330  146.2750 C   0  0  0  0  0  3  0  0  0  0  0  0
  191.1250  176.3110  145.2910 C   0  0  0  0  0  0  0  0  0  0  0  0
  191.8430  175.4940  143.9030 Cl  0  0  0  0  0  0  0  0  0  0  0  0
  189.9630  177.5300  147.5450 C   0  0  0  0  0  0  0  0  0  0  0  0
  187.9540  178.1720  148.8360 C   0  0  0  0  0  1  0  0  0  0  0  0
  189.3620  178.1450  148.6450 O   0  0  0  0  0  0  0  0  0  0  0  0
  185.5000  178.6380  141.0540 O   0  0  0  0  0  0  0  0  0  0  0  0
  184.1140  178.4450  140.8000 C   0  0  0  0  0  2  0  0  0  0  0  0
  183.6810  179.3610  139.7080 C   0  0  0  0  0  3  0  0  0  0  0  0
  184.5010  180.0630  139.1420 O   0  0  0  0  0  0  0  0  0  0  0  0
  1 14  1  0  0  0  0
  1  3  2  0  0  0  0
  2 13  1  0  0  0  0
  4  1  1  0  0  0  0
  5  7  2  0  0  0  0
  6 18  1  0  0  0  0
  7  2  1  0  0  0  0
  7  4  1  0  0  0  0
  8 17  1  0  0  0  0
  8  9  1  0  0  0  0
  9 15  1  0  0  0  0
 10  4  2  0  0  0  0
 10 12  1  0  0  0  0
 11  9  2  0  0  0  0
 11  5  1  0  0  0  0
 12 16  2  0  0  0  0
 13 14  2  0  0  0  0
 14 21  1  0  0  0  0
 15 18  1  0  0  0  0
 15  2  2  0  0  0  0
 16  3  1  0  0  0  0
 17  6  1  0  0  0  0
 19 20  1  0  0  0  0
 19 22  1  0  0  0  0
 21 24  1  0  0  0  0
 21 23  2  0  0  0  0
 23 26  1  0  0  0  0
 24 19  2  0  0  0  0
 25 24  1  0  0  0  0
 26 22  2  0  0  0  0
 26 28  1  0  0  0  0
 28 27  1  0  0  0  0
 29 10  1  0  0  0  0
 30 29  1  0  0  0  0
 31 30  1  0  0  0  0
 32 31  2  0  0  0  0
M  END
>  <MODEL>
4

>  <REMARK>
 VINA RESULT:     -10.1      2.240      3.148
  Name = 
  5 active torsions:
  status: ('A' for Active; 'I' for Inactive)
    1  A    between atoms: C_13  and  C_18
    2  A    between atoms: C_14  and  O_29
    3  A    between atoms: O_15  and  C_26
    4  A    between atoms: C_16  and  C_27
    5  A    between atoms: C_18  and  O_29
                            x       y       z     vdW  Elec       q    Type
                         _______ _______ _______ _____ _____    ______ ____

>  <TORSDO>
F 5

$$$$
=
 OpenBabel11052414393D

 32 36  0  0  0  0  0  0  0  0999 V2000
  186.0850  178.2320  144.3460 C   0  0  0  0  0  0  0  0  0  0  0  0
  187.9440  177.8400  142.2660 C   0  0  0  0  0  0  0  0  0  0  0  0
  185.1500  178.4570  145.3670 C   0  0  0  0  0  3  0  0  0  0  0  0
  187.4500  177.9730  144.6770 C   0  0  0  0  0  0  0  0  0  0  0  0
  189.7460  177.5110  143.8590 C   0  0  0  0  0  3  0  0  0  0  0  0
  189.4800  176.9790  138.9640 N   0  0  0  0  0  2  0  0  0  0  0  0
  188.3840  177.7730  143.6160 C   0  0  0  0  0  0  0  0  0  0  0  0
  191.0760  177.2300  140.4210 O   0  0  0  0  0  0  0  0  0  0  0  0
  190.2060  177.4080  141.4980 C   0  0  0  0  0  0  0  0  0  0  0  0
  187.8190  177.9340  146.0560 C   0  0  0  0  0  0  0  0  0  0  0  0
  190.6510  177.3270  142.8130 C   0  0  0  0  0  3  0  0  0  0  0  0
  186.8460  178.1570  147.0430 C   0  0  0  0  0  3  0  0  0  0  0  0
  186.6030  178.0900  141.9820 C   0  0  0  0  0  3  0  0  0  0  0  0
  185.6710  178.2760  142.9980 C   0  0  0  0  0  0  0  0  0  0  0  0
  188.8620  177.6450  141.2160 C   0  0  0  0  0  0  0  0  0  0  0  0
  185.5250  178.4190  146.7030 C   0  0  0  0  0  3  0  0  0  0  0  0
  190.6900  177.5760  139.1720 O   0  0  0  0  0  0  0  0  0  0  0  0
  188.4750  177.6890  139.7630 C   0  0  0  0  0  2  0  0  0  0  0  0
  182.5390  178.9200  140.9470 C   0  0  0  0  0  0  0  0  0  0  0  0
  182.1400  179.0730  139.6260 O   0  0  0  0  0  1  0  0  0  0  0  0
  184.2680  178.5290  142.6120 C   0  0  0  0  0  0  0  0  0  0  0  0
  181.5850  179.0080  141.9630 C   0  0  0  0  0  3  0  0  0  0  0  0
  183.3020  178.6280  143.6210 C   0  0  0  0  0  3  0  0  0  0  0  0
  183.8860  178.6840  141.2630 C   0  0  0  0  0  0  0  0  0  0  0  0
  185.0790  178.6270  139.9660 Cl  0  0  0  0  0  0  0  0  0  0  0  0
  181.9610  178.8650  143.3070 C   0  0  0  0  0  0  0  0  0  0  0  0
  179.6650  178.5840  144.1830 C   0  0  0  0  0  1  0  0  0  0  0  0
  181.0290  178.9530  144.3430 O   0  0  0  0  0  0  0  0  0  0  0  0
  189.1410  177.6750  146.4440 O   0  0  0  0  0  0  0  0  0  0  0  0
  189.4850  176.7530  147.4690 C   0  0  0  0  0  2  0  0  0  0  0  0
  190.9250  176.3910  147.3440 C   0  0  0  0  0  3  0  0  0  0  0  0
  191.6870  177.1280  146.7410 O   0  0  0  0  0  0  0  0  0  0  0  0
  1  4  1  0  0  0  0
  1  3  2  0  0  0  0
  2  7  1  0  0  0  0
  3 16  1  0  0  0  0
  4 10  2  0  0  0  0
  6 17  1  0  0  0  0
  6 18  1  0  0  0  0
  7  5  2  0  0  0  0
  7  4  1  0  0  0  0
  8  9  1  0  0  0  0
  9 11  2  0  0  0  0
 10 29  1  0  0  0  0
 10 12  1  0  0  0  0
 11  5  1  0  0  0  0
 13  2  1  0  0  0  0
 13 14  2  0  0  0  0
 14  1  1  0  0  0  0
 15  9  1  0  0  0  0
 15  2  2  0  0  0  0
 16 12  2  0  0  0  0
 17  8  1  0  0  0  0
 18 15  1  0  0  0  0
 19 24  2  0  0  0  0
 19 22  1  0  0  0  0
 20 19  1  0  0  0  0
 21 14  1  0  0  0  0
 21 23  2  0  0  0  0
 22 26  2  0  0  0  0
 24 21  1  0  0  0  0
 25 24  1  0  0  0  0
 26 23  1  0  0  0  0
 26 28  1  0  0  0  0
 27 28  1  0  0  0  0
 29 30  1  0  0  0  0
 31 30  1  0  0  0  0
 32 31  2  0  0  0  0
M  END
>  <MODEL>
5

>  <REMARK>
 VINA RESULT:     -10.1      2.052      6.620
  Name = 
  5 active torsions:
  status: ('A' for Active; 'I' for Inactive)
    1  A    between atoms: C_13  and  C_18
    2  A    between atoms: C_14  and  O_29
    3  A    between atoms: O_15  and  C_26
    4  A    between atoms: C_16  and  C_27
    5  A    between atoms: C_18  and  O_29
                            x       y       z     vdW  Elec       q    Type
                         _______ _______ _______ _____ _____    ______ ____

>  <TORSDO>
F 5

$$$$
=
 OpenBabel11052414393D

 32 36  0  0  0  0  0  0  0  0999 V2000
  187.7330  177.9660  141.6930 C   0  0  0  0  0  0  0  0  0  0  0  0
  189.2280  177.2980  143.9860 C   0  0  0  0  0  0  0  0  0  0  0  0
  186.9650  178.2750  140.5620 C   0  0  0  0  0  3  0  0  0  0  0  0
  189.1190  177.6520  141.5490 C   0  0  0  0  0  0  0  0  0  0  0  0
  191.2390  176.9980  142.6590 C   0  0  0  0  0  3  0  0  0  0  0  0
  190.4280  177.0560  147.5220 N   0  0  0  0  0  2  0  0  0  0  0  0
  189.8680  177.3170  142.7170 C   0  0  0  0  0  0  0  0  0  0  0  0
  191.9950  176.3080  146.2110 O   0  0  0  0  0  0  0  0  0  0  0  0
  191.3140  176.6370  145.0380 C   0  0  0  0  0  0  0  0  0  0  0  0
  189.6880  177.6800  140.2400 C   0  0  0  0  0  0  0  0  0  0  0  0
  191.9590  176.6620  143.8050 C   0  0  0  0  0  3  0  0  0  0  0  0
  188.8810  178.0020  139.1370 C   0  0  0  0  0  3  0  0  0  0  0  0
  187.8750  177.6150  144.0890 C   0  0  0  0  0  3  0  0  0  0  0  0
  187.1260  177.9560  142.9670 C   0  0  0  0  0  0  0  0  0  0  0  0
  189.9640  176.9670  145.1400 C   0  0  0  0  0  0  0  0  0  0  0  0
  187.5330  178.2940  139.2950 C   0  0  0  0  0  3  0  0  0  0  0  0
  191.3060  176.0250  147.3400 O   0  0  0  0  0  0  0  0  0  0  0  0
  189.3650  176.9340  146.5190 C   0  0  0  0  0  2  0  0  0  0  0  0
  183.8160  178.9120  144.5700 C   0  0  0  0  0  0  0  0  0  0  0  0
  183.2830  179.2280  145.8130 O   0  0  0  0  0  1  0  0  0  0  0  0
  185.6990  178.2860  143.1640 C   0  0  0  0  0  0  0  0  0  0  0  0
  182.9810  178.8990  143.4510 C   0  0  0  0  0  3  0  0  0  0  0  0
  184.8470  178.2690  142.0520 C   0  0  0  0  0  3  0  0  0  0  0  0
  185.1790  178.6020  144.4360 C   0  0  0  0  0  0  0  0  0  0  0  0
  186.2030  178.5760  145.8710 Cl  0  0  0  0  0  0  0  0  0  0  0  0
  183.4910  178.5750  142.1850 C   0  0  0  0  0  0  0  0  0  0  0  0
  181.3150  178.9570  141.0730 C   0  0  0  0  0  1  0  0  0  0  0  0
  182.6770  178.5500  141.0500 O   0  0  0  0  0  0  0  0  0  0  0  0
  191.0440  177.3900  140.0350 O   0  0  0  0  0  0  0  0  0  0  0  0
  191.5220  176.6510  138.9180 C   0  0  0  0  0  2  0  0  0  0  0  0
  193.0000  176.8120  138.8170 C   0  0  0  0  0  3  0  0  0  0  0  0
  193.6300  177.2520  139.7630 O   0  0  0  0  0  0  0  0  0  0  0  0
  1 14  1  0  0  0  0
  2 13  1  0  0  0  0
  2 15  1  0  0  0  0
  3  1  1  0  0  0  0
  4  1  2  0  0  0  0
  4  7  1  0  0  0  0
  5  7  1  0  0  0  0
  5 11  2  0  0  0  0
  7  2  2  0  0  0  0
  8 17  1  0  0  0  0
  9 15  2  0  0  0  0
  9  8  1  0  0  0  0
 10  4  1  0  0  0  0
 11  9  1  0  0  0  0
 12 16  1  0  0  0  0
 12 10  2  0  0  0  0
 14 21  1  0  0  0  0
 14 13  2  0  0  0  0
 15 18  1  0  0  0  0
 16  3  2  0  0  0  0
 17  6  1  0  0  0  0
 18  6  1  0  0  0  0
 19 20  1  0  0  0  0
 21 24  2  0  0  0  0
 22 19  2  0  0  0  0
 23 26  2  0  0  0  0
 23 21  1  0  0  0  0
 24 19  1  0  0  0  0
 24 25  1  0  0  0  0
 26 22  1  0  0  0  0
 28 27  1  0  0  0  0
 28 26  1  0  0  0  0
 29 10  1  0  0  0  0
 30 29  1  0  0  0  0
 31 30  1  0  0  0  0
 31 32  2  0  0  0  0
M  END
>  <MODEL>
6

>  <REMARK>
 VINA RESULT:     -10.1      2.859      8.005
  Name = 
  5 active torsions:
  status: ('A' for Active; 'I' for Inactive)
    1  A    between atoms: C_13  and  C_18
    2  A    between atoms: C_14  and  O_29
    3  A    between atoms: O_15  and  C_26
    4  A    between atoms: C_16  and  C_27
    5  A    between atoms: C_18  and  O_29
                            x       y       z     vdW  Elec       q    Type
                         _______ _______ _______ _____ _____    ______ ____

>  <TORSDO>
F 5

$$$$
=
 OpenBabel11052414393D

 32 36  0  0  0  0  0  0  0  0999 V2000
  185.9960  178.2540  142.0690 C   0  0  0  0  0  0  0  0  0  0  0  0
  187.0720  178.0170  144.6610 C   0  0  0  0  0  0  0  0  0  0  0  0
  185.4850  178.3960  140.7710 C   0  0  0  0  0  3  0  0  0  0  0  0
  185.1250  178.3770  143.1940 C   0  0  0  0  0  0  0  0  0  0  0  0
  184.8870  178.3590  145.6630 C   0  0  0  0  0  3  0  0  0  0  0  0
  189.2580  177.0750  147.5490 N   0  0  0  0  0  2  0  0  0  0  0  0
  185.6790  178.2530  144.5030 C   0  0  0  0  0  0  0  0  0  0  0  0
  187.4060  177.9060  148.3300 O   0  0  0  0  0  0  0  0  0  0  0  0
  186.8080  178.0270  147.0750 C   0  0  0  0  0  0  0  0  0  0  0  0
  183.7390  178.6270  142.9550 C   0  0  0  0  0  0  0  0  0  0  0  0
  185.4410  178.2470  146.9380 C   0  0  0  0  0  3  0  0  0  0  0  0
  183.2720  178.7540  141.6380 C   0  0  0  0  0  3  0  0  0  0  0  0
  187.8900  177.8970  143.5400 C   0  0  0  0  0  3  0  0  0  0  0  0
  187.3720  178.0020  142.2530 C   0  0  0  0  0  0  0  0  0  0  0  0
  187.6220  177.8950  145.9520 C   0  0  0  0  0  0  0  0  0  0  0  0
  184.1350  178.6420  140.5550 C   0  0  0  0  0  3  0  0  0  0  0  0
  188.7520  177.9670  148.4510 O   0  0  0  0  0  0  0  0  0  0  0  0
  189.0820  177.6350  146.2040 C   0  0  0  0  0  2  0  0  0  0  0  0
  190.2620  176.8670  140.0640 C   0  0  0  0  0  0  0  0  0  0  0  0
  191.3490  176.0030  140.0930 O   0  0  0  0  0  1  0  0  0  0  0  0
  188.3060  177.8550  141.1180 C   0  0  0  0  0  0  0  0  0  0  0  0
  190.0320  177.6380  138.9220 C   0  0  0  0  0  3  0  0  0  0  0  0
  188.0930  178.6280  139.9690 C   0  0  0  0  0  3  0  0  0  0  0  0
  189.4050  176.9730  141.1710 C   0  0  0  0  0  0  0  0  0  0  0  0
  189.7450  176.0270  142.6190 Cl  0  0  0  0  0  0  0  0  0  0  0  0
  188.9470  178.5250  138.8690 C   0  0  0  0  0  0  0  0  0  0  0  0
  187.7650  178.9360  136.7360 C   0  0  0  0  0  1  0  0  0  0  0  0
  188.6970  179.3110  137.7420 O   0  0  0  0  0  0  0  0  0  0  0  0
  182.8330  178.7490  144.0180 O   0  0  0  0  0  0  0  0  0  0  0  0
  181.5150  179.2580  143.8620 C   0  0  0  0  0  2  0  0  0  0  0  0
  180.5320  178.1730  144.1400 C   0  0  0  0  0  3  0  0  0  0  0  0
  179.3930  178.2620  143.7150 O   0  0  0  0  0  0  0  0  0  0  0  0
  1 14  2  0  0  0  0
  1  4  1  0  0  0  0
  2 15  1  0  0  0  0
  3  1  1  0  0  0  0
  4  7  2  0  0  0  0
  5 11  2  0  0  0  0
  6 17  1  0  0  0  0
  7  2  1  0  0  0  0
  7  5  1  0  0  0  0
  8 17  1  0  0  0  0
  9  8  1  0  0  0  0
 10  4  1  0  0  0  0
 10 29  1  0  0  0  0
 11  9  1  0  0  0  0
 12 10  2  0  0  0  0
 13  2  2  0  0  0  0
 14 13  1  0  0  0  0
 15 18  1  0  0  0  0
 15  9  2  0  0  0  0
 16  3  2  0  0  0  0
 16 12  1  0  0  0  0
 18  6  1  0  0  0  0
 19 20  1  0  0  0  0
 19 24  1  0  0  0  0
 21 24  2  0  0  0  0
 21 14  1  0  0  0  0
 22 19  2  0  0  0  0
 23 21  1  0  0  0  0
 24 25  1  0  0  0  0
 26 22  1  0  0  0  0
 26 23  2  0  0  0  0
 27 28  1  0  0  0  0
 28 26  1  0  0  0  0
 30 29  1  0  0  0  0
 30 31  1  0  0  0  0
 32 31  2  0  0  0  0
M  END
>  <MODEL>
7

>  <REMARK>
 VINA RESULT:     -10.0      2.296      5.955
  Name = 
  5 active torsions:
  status: ('A' for Active; 'I' for Inactive)
    1  A    between atoms: C_13  and  C_18
    2  A    between atoms: C_14  and  O_29
    3  A    between atoms: O_15  and  C_26
    4  A    between atoms: C_16  and  C_27
    5  A    between atoms: C_18  and  O_29
                            x       y       z     vdW  Elec       q    Type
                         _______ _______ _______ _____ _____    ______ ____

>  <TORSDO>
F 5

$$$$
=
 OpenBabel11052414393D

 32 36  0  0  0  0  0  0  0  0999 V2000
  189.1010  177.3490  143.1660 C   0  0  0  0  0  0  0  0  0  0  0  0
  186.4450  178.0860  143.7490 C   0  0  0  0  0  0  0  0  0  0  0  0
  190.4100  176.9590  142.8520 C   0  0  0  0  0  3  0  0  0  0  0  0
  188.6690  177.3630  144.5270 C   0  0  0  0  0  0  0  0  0  0  0  0
  186.8220  177.7820  146.1280 C   0  0  0  0  0  3  0  0  0  0  0  0
  183.0440  179.6350  143.5570 N   0  0  0  0  0  2  0  0  0  0  0  0
  187.3230  177.7400  144.8120 C   0  0  0  0  0  0  0  0  0  0  0  0
  183.3240  178.8340  145.5600 O   0  0  0  0  0  0  0  0  0  0  0  0
  184.6520  178.4660  145.3410 C   0  0  0  0  0  0  0  0  0  0  0  0
  189.6050  176.9910  145.5390 C   0  0  0  0  0  0  0  0  0  0  0  0
  185.5000  178.1420  146.3940 C   0  0  0  0  0  3  0  0  0  0  0  0
  190.9080  176.6150  145.1780 C   0  0  0  0  0  3  0  0  0  0  0  0
  186.9030  178.0650  142.4330 C   0  0  0  0  0  3  0  0  0  0  0  0
  188.2140  177.7130  142.1300 C   0  0  0  0  0  0  0  0  0  0  0  0
  185.1150  178.4580  144.0270 C   0  0  0  0  0  0  0  0  0  0  0  0
  191.3080  176.5960  143.8480 C   0  0  0  0  0  3  0  0  0  0  0  0
  182.4520  178.8790  144.5270 O   0  0  0  0  0  0  0  0  0  0  0  0
  184.1280  178.8470  142.9610 C   0  0  0  0  0  2  0  0  0  0  0  0
  188.2000  178.1910  138.3610 C   0  0  0  0  0  0  0  0  0  0  0  0
  187.3740  178.6560  137.3460 O   0  0  0  0  0  1  0  0  0  0  0  0
  188.6220  177.7240  140.7100 C   0  0  0  0  0  0  0  0  0  0  0  0
  189.4710  177.7080  138.0400 C   0  0  0  0  0  3  0  0  0  0  0  0
  189.8900  177.2350  140.3720 C   0  0  0  0  0  3  0  0  0  0  0  0
  187.7650  178.1990  139.6950 C   0  0  0  0  0  0  0  0  0  0  0  0
  186.1380  178.7660  140.0690 Cl  0  0  0  0  0  0  0  0  0  0  0  0
  190.3230  177.2250  139.0440 C   0  0  0  0  0  0  0  0  0  0  0  0
  191.8950  176.0450  137.5420 C   0  0  0  0  0  1  0  0  0  0  0  0
  191.5970  176.7320  138.7510 O   0  0  0  0  0  0  0  0  0  0  0  0
  189.2440  176.9940  146.8930 O   0  0  0  0  0  0  0  0  0  0  0  0
  190.0470  177.5770  147.9120 C   0  0  0  0  0  2  0  0  0  0  0  0
  189.1860  178.3950  148.8110 C   0  0  0  0  0  3  0  0  0  0  0  0
  188.0520  178.0280  149.0670 O   0  0  0  0  0  0  0  0  0  0  0  0
  1  4  1  0  0  0  0
  2 15  2  0  0  0  0
  2  7  1  0  0  0  0
  3  1  2  0  0  0  0
  3 16  1  0  0  0  0
  4  7  1  0  0  0  0
  4 10  2  0  0  0  0
  5 11  1  0  0  0  0
  6 17  1  0  0  0  0
  7  5  2  0  0  0  0
  9  8  1  0  0  0  0
  9 11  2  0  0  0  0
 10 29  1  0  0  0  0
 12 10  1  0  0  0  0
 13  2  1  0  0  0  0
 14 13  2  0  0  0  0
 14  1  1  0  0  0  0
 15  9  1  0  0  0  0
 16 12  2  0  0  0  0
 17  8  1  0  0  0  0
 18  6  1  0  0  0  0
 18 15  1  0  0  0  0
 19 24  1  0  0  0  0
 20 19  1  0  0  0  0
 21 14  1  0  0  0  0
 22 19  2  0  0  0  0
 22 26  1  0  0  0  0
 23 21  1  0  0  0  0
 24 25  1  0  0  0  0
 24 21  2  0  0  0  0
 26 23  2  0  0  0  0
 27 28  1  0  0  0  0
 28 26  1  0  0  0  0
 29 30  1  0  0  0  0
 30 31  1  0  0  0  0
 31 32  2  0  0  0  0
M  END
>  <MODEL>
8

>  <REMARK>
 VINA RESULT:     -10.0      2.328      6.999
  Name = 
  5 active torsions:
  status: ('A' for Active; 'I' for Inactive)
    1  A    between atoms: C_13  and  C_18
    2  A    between atoms: C_14  and  O_29
    3  A    between atoms: O_15  and  C_26
    4  A    between atoms: C_16  and  C_27
    5  A    between atoms: C_18  and  O_29
                            x       y       z     vdW  Elec       q    Type
                         _______ _______ _______ _____ _____    ______ ____

>  <TORSDO>
F 5

$$$$
=
 OpenBabel11052414393D

 32 36  0  0  0  0  0  0  0  0999 V2000
  188.1370  177.8160  141.4310 C   0  0  0  0  0  0  0  0  0  0  0  0
  189.5550  177.2250  143.7920 C   0  0  0  0  0  0  0  0  0  0  0  0
  187.4580  178.1300  140.2460 C   0  0  0  0  0  3  0  0  0  0  0  0
  187.4990  178.0220  142.6920 C   0  0  0  0  0  0  0  0  0  0  0  0
  187.6650  177.8890  145.1630 C   0  0  0  0  0  3  0  0  0  0  0  0
  191.9640  175.7230  146.2310 N   0  0  0  0  0  2  0  0  0  0  0  0
  188.2240  177.7170  143.8820 C   0  0  0  0  0  0  0  0  0  0  0  0
  190.4520  176.8220  147.3440 O   0  0  0  0  0  0  0  0  0  0  0  0
  189.6930  177.1280  146.2140 C   0  0  0  0  0  0  0  0  0  0  0  0
  186.1650  178.5310  142.7030 C   0  0  0  0  0  0  0  0  0  0  0  0
  188.3880  177.5980  146.3210 C   0  0  0  0  0  3  0  0  0  0  0  0
  185.5220  178.8240  141.4890 C   0  0  0  0  0  3  0  0  0  0  0  0
  190.1430  177.0310  142.5440 C   0  0  0  0  0  3  0  0  0  0  0  0
  189.4520  177.3100  141.3690 C   0  0  0  0  0  0  0  0  0  0  0  0
  190.2750  176.9240  144.9650 C   0  0  0  0  0  0  0  0  0  0  0  0
  186.1620  178.6280  140.2720 C   0  0  0  0  0  3  0  0  0  0  0  0
  191.7870  176.6320  147.2340 O   0  0  0  0  0  0  0  0  0  0  0  0
  191.6810  176.3900  144.9550 C   0  0  0  0  0  2  0  0  0  0  0  0
  192.1630  176.8770  138.7420 C   0  0  0  0  0  0  0  0  0  0  0  0
  193.5460  176.9130  138.6180 O   0  0  0  0  0  1  0  0  0  0  0  0
  190.1460  177.0700  140.0860 C   0  0  0  0  0  0  0  0  0  0  0  0
  191.3830  176.6070  137.6160 C   0  0  0  0  0  3  0  0  0  0  0  0
  189.3760  176.8060  138.9470 C   0  0  0  0  0  3  0  0  0  0  0  0
  191.5520  177.1150  139.9830 C   0  0  0  0  0  0  0  0  0  0  0  0
  192.5560  177.5030  141.3800 Cl  0  0  0  0  0  0  0  0  0  0  0  0
  189.9840  176.5720  137.7110 C   0  0  0  0  0  0  0  0  0  0  0  0
  187.8160  175.9240  136.7130 C   0  0  0  0  0  1  0  0  0  0  0  0
  189.1790  176.3090  136.6000 O   0  0  0  0  0  0  0  0  0  0  0  0
  185.4820  178.7460  143.9080 O   0  0  0  0  0  0  0  0  0  0  0  0
  184.2050  179.3670  143.9800 C   0  0  0  0  0  2  0  0  0  0  0  0
  183.5520  179.0030  145.2680 C   0  0  0  0  0  3  0  0  0  0  0  0
  184.2320  178.6550  146.2180 O   0  0  0  0  0  0  0  0  0  0  0  0
  1  4  1  0  0  0  0
  2  7  1  0  0  0  0
  2 15  1  0  0  0  0
  3 16  2  0  0  0  0
  3  1  1  0  0  0  0
  4 10  1  0  0  0  0
  4  7  2  0  0  0  0
  5 11  2  0  0  0  0
  6 17  1  0  0  0  0
  7  5  1  0  0  0  0
  9 11  1  0  0  0  0
  9  8  1  0  0  0  0
 10 29  1  0  0  0  0
 12 10  2  0  0  0  0
 13  2  2  0  0  0  0
 14  1  2  0  0  0  0
 14 13  1  0  0  0  0
 15  9  2  0  0  0  0
 16 12  1  0  0  0  0
 17  8  1  0  0  0  0
 18 15  1  0  0  0  0
 18  6  1  0  0  0  0
 19 24  1  0  0  0  0
 20 19  1  0  0  0  0
 21 14  1  0  0  0  0
 22 26  1  0  0  0  0
 22 19  2  0  0  0  0
 23 21  1  0  0  0  0
 24 21  2  0  0  0  0
 24 25  1  0  0  0  0
 26 23  2  0  0  0  0
 28 27  1  0  0  0  0
 28 26  1  0  0  0  0
 29 30  1  0  0  0  0
 30 31  1  0  0  0  0
 31 32  2  0  0  0  0
M  END
>  <MODEL>
9

>  <REMARK>
 VINA RESULT:      -9.8      2.847      6.617
  Name = 
  5 active torsions:
  status: ('A' for Active; 'I' for Inactive)
    1  A    between atoms: C_13  and  C_18
    2  A    between atoms: C_14  and  O_29
    3  A    between atoms: O_15  and  C_26
    4  A    between atoms: C_16  and  C_27
    5  A    between atoms: C_18  and  O_29
                            x       y       z     vdW  Elec       q    Type
                         _______ _______ _______ _____ _____    ______ ____

>  <TORSDO>
F 5

$$$$
