=
 OpenBabel11052412553D

 25 28  0  0  1  0  0  0  0  0999 V2000
  187.1950  178.2820  145.8780 N   0  0  0  0  0  0  0  0  0  0  0  0
  188.5560  177.8340  145.7370 C   0  0  0  0  0  0  0  0  0  0  0  0
  187.4060  178.2680  148.3290 C   0  0  0  0  0  3  0  0  0  0  0  0
  186.0920  178.0780  144.9480 C   0  0  1  0  0  3  0  0  0  0  0  0
  183.5930  179.2710  144.1250 C   0  0  0  0  0  3  0  0  0  0  0  0
  188.6890  177.9210  148.2000 C   0  0  0  0  0  3  0  0  0  0  0  0
  184.9060  178.2660  145.8580 C   0  0  2  0  0  3  0  0  0  0  0  0
  183.6030  178.6490  145.3110 C   0  0  0  0  0  3  0  0  0  0  0  0
  184.8640  179.6030  143.4280 C   0  0  0  0  0  3  0  0  0  0  0  0
  186.6330  178.4330  147.1440 N   0  0  0  0  0  0  0  0  0  0  0  0
  185.2410  178.4610  147.0920 N   0  0  0  0  0  2  0  0  0  0  0  0
  186.0400  179.1030  143.8440 C   0  0  0  0  0  3  0  0  0  0  0  0
  189.2950  177.6820  146.8650 C   0  0  0  0  0  0  0  0  0  0  0  0
  189.1130  177.5660  144.3930 C   0  0  0  0  0  0  0  0  0  0  0  0
  189.3050  176.1460  142.4330 C   0  0  0  0  0  3  0  0  0  0  0  0
  189.9820  178.4880  143.7980 C   0  0  0  0  0  3  0  0  0  0  0  0
  190.5110  178.2410  142.5280 C   0  0  0  0  0  3  0  0  0  0  0  0
  188.7770  176.3940  143.7030 C   0  0  0  0  0  3  0  0  0  0  0  0
  190.1770  177.0690  141.8370 C   0  0  0  0  0  0  0  0  0  0  0  0
  190.7340  176.8100  140.4980 C   0  0  0  0  0  0  0  0  0  0  0  0
  190.1060  176.0900  139.6760 O   0  0  0  0  0  0  0  0  0  0  0  0
  191.9880  177.3680  140.1180 N   0  0  0  0  0  1  0  0  0  0  0  0
  190.7450  177.3010  146.8250 C   0  0  0  0  0  2  0  0  0  0  0  0
  190.9640  175.9050  147.3910 C   0  0  0  0  0  2  0  0  0  0  0  0
  192.4220  175.6970  147.7520 C   0  0  0  0  0  1  0  0  0  0  0  0
  1 10  1  0  0  0  0
  2  1  1  0  0  0  0
  2 13  2  0  0  0  0
  4 12  1  6  0  0  0
  4  7  1  0  0  0  0
  4  1  1  0  0  0  0
  5  8  2  0  0  0  0
  6  3  2  0  0  0  0
  7  8  1  6  0  0  0
  7 11  1  0  0  0  0
  9 12  2  0  0  0  0
  9  5  1  0  0  0  0
 10  3  1  0  0  0  0
 11 10  1  0  0  0  0
 13  6  1  0  0  0  0
 14  2  1  0  0  0  0
 15 18  1  0  0  0  0
 16 14  1  0  0  0  0
 17 16  2  0  0  0  0
 18 14  2  0  0  0  0
 19 15  2  0  0  0  0
 19 17  1  0  0  0  0
 20 19  1  0  0  0  0
 21 20  2  0  0  0  0
 22 20  1  0  0  0  0
 23 13  1  0  0  0  0
 23 24  1  0  0  0  0
 24 25  1  0  0  0  0
M  END
>  <MODEL>
1

>  <REMARK>
 VINA RESULT:      -8.9      0.000      0.000
  Name = 
  4 active torsions:
  status: ('A' for Active; 'I' for Inactive)
    1  A    between atoms: C_2  and  C_25
    2  A    between atoms: C_3  and  C_6
    3  A    between atoms: C_13  and  C_14
    4  A    between atoms: C_14  and  C_24
                            x       y       z     vdW  Elec       q    Type
                         _______ _______ _______ _____ _____    ______ ____

>  <TORSDO>
F 4

$$$$
=
 OpenBabel11052412553D

 25 28  0  0  1  0  0  0  0  0999 V2000
  186.1710  178.0950  145.1310 N   0  0  0  0  0  0  0  0  0  0  0  0
  186.0460  178.0710  143.6970 C   0  0  0  0  0  0  0  0  0  0  0  0
  183.8140  178.7650  145.3610 C   0  0  0  0  0  3  0  0  0  0  0  0
  187.3770  178.3260  145.9130 C   0  0  1  0  0  3  0  0  0  0  0  0
  188.5420  177.7160  148.4860 C   0  0  0  0  0  3  0  0  0  0  0  0
  183.6760  178.6740  144.0360 C   0  0  0  0  0  3  0  0  0  0  0  0
  186.7910  178.7630  147.2310 C   0  0  2  0  0  3  0  0  0  0  0  0
  187.5610  178.6280  148.4690 C   0  0  0  0  0  3  0  0  0  0  0  0
  188.7930  176.8440  147.3070 C   0  0  0  0  0  3  0  0  0  0  0  0
  185.0940  178.4900  145.9230 N   0  0  0  0  0  0  0  0  0  0  0  0
  185.5000  178.8490  147.2060 N   0  0  0  0  0  2  0  0  0  0  0  0
  188.2040  177.0830  146.1230 C   0  0  0  0  0  3  0  0  0  0  0  0
  184.8260  178.3260  143.1610 C   0  0  0  0  0  0  0  0  0  0  0  0
  187.2220  177.7610  142.8550 C   0  0  0  0  0  0  0  0  0  0  0  0
  188.7070  178.3210  141.0180 C   0  0  0  0  0  3  0  0  0  0  0  0
  187.9750  176.6070  143.0990 C   0  0  0  0  0  3  0  0  0  0  0  0
  189.0880  176.3100  142.3070 C   0  0  0  0  0  3  0  0  0  0  0  0
  187.5950  178.6180  141.8100 C   0  0  0  0  0  3  0  0  0  0  0  0
  189.4620  177.1640  141.2610 C   0  0  0  0  0  0  0  0  0  0  0  0
  190.6350  176.8510  140.4280 C   0  0  0  0  0  0  0  0  0  0  0  0
  190.5490  176.0030  139.5000 O   0  0  0  0  0  0  0  0  0  0  0  0
  191.8810  177.5030  140.6610 N   0  0  0  0  0  1  0  0  0  0  0  0
  184.5680  178.2450  141.6850 C   0  0  0  0  0  2  0  0  0  0  0  0
  183.0810  178.3510  141.3790 C   0  0  0  0  0  2  0  0  0  0  0  0
  182.7220  177.5010  140.1740 C   0  0  0  0  0  1  0  0  0  0  0  0
  1  4  1  0  0  0  0
  1 10  1  0  0  0  0
  2  1  1  0  0  0  0
  3 10  1  0  0  0  0
  4 12  1  1  0  0  0
  4  7  1  0  0  0  0
  6  3  2  0  0  0  0
  7  8  1  1  0  0  0
  8  5  2  0  0  0  0
  9  5  1  0  0  0  0
 10 11  1  0  0  0  0
 11  7  1  0  0  0  0
 12  9  2  0  0  0  0
 13  2  2  0  0  0  0
 13  6  1  0  0  0  0
 14 16  1  0  0  0  0
 14  2  1  0  0  0  0
 15 19  2  0  0  0  0
 15 18  1  0  0  0  0
 17 16  2  0  0  0  0
 18 14  2  0  0  0  0
 19 17  1  0  0  0  0
 20 22  1  0  0  0  0
 20 19  1  0  0  0  0
 21 20  2  0  0  0  0
 23 13  1  0  0  0  0
 24 23  1  0  0  0  0
 25 24  1  0  0  0  0
M  END
>  <MODEL>
2

>  <REMARK>
 VINA RESULT:      -8.5      1.592      4.940
  Name = 
  4 active torsions:
  status: ('A' for Active; 'I' for Inactive)
    1  A    between atoms: C_2  and  C_25
    2  A    between atoms: C_3  and  C_6
    3  A    between atoms: C_13  and  C_14
    4  A    between atoms: C_14  and  C_24
                            x       y       z     vdW  Elec       q    Type
                         _______ _______ _______ _____ _____    ______ ____

>  <TORSDO>
F 4

$$$$
=
 OpenBabel11052412553D

 25 28  0  0  1  0  0  0  0  0999 V2000
  184.5700  178.6530  142.8380 N   0  0  0  0  0  0  0  0  0  0  0  0
  185.7670  178.3190  143.5630 C   0  0  0  0  0  0  0  0  0  0  0  0
  183.3330  178.9510  144.9440 C   0  0  0  0  0  3  0  0  0  0  0  0
  184.2030  178.2380  141.4900 C   0  0  1  0  0  3  0  0  0  0  0  0
  182.6230  179.0870  139.2260 C   0  0  0  0  0  3  0  0  0  0  0  0
  184.4600  178.7120  145.6200 C   0  0  0  0  0  3  0  0  0  0  0  0
  182.7080  178.4220  141.5250 C   0  0  2  0  0  3  0  0  0  0  0  0
  181.9530  178.6150  140.2860 C   0  0  0  0  0  3  0  0  0  0  0  0
  184.0610  179.4500  139.3330 C   0  0  0  0  0  3  0  0  0  0  0  0
  183.3810  178.9010  143.5210 N   0  0  0  0  0  0  0  0  0  0  0  0
  182.2710  178.7940  142.6850 N   0  0  0  0  0  2  0  0  0  0  0  0
  184.7880  179.1150  140.4120 C   0  0  0  0  0  3  0  0  0  0  0  0
  185.7250  178.3730  144.9190 C   0  0  0  0  0  0  0  0  0  0  0  0
  186.9980  177.9460  142.8320 C   0  0  0  0  0  0  0  0  0  0  0  0
  188.8250  176.3990  142.4300 C   0  0  0  0  0  3  0  0  0  0  0  0
  187.5060  178.7900  141.8380 C   0  0  0  0  0  3  0  0  0  0  0  0
  188.6680  178.4410  141.1440 C   0  0  0  0  0  3  0  0  0  0  0  0
  187.6640  176.7470  143.1240 C   0  0  0  0  0  3  0  0  0  0  0  0
  189.3360  177.2440  141.4340 C   0  0  0  0  0  0  0  0  0  0  0  0
  190.5600  176.8770  140.7010 C   0  0  0  0  0  0  0  0  0  0  0  0
  190.5040  176.0800  139.7280 O   0  0  0  0  0  0  0  0  0  0  0  0
  191.8210  177.4190  141.0860 N   0  0  0  0  0  1  0  0  0  0  0  0
  186.9380  178.1250  145.7670 C   0  0  0  0  0  2  0  0  0  0  0  0
  186.6380  178.3620  147.2400 C   0  0  0  0  0  2  0  0  0  0  0  0
  187.8420  178.0120  148.0940 C   0  0  0  0  0  1  0  0  0  0  0  0
  1 10  1  0  0  0  0
  1  2  1  0  0  0  0
  2 13  2  0  0  0  0
  3  6  2  0  0  0  0
  4 12  1  6  0  0  0
  4  7  1  0  0  0  0
  4  1  1  0  0  0  0
  5  9  1  0  0  0  0
  5  8  2  0  0  0  0
  7  8  1  6  0  0  0
  7 11  1  0  0  0  0
  9 12  2  0  0  0  0
 10  3  1  0  0  0  0
 11 10  1  0  0  0  0
 13  6  1  0  0  0  0
 13 23  1  0  0  0  0
 14 18  1  0  0  0  0
 14  2  1  0  0  0  0
 15 18  2  0  0  0  0
 16 14  2  0  0  0  0
 17 19  2  0  0  0  0
 17 16  1  0  0  0  0
 19 15  1  0  0  0  0
 20 22  1  0  0  0  0
 20 19  1  0  0  0  0
 21 20  2  0  0  0  0
 23 24  1  0  0  0  0
 24 25  1  0  0  0  0
M  END
>  <MODEL>
3

>  <REMARK>
 VINA RESULT:      -8.2      2.580      3.842
  Name = 
  4 active torsions:
  status: ('A' for Active; 'I' for Inactive)
    1  A    between atoms: C_2  and  C_25
    2  A    between atoms: C_3  and  C_6
    3  A    between atoms: C_13  and  C_14
    4  A    between atoms: C_14  and  C_24
                            x       y       z     vdW  Elec       q    Type
                         _______ _______ _______ _____ _____    ______ ____

>  <TORSDO>
F 4

$$$$
=
 OpenBabel11052412553D

 25 28  0  0  1  0  0  0  0  0999 V2000
  186.6500  178.4770  140.3680 N   0  0  0  0  0  0  0  0  0  0  0  0
  186.6160  178.2530  141.7900 C   0  0  0  0  0  0  0  0  0  0  0  0
  184.2590  179.0590  140.3660 C   0  0  0  0  0  3  0  0  0  0  0  0
  187.5540  177.8780  139.3960 C   0  0  1  0  0  3  0  0  0  0  0  0
  188.7540  178.3970  136.8190 C   0  0  0  0  0  3  0  0  0  0  0  0
  184.2420  178.9210  141.6950 C   0  0  0  0  0  3  0  0  0  0  0  0
  186.7710  178.0580  138.1210 C   0  0  2  0  0  3  0  0  0  0  0  0
  187.4540  178.0730  136.8250 C   0  0  0  0  0  3  0  0  0  0  0  0
  189.4500  178.7780  138.0770 C   0  0  0  0  0  3  0  0  0  0  0  0
  185.4840  178.8120  139.6820 N   0  0  0  0  0  0  0  0  0  0  0  0
  185.6060  178.5850  138.3130 N   0  0  0  0  0  2  0  0  0  0  0  0
  188.8720  178.6000  139.2770 C   0  0  0  0  0  3  0  0  0  0  0  0
  185.4520  178.4940  142.4440 C   0  0  0  0  0  0  0  0  0  0  0  0
  187.8300  177.7880  142.4970 C   0  0  0  0  0  0  0  0  0  0  0  0
  190.0100  178.2400  143.4640 C   0  0  0  0  0  3  0  0  0  0  0  0
  187.9500  176.4470  142.8770 C   0  0  0  0  0  3  0  0  0  0  0  0
  189.0930  176.0030  143.5460 C   0  0  0  0  0  3  0  0  0  0  0  0
  188.8660  178.6830  142.7950 C   0  0  0  0  0  3  0  0  0  0  0  0
  190.1320  176.8950  143.8440 C   0  0  0  0  0  0  0  0  0  0  0  0
  191.3370  176.4270  144.5510 C   0  0  0  0  0  0  0  0  0  0  0  0
  192.0560  175.5210  144.0510 O   0  0  0  0  0  0  0  0  0  0  0  0
  191.7020  176.9920  145.8070 N   0  0  0  0  0  1  0  0  0  0  0  0
  185.3320  178.3720  143.9340 C   0  0  0  0  0  2  0  0  0  0  0  0
  184.5160  179.5170  144.5170 C   0  0  0  0  0  2  0  0  0  0  0  0
  183.2100  179.0030  145.0940 C   0  0  0  0  0  1  0  0  0  0  0  0
  1  2  1  0  0  0  0
  2 13  2  0  0  0  0
  2 14  1  0  0  0  0
  3  6  2  0  0  0  0
  4 12  1  6  0  0  0
  4  1  1  0  0  0  0
  5  8  2  0  0  0  0
  5  9  1  0  0  0  0
  6 13  1  0  0  0  0
  7  8  1  6  0  0  0
  7 11  1  0  0  0  0
  7  4  1  0  0  0  0
  9 12  2  0  0  0  0
 10  3  1  0  0  0  0
 10  1  1  0  0  0  0
 11 10  1  0  0  0  0
 13 23  1  0  0  0  0
 14 18  2  0  0  0  0
 14 16  1  0  0  0  0
 15 19  2  0  0  0  0
 16 17  2  0  0  0  0
 17 19  1  0  0  0  0
 18 15  1  0  0  0  0
 19 20  1  0  0  0  0
 20 22  1  0  0  0  0
 21 20  2  0  0  0  0
 23 24  1  0  0  0  0
 24 25  1  0  0  0  0
M  END
>  <MODEL>
4

>  <REMARK>
 VINA RESULT:      -7.7      3.484      6.376
  Name = 
  4 active torsions:
  status: ('A' for Active; 'I' for Inactive)
    1  A    between atoms: C_2  and  C_25
    2  A    between atoms: C_3  and  C_6
    3  A    between atoms: C_13  and  C_14
    4  A    between atoms: C_14  and  C_24
                            x       y       z     vdW  Elec       q    Type
                         _______ _______ _______ _____ _____    ______ ____

>  <TORSDO>
F 4

$$$$
=
 OpenBabel11052412553D

 25 28  0  0  1  0  0  0  0  0999 V2000
  189.5570  177.6230  139.9900 N   0  0  0  0  0  0  0  0  0  0  0  0
  188.7310  177.8750  141.1420 C   0  0  0  0  0  0  0  0  0  0  0  0
  187.6780  178.1340  138.4860 C   0  0  0  0  0  3  0  0  0  0  0  0
  190.7220  176.7530  139.9070 C   0  0  1  0  0  3  0  0  0  0  0  0
  193.1800  176.4200  138.4260 C   0  0  0  0  0  3  0  0  0  0  0  0
  186.9310  178.4380  139.5500 C   0  0  0  0  0  3  0  0  0  0  0  0
  190.7860  176.4940  138.4240 C   0  0  2  0  0  3  0  0  0  0  0  0
  192.0460  176.0950  137.7920 C   0  0  0  0  0  3  0  0  0  0  0  0
  193.1500  177.2020  139.6910 C   0  0  0  0  0  3  0  0  0  0  0  0
  189.0150  177.6960  138.7080 N   0  0  0  0  0  0  0  0  0  0  0  0
  189.8090  177.0360  137.7730 N   0  0  0  0  0  2  0  0  0  0  0  0
  192.0000  177.4170  140.3520 C   0  0  0  0  0  3  0  0  0  0  0  0
  187.4590  178.2990  140.9320 C   0  0  0  0  0  0  0  0  0  0  0  0
  189.2790  177.6870  142.5030 C   0  0  0  0  0  0  0  0  0  0  0  0
  190.6660  178.4510  144.3440 C   0  0  0  0  0  3  0  0  0  0  0  0
  188.9240  176.5590  143.2520 C   0  0  0  0  0  3  0  0  0  0  0  0
  189.4370  176.3760  144.5390 C   0  0  0  0  0  3  0  0  0  0  0  0
  190.1520  178.6330  143.0570 C   0  0  0  0  0  3  0  0  0  0  0  0
  190.3110  177.3200  145.0940 C   0  0  0  0  0  0  0  0  0  0  0  0
  190.8510  177.1280  146.4510 C   0  0  0  0  0  0  0  0  0  0  0  0
  192.0510  176.7810  146.6160 O   0  0  0  0  0  0  0  0  0  0  0  0
  190.0230  177.3310  147.5930 N   0  0  0  0  0  1  0  0  0  0  0  0
  186.5430  178.6690  142.0610 C   0  0  0  0  0  2  0  0  0  0  0  0
  185.1480  179.0010  141.5510 C   0  0  0  0  0  2  0  0  0  0  0  0
  184.0990  178.6270  142.5820 C   0  0  0  0  0  1  0  0  0  0  0  0
  1  2  1  0  0  0  0
  2 14  1  0  0  0  0
  3 10  1  0  0  0  0
  3  6  2  0  0  0  0
  4  1  1  0  0  0  0
  4 12  1  6  0  0  0
  5  9  1  0  0  0  0
  6 13  1  0  0  0  0
  7  8  1  6  0  0  0
  7  4  1  0  0  0  0
  8  5  2  0  0  0  0
  9 12  2  0  0  0  0
 10  1  1  0  0  0  0
 11  7  1  0  0  0  0
 11 10  1  0  0  0  0
 13  2  2  0  0  0  0
 13 23  1  0  0  0  0
 14 18  2  0  0  0  0
 14 16  1  0  0  0  0
 15 19  2  0  0  0  0
 16 17  2  0  0  0  0
 17 19  1  0  0  0  0
 18 15  1  0  0  0  0
 19 20  1  0  0  0  0
 20 21  2  0  0  0  0
 20 22  1  0  0  0  0
 24 23  1  0  0  0  0
 24 25  1  0  0  0  0
M  END
>  <MODEL>
5

>  <REMARK>
 VINA RESULT:      -7.6      2.764      7.560
  Name = 
  4 active torsions:
  status: ('A' for Active; 'I' for Inactive)
    1  A    between atoms: C_2  and  C_25
    2  A    between atoms: C_3  and  C_6
    3  A    between atoms: C_13  and  C_14
    4  A    between atoms: C_14  and  C_24
                            x       y       z     vdW  Elec       q    Type
                         _______ _______ _______ _____ _____    ______ ____

>  <TORSDO>
F 4

$$$$
=
 OpenBabel11052412553D

 25 28  0  0  1  0  0  0  0  0999 V2000
  187.6990  177.7900  145.9990 N   0  0  0  0  0  0  0  0  0  0  0  0
  186.9820  177.9200  144.7570 C   0  0  0  0  0  0  0  0  0  0  0  0
  185.6650  178.3320  147.2720 C   0  0  0  0  0  3  0  0  0  0  0  0
  189.1250  177.9840  146.2260 C   0  0  1  0  0  3  0  0  0  0  0  0
  191.2590  177.1430  147.9820 C   0  0  0  0  0  3  0  0  0  0  0  0
  184.9810  178.3830  146.1260 C   0  0  0  0  0  3  0  0  0  0  0  0
  189.1520  178.2480  147.7090 C   0  0  2  0  0  3  0  0  0  0  0  0
  190.3700  178.0100  148.4850 C   0  0  0  0  0  3  0  0  0  0  0  0
  190.9830  176.4170  146.7140 C   0  0  0  0  0  3  0  0  0  0  0  0
  187.0600  178.0510  147.2100 N   0  0  0  0  0  0  0  0  0  0  0  0
  187.9720  178.2830  148.2370 N   0  0  0  0  0  2  0  0  0  0  0  0
  189.9520  176.7600  145.9220 C   0  0  0  0  0  3  0  0  0  0  0  0
  185.6520  178.1820  144.8160 C   0  0  0  0  0  0  0  0  0  0  0  0
  187.6920  177.7530  143.4700 C   0  0  0  0  0  0  0  0  0  0  0  0
  189.0490  176.4130  141.9680 C   0  0  0  0  0  3  0  0  0  0  0  0
  187.6760  178.7830  142.5220 C   0  0  0  0  0  3  0  0  0  0  0  0
  188.3440  178.6300  141.3040 C   0  0  0  0  0  3  0  0  0  0  0  0
  188.3810  176.5660  143.1860 C   0  0  0  0  0  3  0  0  0  0  0  0
  189.0350  177.4450  141.0180 C   0  0  0  0  0  0  0  0  0  0  0  0
  189.7370  177.2840  139.7330 C   0  0  0  0  0  0  0  0  0  0  0  0
  189.6570  178.1760  138.8470 O   0  0  0  0  0  0  0  0  0  0  0  0
  190.5160  176.1180  139.4770 N   0  0  0  0  0  1  0  0  0  0  0  0
  184.7960  178.2530  143.5860 C   0  0  0  0  0  2  0  0  0  0  0  0
  183.8520  179.4450  143.6400 C   0  0  0  0  0  2  0  0  0  0  0  0
  182.4100  178.9900  143.5230 C   0  0  0  0  0  1  0  0  0  0  0  0
  1  4  1  0  0  0  0
  1 10  1  0  0  0  0
  2 13  2  0  0  0  0
  2  1  1  0  0  0  0
  4 12  1  1  0  0  0
  4  7  1  0  0  0  0
  5  8  2  0  0  0  0
  6  3  2  0  0  0  0
  7 11  1  0  0  0  0
  7  8  1  1  0  0  0
  9  5  1  0  0  0  0
 10  3  1  0  0  0  0
 10 11  1  0  0  0  0
 12  9  2  0  0  0  0
 13  6  1  0  0  0  0
 14  2  1  0  0  0  0
 15 18  2  0  0  0  0
 16 14  2  0  0  0  0
 17 16  1  0  0  0  0
 18 14  1  0  0  0  0
 19 17  2  0  0  0  0
 19 15  1  0  0  0  0
 20 19  1  0  0  0  0
 21 20  2  0  0  0  0
 22 20  1  0  0  0  0
 23 24  1  0  0  0  0
 23 13  1  0  0  0  0
 25 24  1  0  0  0  0
M  END
>  <MODEL>
6

>  <REMARK>
 VINA RESULT:      -7.6      1.392      4.845
  Name = 
  4 active torsions:
  status: ('A' for Active; 'I' for Inactive)
    1  A    between atoms: C_2  and  C_25
    2  A    between atoms: C_3  and  C_6
    3  A    between atoms: C_13  and  C_14
    4  A    between atoms: C_14  and  C_24
                            x       y       z     vdW  Elec       q    Type
                         _______ _______ _______ _____ _____    ______ ____

>  <TORSDO>
F 4

$$$$
=
 OpenBabel11052412553D

 25 28  0  0  1  0  0  0  0  0999 V2000
  187.8850  177.9270  141.1920 N   0  0  0  0  0  0  0  0  0  0  0  0
  189.2810  177.5810  141.2560 C   0  0  0  0  0  0  0  0  0  0  0  0
  188.0330  178.2250  138.7540 C   0  0  0  0  0  3  0  0  0  0  0  0
  187.0670  178.5170  142.2430 C   0  0  1  0  0  3  0  0  0  0  0  0
  184.3270  178.6680  143.1460 C   0  0  0  0  0  3  0  0  0  0  0  0
  189.3090  177.8350  138.8000 C   0  0  0  0  0  3  0  0  0  0  0  0
  185.9440  179.1170  141.4370 C   0  0  2  0  0  3  0  0  0  0  0  0
  184.6430  179.3780  142.0540 C   0  0  0  0  0  3  0  0  0  0  0  0
  185.2470  177.6220  143.6670 C   0  0  0  0  0  3  0  0  0  0  0  0
  187.3070  178.2940  139.9780 N   0  0  0  0  0  0  0  0  0  0  0  0
  186.1080  178.9790  140.1610 N   0  0  0  0  0  2  0  0  0  0  0  0
  186.5030  177.5030  143.2050 C   0  0  0  0  0  3  0  0  0  0  0  0
  189.9720  177.5090  140.0900 C   0  0  0  0  0  0  0  0  0  0  0  0
  189.9170  177.3020  142.5620 C   0  0  0  0  0  0  0  0  0  0  0  0
  190.8950  178.0850  144.6410 C   0  0  0  0  0  3  0  0  0  0  0  0
  190.1440  175.9810  142.9640 C   0  0  0  0  0  3  0  0  0  0  0  0
  190.7430  175.7120  144.1970 C   0  0  0  0  0  3  0  0  0  0  0  0
  190.2950  178.3530  143.4080 C   0  0  0  0  0  3  0  0  0  0  0  0
  191.1230  176.7610  145.0440 C   0  0  0  0  0  0  0  0  0  0  0  0
  191.7540  176.4770  146.3450 C   0  0  0  0  0  0  0  0  0  0  0  0
  191.6810  177.3130  147.2840 O   0  0  0  0  0  0  0  0  0  0  0  0
  192.4550  175.2540  146.5550 N   0  0  0  0  0  1  0  0  0  0  0  0
  191.4070  177.0760  140.0370 C   0  0  0  0  0  2  0  0  0  0  0  0
  191.7230  176.3730  138.7240 C   0  0  0  0  0  2  0  0  0  0  0  0
  193.1800  176.5680  138.3500 C   0  0  0  0  0  1  0  0  0  0  0  0
  1  2  1  0  0  0  0
  1  4  1  0  0  0  0
  2 14  1  0  0  0  0
  3  6  2  0  0  0  0
  3 10  1  0  0  0  0
  4 12  1  1  0  0  0
  5  9  1  0  0  0  0
  6 13  1  0  0  0  0
  7  8  1  1  0  0  0
  7  4  1  0  0  0  0
  8  5  2  0  0  0  0
 10 11  1  0  0  0  0
 10  1  1  0  0  0  0
 11  7  1  0  0  0  0
 12  9  2  0  0  0  0
 13  2  2  0  0  0  0
 14 16  2  0  0  0  0
 14 18  1  0  0  0  0
 15 19  1  0  0  0  0
 16 17  1  0  0  0  0
 17 19  2  0  0  0  0
 18 15  2  0  0  0  0
 19 20  1  0  0  0  0
 20 22  1  0  0  0  0
 20 21  2  0  0  0  0
 23 13  1  0  0  0  0
 24 23  1  0  0  0  0
 25 24  1  0  0  0  0
M  END
>  <MODEL>
7

>  <REMARK>
 VINA RESULT:      -7.4      3.300      5.752
  Name = 
  4 active torsions:
  status: ('A' for Active; 'I' for Inactive)
    1  A    between atoms: C_2  and  C_25
    2  A    between atoms: C_3  and  C_6
    3  A    between atoms: C_13  and  C_14
    4  A    between atoms: C_14  and  C_24
                            x       y       z     vdW  Elec       q    Type
                         _______ _______ _______ _____ _____    ______ ____

>  <TORSDO>
F 4

$$$$
=
 OpenBabel11052412553D

 25 28  0  0  1  0  0  0  0  0999 V2000
  189.9070  177.0420  143.8610 N   0  0  0  0  0  0  0  0  0  0  0  0
  189.0040  177.1550  144.9770 C   0  0  0  0  0  0  0  0  0  0  0  0
  191.7310  176.3530  145.3610 C   0  0  0  0  0  3  0  0  0  0  0  0
  189.8440  177.7540  142.5920 C   0  0  1  0  0  3  0  0  0  0  0  0
  190.6180  177.4880  139.8220 C   0  0  0  0  0  3  0  0  0  0  0  0
  190.8790  176.3880  146.3880 C   0  0  0  0  0  3  0  0  0  0  0  0
  191.2710  177.6360  142.1210 C   0  0  2  0  0  3  0  0  0  0  0  0
  191.5960  177.7510  140.6980 C   0  0  0  0  0  3  0  0  0  0  0  0
  189.2760  177.0450  140.2860 C   0  0  0  0  0  3  0  0  0  0  0  0
  191.2430  176.7080  144.0710 N   0  0  0  0  0  0  0  0  0  0  0  0
  192.0380  177.0440  142.9770 N   0  0  0  0  0  2  0  0  0  0  0  0
  188.9310  177.1050  141.5840 C   0  0  0  0  0  3  0  0  0  0  0  0
  189.4660  176.8120  146.2060 C   0  0  0  0  0  0  0  0  0  0  0  0
  187.6160  177.6200  144.7640 C   0  0  0  0  0  0  0  0  0  0  0  0
  185.5990  178.6890  145.5910 C   0  0  0  0  0  3  0  0  0  0  0  0
  186.9970  177.4350  143.5220 C   0  0  0  0  0  3  0  0  0  0  0  0
  185.6860  177.8730  143.3160 C   0  0  0  0  0  3  0  0  0  0  0  0
  186.9100  178.2510  145.7980 C   0  0  0  0  0  3  0  0  0  0  0  0
  184.9780  178.5020  144.3480 C   0  0  0  0  0  0  0  0  0  0  0  0
  183.5960  178.9650  144.1280 C   0  0  0  0  0  0  0  0  0  0  0  0
  182.8980  179.3660  145.0970 O   0  0  0  0  0  0  0  0  0  0  0  0
  183.0340  178.9630  142.8190 N   0  0  0  0  0  1  0  0  0  0  0  0
  188.5850  176.8140  147.4210 C   0  0  0  0  0  2  0  0  0  0  0  0
  189.0640  177.8320  148.4460 C   0  0  0  0  0  2  0  0  0  0  0  0
  187.9090  178.3030  149.3100 C   0  0  0  0  0  1  0  0  0  0  0  0
  1 10  1  0  0  0  0
  1  2  1  0  0  0  0
  2 13  2  0  0  0  0
  3  6  2  0  0  0  0
  4 12  1  6  0  0  0
  4  1  1  0  0  0  0
  5  9  1  0  0  0  0
  5  8  2  0  0  0  0
  7  8  1  6  0  0  0
  7  4  1  0  0  0  0
  7 11  1  0  0  0  0
  9 12  2  0  0  0  0
 10  3  1  0  0  0  0
 11 10  1  0  0  0  0
 13  6  1  0  0  0  0
 13 23  1  0  0  0  0
 14  2  1  0  0  0  0
 14 18  1  0  0  0  0
 15 18  2  0  0  0  0
 16 14  2  0  0  0  0
 17 16  1  0  0  0  0
 17 19  2  0  0  0  0
 19 15  1  0  0  0  0
 20 19  1  0  0  0  0
 20 21  2  0  0  0  0
 22 20  1  0  0  0  0
 23 24  1  0  0  0  0
 24 25  1  0  0  0  0
M  END
>  <MODEL>
8

>  <REMARK>
 VINA RESULT:      -7.2      2.739      5.825
  Name = 
  4 active torsions:
  status: ('A' for Active; 'I' for Inactive)
    1  A    between atoms: C_2  and  C_25
    2  A    between atoms: C_3  and  C_6
    3  A    between atoms: C_13  and  C_14
    4  A    between atoms: C_14  and  C_24
                            x       y       z     vdW  Elec       q    Type
                         _______ _______ _______ _____ _____    ______ ____

>  <TORSDO>
F 4

$$$$
=
 OpenBabel11052412553D

 25 28  0  0  1  0  0  0  0  0999 V2000
  189.6620  177.4790  142.5720 N   0  0  0  0  0  0  0  0  0  0  0  0
  188.5240  177.8070  141.7540 C   0  0  0  0  0  0  0  0  0  0  0  0
  191.0460  177.1260  140.5690 C   0  0  0  0  0  3  0  0  0  0  0  0
  189.6570  176.9240  143.9190 C   0  0  1  0  0  3  0  0  0  0  0  0
  191.2590  176.8320  146.3210 C   0  0  0  0  0  3  0  0  0  0  0  0
  190.0130  177.4980  139.8100 C   0  0  0  0  0  3  0  0  0  0  0  0
  191.0360  176.3230  143.9920 C   0  0  2  0  0  3  0  0  0  0  0  0
  191.6800  176.0940  145.2860 C   0  0  0  0  0  3  0  0  0  0  0  0
  190.2160  177.8770  146.1380 C   0  0  0  0  0  3  0  0  0  0  0  0
  190.8640  177.0940  141.9820 N   0  0  0  0  0  0  0  0  0  0  0  0
  191.6940  176.4300  142.8830 N   0  0  0  0  0  2  0  0  0  0  0  0
  189.5110  177.9670  144.9980 C   0  0  0  0  0  3  0  0  0  0  0  0
  188.6980  177.8440  140.4090 C   0  0  0  0  0  0  0  0  0  0  0  0
  187.2190  178.1060  142.3830 C   0  0  0  0  0  0  0  0  0  0  0  0
  185.0880  179.2700  142.3700 C   0  0  0  0  0  3  0  0  0  0  0  0
  186.8690  177.5010  143.5960 C   0  0  0  0  0  3  0  0  0  0  0  0
  185.6370  177.7790  144.1940 C   0  0  0  0  0  3  0  0  0  0  0  0
  186.3200  178.9920  141.7720 C   0  0  0  0  0  3  0  0  0  0  0  0
  184.7380  178.6650  143.5860 C   0  0  0  0  0  0  0  0  0  0  0  0
  183.4390  178.9570  144.2160 C   0  0  0  0  0  0  0  0  0  0  0  0
  183.3480  179.0600  145.4680 O   0  0  0  0  0  0  0  0  0  0  0  0
  182.2710  179.1250  143.4180 N   0  0  0  0  0  1  0  0  0  0  0  0
  187.6000  178.2550  139.4710 C   0  0  0  0  0  2  0  0  0  0  0  0
  187.7600  177.5910  138.1110 C   0  0  0  0  0  2  0  0  0  0  0  0
  187.7260  178.6260  137.0040 C   0  0  0  0  0  1  0  0  0  0  0  0
  1  4  1  0  0  0  0
  2 14  1  0  0  0  0
  2  1  1  0  0  0  0
  3 10  1  0  0  0  0
  4  7  1  0  0  0  0
  4 12  1  1  0  0  0
  6 13  1  0  0  0  0
  6  3  2  0  0  0  0
  7  8  1  1  0  0  0
  8  5  2  0  0  0  0
  9  5  1  0  0  0  0
 10  1  1  0  0  0  0
 10 11  1  0  0  0  0
 11  7  1  0  0  0  0
 12  9  2  0  0  0  0
 13  2  2  0  0  0  0
 14 16  1  0  0  0  0
 15 19  2  0  0  0  0
 16 17  2  0  0  0  0
 18 15  1  0  0  0  0
 18 14  2  0  0  0  0
 19 17  1  0  0  0  0
 19 20  1  0  0  0  0
 20 21  2  0  0  0  0
 22 20  1  0  0  0  0
 23 13  1  0  0  0  0
 24 23  1  0  0  0  0
 25 24  1  0  0  0  0
M  END
>  <MODEL>
9

>  <REMARK>
 VINA RESULT:      -7.1      3.009      7.184
  Name = 
  4 active torsions:
  status: ('A' for Active; 'I' for Inactive)
    1  A    between atoms: C_2  and  C_25
    2  A    between atoms: C_3  and  C_6
    3  A    between atoms: C_13  and  C_14
    4  A    between atoms: C_14  and  C_24
                            x       y       z     vdW  Elec       q    Type
                         _______ _______ _______ _____ _____    ______ ____

>  <TORSDO>
F 4

$$$$
