=
 OpenBabel11052412583D

 31 33  0  0  1  0  0  0  0  0999 V2000
  189.3770  176.0150  137.3930 C   0  0  2  0  0  3  0  0  0  0  0  0
  187.9380  176.4530  137.1160 C   0  0  2  0  0  3  0  0  0  0  0  0
  186.0710  176.3730  135.3500 C   0  0  0  0  0  2  0  0  0  0  0  0
  189.6010  174.4980  137.4110 C   0  0  0  0  0  2  0  0  0  0  0  0
  192.6670  175.1700  136.6040 C   0  0  1  0  0  3  0  0  0  0  0  0
  187.2110  175.6180  136.0490 C   0  0  0  0  0  2  0  0  0  0  0  0
  191.4470  176.4680  138.8440 C   0  0  0  0  0  2  0  0  0  0  0  0
  189.1410  178.7500  137.1490 C   0  0  0  0  0  2  0  0  0  0  0  0
  184.9660  176.8960  136.2820 C   0  0  0  0  0  2  0  0  0  0  0  0
  192.3170  176.9540  137.8390 O   0  0  0  0  0  0  0  0  0  0  0  0
  189.9510  176.7770  138.6250 C   0  0  1  0  0  0  0  0  0  0  0  0
  191.9710  176.3870  136.6930 O   0  0  0  0  0  0  0  0  0  0  0  0
  185.4420  177.6330  137.5420 C   0  0  0  0  0  2  0  0  0  0  0  0
  190.4870  174.1400  136.3850 O   0  0  0  0  0  0  0  0  0  0  0  0
  191.7440  174.0130  136.9970 C   0  0  0  0  0  2  0  0  0  0  0  0
  189.7700  178.3010  138.4730 C   0  0  0  0  0  2  0  0  0  0  0  0
  187.8750  177.9610  136.7940 C   0  0  2  0  0  3  0  0  0  0  0  0
  186.5970  178.6240  137.3230 C   0  0  0  0  0  2  0  0  0  0  0  0
  193.1680  174.9690  135.1850 C   0  0  0  0  0  2  0  0  0  0  0  0
  193.8510  176.1070  134.7580 O   0  0  0  0  0  1  0  0  0  0  0  0
  189.1780  176.4130  139.9040 C   0  0  0  0  0  2  0  0  0  0  0  0
  189.2740  177.4490  141.0190 C   0  0  0  0  0  2  0  0  0  0  0  0
  191.0000  176.8970  142.7660 C   0  0  0  0  0  0  0  0  0  0  0  0
  189.6520  176.8050  142.2710 N   0  0  0  0  0  0  0  0  0  0  0  0
  191.8700  177.5440  142.1220 O   0  0  0  0  0  0  0  0  0  0  0  0
  188.6140  176.1370  143.0480 C   0  0  0  0  0  2  0  0  0  0  0  0
  187.6850  177.4310  144.9690 C   0  0  0  0  0  1  0  0  0  0  0  0
  187.5460  177.1270  143.4890 C   0  0  0  0  0  2  0  0  0  0  0  0
  191.3880  176.2580  144.0590 C   0  0  0  0  0  2  0  0  0  0  0  0
  191.4390  177.3010  145.1570 C   0  0  0  0  0  2  0  0  0  0  0  0
  191.2630  176.6280  146.5010 C   0  0  0  0  0  1  0  0  0  0  0  0
  1  4  1  1  0  0  0
  1 11  1  0  0  0  0
  2  6  1  6  0  0  0
  2  1  1  0  0  0  0
  3  6  1  0  0  0  0
  3  9  1  0  0  0  0
  5 19  1  6  0  0  0
  5 12  1  0  0  0  0
  5 15  1  0  0  0  0
  8 16  1  0  0  0  0
  9 13  1  0  0  0  0
 10  7  1  0  0  0  0
 11  7  1  0  0  0  0
 11 21  1  1  0  0  0
 12 10  1  0  0  0  0
 14 15  1  0  0  0  0
 14  4  1  0  0  0  0
 16 11  1  0  0  0  0
 17  2  1  0  0  0  0
 17  8  1  1  0  0  0
 17 18  1  0  0  0  0
 18 13  1  0  0  0  0
 20 19  1  0  0  0  0
 21 22  1  0  0  0  0
 22 24  1  0  0  0  0
 23 29  1  0  0  0  0
 24 23  1  0  0  0  0
 24 26  1  0  0  0  0
 25 23  2  0  0  0  0
 26 28  1  0  0  0  0
 28 27  1  0  0  0  0
 29 30  1  0  0  0  0
 30 31  1  0  0  0  0
M  END
>  <MODEL>
1

>  <REMARK>
 VINA RESULT:      -6.2      0.000      0.000
  Name = 
  8 active torsions:
  status: ('A' for Active; 'I' for Inactive)
    1  A    between atoms: C_1  and  C_8
    2  A    between atoms: C_2  and  C_13
    3  A    between atoms: C_3  and  C_7
    4  A    between atoms: C_3  and  N_22
    5  A    between atoms: C_8  and  C_19
    6  A    between atoms: C_9  and  N_22
    7  A    between atoms: C_9  and  C_23
    8  A    between atoms: C_21  and  C_23
                            x       y       z     vdW  Elec       q    Type
                         _______ _______ _______ _____ _____    ______ ____

>  <TORSDO>
F 8

$$$$
=
 OpenBabel11052412583D

 31 33  0  0  1  0  0  0  0  0999 V2000
  189.4450  175.9020  137.2410 C   0  0  2  0  0  3  0  0  0  0  0  0
  188.0040  176.3360  136.9660 C   0  0  2  0  0  3  0  0  0  0  0  0
  186.1170  176.2070  135.2250 C   0  0  0  0  0  2  0  0  0  0  0  0
  189.6650  174.3860  137.3030 C   0  0  0  0  0  2  0  0  0  0  0  0
  192.7230  175.0240  136.4410 C   0  0  1  0  0  3  0  0  0  0  0  0
  187.2630  175.4700  135.9340 C   0  0  0  0  0  2  0  0  0  0  0  0
  191.5320  176.3940  138.6540 C   0  0  0  0  0  2  0  0  0  0  0  0
  189.2130  178.6290  136.9150 C   0  0  0  0  0  2  0  0  0  0  0  0
  185.0230  176.7610  136.1530 C   0  0  0  0  0  2  0  0  0  0  0  0
  192.3920  176.8460  137.6240 O   0  0  0  0  0  0  0  0  0  0  0  0
  190.0350  176.7000  138.4420 C   0  0  1  0  0  0  0  0  0  0  0  0
  192.0310  176.2460  136.5000 O   0  0  0  0  0  0  0  0  0  0  0  0
  185.5160  177.5360  137.3840 C   0  0  0  0  0  2  0  0  0  0  0  0
  190.5390  173.9940  136.2790 O   0  0  0  0  0  0  0  0  0  0  0  0
  191.8020  173.8820  136.8800 C   0  0  0  0  0  2  0  0  0  0  0  0
  189.8560  178.2200  138.2450 C   0  0  0  0  0  2  0  0  0  0  0  0
  187.9410  177.8330  136.5990 C   0  0  2  0  0  3  0  0  0  0  0  0
  186.6710  178.5160  137.1220 C   0  0  0  0  0  2  0  0  0  0  0  0
  193.2080  174.7780  135.0230 C   0  0  0  0  0  2  0  0  0  0  0  0
  193.8110  173.5240  134.9400 O   0  0  0  0  0  1  0  0  0  0  0  0
  189.2750  176.3780  139.7400 C   0  0  0  0  0  2  0  0  0  0  0  0
  189.1500  177.5500  140.7080 C   0  0  0  0  0  2  0  0  0  0  0  0
  187.9580  177.2670  142.9070 C   0  0  0  0  0  0  0  0  0  0  0  0
  189.1200  177.0650  142.0820 N   0  0  0  0  0  0  0  0  0  0  0  0
  186.9490  177.8640  142.4450 O   0  0  0  0  0  0  0  0  0  0  0  0
  190.2600  176.2980  142.5720 C   0  0  0  0  0  2  0  0  0  0  0  0
  191.6370  177.9960  143.7750 C   0  0  0  0  0  1  0  0  0  0  0  0
  191.5320  177.1310  142.5330 C   0  0  0  0  0  2  0  0  0  0  0  0
  187.9130  176.7520  144.3080 C   0  0  0  0  0  2  0  0  0  0  0  0
  188.2120  177.8730  145.2810 C   0  0  0  0  0  2  0  0  0  0  0  0
  189.0570  177.3410  146.4200 C   0  0  0  0  0  1  0  0  0  0  0  0
  1  4  1  1  0  0  0
  1 11  1  0  0  0  0
  2  6  1  6  0  0  0
  2  1  1  0  0  0  0
  3  6  1  0  0  0  0
  3  9  1  0  0  0  0
  5 19  1  6  0  0  0
  5 12  1  0  0  0  0
  5 15  1  0  0  0  0
  8 16  1  0  0  0  0
  9 13  1  0  0  0  0
 10  7  1  0  0  0  0
 11  7  1  0  0  0  0
 11 21  1  1  0  0  0
 12 10  1  0  0  0  0
 14 15  1  0  0  0  0
 14  4  1  0  0  0  0
 16 11  1  0  0  0  0
 17  8  1  1  0  0  0
 17  2  1  0  0  0  0
 17 18  1  0  0  0  0
 18 13  1  0  0  0  0
 20 19  1  0  0  0  0
 21 22  1  0  0  0  0
 22 24  1  0  0  0  0
 23 29  1  0  0  0  0
 24 26  1  0  0  0  0
 24 23  1  0  0  0  0
 25 23  2  0  0  0  0
 28 26  1  0  0  0  0
 28 27  1  0  0  0  0
 29 30  1  0  0  0  0
 30 31  1  0  0  0  0
M  END
>  <MODEL>
2

>  <REMARK>
 VINA RESULT:      -6.1      1.177      1.864
  Name = 
  8 active torsions:
  status: ('A' for Active; 'I' for Inactive)
    1  A    between atoms: C_1  and  C_8
    2  A    between atoms: C_2  and  C_13
    3  A    between atoms: C_3  and  C_7
    4  A    between atoms: C_3  and  N_22
    5  A    between atoms: C_8  and  C_19
    6  A    between atoms: C_9  and  N_22
    7  A    between atoms: C_9  and  C_23
    8  A    between atoms: C_21  and  C_23
                            x       y       z     vdW  Elec       q    Type
                         _______ _______ _______ _____ _____    ______ ____

>  <TORSDO>
F 8

$$$$
=
 OpenBabel11052412583D

 31 33  0  0  1  0  0  0  0  0999 V2000
  182.8210  177.4510  139.1640 C   0  0  2  0  0  3  0  0  0  0  0  0
  181.6080  178.0010  139.9150 C   0  0  2  0  0  3  0  0  0  0  0  0
  179.0460  177.8540  140.0660 C   0  0  0  0  0  2  0  0  0  0  0  0
  183.0450  175.9410  139.3100 C   0  0  0  0  0  2  0  0  0  0  0  0
  184.5660  176.1200  136.4540 C   0  0  1  0  0  3  0  0  0  0  0  0
  180.3670  177.0940  139.8730 C   0  0  0  0  0  2  0  0  0  0  0  0
  185.2840  177.8910  138.5850 C   0  0  0  0  0  2  0  0  0  0  0  0
  182.3820  180.1200  138.6380 C   0  0  0  0  0  2  0  0  0  0  0  0
  178.9310  178.6420  141.3810 C   0  0  0  0  0  2  0  0  0  0  0  0
  185.1460  178.1070  137.1920 O   0  0  0  0  0  0  0  0  0  0  0  0
  184.0780  178.3290  139.4410 C   0  0  1  0  0  0  0  0  0  0  0  0
  184.1020  177.4070  136.7740 O   0  0  0  0  0  0  0  0  0  0  0  0
  180.1410  179.5120  141.7510 C   0  0  0  0  0  2  0  0  0  0  0  0
  182.9350  175.3240  138.0560 O   0  0  0  0  0  0  0  0  0  0  0  0
  184.2510  175.1540  137.6000 C   0  0  0  0  0  2  0  0  0  0  0  0
  183.7870  179.8200  139.1720 C   0  0  0  0  0  2  0  0  0  0  0  0
  181.2770  179.4350  139.4520 C   0  0  2  0  0  3  0  0  0  0  0  0
  180.7480  180.3160  140.5900 C   0  0  0  0  0  2  0  0  0  0  0  0
  183.9000  175.6380  135.1770 C   0  0  0  0  0  2  0  0  0  0  0  0
  183.8060  174.2470  135.1880 O   0  0  0  0  0  1  0  0  0  0  0  0
  184.4750  178.2660  140.9250 C   0  0  0  0  0  2  0  0  0  0  0  0
  185.9110  178.6920  141.2160 C   0  0  0  0  0  2  0  0  0  0  0  0
  187.7490  177.7290  142.6410 C   0  0  0  0  0  0  0  0  0  0  0  0
  186.3680  178.0960  142.4650 N   0  0  0  0  0  0  0  0  0  0  0  0
  188.5800  177.9240  141.7140 O   0  0  0  0  0  0  0  0  0  0  0  0
  185.4130  177.9600  143.5590 C   0  0  0  0  0  2  0  0  0  0  0  0
  185.3430  179.0400  145.8070 C   0  0  0  0  0  1  0  0  0  0  0  0
  185.2580  179.2730  144.3110 C   0  0  0  0  0  2  0  0  0  0  0  0
  188.2280  177.1390  143.9260 C   0  0  0  0  0  2  0  0  0  0  0  0
  189.2090  178.0800  144.5930 C   0  0  0  0  0  2  0  0  0  0  0  0
  189.7710  177.4240  145.8370 C   0  0  0  0  0  1  0  0  0  0  0  0
  1  4  1  1  0  0  0
  1 11  1  0  0  0  0
  1  2  1  0  0  0  0
  2  6  1  6  0  0  0
  3  9  1  0  0  0  0
  5 19  1  6  0  0  0
  5 12  1  0  0  0  0
  5 15  1  0  0  0  0
  6  3  1  0  0  0  0
  7 11  1  0  0  0  0
  8 16  1  0  0  0  0
  9 13  1  0  0  0  0
 10  7  1  0  0  0  0
 11 21  1  1  0  0  0
 12 10  1  0  0  0  0
 14  4  1  0  0  0  0
 15 14  1  0  0  0  0
 16 11  1  0  0  0  0
 17  8  1  1  0  0  0
 17  2  1  0  0  0  0
 17 18  1  0  0  0  0
 18 13  1  0  0  0  0
 19 20  1  0  0  0  0
 21 22  1  0  0  0  0
 22 24  1  0  0  0  0
 23 29  1  0  0  0  0
 24 23  1  0  0  0  0
 24 26  1  0  0  0  0
 25 23  2  0  0  0  0
 26 28  1  0  0  0  0
 28 27  1  0  0  0  0
 29 30  1  0  0  0  0
 30 31  1  0  0  0  0
M  END
>  <MODEL>
3

>  <REMARK>
 VINA RESULT:      -5.4      4.530      6.441
  Name = 
  8 active torsions:
  status: ('A' for Active; 'I' for Inactive)
    1  A    between atoms: C_1  and  C_8
    2  A    between atoms: C_2  and  C_13
    3  A    between atoms: C_3  and  C_7
    4  A    between atoms: C_3  and  N_22
    5  A    between atoms: C_8  and  C_19
    6  A    between atoms: C_9  and  N_22
    7  A    between atoms: C_9  and  C_23
    8  A    between atoms: C_21  and  C_23
                            x       y       z     vdW  Elec       q    Type
                         _______ _______ _______ _____ _____    ______ ____

>  <TORSDO>
F 8

$$$$
=
 OpenBabel11052412583D

 31 33  0  0  1  0  0  0  0  0999 V2000
  182.2690  178.7280  141.0970 C   0  0  2  0  0  3  0  0  0  0  0  0
  183.4490  178.5560  142.0550 C   0  0  2  0  0  3  0  0  0  0  0  0
  184.4500  179.4240  144.2580 C   0  0  0  0  0  2  0  0  0  0  0  0
  180.8940  178.4120  141.6980 C   0  0  0  0  0  2  0  0  0  0  0  0
  179.7050  180.4360  139.4630 C   0  0  1  0  0  3  0  0  0  0  0  0
  183.1780  179.0300  143.4920 C   0  0  0  0  0  2  0  0  0  0  0  0
  181.4610  178.3090  138.6960 C   0  0  0  0  0  2  0  0  0  0  0  0
  184.6530  179.5500  139.9860 C   0  0  0  0  0  2  0  0  0  0  0  0
  185.5060  178.3150  144.3870 C   0  0  0  0  0  2  0  0  0  0  0  0
  181.3680  179.6530  138.2590 O   0  0  0  0  0  0  0  0  0  0  0  0
  182.5660  178.0310  139.7360 C   0  0  1  0  0  0  0  0  0  0  0  0
  181.1020  180.4070  139.3150 O   0  0  0  0  0  0  0  0  0  0  0  0
  185.8380  177.5500  143.0970 C   0  0  0  0  0  2  0  0  0  0  0  0
  180.0980  179.5660  141.6880 O   0  0  0  0  0  0  0  0  0  0  0  0
  179.2770  179.4510  140.5560 C   0  0  0  0  0  2  0  0  0  0  0  0
  183.9230  178.4850  139.1600 C   0  0  0  0  0  2  0  0  0  0  0  0
  184.7260  179.2000  141.4770 C   0  0  2  0  0  3  0  0  0  0  0  0
  185.9960  178.4220  141.8420 C   0  0  0  0  0  2  0  0  0  0  0  0
  179.2580  181.8400  139.8320 C   0  0  0  0  0  2  0  0  0  0  0  0
  179.5380  182.7160  138.7850 O   0  0  0  0  0  1  0  0  0  0  0  0
  182.7030  176.5100  139.9170 C   0  0  0  0  0  2  0  0  0  0  0  0
  181.5780  175.6930  139.2890 C   0  0  0  0  0  2  0  0  0  0  0  0
  181.2690  173.8780  137.5720 C   0  0  0  0  0  0  0  0  0  0  0  0
  182.1030  174.8610  138.2140 N   0  0  0  0  0  0  0  0  0  0  0  0
  180.0700  173.7320  137.9320 O   0  0  0  0  0  0  0  0  0  0  0  0
  183.4640  175.1050  137.7490 C   0  0  0  0  0  2  0  0  0  0  0  0
  184.8470  176.4860  136.1990 C   0  0  0  0  0  1  0  0  0  0  0  0
  183.4610  175.9360  136.4750 C   0  0  0  0  0  2  0  0  0  0  0  0
  181.7950  173.0380  136.4550 C   0  0  0  0  0  2  0  0  0  0  0  0
  182.1890  171.6720  136.9760 C   0  0  0  0  0  2  0  0  0  0  0  0
  183.6880  171.4960  136.8470 C   0  0  0  0  0  1  0  0  0  0  0  0
  1  4  1  1  0  0  0
  1  2  1  0  0  0  0
  2  6  1  1  0  0  0
  3  9  1  0  0  0  0
  5 19  1  1  0  0  0
  5 15  1  0  0  0  0
  6  3  1  0  0  0  0
  7 11  1  0  0  0  0
 10  7  1  0  0  0  0
 10 12  1  0  0  0  0
 11 21  1  1  0  0  0
 11  1  1  0  0  0  0
 12  5  1  0  0  0  0
 13  9  1  0  0  0  0
 14  4  1  0  0  0  0
 15 14  1  0  0  0  0
 16 11  1  0  0  0  0
 16  8  1  0  0  0  0
 17  8  1  6  0  0  0
 17 18  1  0  0  0  0
 17  2  1  0  0  0  0
 18 13  1  0  0  0  0
 20 19  1  0  0  0  0
 22 21  1  0  0  0  0
 23 25  2  0  0  0  0
 23 24  1  0  0  0  0
 24 22  1  0  0  0  0
 26 24  1  0  0  0  0
 27 28  1  0  0  0  0
 28 26  1  0  0  0  0
 29 30  1  0  0  0  0
 29 23  1  0  0  0  0
 31 30  1  0  0  0  0
M  END
>  <MODEL>
4

>  <REMARK>
 VINA RESULT:      -5.3      6.579     10.413
  Name = 
  8 active torsions:
  status: ('A' for Active; 'I' for Inactive)
    1  A    between atoms: C_1  and  C_8
    2  A    between atoms: C_2  and  C_13
    3  A    between atoms: C_3  and  C_7
    4  A    between atoms: C_3  and  N_22
    5  A    between atoms: C_8  and  C_19
    6  A    between atoms: C_9  and  N_22
    7  A    between atoms: C_9  and  C_23
    8  A    between atoms: C_21  and  C_23
                            x       y       z     vdW  Elec       q    Type
                         _______ _______ _______ _____ _____    ______ ____

>  <TORSDO>
F 8

$$$$
=
 OpenBabel11052412583D

 31 33  0  0  1  0  0  0  0  0999 V2000
  182.6420  177.1680  139.0020 C   0  0  2  0  0  3  0  0  0  0  0  0
  181.4990  177.6880  139.8750 C   0  0  2  0  0  3  0  0  0  0  0  0
  178.9520  177.5670  140.2100 C   0  0  0  0  0  2  0  0  0  0  0  0
  182.8480  175.6480  139.0400 C   0  0  0  0  0  2  0  0  0  0  0  0
  184.1540  175.9810  136.0930 C   0  0  1  0  0  3  0  0  0  0  0  0
  180.2410  176.8030  139.8720 C   0  0  0  0  0  2  0  0  0  0  0  0
  185.0630  177.6080  138.2660 C   0  0  0  0  0  2  0  0  0  0  0  0
  182.2150  179.8700  138.6730 C   0  0  0  0  0  2  0  0  0  0  0  0
  178.9500  178.2750  141.5750 C   0  0  0  0  0  2  0  0  0  0  0  0
  184.8260  177.9110  136.9040 O   0  0  0  0  0  0  0  0  0  0  0  0
  183.9320  178.0100  139.2360 C   0  0  1  0  0  0  0  0  0  0  0  0
  183.7400  177.2530  136.5240 O   0  0  0  0  0  0  0  0  0  0  0  0
  180.2010  179.1030  141.9040 C   0  0  0  0  0  2  0  0  0  0  0  0
  182.6330  175.1120  137.7630 O   0  0  0  0  0  0  0  0  0  0  0  0
  183.9080  174.9510  137.1990 C   0  0  0  0  0  2  0  0  0  0  0  0
  183.6500  179.5180  139.0810 C   0  0  0  0  0  2  0  0  0  0  0  0
  181.1610  179.1520  139.5250 C   0  0  2  0  0  3  0  0  0  0  0  0
  180.7340  179.9680  140.7510 C   0  0  0  0  0  2  0  0  0  0  0  0
  183.3860  175.5880  134.8430 C   0  0  0  0  0  2  0  0  0  0  0  0
  182.2980  176.4420  134.6690 O   0  0  0  0  0  1  0  0  0  0  0  0
  184.4380  177.8490  140.6790 C   0  0  0  0  0  2  0  0  0  0  0  0
  185.3100  178.9980  141.1760 C   0  0  0  0  0  2  0  0  0  0  0  0
  185.3090  178.4270  143.6280 C   0  0  0  0  0  0  0  0  0  0  0  0
  186.0180  178.6020  142.3880 N   0  0  0  0  0  0  0  0  0  0  0  0
  184.0630  178.6110  143.6780 O   0  0  0  0  0  0  0  0  0  0  0  0
  187.4430  178.3070  142.2930 C   0  0  0  0  0  2  0  0  0  0  0  0
  188.7870  177.3020  140.4460 C   0  0  0  0  0  1  0  0  0  0  0  0
  187.9420  178.4890  140.8680 C   0  0  0  0  0  2  0  0  0  0  0  0
  186.0250  178.0000  144.8670 C   0  0  0  0  0  2  0  0  0  0  0  0
  185.7240  178.9630  145.9970 C   0  0  0  0  0  2  0  0  0  0  0  0
  184.9190  178.2530  147.0640 C   0  0  0  0  0  1  0  0  0  0  0  0
  1  4  1  1  0  0  0
  1 11  1  0  0  0  0
  1  2  1  0  0  0  0
  2  6  1  6  0  0  0
  3  9  1  0  0  0  0
  5 19  1  6  0  0  0
  5 12  1  0  0  0  0
  5 15  1  0  0  0  0
  6  3  1  0  0  0  0
  7 11  1  0  0  0  0
  8 16  1  0  0  0  0
  9 13  1  0  0  0  0
 10  7  1  0  0  0  0
 11 21  1  1  0  0  0
 12 10  1  0  0  0  0
 14  4  1  0  0  0  0
 15 14  1  0  0  0  0
 16 11  1  0  0  0  0
 17  8  1  1  0  0  0
 17  2  1  0  0  0  0
 17 18  1  0  0  0  0
 18 13  1  0  0  0  0
 20 19  1  0  0  0  0
 21 22  1  0  0  0  0
 22 24  1  0  0  0  0
 23 25  2  0  0  0  0
 23 29  1  0  0  0  0
 24 23  1  0  0  0  0
 26 24  1  0  0  0  0
 27 28  1  0  0  0  0
 28 26  1  0  0  0  0
 29 30  1  0  0  0  0
 30 31  1  0  0  0  0
M  END
>  <MODEL>
5

>  <REMARK>
 VINA RESULT:      -5.2      4.836      7.055
  Name = 
  8 active torsions:
  status: ('A' for Active; 'I' for Inactive)
    1  A    between atoms: C_1  and  C_8
    2  A    between atoms: C_2  and  C_13
    3  A    between atoms: C_3  and  C_7
    4  A    between atoms: C_3  and  N_22
    5  A    between atoms: C_8  and  C_19
    6  A    between atoms: C_9  and  N_22
    7  A    between atoms: C_9  and  C_23
    8  A    between atoms: C_21  and  C_23
                            x       y       z     vdW  Elec       q    Type
                         _______ _______ _______ _____ _____    ______ ____

>  <TORSDO>
F 8

$$$$
=
 OpenBabel11052412583D

 31 33  0  0  1  0  0  0  0  0999 V2000
  189.0870  177.6560  144.6890 C   0  0  2  0  0  3  0  0  0  0  0  0
  187.6160  178.0710  144.7040 C   0  0  2  0  0  3  0  0  0  0  0  0
  185.6110  178.4750  146.2630 C   0  0  0  0  0  2  0  0  0  0  0  0
  190.0330  178.5910  145.4530 C   0  0  0  0  0  2  0  0  0  0  0  0
  191.9500  176.0010  145.7960 C   0  0  1  0  0  3  0  0  0  0  0  0
  187.1240  178.6310  146.0490 C   0  0  0  0  0  2  0  0  0  0  0  0
  190.9760  176.7430  143.2080 C   0  0  0  0  0  2  0  0  0  0  0  0
  187.4560  175.7840  143.4940 C   0  0  0  0  0  2  0  0  0  0  0  0
  184.7280  179.1440  145.1960 C   0  0  0  0  0  2  0  0  0  0  0  0
  191.1420  175.4770  143.8200 O   0  0  0  0  0  0  0  0  0  0  0  0
  189.5400  177.3070  143.2400 C   0  0  1  0  0  0  0  0  0  0  0  0
  190.8020  175.5940  145.0950 O   0  0  0  0  0  0  0  0  0  0  0  0
  185.1220  178.8800  143.7350 C   0  0  0  0  0  2  0  0  0  0  0  0
  190.6270  177.8960  146.5160 O   0  0  0  0  0  0  0  0  0  0  0  0
  191.8950  177.5090  146.0540 C   0  0  0  0  0  2  0  0  0  0  0  0
  188.5860  176.2860  142.5880 C   0  0  0  0  0  2  0  0  0  0  0  0
  186.7140  176.9230  144.2060 C   0  0  2  0  0  3  0  0  0  0  0  0
  185.5020  177.4260  143.4130 C   0  0  0  0  0  2  0  0  0  0  0  0
  192.0360  175.2550  147.1160 C   0  0  0  0  0  2  0  0  0  0  0  0
  192.8490  175.9570  148.0040 O   0  0  0  0  0  1  0  0  0  0  0  0
  189.4740  178.5460  142.3310 C   0  0  0  0  0  2  0  0  0  0  0  0
  188.3310  178.5300  141.3220 C   0  0  0  0  0  2  0  0  0  0  0  0
  187.9790  178.3210  138.8380 C   0  0  0  0  0  0  0  0  0  0  0  0
  188.8450  178.2550  139.9860 N   0  0  0  0  0  0  0  0  0  0  0  0
  186.7640  178.6250  138.9770 O   0  0  0  0  0  0  0  0  0  0  0  0
  190.2720  177.9930  139.8320 C   0  0  0  0  0  2  0  0  0  0  0  0
  191.6100  176.3650  138.4950 C   0  0  0  0  0  1  0  0  0  0  0  0
  190.5260  176.5210  139.5450 C   0  0  0  0  0  2  0  0  0  0  0  0
  188.5050  178.0610  137.4640 C   0  0  0  0  0  2  0  0  0  0  0  0
  187.5710  177.1300  136.7210 C   0  0  0  0  0  2  0  0  0  0  0  0
  187.7450  175.7190  137.2430 C   0  0  0  0  0  1  0  0  0  0  0  0
  1  2  1  0  0  0  0
  1  4  1  6  0  0  0
  2  6  1  1  0  0  0
  4 14  1  0  0  0  0
  5 15  1  0  0  0  0
  5 19  1  1  0  0  0
  6  3  1  0  0  0  0
  7 11  1  0  0  0  0
  7 10  1  0  0  0  0
  8 17  1  0  0  0  0
  9  3  1  0  0  0  0
 10 12  1  0  0  0  0
 11 21  1  6  0  0  0
 11  1  1  0  0  0  0
 12  5  1  0  0  0  0
 13  9  1  0  0  0  0
 15 14  1  0  0  0  0
 16 11  1  0  0  0  0
 16  8  1  0  0  0  0
 17 18  1  6  0  0  0
 17  2  1  0  0  0  0
 18 13  1  0  0  0  0
 19 20  1  0  0  0  0
 22 21  1  0  0  0  0
 23 25  2  0  0  0  0
 23 24  1  0  0  0  0
 24 22  1  0  0  0  0
 26 24  1  0  0  0  0
 27 28  1  0  0  0  0
 28 26  1  0  0  0  0
 29 23  1  0  0  0  0
 30 31  1  0  0  0  0
 30 29  1  0  0  0  0
M  END
>  <MODEL>
6

>  <REMARK>
 VINA RESULT:      -5.0      2.996      7.872
  Name = 
  8 active torsions:
  status: ('A' for Active; 'I' for Inactive)
    1  A    between atoms: C_1  and  C_8
    2  A    between atoms: C_2  and  C_13
    3  A    between atoms: C_3  and  C_7
    4  A    between atoms: C_3  and  N_22
    5  A    between atoms: C_8  and  C_19
    6  A    between atoms: C_9  and  N_22
    7  A    between atoms: C_9  and  C_23
    8  A    between atoms: C_21  and  C_23
                            x       y       z     vdW  Elec       q    Type
                         _______ _______ _______ _____ _____    ______ ____

>  <TORSDO>
F 8

$$$$
=
 OpenBabel11052412583D

 31 33  0  0  1  0  0  0  0  0999 V2000
  187.5130  176.0700  136.7970 C   0  0  2  0  0  3  0  0  0  0  0  0
  186.0280  175.7180  136.6960 C   0  0  2  0  0  3  0  0  0  0  0  0
  184.3970  173.9250  135.8380 C   0  0  0  0  0  2  0  0  0  0  0  0
  188.3580  175.0900  137.6200 C   0  0  0  0  0  2  0  0  0  0  0  0
  190.8620  176.1000  135.8260 C   0  0  1  0  0  3  0  0  0  0  0  0
  185.7400  174.2170  136.5250 C   0  0  0  0  0  2  0  0  0  0  0  0
  189.1740  177.9980  137.1460 C   0  0  0  0  0  2  0  0  0  0  0  0
  186.1440  177.7620  135.1060 C   0  0  0  0  0  2  0  0  0  0  0  0
  183.1610  174.4990  136.5480 C   0  0  0  0  0  2  0  0  0  0  0  0
  189.7710  178.0070  135.8620 O   0  0  0  0  0  0  0  0  0  0  0  0
  187.6920  177.5700  137.1790 C   0  0  1  0  0  0  0  0  0  0  0  0
  189.7140  176.7750  135.3780 O   0  0  0  0  0  0  0  0  0  0  0  0
  183.2610  175.9670  136.9910 C   0  0  0  0  0  2  0  0  0  0  0  0
  189.3280  174.4990  136.7980 O   0  0  0  0  0  0  0  0  0  0  0  0
  190.5110  175.2180  137.0280 C   0  0  0  0  0  2  0  0  0  0  0  0
  186.8840  178.4860  136.2370 C   0  0  0  0  0  2  0  0  0  0  0  0
  185.3370  176.5560  135.6010 C   0  0  2  0  0  3  0  0  0  0  0  0
  183.8910  176.9190  135.9610 C   0  0  0  0  0  2  0  0  0  0  0  0
  191.4220  175.2430  134.7050 C   0  0  0  0  0  2  0  0  0  0  0  0
  192.3650  174.3520  135.2160 O   0  0  0  0  0  1  0  0  0  0  0  0
  187.1270  177.8500  138.5820 C   0  0  0  0  0  2  0  0  0  0  0  0
  188.1150  178.5010  139.5450 C   0  0  0  0  0  2  0  0  0  0  0  0
  186.6200  178.6230  141.5660 C   0  0  0  0  0  0  0  0  0  0  0  0
  187.8030  178.1210  140.9170 N   0  0  0  0  0  0  0  0  0  0  0  0
  185.8380  179.3950  140.9500 O   0  0  0  0  0  0  0  0  0  0  0  0
  188.6700  177.1560  141.5840 C   0  0  0  0  0  2  0  0  0  0  0  0
  189.8490  177.4030  143.7700 C   0  0  0  0  0  1  0  0  0  0  0  0
  189.7960  177.8610  142.3240 C   0  0  0  0  0  2  0  0  0  0  0  0
  186.2830  178.2190  142.9640 C   0  0  0  0  0  2  0  0  0  0  0  0
  184.8410  178.5680  143.2690 C   0  0  0  0  0  2  0  0  0  0  0  0
  184.7030  178.9030  144.7390 C   0  0  0  0  0  1  0  0  0  0  0  0
  1 11  1  0  0  0  0
  1  4  1  1  0  0  0
  2  6  1  6  0  0  0
  2  1  1  0  0  0  0
  3  6  1  0  0  0  0
  3  9  1  0  0  0  0
  5 19  1  6  0  0  0
  5 15  1  0  0  0  0
  7 11  1  0  0  0  0
  8 16  1  0  0  0  0
  9 13  1  0  0  0  0
 10  7  1  0  0  0  0
 11 21  1  1  0  0  0
 12  5  1  0  0  0  0
 12 10  1  0  0  0  0
 14 15  1  0  0  0  0
 14  4  1  0  0  0  0
 16 11  1  0  0  0  0
 17  8  1  1  0  0  0
 17 18  1  0  0  0  0
 17  2  1  0  0  0  0
 18 13  1  0  0  0  0
 19 20  1  0  0  0  0
 21 22  1  0  0  0  0
 22 24  1  0  0  0  0
 23 29  1  0  0  0  0
 24 23  1  0  0  0  0
 24 26  1  0  0  0  0
 25 23  2  0  0  0  0
 26 28  1  0  0  0  0
 28 27  1  0  0  0  0
 29 30  1  0  0  0  0
 30 31  1  0  0  0  0
M  END
>  <MODEL>
7

>  <REMARK>
 VINA RESULT:      -4.9      2.263      3.485
  Name = 
  8 active torsions:
  status: ('A' for Active; 'I' for Inactive)
    1  A    between atoms: C_1  and  C_8
    2  A    between atoms: C_2  and  C_13
    3  A    between atoms: C_3  and  C_7
    4  A    between atoms: C_3  and  N_22
    5  A    between atoms: C_8  and  C_19
    6  A    between atoms: C_9  and  N_22
    7  A    between atoms: C_9  and  C_23
    8  A    between atoms: C_21  and  C_23
                            x       y       z     vdW  Elec       q    Type
                         _______ _______ _______ _____ _____    ______ ____

>  <TORSDO>
F 8

$$$$
=
 OpenBabel11052412583D

 31 33  0  0  1  0  0  0  0  0999 V2000
  180.8110  177.8550  139.4530 C   0  0  2  0  0  3  0  0  0  0  0  0
  180.6270  179.3120  139.0280 C   0  0  2  0  0  3  0  0  0  0  0  0
  178.9310  180.9600  138.0190 C   0  0  0  0  0  2  0  0  0  0  0  0
  179.8790  177.3850  140.5770 C   0  0  0  0  0  2  0  0  0  0  0  0
  180.2820  174.4090  139.3570 C   0  0  1  0  0  3  0  0  0  0  0  0
  179.1640  179.7830  138.9790 C   0  0  0  0  0  2  0  0  0  0  0  0
  182.5550  176.0410  139.9630 C   0  0  0  0  0  2  0  0  0  0  0  0
  182.3640  178.5170  137.2750 C   0  0  0  0  0  2  0  0  0  0  0  0
  179.7550  182.2220  138.3200 C   0  0  0  0  0  2  0  0  0  0  0  0
  182.2880  175.1690  138.8800 O   0  0  0  0  0  0  0  0  0  0  0  0
  182.3190  177.5380  139.6770 C   0  0  1  0  0  0  0  0  0  0  0  0
  181.0110  175.3030  138.5550 O   0  0  0  0  0  0  0  0  0  0  0  0
  181.2520  182.0000  138.5860 C   0  0  0  0  0  2  0  0  0  0  0  0
  179.0520  176.3560  140.1050 O   0  0  0  0  0  0  0  0  0  0  0  0
  179.6510  175.1610  140.5330 C   0  0  0  0  0  2  0  0  0  0  0  0
  183.1640  177.9550  138.4550 C   0  0  0  0  0  2  0  0  0  0  0  0
  181.3580  179.5940  137.6990 C   0  0  2  0  0  3  0  0  0  0  0  0
  181.9450  181.0100  137.6370 C   0  0  0  0  0  2  0  0  0  0  0  0
  179.1960  173.7460  138.5290 C   0  0  0  0  0  2  0  0  0  0  0  0
  179.6080  172.4720  138.1410 O   0  0  0  0  0  1  0  0  0  0  0  0
  182.8850  178.3610  140.8470 C   0  0  0  0  0  2  0  0  0  0  0  0
  184.2770  178.9340  140.6030 C   0  0  0  0  0  2  0  0  0  0  0  0
  186.5980  178.5540  141.5010 C   0  0  0  0  0  0  0  0  0  0  0  0
  185.1720  178.5590  141.6920 N   0  0  0  0  0  0  0  0  0  0  0  0
  187.0900  178.8810  140.3880 O   0  0  0  0  0  0  0  0  0  0  0  0
  184.5910  178.2700  142.9980 C   0  0  0  0  0  2  0  0  0  0  0  0
  185.0300  179.2660  145.2440 C   0  0  0  0  0  1  0  0  0  0  0  0
  184.5070  179.5310  143.8450 C   0  0  0  0  0  2  0  0  0  0  0  0
  187.5210  178.1920  142.6190 C   0  0  0  0  0  2  0  0  0  0  0  0
  188.4910  177.1230  142.1620 C   0  0  0  0  0  2  0  0  0  0  0  0
  188.7130  176.1310  143.2850 C   0  0  0  0  0  1  0  0  0  0  0  0
  1 11  1  0  0  0  0
  1  4  1  1  0  0  0
  2  6  1  6  0  0  0
  2  1  1  0  0  0  0
  3  9  1  0  0  0  0
  3  6  1  0  0  0  0
  5 19  1  6  0  0  0
  5 15  1  0  0  0  0
  8 16  1  0  0  0  0
  9 13  1  0  0  0  0
 10  7  1  0  0  0  0
 11  7  1  0  0  0  0
 11 21  1  1  0  0  0
 12 10  1  0  0  0  0
 12  5  1  0  0  0  0
 14 15  1  0  0  0  0
 14  4  1  0  0  0  0
 16 11  1  0  0  0  0
 17  8  1  1  0  0  0
 17  2  1  0  0  0  0
 18 17  1  0  0  0  0
 18 13  1  0  0  0  0
 20 19  1  0  0  0  0
 22 21  1  0  0  0  0
 22 24  1  0  0  0  0
 23 24  1  0  0  0  0
 23 29  1  0  0  0  0
 24 26  1  0  0  0  0
 25 23  2  0  0  0  0
 26 28  1  0  0  0  0
 28 27  1  0  0  0  0
 30 29  1  0  0  0  0
 30 31  1  0  0  0  0
M  END
>  <MODEL>
8

>  <REMARK>
 VINA RESULT:      -4.9      5.911      8.452
  Name = 
  8 active torsions:
  status: ('A' for Active; 'I' for Inactive)
    1  A    between atoms: C_1  and  C_8
    2  A    between atoms: C_2  and  C_13
    3  A    between atoms: C_3  and  C_7
    4  A    between atoms: C_3  and  N_22
    5  A    between atoms: C_8  and  C_19
    6  A    between atoms: C_9  and  N_22
    7  A    between atoms: C_9  and  C_23
    8  A    between atoms: C_21  and  C_23
                            x       y       z     vdW  Elec       q    Type
                         _______ _______ _______ _____ _____    ______ ____

>  <TORSDO>
F 8

$$$$
=
 OpenBabel11052412583D

 31 33  0  0  1  0  0  0  0  0999 V2000
  182.2640  178.5260  140.7110 C   0  0  2  0  0  3  0  0  0  0  0  0
  183.4720  178.4400  141.6440 C   0  0  2  0  0  3  0  0  0  0  0  0
  184.4210  179.3260  143.8640 C   0  0  0  0  0  2  0  0  0  0  0  0
  180.9390  178.0500  141.3200 C   0  0  0  0  0  2  0  0  0  0  0  0
  179.5100  180.0220  139.1810 C   0  0  1  0  0  3  0  0  0  0  0  0
  183.1820  178.8320  143.1020 C   0  0  0  0  0  2  0  0  0  0  0  0
  181.4580  178.1140  138.3080 C   0  0  0  0  0  2  0  0  0  0  0  0
  184.5310  179.6260  139.5960 C   0  0  0  0  0  2  0  0  0  0  0  0
  185.5860  178.3250  143.9350 C   0  0  0  0  0  2  0  0  0  0  0  0
  181.2210  179.4560  137.9230 O   0  0  0  0  0  0  0  0  0  0  0  0
  182.6040  177.9120  139.3200 C   0  0  1  0  0  0  0  0  0  0  0  0
  180.9000  180.1410  139.0110 O   0  0  0  0  0  0  0  0  0  0  0  0
  185.9700  177.6450  142.6120 C   0  0  0  0  0  2  0  0  0  0  0  0
  180.0310  179.1160  141.3650 O   0  0  0  0  0  0  0  0  0  0  0  0
  179.2050  178.9600  140.2420 C   0  0  0  0  0  2  0  0  0  0  0  0
  183.8980  178.5230  138.7420 C   0  0  0  0  0  2  0  0  0  0  0  0
  184.6670  179.2320  141.0720 C   0  0  2  0  0  3  0  0  0  0  0  0
  186.0160  178.5740  141.3880 C   0  0  0  0  0  2  0  0  0  0  0  0
  178.9310  181.3580  139.6100 C   0  0  0  0  0  2  0  0  0  0  0  0
  179.3600  182.3610  138.7420 O   0  0  0  0  0  1  0  0  0  0  0  0
  182.8980  176.4070  139.4420 C   0  0  0  0  0  2  0  0  0  0  0  0
  182.3750  175.5640  138.2830 C   0  0  0  0  0  2  0  0  0  0  0  0
  183.5950  175.9550  136.1160 C   0  0  0  0  0  0  0  0  0  0  0  0
  183.4610  175.2490  137.3630 N   0  0  0  0  0  0  0  0  0  0  0  0
  182.7740  176.8610  135.8080 O   0  0  0  0  0  0  0  0  0  0  0  0
  184.4530  174.2620  137.7730 C   0  0  0  0  0  2  0  0  0  0  0  0
  185.0980  172.2240  136.4850 C   0  0  0  0  0  1  0  0  0  0  0  0
  184.0310  172.8610  137.3540 C   0  0  0  0  0  2  0  0  0  0  0  0
  184.7180  175.6520  135.1790 C   0  0  0  0  0  2  0  0  0  0  0  0
  185.4620  176.9250  134.8340 C   0  0  0  0  0  2  0  0  0  0  0  0
  186.2950  177.3600  136.0220 C   0  0  0  0  0  1  0  0  0  0  0  0
  1  4  1  1  0  0  0
  1  2  1  0  0  0  0
  2  6  1  1  0  0  0
  3  9  1  0  0  0  0
  4 14  1  0  0  0  0
  5 19  1  1  0  0  0
  5 15  1  0  0  0  0
  6  3  1  0  0  0  0
  7 11  1  0  0  0  0
 10  7  1  0  0  0  0
 10 12  1  0  0  0  0
 11 21  1  1  0  0  0
 11  1  1  0  0  0  0
 12  5  1  0  0  0  0
 13  9  1  0  0  0  0
 15 14  1  0  0  0  0
 16 11  1  0  0  0  0
 16  8  1  0  0  0  0
 17  8  1  6  0  0  0
 17 18  1  0  0  0  0
 17  2  1  0  0  0  0
 18 13  1  0  0  0  0
 20 19  1  0  0  0  0
 22 21  1  0  0  0  0
 23 24  1  0  0  0  0
 24 26  1  0  0  0  0
 24 22  1  0  0  0  0
 25 23  2  0  0  0  0
 27 28  1  0  0  0  0
 28 26  1  0  0  0  0
 29 23  1  0  0  0  0
 30 29  1  0  0  0  0
 30 31  1  0  0  0  0
M  END
>  <MODEL>
9

>  <REMARK>
 VINA RESULT:      -4.9      6.049      9.991
  Name = 
  8 active torsions:
  status: ('A' for Active; 'I' for Inactive)
    1  A    between atoms: C_1  and  C_8
    2  A    between atoms: C_2  and  C_13
    3  A    between atoms: C_3  and  C_7
    4  A    between atoms: C_3  and  N_22
    5  A    between atoms: C_8  and  C_19
    6  A    between atoms: C_9  and  N_22
    7  A    between atoms: C_9  and  C_23
    8  A    between atoms: C_21  and  C_23
                            x       y       z     vdW  Elec       q    Type
                         _______ _______ _______ _____ _____    ______ ____

>  <TORSDO>
F 8

$$$$
