=
 OpenBabel11052415083D

 55 61  0  0  1  0  0  0  0  0999 V2000
  186.0830  178.0520  143.8040 C   0  0  0  0  0  2  0  0  0  0  0  0
  183.3120  178.8040  143.5320 C   0  0  0  0  0  0  0  0  0  0  0  0
  184.0160  178.5290  142.4330 C   0  0  0  0  0  3  0  0  0  0  0  0
  185.4340  178.9730  144.8330 C   0  0  0  0  0  2  0  0  0  0  0  0
  185.4040  178.1700  142.5120 N   0  0  0  0  0  0  0  0  0  0  0  0
  183.9360  178.6870  144.8920 C   0  0  0  0  0  2  0  0  0  0  0  0
  186.1420  177.9740  141.3370 N   0  0  0  0  0  2  0  0  0  0  0  0
  187.4270  178.6350  141.5130 C   0  0  0  0  0  2  0  0  0  0  0  0
  189.1530  176.4200  137.3200 C   0  0  0  0  0  2  0  0  0  0  0  0
  188.9370  177.7860  143.8720 C   0  0  0  0  0  2  0  0  0  0  0  0
  191.2950  175.1720  137.4640 C   0  0  0  0  0  2  0  0  0  0  0  0
  190.5360  176.5310  139.4430 C   0  0  0  0  0  0  0  0  0  0  0  0
  191.7030  175.8830  138.7490 C   0  0  0  0  0  2  0  0  0  0  0  0
  190.4650  176.1120  136.6070 C   0  0  0  0  0  2  0  0  0  0  0  0
  189.3590  176.8720  138.7470 C   0  0  0  0  0  0  0  0  0  0  0  0
  189.7010  177.5150  141.4490 C   0  0  0  0  0  0  0  0  0  0  0  0
  191.2870  177.9930  143.3580 C   0  0  0  0  0  2  0  0  0  0  0  0
  190.6750  176.8770  140.7460 N   0  0  0  0  0  0  0  0  0  0  0  0
  191.1500  178.0190  144.8700 C   0  0  1  0  0  3  0  0  0  0  0  0
  188.3330  177.5470  139.4340 C   0  0  0  0  0  0  0  0  0  0  0  0
  189.6570  178.1350  145.1590 C   0  0  0  0  0  2  0  0  0  0  0  0
  188.5000  177.8720  140.7970 C   0  0  0  0  0  0  0  0  0  0  0  0
  189.9460  177.8300  142.8320 N   0  0  0  0  0  0  0  0  0  0  0  0
  187.0740  177.9340  138.7100 C   0  0  0  0  0  2  0  0  0  0  0  0
  186.8290  177.9140  136.1950 N   0  0  0  0  0  2  0  0  0  0  0  0
  188.1600  179.5000  137.2780 O   0  0  0  0  0  0  0  0  0  0  0  0
  187.1350  178.4090  134.8640 C   0  0  0  0  0  1  0  0  0  0  0  0
  187.3870  178.5070  137.3680 C   0  0  0  0  0  0  0  0  0  0  0  0
  191.6980  176.7210  145.4400 C   0  0  0  0  0  2  0  0  0  0  0  0
  191.3490  176.5880  146.8840 C   0  0  0  0  0  0  0  0  0  0  0  0
  192.0970  177.0930  147.7620 O   0  0  0  0  0  1  0  0  0  0  0  0
  190.1820  175.9360  147.2610 O   0  0  0  0  0  0  0  0  0  0  0  0
  181.8820  179.1950  143.4040 C   0  0  0  0  0  2  0  0  0  0  0  0
  181.3850  178.8990  141.9970 C   0  0  0  0  0  2  0  0  0  0  0  0
  180.0480  179.4450  141.8070 N   0  0  0  0  0  2  0  0  0  0  0  0
  180.0720  180.3340  140.6550 C   0  0  0  0  0  2  0  0  0  0  0  0
  179.4810  179.6410  139.4370 C   0  0  0  0  0  2  0  0  0  0  0  0
  180.1350  178.4130  139.2440 O   0  0  0  0  0  0  0  0  0  0  0  0
  182.7020  176.9270  136.4510 C   0  0  2  0  0  0  0  0  0  0  0  0
  180.6540  174.9150  134.9200 S   0  0  0  0  0  1  0  0  0  0  0  0
  180.6210  177.3440  137.0610 C   0  0  2  0  0  0  0  0  0  0  0  0
  180.8200  179.7180  137.4590 F   0  0  0  0  0  0  0  0  0  0  0  0
  180.5080  175.5910  139.0710 C   0  0  0  0  0  1  0  0  0  0  0  0
  180.8720  175.9260  137.6210 C   0  0  2  0  0  0  0  0  0  0  0  0
  180.9450  178.4820  138.0860 C   0  0  1  0  0  0  0  0  0  0  0  0
  183.3670  177.9520  137.3910 C   0  0  0  0  0  2  0  0  0  0  0  0
  182.3090  175.6330  137.1840 C   0  0  1  0  0  0  0  0  0  0  0  0
  183.6290  176.6270  135.2890 C   0  0  0  0  0  1  0  0  0  0  0  0
  181.1560  174.7480  136.6740 C   0  0  2  0  0  0  0  0  0  0  0  0
  182.4150  178.3470  138.5360 C   0  0  0  0  0  2  0  0  0  0  0  0
  179.3220  177.4430  136.5960 F   0  0  0  0  0  0  0  0  0  0  0  0
  183.2410  175.0700  138.2620 C   0  0  0  0  0  1  0  0  0  0  0  0
  181.5120  177.5080  135.9820 O   0  0  0  0  0  0  0  0  0  0  0  0
  181.0730  173.3400  137.2630 C   0  0  0  0  0  2  0  0  0  0  0  0
  181.7270  172.4350  136.4270 O   0  0  0  0  0  1  0  0  0  0  0  0
  1  4  1  0  0  0  0
  2  6  1  0  0  0  0
  3  5  1  0  0  0  0
  3  2  2  0  0  0  0
  4  6  1  0  0  0  0
  5  1  1  0  0  0  0
  7  8  1  0  0  0  0
  7  5  1  0  0  0  0
  9 15  1  0  0  0  0
 10 21  1  0  0  0  0
 11 13  1  0  0  0  0
 12 18  1  0  0  0  0
 13 12  1  0  0  0  0
 14  9  1  0  0  0  0
 14 11  1  0  0  0  0
 15 20  1  0  0  0  0
 15 12  2  0  0  0  0
 16 23  1  0  0  0  0
 17 19  1  0  0  0  0
 18 16  2  0  0  0  0
 19 21  1  0  0  0  0
 19 29  1  1  0  0  0
 20 22  2  0  0  0  0
 22 16  1  0  0  0  0
 22  8  1  0  0  0  0
 23 17  1  0  0  0  0
 23 10  1  0  0  0  0
 24 20  1  0  0  0  0
 25 28  1  0  0  0  0
 26 28  2  0  0  0  0
 27 25  1  0  0  0  0
 28 24  1  0  0  0  0
 29 30  1  0  0  0  0
 30 32  2  0  0  0  0
 30 31  1  0  0  0  0
 33  2  1  0  0  0  0
 34 33  1  0  0  0  0
 35 34  1  0  0  0  0
 36 35  1  0  0  0  0
 37 36  1  0  0  0  0
 38 37  1  0  0  0  0
 39 48  1  6  0  0  0
 39 47  1  0  0  0  0
 39 46  1  0  0  0  0
 41 51  1  6  0  0  0
 41 44  1  0  0  0  0
 41 45  1  0  0  0  0
 44 43  1  1  0  0  0
 45 42  1  6  0  0  0
 45 50  1  0  0  0  0
 45 38  1  0  0  0  0
 46 50  1  0  0  0  0
 47 44  1  0  0  0  0
 47 52  1  1  0  0  0
 49 40  1  6  0  0  0
 49 47  1  0  0  0  0
 49 54  1  0  0  0  0
 49 44  1  0  0  0  0
 53 39  1  0  0  0  0
 53 41  1  0  0  0  0
 55 54  1  0  0  0  0
M  END
>  <MODEL>
1

>  <REMARK>
 VINA RESULT:      -8.0      0.000      0.000
  Name = 
  15 active torsions:
  status: ('A' for Active; 'I' for Inactive)
    1  A    between atoms: N_2  and  C_28
    2  A    between atoms: N_2  and  N_44
    3  A    between atoms: C_8  and  O_22
    4  A    between atoms: C_8  and  C_43
    5  A    between atoms: C_10  and  C_32
    6  A    between atoms: C_11  and  C_38
    7  A    between atoms: C_19  and  C_40
    8  A    between atoms: C_19  and  C_45
    9  A    between atoms: C_20  and  O_22
   10  A    between atoms: C_27  and  C_54
   11  A    between atoms: C_28  and  C_49
   12  A    between atoms: C_32  and  C_39
   13  A    between atoms: N_35  and  C_43
   14  A    between atoms: N_35  and  C_51
   15  A    between atoms: C_51  and  C_54
                            x       y       z     vdW  Elec       q    Type
                         _______ _______ _______ _____ _____    ______ ____

>  <TORSDO>
F 15

$$$$
=
 OpenBabel11052415083D

 55 61  0  0  1  0  0  0  0  0999 V2000
  180.5960  178.9980  138.8340 C   0  0  0  0  0  2  0  0  0  0  0  0
  180.5450  179.4320  141.6850 C   0  0  0  0  0  0  0  0  0  0  0  0
  181.0480  178.2880  141.2170 C   0  0  0  0  0  3  0  0  0  0  0  0
  179.5170  179.8780  139.4560 C   0  0  0  0  0  2  0  0  0  0  0  0
  181.0780  178.0150  139.8070 N   0  0  0  0  0  0  0  0  0  0  0  0
  180.0490  180.4930  140.7470 C   0  0  0  0  0  2  0  0  0  0  0  0
  181.5300  176.7710  139.3480 N   0  0  0  0  0  2  0  0  0  0  0  0
  181.5790  176.8340  137.8940 C   0  0  0  0  0  2  0  0  0  0  0  0
  181.5130  172.0950  136.1600 C   0  0  0  0  0  2  0  0  0  0  0  0
  184.2880  177.6700  138.6210 C   0  0  0  0  0  2  0  0  0  0  0  0
  183.6910  171.0080  135.6690 C   0  0  0  0  0  2  0  0  0  0  0  0
  183.6510  173.4550  136.2590 C   0  0  0  0  0  0  0  0  0  0  0  0
  184.4200  172.3440  135.5990 C   0  0  0  0  0  2  0  0  0  0  0  0
  182.2600  171.1870  135.1900 C   0  0  0  0  0  2  0  0  0  0  0  0
  182.2560  173.3800  136.4440 C   0  0  0  0  0  0  0  0  0  0  0  0
  183.7040  175.6710  137.1420 C   0  0  0  0  0  0  0  0  0  0  0  0
  185.7520  177.1070  136.7860 C   0  0  0  0  0  2  0  0  0  0  0  0
  184.3160  174.5890  136.5900 N   0  0  0  0  0  0  0  0  0  0  0  0
  186.4300  178.2040  137.5860 C   0  0  1  0  0  3  0  0  0  0  0  0
  181.5810  174.4840  136.9960 C   0  0  0  0  0  0  0  0  0  0  0  0
  185.3910  178.7090  138.5820 C   0  0  0  0  0  2  0  0  0  0  0  0
  182.3060  175.6410  137.3520 C   0  0  0  0  0  0  0  0  0  0  0  0
  184.5020  176.8230  137.4640 N   0  0  0  0  0  0  0  0  0  0  0  0
  180.0910  174.4330  137.1900 C   0  0  0  0  0  2  0  0  0  0  0  0
  179.8540  174.3840  139.7040 N   0  0  0  0  0  2  0  0  0  0  0  0
  179.3720  172.5080  138.3970 O   0  0  0  0  0  0  0  0  0  0  0  0
  179.5660  173.7150  140.9620 C   0  0  0  0  0  1  0  0  0  0  0  0
  179.7430  173.7120  138.4490 C   0  0  0  0  0  0  0  0  0  0  0  0
  187.6230  177.6160  138.3230 C   0  0  0  0  0  2  0  0  0  0  0  0
  188.8970  178.2270  137.8430 C   0  0  0  0  0  0  0  0  0  0  0  0
  189.1360  179.4430  138.0670 O   0  0  0  0  0  1  0  0  0  0  0  0
  189.8350  177.4490  137.1770 O   0  0  0  0  0  0  0  0  0  0  0  0
  180.5110  179.6650  143.1550 C   0  0  0  0  0  2  0  0  0  0  0  0
  181.5340  178.7780  143.8470 C   0  0  0  0  0  2  0  0  0  0  0  0
  182.8150  179.4640  143.9450 N   0  0  0  0  0  2  0  0  0  0  0  0
  183.8560  178.5680  143.4630 C   0  0  0  0  0  2  0  0  0  0  0  0
  185.2310  179.1160  143.8110 C   0  0  0  0  0  2  0  0  0  0  0  0
  186.0990  178.0450  144.0760 O   0  0  0  0  0  0  0  0  0  0  0  0
  189.5950  177.7390  142.0070 C   0  0  2  0  0  0  0  0  0  0  0  0
  190.8140  175.1080  143.4850 S   0  0  0  0  0  1  0  0  0  0  0  0
  188.0390  176.7560  143.2270 C   0  0  2  0  0  0  0  0  0  0  0  0
  186.1100  177.3090  141.8820 F   0  0  0  0  0  0  0  0  0  0  0  0
  188.5620  178.0250  145.5160 C   0  0  0  0  0  1  0  0  0  0  0  0
  189.0480  177.2550  144.2850 C   0  0  2  0  0  0  0  0  0  0  0  0
  186.8910  177.7780  142.9340 C   0  0  1  0  0  0  0  0  0  0  0  0
  188.7320  178.9310  141.5500 C   0  0  0  0  0  2  0  0  0  0  0  0
  190.1330  177.9210  143.4360 C   0  0  1  0  0  0  0  0  0  0  0  0
  190.7330  177.5310  141.0270 C   0  0  0  0  0  1  0  0  0  0  0  0
  190.4850  176.7070  144.3170 C   0  0  2  0  0  0  0  0  0  0  0  0
  187.5140  179.1140  142.4770 C   0  0  0  0  0  2  0  0  0  0  0  0
  187.5300  175.5260  143.6040 F   0  0  0  0  0  0  0  0  0  0  0  0
  190.5890  179.3120  143.8930 C   0  0  0  0  0  1  0  0  0  0  0  0
  188.7620  176.6080  142.0270 O   0  0  0  0  0  0  0  0  0  0  0  0
  191.3170  176.9950  145.5650 C   0  0  0  0  0  2  0  0  0  0  0  0
  192.0680  175.8710  145.9080 O   0  0  0  0  0  1  0  0  0  0  0  0
  1  4  1  0  0  0  0
  1  5  1  0  0  0  0
  2 33  1  0  0  0  0
  3  2  2  0  0  0  0
  4  6  1  0  0  0  0
  5  3  1  0  0  0  0
  6  2  1  0  0  0  0
  7  5  1  0  0  0  0
  8  7  1  0  0  0  0
  9 15  1  0  0  0  0
 12 15  2  0  0  0  0
 12 18  1  0  0  0  0
 13 11  1  0  0  0  0
 13 12  1  0  0  0  0
 14 11  1  0  0  0  0
 14  9  1  0  0  0  0
 15 20  1  0  0  0  0
 16 22  1  0  0  0  0
 16 23  1  0  0  0  0
 17 23  1  0  0  0  0
 17 19  1  0  0  0  0
 18 16  2  0  0  0  0
 19 29  1  1  0  0  0
 19 21  1  0  0  0  0
 20 24  1  0  0  0  0
 20 22  2  0  0  0  0
 21 10  1  0  0  0  0
 22  8  1  0  0  0  0
 23 10  1  0  0  0  0
 24 28  1  0  0  0  0
 25 27  1  0  0  0  0
 26 28  2  0  0  0  0
 28 25  1  0  0  0  0
 30 31  1  0  0  0  0
 30 29  1  0  0  0  0
 32 30  2  0  0  0  0
 33 34  1  0  0  0  0
 34 35  1  0  0  0  0
 36 37  1  0  0  0  0
 36 35  1  0  0  0  0
 37 38  1  0  0  0  0
 39 48  1  6  0  0  0
 39 53  1  0  0  0  0
 39 47  1  0  0  0  0
 41 51  1  1  0  0  0
 41 44  1  0  0  0  0
 44 49  1  0  0  0  0
 44 43  1  1  0  0  0
 45 42  1  6  0  0  0
 45 41  1  0  0  0  0
 45 38  1  0  0  0  0
 46 39  1  0  0  0  0
 46 50  1  0  0  0  0
 47 52  1  1  0  0  0
 47 44  1  0  0  0  0
 47 49  1  0  0  0  0
 49 40  1  6  0  0  0
 49 54  1  0  0  0  0
 50 45  1  0  0  0  0
 53 41  1  0  0  0  0
 54 55  1  0  0  0  0
M  END
>  <MODEL>
2

>  <REMARK>
 VINA RESULT:      -8.0      3.415      8.648
  Name = 
  15 active torsions:
  status: ('A' for Active; 'I' for Inactive)
    1  A    between atoms: N_2  and  C_28
    2  A    between atoms: N_2  and  N_44
    3  A    between atoms: C_8  and  O_22
    4  A    between atoms: C_8  and  C_43
    5  A    between atoms: C_10  and  C_32
    6  A    between atoms: C_11  and  C_38
    7  A    between atoms: C_19  and  C_40
    8  A    between atoms: C_19  and  C_45
    9  A    between atoms: C_20  and  O_22
   10  A    between atoms: C_27  and  C_54
   11  A    between atoms: C_28  and  C_49
   12  A    between atoms: C_32  and  C_39
   13  A    between atoms: N_35  and  C_43
   14  A    between atoms: N_35  and  C_51
   15  A    between atoms: C_51  and  C_54
                            x       y       z     vdW  Elec       q    Type
                         _______ _______ _______ _____ _____    ______ ____

>  <TORSDO>
F 15

$$$$
=
 OpenBabel11052415083D

 55 61  0  0  1  0  0  0  0  0999 V2000
  186.2430  178.6340  143.8920 C   0  0  0  0  0  2  0  0  0  0  0  0
  183.7630  178.6320  142.4200 C   0  0  0  0  0  0  0  0  0  0  0  0
  184.9110  178.5290  141.7480 C   0  0  0  0  0  3  0  0  0  0  0  0
  185.0270  179.3740  144.4390 C   0  0  0  0  0  2  0  0  0  0  0  0
  186.1740  178.5450  142.4310 N   0  0  0  0  0  0  0  0  0  0  0  0
  183.7560  178.7080  143.9190 C   0  0  0  0  0  2  0  0  0  0  0  0
  187.3650  178.5250  141.6950 N   0  0  0  0  0  2  0  0  0  0  0  0
  187.6730  177.1320  141.4010 C   0  0  0  0  0  2  0  0  0  0  0  0
  190.7070  176.4670  137.4240 C   0  0  0  0  0  2  0  0  0  0  0  0
  189.1100  176.7420  143.9210 C   0  0  0  0  0  2  0  0  0  0  0  0
  193.1480  176.2870  137.8430 C   0  0  0  0  0  2  0  0  0  0  0  0
  191.6220  176.9040  139.7480 C   0  0  0  0  0  0  0  0  0  0  0  0
  193.0290  176.9330  139.2180 C   0  0  0  0  0  2  0  0  0  0  0  0
  192.0900  176.8650  136.9200 C   0  0  0  0  0  2  0  0  0  0  0  0
  190.5120  176.7760  138.8900 C   0  0  0  0  0  0  0  0  0  0  0  0
  190.1970  177.1500  141.6450 C   0  0  0  0  0  0  0  0  0  0  0  0
  191.1490  178.0290  143.8150 C   0  0  0  0  0  2  0  0  0  0  0  0
  191.4310  177.1050  141.0750 N   0  0  0  0  0  0  0  0  0  0  0  0
  190.8360  177.7970  145.2820 C   0  0  1  0  0  3  0  0  0  0  0  0
  189.2170  176.8340  139.4380 C   0  0  0  0  0  0  0  0  0  0  0  0
  189.4310  177.2040  145.3280 C   0  0  0  0  0  2  0  0  0  0  0  0
  189.0530  177.0210  140.8270 C   0  0  0  0  0  0  0  0  0  0  0  0
  190.1030  177.3600  143.0660 N   0  0  0  0  0  0  0  0  0  0  0  0
  188.0170  176.7140  138.5410 C   0  0  0  0  0  2  0  0  0  0  0  0
  187.3130  177.8040  136.3730 N   0  0  0  0  0  2  0  0  0  0  0  0
  188.2690  179.0450  138.1070 O   0  0  0  0  0  0  0  0  0  0  0  0
  187.1890  178.9450  135.4810 C   0  0  0  0  0  1  0  0  0  0  0  0
  187.8740  177.9250  137.6800 C   0  0  0  0  0  0  0  0  0  0  0  0
  191.8430  176.8130  145.8550 C   0  0  0  0  0  2  0  0  0  0  0  0
  191.5540  176.5360  147.2920 C   0  0  0  0  0  0  0  0  0  0  0  0
  191.4080  177.4900  148.1010 O   0  0  0  0  0  1  0  0  0  0  0  0
  191.4130  175.2260  147.7340 O   0  0  0  0  0  0  0  0  0  0  0  0
  182.4770  178.6360  141.6710 C   0  0  0  0  0  2  0  0  0  0  0  0
  181.3750  179.2370  142.5300 C   0  0  0  0  0  2  0  0  0  0  0  0
  180.2520  178.3150  142.6310 N   0  0  0  0  0  2  0  0  0  0  0  0
  179.4000  178.4950  141.4640 C   0  0  0  0  0  2  0  0  0  0  0  0
  179.2160  177.1760  140.7330 C   0  0  0  0  0  2  0  0  0  0  0  0
  179.9930  177.1870  139.5620 O   0  0  0  0  0  0  0  0  0  0  0  0
  181.3400  174.2840  137.0400 C   0  0  2  0  0  0  0  0  0  0  0  0
  184.4800  175.1340  136.9440 S   0  0  0  0  0  1  0  0  0  0  0  0
  181.7860  175.7510  138.6310 C   0  0  2  0  0  0  0  0  0  0  0  0
  180.1960  174.9980  140.2850 F   0  0  0  0  0  0  0  0  0  0  0  0
  181.3630  177.9510  137.1800 C   0  0  0  0  0  1  0  0  0  0  0  0
  181.9970  176.5660  137.3350 C   0  0  2  0  0  0  0  0  0  0  0  0
  180.3340  175.8610  139.2030 C   0  0  1  0  0  0  0  0  0  0  0  0
  179.8270  174.1830  137.3160 C   0  0  0  0  0  2  0  0  0  0  0  0
  181.7030  175.5430  136.2350 C   0  0  1  0  0  0  0  0  0  0  0  0
  181.8110  173.0340  136.3240 C   0  0  0  0  0  1  0  0  0  0  0  0
  183.1020  176.1790  136.3380 C   0  0  2  0  0  0  0  0  0  0  0  0
  179.3330  175.4000  138.1230 C   0  0  0  0  0  2  0  0  0  0  0  0
  182.7260  176.1170  139.5760 F   0  0  0  0  0  0  0  0  0  0  0  0
  180.7690  176.0090  135.1120 C   0  0  0  0  0  1  0  0  0  0  0  0
  181.9810  174.3990  138.2860 O   0  0  0  0  0  0  0  0  0  0  0  0
  183.4620  177.2010  135.2600 C   0  0  0  0  0  2  0  0  0  0  0  0
  184.6210  176.8040  134.5940 O   0  0  0  0  0  1  0  0  0  0  0  0
  1  4  1  0  0  0  0
  2  6  1  0  0  0  0
  3  2  2  0  0  0  0
  3  5  1  0  0  0  0
  5  1  1  0  0  0  0
  6  4  1  0  0  0  0
  7  5  1  0  0  0  0
  8  7  1  0  0  0  0
  9 15  1  0  0  0  0
 10 21  1  0  0  0  0
 11 13  1  0  0  0  0
 12 18  1  0  0  0  0
 13 12  1  0  0  0  0
 14  9  1  0  0  0  0
 14 11  1  0  0  0  0
 15 20  1  0  0  0  0
 15 12  2  0  0  0  0
 16 23  1  0  0  0  0
 17 19  1  0  0  0  0
 18 16  2  0  0  0  0
 19 21  1  0  0  0  0
 19 29  1  6  0  0  0
 20 22  2  0  0  0  0
 22  8  1  0  0  0  0
 22 16  1  0  0  0  0
 23 17  1  0  0  0  0
 23 10  1  0  0  0  0
 24 20  1  0  0  0  0
 25 28  1  0  0  0  0
 27 25  1  0  0  0  0
 28 26  2  0  0  0  0
 28 24  1  0  0  0  0
 29 30  1  0  0  0  0
 30 32  2  0  0  0  0
 30 31  1  0  0  0  0
 33  2  1  0  0  0  0
 33 34  1  0  0  0  0
 34 35  1  0  0  0  0
 36 35  1  0  0  0  0
 37 36  1  0  0  0  0
 38 37  1  0  0  0  0
 39 48  1  6  0  0  0
 39 46  1  0  0  0  0
 39 53  1  0  0  0  0
 41 45  1  0  0  0  0
 41 51  1  1  0  0  0
 44 43  1  6  0  0  0
 44 41  1  0  0  0  0
 45 38  1  0  0  0  0
 45 42  1  1  0  0  0
 46 50  1  0  0  0  0
 47 52  1  6  0  0  0
 47 49  1  0  0  0  0
 47 39  1  0  0  0  0
 47 44  1  0  0  0  0
 49 40  1  1  0  0  0
 49 44  1  0  0  0  0
 50 45  1  0  0  0  0
 53 41  1  0  0  0  0
 54 49  1  0  0  0  0
 55 54  1  0  0  0  0
M  END
>  <MODEL>
3

>  <REMARK>
 VINA RESULT:      -8.0      1.625      2.432
  Name = 
  15 active torsions:
  status: ('A' for Active; 'I' for Inactive)
    1  A    between atoms: N_2  and  C_28
    2  A    between atoms: N_2  and  N_44
    3  A    between atoms: C_8  and  O_22
    4  A    between atoms: C_8  and  C_43
    5  A    between atoms: C_10  and  C_32
    6  A    between atoms: C_11  and  C_38
    7  A    between atoms: C_19  and  C_40
    8  A    between atoms: C_19  and  C_45
    9  A    between atoms: C_20  and  O_22
   10  A    between atoms: C_27  and  C_54
   11  A    between atoms: C_28  and  C_49
   12  A    between atoms: C_32  and  C_39
   13  A    between atoms: N_35  and  C_43
   14  A    between atoms: N_35  and  C_51
   15  A    between atoms: C_51  and  C_54
                            x       y       z     vdW  Elec       q    Type
                         _______ _______ _______ _____ _____    ______ ____

>  <TORSDO>
F 15

$$$$
=
 OpenBabel11052415083D

 55 61  0  0  1  0  0  0  0  0999 V2000
  186.1660  178.5740  142.1420 C   0  0  0  0  0  2  0  0  0  0  0  0
  183.9910  179.0200  140.3020 C   0  0  0  0  0  0  0  0  0  0  0  0
  185.2210  178.8500  139.8150 C   0  0  0  0  0  3  0  0  0  0  0  0
  184.9540  179.3940  142.5730 C   0  0  0  0  0  2  0  0  0  0  0  0
  186.3420  178.6450  140.6900 N   0  0  0  0  0  0  0  0  0  0  0  0
  183.7320  178.9420  141.7780 C   0  0  0  0  0  2  0  0  0  0  0  0
  187.6350  178.5580  140.1570 N   0  0  0  0  0  2  0  0  0  0  0  0
  187.8860  177.1580  139.8470 C   0  0  0  0  0  2  0  0  0  0  0  0
  191.5040  176.3230  136.4300 C   0  0  0  0  0  2  0  0  0  0  0  0
  188.8420  176.6450  142.5650 C   0  0  0  0  0  2  0  0  0  0  0  0
  193.8200  175.9700  137.2530 C   0  0  0  0  0  2  0  0  0  0  0  0
  192.0360  176.6730  138.8840 C   0  0  0  0  0  0  0  0  0  0  0  0
  193.5120  176.6100  138.6020 C   0  0  0  0  0  2  0  0  0  0  0  0
  192.9760  176.6300  136.1760 C   0  0  0  0  0  2  0  0  0  0  0  0
  191.0830  176.6300  137.8470 C   0  0  0  0  0  0  0  0  0  0  0  0
  190.3270  176.9990  140.5170 C   0  0  0  0  0  0  0  0  0  0  0  0
  190.9500  177.7890  142.8350 C   0  0  0  0  0  2  0  0  0  0  0  0
  191.6340  176.8740  140.1630 N   0  0  0  0  0  0  0  0  0  0  0  0
  190.3760  177.5650  144.2220 C   0  0  1  0  0  3  0  0  0  0  0  0
  189.7200  176.7730  138.1690 C   0  0  0  0  0  0  0  0  0  0  0  0
  188.9480  177.0700  144.0160 C   0  0  0  0  0  2  0  0  0  0  0  0
  189.3330  176.9570  139.5130 C   0  0  0  0  0  0  0  0  0  0  0  0
  190.0060  177.2010  141.9050 N   0  0  0  0  0  0  0  0  0  0  0  0
  188.6850  176.7450  137.0780 C   0  0  0  0  0  2  0  0  0  0  0  0
  188.6550  174.2330  137.3490 N   0  0  0  0  0  2  0  0  0  0  0  0
  188.3960  175.2370  135.2550 O   0  0  0  0  0  0  0  0  0  0  0  0
  188.5810  172.8790  136.8280 C   0  0  0  0  0  1  0  0  0  0  0  0
  188.5620  175.3760  136.4980 C   0  0  0  0  0  0  0  0  0  0  0  0
  191.2030  176.5080  144.9370 C   0  0  0  0  0  2  0  0  0  0  0  0
  191.1640  176.7140  146.4130 C   0  0  0  0  0  0  0  0  0  0  0  0
  192.2170  176.5950  147.0940 O   0  0  0  0  0  1  0  0  0  0  0  0
  189.9740  177.0700  147.0360 O   0  0  0  0  0  0  0  0  0  0  0  0
  182.8610  179.2540  139.3610 C   0  0  0  0  0  2  0  0  0  0  0  0
  181.6330  179.7200  140.1280 C   0  0  0  0  0  2  0  0  0  0  0  0
  180.4330  179.0950  139.5890 N   0  0  0  0  0  2  0  0  0  0  0  0
  179.8150  178.2990  140.6400 C   0  0  0  0  0  2  0  0  0  0  0  0
  179.8790  176.8200  140.2920 C   0  0  0  0  0  2  0  0  0  0  0  0
  180.0810  176.6820  138.9090 O   0  0  0  0  0  0  0  0  0  0  0  0
  181.8750  173.8300  136.6170 C   0  0  2  0  0  0  0  0  0  0  0  0
  184.9420  174.8990  136.8120 S   0  0  0  0  0  1  0  0  0  0  0  0
  182.0540  175.3580  138.2020 C   0  0  2  0  0  0  0  0  0  0  0  0
  180.3590  174.5280  139.7100 F   0  0  0  0  0  0  0  0  0  0  0  0
  181.6310  177.4910  136.6550 C   0  0  0  0  0  1  0  0  0  0  0  0
  182.3400  176.1580  136.9110 C   0  0  2  0  0  0  0  0  0  0  0  0
  180.5470  175.3770  138.6230 C   0  0  1  0  0  0  0  0  0  0  0  0
  180.3520  173.6270  136.7430 C   0  0  0  0  0  2  0  0  0  0  0  0
  182.2310  175.0940  135.8170 C   0  0  1  0  0  0  0  0  0  0  0  0
  182.5010  172.6010  135.9880 C   0  0  0  0  0  1  0  0  0  0  0  0
  183.5650  175.8300  136.0420 C   0  0  2  0  0  0  0  0  0  0  0  0
  179.6950  174.8220  137.4610 C   0  0  0  0  0  2  0  0  0  0  0  0
  182.8660  175.8100  139.2260 F   0  0  0  0  0  0  0  0  0  0  0  0
  181.3860  175.4680  134.5940 C   0  0  0  0  0  1  0  0  0  0  0  0
  182.3760  174.0160  137.9170 O   0  0  0  0  0  0  0  0  0  0  0  0
  183.9620  176.8520  134.9770 C   0  0  0  0  0  2  0  0  0  0  0  0
  185.3170  177.1580  135.0910 O   0  0  0  0  0  1  0  0  0  0  0  0
  1  4  1  0  0  0  0
  2  6  1  0  0  0  0
  3  2  2  0  0  0  0
  3  5  1  0  0  0  0
  5  1  1  0  0  0  0
  6  4  1  0  0  0  0
  7  5  1  0  0  0  0
  8  7  1  0  0  0  0
  9 15  1  0  0  0  0
 10 21  1  0  0  0  0
 11 13  1  0  0  0  0
 12 18  1  0  0  0  0
 13 12  1  0  0  0  0
 14  9  1  0  0  0  0
 14 11  1  0  0  0  0
 15 20  1  0  0  0  0
 15 12  2  0  0  0  0
 16 23  1  0  0  0  0
 17 19  1  0  0  0  0
 18 16  2  0  0  0  0
 19 29  1  6  0  0  0
 20 22  2  0  0  0  0
 21 19  1  0  0  0  0
 22  8  1  0  0  0  0
 22 16  1  0  0  0  0
 23 10  1  0  0  0  0
 23 17  1  0  0  0  0
 24 20  1  0  0  0  0
 26 28  2  0  0  0  0
 27 25  1  0  0  0  0
 28 24  1  0  0  0  0
 28 25  1  0  0  0  0
 29 30  1  0  0  0  0
 30 32  2  0  0  0  0
 30 31  1  0  0  0  0
 33 34  1  0  0  0  0
 33  2  1  0  0  0  0
 35 34  1  0  0  0  0
 35 36  1  0  0  0  0
 37 36  1  0  0  0  0
 38 37  1  0  0  0  0
 39 48  1  6  0  0  0
 39 46  1  0  0  0  0
 39 53  1  0  0  0  0
 41 45  1  0  0  0  0
 41 51  1  1  0  0  0
 44 43  1  6  0  0  0
 44 41  1  0  0  0  0
 45 38  1  0  0  0  0
 45 42  1  1  0  0  0
 46 50  1  0  0  0  0
 47 52  1  6  0  0  0
 47 49  1  0  0  0  0
 47 39  1  0  0  0  0
 47 44  1  0  0  0  0
 49 40  1  1  0  0  0
 49 44  1  0  0  0  0
 50 45  1  0  0  0  0
 53 41  1  0  0  0  0
 54 55  1  0  0  0  0
 54 49  1  0  0  0  0
M  END
>  <MODEL>
4

>  <REMARK>
 VINA RESULT:      -7.8      2.062      3.113
  Name = 
  15 active torsions:
  status: ('A' for Active; 'I' for Inactive)
    1  A    between atoms: N_2  and  C_28
    2  A    between atoms: N_2  and  N_44
    3  A    between atoms: C_8  and  O_22
    4  A    between atoms: C_8  and  C_43
    5  A    between atoms: C_10  and  C_32
    6  A    between atoms: C_11  and  C_38
    7  A    between atoms: C_19  and  C_40
    8  A    between atoms: C_19  and  C_45
    9  A    between atoms: C_20  and  O_22
   10  A    between atoms: C_27  and  C_54
   11  A    between atoms: C_28  and  C_49
   12  A    between atoms: C_32  and  C_39
   13  A    between atoms: N_35  and  C_43
   14  A    between atoms: N_35  and  C_51
   15  A    between atoms: C_51  and  C_54
                            x       y       z     vdW  Elec       q    Type
                         _______ _______ _______ _____ _____    ______ ____

>  <TORSDO>
F 15

$$$$
=
 OpenBabel11052415083D

 55 61  0  0  1  0  0  0  0  0999 V2000
  179.2960  178.4800  141.8550 C   0  0  0  0  0  2  0  0  0  0  0  0
  181.5460  179.0820  143.5570 C   0  0  0  0  0  0  0  0  0  0  0  0
  181.5340  179.5610  142.3110 C   0  0  0  0  0  3  0  0  0  0  0  0
  179.7080  177.5060  142.9550 C   0  0  0  0  0  2  0  0  0  0  0  0
  180.4470  179.2730  141.4170 N   0  0  0  0  0  0  0  0  0  0  0  0
  180.3940  178.2760  144.0800 C   0  0  0  0  0  2  0  0  0  0  0  0
  180.5010  179.7150  140.0890 N   0  0  0  0  0  2  0  0  0  0  0  0
  179.9200  178.6700  139.2580 C   0  0  0  0  0  2  0  0  0  0  0  0
  183.4950  175.5620  137.5180 C   0  0  0  0  0  2  0  0  0  0  0  0
  179.8410  181.1700  137.7360 C   0  0  0  0  0  2  0  0  0  0  0  0
  184.5880  176.1400  135.3650 C   0  0  0  0  0  2  0  0  0  0  0  0
  182.6080  177.4920  136.1330 C   0  0  0  0  0  0  0  0  0  0  0  0
  183.4550  177.0760  134.9620 C   0  0  0  0  0  2  0  0  0  0  0  0
  184.0300  175.0040  136.2050 C   0  0  0  0  0  2  0  0  0  0  0  0
  182.5530  176.7260  137.3140 C   0  0  0  0  0  0  0  0  0  0  0  0
  180.9690  179.0080  136.9740 C   0  0  0  0  0  0  0  0  0  0  0  0
  179.8170  180.6040  135.3900 C   0  0  0  0  0  2  0  0  0  0  0  0
  181.8110  178.5800  135.9950 N   0  0  0  0  0  0  0  0  0  0  0  0
  179.2440  182.0040  135.5240 C   0  0  1  0  0  3  0  0  0  0  0  0
  181.6820  177.1250  138.3450 C   0  0  0  0  0  0  0  0  0  0  0  0
  179.0420  182.2380  137.0180 C   0  0  0  0  0  2  0  0  0  0  0  0
  180.8820  178.2760  138.1790 C   0  0  0  0  0  0  0  0  0  0  0  0
  180.1700  180.1800  136.7300 N   0  0  0  0  0  0  0  0  0  0  0  0
  181.5950  176.3160  139.6090 C   0  0  0  0  0  2  0  0  0  0  0  0
  180.6600  174.1940  138.6050 N   0  0  0  0  0  2  0  0  0  0  0  0
  179.4750  175.4080  140.2120 O   0  0  0  0  0  0  0  0  0  0  0  0
  179.6220  173.1910  138.4410 C   0  0  0  0  0  1  0  0  0  0  0  0
  180.5170  175.2890  139.5100 C   0  0  0  0  0  0  0  0  0  0  0  0
  180.2420  183.0050  134.9640 C   0  0  0  0  0  2  0  0  0  0  0  0
  180.3330  184.2090  135.8400 C   0  0  0  0  0  0  0  0  0  0  0  0
  181.3980  184.4570  136.4620 O   0  0  0  0  0  1  0  0  0  0  0  0
  179.2530  185.0770  135.9430 O   0  0  0  0  0  0  0  0  0  0  0  0
  182.7040  179.3840  144.4420 C   0  0  0  0  0  2  0  0  0  0  0  0
  183.7230  178.2580  144.3700 C   0  0  0  0  0  2  0  0  0  0  0  0
  185.0740  178.8000  144.3120 N   0  0  0  0  0  2  0  0  0  0  0  0
  185.2850  179.3730  142.9910 C   0  0  0  0  0  2  0  0  0  0  0  0
  186.0850  178.4180  142.1200 C   0  0  0  0  0  2  0  0  0  0  0  0
  187.0100  177.7310  142.9220 O   0  0  0  0  0  0  0  0  0  0  0  0
  191.0130  177.4060  142.2330 C   0  0  2  0  0  0  0  0  0  0  0  0
  191.6710  174.9720  144.2890 S   0  0  0  0  0  1  0  0  0  0  0  0
  189.1400  176.4630  142.9270 C   0  0  2  0  0  0  0  0  0  0  0  0
  187.7970  176.8090  140.9500 F   0  0  0  0  0  0  0  0  0  0  0  0
  188.8150  177.9480  145.1210 C   0  0  0  0  0  1  0  0  0  0  0  0
  189.7110  177.0970  144.2150 C   0  0  2  0  0  0  0  0  0  0  0  0
  188.1540  177.4020  142.1570 C   0  0  1  0  0  0  0  0  0  0  0  0
  190.3480  178.5140  141.3930 C   0  0  0  0  0  2  0  0  0  0  0  0
  191.0150  177.7360  143.7350 C   0  0  1  0  0  0  0  0  0  0  0  0
  192.4240  177.1660  141.7330 C   0  0  0  0  0  1  0  0  0  0  0  0
  191.0520  176.6200  144.7960 C   0  0  2  0  0  0  0  0  0  0  0  0
  188.8810  178.7210  141.8170 C   0  0  0  0  0  2  0  0  0  0  0  0
  188.5480  175.2480  143.2220 F   0  0  0  0  0  0  0  0  0  0  0  0
  191.2650  179.1800  144.1850 C   0  0  0  0  0  1  0  0  0  0  0  0
  190.2390  176.2440  142.0730 O   0  0  0  0  0  0  0  0  0  0  0  0
  191.3920  177.0520  146.2220 C   0  0  0  0  0  2  0  0  0  0  0  0
  192.2540  176.1260  146.8090 O   0  0  0  0  0  1  0  0  0  0  0  0
  1  4  1  0  0  0  0
  2  6  1  0  0  0  0
  2 33  1  0  0  0  0
  3  2  2  0  0  0  0
  4  6  1  0  0  0  0
  5  1  1  0  0  0  0
  5  3  1  0  0  0  0
  7  5  1  0  0  0  0
  8  7  1  0  0  0  0
 11 14  1  0  0  0  0
 12 15  1  0  0  0  0
 13 11  1  0  0  0  0
 13 12  1  0  0  0  0
 14  9  1  0  0  0  0
 15  9  1  0  0  0  0
 15 20  2  0  0  0  0
 16 22  2  0  0  0  0
 17 19  1  0  0  0  0
 17 23  1  0  0  0  0
 18 12  2  0  0  0  0
 18 16  1  0  0  0  0
 19 29  1  1  0  0  0
 19 21  1  0  0  0  0
 20 24  1  0  0  0  0
 21 10  1  0  0  0  0
 22 20  1  0  0  0  0
 22  8  1  0  0  0  0
 23 16  1  0  0  0  0
 23 10  1  0  0  0  0
 25 28  1  0  0  0  0
 27 25  1  0  0  0  0
 28 24  1  0  0  0  0
 28 26  2  0  0  0  0
 29 30  1  0  0  0  0
 30 32  2  0  0  0  0
 30 31  1  0  0  0  0
 34 33  1  0  0  0  0
 35 34  1  0  0  0  0
 36 35  1  0  0  0  0
 37 38  1  0  0  0  0
 37 36  1  0  0  0  0
 39 48  1  6  0  0  0
 39 47  1  0  0  0  0
 41 51  1  1  0  0  0
 41 44  1  0  0  0  0
 44 49  1  0  0  0  0
 44 43  1  1  0  0  0
 45 42  1  6  0  0  0
 45 38  1  0  0  0  0
 45 41  1  0  0  0  0
 46 50  1  0  0  0  0
 46 39  1  0  0  0  0
 47 52  1  1  0  0  0
 47 44  1  0  0  0  0
 47 49  1  0  0  0  0
 49 40  1  6  0  0  0
 49 54  1  0  0  0  0
 50 45  1  0  0  0  0
 53 39  1  0  0  0  0
 53 41  1  0  0  0  0
 54 55  1  0  0  0  0
M  END
>  <MODEL>
5

>  <REMARK>
 VINA RESULT:      -7.0      3.905     10.150
  Name = 
  15 active torsions:
  status: ('A' for Active; 'I' for Inactive)
    1  A    between atoms: N_2  and  C_28
    2  A    between atoms: N_2  and  N_44
    3  A    between atoms: C_8  and  O_22
    4  A    between atoms: C_8  and  C_43
    5  A    between atoms: C_10  and  C_32
    6  A    between atoms: C_11  and  C_38
    7  A    between atoms: C_19  and  C_40
    8  A    between atoms: C_19  and  C_45
    9  A    between atoms: C_20  and  O_22
   10  A    between atoms: C_27  and  C_54
   11  A    between atoms: C_28  and  C_49
   12  A    between atoms: C_32  and  C_39
   13  A    between atoms: N_35  and  C_43
   14  A    between atoms: N_35  and  C_51
   15  A    between atoms: C_51  and  C_54
                            x       y       z     vdW  Elec       q    Type
                         _______ _______ _______ _____ _____    ______ ____

>  <TORSDO>
F 15

$$$$
=
 OpenBabel11052415083D

 55 61  0  0  1  0  0  0  0  0999 V2000
  187.9020  177.3700  137.9490 C   0  0  0  0  0  2  0  0  0  0  0  0
  185.7400  178.6400  139.3750 C   0  0  0  0  0  0  0  0  0  0  0  0
  185.4930  178.0950  138.1820 C   0  0  0  0  0  3  0  0  0  0  0  0
  188.1880  178.5220  138.9060 C   0  0  0  0  0  2  0  0  0  0  0  0
  186.5380  177.4680  137.4230 N   0  0  0  0  0  0  0  0  0  0  0  0
  187.1090  178.5620  139.9850 C   0  0  0  0  0  2  0  0  0  0  0  0
  186.2700  176.9830  136.1360 N   0  0  0  0  0  2  0  0  0  0  0  0
  184.8240  176.9060  135.9900 C   0  0  0  0  0  2  0  0  0  0  0  0
  185.1690  171.9600  135.0490 C   0  0  0  0  0  2  0  0  0  0  0  0
  182.3100  177.5670  137.3370 C   0  0  0  0  0  2  0  0  0  0  0  0
  183.4940  170.4580  136.1000 C   0  0  0  0  0  2  0  0  0  0  0  0
  183.5450  172.8870  136.7620 C   0  0  0  0  0  0  0  0  0  0  0  0
  183.1190  171.4980  137.1500 C   0  0  0  0  0  2  0  0  0  0  0  0
  184.9600  170.6150  135.7350 C   0  0  0  0  0  2  0  0  0  0  0  0
  184.5810  173.1100  135.8330 C   0  0  0  0  0  0  0  0  0  0  0  0
  183.3250  175.2290  137.1630 C   0  0  0  0  0  0  0  0  0  0  0  0
  182.0360  176.0330  139.1820 C   0  0  0  0  0  2  0  0  0  0  0  0
  182.9740  173.9370  137.4020 N   0  0  0  0  0  0  0  0  0  0  0  0
  181.1910  177.2580  139.4820 C   0  0  1  0  0  3  0  0  0  0  0  0
  184.9870  174.4320  135.5690 C   0  0  0  0  0  0  0  0  0  0  0  0
  181.5690  178.3020  138.4360 C   0  0  0  0  0  2  0  0  0  0  0  0
  184.3560  175.5040  136.2360 C   0  0  0  0  0  0  0  0  0  0  0  0
  182.6520  176.2710  137.8910 N   0  0  0  0  0  0  0  0  0  0  0  0
  186.1000  174.6940  134.5940 C   0  0  0  0  0  2  0  0  0  0  0  0
  188.5990  175.0610  134.6070 N   0  0  0  0  0  2  0  0  0  0  0  0
  187.5150  173.9930  136.3790 O   0  0  0  0  0  0  0  0  0  0  0  0
  189.9230  174.9230  135.1920 C   0  0  0  0  0  1  0  0  0  0  0  0
  187.4300  174.5630  135.2570 C   0  0  0  0  0  0  0  0  0  0  0  0
  179.7210  176.8900  139.3510 C   0  0  0  0  0  2  0  0  0  0  0  0
  179.3020  175.9800  140.4560 C   0  0  0  0  0  0  0  0  0  0  0  0
  178.9680  174.7930  140.2020 O   0  0  0  0  0  0  0  0  0  0  0  0
  179.3140  176.4290  141.7700 O   0  0  0  0  0  1  0  0  0  0  0  0
  184.6330  179.3010  140.1180 C   0  0  0  0  0  2  0  0  0  0  0  0
  184.2100  178.4380  141.2970 C   0  0  0  0  0  2  0  0  0  0  0  0
  184.3440  179.1820  142.5420 N   0  0  0  0  0  2  0  0  0  0  0  0
  184.6660  178.2440  143.6080 C   0  0  0  0  0  2  0  0  0  0  0  0
  185.9770  178.6290  144.2750 C   0  0  0  0  0  2  0  0  0  0  0  0
  186.7580  177.4750  144.4520 O   0  0  0  0  0  0  0  0  0  0  0  0
  190.4510  177.5540  142.7320 C   0  0  2  0  0  0  0  0  0  0  0  0
  191.7040  174.8980  144.1340 S   0  0  0  0  0  1  0  0  0  0  0  0
  188.8570  176.3820  143.7140 C   0  0  2  0  0  0  0  0  0  0  0  0
  187.0340  176.9160  142.2230 F   0  0  0  0  0  0  0  0  0  0  0  0
  189.0650  177.4980  146.1300 C   0  0  0  0  0  1  0  0  0  0  0  0
  189.7220  176.8590  144.9020 C   0  0  2  0  0  0  0  0  0  0  0  0
  187.6740  177.3490  143.3800 C   0  0  1  0  0  0  0  0  0  0  0  0
  189.5540  178.7210  142.2780 C   0  0  0  0  0  2  0  0  0  0  0  0
  190.8340  177.6570  144.2190 C   0  0  1  0  0  0  0  0  0  0  0  0
  191.6910  177.4960  141.8610 C   0  0  0  0  0  1  0  0  0  0  0  0
  191.1840  176.4020  145.0410 C   0  0  2  0  0  0  0  0  0  0  0  0
  188.2420  178.7540  143.0860 C   0  0  0  0  0  2  0  0  0  0  0  0
  188.4030  175.0960  143.9480 F   0  0  0  0  0  0  0  0  0  0  0  0
  191.1440  179.0330  144.8180 C   0  0  0  0  0  1  0  0  0  0  0  0
  189.7020  176.3740  142.5870 O   0  0  0  0  0  0  0  0  0  0  0  0
  191.8690  176.6430  146.3850 C   0  0  0  0  0  2  0  0  0  0  0  0
  191.5490  175.6180  147.2740 O   0  0  0  0  0  1  0  0  0  0  0  0
  1  4  1  0  0  0  0
  2  6  1  0  0  0  0
  2 33  1  0  0  0  0
  3  2  2  0  0  0  0
  4  6  1  0  0  0  0
  5  1  1  0  0  0  0
  5  3  1  0  0  0  0
  7  5  1  0  0  0  0
  8  7  1  0  0  0  0
  8 22  1  0  0  0  0
  9 14  1  0  0  0  0
  9 15  1  0  0  0  0
 10 23  1  0  0  0  0
 10 21  1  0  0  0  0
 11 13  1  0  0  0  0
 12 13  1  0  0  0  0
 12 18  1  0  0  0  0
 14 11  1  0  0  0  0
 15 12  2  0  0  0  0
 16 18  2  0  0  0  0
 16 23  1  0  0  0  0
 17 19  1  0  0  0  0
 19 29  1  6  0  0  0
 20 15  1  0  0  0  0
 20 22  2  0  0  0  0
 21 19  1  0  0  0  0
 22 16  1  0  0  0  0
 23 17  1  0  0  0  0
 24 28  1  0  0  0  0
 24 20  1  0  0  0  0
 25 27  1  0  0  0  0
 25 28  1  0  0  0  0
 28 26  2  0  0  0  0
 29 30  1  0  0  0  0
 30 32  1  0  0  0  0
 31 30  2  0  0  0  0
 33 34  1  0  0  0  0
 34 35  1  0  0  0  0
 35 36  1  0  0  0  0
 36 37  1  0  0  0  0
 37 38  1  0  0  0  0
 39 48  1  6  0  0  0
 39 47  1  0  0  0  0
 41 51  1  1  0  0  0
 41 44  1  0  0  0  0
 44 49  1  0  0  0  0
 44 43  1  1  0  0  0
 45 42  1  6  0  0  0
 45 41  1  0  0  0  0
 45 38  1  0  0  0  0
 46 39  1  0  0  0  0
 46 50  1  0  0  0  0
 47 52  1  1  0  0  0
 47 44  1  0  0  0  0
 47 49  1  0  0  0  0
 49 40  1  6  0  0  0
 49 54  1  0  0  0  0
 50 45  1  0  0  0  0
 53 39  1  0  0  0  0
 53 41  1  0  0  0  0
 54 55  1  0  0  0  0
M  END
>  <MODEL>
6

>  <REMARK>
 VINA RESULT:      -6.3      3.705      9.175
  Name = 
  15 active torsions:
  status: ('A' for Active; 'I' for Inactive)
    1  A    between atoms: N_2  and  C_28
    2  A    between atoms: N_2  and  N_44
    3  A    between atoms: C_8  and  O_22
    4  A    between atoms: C_8  and  C_43
    5  A    between atoms: C_10  and  C_32
    6  A    between atoms: C_11  and  C_38
    7  A    between atoms: C_19  and  C_40
    8  A    between atoms: C_19  and  C_45
    9  A    between atoms: C_20  and  O_22
   10  A    between atoms: C_27  and  C_54
   11  A    between atoms: C_28  and  C_49
   12  A    between atoms: C_32  and  C_39
   13  A    between atoms: N_35  and  C_43
   14  A    between atoms: N_35  and  C_51
   15  A    between atoms: C_51  and  C_54
                            x       y       z     vdW  Elec       q    Type
                         _______ _______ _______ _____ _____    ______ ____

>  <TORSDO>
F 15

$$$$
=
 OpenBabel11052415083D

 55 61  0  0  1  0  0  0  0  0999 V2000
  182.4230  178.7780  141.8110 C   0  0  0  0  0  2  0  0  0  0  0  0
  184.4620  178.9570  143.8430 C   0  0  0  0  0  0  0  0  0  0  0  0
  184.7350  178.3020  142.7130 C   0  0  0  0  0  3  0  0  0  0  0  0
  182.0320  178.8880  143.2820 C   0  0  0  0  0  2  0  0  0  0  0  0
  183.7480  178.1670  141.6780 N   0  0  0  0  0  0  0  0  0  0  0  0
  183.1320  179.6230  144.0420 C   0  0  0  0  0  2  0  0  0  0  0  0
  184.0300  177.4000  140.5400 N   0  0  0  0  0  2  0  0  0  0  0  0
  183.2250  177.9270  139.4470 C   0  0  0  0  0  2  0  0  0  0  0  0
  180.0810  174.2310  138.0630 C   0  0  0  0  0  2  0  0  0  0  0  0
  185.8130  177.6920  138.1000 C   0  0  0  0  0  2  0  0  0  0  0  0
  180.7410  172.8040  136.1420 C   0  0  0  0  0  2  0  0  0  0  0  0
  182.1270  174.8330  136.6910 C   0  0  0  0  0  0  0  0  0  0  0  0
  181.7470  173.8310  135.6350 C   0  0  0  0  0  2  0  0  0  0  0  0
  179.5810  173.5200  136.8110 C   0  0  0  0  0  2  0  0  0  0  0  0
  181.2940  175.0920  137.7970 C   0  0  0  0  0  0  0  0  0  0  0  0
  183.6560  176.5310  137.3740 C   0  0  0  0  0  0  0  0  0  0  0  0
  185.3930  177.3760  135.7440 C   0  0  0  0  0  2  0  0  0  0  0  0
  183.2540  175.5640  136.5070 N   0  0  0  0  0  0  0  0  0  0  0  0
  186.8040  177.9170  135.8840 C   0  0  1  0  0  3  0  0  0  0  0  0
  181.6660  176.0970  138.7100 C   0  0  0  0  0  0  0  0  0  0  0  0
  186.9560  178.3370  137.3420 C   0  0  0  0  0  2  0  0  0  0  0  0
  182.8570  176.8250  138.5020 C   0  0  0  0  0  0  0  0  0  0  0  0
  184.8730  177.2450  137.0920 N   0  0  0  0  0  0  0  0  0  0  0  0
  180.7860  176.4020  139.8900 C   0  0  0  0  0  2  0  0  0  0  0  0
  179.8040  178.0610  138.2570 N   0  0  0  0  0  2  0  0  0  0  0  0
  179.0970  177.9760  140.4830 O   0  0  0  0  0  0  0  0  0  0  0  0
  178.9310  179.1700  137.9100 C   0  0  0  0  0  1  0  0  0  0  0  0
  179.8410  177.5140  139.5750 C   0  0  0  0  0  0  0  0  0  0  0  0
  187.7950  176.8130  135.5470 C   0  0  0  0  0  2  0  0  0  0  0  0
  188.8730  176.7370  136.5760 C   0  0  0  0  0  0  0  0  0  0  0  0
  189.1050  175.6500  137.1660 O   0  0  0  0  0  1  0  0  0  0  0  0
  189.6440  177.8570  136.8590 O   0  0  0  0  0  0  0  0  0  0  0  0
  185.5060  179.0520  144.8990 C   0  0  0  0  0  2  0  0  0  0  0  0
  184.8960  178.7650  146.2630 C   0  0  0  0  0  2  0  0  0  0  0  0
  185.6800  177.7580  146.9660 N   0  0  0  0  0  2  0  0  0  0  0  0
  186.7750  178.4250  147.6550 C   0  0  0  0  0  2  0  0  0  0  0  0
  187.8120  177.4100  148.1080 C   0  0  0  0  0  2  0  0  0  0  0  0
  188.3130  176.7320  146.9840 O   0  0  0  0  0  0  0  0  0  0  0  0
  191.1610  177.7100  144.2400 C   0  0  2  0  0  0  0  0  0  0  0  0
  189.4020  179.7450  142.4080 S   0  0  0  0  0  1  0  0  0  0  0  0
  189.2830  178.2410  145.2730 C   0  0  2  0  0  0  0  0  0  0  0  0
  190.0700  178.1280  147.5530 F   0  0  0  0  0  0  0  0  0  0  0  0
  187.7680  176.3140  144.2160 C   0  0  0  0  0  1  0  0  0  0  0  0
  188.7920  177.4400  144.0460 C   0  0  2  0  0  0  0  0  0  0  0  0
  189.5050  177.3550  146.5430 C   0  0  1  0  0  0  0  0  0  0  0  0
  191.6700  176.7180  145.3030 C   0  0  0  0  0  2  0  0  0  0  0  0
  190.0940  177.0880  143.3230 C   0  0  1  0  0  0  0  0  0  0  0  0
  192.3310  178.2290  143.4270 C   0  0  0  0  0  1  0  0  0  0  0  0
  189.0390  177.9620  142.6200 C   0  0  2  0  0  0  0  0  0  0  0  0
  190.5160  176.2390  146.2050 C   0  0  0  0  0  2  0  0  0  0  0  0
  188.4110  179.2830  145.5350 F   0  0  0  0  0  0  0  0  0  0  0  0
  190.2470  175.6280  142.8810 C   0  0  0  0  0  1  0  0  0  0  0  0
  190.5410  178.7690  144.9250 O   0  0  0  0  0  0  0  0  0  0  0  0
  188.2570  177.2990  141.4870 C   0  0  0  0  0  2  0  0  0  0  0  0
  188.4450  178.0070  140.3000 O   0  0  0  0  0  1  0  0  0  0  0  0
  1  4  1  0  0  0  0
  2  6  1  0  0  0  0
  2 33  1  0  0  0  0
  3  2  2  0  0  0  0
  4  6  1  0  0  0  0
  5  1  1  0  0  0  0
  5  3  1  0  0  0  0
  7  5  1  0  0  0  0
  8  7  1  0  0  0  0
 11 14  1  0  0  0  0
 12 15  1  0  0  0  0
 13 11  1  0  0  0  0
 13 12  1  0  0  0  0
 14  9  1  0  0  0  0
 15  9  1  0  0  0  0
 15 20  2  0  0  0  0
 16 22  2  0  0  0  0
 17 19  1  0  0  0  0
 17 23  1  0  0  0  0
 18 12  2  0  0  0  0
 18 16  1  0  0  0  0
 19 29  1  1  0  0  0
 19 21  1  0  0  0  0
 20 24  1  0  0  0  0
 21 10  1  0  0  0  0
 22 20  1  0  0  0  0
 22  8  1  0  0  0  0
 23 16  1  0  0  0  0
 23 10  1  0  0  0  0
 25 28  1  0  0  0  0
 27 25  1  0  0  0  0
 28 24  1  0  0  0  0
 28 26  2  0  0  0  0
 29 30  1  0  0  0  0
 30 32  2  0  0  0  0
 30 31  1  0  0  0  0
 33 34  1  0  0  0  0
 34 35  1  0  0  0  0
 35 36  1  0  0  0  0
 36 37  1  0  0  0  0
 38 37  1  0  0  0  0
 39 48  1  6  0  0  0
 39 53  1  0  0  0  0
 39 46  1  0  0  0  0
 41 51  1  1  0  0  0
 41 45  1  0  0  0  0
 44 43  1  1  0  0  0
 44 41  1  0  0  0  0
 45 38  1  0  0  0  0
 45 42  1  1  0  0  0
 46 50  1  0  0  0  0
 47 52  1  6  0  0  0
 47 44  1  0  0  0  0
 47 39  1  0  0  0  0
 49 40  1  6  0  0  0
 49 47  1  0  0  0  0
 49 44  1  0  0  0  0
 50 45  1  0  0  0  0
 53 41  1  0  0  0  0
 54 49  1  0  0  0  0
 55 54  1  0  0  0  0
M  END
>  <MODEL>
7

>  <REMARK>
 VINA RESULT:      -6.1      3.726      9.206
  Name = 
  15 active torsions:
  status: ('A' for Active; 'I' for Inactive)
    1  A    between atoms: N_2  and  C_28
    2  A    between atoms: N_2  and  N_44
    3  A    between atoms: C_8  and  O_22
    4  A    between atoms: C_8  and  C_43
    5  A    between atoms: C_10  and  C_32
    6  A    between atoms: C_11  and  C_38
    7  A    between atoms: C_19  and  C_40
    8  A    between atoms: C_19  and  C_45
    9  A    between atoms: C_20  and  O_22
   10  A    between atoms: C_27  and  C_54
   11  A    between atoms: C_28  and  C_49
   12  A    between atoms: C_32  and  C_39
   13  A    between atoms: N_35  and  C_43
   14  A    between atoms: N_35  and  C_51
   15  A    between atoms: C_51  and  C_54
                            x       y       z     vdW  Elec       q    Type
                         _______ _______ _______ _____ _____    ______ ____

>  <TORSDO>
F 15

$$$$
=
 OpenBabel11052415083D

 55 61  0  0  1  0  0  0  0  0999 V2000
  185.5550  178.2620  142.3100 C   0  0  0  0  0  2  0  0  0  0  0  0
  188.0660  178.2170  140.8910 C   0  0  0  0  0  0  0  0  0  0  0  0
  186.9310  178.2470  140.1910 C   0  0  0  0  0  3  0  0  0  0  0  0
  186.7740  177.5890  142.9320 C   0  0  0  0  0  2  0  0  0  0  0  0
  185.6540  178.2500  140.8480 N   0  0  0  0  0  0  0  0  0  0  0  0
  188.0420  178.2450  142.3920 C   0  0  0  0  0  2  0  0  0  0  0  0
  184.4780  178.1930  140.0890 N   0  0  0  0  0  2  0  0  0  0  0  0
  184.8200  178.5690  138.7240 C   0  0  0  0  0  2  0  0  0  0  0  0
  180.0090  179.2040  137.3410 C   0  0  0  0  0  2  0  0  0  0  0  0
  185.9850  176.1850  137.4870 C   0  0  0  0  0  2  0  0  0  0  0  0
  179.1360  177.7920  135.4950 C   0  0  0  0  0  2  0  0  0  0  0  0
  181.5950  177.7210  136.0310 C   0  0  0  0  0  0  0  0  0  0  0  0
  180.5370  177.4590  134.9950 C   0  0  0  0  0  2  0  0  0  0  0  0
  179.1320  179.1870  136.0950 C   0  0  0  0  0  2  0  0  0  0  0  0
  181.3810  178.6200  137.0950 C   0  0  0  0  0  0  0  0  0  0  0  0
  183.8510  177.3600  136.7160 C   0  0  0  0  0  0  0  0  0  0  0  0
  185.4760  176.2550  135.1280 C   0  0  0  0  0  2  0  0  0  0  0  0
  182.8110  177.1450  135.8670 N   0  0  0  0  0  0  0  0  0  0  0  0
  186.6850  175.3540  135.3040 C   0  0  1  0  0  3  0  0  0  0  0  0
  182.4360  178.8830  137.9870 C   0  0  0  0  0  0  0  0  0  0  0  0
  187.1320  175.5210  136.7530 C   0  0  0  0  0  2  0  0  0  0  0  0
  183.6830  178.2490  137.8020 C   0  0  0  0  0  0  0  0  0  0  0  0
  185.1000  176.6940  136.4580 N   0  0  0  0  0  0  0  0  0  0  0  0
  182.2360  179.8490  139.1210 C   0  0  0  0  0  2  0  0  0  0  0  0
  181.1300  178.0940  140.5630 N   0  0  0  0  0  2  0  0  0  0  0  0
  180.1560  180.1920  140.2340 O   0  0  0  0  0  0  0  0  0  0  0  0
  180.0450  177.6020  141.3960 C   0  0  0  0  0  1  0  0  0  0  0  0
  181.1170  179.4080  140.0040 C   0  0  0  0  0  0  0  0  0  0  0  0
  186.2720  173.9140  135.0430 C   0  0  0  0  0  2  0  0  0  0  0  0
  187.4140  172.9840  135.2820 C   0  0  0  0  0  0  0  0  0  0  0  0
  188.5690  173.2910  134.8860 O   0  0  0  0  0  0  0  0  0  0  0  0
  187.2110  171.7940  135.9700 O   0  0  0  0  0  1  0  0  0  0  0  0
  189.3670  178.1910  140.1700 C   0  0  0  0  0  2  0  0  0  0  0  0
  189.1520  177.7720  138.7230 C   0  0  0  0  0  2  0  0  0  0  0  0
  189.9250  176.5740  138.4230 N   0  0  0  0  0  2  0  0  0  0  0  0
  190.7640  176.8450  137.2650 C   0  0  0  0  0  2  0  0  0  0  0  0
  190.8220  175.6270  136.3560 C   0  0  0  0  0  2  0  0  0  0  0  0
  192.1630  175.3440  136.0510 O   0  0  0  0  0  0  0  0  0  0  0  0
  194.8160  172.4610  137.1700 C   0  0  2  0  0  0  0  0  0  0  0  0
  197.0090  174.3560  138.6470 S   0  0  0  0  0  1  0  0  0  0  0  0
  193.9880  174.4830  137.4920 C   0  0  2  0  0  0  0  0  0  0  0  0
  191.6640  173.8900  137.7820 F   0  0  0  0  0  0  0  0  0  0  0  0
  194.8840  175.5720  135.2250 C   0  0  0  0  0  1  0  0  0  0  0  0
  195.1300  174.7300  136.4810 C   0  0  2  0  0  0  0  0  0  0  0  0
  192.6010  174.2340  136.8110 C   0  0  1  0  0  0  0  0  0  0  0  0
  193.6010  171.8940  136.4090 C   0  0  0  0  0  2  0  0  0  0  0  0
  195.7120  173.3300  136.2720 C   0  0  1  0  0  0  0  0  0  0  0  0
  195.6090  171.3220  137.7800 C   0  0  0  0  0  1  0  0  0  0  0  0
  196.5920  174.4470  136.8660 C   0  0  2  0  0  0  0  0  0  0  0  0
  192.7230  173.0310  135.8510 C   0  0  0  0  0  2  0  0  0  0  0  0
  193.9220  175.5290  138.3940 F   0  0  0  0  0  0  0  0  0  0  0  0
  195.9500  172.9080  134.8180 C   0  0  0  0  0  1  0  0  0  0  0  0
  194.3170  173.2990  138.1810 O   0  0  0  0  0  0  0  0  0  0  0  0
  197.6790  175.0100  135.9510 C   0  0  0  0  0  2  0  0  0  0  0  0
  197.6880  176.4020  136.0230 O   0  0  0  0  0  1  0  0  0  0  0  0
  1  4  1  0  0  0  0
  2  6  1  0  0  0  0
  3  5  1  0  0  0  0
  3  2  2  0  0  0  0
  5  1  1  0  0  0  0
  6  4  1  0  0  0  0
  7  5  1  0  0  0  0
  8  7  1  0  0  0  0
 11 14  1  0  0  0  0
 12 15  1  0  0  0  0
 13 11  1  0  0  0  0
 13 12  1  0  0  0  0
 14  9  1  0  0  0  0
 15  9  1  0  0  0  0
 15 20  2  0  0  0  0
 16 22  2  0  0  0  0
 17 19  1  0  0  0  0
 17 23  1  0  0  0  0
 18 12  2  0  0  0  0
 18 16  1  0  0  0  0
 19 29  1  1  0  0  0
 19 21  1  0  0  0  0
 20 24  1  0  0  0  0
 21 10  1  0  0  0  0
 22 20  1  0  0  0  0
 22  8  1  0  0  0  0
 23 16  1  0  0  0  0
 23 10  1  0  0  0  0
 24 28  1  0  0  0  0
 25 27  1  0  0  0  0
 28 26  2  0  0  0  0
 28 25  1  0  0  0  0
 29 30  1  0  0  0  0
 30 32  1  0  0  0  0
 31 30  2  0  0  0  0
 33  2  1  0  0  0  0
 34 33  1  0  0  0  0
 35 34  1  0  0  0  0
 36 35  1  0  0  0  0
 37 36  1  0  0  0  0
 38 37  1  0  0  0  0
 38 45  1  0  0  0  0
 39 48  1  1  0  0  0
 39 53  1  0  0  0  0
 41 53  1  0  0  0  0
 41 51  1  1  0  0  0
 44 43  1  6  0  0  0
 44 49  1  0  0  0  0
 44 41  1  0  0  0  0
 45 41  1  0  0  0  0
 45 42  1  1  0  0  0
 46 39  1  0  0  0  0
 47 52  1  6  0  0  0
 47 44  1  0  0  0  0
 47 49  1  0  0  0  0
 47 39  1  0  0  0  0
 49 40  1  1  0  0  0
 50 46  1  0  0  0  0
 50 45  1  0  0  0  0
 54 55  1  0  0  0  0
 54 49  1  0  0  0  0
M  END
>  <MODEL>
8

>  <REMARK>
 VINA RESULT:      -6.0      4.886     10.855
  Name = 
  15 active torsions:
  status: ('A' for Active; 'I' for Inactive)
    1  A    between atoms: N_2  and  C_28
    2  A    between atoms: N_2  and  N_44
    3  A    between atoms: C_8  and  O_22
    4  A    between atoms: C_8  and  C_43
    5  A    between atoms: C_10  and  C_32
    6  A    between atoms: C_11  and  C_38
    7  A    between atoms: C_19  and  C_40
    8  A    between atoms: C_19  and  C_45
    9  A    between atoms: C_20  and  O_22
   10  A    between atoms: C_27  and  C_54
   11  A    between atoms: C_28  and  C_49
   12  A    between atoms: C_32  and  C_39
   13  A    between atoms: N_35  and  C_43
   14  A    between atoms: N_35  and  C_51
   15  A    between atoms: C_51  and  C_54
                            x       y       z     vdW  Elec       q    Type
                         _______ _______ _______ _____ _____    ______ ____

>  <TORSDO>
F 15

$$$$
=
 OpenBabel11052415083D

 55 61  0  0  1  0  0  0  0  0999 V2000
  185.0020  178.8760  144.0390 C   0  0  0  0  0  2  0  0  0  0  0  0
  182.5220  178.6540  142.5840 C   0  0  0  0  0  0  0  0  0  0  0  0
  183.6410  178.1880  142.0250 C   0  0  0  0  0  3  0  0  0  0  0  0
  183.8920  179.8990  144.2560 C   0  0  0  0  0  2  0  0  0  0  0  0
  184.9050  178.2920  142.6990 N   0  0  0  0  0  0  0  0  0  0  0  0
  182.5430  179.2500  143.9610 C   0  0  0  0  0  2  0  0  0  0  0  0
  186.0760  177.8740  142.0540 N   0  0  0  0  0  2  0  0  0  0  0  0
  187.1360  178.7990  142.4310 C   0  0  0  0  0  2  0  0  0  0  0  0
  190.1040  177.1710  146.1740 C   0  0  0  0  0  2  0  0  0  0  0  0
  188.4650  178.5700  139.8340 C   0  0  0  0  0  2  0  0  0  0  0  0
  192.1880  175.9670  145.5630 C   0  0  0  0  0  2  0  0  0  0  0  0
  190.5350  176.5460  143.7540 C   0  0  0  0  0  0  0  0  0  0  0  0
  191.6800  175.6600  144.1590 C   0  0  0  0  0  2  0  0  0  0  0  0
  191.0150  176.0020  146.5280 C   0  0  0  0  0  2  0  0  0  0  0  0
  189.7260  177.1910  144.7110 C   0  0  0  0  0  0  0  0  0  0  0  0
  189.1790  177.3680  141.9720 C   0  0  0  0  0  0  0  0  0  0  0  0
  189.3880  176.3450  139.6710 C   0  0  0  0  0  2  0  0  0  0  0  0
  190.2270  176.6370  142.4370 N   0  0  0  0  0  0  0  0  0  0  0  0
  189.2270  176.8730  138.2570 C   0  0  1  0  0  3  0  0  0  0  0  0
  188.6210  177.9440  144.2720 C   0  0  0  0  0  0  0  0  0  0  0  0
  188.4230  178.1640  138.3740 C   0  0  0  0  0  2  0  0  0  0  0  0
  188.3420  178.0380  142.8930 C   0  0  0  0  0  0  0  0  0  0  0  0
  188.9420  177.4060  140.5530 N   0  0  0  0  0  0  0  0  0  0  0  0
  187.7360  178.6300  145.2750 C   0  0  0  0  0  2  0  0  0  0  0  0
  187.8290  178.0080  147.7220 N   0  0  0  0  0  2  0  0  0  0  0  0
  186.7290  176.6600  146.1620 O   0  0  0  0  0  0  0  0  0  0  0  0
  187.5520  177.1230  148.8410 C   0  0  0  0  0  1  0  0  0  0  0  0
  187.3890  177.7080  146.3970 C   0  0  0  0  0  0  0  0  0  0  0  0
  190.6020  177.1600  137.6740 C   0  0  0  0  0  2  0  0  0  0  0  0
  191.4630  175.9430  137.7230 C   0  0  0  0  0  0  0  0  0  0  0  0
  191.0770  174.8760  137.1780 O   0  0  0  0  0  0  0  0  0  0  0  0
  192.7060  175.9940  138.3420 O   0  0  0  0  0  1  0  0  0  0  0  0
  181.2370  178.5480  141.8400 C   0  0  0  0  0  2  0  0  0  0  0  0
  180.3660  179.7600  142.1290 C   0  0  0  0  0  2  0  0  0  0  0  0
  180.2490  180.5940  140.9410 N   0  0  0  0  0  2  0  0  0  0  0  0
  179.7500  179.7720  139.8480 C   0  0  0  0  0  2  0  0  0  0  0  0
  180.9040  179.0920  139.1280 C   0  0  0  0  0  2  0  0  0  0  0  0
  180.4010  178.3760  138.0290 O   0  0  0  0  0  0  0  0  0  0  0  0
  181.3500  174.5210  137.1110 C   0  0  2  0  0  0  0  0  0  0  0  0
  184.5930  174.7750  137.2110 S   0  0  0  0  0  1  0  0  0  0  0  0
  181.9400  176.4320  138.0480 C   0  0  2  0  0  0  0  0  0  0  0  0
  180.0870  176.6830  139.5760 F   0  0  0  0  0  0  0  0  0  0  0  0
  182.1070  177.8640  135.8010 C   0  0  0  0  0  1  0  0  0  0  0  0
  182.4290  176.5920  136.5910 C   0  0  2  0  0  0  0  0  0  0  0  0
  180.4950  176.9860  138.2810 C   0  0  1  0  0  0  0  0  0  0  0  0
  179.8300  174.7710  137.1490 C   0  0  0  0  0  2  0  0  0  0  0  0
  182.0340  175.2600  135.9480 C   0  0  1  0  0  0  0  0  0  0  0  0
  181.6190  173.0310  137.0330 C   0  0  0  0  0  1  0  0  0  0  0  0
  183.5180  175.6650  136.0240 C   0  0  2  0  0  0  0  0  0  0  0  0
  179.5230  176.2710  137.3190 C   0  0  0  0  0  2  0  0  0  0  0  0
  182.8460  177.0150  138.9150 F   0  0  0  0  0  0  0  0  0  0  0  0
  181.3200  175.3490  134.5950 C   0  0  0  0  0  1  0  0  0  0  0  0
  181.8860  175.0470  138.2990 O   0  0  0  0  0  0  0  0  0  0  0  0
  184.1740  176.0790  134.7080 C   0  0  0  0  0  2  0  0  0  0  0  0
  185.4350  176.6220  134.9530 O   0  0  0  0  0  1  0  0  0  0  0  0
  1  4  1  0  0  0  0
  2  6  1  0  0  0  0
  3  2  2  0  0  0  0
  3  5  1  0  0  0  0
  5  1  1  0  0  0  0
  6  4  1  0  0  0  0
  7  8  1  0  0  0  0
  7  5  1  0  0  0  0
  8 22  1  0  0  0  0
  9 14  1  0  0  0  0
 10 23  1  0  0  0  0
 11 14  1  0  0  0  0
 12 13  1  0  0  0  0
 12 15  1  0  0  0  0
 13 11  1  0  0  0  0
 15  9  1  0  0  0  0
 16 18  1  0  0  0  0
 16 22  2  0  0  0  0
 17 23  1  0  0  0  0
 18 12  2  0  0  0  0
 19 29  1  1  0  0  0
 19 21  1  0  0  0  0
 19 17  1  0  0  0  0
 20 15  2  0  0  0  0
 20 24  1  0  0  0  0
 21 10  1  0  0  0  0
 22 20  1  0  0  0  0
 23 16  1  0  0  0  0
 24 28  1  0  0  0  0
 25 27  1  0  0  0  0
 26 28  2  0  0  0  0
 28 25  1  0  0  0  0
 29 30  1  0  0  0  0
 30 32  1  0  0  0  0
 31 30  2  0  0  0  0
 33 34  1  0  0  0  0
 33  2  1  0  0  0  0
 35 34  1  0  0  0  0
 36 35  1  0  0  0  0
 37 36  1  0  0  0  0
 38 45  1  0  0  0  0
 38 37  1  0  0  0  0
 39 48  1  6  0  0  0
 39 46  1  0  0  0  0
 39 53  1  0  0  0  0
 41 45  1  0  0  0  0
 41 53  1  0  0  0  0
 41 51  1  1  0  0  0
 44 43  1  6  0  0  0
 44 41  1  0  0  0  0
 45 42  1  1  0  0  0
 46 50  1  0  0  0  0
 47 52  1  6  0  0  0
 47 49  1  0  0  0  0
 47 44  1  0  0  0  0
 47 39  1  0  0  0  0
 49 44  1  0  0  0  0
 49 40  1  1  0  0  0
 50 45  1  0  0  0  0
 54 55  1  0  0  0  0
 54 49  1  0  0  0  0
M  END
>  <MODEL>
9

>  <REMARK>
 VINA RESULT:      -6.0      2.194      5.498
  Name = 
  15 active torsions:
  status: ('A' for Active; 'I' for Inactive)
    1  A    between atoms: N_2  and  C_28
    2  A    between atoms: N_2  and  N_44
    3  A    between atoms: C_8  and  O_22
    4  A    between atoms: C_8  and  C_43
    5  A    between atoms: C_10  and  C_32
    6  A    between atoms: C_11  and  C_38
    7  A    between atoms: C_19  and  C_40
    8  A    between atoms: C_19  and  C_45
    9  A    between atoms: C_20  and  O_22
   10  A    between atoms: C_27  and  C_54
   11  A    between atoms: C_28  and  C_49
   12  A    between atoms: C_32  and  C_39
   13  A    between atoms: N_35  and  C_43
   14  A    between atoms: N_35  and  C_51
   15  A    between atoms: C_51  and  C_54
                            x       y       z     vdW  Elec       q    Type
                         _______ _______ _______ _____ _____    ______ ____

>  <TORSDO>
F 15

$$$$
