=
 OpenBabel11052414253D

 34 38  0  0  1  0  0  0  0  0999 V2000
  189.7860  177.1920  146.3880 C   0  0  0  0  0  0  0  0  0  0  0  0
  191.1640  175.9860  144.7960 C   0  0  0  0  0  0  0  0  0  0  0  0
  189.1290  177.2680  144.0230 C   0  0  0  0  0  0  0  0  0  0  0  0
  188.4510  177.6360  141.6950 C   0  0  0  0  0  0  0  0  0  0  0  0
  190.7130  176.9150  147.3940 C   0  0  0  0  0  3  0  0  0  0  0  0
  192.0840  175.7230  145.8150 C   0  0  0  0  0  3  0  0  0  0  0  0
  190.8990  177.5380  142.2060 C   0  0  0  0  0  2  0  0  0  0  0  0
  190.0490  176.8380  145.0360 C   0  0  0  0  0  0  0  0  0  0  0  0
  191.1310  177.1130  140.7630 C   0  0  0  0  0  2  0  0  0  0  0  0
  188.7050  177.5890  140.2140 C   0  0  0  0  0  2  0  0  0  0  0  0
  191.8760  176.2100  147.1030 C   0  0  0  0  0  3  0  0  0  0  0  0
  187.8370  177.7210  144.4300 C   0  0  0  0  0  0  0  0  0  0  0  0
  188.5730  177.7660  146.7450 C   0  0  0  0  0  3  0  0  0  0  0  0
  191.3260  175.3040  143.5950 O   0  0  0  0  0  1  0  0  0  0  0  0
  187.1540  177.9010  142.1140 C   0  0  0  0  0  3  0  0  0  0  0  0
  186.8270  177.9750  143.4680 C   0  0  0  0  0  0  0  0  0  0  0  0
  190.1670  177.8830  139.8610 C   0  0  2  0  0  3  0  0  0  0  0  0
  189.4630  177.3610  142.6400 C   0  0  0  0  0  0  0  0  0  0  0  0
  187.5980  177.9910  145.7830 C   0  0  0  0  0  3  0  0  0  0  0  0
  183.1030  178.6320  143.1570 C   0  0  0  0  0  0  0  0  0  0  0  0
  182.7520  178.9010  144.4820 C   0  0  0  0  0  3  0  0  0  0  0  0
  185.4240  178.3200  143.8250 C   0  0  0  0  0  0  0  0  0  0  0  0
  183.7270  178.8740  145.4810 C   0  0  0  0  0  3  0  0  0  0  0  0
  184.4300  178.3390  142.8320 C   0  0  0  0  0  3  0  0  0  0  0  0
  185.0540  178.5810  145.1540 C   0  0  0  0  0  3  0  0  0  0  0  0
  182.1570  178.6530  142.1880 F   0  0  0  0  0  0  0  0  0  0  0  0
  190.4480  177.7270  138.4860 O   0  0  0  0  0  0  0  0  0  0  0  0
  189.2640  177.3880  137.8080 C   0  0  0  0  0  2  0  0  0  0  0  0
  189.0600  179.7240  137.3460 O   0  0  0  0  0  1  0  0  0  0  0  0
  188.9320  178.4570  136.7770 C   0  0  2  0  0  3  0  0  0  0  0  0
  187.5340  178.2700  136.1860 C   0  0  0  0  0  2  0  0  0  0  0  0
  186.0480  178.8210  138.1170 O   0  0  0  0  0  1  0  0  0  0  0  0
  186.5210  177.8790  137.2130 C   0  0  0  0  0  0  0  0  0  0  0  0
  186.0780  176.7030  137.2460 O   0  0  0  0  0  0  0  0  0  0  0  0
  1 13  1  0  0  0  0
  1  5  2  0  0  0  0
  2  8  2  0  0  0  0
  2  6  1  0  0  0  0
  3 12  1  0  0  0  0
  3  8  1  0  0  0  0
  4 15  2  0  0  0  0
  4 18  1  0  0  0  0
  6 11  2  0  0  0  0
  7 18  1  0  0  0  0
  8  1  1  0  0  0  0
  9  7  1  0  0  0  0
 10  4  1  0  0  0  0
 11  5  1  0  0  0  0
 12 19  1  0  0  0  0
 14  2  1  0  0  0  0
 15 16  1  0  0  0  0
 16 22  1  0  0  0  0
 16 12  2  0  0  0  0
 17 27  1  6  0  0  0
 17 10  1  0  0  0  0
 17  9  1  0  0  0  0
 18  3  2  0  0  0  0
 19 13  2  0  0  0  0
 20 21  1  0  0  0  0
 21 23  2  0  0  0  0
 22 25  2  0  0  0  0
 24 20  2  0  0  0  0
 24 22  1  0  0  0  0
 25 23  1  0  0  0  0
 26 20  1  0  0  0  0
 28 27  1  0  0  0  0
 30 29  1  1  0  0  0
 30 28  1  0  0  0  0
 31 30  1  0  0  0  0
 31 33  1  0  0  0  0
 33 34  2  0  0  0  0
 33 32  1  0  0  0  0
M  END
>  <MODEL>
1

>  <REMARK>
 VINA RESULT:     -11.2      0.000      0.000
  Name = 
  6 active torsions:
  status: ('A' for Active; 'I' for Inactive)
    1  A    between atoms: O_3  and  C_13
    2  A    between atoms: O_3  and  C_29
    3  A    between atoms: C_12  and  C_28
    4  A    between atoms: C_13  and  C_33
    5  A    between atoms: C_20  and  C_22
    6  A    between atoms: C_22  and  C_33
                            x       y       z     vdW  Elec       q    Type
                         _______ _______ _______ _____ _____    ______ ____

>  <TORSDO>
F 6

$$$$
=
 OpenBabel11052414253D

 34 38  0  0  1  0  0  0  0  0999 V2000
  189.7330  177.3380  146.5540 C   0  0  0  0  0  0  0  0  0  0  0  0
  191.2110  176.0780  145.1000 C   0  0  0  0  0  0  0  0  0  0  0  0
  189.2100  177.2960  144.1550 C   0  0  0  0  0  0  0  0  0  0  0  0
  188.6590  177.5470  141.7780 C   0  0  0  0  0  0  0  0  0  0  0  0
  190.6040  177.1200  147.6220 C   0  0  0  0  0  3  0  0  0  0  0  0
  192.0750  175.8750  146.1790 C   0  0  0  0  0  3  0  0  0  0  0  0
  191.0760  177.5050  142.4290 C   0  0  0  0  0  2  0  0  0  0  0  0
  190.0760  176.9250  145.2370 C   0  0  0  0  0  0  0  0  0  0  0  0
  191.3930  177.0170  141.0230 C   0  0  0  0  0  2  0  0  0  0  0  0
  188.9970  177.4360  140.3180 C   0  0  0  0  0  2  0  0  0  0  0  0
  191.7890  176.4170  147.4290 C   0  0  0  0  0  3  0  0  0  0  0  0
  187.8920  177.7500  144.4680 C   0  0  0  0  0  0  0  0  0  0  0  0
  188.4950  177.9120  146.8160 C   0  0  0  0  0  3  0  0  0  0  0  0
  191.4470  175.3430  143.9430 O   0  0  0  0  0  1  0  0  0  0  0  0
  187.3380  177.8150  142.1120 C   0  0  0  0  0  3  0  0  0  0  0  0
  186.9350  177.9470  143.4410 C   0  0  0  0  0  0  0  0  0  0  0  0
  190.4730  177.7320  140.0340 C   0  0  2  0  0  3  0  0  0  0  0  0
  189.6190  177.3290  142.7900 C   0  0  0  0  0  0  0  0  0  0  0  0
  187.5750  178.0790  145.7920 C   0  0  0  0  0  3  0  0  0  0  0  0
  183.2400  178.6010  142.8790 C   0  0  0  0  0  0  0  0  0  0  0  0
  182.7990  178.8650  144.1780 C   0  0  0  0  0  3  0  0  0  0  0  0
  185.5100  178.2890  143.7020 C   0  0  0  0  0  0  0  0  0  0  0  0
  183.7040  178.8360  145.2400 C   0  0  0  0  0  3  0  0  0  0  0  0
  184.5870  178.3100  142.6440 C   0  0  0  0  0  3  0  0  0  0  0  0
  185.0510  178.5450  145.0040 C   0  0  0  0  0  3  0  0  0  0  0  0
  182.3620  178.6250  141.8470 F   0  0  0  0  0  0  0  0  0  0  0  0
  190.8330  177.5160  138.6860 O   0  0  0  0  0  0  0  0  0  0  0  0
  191.9160  176.6210  138.6330 C   0  0  0  0  0  2  0  0  0  0  0  0
  190.4970  174.7970  138.0220 O   0  0  0  0  0  1  0  0  0  0  0  0
  191.6270  175.5150  137.6290 C   0  0  2  0  0  3  0  0  0  0  0  0
  192.8230  174.5790  137.4460 C   0  0  0  0  0  2  0  0  0  0  0  0
  194.9960  175.0720  138.5750 O   0  0  0  0  0  1  0  0  0  0  0  0
  194.1320  175.2970  137.5110 C   0  0  0  0  0  0  0  0  0  0  0  0
  194.4640  176.0870  136.5910 O   0  0  0  0  0  0  0  0  0  0  0  0
  1 13  1  0  0  0  0
  1  5  2  0  0  0  0
  2  8  2  0  0  0  0
  2  6  1  0  0  0  0
  3 12  1  0  0  0  0
  3  8  1  0  0  0  0
  4 15  2  0  0  0  0
  4 18  1  0  0  0  0
  6 11  2  0  0  0  0
  7 18  1  0  0  0  0
  8  1  1  0  0  0  0
  9  7  1  0  0  0  0
 10  4  1  0  0  0  0
 11  5  1  0  0  0  0
 12 19  1  0  0  0  0
 14  2  1  0  0  0  0
 15 16  1  0  0  0  0
 16 22  1  0  0  0  0
 16 12  2  0  0  0  0
 17 27  1  6  0  0  0
 17 10  1  0  0  0  0
 17  9  1  0  0  0  0
 18  3  2  0  0  0  0
 19 13  2  0  0  0  0
 20 21  1  0  0  0  0
 21 23  2  0  0  0  0
 22 25  2  0  0  0  0
 24 20  2  0  0  0  0
 24 22  1  0  0  0  0
 25 23  1  0  0  0  0
 26 20  1  0  0  0  0
 28 27  1  0  0  0  0
 30 29  1  1  0  0  0
 30 28  1  0  0  0  0
 31 33  1  0  0  0  0
 31 30  1  0  0  0  0
 33 32  1  0  0  0  0
 34 33  2  0  0  0  0
M  END
>  <MODEL>
2

>  <REMARK>
 VINA RESULT:     -10.9      1.870      3.103
  Name = 
  6 active torsions:
  status: ('A' for Active; 'I' for Inactive)
    1  A    between atoms: O_3  and  C_13
    2  A    between atoms: O_3  and  C_29
    3  A    between atoms: C_12  and  C_28
    4  A    between atoms: C_13  and  C_33
    5  A    between atoms: C_20  and  C_22
    6  A    between atoms: C_22  and  C_33
                            x       y       z     vdW  Elec       q    Type
                         _______ _______ _______ _____ _____    ______ ____

>  <TORSDO>
F 6

$$$$
=
 OpenBabel11052414253D

 34 38  0  0  1  0  0  0  0  0999 V2000
  187.0060  178.3120  146.9590 C   0  0  0  0  0  0  0  0  0  0  0  0
  188.8850  177.1160  145.9960 C   0  0  0  0  0  0  0  0  0  0  0  0
  187.0570  178.0420  144.5190 C   0  0  0  0  0  0  0  0  0  0  0  0
  187.0510  178.0620  142.0660 C   0  0  0  0  0  0  0  0  0  0  0  0
  187.6220  178.2660  148.2110 C   0  0  0  0  0  3  0  0  0  0  0  0
  189.4900  177.0850  147.2560 C   0  0  0  0  0  3  0  0  0  0  0  0
  189.2460  178.3260  143.2410 C   0  0  0  0  0  2  0  0  0  0  0  0
  187.6780  177.8450  145.7970 C   0  0  0  0  0  0  0  0  0  0  0  0
  189.9210  177.7750  141.9930 C   0  0  0  0  0  2  0  0  0  0  0  0
  187.7250  177.8820  140.7350 C   0  0  0  0  0  2  0  0  0  0  0  0
  188.8770  177.6820  148.3540 C   0  0  0  0  0  3  0  0  0  0  0  0
  185.6670  178.3740  144.4860 C   0  0  0  0  0  0  0  0  0  0  0  0
  185.6960  178.7670  146.8840 C   0  0  0  0  0  3  0  0  0  0  0  0
  189.4450  176.3300  144.9960 O   0  0  0  0  0  1  0  0  0  0  0  0
  185.6700  178.2100  142.0700 C   0  0  0  0  0  3  0  0  0  0  0  0
  184.9610  178.3930  143.2580 C   0  0  0  0  0  0  0  0  0  0  0  0
  189.1950  178.3140  140.7610 C   0  0  2  0  0  3  0  0  0  0  0  0
  187.7660  178.0210  143.2830 C   0  0  0  0  0  0  0  0  0  0  0  0
  185.0250  178.7610  145.6690 C   0  0  0  0  0  3  0  0  0  0  0  0
  181.4850  178.8240  141.7970 C   0  0  0  0  0  0  0  0  0  0  0  0
  180.7040  178.9170  142.9510 C   0  0  0  0  0  3  0  0  0  0  0  0
  183.4900  178.5980  143.1610 C   0  0  0  0  0  0  0  0  0  0  0  0
  181.3060  178.8450  144.2090 C   0  0  0  0  0  3  0  0  0  0  0  0
  182.8690  178.6600  141.9020 C   0  0  0  0  0  3  0  0  0  0  0  0
  182.6900  178.6820  144.3120 C   0  0  0  0  0  3  0  0  0  0  0  0
  180.9020  178.8890  140.5760 F   0  0  0  0  0  0  0  0  0  0  0  0
  189.8750  178.0420  139.5530 O   0  0  0  0  0  0  0  0  0  0  0  0
  188.9710  177.4900  138.6280 C   0  0  0  0  0  2  0  0  0  0  0  0
  189.0510  179.6650  137.6400 O   0  0  0  0  0  1  0  0  0  0  0  0
  188.9810  178.3030  137.3420 C   0  0  2  0  0  3  0  0  0  0  0  0
  187.7650  178.0060  136.4640 C   0  0  0  0  0  2  0  0  0  0  0  0
  185.8690  176.6150  137.3080 O   0  0  0  0  0  0  0  0  0  0  0  0
  186.5070  177.8470  137.2560 C   0  0  0  0  0  0  0  0  0  0  0  0
  186.0380  178.8230  137.8950 O   0  0  0  0  0  1  0  0  0  0  0  0
  1  5  2  0  0  0  0
  2  6  1  0  0  0  0
  3  8  1  0  0  0  0
  4 15  2  0  0  0  0
  4 18  1  0  0  0  0
  5 11  1  0  0  0  0
  6 11  2  0  0  0  0
  7 18  1  0  0  0  0
  8  2  2  0  0  0  0
  8  1  1  0  0  0  0
  9  7  1  0  0  0  0
 10 17  1  0  0  0  0
 10  4  1  0  0  0  0
 12  3  1  0  0  0  0
 12 19  1  0  0  0  0
 13  1  1  0  0  0  0
 14  2  1  0  0  0  0
 15 16  1  0  0  0  0
 16 12  2  0  0  0  0
 17 27  1  6  0  0  0
 17  9  1  0  0  0  0
 18  3  2  0  0  0  0
 19 13  2  0  0  0  0
 20 24  2  0  0  0  0
 20 21  1  0  0  0  0
 21 23  2  0  0  0  0
 22 16  1  0  0  0  0
 22 25  2  0  0  0  0
 23 25  1  0  0  0  0
 24 22  1  0  0  0  0
 26 20  1  0  0  0  0
 28 27  1  0  0  0  0
 30 29  1  1  0  0  0
 30 28  1  0  0  0  0
 31 33  1  0  0  0  0
 31 30  1  0  0  0  0
 33 32  2  0  0  0  0
 33 34  1  0  0  0  0
M  END
>  <MODEL>
3

>  <REMARK>
 VINA RESULT:     -10.7      1.342      2.213
  Name = 
  6 active torsions:
  status: ('A' for Active; 'I' for Inactive)
    1  A    between atoms: O_3  and  C_13
    2  A    between atoms: O_3  and  C_29
    3  A    between atoms: C_12  and  C_28
    4  A    between atoms: C_13  and  C_33
    5  A    between atoms: C_20  and  C_22
    6  A    between atoms: C_22  and  C_33
                            x       y       z     vdW  Elec       q    Type
                         _______ _______ _______ _____ _____    ______ ____

>  <TORSDO>
F 6

$$$$
=
 OpenBabel11052414253D

 34 38  0  0  1  0  0  0  0  0999 V2000
  188.6430  177.1980  146.1710 C   0  0  0  0  0  0  0  0  0  0  0  0
  186.8300  178.6050  146.9590 C   0  0  0  0  0  0  0  0  0  0  0  0
  187.0320  178.0190  144.5100 C   0  0  0  0  0  0  0  0  0  0  0  0
  185.4070  178.5600  142.7540 C   0  0  0  0  0  0  0  0  0  0  0  0
  189.0310  176.9640  147.4920 C   0  0  0  0  0  3  0  0  0  0  0  0
  187.2280  178.3550  148.2750 C   0  0  0  0  0  3  0  0  0  0  0  0
  184.5390  178.0610  145.0490 C   0  0  0  0  0  2  0  0  0  0  0  0
  187.4580  177.9260  145.8770 C   0  0  0  0  0  0  0  0  0  0  0  0
  183.3090  178.8900  144.7080 C   0  0  0  0  0  2  0  0  0  0  0  0
  184.0610  179.0470  142.2950 C   0  0  0  0  0  2  0  0  0  0  0  0
  188.3060  177.5150  148.5440 C   0  0  0  0  0  3  0  0  0  0  0  0
  187.9700  177.6870  143.4840 C   0  0  0  0  0  0  0  0  0  0  0  0
  189.4750  176.7570  145.1500 C   0  0  0  0  0  3  0  0  0  0  0  0
  185.8860  179.6050  146.7540 O   0  0  0  0  0  1  0  0  0  0  0  0
  186.3930  178.3990  141.7910 C   0  0  0  0  0  3  0  0  0  0  0  0
  187.6690  177.9410  142.1230 C   0  0  0  0  0  0  0  0  0  0  0  0
  182.9340  178.6380  143.2490 C   0  0  2  0  0  3  0  0  0  0  0  0
  185.6980  178.3300  144.1170 C   0  0  0  0  0  0  0  0  0  0  0  0
  189.1600  177.0320  143.8270 C   0  0  0  0  0  3  0  0  0  0  0  0
  189.4150  178.2940  138.7730 C   0  0  0  0  0  0  0  0  0  0  0  0
  190.5120  177.4460  138.9350 C   0  0  0  0  0  3  0  0  0  0  0  0
  188.6450  177.7450  141.0170 C   0  0  0  0  0  0  0  0  0  0  0  0
  190.6860  176.7530  140.1350 C   0  0  0  0  0  3  0  0  0  0  0  0
  188.4890  178.4460  139.8090 C   0  0  0  0  0  3  0  0  0  0  0  0
  189.7590  176.9050  141.1700 C   0  0  0  0  0  3  0  0  0  0  0  0
  189.2470  178.9720  137.6110 F   0  0  0  0  0  0  0  0  0  0  0  0
  181.6820  179.1870  142.8950 O   0  0  0  0  0  0  0  0  0  0  0  0
  181.1640  178.4850  141.7920 C   0  0  0  0  0  2  0  0  0  0  0  0
  179.7040  179.4440  140.1610 O   0  0  0  0  0  1  0  0  0  0  0  0
  181.0280  179.4190  140.5990 C   0  0  2  0  0  3  0  0  0  0  0  0
  181.9660  179.0280  139.4550 C   0  0  0  0  0  2  0  0  0  0  0  0
  184.1790  180.1280  139.0900 O   0  0  0  0  0  1  0  0  0  0  0  0
  182.7960  180.1730  138.9730 C   0  0  0  0  0  0  0  0  0  0  0  0
  182.2450  181.1700  138.4400 O   0  0  0  0  0  0  0  0  0  0  0  0
  1  5  2  0  0  0  0
  2  6  1  0  0  0  0
  3  8  1  0  0  0  0
  4 18  2  0  0  0  0
  5 11  1  0  0  0  0
  6 11  2  0  0  0  0
  8  1  1  0  0  0  0
  8  2  2  0  0  0  0
  9  7  1  0  0  0  0
 10  4  1  0  0  0  0
 10 17  1  0  0  0  0
 12 19  1  0  0  0  0
 12  3  2  0  0  0  0
 13  1  1  0  0  0  0
 14  2  1  0  0  0  0
 15 16  2  0  0  0  0
 15  4  1  0  0  0  0
 16 12  1  0  0  0  0
 17 27  1  6  0  0  0
 17  9  1  0  0  0  0
 18  3  1  0  0  0  0
 18  7  1  0  0  0  0
 19 13  2  0  0  0  0
 20 21  2  0  0  0  0
 20 24  1  0  0  0  0
 21 23  1  0  0  0  0
 22 25  1  0  0  0  0
 22 16  1  0  0  0  0
 23 25  2  0  0  0  0
 24 22  2  0  0  0  0
 26 20  1  0  0  0  0
 28 27  1  0  0  0  0
 30 29  1  6  0  0  0
 30 28  1  0  0  0  0
 31 30  1  0  0  0  0
 33 32  1  0  0  0  0
 33 31  1  0  0  0  0
 34 33  2  0  0  0  0
M  END
>  <MODEL>
4

>  <REMARK>
 VINA RESULT:     -10.7      3.071      6.127
  Name = 
  6 active torsions:
  status: ('A' for Active; 'I' for Inactive)
    1  A    between atoms: O_3  and  C_13
    2  A    between atoms: O_3  and  C_29
    3  A    between atoms: C_12  and  C_28
    4  A    between atoms: C_13  and  C_33
    5  A    between atoms: C_20  and  C_22
    6  A    between atoms: C_22  and  C_33
                            x       y       z     vdW  Elec       q    Type
                         _______ _______ _______ _____ _____    ______ ____

>  <TORSDO>
F 6

$$$$
=
 OpenBabel11052414253D

 34 38  0  0  1  0  0  0  0  0999 V2000
  187.1290  178.4480  147.1400 C   0  0  0  0  0  0  0  0  0  0  0  0
  189.0580  177.1340  146.4780 C   0  0  0  0  0  0  0  0  0  0  0  0
  187.4300  177.9910  144.7460 C   0  0  0  0  0  0  0  0  0  0  0  0
  187.6850  177.8220  142.3130 C   0  0  0  0  0  0  0  0  0  0  0  0
  187.6070  178.4830  148.4510 C   0  0  0  0  0  3  0  0  0  0  0  0
  189.5250  177.1840  147.7940 C   0  0  0  0  0  3  0  0  0  0  0  0
  189.7510  178.1190  143.6960 C   0  0  0  0  0  2  0  0  0  0  0  0
  187.9050  177.8760  146.0950 C   0  0  0  0  0  0  0  0  0  0  0  0
  190.5360  177.4570  142.5730 C   0  0  0  0  0  2  0  0  0  0  0  0
  188.4910  177.5230  141.0800 C   0  0  0  0  0  2  0  0  0  0  0  0
  188.8190  177.8790  148.7720 C   0  0  0  0  0  3  0  0  0  0  0  0
  186.0640  178.3540  144.5390 C   0  0  0  0  0  0  0  0  0  0  0  0
  185.8500  178.9290  146.8900 C   0  0  0  0  0  3  0  0  0  0  0  0
  189.6950  176.2600  145.6050 O   0  0  0  0  0  1  0  0  0  0  0  0
  186.3180  178.0050  142.1560 C   0  0  0  0  0  3  0  0  0  0  0  0
  185.4920  178.2970  143.2430 C   0  0  0  0  0  0  0  0  0  0  0  0
  189.9630  177.9180  141.2330 C   0  0  2  0  0  3  0  0  0  0  0  0
  188.2650  177.8560  143.6000 C   0  0  0  0  0  0  0  0  0  0  0  0
  185.3130  178.8480  145.6130 C   0  0  0  0  0  3  0  0  0  0  0  0
  182.1900  178.6090  141.4000 C   0  0  0  0  0  0  0  0  0  0  0  0
  181.3110  178.9030  142.4440 C   0  0  0  0  0  3  0  0  0  0  0  0
  184.0480  178.5310  142.9720 C   0  0  0  0  0  0  0  0  0  0  0  0
  181.7900  179.0050  143.7510 C   0  0  0  0  0  3  0  0  0  0  0  0
  183.5500  178.4200  141.6630 C   0  0  0  0  0  3  0  0  0  0  0  0
  183.1500  178.8160  144.0140 C   0  0  0  0  0  3  0  0  0  0  0  0
  181.7260  178.5050  140.1310 F   0  0  0  0  0  0  0  0  0  0  0  0
  190.7580  177.5370  140.1290 O   0  0  0  0  0  0  0  0  0  0  0  0
  189.9250  177.0430  139.1090 C   0  0  0  0  0  2  0  0  0  0  0  0
  189.8760  176.5080  136.7810 O   0  0  0  0  0  1  0  0  0  0  0  0
  190.7280  176.8520  137.8310 C   0  0  2  0  0  3  0  0  0  0  0  0
  191.8300  175.8040  137.9960 C   0  0  0  0  0  2  0  0  0  0  0  0
  193.9150  176.6070  136.8800 O   0  0  0  0  0  0  0  0  0  0  0  0
  193.1960  176.4070  138.0500 C   0  0  0  0  0  0  0  0  0  0  0  0
  193.6870  176.7570  139.1540 O   0  0  0  0  0  1  0  0  0  0  0  0
  1  5  2  0  0  0  0
  2  6  1  0  0  0  0
  3  8  1  0  0  0  0
  4 18  1  0  0  0  0
  5 11  1  0  0  0  0
  6 11  2  0  0  0  0
  8  2  2  0  0  0  0
  8  1  1  0  0  0  0
  9  7  1  0  0  0  0
 10 17  1  0  0  0  0
 10  4  1  0  0  0  0
 12  3  1  0  0  0  0
 12 19  1  0  0  0  0
 13  1  1  0  0  0  0
 14  2  1  0  0  0  0
 15  4  2  0  0  0  0
 15 16  1  0  0  0  0
 16 12  2  0  0  0  0
 17 27  1  6  0  0  0
 17  9  1  0  0  0  0
 18  7  1  0  0  0  0
 18  3  2  0  0  0  0
 19 13  2  0  0  0  0
 20 24  2  0  0  0  0
 20 21  1  0  0  0  0
 21 23  2  0  0  0  0
 22 16  1  0  0  0  0
 22 25  2  0  0  0  0
 23 25  1  0  0  0  0
 24 22  1  0  0  0  0
 26 20  1  0  0  0  0
 28 27  1  0  0  0  0
 30 29  1  6  0  0  0
 30 31  1  0  0  0  0
 30 28  1  0  0  0  0
 31 33  1  0  0  0  0
 32 33  2  0  0  0  0
 33 34  1  0  0  0  0
M  END
>  <MODEL>
5

>  <REMARK>
 VINA RESULT:     -10.6      2.096      3.305
  Name = 
  6 active torsions:
  status: ('A' for Active; 'I' for Inactive)
    1  A    between atoms: O_3  and  C_13
    2  A    between atoms: O_3  and  C_29
    3  A    between atoms: C_12  and  C_28
    4  A    between atoms: C_13  and  C_33
    5  A    between atoms: C_20  and  C_22
    6  A    between atoms: C_22  and  C_33
                            x       y       z     vdW  Elec       q    Type
                         _______ _______ _______ _____ _____    ______ ____

>  <TORSDO>
F 6

$$$$
=
 OpenBabel11052414253D

 34 38  0  0  1  0  0  0  0  0999 V2000
  188.6530  177.2220  146.3860 C   0  0  0  0  0  0  0  0  0  0  0  0
  186.8900  178.6610  147.2260 C   0  0  0  0  0  0  0  0  0  0  0  0
  187.0080  178.0700  144.7730 C   0  0  0  0  0  0  0  0  0  0  0  0
  185.3410  178.6390  143.0670 C   0  0  0  0  0  0  0  0  0  0  0  0
  189.0760  176.9820  147.6950 C   0  0  0  0  0  3  0  0  0  0  0  0
  187.3230  178.4050  148.5300 C   0  0  0  0  0  3  0  0  0  0  0  0
  184.5340  178.1570  145.3870 C   0  0  0  0  0  2  0  0  0  0  0  0
  187.4730  177.9710  146.1260 C   0  0  0  0  0  0  0  0  0  0  0  0
  183.3090  179.0080  145.0820 C   0  0  0  0  0  2  0  0  0  0  0  0
  183.9910  179.1500  142.6470 C   0  0  0  0  0  2  0  0  0  0  0  0
  188.3930  177.5460  148.7670 C   0  0  0  0  0  3  0  0  0  0  0  0
  187.9090  177.7200  143.7200 C   0  0  0  0  0  0  0  0  0  0  0  0
  189.4460  176.7640  145.3410 C   0  0  0  0  0  3  0  0  0  0  0  0
  185.9590  179.6780  147.0480 O   0  0  0  0  0  1  0  0  0  0  0  0
  186.2940  178.4590  142.0740 C   0  0  0  0  0  3  0  0  0  0  0  0
  187.5710  177.9790  142.3680 C   0  0  0  0  0  0  0  0  0  0  0  0
  182.8850  178.7620  143.6350 C   0  0  2  0  0  3  0  0  0  0  0  0
  185.6680  178.4050  144.4200 C   0  0  0  0  0  0  0  0  0  0  0  0
  189.0960  177.0440  144.0280 C   0  0  0  0  0  3  0  0  0  0  0  0
  189.2080  178.2820  138.9590 C   0  0  0  0  0  0  0  0  0  0  0  0
  190.3070  177.4310  139.0960 C   0  0  0  0  0  3  0  0  0  0  0  0
  188.5090  177.7650  141.2330 C   0  0  0  0  0  0  0  0  0  0  0  0
  190.5160  176.7520  140.2980 C   0  0  0  0  0  3  0  0  0  0  0  0
  188.3180  178.4520  140.0230 C   0  0  0  0  0  3  0  0  0  0  0  0
  189.6250  176.9210  141.3610 C   0  0  0  0  0  3  0  0  0  0  0  0
  189.0060  178.9460  137.7950 F   0  0  0  0  0  0  0  0  0  0  0  0
  181.6330  179.3330  143.3180 O   0  0  0  0  0  0  0  0  0  0  0  0
  180.6450  178.3330  143.3570 C   0  0  0  0  0  2  0  0  0  0  0  0
  179.3060  177.1470  141.7720 O   0  0  0  0  0  1  0  0  0  0  0  0
  179.7720  178.4170  142.1140 C   0  0  2  0  0  3  0  0  0  0  0  0
  180.5090  179.0560  140.9360 C   0  0  0  0  0  2  0  0  0  0  0  0
  179.6490  180.6410  139.2070 O   0  0  0  0  0  0  0  0  0  0  0  0
  179.9300  180.3760  140.5410 C   0  0  0  0  0  0  0  0  0  0  0  0
  179.6750  181.2400  141.4190 O   0  0  0  0  0  1  0  0  0  0  0  0
  1  5  2  0  0  0  0
  2  6  1  0  0  0  0
  3  8  1  0  0  0  0
  4 18  2  0  0  0  0
  5 11  1  0  0  0  0
  6 11  2  0  0  0  0
  8  1  1  0  0  0  0
  8  2  2  0  0  0  0
  9  7  1  0  0  0  0
 10  4  1  0  0  0  0
 10 17  1  0  0  0  0
 12 19  1  0  0  0  0
 12  3  2  0  0  0  0
 13  1  1  0  0  0  0
 14  2  1  0  0  0  0
 15 16  2  0  0  0  0
 15  4  1  0  0  0  0
 16 12  1  0  0  0  0
 17 27  1  6  0  0  0
 17  9  1  0  0  0  0
 18  3  1  0  0  0  0
 18  7  1  0  0  0  0
 19 13  2  0  0  0  0
 20 21  2  0  0  0  0
 20 24  1  0  0  0  0
 21 23  1  0  0  0  0
 22 25  1  0  0  0  0
 22 16  1  0  0  0  0
 23 25  2  0  0  0  0
 24 22  2  0  0  0  0
 26 20  1  0  0  0  0
 27 28  1  0  0  0  0
 30 29  1  6  0  0  0
 30 28  1  0  0  0  0
 31 30  1  0  0  0  0
 32 33  2  0  0  0  0
 33 31  1  0  0  0  0
 33 34  1  0  0  0  0
M  END
>  <MODEL>
6

>  <REMARK>
 VINA RESULT:     -10.4      3.785      6.658
  Name = 
  6 active torsions:
  status: ('A' for Active; 'I' for Inactive)
    1  A    between atoms: O_3  and  C_13
    2  A    between atoms: O_3  and  C_29
    3  A    between atoms: C_12  and  C_28
    4  A    between atoms: C_13  and  C_33
    5  A    between atoms: C_20  and  C_22
    6  A    between atoms: C_22  and  C_33
                            x       y       z     vdW  Elec       q    Type
                         _______ _______ _______ _____ _____    ______ ____

>  <TORSDO>
F 6

$$$$
=
 OpenBabel11052414253D

 34 38  0  0  1  0  0  0  0  0999 V2000
  185.9110  177.8450  143.6790 C   0  0  0  0  0  0  0  0  0  0  0  0
  186.1910  178.8690  141.4980 C   0  0  0  0  0  0  0  0  0  0  0  0
  188.1130  177.6630  142.6080 C   0  0  0  0  0  0  0  0  0  0  0  0
  190.3000  177.1940  141.6020 C   0  0  0  0  0  0  0  0  0  0  0  0
  184.5450  178.1270  143.6330 C   0  0  0  0  0  3  0  0  0  0  0  0
  184.8200  179.1400  141.4660 C   0  0  0  0  0  3  0  0  0  0  0  0
  188.2900  177.1800  140.1090 C   0  0  0  0  0  2  0  0  0  0  0  0
  186.7480  178.1000  142.5580 C   0  0  0  0  0  0  0  0  0  0  0  0
  189.2170  177.5020  138.9450 C   0  0  0  0  0  2  0  0  0  0  0  0
  191.2370  177.1350  140.4280 C   0  0  0  0  0  2  0  0  0  0  0  0
  183.9940  178.7450  142.5150 C   0  0  0  0  0  3  0  0  0  0  0  0
  188.6660  177.3110  143.8780 C   0  0  0  0  0  0  0  0  0  0  0  0
  186.4470  177.3650  144.8680 C   0  0  0  0  0  3  0  0  0  0  0  0
  186.9850  179.4660  140.5250 O   0  0  0  0  0  1  0  0  0  0  0  0
  190.8480  177.0300  142.8670 C   0  0  0  0  0  3  0  0  0  0  0  0
  190.0540  177.0580  144.0140 C   0  0  0  0  0  0  0  0  0  0  0  0
  190.5260  176.7360  139.1310 C   0  0  2  0  0  3  0  0  0  0  0  0
  188.9230  177.4670  141.4520 C   0  0  0  0  0  0  0  0  0  0  0  0
  187.8120  177.1380  144.9740 C   0  0  0  0  0  3  0  0  0  0  0  0
  190.8980  177.2870  147.7060 C   0  0  0  0  0  0  0  0  0  0  0  0
  191.9120  176.3340  147.8240 C   0  0  0  0  0  3  0  0  0  0  0  0
  190.7190  176.8170  145.3230 C   0  0  0  0  0  0  0  0  0  0  0  0
  192.3280  175.6160  146.7000 C   0  0  0  0  0  3  0  0  0  0  0  0
  190.3020  177.5240  146.4640 C   0  0  0  0  0  3  0  0  0  0  0  0
  191.7310  175.8540  145.4590 C   0  0  0  0  0  3  0  0  0  0  0  0
  190.4900  177.9810  148.7960 F   0  0  0  0  0  0  0  0  0  0  0  0
  191.3660  176.7920  137.9970 O   0  0  0  0  0  0  0  0  0  0  0  0
  191.9800  175.5400  137.8140 C   0  0  0  0  0  2  0  0  0  0  0  0
  193.9680  176.6440  137.0820 O   0  0  0  0  0  1  0  0  0  0  0  0
  193.4880  175.6730  137.9610 C   0  0  2  0  0  3  0  0  0  0  0  0
  194.2070  174.3420  137.7380 C   0  0  0  0  0  2  0  0  0  0  0  0
  195.6880  175.1100  139.5970 O   0  0  0  0  0  1  0  0  0  0  0  0
  195.2830  174.0920  138.7440 C   0  0  0  0  0  0  0  0  0  0  0  0
  195.8080  172.9530  138.8350 O   0  0  0  0  0  0  0  0  0  0  0  0
  1 13  1  0  0  0  0
  2  8  1  0  0  0  0
  3 12  1  0  0  0  0
  4 15  2  0  0  0  0
  5  1  1  0  0  0  0
  6  2  2  0  0  0  0
  6 11  1  0  0  0  0
  7 18  1  0  0  0  0
  8  3  1  0  0  0  0
  8  1  2  0  0  0  0
  9 17  1  0  0  0  0
  9  7  1  0  0  0  0
 10  4  1  0  0  0  0
 11  5  2  0  0  0  0
 12 16  2  0  0  0  0
 12 19  1  0  0  0  0
 13 19  2  0  0  0  0
 14  2  1  0  0  0  0
 15 16  1  0  0  0  0
 16 22  1  0  0  0  0
 17 27  1  6  0  0  0
 17 10  1  0  0  0  0
 18  4  1  0  0  0  0
 18  3  2  0  0  0  0
 20 21  1  0  0  0  0
 20 26  1  0  0  0  0
 22 25  2  0  0  0  0
 22 24  1  0  0  0  0
 23 21  2  0  0  0  0
 24 20  2  0  0  0  0
 25 23  1  0  0  0  0
 28 30  1  0  0  0  0
 28 27  1  0  0  0  0
 30 29  1  6  0  0  0
 31 30  1  0  0  0  0
 31 33  1  0  0  0  0
 33 34  2  0  0  0  0
 33 32  1  0  0  0  0
M  END
>  <MODEL>
7

>  <REMARK>
 VINA RESULT:     -10.1      3.090      6.418
  Name = 
  6 active torsions:
  status: ('A' for Active; 'I' for Inactive)
    1  A    between atoms: O_3  and  C_13
    2  A    between atoms: O_3  and  C_29
    3  A    between atoms: C_12  and  C_28
    4  A    between atoms: C_13  and  C_33
    5  A    between atoms: C_20  and  C_22
    6  A    between atoms: C_22  and  C_33
                            x       y       z     vdW  Elec       q    Type
                         _______ _______ _______ _____ _____    ______ ____

>  <TORSDO>
F 6

$$$$
=
 OpenBabel11052414253D

 34 38  0  0  1  0  0  0  0  0999 V2000
  190.8340  176.3680  144.9120 C   0  0  0  0  0  0  0  0  0  0  0  0
  189.5360  177.6880  146.4800 C   0  0  0  0  0  0  0  0  0  0  0  0
  188.7760  177.4220  144.0850 C   0  0  0  0  0  0  0  0  0  0  0  0
  186.6520  178.2120  143.1460 C   0  0  0  0  0  0  0  0  0  0  0  0
  191.6690  175.9590  145.9530 C   0  0  0  0  0  3  0  0  0  0  0  0
  190.3780  177.2630  147.5110 C   0  0  0  0  0  3  0  0  0  0  0  0
  186.6700  177.4330  145.5250 C   0  0  0  0  0  2  0  0  0  0  0  0
  189.6730  177.1460  145.1710 C   0  0  0  0  0  0  0  0  0  0  0  0
  185.4570  178.3180  145.7700 C   0  0  0  0  0  2  0  0  0  0  0  0
  185.2660  178.7750  143.2860 C   0  0  0  0  0  2  0  0  0  0  0  0
  191.4230  176.3800  147.2560 C   0  0  0  0  0  3  0  0  0  0  0  0
  189.2430  177.2110  142.7510 C   0  0  0  0  0  0  0  0  0  0  0  0
  191.1970  176.0490  143.6090 C   0  0  0  0  0  3  0  0  0  0  0  0
  188.6490  178.7210  146.7610 O   0  0  0  0  0  1  0  0  0  0  0  0
  187.1970  178.1610  141.8700 C   0  0  0  0  0  3  0  0  0  0  0  0
  188.4730  177.6440  141.6430 C   0  0  0  0  0  0  0  0  0  0  0  0
  184.5510  178.2630  144.5410 C   0  0  2  0  0  3  0  0  0  0  0  0
  187.4140  177.8020  144.2620 C   0  0  0  0  0  0  0  0  0  0  0  0
  190.4300  176.4990  142.5430 C   0  0  0  0  0  3  0  0  0  0  0  0
  189.2410  178.6390  138.0620 C   0  0  0  0  0  0  0  0  0  0  0  0
  189.9120  177.5080  137.5930 C   0  0  0  0  0  3  0  0  0  0  0  0
  188.9540  177.5790  140.2360 C   0  0  0  0  0  0  0  0  0  0  0  0
  190.1130  176.4150  138.4390 C   0  0  0  0  0  3  0  0  0  0  0  0
  188.7690  178.6760  139.3780 C   0  0  0  0  0  3  0  0  0  0  0  0
  189.6400  176.4530  139.7530 C   0  0  0  0  0  3  0  0  0  0  0  0
  189.0500  179.7020  137.2450 F   0  0  0  0  0  0  0  0  0  0  0  0
  183.2940  178.8730  144.7510 O   0  0  0  0  0  0  0  0  0  0  0  0
  182.8290  179.4030  143.5340 C   0  0  0  0  0  2  0  0  0  0  0  0
  180.9180  178.2040  144.3210 O   0  0  0  0  0  1  0  0  0  0  0  0
  181.3310  179.1720  143.4060 C   0  0  2  0  0  3  0  0  0  0  0  0
  180.9310  178.7750  141.9840 C   0  0  0  0  0  2  0  0  0  0  0  0
  180.2450  179.8820  139.8520 O   0  0  0  0  0  0  0  0  0  0  0  0
  180.2640  179.8870  141.2400 C   0  0  0  0  0  0  0  0  0  0  0  0
  179.6980  180.8160  141.8710 O   0  0  0  0  0  1  0  0  0  0  0  0
  1  8  1  0  0  0  0
  1  5  2  0  0  0  0
  2 14  1  0  0  0  0
  2  6  1  0  0  0  0
  3 18  1  0  0  0  0
  3  8  1  0  0  0  0
  4 10  1  0  0  0  0
  4 18  2  0  0  0  0
  5 11  1  0  0  0  0
  7  9  1  0  0  0  0
  8  2  2  0  0  0  0
 10 17  1  0  0  0  0
 11  6  2  0  0  0  0
 12  3  2  0  0  0  0
 13  1  1  0  0  0  0
 15  4  1  0  0  0  0
 16 15  2  0  0  0  0
 16 12  1  0  0  0  0
 17 27  1  1  0  0  0
 17  9  1  0  0  0  0
 18  7  1  0  0  0  0
 19 12  1  0  0  0  0
 19 13  2  0  0  0  0
 20 24  1  0  0  0  0
 21 20  2  0  0  0  0
 21 23  1  0  0  0  0
 22 16  1  0  0  0  0
 23 25  2  0  0  0  0
 24 22  2  0  0  0  0
 25 22  1  0  0  0  0
 26 20  1  0  0  0  0
 28 27  1  0  0  0  0
 30 28  1  0  0  0  0
 30 29  1  1  0  0  0
 31 30  1  0  0  0  0
 32 33  2  0  0  0  0
 33 34  1  0  0  0  0
 33 31  1  0  0  0  0
M  END
>  <MODEL>
8

>  <REMARK>
 VINA RESULT:     -10.0      3.354      6.349
  Name = 
  6 active torsions:
  status: ('A' for Active; 'I' for Inactive)
    1  A    between atoms: O_3  and  C_13
    2  A    between atoms: O_3  and  C_29
    3  A    between atoms: C_12  and  C_28
    4  A    between atoms: C_13  and  C_33
    5  A    between atoms: C_20  and  C_22
    6  A    between atoms: C_22  and  C_33
                            x       y       z     vdW  Elec       q    Type
                         _______ _______ _______ _____ _____    ______ ____

>  <TORSDO>
F 6

$$$$
=
 OpenBabel11052414253D

 34 38  0  0  1  0  0  0  0  0999 V2000
  188.6090  177.2720  146.3020 C   0  0  0  0  0  0  0  0  0  0  0  0
  186.6500  178.6700  146.6120 C   0  0  0  0  0  0  0  0  0  0  0  0
  187.3660  177.9550  144.2980 C   0  0  0  0  0  0  0  0  0  0  0  0
  186.1330  178.3540  142.2150 C   0  0  0  0  0  0  0  0  0  0  0  0
  188.7170  177.1220  147.6860 C   0  0  0  0  0  3  0  0  0  0  0  0
  186.7690  178.5040  147.9950 C   0  0  0  0  0  3  0  0  0  0  0  0
  184.8150  177.9590  144.3070 C   0  0  0  0  0  2  0  0  0  0  0  0
  187.5000  177.9500  145.7260 C   0  0  0  0  0  0  0  0  0  0  0  0
  183.6700  178.7350  143.6700 C   0  0  0  0  0  2  0  0  0  0  0  0
  184.9050  178.7780  141.4590 C   0  0  0  0  0  2  0  0  0  0  0  0
  187.7810  177.7100  148.5300 C   0  0  0  0  0  3  0  0  0  0  0  0
  188.5010  177.5930  143.5100 C   0  0  0  0  0  0  0  0  0  0  0  0
  189.6410  176.7970  145.5030 C   0  0  0  0  0  3  0  0  0  0  0  0
  185.7550  179.6310  146.1580 O   0  0  0  0  0  1  0  0  0  0  0  0
  187.3000  178.1670  141.4880 C   0  0  0  0  0  3  0  0  0  0  0  0
  188.4860  177.7630  142.1030 C   0  0  0  0  0  0  0  0  0  0  0  0
  183.6100  178.3920  142.1820 C   0  0  2  0  0  3  0  0  0  0  0  0
  186.1380  178.2080  143.6200 C   0  0  0  0  0  0  0  0  0  0  0  0
  189.6030  176.9900  144.1290 C   0  0  0  0  0  3  0  0  0  0  0  0
  190.6090  177.0310  139.0450 C   0  0  0  0  0  0  0  0  0  0  0  0
  191.9010  177.1610  139.5600 C   0  0  0  0  0  3  0  0  0  0  0  0
  189.6730  177.5330  141.2360 C   0  0  0  0  0  0  0  0  0  0  0  0
  192.0850  177.4830  140.9060 C   0  0  0  0  0  3  0  0  0  0  0  0
  189.5020  177.2200  139.8770 C   0  0  0  0  0  3  0  0  0  0  0  0
  190.9770  177.6720  141.7370 C   0  0  0  0  0  3  0  0  0  0  0  0
  190.4280  176.7230  137.7380 F   0  0  0  0  0  0  0  0  0  0  0  0
  182.4510  178.8860  141.5460 O   0  0  0  0  0  0  0  0  0  0  0  0
  181.5960  179.4470  142.5110 C   0  0  0  0  0  2  0  0  0  0  0  0
  179.8300  181.0070  142.1140 O   0  0  0  0  0  1  0  0  0  0  0  0
  180.2180  179.6820  141.9110 C   0  0  2  0  0  3  0  0  0  0  0  0
  179.1720  178.7220  142.4800 C   0  0  0  0  0  2  0  0  0  0  0  0
  179.6660  177.4320  144.5620 O   0  0  0  0  0  0  0  0  0  0  0  0
  179.2390  178.6130  143.9690 C   0  0  0  0  0  0  0  0  0  0  0  0
  178.9310  179.5980  144.6870 O   0  0  0  0  0  1  0  0  0  0  0  0
  1  5  2  0  0  0  0
  2  6  1  0  0  0  0
  3  8  1  0  0  0  0
  4 18  2  0  0  0  0
  5 11  1  0  0  0  0
  6 11  2  0  0  0  0
  8  1  1  0  0  0  0
  8  2  2  0  0  0  0
  9  7  1  0  0  0  0
 10 17  1  0  0  0  0
 10  4  1  0  0  0  0
 12 19  1  0  0  0  0
 12  3  2  0  0  0  0
 13  1  1  0  0  0  0
 14  2  1  0  0  0  0
 15 16  2  0  0  0  0
 15  4  1  0  0  0  0
 16 12  1  0  0  0  0
 17 27  1  6  0  0  0
 17  9  1  0  0  0  0
 18  3  1  0  0  0  0
 18  7  1  0  0  0  0
 19 13  2  0  0  0  0
 20 21  2  0  0  0  0
 20 24  1  0  0  0  0
 21 23  1  0  0  0  0
 22 25  1  0  0  0  0
 22 16  1  0  0  0  0
 23 25  2  0  0  0  0
 24 22  2  0  0  0  0
 26 20  1  0  0  0  0
 27 28  1  0  0  0  0
 30 29  1  1  0  0  0
 30 31  1  0  0  0  0
 30 28  1  0  0  0  0
 31 33  1  0  0  0  0
 33 32  2  0  0  0  0
 33 34  1  0  0  0  0
M  END
>  <MODEL>
9

>  <REMARK>
 VINA RESULT:      -9.9      3.771      6.943
  Name = 
  6 active torsions:
  status: ('A' for Active; 'I' for Inactive)
    1  A    between atoms: O_3  and  C_13
    2  A    between atoms: O_3  and  C_29
    3  A    between atoms: C_12  and  C_28
    4  A    between atoms: C_13  and  C_33
    5  A    between atoms: C_20  and  C_22
    6  A    between atoms: C_22  and  C_33
                            x       y       z     vdW  Elec       q    Type
                         _______ _______ _______ _____ _____    ______ ____

>  <TORSDO>
F 6

$$$$
