=
 OpenBabel11052414043D

 34 37  0  0  1  0  0  0  0  0999 V2000
  182.0600  176.3600  136.6480 C   0  0  1  0  0  3  0  0  0  0  0  0
  184.0920  174.7850  137.1110 C   0  0  2  0  0  3  0  0  0  0  0  0
  188.0590  174.8310  135.1480 N   0  0  0  0  0  2  0  0  0  0  0  0
  184.3440  177.3130  137.0860 C   0  0  1  0  0  3  0  0  0  0  0  0
  185.9340  176.6470  134.5990 O   0  0  0  0  0  1  0  0  0  0  0  0
  180.1740  176.7670  138.2700 C   0  0  0  0  0  1  0  0  0  0  0  0
  183.5060  173.5860  136.3790 C   0  0  0  0  0  1  0  0  0  0  0  0
  186.2350  175.8350  137.6190 O   0  0  0  0  0  0  0  0  0  0  0  0
  189.3240  174.3240  137.0500 O   0  0  0  0  0  0  0  0  0  0  0  0
  188.3410  174.0530  136.3110 C   0  0  0  0  0  0  0  0  0  0  0  0
  183.5740  176.1100  136.5010 C   0  0  2  0  0  3  0  0  0  0  0  0
  188.6920  176.1040  134.8390 C   0  0  0  0  0  2  0  0  0  0  0  0
  186.5230  177.3530  135.6520 C   0  0  2  0  0  3  0  0  0  0  0  0
  181.2070  175.3440  135.8990 C   0  0  0  0  0  1  0  0  0  0  0  0
  186.2290  173.4650  137.5320 C   0  0  0  0  0  2  0  0  0  0  0  0
  183.9160  177.6000  138.5500 C   0  0  2  0  0  3  0  0  0  0  0  0
  181.6670  176.5240  138.1190 C   0  0  2  0  0  3  0  0  0  0  0  0
  185.6210  174.7490  136.9670 C   0  0  1  0  0  3  0  0  0  0  0  0
  188.0750  177.2730  135.6280 C   0  0  1  0  0  3  0  0  0  0  0  0
  185.8540  177.0470  137.0080 C   0  0  1  0  0  3  0  0  0  0  0  0
  182.3990  177.7310  138.6850 C   0  0  0  0  0  2  0  0  0  0  0  0
  187.3960  172.9570  136.6820 C   0  0  0  0  0  2  0  0  0  0  0  0
  188.7700  177.5390  136.9690 C   0  0  2  0  0  3  0  0  0  0  0  0
  188.7220  179.0190  137.2980 C   0  0  0  0  0  1  0  0  0  0  0  0
  190.0960  177.1460  136.9190 F   0  0  0  0  0  0  0  0  0  0  0  0
  183.6820  180.0800  139.0900 C   0  0  0  0  0  1  0  0  0  0  0  0
  184.5670  178.8470  139.1730 C   0  0  1  0  0  3  0  0  0  0  0  0
  187.1210  178.3390  141.9320 C   0  0  0  0  0  0  0  0  0  0  0  0
  186.3070  178.1850  143.0570 C   0  0  0  0  0  3  0  0  0  0  0  0
  185.1560  178.6330  140.5400 C   0  0  0  0  0  0  0  0  0  0  0  0
  184.9160  178.2530  142.9270 C   0  0  0  0  0  3  0  0  0  0  0  0
  186.5480  178.5600  140.6760 C   0  0  0  0  0  3  0  0  0  0  0  0
  184.3430  178.4730  141.6730 C   0  0  0  0  0  3  0  0  0  0  0  0
  188.8610  178.2500  142.0920 Cl  0  0  0  0  0  0  0  0  0  0  0  0
  1 14  1  1  0  0  0
  1 17  1  0  0  0  0
  2  7  1  6  0  0  0
  3 10  1  0  0  0  0
  4 16  1  0  0  0  0
  5 13  1  0  0  0  0
 10 22  1  0  0  0  0
 10  9  2  0  0  0  0
 11  1  1  0  0  0  0
 11  4  1  0  0  0  0
 11  2  1  0  0  0  0
 12  3  1  0  0  0  0
 12 19  1  0  0  0  0
 13 20  1  0  0  0  0
 16 21  1  0  0  0  0
 16 27  1  0  0  0  0
 17  6  1  0  0  0  0
 17 21  1  0  0  0  0
 18  2  1  0  0  0  0
 18 15  1  0  0  0  0
 18  8  1  0  0  0  0
 19 13  1  0  0  0  0
 19 23  1  0  0  0  0
 20  4  1  0  0  0  0
 20  8  1  0  0  0  0
 22 15  1  0  0  0  0
 23 24  1  0  0  0  0
 25 23  1  0  0  0  0
 26 27  1  0  0  0  0
 27 30  1  0  0  0  0
 28 34  1  0  0  0  0
 28 29  1  0  0  0  0
 30 32  1  0  0  0  0
 30 33  2  0  0  0  0
 31 29  2  0  0  0  0
 32 28  2  0  0  0  0
 33 31  1  0  0  0  0
M  END
>  <MODEL>
1

>  <REMARK>
 VINA RESULT:      -6.7      0.000      0.000
  Name = 
  3 active torsions:
  status: ('A' for Active; 'I' for Inactive)
    1  A    between atoms: C_12  and  C_28
    2  A    between atoms: C_13  and  C_29
    3  A    between atoms: C_21  and  C_28
                            x       y       z     vdW  Elec       q    Type
                         _______ _______ _______ _____ _____    ______ ____

>  <TORSDO>
F 3

$$$$
=
 OpenBabel11052414043D

 34 37  0  0  1  0  0  0  0  0999 V2000
  180.4410  179.2320  141.4110 C   0  0  1  0  0  3  0  0  0  0  0  0
  180.5420  176.8940  140.2470 C   0  0  2  0  0  3  0  0  0  0  0  0
  181.9340  175.9650  136.1500 N   0  0  0  0  0  2  0  0  0  0  0  0
  182.5520  178.4480  140.2950 C   0  0  1  0  0  3  0  0  0  0  0  0
  181.9300  178.5550  137.3350 O   0  0  0  0  0  1  0  0  0  0  0  0
  180.3700  179.5790  143.9060 C   0  0  0  0  0  1  0  0  0  0  0  0
  179.0440  176.8070  139.9880 C   0  0  0  0  0  1  0  0  0  0  0  0
  182.6760  176.2080  139.2860 O   0  0  0  0  0  0  0  0  0  0  0  0
  182.9850  173.9370  136.6600 O   0  0  0  0  0  0  0  0  0  0  0  0
  181.9630  174.6690  136.7470 C   0  0  0  0  0  0  0  0  0  0  0  0
  181.0110  178.3700  140.2660 C   0  0  2  0  0  3  0  0  0  0  0  0
  183.1020  176.6490  135.6160 C   0  0  0  0  0  2  0  0  0  0  0  0
  183.1880  178.1410  137.7820 C   0  0  2  0  0  3  0  0  0  0  0  0
  178.9310  179.4110  141.3340 C   0  0  0  0  0  1  0  0  0  0  0  0
  180.8710  174.6950  139.0060 C   0  0  0  0  0  2  0  0  0  0  0  0
  183.1130  178.0540  141.6860 C   0  0  2  0  0  3  0  0  0  0  0  0
  180.9320  178.7350  142.7730 C   0  0  2  0  0  3  0  0  0  0  0  0
  181.2790  176.1650  139.1150 C   0  0  1  0  0  3  0  0  0  0  0  0
  183.9530  177.3040  136.7200 C   0  0  1  0  0  3  0  0  0  0  0  0
  183.1340  177.5390  139.2020 C   0  0  1  0  0  3  0  0  0  0  0  0
  182.4490  178.8450  142.8140 C   0  0  0  0  0  2  0  0  0  0  0  0
  180.7850  174.2280  137.5510 C   0  0  0  0  0  2  0  0  0  0  0  0
  185.0530  176.3870  137.2680 C   0  0  2  0  0  3  0  0  0  0  0  0
  186.2860  177.2000  137.6160 C   0  0  0  0  0  1  0  0  0  0  0  0
  185.4090  175.4340  136.3300 F   0  0  0  0  0  0  0  0  0  0  0  0
  185.2090  179.3060  140.9530 C   0  0  0  0  0  1  0  0  0  0  0  0
  184.6380  178.1990  141.8260 C   0  0  1  0  0  3  0  0  0  0  0  0
  186.8820  177.7240  144.8470 C   0  0  0  0  0  0  0  0  0  0  0  0
  186.1030  178.2630  145.8750 C   0  0  0  0  0  3  0  0  0  0  0  0
  185.1390  178.2470  143.2430 C   0  0  0  0  0  0  0  0  0  0  0  0
  184.8420  178.7950  145.5900 C   0  0  0  0  0  3  0  0  0  0  0  0
  186.4000  177.7130  143.5350 C   0  0  0  0  0  3  0  0  0  0  0  0
  184.3600  178.7840  144.2790 C   0  0  0  0  0  3  0  0  0  0  0  0
  188.4590  177.0550  145.2030 Cl  0  0  0  0  0  0  0  0  0  0  0  0
  1 14  1  1  0  0  0
  1 17  1  0  0  0  0
  2  7  1  6  0  0  0
  2 11  1  0  0  0  0
  3 10  1  0  0  0  0
  4 16  1  0  0  0  0
  5 13  1  0  0  0  0
  9 10  2  0  0  0  0
 10 22  1  0  0  0  0
 11  4  1  0  0  0  0
 11  1  1  0  0  0  0
 12  3  1  0  0  0  0
 12 19  1  0  0  0  0
 13 20  1  0  0  0  0
 15 18  1  0  0  0  0
 16 27  1  0  0  0  0
 16 21  1  0  0  0  0
 17 21  1  0  0  0  0
 17  6  1  0  0  0  0
 18  8  1  0  0  0  0
 18  2  1  0  0  0  0
 19 23  1  0  0  0  0
 19 13  1  0  0  0  0
 20  8  1  0  0  0  0
 20  4  1  0  0  0  0
 22 15  1  0  0  0  0
 23 24  1  0  0  0  0
 25 23  1  0  0  0  0
 26 27  1  0  0  0  0
 27 30  1  0  0  0  0
 28 34  1  0  0  0  0
 28 29  1  0  0  0  0
 30 32  1  0  0  0  0
 30 33  2  0  0  0  0
 31 29  2  0  0  0  0
 32 28  2  0  0  0  0
 33 31  1  0  0  0  0
M  END
>  <MODEL>
2

>  <REMARK>
 VINA RESULT:      -6.4      2.848      4.732
  Name = 
  3 active torsions:
  status: ('A' for Active; 'I' for Inactive)
    1  A    between atoms: C_12  and  C_28
    2  A    between atoms: C_13  and  C_29
    3  A    between atoms: C_21  and  C_28
                            x       y       z     vdW  Elec       q    Type
                         _______ _______ _______ _____ _____    ______ ____

>  <TORSDO>
F 3

$$$$
=
 OpenBabel11052414043D

 34 37  0  0  1  0  0  0  0  0999 V2000
  189.1990  177.8040  137.1040 C   0  0  1  0  0  3  0  0  0  0  0  0
  189.7530  175.3030  136.5870 C   0  0  2  0  0  3  0  0  0  0  0  0
  193.5870  173.6180  135.1530 N   0  0  0  0  0  2  0  0  0  0  0  0
  191.2390  176.7150  138.0890 C   0  0  1  0  0  3  0  0  0  0  0  0
  193.1200  176.3650  135.7440 O   0  0  0  0  0  1  0  0  0  0  0  0
  187.3150  178.5670  138.5940 C   0  0  0  0  0  1  0  0  0  0  0  0
  188.9970  175.2670  135.2660 C   0  0  0  0  0  1  0  0  0  0  0  0
  191.7060  174.3350  137.6820 O   0  0  0  0  0  0  0  0  0  0  0  0
  193.5140  171.6420  136.4060 O   0  0  0  0  0  0  0  0  0  0  0  0
  192.9310  172.4400  135.6250 C   0  0  0  0  0  0  0  0  0  0  0  0
  190.2820  176.7290  136.8790 C   0  0  2  0  0  3  0  0  0  0  0  0
  194.8400  174.1290  135.6870 C   0  0  0  0  0  2  0  0  0  0  0  0
  193.4970  175.9540  137.0260 C   0  0  2  0  0  3  0  0  0  0  0  0
  188.3410  178.0610  135.8720 C   0  0  0  0  0  1  0  0  0  0  0  0
  190.5320  172.9120  136.1910 C   0  0  0  0  0  2  0  0  0  0  0  0
  190.4640  176.5250  139.4200 C   0  0  2  0  0  3  0  0  0  0  0  0
  188.3860  177.5120  138.3680 C   0  0  2  0  0  3  0  0  0  0  0  0
  190.9530  174.3510  136.4920 C   0  0  1  0  0  3  0  0  0  0  0  0
  194.6430  174.9050  137.0020 C   0  0  1  0  0  3  0  0  0  0  0  0
  192.2810  175.6020  137.9080 C   0  0  1  0  0  3  0  0  0  0  0  0
  189.3240  177.5330  139.5660 C   0  0  0  0  0  2  0  0  0  0  0  0
  191.5060  172.2140  135.2390 C   0  0  0  0  0  2  0  0  0  0  0  0
  194.7610  174.0260  138.2530 C   0  0  2  0  0  3  0  0  0  0  0  0
  195.4450  174.7940  139.3690 C   0  0  0  0  0  1  0  0  0  0  0  0
  195.5040  172.8900  137.9850 F   0  0  0  0  0  0  0  0  0  0  0  0
  192.4310  177.6500  140.5880 C   0  0  0  0  0  1  0  0  0  0  0  0
  191.3380  176.5970  140.6840 C   0  0  1  0  0  3  0  0  0  0  0  0
  190.5960  176.7560  144.4010 C   0  0  0  0  0  0  0  0  0  0  0  0
  189.1990  176.7190  144.4190 C   0  0  0  0  0  3  0  0  0  0  0  0
  190.5730  176.6570  141.9770 C   0  0  0  0  0  0  0  0  0  0  0  0
  188.4860  176.6500  143.2190 C   0  0  0  0  0  3  0  0  0  0  0  0
  191.2810  176.7230  143.1830 C   0  0  0  0  0  3  0  0  0  0  0  0
  189.1700  176.6160  142.0020 C   0  0  0  0  0  3  0  0  0  0  0  0
  191.4890  176.8390  145.9030 Cl  0  0  0  0  0  0  0  0  0  0  0  0
  1 14  1  6  0  0  0
  1 17  1  0  0  0  0
  2  7  1  6  0  0  0
  2 11  1  0  0  0  0
  3 10  1  0  0  0  0
  3 12  1  0  0  0  0
  4 16  1  0  0  0  0
  5 13  1  0  0  0  0
  8 20  1  0  0  0  0
 10  9  2  0  0  0  0
 11  1  1  0  0  0  0
 11  4  1  0  0  0  0
 12 19  1  0  0  0  0
 13 20  1  0  0  0  0
 15 18  1  0  0  0  0
 16 21  1  0  0  0  0
 16 27  1  0  0  0  0
 17  6  1  0  0  0  0
 17 21  1  0  0  0  0
 18  2  1  0  0  0  0
 18  8  1  0  0  0  0
 19 13  1  0  0  0  0
 19 23  1  0  0  0  0
 20  4  1  0  0  0  0
 22 10  1  0  0  0  0
 22 15  1  0  0  0  0
 23 24  1  0  0  0  0
 25 23  1  0  0  0  0
 26 27  1  0  0  0  0
 27 30  1  0  0  0  0
 28 29  1  0  0  0  0
 28 34  1  0  0  0  0
 30 33  2  0  0  0  0
 30 32  1  0  0  0  0
 31 29  2  0  0  0  0
 32 28  2  0  0  0  0
 33 31  1  0  0  0  0
M  END
>  <MODEL>
3

>  <REMARK>
 VINA RESULT:      -6.1      4.373      6.329
  Name = 
  3 active torsions:
  status: ('A' for Active; 'I' for Inactive)
    1  A    between atoms: C_12  and  C_28
    2  A    between atoms: C_13  and  C_29
    3  A    between atoms: C_21  and  C_28
                            x       y       z     vdW  Elec       q    Type
                         _______ _______ _______ _____ _____    ______ ____

>  <TORSDO>
F 3

$$$$
=
 OpenBabel11052414043D

 34 37  0  0  1  0  0  0  0  0999 V2000
  192.2090  174.4400  135.6250 C   0  0  1  0  0  3  0  0  0  0  0  0
  190.8480  175.5820  137.5420 C   0  0  2  0  0  3  0  0  0  0  0  0
  188.0790  179.0200  137.2230 N   0  0  0  0  0  2  0  0  0  0  0  0
  189.7360  174.8240  135.3870 C   0  0  1  0  0  3  0  0  0  0  0  0
  189.4630  177.8190  135.0430 O   0  0  0  0  0  1  0  0  0  0  0  0
  193.1320  172.0980  135.7340 C   0  0  0  0  0  1  0  0  0  0  0  0
  192.0400  176.3220  138.1330 C   0  0  0  0  0  1  0  0  0  0  0  0
  188.4400  175.8090  137.2300 O   0  0  0  0  0  0  0  0  0  0  0  0
  186.5010  178.2580  138.7750 O   0  0  0  0  0  0  0  0  0  0  0  0
  187.7070  178.4890  138.4950 C   0  0  0  0  0  0  0  0  0  0  0  0
  191.0370  175.3610  136.0210 C   0  0  2  0  0  3  0  0  0  0  0  0
  187.1830  179.1160  136.0810 C   0  0  0  0  0  2  0  0  0  0  0  0
  188.3330  176.9960  135.0300 C   0  0  2  0  0  3  0  0  0  0  0  0
  193.5720  175.0040  136.0060 C   0  0  0  0  0  1  0  0  0  0  0  0
  189.3220  176.7170  139.2360 C   0  0  0  0  0  2  0  0  0  0  0  0
  189.4940  173.3390  135.7640 C   0  0  2  0  0  3  0  0  0  0  0  0
  191.9780  173.0090  136.1180 C   0  0  2  0  0  3  0  0  0  0  0  0
  189.5870  176.4310  137.7570 C   0  0  1  0  0  3  0  0  0  0  0  0
  187.0260  177.7740  135.3440 C   0  0  1  0  0  3  0  0  0  0  0  0
  188.5510  175.6930  135.8290 C   0  0  1  0  0  3  0  0  0  0  0  0
  190.7150  172.4680  135.4640 C   0  0  0  0  0  2  0  0  0  0  0  0
  188.7880  178.1330  139.4620 C   0  0  0  0  0  2  0  0  0  0  0  0
  185.8610  176.9240  135.8660 C   0  0  2  0  0  3  0  0  0  0  0  0
  185.0500  176.3780  134.7060 C   0  0  0  0  0  1  0  0  0  0  0  0
  185.0230  177.6800  136.6660 F   0  0  0  0  0  0  0  0  0  0  0  0
  188.5330  171.2870  134.5960 C   0  0  0  0  0  1  0  0  0  0  0  0
  188.2670  172.7000  135.0910 C   0  0  1  0  0  3  0  0  0  0  0  0
  184.5730  173.0690  135.8700 C   0  0  0  0  0  0  0  0  0  0  0  0
  184.5740  173.1030  137.2680 C   0  0  0  0  0  3  0  0  0  0  0  0
  186.9870  172.8220  135.8690 C   0  0  0  0  0  0  0  0  0  0  0  0
  185.7790  172.9980  137.9680 C   0  0  0  0  0  3  0  0  0  0  0  0
  185.7770  172.9310  135.1730 C   0  0  0  0  0  3  0  0  0  0  0  0
  186.9810  172.8610  137.2720 C   0  0  0  0  0  3  0  0  0  0  0  0
  183.0660  173.2040  134.9920 Cl  0  0  0  0  0  0  0  0  0  0  0  0
  1 14  1  1  0  0  0
  1 11  1  0  0  0  0
  1 17  1  0  0  0  0
  2 18  1  0  0  0  0
  2  7  1  6  0  0  0
  3 10  1  0  0  0  0
  4 16  1  0  0  0  0
  4 20  1  0  0  0  0
  4 11  1  0  0  0  0
  6 17  1  0  0  0  0
  8 18  1  0  0  0  0
 10  9  2  0  0  0  0
 10 22  1  0  0  0  0
 11  2  1  0  0  0  0
 12  3  1  0  0  0  0
 13  5  1  0  0  0  0
 13 19  1  0  0  0  0
 13 20  1  0  0  0  0
 15 22  1  0  0  0  0
 18 15  1  0  0  0  0
 19 23  1  0  0  0  0
 19 12  1  0  0  0  0
 20  8  1  0  0  0  0
 21 16  1  0  0  0  0
 21 17  1  0  0  0  0
 23 25  1  0  0  0  0
 24 23  1  0  0  0  0
 26 27  1  0  0  0  0
 27 16  1  0  0  0  0
 27 30  1  0  0  0  0
 28 29  1  0  0  0  0
 29 31  2  0  0  0  0
 30 33  2  0  0  0  0
 32 30  1  0  0  0  0
 32 28  2  0  0  0  0
 33 31  1  0  0  0  0
 34 28  1  0  0  0  0
M  END
>  <MODEL>
4

>  <REMARK>
 VINA RESULT:      -5.4      3.630      7.466
  Name = 
  3 active torsions:
  status: ('A' for Active; 'I' for Inactive)
    1  A    between atoms: C_12  and  C_28
    2  A    between atoms: C_13  and  C_29
    3  A    between atoms: C_21  and  C_28
                            x       y       z     vdW  Elec       q    Type
                         _______ _______ _______ _____ _____    ______ ____

>  <TORSDO>
F 3

$$$$
=
 OpenBabel11052414043D

 34 37  0  0  1  0  0  0  0  0999 V2000
  183.9100  179.3940  139.5380 C   0  0  1  0  0  3  0  0  0  0  0  0
  184.6600  177.3160  138.1410 C   0  0  2  0  0  3  0  0  0  0  0  0
  188.0620  177.0290  135.3250 N   0  0  0  0  0  2  0  0  0  0  0  0
  186.3010  178.6190  139.5780 C   0  0  1  0  0  3  0  0  0  0  0  0
  187.3790  179.3400  136.8440 O   0  0  0  0  0  1  0  0  0  0  0  0
  182.4950  179.2750  141.6200 C   0  0  0  0  0  1  0  0  0  0  0  0
  183.5420  177.4320  137.1140 C   0  0  0  0  0  1  0  0  0  0  0  0
  186.9850  176.6060  138.3420 O   0  0  0  0  0  0  0  0  0  0  0  0
  188.7000  174.8450  135.8720 O   0  0  0  0  0  0  0  0  0  0  0  0
  187.7830  175.6480  135.5550 C   0  0  0  0  0  0  0  0  0  0  0  0
  185.0220  178.7060  138.7190 C   0  0  2  0  0  3  0  0  0  0  0  0
  189.3230  177.6770  135.6530 C   0  0  0  0  0  2  0  0  0  0  0  0
  188.2000  178.7230  137.7910 C   0  0  2  0  0  3  0  0  0  0  0  0
  182.6790  179.7370  138.7100 C   0  0  0  0  0  1  0  0  0  0  0  0
  185.6410  175.3650  136.8320 C   0  0  0  0  0  2  0  0  0  0  0  0
  186.0250  177.9170  140.9340 C   0  0  2  0  0  3  0  0  0  0  0  0
  183.5930  178.6040  140.8110 C   0  0  2  0  0  3  0  0  0  0  0  0
  185.9030  176.7390  137.4500 C   0  0  1  0  0  3  0  0  0  0  0  0
  189.4300  178.0250  137.1490 C   0  0  1  0  0  3  0  0  0  0  0  0
  187.3950  177.8760  138.7990 C   0  0  1  0  0  3  0  0  0  0  0  0
  184.8450  178.5490  141.6730 C   0  0  0  0  0  2  0  0  0  0  0  0
  186.3630  175.1880  135.4940 C   0  0  0  0  0  2  0  0  0  0  0  0
  190.0730  176.9140  137.9890 C   0  0  2  0  0  3  0  0  0  0  0  0
  190.7170  177.5030  139.2310 C   0  0  0  0  0  1  0  0  0  0  0  0
  191.0480  176.2530  137.2630 F   0  0  0  0  0  0  0  0  0  0  0  0
  188.3100  178.8820  141.5220 C   0  0  0  0  0  1  0  0  0  0  0  0
  187.2290  177.8780  141.8910 C   0  0  1  0  0  3  0  0  0  0  0  0
  187.5350  177.5200  145.6540 C   0  0  0  0  0  0  0  0  0  0  0  0
  186.2550  177.8780  146.0850 C   0  0  0  0  0  3  0  0  0  0  0  0
  186.8750  177.9010  143.3510 C   0  0  0  0  0  0  0  0  0  0  0  0
  185.2820  178.2470  145.1510 C   0  0  0  0  0  3  0  0  0  0  0  0
  187.8440  177.5290  144.2910 C   0  0  0  0  0  3  0  0  0  0  0  0
  185.5900  178.2560  143.7890 C   0  0  0  0  0  3  0  0  0  0  0  0
  188.7520  177.0540  146.8220 Cl  0  0  0  0  0  0  0  0  0  0  0  0
  1 14  1  6  0  0  0
  1 17  1  0  0  0  0
  2  7  1  6  0  0  0
  2 11  1  0  0  0  0
  3 10  1  0  0  0  0
  3 12  1  0  0  0  0
  4 16  1  0  0  0  0
  5 13  1  0  0  0  0
  8 20  1  0  0  0  0
 10  9  2  0  0  0  0
 11  1  1  0  0  0  0
 11  4  1  0  0  0  0
 12 19  1  0  0  0  0
 13 20  1  0  0  0  0
 15 18  1  0  0  0  0
 16 21  1  0  0  0  0
 16 27  1  0  0  0  0
 17  6  1  0  0  0  0
 17 21  1  0  0  0  0
 18  2  1  0  0  0  0
 18  8  1  0  0  0  0
 19 13  1  0  0  0  0
 19 23  1  0  0  0  0
 20  4  1  0  0  0  0
 22 10  1  0  0  0  0
 22 15  1  0  0  0  0
 23 24  1  0  0  0  0
 25 23  1  0  0  0  0
 26 27  1  0  0  0  0
 27 30  1  0  0  0  0
 28 29  1  0  0  0  0
 28 34  1  0  0  0  0
 30 33  2  0  0  0  0
 30 32  1  0  0  0  0
 31 29  2  0  0  0  0
 32 28  2  0  0  0  0
 33 31  1  0  0  0  0
M  END
>  <MODEL>
5

>  <REMARK>
 VINA RESULT:      -5.3      1.943      3.319
  Name = 
  3 active torsions:
  status: ('A' for Active; 'I' for Inactive)
    1  A    between atoms: C_12  and  C_28
    2  A    between atoms: C_13  and  C_29
    3  A    between atoms: C_21  and  C_28
                            x       y       z     vdW  Elec       q    Type
                         _______ _______ _______ _____ _____    ______ ____

>  <TORSDO>
F 3

$$$$
=
 OpenBabel11052414043D

 34 37  0  0  1  0  0  0  0  0999 V2000
  186.6090  176.2260  137.0290 C   0  0  1  0  0  3  0  0  0  0  0  0
  184.2780  176.3180  135.8520 C   0  0  2  0  0  3  0  0  0  0  0  0
  180.4490  174.6250  137.2880 N   0  0  0  0  0  2  0  0  0  0  0  0
  184.5760  177.0160  138.2770 C   0  0  1  0  0  3  0  0  0  0  0  0
  182.9230  174.5150  138.6950 O   0  0  0  0  0  1  0  0  0  0  0  0
  188.5100  177.8120  136.5520 C   0  0  0  0  0  1  0  0  0  0  0  0
  184.6070  175.2530  134.8150 C   0  0  0  0  0  1  0  0  0  0  0  0
  182.4020  177.1960  137.1410 O   0  0  0  0  0  0  0  0  0  0  0  0
  179.0710  176.3630  136.5390 O   0  0  0  0  0  0  0  0  0  0  0  0
  179.9860  175.5340  136.2890 C   0  0  0  0  0  0  0  0  0  0  0  0
  185.0790  176.0830  137.1560 C   0  0  2  0  0  3  0  0  0  0  0  0
  180.1090  174.7160  138.7000 C   0  0  0  0  0  2  0  0  0  0  0  0
  182.4810  175.7490  139.1800 C   0  0  2  0  0  3  0  0  0  0  0  0
  187.2370  175.1850  136.1120 C   0  0  0  0  0  1  0  0  0  0  0  0
  181.9010  176.4450  134.9470 C   0  0  0  0  0  2  0  0  0  0  0  0
  185.0290  178.4810  138.0400 C   0  0  2  0  0  3  0  0  0  0  0  0
  187.0020  177.6650  136.6820 C   0  0  2  0  0  3  0  0  0  0  0  0
  182.7800  176.2370  136.1810 C   0  0  1  0  0  3  0  0  0  0  0  0
  180.9490  175.7730  139.4390 C   0  0  1  0  0  3  0  0  0  0  0  0
  183.0450  176.9330  138.3680 C   0  0  1  0  0  3  0  0  0  0  0  0
  186.5370  178.5800  137.8040 C   0  0  0  0  0  2  0  0  0  0  0  0
  180.6680  175.5400  134.9600 C   0  0  0  0  0  2  0  0  0  0  0  0
  180.3030  177.1640  139.4530 C   0  0  2  0  0  3  0  0  0  0  0  0
  180.5980  177.8640  140.7670 C   0  0  0  0  0  1  0  0  0  0  0  0
  178.9310  177.0680  139.3080 F   0  0  0  0  0  0  0  0  0  0  0  0
  183.2140  179.9480  139.0640 C   0  0  0  0  0  1  0  0  0  0  0  0
  184.6490  179.4580  139.1660 C   0  0  1  0  0  3  0  0  0  0  0  0
  184.3610  178.5900  142.8470 C   0  0  0  0  0  0  0  0  0  0  0  0
  185.6680  178.2040  143.1570 C   0  0  0  0  0  3  0  0  0  0  0  0
  185.0210  179.0000  140.5490 C   0  0  0  0  0  0  0  0  0  0  0  0
  186.6540  178.2160  142.1660 C   0  0  0  0  0  3  0  0  0  0  0  0
  184.0390  178.9900  141.5470 C   0  0  0  0  0  3  0  0  0  0  0  0
  186.3320  178.6150  140.8670 C   0  0  0  0  0  3  0  0  0  0  0  0
  183.1280  178.5800  144.0880 Cl  0  0  0  0  0  0  0  0  0  0  0  0
  1 14  1  6  0  0  0
  1 11  1  0  0  0  0
  2  7  1  6  0  0  0
  2 18  1  0  0  0  0
  2 11  1  0  0  0  0
  3 12  1  0  0  0  0
  4 20  1  0  0  0  0
  5 13  1  0  0  0  0
  6 17  1  0  0  0  0
  8 20  1  0  0  0  0
 10  9  2  0  0  0  0
 10  3  1  0  0  0  0
 11  4  1  0  0  0  0
 12 19  1  0  0  0  0
 13 19  1  0  0  0  0
 15 22  1  0  0  0  0
 15 18  1  0  0  0  0
 16  4  1  0  0  0  0
 16 27  1  0  0  0  0
 17  1  1  0  0  0  0
 17 21  1  0  0  0  0
 18  8  1  0  0  0  0
 19 23  1  0  0  0  0
 20 13  1  0  0  0  0
 21 16  1  0  0  0  0
 22 10  1  0  0  0  0
 23 24  1  0  0  0  0
 25 23  1  0  0  0  0
 26 27  1  0  0  0  0
 27 30  1  0  0  0  0
 28 29  1  0  0  0  0
 28 34  1  0  0  0  0
 30 33  2  0  0  0  0
 30 32  1  0  0  0  0
 31 29  2  0  0  0  0
 32 28  2  0  0  0  0
 33 31  1  0  0  0  0
M  END
>  <MODEL>
6

>  <REMARK>
 VINA RESULT:      -5.3      3.248      5.787
  Name = 
  3 active torsions:
  status: ('A' for Active; 'I' for Inactive)
    1  A    between atoms: C_12  and  C_28
    2  A    between atoms: C_13  and  C_29
    3  A    between atoms: C_21  and  C_28
                            x       y       z     vdW  Elec       q    Type
                         _______ _______ _______ _____ _____    ______ ____

>  <TORSDO>
F 3

$$$$
=
 OpenBabel11052414043D

 34 37  0  0  1  0  0  0  0  0999 V2000
  182.6220  177.6980  138.3510 C   0  0  1  0  0  3  0  0  0  0  0  0
  184.3200  175.8040  137.7550 C   0  0  2  0  0  3  0  0  0  0  0  0
  187.7600  176.0240  134.9780 N   0  0  0  0  0  2  0  0  0  0  0  0
  185.0980  178.1110  138.4820 C   0  0  1  0  0  3  0  0  0  0  0  0
  186.0090  178.1830  135.5970 O   0  0  0  0  0  1  0  0  0  0  0  0
  181.2090  177.7400  140.4370 C   0  0  0  0  0  1  0  0  0  0  0  0
  183.3630  175.0430  136.8480 C   0  0  0  0  0  1  0  0  0  0  0  0
  186.6940  176.2990  138.0160 O   0  0  0  0  0  0  0  0  0  0  0  0
  189.2230  174.6960  136.2330 O   0  0  0  0  0  0  0  0  0  0  0  0
  188.0830  174.8470  135.7180 C   0  0  0  0  0  0  0  0  0  0  0  0
  183.9920  177.3170  137.7550 C   0  0  2  0  0  3  0  0  0  0  0  0
  188.5820  177.2240  134.9460 C   0  0  0  0  0  2  0  0  0  0  0  0
  186.9240  178.3740  136.6360 C   0  0  2  0  0  3  0  0  0  0  0  0
  181.4460  177.1480  137.5550 C   0  0  0  0  0  1  0  0  0  0  0  0
  186.1640  174.1460  137.1750 C   0  0  0  0  0  2  0  0  0  0  0  0
  185.0260  177.9030  140.0180 C   0  0  2  0  0  3  0  0  0  0  0  0
  182.5590  177.3700  139.8450 C   0  0  2  0  0  3  0  0  0  0  0  0
  185.7500  175.6170  137.2260 C   0  0  1  0  0  3  0  0  0  0  0  0
  188.3890  178.0990  136.1980 C   0  0  1  0  0  3  0  0  0  0  0  0
  186.4730  177.6910  137.9440 C   0  0  1  0  0  3  0  0  0  0  0  0
  183.6260  178.1800  140.5660 C   0  0  0  0  0  2  0  0  0  0  0  0
  187.0130  173.8290  135.9420 C   0  0  0  0  0  2  0  0  0  0  0  0
  189.3660  177.7660  137.3320 C   0  0  2  0  0  3  0  0  0  0  0  0
  189.5390  178.9660  138.2440 C   0  0  0  0  0  1  0  0  0  0  0  0
  190.6060  177.4210  136.8240 F   0  0  0  0  0  0  0  0  0  0  0  0
  185.3680  179.7820  141.7060 C   0  0  0  0  0  1  0  0  0  0  0  0
  186.0350  178.7390  140.8240 C   0  0  1  0  0  3  0  0  0  0  0  0
  189.3020  176.9580  141.5610 C   0  0  0  0  0  0  0  0  0  0  0  0
  189.0550  176.4090  142.8220 C   0  0  0  0  0  3  0  0  0  0  0  0
  187.0830  177.9380  141.5450 C   0  0  0  0  0  0  0  0  0  0  0  0
  187.8230  176.6220  143.4470 C   0  0  0  0  0  3  0  0  0  0  0  0
  188.3180  177.7190  140.9230 C   0  0  0  0  0  3  0  0  0  0  0  0
  186.8390  177.3810  142.8100 C   0  0  0  0  0  3  0  0  0  0  0  0
  190.8430  176.6900  140.7760 Cl  0  0  0  0  0  0  0  0  0  0  0  0
  1 14  1  6  0  0  0
  1 17  1  0  0  0  0
  2  7  1  6  0  0  0
  2 11  1  0  0  0  0
  3 10  1  0  0  0  0
  4 16  1  0  0  0  0
  5 13  1  0  0  0  0
 10 22  1  0  0  0  0
 10  9  2  0  0  0  0
 11  1  1  0  0  0  0
 11  4  1  0  0  0  0
 12  3  1  0  0  0  0
 12 19  1  0  0  0  0
 13 20  1  0  0  0  0
 15 18  1  0  0  0  0
 16 21  1  0  0  0  0
 16 27  1  0  0  0  0
 17  6  1  0  0  0  0
 17 21  1  0  0  0  0
 18  2  1  0  0  0  0
 18  8  1  0  0  0  0
 19 13  1  0  0  0  0
 19 23  1  0  0  0  0
 20  8  1  0  0  0  0
 20  4  1  0  0  0  0
 22 15  1  0  0  0  0
 23 24  1  0  0  0  0
 25 23  1  0  0  0  0
 27 30  1  0  0  0  0
 27 26  1  0  0  0  0
 28 29  1  0  0  0  0
 29 31  2  0  0  0  0
 30 33  2  0  0  0  0
 32 30  1  0  0  0  0
 32 28  2  0  0  0  0
 33 31  1  0  0  0  0
 34 28  1  0  0  0  0
M  END
>  <MODEL>
7

>  <REMARK>
 VINA RESULT:      -5.1      1.405      1.953
  Name = 
  3 active torsions:
  status: ('A' for Active; 'I' for Inactive)
    1  A    between atoms: C_12  and  C_28
    2  A    between atoms: C_13  and  C_29
    3  A    between atoms: C_21  and  C_28
                            x       y       z     vdW  Elec       q    Type
                         _______ _______ _______ _____ _____    ______ ____

>  <TORSDO>
F 3

$$$$
=
 OpenBabel11052414043D

 34 37  0  0  1  0  0  0  0  0999 V2000
  185.4920  179.3500  141.0160 C   0  0  1  0  0  3  0  0  0  0  0  0
  183.4570  177.7260  140.8010 C   0  0  2  0  0  3  0  0  0  0  0  0
  179.5780  178.4890  138.8090 N   0  0  0  0  0  2  0  0  0  0  0  0
  184.4300  178.9180  138.7790 C   0  0  1  0  0  3  0  0  0  0  0  0
  181.7540  180.3240  138.9250 O   0  0  0  0  0  1  0  0  0  0  0  0
  187.8600  178.6160  141.4680 C   0  0  0  0  0  1  0  0  0  0  0  0
  182.9940  177.8960  142.2410 C   0  0  0  0  0  1  0  0  0  0  0  0
  182.5780  177.3130  138.5630 O   0  0  0  0  0  0  0  0  0  0  0  0
  179.2940  176.3470  137.9110 O   0  0  0  0  0  0  0  0  0  0  0  0
  179.5560  177.0650  138.9120 C   0  0  0  0  0  0  0  0  0  0  0  0
  184.1720  179.0030  140.2980 C   0  0  2  0  0  3  0  0  0  0  0  0
  179.5490  179.2220  137.5530 C   0  0  0  0  0  2  0  0  0  0  0  0
  182.1370  179.6430  137.7660 C   0  0  2  0  0  3  0  0  0  0  0  0
  185.3060  179.6850  142.4900 C   0  0  0  0  0  1  0  0  0  0  0  0
  181.4420  176.2370  140.3450 C   0  0  0  0  0  2  0  0  0  0  0  0
  185.5750  177.9220  138.4560 C   0  0  2  0  0  3  0  0  0  0  0  0
  186.5570  178.2810  140.7600 C   0  0  2  0  0  3  0  0  0  0  0  0
  182.2260  177.4780  139.9170 C   0  0  1  0  0  3  0  0  0  0  0  0
  180.9270  179.2670  136.8680 C   0  0  1  0  0  3  0  0  0  0  0  0
  183.1380  178.5060  138.0600 C   0  0  1  0  0  3  0  0  0  0  0  0
  186.8370  178.2210  139.2660 C   0  0  0  0  0  2  0  0  0  0  0  0
  179.9300  176.4380  140.2150 C   0  0  0  0  0  2  0  0  0  0  0  0
  181.1630  178.1050  135.8940 C   0  0  2  0  0  3  0  0  0  0  0  0
  181.9310  178.5890  134.6790 C   0  0  0  0  0  1  0  0  0  0  0  0
  179.9590  177.5730  135.4670 F   0  0  0  0  0  0  0  0  0  0  0  0
  187.2250  178.6310  136.6470 C   0  0  0  0  0  1  0  0  0  0  0  0
  185.9600  177.8510  136.9680 C   0  0  1  0  0  3  0  0  0  0  0  0
  185.4460  174.1080  136.6300 C   0  0  0  0  0  0  0  0  0  0  0  0
  185.9640  173.8580  135.3570 C   0  0  0  0  0  3  0  0  0  0  0  0
  185.9540  176.4680  136.3810 C   0  0  0  0  0  0  0  0  0  0  0  0
  186.4800  174.9100  134.5940 C   0  0  0  0  0  3  0  0  0  0  0  0
  185.4430  175.4090  137.1420 C   0  0  0  0  0  3  0  0  0  0  0  0
  186.4770  176.2090  135.1050 C   0  0  0  0  0  3  0  0  0  0  0  0
  184.8040  172.7920  137.5880 Cl  0  0  0  0  0  0  0  0  0  0  0  0
  1 14  1  1  0  0  0
  2  7  1  1  0  0  0
  3 10  1  0  0  0  0
  4 11  1  0  0  0  0
  8 18  1  0  0  0  0
  9 10  2  0  0  0  0
 10 22  1  0  0  0  0
 11  2  1  0  0  0  0
 11  1  1  0  0  0  0
 12  3  1  0  0  0  0
 13 20  1  0  0  0  0
 13  5  1  0  0  0  0
 16  4  1  0  0  0  0
 16 21  1  0  0  0  0
 17  1  1  0  0  0  0
 17  6  1  0  0  0  0
 18 15  1  0  0  0  0
 18  2  1  0  0  0  0
 19 12  1  0  0  0  0
 19 13  1  0  0  0  0
 20  8  1  0  0  0  0
 20  4  1  0  0  0  0
 21 17  1  0  0  0  0
 22 15  1  0  0  0  0
 23 19  1  0  0  0  0
 24 23  1  0  0  0  0
 25 23  1  0  0  0  0
 26 27  1  0  0  0  0
 27 16  1  0  0  0  0
 28 32  1  0  0  0  0
 28 34  1  0  0  0  0
 29 28  2  0  0  0  0
 30 27  1  0  0  0  0
 30 32  2  0  0  0  0
 31 33  2  0  0  0  0
 31 29  1  0  0  0  0
 33 30  1  0  0  0  0
M  END
>  <MODEL>
8

>  <REMARK>
 VINA RESULT:      -4.6      3.654      7.032
  Name = 
  3 active torsions:
  status: ('A' for Active; 'I' for Inactive)
    1  A    between atoms: C_12  and  C_28
    2  A    between atoms: C_13  and  C_29
    3  A    between atoms: C_21  and  C_28
                            x       y       z     vdW  Elec       q    Type
                         _______ _______ _______ _____ _____    ______ ____

>  <TORSDO>
F 3

$$$$
=
 OpenBabel11052414043D

 34 37  0  0  1  0  0  0  0  0999 V2000
  180.5590  178.8100  141.8050 C   0  0  1  0  0  3  0  0  0  0  0  0
  181.7010  176.8610  140.4920 C   0  0  2  0  0  3  0  0  0  0  0  0
  183.9340  177.1090  136.6780 N   0  0  0  0  0  2  0  0  0  0  0  0
  182.9500  179.0000  141.0570 C   0  0  1  0  0  3  0  0  0  0  0  0
  182.7820  179.3210  138.0520 O   0  0  0  0  0  1  0  0  0  0  0  0
  179.9910  178.7330  144.2600 C   0  0  0  0  0  1  0  0  0  0  0  0
  180.4020  176.2880  139.9410 C   0  0  0  0  0  1  0  0  0  0  0  0
  184.0540  177.1270  139.9070 O   0  0  0  0  0  0  0  0  0  0  0  0
  185.5810  175.5320  137.2100 O   0  0  0  0  0  0  0  0  0  0  0  0
  184.3580  175.8330  137.1590 C   0  0  0  0  0  0  0  0  0  0  0  0
  181.5740  178.3870  140.7250 C   0  0  2  0  0  3  0  0  0  0  0  0
  184.8260  178.2330  136.4400 C   0  0  0  0  0  2  0  0  0  0  0  0
  184.0210  179.3180  138.6980 C   0  0  2  0  0  3  0  0  0  0  0  0
  179.1210  178.4510  141.4530 C   0  0  0  0  0  1  0  0  0  0  0  0
  183.0120  175.1330  139.1570 C   0  0  0  0  0  2  0  0  0  0  0  0
  183.4040  178.6270  142.4930 C   0  0  2  0  0  3  0  0  0  0  0  0
  180.9910  178.3220  143.1910 C   0  0  2  0  0  3  0  0  0  0  0  0
  182.8180  176.6180  139.4660 C   0  0  1  0  0  3  0  0  0  0  0  0
  185.1930  178.9750  137.7380 C   0  0  1  0  0  3  0  0  0  0  0  0
  183.9860  178.5310  140.0250 C   0  0  1  0  0  3  0  0  0  0  0  0
  182.3310  178.9550  143.5330 C   0  0  0  0  0  2  0  0  0  0  0  0
  183.3260  174.8880  137.6800 C   0  0  0  0  0  2  0  0  0  0  0  0
  186.4620  178.4370  138.4100 C   0  0  2  0  0  3  0  0  0  0  0  0
  187.6210  178.4530  137.4300 C   0  0  0  0  0  1  0  0  0  0  0  0
  186.2730  177.1350  138.8410 F   0  0  0  0  0  0  0  0  0  0  0  0
  184.5570  180.1860  144.1480 C   0  0  0  0  0  1  0  0  0  0  0  0
  184.7230  179.2820  142.9370 C   0  0  1  0  0  3  0  0  0  0  0  0
  187.8930  177.3750  142.0960 C   0  0  0  0  0  0  0  0  0  0  0  0
  188.0420  176.5530  143.2160 C   0  0  0  0  0  3  0  0  0  0  0  0
  185.8850  178.3350  143.0610 C   0  0  0  0  0  0  0  0  0  0  0  0
  187.1150  176.6180  144.2590 C   0  0  0  0  0  3  0  0  0  0  0  0
  186.8160  178.2620  142.0170 C   0  0  0  0  0  3  0  0  0  0  0  0
  186.0380  177.5040  144.1810 C   0  0  0  0  0  3  0  0  0  0  0  0
  189.0510  177.2910  140.7870 Cl  0  0  0  0  0  0  0  0  0  0  0  0
  1 14  1  6  0  0  0
  1 17  1  0  0  0  0
  2  7  1  6  0  0  0
  2 11  1  0  0  0  0
  3 10  1  0  0  0  0
  4 16  1  0  0  0  0
  5 13  1  0  0  0  0
  8 20  1  0  0  0  0
 10  9  2  0  0  0  0
 10 22  1  0  0  0  0
 11  4  1  0  0  0  0
 11  1  1  0  0  0  0
 12  3  1  0  0  0  0
 12 19  1  0  0  0  0
 13 20  1  0  0  0  0
 15 18  1  0  0  0  0
 16 27  1  0  0  0  0
 16 21  1  0  0  0  0
 17 21  1  0  0  0  0
 17  6  1  0  0  0  0
 18  8  1  0  0  0  0
 18  2  1  0  0  0  0
 19 23  1  0  0  0  0
 19 13  1  0  0  0  0
 20  4  1  0  0  0  0
 22 15  1  0  0  0  0
 23 25  1  0  0  0  0
 24 23  1  0  0  0  0
 27 30  1  0  0  0  0
 27 26  1  0  0  0  0
 28 29  1  0  0  0  0
 29 31  2  0  0  0  0
 30 33  2  0  0  0  0
 32 28  2  0  0  0  0
 32 30  1  0  0  0  0
 33 31  1  0  0  0  0
 34 28  1  0  0  0  0
M  END
>  <MODEL>
9

>  <REMARK>
 VINA RESULT:      -4.3      2.516      4.282
  Name = 
  3 active torsions:
  status: ('A' for Active; 'I' for Inactive)
    1  A    between atoms: C_12  and  C_28
    2  A    between atoms: C_13  and  C_29
    3  A    between atoms: C_21  and  C_28
                            x       y       z     vdW  Elec       q    Type
                         _______ _______ _______ _____ _____    ______ ____

>  <TORSDO>
F 3

$$$$
