=
 OpenBabel11052413533D

 27 30  0  0  1  0  0  0  0  0999 V2000
  187.3990  177.3530  142.5450 C   0  0  2  0  0  3  0  0  0  0  0  0
  187.1750  177.0120  143.8940 O   0  0  0  0  0  0  0  0  0  0  0  0
  189.4780  176.9100  143.4180 N   0  0  2  0  0  0  0  0  0  0  0  0
  190.9910  177.3890  141.1780 C   0  0  0  0  0  0  0  0  0  0  0  0
  190.7700  178.9400  144.1490 C   0  0  0  0  0  1  0  0  0  0  0  0
  191.6590  177.3600  140.1570 O   0  0  0  0  0  0  0  0  0  0  0  0
  188.8460  177.7220  142.4180 C   0  0  1  0  0  3  0  0  0  0  0  0
  188.4480  176.7370  144.4560 C   0  0  1  0  0  3  0  0  0  0  0  0
  191.7160  177.3080  142.5150 C   0  0  0  0  0  2  0  0  0  0  0  0
  189.1000  178.4350  140.1620 O   0  0  0  0  0  1  0  0  0  0  0  0
  189.4770  177.4370  141.0630 C   0  0  1  0  0  3  0  0  0  0  0  0
  190.8030  177.4660  143.7410 C   0  0  2  0  0  3  0  0  0  0  0  0
  187.7640  179.0460  147.5640 C   0  0  0  0  0  2  0  0  0  0  0  0
  188.7690  178.2500  148.4080 C   0  0  0  0  0  2  0  0  0  0  0  0
  188.6530  176.8770  148.1350 O   0  0  0  0  0  0  0  0  0  0  0  0
  188.6750  177.5370  145.7550 C   0  0  2  0  0  3  0  0  0  0  0  0
  189.2560  176.6460  146.8780 C   0  0  0  0  0  2  0  0  0  0  0  0
  187.4470  178.3370  146.2390 C   0  0  1  0  0  3  0  0  0  0  0  0
  185.0770  178.2350  147.0200 C   0  0  0  0  0  1  0  0  0  0  0  0
  186.2160  177.4490  146.4000 C   0  0  0  0  0  2  0  0  0  0  0  0
  186.5090  178.4300  142.0750 N   0  0  0  0  0  2  0  0  0  0  0  0
  182.4650  178.6700  143.4430 C   0  0  0  0  0  2  0  0  0  0  0  0
  185.1430  178.4170  142.6230 C   0  0  0  0  0  3  0  0  0  0  0  0
  184.8530  179.6300  143.5100 C   0  0  0  0  0  2  0  0  0  0  0  0
  183.4920  179.5120  144.2100 C   0  0  0  0  0  2  0  0  0  0  0  0
  182.6970  178.7390  141.9370 C   0  0  0  0  0  2  0  0  0  0  0  0
  184.0570  178.1390  141.5680 C   0  0  0  0  0  2  0  0  0  0  0  0
  1 21  1  1  0  0  0
  1  2  1  0  0  0  0
  2  8  1  0  0  0  0
  3 12  1  0  0  0  0
  3  8  1  0  0  0  0
  4  9  1  0  0  0  0
  6  4  2  0  0  0  0
  7  1  1  0  0  0  0
  7  3  1  0  0  0  0
  8 16  1  0  0  0  0
  9 12  1  0  0  0  0
 10 11  1  0  0  0  0
 11  4  1  0  0  0  0
 11  7  1  0  0  0  0
 12  5  1  0  0  0  0
 13 14  1  0  0  0  0
 15 14  1  0  0  0  0
 16 18  1  0  0  0  0
 16 17  1  0  0  0  0
 17 15  1  0  0  0  0
 18 20  1  0  0  0  0
 18 13  1  0  0  0  0
 20 19  1  0  0  0  0
 21 23  1  0  0  0  0
 22 25  1  0  0  0  0
 23 24  1  0  0  0  0
 24 25  1  0  0  0  0
 26 22  1  0  0  0  0
 27 26  1  0  0  0  0
 27 23  1  0  0  0  0
M  END
>  <MODEL>
1

>  <REMARK>
 VINA RESULT:      -8.9      0.000      0.000
  Name = 
  4 active torsions:
  status: ('A' for Active; 'I' for Inactive)
    1  A    between atoms: C_1  and  N_15
    2  A    between atoms: C_9  and  N_15
    3  A    between atoms: C_14  and  C_19
    4  A    between atoms: C_17  and  C_21
                            x       y       z     vdW  Elec       q    Type
                         _______ _______ _______ _____ _____    ______ ____

>  <TORSDO>
F 4

$$$$
=
 OpenBabel11052413533D

 27 30  0  0  1  0  0  0  0  0999 V2000
  186.8400  177.9080  142.4110 C   0  0  2  0  0  3  0  0  0  0  0  0
  186.4860  177.6060  143.7410 O   0  0  0  0  0  0  0  0  0  0  0  0
  188.7200  176.9750  143.3460 N   0  0  2  0  0  0  0  0  0  0  0  0
  190.3940  177.1250  141.1760 C   0  0  0  0  0  0  0  0  0  0  0  0
  190.4190  178.6320  144.1770 C   0  0  0  0  0  1  0  0  0  0  0  0
  191.0780  176.9570  140.1790 O   0  0  0  0  0  0  0  0  0  0  0  0
  188.3360  177.9300  142.3460 C   0  0  1  0  0  3  0  0  0  0  0  0
  187.6360  177.0300  144.3420 C   0  0  1  0  0  3  0  0  0  0  0  0
  191.0240  176.8520  142.5350 C   0  0  0  0  0  2  0  0  0  0  0  0
  188.8440  178.6020  140.1200 O   0  0  0  0  0  1  0  0  0  0  0  0
  188.9390  177.5280  141.0070 C   0  0  1  0  0  3  0  0  0  0  0  0
  190.1240  177.1990  143.7310 C   0  0  2  0  0  3  0  0  0  0  0  0
  187.2860  179.1800  147.6150 C   0  0  0  0  0  2  0  0  0  0  0  0
  188.2830  178.2720  148.3480 C   0  0  0  0  0  2  0  0  0  0  0  0
  188.0600  176.9280  148.0030 O   0  0  0  0  0  0  0  0  0  0  0  0
  187.9900  177.7320  145.6680 C   0  0  2  0  0  3  0  0  0  0  0  0
  188.5730  176.7390  146.7000 C   0  0  0  0  0  2  0  0  0  0  0  0
  186.8480  178.5770  146.2730 C   0  0  1  0  0  3  0  0  0  0  0  0
  184.3570  178.5860  146.0770 C   0  0  0  0  0  1  0  0  0  0  0  0
  185.5710  177.7590  146.4560 C   0  0  0  0  0  2  0  0  0  0  0  0
  186.2460  179.1720  141.9370 N   0  0  0  0  0  2  0  0  0  0  0  0
  182.9170  178.4250  139.3600 C   0  0  0  0  0  2  0  0  0  0  0  0
  185.0780  179.0380  141.0500 C   0  0  0  0  0  3  0  0  0  0  0  0
  185.4670  178.6680  139.6170 C   0  0  0  0  0  2  0  0  0  0  0  0
  184.2590  178.7050  138.6710 C   0  0  0  0  0  2  0  0  0  0  0  0
  183.0880  177.5040  140.5630 C   0  0  0  0  0  2  0  0  0  0  0  0
  183.9530  178.1680  141.6380 C   0  0  0  0  0  2  0  0  0  0  0  0
  1 21  1  1  0  0  0
  1  2  1  0  0  0  0
  2  8  1  0  0  0  0
  3 12  1  0  0  0  0
  3  8  1  0  0  0  0
  4  9  1  0  0  0  0
  6  4  2  0  0  0  0
  7  1  1  0  0  0  0
  7  3  1  0  0  0  0
  8 16  1  0  0  0  0
  9 12  1  0  0  0  0
 10 11  1  0  0  0  0
 11  4  1  0  0  0  0
 11  7  1  0  0  0  0
 12  5  1  0  0  0  0
 13 14  1  0  0  0  0
 15 14  1  0  0  0  0
 16 18  1  0  0  0  0
 16 17  1  0  0  0  0
 17 15  1  0  0  0  0
 18 20  1  0  0  0  0
 18 13  1  0  0  0  0
 19 20  1  0  0  0  0
 22 26  1  0  0  0  0
 23 27  1  0  0  0  0
 23 21  1  0  0  0  0
 24 23  1  0  0  0  0
 25 22  1  0  0  0  0
 25 24  1  0  0  0  0
 26 27  1  0  0  0  0
M  END
>  <MODEL>
2

>  <REMARK>
 VINA RESULT:      -7.8      1.162      1.750
  Name = 
  4 active torsions:
  status: ('A' for Active; 'I' for Inactive)
    1  A    between atoms: C_1  and  N_15
    2  A    between atoms: C_9  and  N_15
    3  A    between atoms: C_14  and  C_19
    4  A    between atoms: C_17  and  C_21
                            x       y       z     vdW  Elec       q    Type
                         _______ _______ _______ _____ _____    ______ ____

>  <TORSDO>
F 4

$$$$
=
 OpenBabel11052413533D

 27 30  0  0  1  0  0  0  0  0999 V2000
  188.0770  178.1530  143.2080 C   0  0  2  0  0  3  0  0  0  0  0  0
  188.6220  178.3780  141.9280 O   0  0  0  0  0  0  0  0  0  0  0  0
  190.3370  177.8040  143.4360 N   0  0  2  0  0  0  0  0  0  0  0  0
  190.4000  177.1530  146.1020 C   0  0  0  0  0  0  0  0  0  0  0  0
  191.0490  175.3950  143.3150 C   0  0  0  0  0  1  0  0  0  0  0  0
  190.4950  177.0960  147.3170 O   0  0  0  0  0  0  0  0  0  0  0  0
  189.0860  177.3650  143.9860 C   0  0  1  0  0  3  0  0  0  0  0  0
  190.0200  178.1630  142.0430 C   0  0  1  0  0  3  0  0  0  0  0  0
  191.6340  176.8340  145.2690 C   0  0  0  0  0  2  0  0  0  0  0  0
  188.0270  176.8940  146.0640 O   0  0  0  0  0  1  0  0  0  0  0  0
  189.0840  177.6020  145.4890 C   0  0  1  0  0  3  0  0  0  0  0  0
  191.3880  176.8220  143.7520 C   0  0  2  0  0  3  0  0  0  0  0  0
  190.2540  176.1050  138.7020 C   0  0  0  0  0  2  0  0  0  0  0  0
  191.7880  176.1320  138.7630 C   0  0  0  0  0  2  0  0  0  0  0  0
  192.2340  177.3910  139.1970 O   0  0  0  0  0  0  0  0  0  0  0  0
  190.5290  177.1780  140.9720 C   0  0  2  0  0  3  0  0  0  0  0  0
  192.0000  177.4630  140.5890 C   0  0  0  0  0  2  0  0  0  0  0  0
  189.6270  177.0630  139.7250 C   0  0  1  0  0  3  0  0  0  0  0  0
  188.9980  178.2520  137.6210 C   0  0  0  0  0  1  0  0  0  0  0  0
  189.3710  178.4230  139.0810 C   0  0  0  0  0  2  0  0  0  0  0  0
  186.7660  177.4820  143.1590 N   0  0  0  0  0  2  0  0  0  0  0  0
  183.2130  179.6800  144.0680 C   0  0  0  0  0  2  0  0  0  0  0  0
  185.5970  178.3380  143.4170 C   0  0  0  0  0  3  0  0  0  0  0  0
  184.3930  177.9680  142.5480 C   0  0  0  0  0  2  0  0  0  0  0  0
  183.2460  178.9770  142.7040 C   0  0  0  0  0  2  0  0  0  0  0  0
  183.7850  178.7920  145.1680 C   0  0  0  0  0  2  0  0  0  0  0  0
  185.2650  178.4940  144.9120 C   0  0  0  0  0  2  0  0  0  0  0  0
  1 21  1  6  0  0  0
  1  7  1  0  0  0  0
  2  8  1  0  0  0  0
  2  1  1  0  0  0  0
  3 12  1  0  0  0  0
  3  7  1  0  0  0  0
  4  6  2  0  0  0  0
  5 12  1  0  0  0  0
  7 11  1  0  0  0  0
  8  3  1  0  0  0  0
  9  4  1  0  0  0  0
 11 10  1  0  0  0  0
 11  4  1  0  0  0  0
 12  9  1  0  0  0  0
 13 14  1  0  0  0  0
 13 18  1  0  0  0  0
 14 15  1  0  0  0  0
 15 17  1  0  0  0  0
 16  8  1  0  0  0  0
 17 16  1  0  0  0  0
 18 16  1  0  0  0  0
 19 20  1  0  0  0  0
 20 18  1  0  0  0  0
 21 23  1  0  0  0  0
 22 26  1  0  0  0  0
 23 27  1  0  0  0  0
 24 25  1  0  0  0  0
 24 23  1  0  0  0  0
 25 22  1  0  0  0  0
 27 26  1  0  0  0  0
M  END
>  <MODEL>
3

>  <REMARK>
 VINA RESULT:      -7.6      1.691      5.448
  Name = 
  4 active torsions:
  status: ('A' for Active; 'I' for Inactive)
    1  A    between atoms: C_1  and  N_15
    2  A    between atoms: C_9  and  N_15
    3  A    between atoms: C_14  and  C_19
    4  A    between atoms: C_17  and  C_21
                            x       y       z     vdW  Elec       q    Type
                         _______ _______ _______ _____ _____    ______ ____

>  <TORSDO>
F 4

$$$$
=
 OpenBabel11052413533D

 27 30  0  0  1  0  0  0  0  0999 V2000
  188.1900  177.7560  141.8340 C   0  0  2  0  0  3  0  0  0  0  0  0
  186.9470  178.4160  141.9070 O   0  0  0  0  0  0  0  0  0  0  0  0
  187.7650  178.4980  139.7010 N   0  0  2  0  0  0  0  0  0  0  0  0
  190.0180  177.5390  138.4610 C   0  0  0  0  0  0  0  0  0  0  0  0
  186.7600  176.7780  138.1670 C   0  0  0  0  0  1  0  0  0  0  0  0
  191.1020  177.3410  137.9360 O   0  0  0  0  0  0  0  0  0  0  0  0
  188.4340  177.4330  140.3920 C   0  0  1  0  0  3  0  0  0  0  0  0
  186.6600  178.8800  140.5970 C   0  0  1  0  0  3  0  0  0  0  0  0
  188.8630  177.9870  137.5770 C   0  0  0  0  0  2  0  0  0  0  0  0
  190.4620  176.1870  140.3780 O   0  0  0  0  0  1  0  0  0  0  0  0
  189.8960  177.3960  139.9680 C   0  0  1  0  0  3  0  0  0  0  0  0
  187.5150  178.1020  138.3050 C   0  0  2  0  0  3  0  0  0  0  0  0
  182.9150  177.6910  140.7250 C   0  0  0  0  0  2  0  0  0  0  0  0
  182.5920  178.4890  139.4540 C   0  0  0  0  0  2  0  0  0  0  0  0
  183.2510  179.7300  139.4790 O   0  0  0  0  0  0  0  0  0  0  0  0
  185.2540  178.4440  140.1390 C   0  0  2  0  0  3  0  0  0  0  0  0
  184.6140  179.4880  139.1950 C   0  0  0  0  0  2  0  0  0  0  0  0
  184.2990  178.0500  141.2860 C   0  0  1  0  0  3  0  0  0  0  0  0
  183.5590  178.6160  143.6040 C   0  0  0  0  0  1  0  0  0  0  0  0
  184.1710  179.1600  142.3260 C   0  0  0  0  0  2  0  0  0  0  0  0
  188.2490  176.5570  142.6900 N   0  0  0  0  0  2  0  0  0  0  0  0
  188.1330  177.6130  146.8310 C   0  0  0  0  0  2  0  0  0  0  0  0
  188.2470  176.8040  144.1410 C   0  0  0  0  0  3  0  0  0  0  0  0
  189.3780  177.7370  144.5810 C   0  0  0  0  0  2  0  0  0  0  0  0
  189.4670  177.8430  146.1090 C   0  0  0  0  0  2  0  0  0  0  0  0
  186.9500  178.0400  145.9690 C   0  0  0  0  0  2  0  0  0  0  0  0
  186.8660  177.1870  144.7000 C   0  0  0  0  0  2  0  0  0  0  0  0
  1  2  1  0  0  0  0
  1 21  1  1  0  0  0
  3  7  1  0  0  0  0
  3  8  1  0  0  0  0
  4 11  1  0  0  0  0
  5 12  1  0  0  0  0
  6  4  2  0  0  0  0
  7  1  1  0  0  0  0
  8  2  1  0  0  0  0
  9 12  1  0  0  0  0
  9  4  1  0  0  0  0
 11 10  1  0  0  0  0
 11  7  1  0  0  0  0
 12  3  1  0  0  0  0
 13 18  1  0  0  0  0
 14 15  1  0  0  0  0
 14 13  1  0  0  0  0
 16  8  1  0  0  0  0
 16 18  1  0  0  0  0
 17 15  1  0  0  0  0
 17 16  1  0  0  0  0
 18 20  1  0  0  0  0
 20 19  1  0  0  0  0
 21 23  1  0  0  0  0
 23 24  1  0  0  0  0
 23 27  1  0  0  0  0
 24 25  1  0  0  0  0
 25 22  1  0  0  0  0
 26 22  1  0  0  0  0
 27 26  1  0  0  0  0
M  END
>  <MODEL>
4

>  <REMARK>
 VINA RESULT:      -7.3      2.343      5.775
  Name = 
  4 active torsions:
  status: ('A' for Active; 'I' for Inactive)
    1  A    between atoms: C_1  and  N_15
    2  A    between atoms: C_9  and  N_15
    3  A    between atoms: C_14  and  C_19
    4  A    between atoms: C_17  and  C_21
                            x       y       z     vdW  Elec       q    Type
                         _______ _______ _______ _____ _____    ______ ____

>  <TORSDO>
F 4

$$$$
=
 OpenBabel11052413533D

 27 30  0  0  1  0  0  0  0  0999 V2000
  188.2930  178.1240  141.3060 C   0  0  2  0  0  3  0  0  0  0  0  0
  187.0410  178.7640  141.3970 O   0  0  0  0  0  0  0  0  0  0  0  0
  187.6390  178.4990  139.1350 N   0  0  2  0  0  0  0  0  0  0  0  0
  189.7930  177.3910  137.8450 C   0  0  0  0  0  0  0  0  0  0  0  0
  186.5490  176.5330  138.0070 C   0  0  0  0  0  1  0  0  0  0  0  0
  190.8270  177.1290  137.2520 O   0  0  0  0  0  0  0  0  0  0  0  0
  188.4070  177.5730  139.9170 C   0  0  1  0  0  3  0  0  0  0  0  0
  186.6130  179.0030  140.0650 C   0  0  1  0  0  3  0  0  0  0  0  0
  188.5430  177.6670  137.0210 C   0  0  0  0  0  2  0  0  0  0  0  0
  190.4650  176.3780  139.8990 O   0  0  0  0  0  1  0  0  0  0  0  0
  189.8210  177.4940  139.3600 C   0  0  1  0  0  3  0  0  0  0  0  0
  187.2680  177.8760  137.8540 C   0  0  2  0  0  3  0  0  0  0  0  0
  183.0460  177.5030  140.7560 C   0  0  0  0  0  2  0  0  0  0  0  0
  182.4490  178.3280  139.6070 C   0  0  0  0  0  2  0  0  0  0  0  0
  183.0080  179.6160  139.5920 O   0  0  0  0  0  0  0  0  0  0  0  0
  185.1850  178.4730  139.8270 C   0  0  2  0  0  3  0  0  0  0  0  0
  184.3150  179.5010  139.0670 C   0  0  0  0  0  2  0  0  0  0  0  0
  184.4750  177.9500  141.0940 C   0  0  1  0  0  3  0  0  0  0  0  0
  183.4180  178.6270  143.2540 C   0  0  0  0  0  1  0  0  0  0  0  0
  184.4480  178.9980  142.2040 C   0  0  0  0  0  2  0  0  0  0  0  0
  188.4750  177.0820  142.3330 N   0  0  0  0  0  2  0  0  0  0  0  0
  187.8280  177.9550  146.4680 C   0  0  0  0  0  2  0  0  0  0  0  0
  188.2260  177.5000  143.7220 C   0  0  0  0  0  3  0  0  0  0  0  0
  186.9290  176.9190  144.2890 C   0  0  0  0  0  2  0  0  0  0  0  0
  186.5980  177.5030  145.6690 C   0  0  0  0  0  2  0  0  0  0  0  0
  189.0590  177.1280  146.1140 C   0  0  0  0  0  2  0  0  0  0  0  0
  189.4450  177.3280  144.6460 C   0  0  0  0  0  2  0  0  0  0  0  0
  1  2  1  0  0  0  0
  1 21  1  1  0  0  0
  3  7  1  0  0  0  0
  3  8  1  0  0  0  0
  4 11  1  0  0  0  0
  6  4  2  0  0  0  0
  7  1  1  0  0  0  0
  8  2  1  0  0  0  0
  9  4  1  0  0  0  0
  9 12  1  0  0  0  0
 11 10  1  0  0  0  0
 11  7  1  0  0  0  0
 12  5  1  0  0  0  0
 12  3  1  0  0  0  0
 13 18  1  0  0  0  0
 14 13  1  0  0  0  0
 15 14  1  0  0  0  0
 16  8  1  0  0  0  0
 16 18  1  0  0  0  0
 17 15  1  0  0  0  0
 17 16  1  0  0  0  0
 18 20  1  0  0  0  0
 20 19  1  0  0  0  0
 21 23  1  0  0  0  0
 23 24  1  0  0  0  0
 23 27  1  0  0  0  0
 24 25  1  0  0  0  0
 25 22  1  0  0  0  0
 26 22  1  0  0  0  0
 27 26  1  0  0  0  0
M  END
>  <MODEL>
5

>  <REMARK>
 VINA RESULT:      -7.0      2.551      5.939
  Name = 
  4 active torsions:
  status: ('A' for Active; 'I' for Inactive)
    1  A    between atoms: C_1  and  N_15
    2  A    between atoms: C_9  and  N_15
    3  A    between atoms: C_14  and  C_19
    4  A    between atoms: C_17  and  C_21
                            x       y       z     vdW  Elec       q    Type
                         _______ _______ _______ _____ _____    ______ ____

>  <TORSDO>
F 4

$$$$
=
 OpenBabel11052413533D

 27 30  0  0  1  0  0  0  0  0999 V2000
  187.5090  177.7800  141.1830 C   0  0  2  0  0  3  0  0  0  0  0  0
  187.8240  177.2700  142.4580 O   0  0  0  0  0  0  0  0  0  0  0  0
  189.4970  176.6580  140.9180 N   0  0  2  0  0  0  0  0  0  0  0  0
  189.8960  177.1240  138.2430 C   0  0  0  0  0  0  0  0  0  0  0  0
  191.5480  178.1110  140.9960 C   0  0  0  0  0  1  0  0  0  0  0  0
  189.9820  177.1060  137.0260 O   0  0  0  0  0  0  0  0  0  0  0  0
  188.7740  177.7750  140.3800 C   0  0  1  0  0  3  0  0  0  0  0  0
  189.0530  176.5740  142.3210 C   0  0  1  0  0  3  0  0  0  0  0  0
  191.0790  176.6140  139.0550 C   0  0  0  0  0  2  0  0  0  0  0  0
  188.1920  178.7940  138.3110 O   0  0  0  0  0  1  0  0  0  0  0  0
  188.5970  177.5860  138.8810 C   0  0  1  0  0  3  0  0  0  0  0  0
  190.9240  176.7790  140.5740 C   0  0  2  0  0  3  0  0  0  0  0  0
  190.5880  178.2200  145.5440 C   0  0  0  0  0  2  0  0  0  0  0  0
  191.6750  177.1390  145.6100 C   0  0  0  0  0  2  0  0  0  0  0  0
  191.1310  175.8840  145.2880 O   0  0  0  0  0  0  0  0  0  0  0  0
  190.0840  177.0370  143.3710 C   0  0  2  0  0  3  0  0  0  0  0  0
  190.9380  175.8570  143.8880 C   0  0  0  0  0  2  0  0  0  0  0  0
  189.4910  177.8640  144.5310 C   0  0  1  0  0  3  0  0  0  0  0  0
  188.1430  177.6820  146.6260 C   0  0  0  0  0  1  0  0  0  0  0  0
  188.3510  177.1270  145.2300 C   0  0  0  0  0  2  0  0  0  0  0  0
  186.8950  179.1190  141.2410 N   0  0  0  0  0  2  0  0  0  0  0  0
  183.1070  178.9820  143.2200 C   0  0  0  0  0  2  0  0  0  0  0  0
  185.5740  179.1910  141.8860 C   0  0  0  0  0  3  0  0  0  0  0  0
  184.5200  178.3480  141.1630 C   0  0  0  0  0  2  0  0  0  0  0  0
  183.1160  178.5720  141.7420 C   0  0  0  0  0  2  0  0  0  0  0  0
  184.3060  178.4070  143.9670 C   0  0  0  0  0  2  0  0  0  0  0  0
  185.6160  178.9680  143.4080 C   0  0  0  0  0  2  0  0  0  0  0  0
  1 21  1  1  0  0  0
  1  2  1  0  0  0  0
  3  8  1  0  0  0  0
  4 11  1  0  0  0  0
  4  9  1  0  0  0  0
  6  4  2  0  0  0  0
  7  3  1  0  0  0  0
  7  1  1  0  0  0  0
  8  2  1  0  0  0  0
  8 16  1  0  0  0  0
  9 12  1  0  0  0  0
 10 11  1  0  0  0  0
 11  7  1  0  0  0  0
 12  3  1  0  0  0  0
 12  5  1  0  0  0  0
 13 14  1  0  0  0  0
 15 14  1  0  0  0  0
 16 17  1  0  0  0  0
 16 18  1  0  0  0  0
 17 15  1  0  0  0  0
 18 20  1  0  0  0  0
 18 13  1  0  0  0  0
 20 19  1  0  0  0  0
 21 23  1  0  0  0  0
 22 26  1  0  0  0  0
 23 27  1  0  0  0  0
 24 25  1  0  0  0  0
 24 23  1  0  0  0  0
 25 22  1  0  0  0  0
 27 26  1  0  0  0  0
M  END
>  <MODEL>
6

>  <REMARK>
 VINA RESULT:      -6.9      1.794      2.769
  Name = 
  4 active torsions:
  status: ('A' for Active; 'I' for Inactive)
    1  A    between atoms: C_1  and  N_15
    2  A    between atoms: C_9  and  N_15
    3  A    between atoms: C_14  and  C_19
    4  A    between atoms: C_17  and  C_21
                            x       y       z     vdW  Elec       q    Type
                         _______ _______ _______ _____ _____    ______ ____

>  <TORSDO>
F 4

$$$$
=
 OpenBabel11052413533D

 27 30  0  0  1  0  0  0  0  0999 V2000
  188.5380  178.0300  141.0380 C   0  0  2  0  0  3  0  0  0  0  0  0
  187.6360  178.4100  140.0240 O   0  0  0  0  0  0  0  0  0  0  0  0
  189.7590  177.9990  139.0920 N   0  0  2  0  0  0  0  0  0  0  0  0
  192.1760  177.2000  140.1180 C   0  0  0  0  0  0  0  0  0  0  0  0
  189.9930  175.7310  138.0300 C   0  0  0  0  0  1  0  0  0  0  0  0
  193.3050  177.0830  140.5650 O   0  0  0  0  0  0  0  0  0  0  0  0
  189.6930  177.3490  140.3700 C   0  0  1  0  0  3  0  0  0  0  0  0
  188.3680  178.3940  138.8080 C   0  0  1  0  0  3  0  0  0  0  0  0
  191.9880  177.1160  138.6090 C   0  0  0  0  0  2  0  0  0  0  0  0
  191.0800  176.6020  142.1530 O   0  0  0  0  0  1  0  0  0  0  0  0
  191.0340  177.4900  141.0760 C   0  0  1  0  0  3  0  0  0  0  0  0
  190.5220  177.1620  138.1500 C   0  0  2  0  0  3  0  0  0  0  0  0
  185.5320  176.4860  136.8660 C   0  0  0  0  0  2  0  0  0  0  0  0
  186.1730  176.8510  135.5200 C   0  0  0  0  0  2  0  0  0  0  0  0
  186.6510  178.1720  135.5530 O   0  0  0  0  0  0  0  0  0  0  0  0
  187.6490  177.5610  137.7280 C   0  0  2  0  0  3  0  0  0  0  0  0
  187.8380  178.1710  136.3200 C   0  0  0  0  0  2  0  0  0  0  0  0
  186.1640  177.2670  138.0280 C   0  0  1  0  0  3  0  0  0  0  0  0
  184.1390  178.2390  139.1210 C   0  0  0  0  0  1  0  0  0  0  0  0
  185.3720  178.5450  138.2920 C   0  0  0  0  0  2  0  0  0  0  0  0
  187.9120  177.1790  142.0660 N   0  0  0  0  0  2  0  0  0  0  0  0
  185.6190  178.9170  145.2290 C   0  0  0  0  0  2  0  0  0  0  0  0
  187.1700  177.8890  143.1210 C   0  0  0  0  0  3  0  0  0  0  0  0
  185.6660  177.9480  142.8440 C   0  0  0  0  0  2  0  0  0  0  0  0
  184.9340  178.8380  143.8590 C   0  0  0  0  0  2  0  0  0  0  0  0
  186.3860  177.6380  145.5450 C   0  0  0  0  0  2  0  0  0  0  0  0
  187.5260  177.4250  144.5450 C   0  0  0  0  0  2  0  0  0  0  0  0
  1 21  1  1  0  0  0
  2  1  1  0  0  0  0
  3  7  1  0  0  0  0
  4  6  2  0  0  0  0
  4 11  1  0  0  0  0
  5 12  1  0  0  0  0
  7  1  1  0  0  0  0
  7 11  1  0  0  0  0
  8  3  1  0  0  0  0
  8  2  1  0  0  0  0
  9  4  1  0  0  0  0
 11 10  1  0  0  0  0
 12  9  1  0  0  0  0
 12  3  1  0  0  0  0
 13 18  1  0  0  0  0
 14 15  1  0  0  0  0
 14 13  1  0  0  0  0
 15 17  1  0  0  0  0
 16 18  1  0  0  0  0
 16  8  1  0  0  0  0
 17 16  1  0  0  0  0
 18 20  1  0  0  0  0
 20 19  1  0  0  0  0
 21 23  1  0  0  0  0
 22 26  1  0  0  0  0
 23 27  1  0  0  0  0
 24 23  1  0  0  0  0
 24 25  1  0  0  0  0
 25 22  1  0  0  0  0
 27 26  1  0  0  0  0
M  END
>  <MODEL>
7

>  <REMARK>
 VINA RESULT:      -6.8      3.074      6.439
  Name = 
  4 active torsions:
  status: ('A' for Active; 'I' for Inactive)
    1  A    between atoms: C_1  and  N_15
    2  A    between atoms: C_9  and  N_15
    3  A    between atoms: C_14  and  C_19
    4  A    between atoms: C_17  and  C_21
                            x       y       z     vdW  Elec       q    Type
                         _______ _______ _______ _____ _____    ______ ____

>  <TORSDO>
F 4

$$$$
=
 OpenBabel11052413533D

 27 30  0  0  1  0  0  0  0  0999 V2000
  186.9100  178.4870  142.4850 C   0  0  2  0  0  3  0  0  0  0  0  0
  187.6610  178.6350  141.3020 O   0  0  0  0  0  0  0  0  0  0  0  0
  189.0840  178.0370  143.0800 N   0  0  2  0  0  0  0  0  0  0  0  0
  188.6930  177.4890  145.7400 C   0  0  0  0  0  0  0  0  0  0  0  0
  189.6750  175.5940  143.1460 C   0  0  0  0  0  1  0  0  0  0  0  0
  188.5930  177.4750  146.9560 O   0  0  0  0  0  0  0  0  0  0  0  0
  187.7410  177.6810  143.4370 C   0  0  1  0  0  3  0  0  0  0  0  0
  189.0100  178.3580  141.6430 C   0  0  1  0  0  3  0  0  0  0  0  0
  190.0230  177.0780  145.1230 C   0  0  0  0  0  2  0  0  0  0  0  0
  186.3450  177.3440  145.3340 O   0  0  0  0  0  1  0  0  0  0  0  0
  187.5160  177.9770  144.9130 C   0  0  1  0  0  3  0  0  0  0  0  0
  190.0180  177.0190  143.5880 C   0  0  2  0  0  3  0  0  0  0  0  0
  189.7180  176.2270  138.4160 C   0  0  0  0  0  2  0  0  0  0  0  0
  191.2010  176.1030  138.7930 C   0  0  0  0  0  2  0  0  0  0  0  0
  191.6730  177.3190  139.3140 O   0  0  0  0  0  0  0  0  0  0  0  0
  189.6270  177.3080  140.6970 C   0  0  2  0  0  3  0  0  0  0  0  0
  191.1660  177.4380  140.6280 C   0  0  0  0  0  2  0  0  0  0  0  0
  188.9940  177.2610  139.2900 C   0  0  1  0  0  3  0  0  0  0  0  0
  188.3730  178.5450  137.2390 C   0  0  0  0  0  1  0  0  0  0  0  0
  189.0140  178.6280  138.6120 C   0  0  0  0  0  2  0  0  0  0  0  0
  185.5890  177.8780  142.2490 N   0  0  0  0  0  2  0  0  0  0  0  0
  182.8380  179.7210  139.5430 C   0  0  0  0  0  2  0  0  0  0  0  0
  184.6910  178.6230  141.3510 C   0  0  0  0  0  3  0  0  0  0  0  0
  185.0370  178.4220  139.8740 C   0  0  0  0  0  2  0  0  0  0  0  0
  184.2070  179.3390  138.9640 C   0  0  0  0  0  2  0  0  0  0  0  0
  182.2930  178.6280  140.4550 C   0  0  0  0  0  2  0  0  0  0  0  0
  183.1990  178.4350  141.6750 C   0  0  0  0  0  2  0  0  0  0  0  0
  1 21  1  6  0  0  0
  1  7  1  0  0  0  0
  2  8  1  0  0  0  0
  2  1  1  0  0  0  0
  3  7  1  0  0  0  0
  3 12  1  0  0  0  0
  4  6  2  0  0  0  0
  5 12  1  0  0  0  0
  7 11  1  0  0  0  0
  8  3  1  0  0  0  0
  9  4  1  0  0  0  0
 11 10  1  0  0  0  0
 11  4  1  0  0  0  0
 12  9  1  0  0  0  0
 13 14  1  0  0  0  0
 13 18  1  0  0  0  0
 14 15  1  0  0  0  0
 15 17  1  0  0  0  0
 16  8  1  0  0  0  0
 17 16  1  0  0  0  0
 18 16  1  0  0  0  0
 19 20  1  0  0  0  0
 20 18  1  0  0  0  0
 22 26  1  0  0  0  0
 23 27  1  0  0  0  0
 23 21  1  0  0  0  0
 24 23  1  0  0  0  0
 25 22  1  0  0  0  0
 25 24  1  0  0  0  0
 26 27  1  0  0  0  0
M  END
>  <MODEL>
8

>  <REMARK>
 VINA RESULT:      -6.8      1.842      5.562
  Name = 
  4 active torsions:
  status: ('A' for Active; 'I' for Inactive)
    1  A    between atoms: C_1  and  N_15
    2  A    between atoms: C_9  and  N_15
    3  A    between atoms: C_14  and  C_19
    4  A    between atoms: C_17  and  C_21
                            x       y       z     vdW  Elec       q    Type
                         _______ _______ _______ _____ _____    ______ ____

>  <TORSDO>
F 4

$$$$
=
 OpenBabel11052413533D

 27 30  0  0  1  0  0  0  0  0999 V2000
  186.1280  178.7640  141.3050 C   0  0  2  0  0  3  0  0  0  0  0  0
  184.7900  179.1820  141.1700 O   0  0  0  0  0  0  0  0  0  0  0  0
  185.7810  178.9790  139.0440 N   0  0  2  0  0  0  0  0  0  0  0  0
  188.2670  178.2300  138.1580 C   0  0  0  0  0  0  0  0  0  0  0  0
  185.2280  176.8350  137.8530 C   0  0  0  0  0  1  0  0  0  0  0  0
  189.4130  178.1380  137.7460 O   0  0  0  0  0  0  0  0  0  0  0  0
  186.5550  178.2140  139.9790 C   0  0  1  0  0  3  0  0  0  0  0  0
  184.5490  179.3190  139.7780 C   0  0  1  0  0  3  0  0  0  0  0  0
  187.1380  178.2730  137.1370 C   0  0  0  0  0  2  0  0  0  0  0  0
  188.7580  177.3880  140.3370 O   0  0  0  0  0  1  0  0  0  0  0  0
  188.0340  178.3660  139.6520 C   0  0  1  0  0  3  0  0  0  0  0  0
  185.7300  178.2770  137.7510 C   0  0  2  0  0  3  0  0  0  0  0  0
  181.2240  177.2300  139.9740 C   0  0  0  0  0  2  0  0  0  0  0  0
  180.6810  177.9300  138.7200 C   0  0  0  0  0  2  0  0  0  0  0  0
  181.0100  179.2960  138.7460 O   0  0  0  0  0  0  0  0  0  0  0  0
  183.2860  178.5480  139.3460 C   0  0  2  0  0  3  0  0  0  0  0  0
  182.3820  179.4040  138.4290 C   0  0  0  0  0  2  0  0  0  0  0  0
  182.4870  177.9210  140.5090 C   0  0  1  0  0  3  0  0  0  0  0  0
  180.8390  178.5440  142.2790 C   0  0  0  0  0  1  0  0  0  0  0  0
  182.1120  178.9570  141.5650 C   0  0  0  0  0  2  0  0  0  0  0  0
  186.3130  177.7890  142.3950 N   0  0  0  0  0  2  0  0  0  0  0  0
  185.5660  178.9210  146.4500 C   0  0  0  0  0  2  0  0  0  0  0  0
  186.0770  178.2970  143.7570 C   0  0  0  0  0  3  0  0  0  0  0  0
  184.6040  178.2290  144.1640 C   0  0  0  0  0  2  0  0  0  0  0  0
  184.3520  178.9210  145.5110 C   0  0  0  0  0  2  0  0  0  0  0  0
  186.4520  177.7020  146.2180 C   0  0  0  0  0  2  0  0  0  0  0  0
  187.0440  177.7210  144.8060 C   0  0  0  0  0  2  0  0  0  0  0  0
  1 21  1  1  0  0  0
  2  1  1  0  0  0  0
  3  8  1  0  0  0  0
  3  7  1  0  0  0  0
  4 11  1  0  0  0  0
  6  4  2  0  0  0  0
  7  1  1  0  0  0  0
  8  2  1  0  0  0  0
  9 12  1  0  0  0  0
  9  4  1  0  0  0  0
 11  7  1  0  0  0  0
 11 10  1  0  0  0  0
 12  5  1  0  0  0  0
 12  3  1  0  0  0  0
 13 18  1  0  0  0  0
 14 15  1  0  0  0  0
 14 13  1  0  0  0  0
 16  8  1  0  0  0  0
 16 18  1  0  0  0  0
 17 15  1  0  0  0  0
 17 16  1  0  0  0  0
 18 20  1  0  0  0  0
 20 19  1  0  0  0  0
 21 23  1  0  0  0  0
 23 24  1  0  0  0  0
 23 27  1  0  0  0  0
 24 25  1  0  0  0  0
 25 22  1  0  0  0  0
 26 22  1  0  0  0  0
 27 26  1  0  0  0  0
M  END
>  <MODEL>
9

>  <REMARK>
 VINA RESULT:      -6.8      3.048      6.586
  Name = 
  4 active torsions:
  status: ('A' for Active; 'I' for Inactive)
    1  A    between atoms: C_1  and  N_15
    2  A    between atoms: C_9  and  N_15
    3  A    between atoms: C_14  and  C_19
    4  A    between atoms: C_17  and  C_21
                            x       y       z     vdW  Elec       q    Type
                         _______ _______ _______ _____ _____    ______ ____

>  <TORSDO>
F 4

$$$$
