=
 OpenBabel11052414013D

 34 37  0  0  1  0  0  0  0  0999 V2000
  180.3240  176.7670  139.7730 C   0  0  2  0  0  3  0  0  0  0  0  0
  181.4550  176.6200  137.6100 C   0  0  0  0  0  0  0  0  0  0  0  0
  180.5420  178.6640  138.1500 N   0  0  1  0  0  0  0  0  0  0  0  0
  180.0120  177.7830  141.9090 O   0  0  0  0  0  1  0  0  0  0  0  0
  181.5190  175.4250  137.2150 O   0  0  0  0  0  0  0  0  0  0  0  0
  182.4820  177.5650  137.4040 N   0  0  0  0  0  0  0  0  0  0  0  0
  180.2950  177.2120  138.3050 C   0  0  2  0  0  3  0  0  0  0  0  0
  180.0000  175.4140  139.8730 O   0  0  0  0  0  1  0  0  0  0  0  0
  179.9920  179.4640  139.1860 N   0  0  0  0  0  0  0  0  0  0  0  0
  179.3970  177.5740  140.6750 C   0  0  1  0  0  3  0  0  0  0  0  0
  183.4310  177.4700  136.3100 C   0  0  0  0  0  1  0  0  0  0  0  0
  179.8450  181.5990  140.1070 O   0  0  0  0  0  0  0  0  0  0  0  0
  179.9780  180.8990  139.0650 C   0  0  0  0  0  0  0  0  0  0  0  0
  182.0070  178.8370  137.9180 C   0  0  2  0  0  3  0  0  0  0  0  0
  178.9730  178.9080  140.0780 C   0  0  0  0  0  2  0  0  0  0  0  0
  179.7360  181.6940  135.2400 C   0  0  2  0  0  3  0  0  0  0  0  0
  180.0020  183.1890  135.3780 C   0  0  0  0  0  2  0  0  0  0  0  0
  180.1220  181.5760  137.7550 C   0  0  0  0  0  0  0  0  0  0  0  0
  181.1190  183.4260  136.3890 C   0  0  0  0  0  2  0  0  0  0  0  0
  179.2810  181.1220  136.5820 C   0  0  0  0  0  2  0  0  0  0  0  0
  180.8820  182.6800  137.6720 C   0  0  0  0  0  3  0  0  0  0  0  0
  180.8730  181.0380  134.8020 F   0  0  0  0  0  0  0  0  0  0  0  0
  183.5280  180.4590  138.9510 O   0  0  0  0  0  1  0  0  0  0  0  0
  182.8730  179.2420  139.1320 C   0  0  2  0  0  3  0  0  0  0  0  0
  183.8580  178.1620  139.5490 C   0  0  0  0  0  2  0  0  0  0  0  0
  183.4590  177.5280  140.8750 C   0  0  0  0  0  2  0  0  0  0  0  0
  183.3930  178.5780  141.9730 C   0  0  0  0  0  2  0  0  0  0  0  0
  186.2290  179.4750  142.1070 O   0  0  0  0  0  1  0  0  0  0  0  0
  184.3790  178.2730  143.0920 C   0  0  1  0  0  3  0  0  0  0  0  0
  185.8200  178.2200  142.5670 C   0  0  2  0  0  3  0  0  0  0  0  0
  186.2240  177.7550  145.3490 S   0  0  0  0  0  0  0  0  0  0  0  0
  185.4120  179.3740  145.1570 C   0  0  0  0  0  2  0  0  0  0  0  0
  184.1960  179.2800  144.2330 C   0  0  0  0  0  2  0  0  0  0  0  0
  186.8170  177.7000  143.6120 C   0  0  0  0  0  2  0  0  0  0  0  0
  1  8  1  6  0  0  0
  1 10  1  0  0  0  0
  3  7  1  0  0  0  0
  3  9  1  1  0  0  0
  5  2  2  0  0  0  0
  6  2  1  0  0  0  0
  6 14  1  0  0  0  0
  7  2  1  6  0  0  0
  7  1  1  0  0  0  0
  9 15  1  0  0  0  0
 10  4  1  1  0  0  0
 11  6  1  0  0  0  0
 13  9  1  0  0  0  0
 13 12  2  0  0  0  0
 14  3  1  0  0  0  0
 14 24  1  1  0  0  0
 15 10  1  0  0  0  0
 16 22  1  1  0  0  0
 16 17  1  0  0  0  0
 16 20  1  0  0  0  0
 17 19  1  0  0  0  0
 18 13  1  0  0  0  0
 19 21  1  0  0  0  0
 20 18  1  0  0  0  0
 21 18  2  0  0  0  0
 24 23  1  6  0  0  0
 24 25  1  0  0  0  0
 25 26  1  0  0  0  0
 26 27  1  0  0  0  0
 29 27  1  6  0  0  0
 29 33  1  0  0  0  0
 30 28  1  1  0  0  0
 30 29  1  0  0  0  0
 30 34  1  0  0  0  0
 32 31  1  0  0  0  0
 33 32  1  0  0  0  0
 34 31  1  0  0  0  0
M  END
>  <MODEL>
1

>  <REMARK>
 VINA RESULT:      -6.3      0.000      0.000
  Name = 
  6 active torsions:
  status: ('A' for Active; 'I' for Inactive)
    1  A    between atoms: C_3  and  C_13
    2  A    between atoms: C_3  and  C_17
    3  A    between atoms: C_12  and  C_28
    4  A    between atoms: C_17  and  C_29
    5  A    between atoms: C_18  and  C_29
    6  A    between atoms: C_18  and  C_31
                            x       y       z     vdW  Elec       q    Type
                         _______ _______ _______ _____ _____    ______ ____

>  <TORSDO>
F 6

$$$$
=
 OpenBabel11052414013D

 34 37  0  0  1  0  0  0  0  0999 V2000
  180.3130  176.7780  139.9890 C   0  0  2  0  0  3  0  0  0  0  0  0
  181.2590  176.5840  137.7430 C   0  0  0  0  0  0  0  0  0  0  0  0
  180.4440  178.6550  138.3350 N   0  0  1  0  0  0  0  0  0  0  0  0
  180.2020  177.8190  142.1330 O   0  0  0  0  0  1  0  0  0  0  0  0
  181.2610  175.3840  137.3560 O   0  0  0  0  0  0  0  0  0  0  0  0
  182.2880  177.5000  137.4440 N   0  0  0  0  0  0  0  0  0  0  0  0
  180.1750  177.2110  138.5240 C   0  0  2  0  0  3  0  0  0  0  0  0
  179.9640  175.4340  140.1300 O   0  0  0  0  0  1  0  0  0  0  0  0
  180.0010  179.4770  139.4040 N   0  0  0  0  0  0  0  0  0  0  0  0
  179.4830  177.6150  140.9550 C   0  0  1  0  0  3  0  0  0  0  0  0
  183.1430  177.3720  136.2770 C   0  0  0  0  0  1  0  0  0  0  0  0
  179.9830  181.6230  140.3120 O   0  0  0  0  0  0  0  0  0  0  0  0
  180.0130  180.9120  139.2690 C   0  0  0  0  0  0  0  0  0  0  0  0
  181.8890  178.7890  137.9820 C   0  0  2  0  0  3  0  0  0  0  0  0
  179.0450  178.9560  140.3810 C   0  0  0  0  0  2  0  0  0  0  0  0
  179.4430  181.7030  135.4780 C   0  0  2  0  0  3  0  0  0  0  0  0
  179.8050  183.1800  135.5750 C   0  0  0  0  0  2  0  0  0  0  0  0
  180.0660  181.5740  137.9450 C   0  0  0  0  0  0  0  0  0  0  0  0
  181.0270  183.3580  136.4700 C   0  0  0  0  0  2  0  0  0  0  0  0
  179.0900  181.1630  136.8640 C   0  0  0  0  0  2  0  0  0  0  0  0
  180.8750  182.6320  137.7780 C   0  0  0  0  0  3  0  0  0  0  0  0
  180.4920  180.9810  134.9380 F   0  0  0  0  0  0  0  0  0  0  0  0
  183.4530  180.4280  138.9200 O   0  0  0  0  0  1  0  0  0  0  0  0
  182.8620  179.1810  139.1170 C   0  0  2  0  0  3  0  0  0  0  0  0
  183.9210  178.1250  139.3870 C   0  0  0  0  0  2  0  0  0  0  0  0
  185.3230  178.7150  139.3210 C   0  0  0  0  0  2  0  0  0  0  0  0
  186.0230  178.2910  138.0390 C   0  0  0  0  0  2  0  0  0  0  0  0
  188.5890  179.6140  137.3110 O   0  0  0  0  0  1  0  0  0  0  0  0
  187.4200  177.7570  138.3210 C   0  0  1  0  0  3  0  0  0  0  0  0
  188.4230  178.2270  137.2580 C   0  0  2  0  0  3  0  0  0  0  0  0
  190.1150  176.7340  138.9980 S   0  0  0  0  0  0  0  0  0  0  0  0
  189.3550  178.0780  139.9630 C   0  0  0  0  0  2  0  0  0  0  0  0
  187.8410  178.1300  139.7460 C   0  0  0  0  0  2  0  0  0  0  0  0
  189.7880  177.5350  137.3780 C   0  0  0  0  0  2  0  0  0  0  0  0
  1  8  1  6  0  0  0
  1 10  1  0  0  0  0
  3  7  1  0  0  0  0
  3  9  1  1  0  0  0
  5  2  2  0  0  0  0
  6  2  1  0  0  0  0
  6 14  1  0  0  0  0
  7  2  1  6  0  0  0
  7  1  1  0  0  0  0
  9 15  1  0  0  0  0
 10  4  1  1  0  0  0
 11  6  1  0  0  0  0
 13  9  1  0  0  0  0
 13 12  2  0  0  0  0
 14  3  1  0  0  0  0
 14 24  1  1  0  0  0
 15 10  1  0  0  0  0
 16 22  1  1  0  0  0
 16 17  1  0  0  0  0
 16 20  1  0  0  0  0
 17 19  1  0  0  0  0
 18 13  1  0  0  0  0
 19 21  1  0  0  0  0
 20 18  1  0  0  0  0
 21 18  2  0  0  0  0
 24 23  1  6  0  0  0
 24 25  1  0  0  0  0
 26 25  1  0  0  0  0
 27 26  1  0  0  0  0
 29 27  1  6  0  0  0
 29 33  1  0  0  0  0
 30 28  1  1  0  0  0
 30 34  1  0  0  0  0
 30 29  1  0  0  0  0
 31 32  1  0  0  0  0
 33 32  1  0  0  0  0
 34 31  1  0  0  0  0
M  END
>  <MODEL>
2

>  <REMARK>
 VINA RESULT:      -5.7      2.475      3.021
  Name = 
  6 active torsions:
  status: ('A' for Active; 'I' for Inactive)
    1  A    between atoms: C_3  and  C_13
    2  A    between atoms: C_3  and  C_17
    3  A    between atoms: C_12  and  C_28
    4  A    between atoms: C_17  and  C_29
    5  A    between atoms: C_18  and  C_29
    6  A    between atoms: C_18  and  C_31
                            x       y       z     vdW  Elec       q    Type
                         _______ _______ _______ _____ _____    ______ ____

>  <TORSDO>
F 6

$$$$
=
 OpenBabel11052414013D

 34 37  0  0  1  0  0  0  0  0999 V2000
  179.8960  178.3030  141.9750 C   0  0  2  0  0  3  0  0  0  0  0  0
  180.2510  176.5650  140.2920 C   0  0  0  0  0  0  0  0  0  0  0  0
  179.9490  178.7080  139.5020 N   0  0  1  0  0  0  0  0  0  0  0  0
  180.4570  180.3930  142.9790 O   0  0  0  0  0  1  0  0  0  0  0  0
  179.9660  175.4270  140.7500 O   0  0  0  0  0  0  0  0  0  0  0  0
  181.3210  176.8010  139.4020 N   0  0  0  0  0  0  0  0  0  0  0  0
  179.4960  177.8000  140.5810 C   0  0  2  0  0  3  0  0  0  0  0  0
  179.3720  177.4640  142.9590 O   0  0  0  0  0  1  0  0  0  0  0  0
  179.9070  180.0860  139.8410 N   0  0  0  0  0  0  0  0  0  0  0  0
  179.4620  179.7370  142.2550 C   0  0  1  0  0  3  0  0  0  0  0  0
  181.8490  175.7780  138.5170 C   0  0  0  0  0  1  0  0  0  0  0  0
  180.4540  182.2540  139.1870 O   0  0  0  0  0  0  0  0  0  0  0  0
  180.1230  181.0890  138.8300 C   0  0  0  0  0  0  0  0  0  0  0  0
  181.2750  178.2050  139.0340 C   0  0  2  0  0  3  0  0  0  0  0  0
  179.1300  180.5320  140.9990 C   0  0  0  0  0  2  0  0  0  0  0  0
  179.0850  179.3670  135.4720 C   0  0  2  0  0  3  0  0  0  0  0  0
  179.3280  180.5880  134.5940 C   0  0  0  0  0  2  0  0  0  0  0  0
  179.9780  180.7910  137.3870 C   0  0  0  0  0  0  0  0  0  0  0  0
  180.6190  181.2820  135.0150 C   0  0  0  0  0  2  0  0  0  0  0  0
  178.9310  179.7990  136.9310 C   0  0  0  0  0  2  0  0  0  0  0  0
  180.6700  181.5200  136.4980 C   0  0  0  0  0  3  0  0  0  0  0  0
  180.1290  178.4660  135.3500 F   0  0  0  0  0  0  0  0  0  0  0  0
  183.2500  179.5930  138.6040 O   0  0  0  0  0  1  0  0  0  0  0  0
  182.5340  178.9090  139.5860 C   0  0  2  0  0  3  0  0  0  0  0  0
  183.4500  177.9750  140.3610 C   0  0  0  0  0  2  0  0  0  0  0  0
  183.6980  178.4850  141.7730 C   0  0  0  0  0  2  0  0  0  0  0  0
  185.0620  178.0380  142.2740 C   0  0  0  0  0  2  0  0  0  0  0  0
  187.5390  178.3340  143.9000 O   0  0  0  0  0  1  0  0  0  0  0  0
  185.1380  178.0850  143.7930 C   0  0  1  0  0  3  0  0  0  0  0  0
  186.4730  177.5250  144.3030 C   0  0  2  0  0  3  0  0  0  0  0  0
  185.2230  178.2920  146.7460 S   0  0  0  0  0  0  0  0  0  0  0  0
  185.3790  179.7740  145.6990 C   0  0  0  0  0  2  0  0  0  0  0  0
  184.8640  179.5110  144.2830 C   0  0  0  0  0  2  0  0  0  0  0  0
  186.5030  177.3490  145.8280 C   0  0  0  0  0  2  0  0  0  0  0  0
  1 10  1  0  0  0  0
  1  8  1  1  0  0  0
  2  5  2  0  0  0  0
  3  9  1  1  0  0  0
  3  7  1  0  0  0  0
  6  2  1  0  0  0  0
  7  2  1  6  0  0  0
  7  1  1  0  0  0  0
  9 15  1  0  0  0  0
 10  4  1  6  0  0  0
 11  6  1  0  0  0  0
 13 12  2  0  0  0  0
 13  9  1  0  0  0  0
 14  6  1  0  0  0  0
 14  3  1  0  0  0  0
 14 24  1  1  0  0  0
 15 10  1  0  0  0  0
 16 22  1  1  0  0  0
 16 20  1  0  0  0  0
 17 19  1  0  0  0  0
 17 16  1  0  0  0  0
 18 13  1  0  0  0  0
 19 21  1  0  0  0  0
 20 18  1  0  0  0  0
 21 18  2  0  0  0  0
 24 23  1  6  0  0  0
 24 25  1  0  0  0  0
 25 26  1  0  0  0  0
 26 27  1  0  0  0  0
 29 27  1  6  0  0  0
 29 33  1  0  0  0  0
 29 30  1  0  0  0  0
 30 28  1  1  0  0  0
 30 34  1  0  0  0  0
 32 31  1  0  0  0  0
 33 32  1  0  0  0  0
 34 31  1  0  0  0  0
M  END
>  <MODEL>
3

>  <REMARK>
 VINA RESULT:      -5.3      1.567      2.131
  Name = 
  6 active torsions:
  status: ('A' for Active; 'I' for Inactive)
    1  A    between atoms: C_3  and  C_13
    2  A    between atoms: C_3  and  C_17
    3  A    between atoms: C_12  and  C_28
    4  A    between atoms: C_17  and  C_29
    5  A    between atoms: C_18  and  C_29
    6  A    between atoms: C_18  and  C_31
                            x       y       z     vdW  Elec       q    Type
                         _______ _______ _______ _____ _____    ______ ____

>  <TORSDO>
F 6

$$$$
=
 OpenBabel11052414013D

 34 37  0  0  1  0  0  0  0  0999 V2000
  192.2500  175.0470  136.6390 C   0  0  2  0  0  3  0  0  0  0  0  0
  189.9740  174.2150  136.9690 C   0  0  0  0  0  0  0  0  0  0  0  0
  190.8530  175.4920  138.6720 N   0  0  1  0  0  0  0  0  0  0  0  0
  193.8380  176.8240  136.5500 O   0  0  0  0  0  1  0  0  0  0  0  0
  189.7530  173.2080  136.2450 O   0  0  0  0  0  0  0  0  0  0  0  0
  189.0070  175.2050  137.2440 N   0  0  0  0  0  0  0  0  0  0  0  0
  191.2490  174.4870  137.6600 C   0  0  2  0  0  3  0  0  0  0  0  0
  192.6600  174.0410  135.7640 O   0  0  0  0  0  1  0  0  0  0  0  0
  191.8930  176.3800  139.0530 N   0  0  0  0  0  0  0  0  0  0  0  0
  193.4770  175.6890  137.2760 C   0  0  1  0  0  3  0  0  0  0  0  0
  187.5800  174.9430  137.2070 C   0  0  0  0  0  1  0  0  0  0  0  0
  192.4570  178.2900  140.2630 O   0  0  0  0  0  0  0  0  0  0  0  0
  191.7120  177.2750  140.1670 C   0  0  0  0  0  0  0  0  0  0  0  0
  189.6060  176.1450  138.1750 C   0  0  2  0  0  3  0  0  0  0  0  0
  193.2860  176.0540  138.7420 C   0  0  0  0  0  2  0  0  0  0  0  0
  188.5260  177.6970  142.4010 C   0  0  2  0  0  3  0  0  0  0  0  0
  188.4640  176.2430  142.8550 C   0  0  0  0  0  2  0  0  0  0  0  0
  190.6730  177.0420  141.1980 C   0  0  0  0  0  0  0  0  0  0  0  0
  189.8670  175.7420  143.1830 C   0  0  0  0  0  2  0  0  0  0  0  0
  189.3710  177.8090  141.1320 C   0  0  0  0  0  2  0  0  0  0  0  0
  190.8430  176.0460  142.0800 C   0  0  0  0  0  3  0  0  0  0  0  0
  189.0560  178.4950  143.3990 F   0  0  0  0  0  0  0  0  0  0  0  0
  189.4300  178.5870  138.3080 O   0  0  0  0  0  1  0  0  0  0  0  0
  189.7530  177.5160  137.4770 C   0  0  2  0  0  3  0  0  0  0  0  0
  188.9850  177.6050  136.1680 C   0  0  0  0  0  2  0  0  0  0  0  0
  187.7720  178.5160  136.2960 C   0  0  0  0  0  2  0  0  0  0  0  0
  186.4870  177.7040  136.2760 C   0  0  0  0  0  2  0  0  0  0  0  0
  184.3340  176.1900  137.6690 O   0  0  0  0  0  1  0  0  0  0  0  0
  185.4470  178.2870  137.2210 C   0  0  1  0  0  3  0  0  0  0  0  0
  184.1400  177.4840  137.1780 C   0  0  2  0  0  3  0  0  0  0  0  0
  183.5200  179.4480  139.1470 S   0  0  0  0  0  0  0  0  0  0  0  0
  184.9660  178.5030  139.7250 C   0  0  0  0  0  2  0  0  0  0  0  0
  186.0330  178.3970  138.6330 C   0  0  0  0  0  2  0  0  0  0  0  0
  182.9960  178.1630  137.9450 C   0  0  0  0  0  2  0  0  0  0  0  0
  1  8  1  6  0  0  0
  1 10  1  0  0  0  0
  1  7  1  0  0  0  0
  2  6  1  0  0  0  0
  3  9  1  6  0  0  0
  5  2  2  0  0  0  0
  6 14  1  0  0  0  0
  7  2  1  6  0  0  0
  7  3  1  0  0  0  0
  9 13  1  0  0  0  0
 10  4  1  6  0  0  0
 10 15  1  0  0  0  0
 11  6  1  0  0  0  0
 13 12  2  0  0  0  0
 13 18  1  0  0  0  0
 14 24  1  6  0  0  0
 14  3  1  0  0  0  0
 15  9  1  0  0  0  0
 16 17  1  0  0  0  0
 16 22  1  1  0  0  0
 17 19  1  0  0  0  0
 18 21  2  0  0  0  0
 20 18  1  0  0  0  0
 20 16  1  0  0  0  0
 21 19  1  0  0  0  0
 24 23  1  1  0  0  0
 25 26  1  0  0  0  0
 25 24  1  0  0  0  0
 27 26  1  0  0  0  0
 29 27  1  6  0  0  0
 29 33  1  0  0  0  0
 30 29  1  0  0  0  0
 30 28  1  1  0  0  0
 30 34  1  0  0  0  0
 31 32  1  0  0  0  0
 33 32  1  0  0  0  0
 34 31  1  0  0  0  0
M  END
>  <MODEL>
4

>  <REMARK>
 VINA RESULT:      -5.2      6.468     10.228
  Name = 
  6 active torsions:
  status: ('A' for Active; 'I' for Inactive)
    1  A    between atoms: C_3  and  C_13
    2  A    between atoms: C_3  and  C_17
    3  A    between atoms: C_12  and  C_28
    4  A    between atoms: C_17  and  C_29
    5  A    between atoms: C_18  and  C_29
    6  A    between atoms: C_18  and  C_31
                            x       y       z     vdW  Elec       q    Type
                         _______ _______ _______ _____ _____    ______ ____

>  <TORSDO>
F 6

$$$$
=
 OpenBabel11052414013D

 34 37  0  0  1  0  0  0  0  0999 V2000
  186.7460  175.2740  136.1970 C   0  0  2  0  0  3  0  0  0  0  0  0
  187.0970  177.6080  135.5610 C   0  0  0  0  0  0  0  0  0  0  0  0
  185.1600  177.1430  136.7160 N   0  0  1  0  0  0  0  0  0  0  0  0
  186.3090  173.5900  137.8300 O   0  0  0  0  0  1  0  0  0  0  0  0
  187.9010  177.6960  134.5940 O   0  0  0  0  0  0  0  0  0  0  0  0
  187.0540  178.5330  136.6250 N   0  0  0  0  0  0  0  0  0  0  0  0
  186.0690  176.5590  135.7030 C   0  0  2  0  0  3  0  0  0  0  0  0
  187.5200  174.7150  135.1800 O   0  0  0  0  0  1  0  0  0  0  0  0
  184.4650  176.1850  137.4990 N   0  0  0  0  0  0  0  0  0  0  0  0
  185.7660  174.2270  136.7140 C   0  0  1  0  0  3  0  0  0  0  0  0
  187.4960  179.9100  136.4900 C   0  0  0  0  0  1  0  0  0  0  0  0
  183.0570  175.8340  139.3230 O   0  0  0  0  0  0  0  0  0  0  0  0
  183.4030  176.6000  138.3800 C   0  0  0  0  0  0  0  0  0  0  0  0
  185.9510  178.1470  137.4870 C   0  0  2  0  0  3  0  0  0  0  0  0
  184.3940  174.7910  137.0590 C   0  0  0  0  0  2  0  0  0  0  0  0
  182.0030  180.1860  139.0880 C   0  0  2  0  0  3  0  0  0  0  0  0
  181.7980  180.5610  137.6250 C   0  0  0  0  0  2  0  0  0  0  0  0
  182.7120  177.9000  138.2160 C   0  0  0  0  0  0  0  0  0  0  0  0
  181.2070  179.3780  136.8640 C   0  0  0  0  0  2  0  0  0  0  0  0
  182.9880  179.0210  139.1920 C   0  0  0  0  0  2  0  0  0  0  0  0
  181.9720  178.1090  137.1160 C   0  0  0  0  0  3  0  0  0  0  0  0
  180.7970  179.8440  139.6740 F   0  0  0  0  0  0  0  0  0  0  0  0
  186.2670  178.6280  139.8710 O   0  0  0  0  0  1  0  0  0  0  0  0
  186.5160  177.7050  138.8550 C   0  0  2  0  0  3  0  0  0  0  0  0
  187.9930  177.3500  138.8060 C   0  0  0  0  0  2  0  0  0  0  0  0
  188.7800  178.1000  139.8710 C   0  0  0  0  0  2  0  0  0  0  0  0
  189.7340  177.1620  140.5950 C   0  0  0  0  0  2  0  0  0  0  0  0
  190.0720  175.2330  142.8370 O   0  0  0  0  0  1  0  0  0  0  0  0
  189.8440  177.5130  142.0710 C   0  0  1  0  0  3  0  0  0  0  0  0
  189.2920  176.3870  142.9550 C   0  0  2  0  0  3  0  0  0  0  0  0
  190.1740  178.2530  144.9190 S   0  0  0  0  0  0  0  0  0  0  0  0
  191.6090  177.7780  143.9030 C   0  0  0  0  0  2  0  0  0  0  0  0
  191.2920  177.8820  142.4100 C   0  0  0  0  0  2  0  0  0  0  0  0
  189.1800  176.7880  144.4330 C   0  0  0  0  0  2  0  0  0  0  0  0
  1  8  1  6  0  0  0
  1 10  1  0  0  0  0
  2  6  1  0  0  0  0
  3 14  1  0  0  0  0
  3  9  1  1  0  0  0
  5  2  2  0  0  0  0
  6 14  1  0  0  0  0
  7  2  1  1  0  0  0
  7  1  1  0  0  0  0
  7  3  1  0  0  0  0
  9 13  1  0  0  0  0
 10 15  1  0  0  0  0
 10  4  1  1  0  0  0
 11  6  1  0  0  0  0
 13 12  2  0  0  0  0
 14 24  1  1  0  0  0
 15  9  1  0  0  0  0
 16 20  1  0  0  0  0
 16 22  1  6  0  0  0
 17 16  1  0  0  0  0
 18 13  1  0  0  0  0
 18 20  1  0  0  0  0
 19 21  1  0  0  0  0
 19 17  1  0  0  0  0
 21 18  2  0  0  0  0
 24 23  1  1  0  0  0
 25 24  1  0  0  0  0
 25 26  1  0  0  0  0
 26 27  1  0  0  0  0
 29 27  1  6  0  0  0
 29 33  1  0  0  0  0
 29 30  1  0  0  0  0
 30 28  1  1  0  0  0
 30 34  1  0  0  0  0
 32 31  1  0  0  0  0
 33 32  1  0  0  0  0
 34 31  1  0  0  0  0
M  END
>  <MODEL>
5

>  <REMARK>
 VINA RESULT:      -5.2      3.737      5.754
  Name = 
  6 active torsions:
  status: ('A' for Active; 'I' for Inactive)
    1  A    between atoms: C_3  and  C_13
    2  A    between atoms: C_3  and  C_17
    3  A    between atoms: C_12  and  C_28
    4  A    between atoms: C_17  and  C_29
    5  A    between atoms: C_18  and  C_29
    6  A    between atoms: C_18  and  C_31
                            x       y       z     vdW  Elec       q    Type
                         _______ _______ _______ _____ _____    ______ ____

>  <TORSDO>
F 6

$$$$
=
 OpenBabel11052414013D

 34 37  0  0  1  0  0  0  0  0999 V2000
  180.9900  176.7310  140.0790 C   0  0  2  0  0  3  0  0  0  0  0  0
  182.2940  176.5070  138.0230 C   0  0  0  0  0  0  0  0  0  0  0  0
  181.0160  178.4130  138.2210 N   0  0  1  0  0  0  0  0  0  0  0  0
  180.3470  177.9430  142.0310 O   0  0  0  0  0  1  0  0  0  0  0  0
  182.5860  175.3010  137.8030 O   0  0  0  0  0  0  0  0  0  0  0  0
  183.1640  177.5830  137.7440 N   0  0  0  0  0  0  0  0  0  0  0  0
  181.0020  176.9730  138.5630 C   0  0  2  0  0  3  0  0  0  0  0  0
  180.8870  175.3660  140.3500 O   0  0  0  0  0  1  0  0  0  0  0  0
  180.2620  179.2310  139.1030 N   0  0  0  0  0  0  0  0  0  0  0  0
  179.8740  177.4730  140.8060 C   0  0  1  0  0  3  0  0  0  0  0  0
  184.1990  177.5150  136.7270 C   0  0  0  0  0  1  0  0  0  0  0  0
  179.6930  181.4080  139.7070 O   0  0  0  0  0  0  0  0  0  0  0  0
  180.0200  180.6140  138.7810 C   0  0  0  0  0  0  0  0  0  0  0  0
  182.4460  178.8080  138.0480 C   0  0  2  0  0  3  0  0  0  0  0  0
  179.2830  178.6250  140.0060 C   0  0  0  0  0  2  0  0  0  0  0  0
  180.8920  182.9140  135.7360 C   0  0  2  0  0  3  0  0  0  0  0  0
  180.8200  181.8110  134.6870 C   0  0  0  0  0  2  0  0  0  0  0  0
  180.1520  181.1320  137.4000 C   0  0  0  0  0  0  0  0  0  0  0  0
  179.6190  180.9120  134.9610 C   0  0  0  0  0  2  0  0  0  0  0  0
  181.0740  182.2990  137.1240 C   0  0  0  0  0  2  0  0  0  0  0  0
  179.5720  180.4590  136.3940 C   0  0  0  0  0  3  0  0  0  0  0  0
  179.7450  183.6890  135.7050 F   0  0  0  0  0  0  0  0  0  0  0  0
  183.9120  180.6020  138.8520 O   0  0  0  0  0  1  0  0  0  0  0  0
  183.1360  179.5100  139.2390 C   0  0  2  0  0  3  0  0  0  0  0  0
  183.9470  178.5600  140.1050 C   0  0  0  0  0  2  0  0  0  0  0  0
  184.9760  179.3090  140.9400 C   0  0  0  0  0  2  0  0  0  0  0  0
  185.9340  178.3380  141.6110 C   0  0  0  0  0  2  0  0  0  0  0  0
  183.6610  177.9120  143.4870 O   0  0  0  0  0  1  0  0  0  0  0  0
  185.9640  178.5420  143.1190 C   0  0  1  0  0  3  0  0  0  0  0  0
  184.5850  178.9470  143.6560 C   0  0  2  0  0  3  0  0  0  0  0  0
  186.1070  178.8360  146.0620 S   0  0  0  0  0  0  0  0  0  0  0  0
  186.1570  177.1900  145.2820 C   0  0  0  0  0  2  0  0  0  0  0  0
  186.5250  177.2890  143.8010 C   0  0  0  0  0  2  0  0  0  0  0  0
  184.6200  179.3760  145.1300 C   0  0  0  0  0  2  0  0  0  0  0  0
  1  8  1  6  0  0  0
  1 10  1  0  0  0  0
  3  7  1  0  0  0  0
  3  9  1  1  0  0  0
  5  2  2  0  0  0  0
  6  2  1  0  0  0  0
  6 14  1  0  0  0  0
  7  2  1  1  0  0  0
  7  1  1  0  0  0  0
  9 15  1  0  0  0  0
 10  4  1  1  0  0  0
 11  6  1  0  0  0  0
 13  9  1  0  0  0  0
 13 12  2  0  0  0  0
 14  3  1  0  0  0  0
 14 24  1  1  0  0  0
 15 10  1  0  0  0  0
 16 22  1  1  0  0  0
 16 20  1  0  0  0  0
 17 19  1  0  0  0  0
 17 16  1  0  0  0  0
 18 13  1  0  0  0  0
 19 21  1  0  0  0  0
 20 18  1  0  0  0  0
 21 18  2  0  0  0  0
 24 23  1  6  0  0  0
 24 25  1  0  0  0  0
 25 26  1  0  0  0  0
 26 27  1  0  0  0  0
 29 27  1  6  0  0  0
 29 30  1  0  0  0  0
 29 33  1  0  0  0  0
 30 28  1  1  0  0  0
 30 34  1  0  0  0  0
 32 31  1  0  0  0  0
 33 32  1  0  0  0  0
 34 31  1  0  0  0  0
M  END
>  <MODEL>
6

>  <REMARK>
 VINA RESULT:      -5.1      1.149      1.741
  Name = 
  6 active torsions:
  status: ('A' for Active; 'I' for Inactive)
    1  A    between atoms: C_3  and  C_13
    2  A    between atoms: C_3  and  C_17
    3  A    between atoms: C_12  and  C_28
    4  A    between atoms: C_17  and  C_29
    5  A    between atoms: C_18  and  C_29
    6  A    between atoms: C_18  and  C_31
                            x       y       z     vdW  Elec       q    Type
                         _______ _______ _______ _____ _____    ______ ____

>  <TORSDO>
F 6

$$$$
=
 OpenBabel11052414013D

 34 37  0  0  1  0  0  0  0  0999 V2000
  183.6160  180.0600  138.8950 C   0  0  2  0  0  3  0  0  0  0  0  0
  181.2450  180.5860  138.6180 C   0  0  0  0  0  0  0  0  0  0  0  0
  181.8720  178.4170  138.1610 N   0  0  1  0  0  0  0  0  0  0  0  0
  185.3760  178.7500  139.8330 O   0  0  0  0  0  1  0  0  0  0  0  0
  181.0730  181.8230  138.4520 O   0  0  0  0  0  0  0  0  0  0  0  0
  180.3590  179.7680  139.3510 N   0  0  0  0  0  0  0  0  0  0  0  0
  182.3620  179.8100  138.0470 C   0  0  2  0  0  3  0  0  0  0  0  0
  184.0900  181.3550  138.6860 O   0  0  0  0  0  1  0  0  0  0  0  0
  182.8980  177.4440  138.2850 N   0  0  0  0  0  0  0  0  0  0  0  0
  184.7410  179.0650  138.6310 C   0  0  1  0  0  3  0  0  0  0  0  0
  178.9530  180.0870  139.5230 C   0  0  0  0  0  1  0  0  0  0  0  0
  183.3980  175.2020  138.6750 O   0  0  0  0  0  0  0  0  0  0  0  0
  182.5810  176.0410  138.2020 C   0  0  0  0  0  0  0  0  0  0  0  0
  180.8430  178.4030  139.2430 C   0  0  2  0  0  3  0  0  0  0  0  0
  184.2790  177.7880  137.9430 C   0  0  0  0  0  2  0  0  0  0  0  0
  179.7250  175.3700  135.6120 C   0  0  2  0  0  3  0  0  0  0  0  0
  179.1440  174.1610  136.3360 C   0  0  0  0  0  2  0  0  0  0  0  0
  181.3250  175.5570  137.5850 C   0  0  0  0  0  0  0  0  0  0  0  0
  179.1030  174.4260  137.8370 C   0  0  0  0  0  2  0  0  0  0  0  0
  181.1580  175.6180  136.0830 C   0  0  0  0  0  2  0  0  0  0  0  0
  180.4210  174.9300  138.3540 C   0  0  0  0  0  3  0  0  0  0  0  0
  178.9470  176.4920  135.8400 F   0  0  0  0  0  0  0  0  0  0  0  0
  180.5010  176.8830  141.1360 O   0  0  0  0  0  1  0  0  0  0  0  0
  181.2910  177.9190  140.6400 C   0  0  2  0  0  3  0  0  0  0  0  0
  181.3970  179.0440  141.6570 C   0  0  0  0  0  2  0  0  0  0  0  0
  182.2260  178.6260  142.8640 C   0  0  0  0  0  2  0  0  0  0  0  0
  183.7020  178.5590  142.5040 C   0  0  0  0  0  2  0  0  0  0  0  0
  186.6510  178.8970  142.7330 O   0  0  0  0  0  1  0  0  0  0  0  0
  184.5530  178.2120  143.7160 C   0  0  1  0  0  3  0  0  0  0  0  0
  185.9770  177.8140  143.3040 C   0  0  2  0  0  3  0  0  0  0  0  0
  186.1500  177.6360  146.1430 S   0  0  0  0  0  0  0  0  0  0  0  0
  185.6910  179.3440  145.7090 C   0  0  0  0  0  2  0  0  0  0  0  0
  184.5250  179.3710  144.7190 C   0  0  0  0  0  2  0  0  0  0  0  0
  186.8000  177.2470  144.4700 C   0  0  0  0  0  2  0  0  0  0  0  0
  1  8  1  6  0  0  0
  2  6  1  0  0  0  0
  3  9  1  1  0  0  0
  3 14  1  0  0  0  0
  5  2  2  0  0  0  0
  6 11  1  0  0  0  0
  7  3  1  0  0  0  0
  7  2  1  1  0  0  0
  7  1  1  0  0  0  0
 10  1  1  0  0  0  0
 10  4  1  1  0  0  0
 13  9  1  0  0  0  0
 13 12  2  0  0  0  0
 14  6  1  0  0  0  0
 14 24  1  1  0  0  0
 15  9  1  0  0  0  0
 15 10  1  0  0  0  0
 16 22  1  1  0  0  0
 16 20  1  0  0  0  0
 16 17  1  0  0  0  0
 17 19  1  0  0  0  0
 18 13  1  0  0  0  0
 18 21  2  0  0  0  0
 19 21  1  0  0  0  0
 20 18  1  0  0  0  0
 24 23  1  1  0  0  0
 24 25  1  0  0  0  0
 25 26  1  0  0  0  0
 27 26  1  0  0  0  0
 29 27  1  6  0  0  0
 29 33  1  0  0  0  0
 30 28  1  1  0  0  0
 30 29  1  0  0  0  0
 30 34  1  0  0  0  0
 32 31  1  0  0  0  0
 33 32  1  0  0  0  0
 34 31  1  0  0  0  0
M  END
>  <MODEL>
7

>  <REMARK>
 VINA RESULT:      -5.0      2.026      4.939
  Name = 
  6 active torsions:
  status: ('A' for Active; 'I' for Inactive)
    1  A    between atoms: C_3  and  C_13
    2  A    between atoms: C_3  and  C_17
    3  A    between atoms: C_12  and  C_28
    4  A    between atoms: C_17  and  C_29
    5  A    between atoms: C_18  and  C_29
    6  A    between atoms: C_18  and  C_31
                            x       y       z     vdW  Elec       q    Type
                         _______ _______ _______ _____ _____    ______ ____

>  <TORSDO>
F 6

$$$$
=
 OpenBabel11052414013D

 34 37  0  0  1  0  0  0  0  0999 V2000
  183.4280  175.5420  136.0980 C   0  0  2  0  0  3  0  0  0  0  0  0
  184.9660  177.2980  136.8260 C   0  0  0  0  0  0  0  0  0  0  0  0
  182.7200  177.7160  137.1240 N   0  0  1  0  0  0  0  0  0  0  0  0
  181.6340  174.0240  136.5100 O   0  0  0  0  0  1  0  0  0  0  0  0
  186.0780  177.1940  136.2440 O   0  0  0  0  0  0  0  0  0  0  0  0
  184.8250  177.6980  138.1720 N   0  0  0  0  0  0  0  0  0  0  0  0
  183.6580  177.0570  136.1870 C   0  0  2  0  0  3  0  0  0  0  0  0
  184.2720  174.9810  135.1390 O   0  0  0  0  0  1  0  0  0  0  0  0
  181.4170  177.1540  137.1390 N   0  0  0  0  0  0  0  0  0  0  0  0
  181.9860  175.1600  135.7820 C   0  0  1  0  0  3  0  0  0  0  0  0
  185.8060  178.5240  138.8540 C   0  0  0  0  0  1  0  0  0  0  0  0
  179.3270  177.1490  138.1700 O   0  0  0  0  0  0  0  0  0  0  0  0
  180.3500  177.8150  137.8480 C   0  0  0  0  0  0  0  0  0  0  0  0
  183.4030  177.7820  138.4510 C   0  0  2  0  0  3  0  0  0  0  0  0
  180.9850  176.2750  136.0510 C   0  0  0  0  0  2  0  0  0  0  0  0
  181.2020  181.6350  137.7820 C   0  0  2  0  0  3  0  0  0  0  0  0
  180.0810  182.0560  138.7250 C   0  0  0  0  0  2  0  0  0  0  0  0
  180.4230  179.2480  138.2150 C   0  0  0  0  0  0  0  0  0  0  0  0
  179.9740  181.0660  139.8800 C   0  0  0  0  0  2  0  0  0  0  0  0
  180.8930  180.2590  137.1920 C   0  0  0  0  0  2  0  0  0  0  0  0
  179.9250  179.6430  139.3970 C   0  0  0  0  0  3  0  0  0  0  0  0
  182.4130  181.6060  138.4510 F   0  0  0  0  0  0  0  0  0  0  0  0
  182.3280  175.6330  138.9420 O   0  0  0  0  0  1  0  0  0  0  0  0
  183.0320  176.7030  139.4930 C   0  0  2  0  0  3  0  0  0  0  0  0
  182.2940  177.2640  140.6970 C   0  0  0  0  0  2  0  0  0  0  0  0
  182.9110  178.5740  141.1660 C   0  0  0  0  0  2  0  0  0  0  0  0
  182.7330  178.7450  142.6670 C   0  0  0  0  0  2  0  0  0  0  0  0
  185.4660  179.8460  142.2400 O   0  0  0  0  0  1  0  0  0  0  0  0
  183.9900  178.3450  143.4240 C   0  0  1  0  0  3  0  0  0  0  0  0
  185.2420  178.5030  142.5510 C   0  0  2  0  0  3  0  0  0  0  0  0
  186.3850  177.6190  145.0070 S   0  0  0  0  0  0  0  0  0  0  0  0
  185.4890  179.1720  145.3250 C   0  0  0  0  0  2  0  0  0  0  0  0
  184.0770  179.1280  144.7380 C   0  0  0  0  0  2  0  0  0  0  0  0
  186.5000  177.9040  143.1970 C   0  0  0  0  0  2  0  0  0  0  0  0
  1  8  1  6  0  0  0
  1  7  1  0  0  0  0
  2  6  1  0  0  0  0
  3  9  1  1  0  0  0
  3 14  1  0  0  0  0
  5  2  2  0  0  0  0
  6 14  1  0  0  0  0
  6 11  1  0  0  0  0
  7  2  1  1  0  0  0
  7  3  1  0  0  0  0
  9 13  1  0  0  0  0
 10 15  1  0  0  0  0
 10  1  1  0  0  0  0
 10  4  1  1  0  0  0
 13 12  2  0  0  0  0
 13 18  1  0  0  0  0
 14 24  1  1  0  0  0
 15  9  1  0  0  0  0
 16 22  1  1  0  0  0
 16 17  1  0  0  0  0
 17 19  1  0  0  0  0
 18 21  2  0  0  0  0
 20 16  1  0  0  0  0
 20 18  1  0  0  0  0
 21 19  1  0  0  0  0
 24 23  1  6  0  0  0
 24 25  1  0  0  0  0
 25 26  1  0  0  0  0
 26 27  1  0  0  0  0
 29 27  1  6  0  0  0
 29 33  1  0  0  0  0
 30 28  1  1  0  0  0
 30 34  1  0  0  0  0
 30 29  1  0  0  0  0
 31 32  1  0  0  0  0
 33 32  1  0  0  0  0
 34 31  1  0  0  0  0
M  END
>  <MODEL>
8

>  <REMARK>
 VINA RESULT:      -5.0      2.109      3.533
  Name = 
  6 active torsions:
  status: ('A' for Active; 'I' for Inactive)
    1  A    between atoms: C_3  and  C_13
    2  A    between atoms: C_3  and  C_17
    3  A    between atoms: C_12  and  C_28
    4  A    between atoms: C_17  and  C_29
    5  A    between atoms: C_18  and  C_29
    6  A    between atoms: C_18  and  C_31
                            x       y       z     vdW  Elec       q    Type
                         _______ _______ _______ _____ _____    ______ ____

>  <TORSDO>
F 6

$$$$
=
 OpenBabel11052414013D

 34 37  0  0  1  0  0  0  0  0999 V2000
  181.0580  177.1890  140.0690 C   0  0  2  0  0  3  0  0  0  0  0  0
  183.4250  177.7950  139.9900 C   0  0  0  0  0  0  0  0  0  0  0  0
  182.7950  175.9670  138.7390 N   0  0  1  0  0  0  0  0  0  0  0  0
  178.9790  176.7160  138.9980 O   0  0  0  0  0  1  0  0  0  0  0  0
  183.7500  178.4780  140.9980 O   0  0  0  0  0  0  0  0  0  0  0  0
  183.9450  178.0170  138.6970 N   0  0  0  0  0  0  0  0  0  0  0  0
  182.4940  176.6500  140.0180 C   0  0  2  0  0  3  0  0  0  0  0  0
  180.7950  177.7440  141.3220 O   0  0  0  0  0  1  0  0  0  0  0  0
  181.7030  175.2420  138.1930 N   0  0  0  0  0  0  0  0  0  0  0  0
  179.9990  176.1380  139.7540 C   0  0  1  0  0  3  0  0  0  0  0  0
  185.2390  178.6340  138.4640 C   0  0  0  0  0  1  0  0  0  0  0  0
  180.9070  174.0320  136.3670 O   0  0  0  0  0  0  0  0  0  0  0  0
  181.9040  174.3670  137.0660 C   0  0  0  0  0  0  0  0  0  0  0  0
  183.4040  176.9840  137.8320 C   0  0  2  0  0  3  0  0  0  0  0  0
  180.5480  174.9160  139.0310 C   0  0  0  0  0  2  0  0  0  0  0  0
  185.4210  172.6610  137.2730 C   0  0  2  0  0  3  0  0  0  0  0  0
  185.5850  172.4690  135.7700 C   0  0  0  0  0  2  0  0  0  0  0  0
  183.2460  173.8570  136.7000 C   0  0  0  0  0  0  0  0  0  0  0  0
  185.1100  173.7170  135.0320 C   0  0  0  0  0  2  0  0  0  0  0  0
  183.9450  172.8720  137.6100 C   0  0  0  0  0  2  0  0  0  0  0  0
  183.7490  174.1570  135.4920 C   0  0  0  0  0  3  0  0  0  0  0  0
  186.1690  173.7420  137.7080 F   0  0  0  0  0  0  0  0  0  0  0  0
  183.0360  177.6590  135.5040 O   0  0  0  0  0  1  0  0  0  0  0  0
  182.4810  177.6420  136.7830 C   0  0  2  0  0  3  0  0  0  0  0  0
  182.0180  179.0330  137.1830 C   0  0  0  0  0  2  0  0  0  0  0  0
  180.8610  179.5050  136.3130 C   0  0  0  0  0  2  0  0  0  0  0  0
  179.8230  180.2360  137.1500 C   0  0  0  0  0  2  0  0  0  0  0  0
  181.5460  182.4480  138.1480 O   0  0  0  0  0  1  0  0  0  0  0  0
  179.7210  181.7010  136.7530 C   0  0  1  0  0  3  0  0  0  0  0  0
  180.1840  182.6210  137.8910 C   0  0  2  0  0  3  0  0  0  0  0  0
  179.5630  184.5200  135.8580 S   0  0  0  0  0  0  0  0  0  0  0  0
  180.8540  183.4060  135.2190 C   0  0  0  0  0  2  0  0  0  0  0  0
  180.4850  181.9390  135.4460 C   0  0  0  0  0  2  0  0  0  0  0  0
  179.8910  184.1030  137.6160 C   0  0  0  0  0  2  0  0  0  0  0  0
  1  8  1  1  0  0  0
  2  5  2  0  0  0  0
  3  9  1  6  0  0  0
  3  7  1  0  0  0  0
  6  2  1  0  0  0  0
  7  2  1  6  0  0  0
  7  1  1  0  0  0  0
  9 15  1  0  0  0  0
 10  4  1  6  0  0  0
 10  1  1  0  0  0  0
 11  6  1  0  0  0  0
 12 13  2  0  0  0  0
 13  9  1  0  0  0  0
 14 24  1  6  0  0  0
 14  6  1  0  0  0  0
 14  3  1  0  0  0  0
 15 10  1  0  0  0  0
 16 20  1  0  0  0  0
 16 22  1  6  0  0  0
 17 16  1  0  0  0  0
 18 13  1  0  0  0  0
 18 20  1  0  0  0  0
 19 21  1  0  0  0  0
 19 17  1  0  0  0  0
 21 18  2  0  0  0  0
 24 23  1  6  0  0  0
 24 25  1  0  0  0  0
 26 27  1  0  0  0  0
 26 25  1  0  0  0  0
 29 27  1  1  0  0  0
 29 30  1  0  0  0  0
 30 28  1  6  0  0  0
 31 34  1  0  0  0  0
 32 33  1  0  0  0  0
 32 31  1  0  0  0  0
 33 29  1  0  0  0  0
 34 30  1  0  0  0  0
M  END
>  <MODEL>
9

>  <REMARK>
 VINA RESULT:      -4.9      3.737      7.315
  Name = 
  6 active torsions:
  status: ('A' for Active; 'I' for Inactive)
    1  A    between atoms: C_3  and  C_13
    2  A    between atoms: C_3  and  C_17
    3  A    between atoms: C_12  and  C_28
    4  A    between atoms: C_17  and  C_29
    5  A    between atoms: C_18  and  C_29
    6  A    between atoms: C_18  and  C_31
                            x       y       z     vdW  Elec       q    Type
                         _______ _______ _______ _____ _____    ______ ____

>  <TORSDO>
F 6

$$$$
