=
 OpenBabel11052416353D

 43 47  0  0  1  0  0  0  0  0999 V2000
  187.5340  177.8390  147.2960 C   0  0  0  0  0  0  0  0  0  0  0  0
  184.0400  178.7630  143.7750 C   0  0  0  0  0  0  0  0  0  0  0  0
  186.0220  178.0350  142.3700 C   0  0  0  0  0  2  0  0  0  0  0  0
  185.4990  178.4460  146.1310 C   0  0  0  0  0  0  0  0  0  0  0  0
  188.1560  177.5640  146.0760 C   0  0  0  0  0  3  0  0  0  0  0  0
  188.2170  177.6780  148.4540 F   0  0  0  0  0  0  0  0  0  0  0  0
  186.1210  178.1700  144.8910 C   0  0  0  0  0  0  0  0  0  0  0  0
  186.2080  178.2800  147.3230 C   0  0  0  0  0  3  0  0  0  0  0  0
  187.4540  177.7290  144.8780 C   0  0  0  0  0  3  0  0  0  0  0  0
  185.3630  178.8100  141.2330 C   0  0  2  0  0  3  0  0  0  0  0  0
  185.3910  178.3500  143.7020 C   0  0  0  0  0  0  0  0  0  0  0  0
  183.4870  179.0470  145.0310 C   0  0  0  0  0  3  0  0  0  0  0  0
  183.2260  179.0470  142.5270 C   0  0  1  0  0  3  0  0  0  0  0  0
  183.8740  178.4940  141.2540 C   0  0  0  0  0  2  0  0  0  0  0  0
  184.2130  178.8790  146.1650 N   0  0  0  0  0  0  0  0  0  0  0  0
  185.9730  178.4060  139.8950 C   0  0  1  0  0  3  0  0  0  0  0  0
  185.4320  179.1830  138.8680 O   0  0  0  0  0  1  0  0  0  0  0  0
  187.4150  178.5950  139.9270 N   0  0  0  0  0  2  0  0  0  0  0  0
  188.0780  178.9760  137.3940 O   0  0  0  0  0  0  0  0  0  0  0  0
  188.0720  177.9260  138.4700 S   0  0  0  0  0  0  0  0  0  0  0  0
  187.2250  176.7600  138.0380 O   0  0  0  0  0  0  0  0  0  0  0  0
  189.6970  177.3850  138.7630 N   0  0  0  0  0  0  0  0  0  0  0  0
  190.2280  177.2810  140.0950 C   0  0  0  0  0  0  0  0  0  0  0  0
  191.4590  177.0690  140.2690 O   0  0  0  0  0  0  0  0  0  0  0  0
  189.3400  177.3930  141.2940 C   0  0  0  0  0  2  0  0  0  0  0  0
  190.1500  177.4190  142.5470 C   0  0  0  0  0  0  0  0  0  0  0  0
  191.2750  176.2420  144.3410 C   0  0  0  0  0  3  0  0  0  0  0  0
  191.2470  178.6630  144.3150 C   0  0  0  0  0  3  0  0  0  0  0  0
  191.6330  177.4630  144.9200 C   0  0  0  0  0  3  0  0  0  0  0  0
  190.5050  178.6410  143.1300 C   0  0  0  0  0  3  0  0  0  0  0  0
  190.5320  176.2190  143.1570 C   0  0  0  0  0  3  0  0  0  0  0  0
  190.5270  177.0200  137.6210 C   0  0  0  0  0  2  0  0  0  0  0  0
  191.2190  174.7560  137.9440 O   0  0  0  0  0  1  0  0  0  0  0  0
  190.3130  175.5610  137.2540 C   0  0  0  0  0  2  0  0  0  0  0  0
  181.8070  178.5000  142.6520 C   0  0  0  0  0  2  0  0  0  0  0  0
  180.1000  177.7630  139.3520 C   0  0  0  0  0  3  0  0  0  0  0  0
  179.6480  179.0390  138.9760 C   0  0  0  0  0  0  0  0  0  0  0  0
  180.6000  179.9570  141.0100 C   0  0  0  0  0  3  0  0  0  0  0  0
  180.7980  177.5880  140.5500 C   0  0  0  0  0  3  0  0  0  0  0  0
  181.0460  178.6830  141.3830 C   0  0  0  0  0  0  0  0  0  0  0  0
  179.9030  180.1320  139.8120 C   0  0  0  0  0  3  0  0  0  0  0  0
  179.5620  179.7750  136.6170 C   0  0  0  0  0  1  0  0  0  0  0  0
  178.9470  179.2480  137.7850 O   0  0  0  0  0  0  0  0  0  0  0  0
  1  8  1  0  0  0  0
  1  6  1  0  0  0  0
  2 12  1  0  0  0  0
  3 11  1  0  0  0  0
  4 15  1  0  0  0  0
  4  8  2  0  0  0  0
  5  1  2  0  0  0  0
  7  4  1  0  0  0  0
  9  7  2  0  0  0  0
  9  5  1  0  0  0  0
 10 16  1  6  0  0  0
 10 14  1  0  0  0  0
 10  3  1  0  0  0  0
 11  2  2  0  0  0  0
 11  7  1  0  0  0  0
 12 15  2  0  0  0  0
 13 35  1  1  0  0  0
 13  2  1  0  0  0  0
 14 13  1  0  0  0  0
 16 17  1  6  0  0  0
 16 18  1  0  0  0  0
 19 20  2  0  0  0  0
 20 22  1  0  0  0  0
 20 18  1  0  0  0  0
 21 20  2  0  0  0  0
 22 23  1  0  0  0  0
 23 24  2  0  0  0  0
 23 25  1  0  0  0  0
 25 26  1  0  0  0  0
 26 30  2  0  0  0  0
 26 31  1  0  0  0  0
 27 29  1  0  0  0  0
 28 29  2  0  0  0  0
 30 28  1  0  0  0  0
 31 27  2  0  0  0  0
 32 22  1  0  0  0  0
 34 32  1  0  0  0  0
 34 33  1  0  0  0  0
 36 39  1  0  0  0  0
 37 36  2  0  0  0  0
 37 41  1  0  0  0  0
 38 40  1  0  0  0  0
 39 40  2  0  0  0  0
 40 35  1  0  0  0  0
 41 38  2  0  0  0  0
 42 43  1  0  0  0  0
 43 37  1  0  0  0  0
M  END
>  <MODEL>
1

>  <REMARK>
 VINA RESULT:     -10.1      0.000      0.000
  Name = 
  11 active torsions:
  status: ('A' for Active; 'I' for Inactive)
    1  A    between atoms: C_1  and  C_34
    2  A    between atoms: C_1  and  C_35
    3  A    between atoms: C_2  and  N_6
    4  A    between atoms: C_2  and  C_27
    5  A    between atoms: N_4  and  S_12
    6  A    between atoms: N_4  and  C_15
    7  A    between atoms: N_6  and  S_12
    8  A    between atoms: C_11  and  C_14
    9  A    between atoms: C_14  and  C_22
   10  A    between atoms: C_15  and  C_42
   11  A    between atoms: C_19  and  O_37
                            x       y       z     vdW  Elec       q    Type
                         _______ _______ _______ _____ _____    ______ ____

>  <TORSDO>
F 11

$$$$
=
 OpenBabel11052416353D

 43 47  0  0  1  0  0  0  0  0999 V2000
  191.1470  176.6500  147.0570 C   0  0  0  0  0  0  0  0  0  0  0  0
  189.1320  177.6190  142.5330 C   0  0  0  0  0  0  0  0  0  0  0  0
  187.1720  178.0500  144.0850 C   0  0  0  0  0  2  0  0  0  0  0  0
  190.7790  176.9450  144.6810 C   0  0  0  0  0  0  0  0  0  0  0  0
  189.8210  177.0100  147.3110 C   0  0  0  0  0  3  0  0  0  0  0  0
  191.9700  176.3340  148.0850 F   0  0  0  0  0  0  0  0  0  0  0  0
  189.4360  177.3100  144.9300 C   0  0  0  0  0  0  0  0  0  0  0  0
  191.6250  176.6170  145.7440 C   0  0  0  0  0  3  0  0  0  0  0  0
  188.9680  177.3380  146.2530 C   0  0  0  0  0  3  0  0  0  0  0  0
  186.2910  177.7850  142.8680 C   0  0  2  0  0  3  0  0  0  0  0  0
  188.6000  177.6300  143.8440 C   0  0  0  0  0  0  0  0  0  0  0  0
  190.4640  177.2230  142.3480 C   0  0  0  0  0  3  0  0  0  0  0  0
  188.2630  177.8810  141.3190 C   0  0  1  0  0  3  0  0  0  0  0  0
  186.9100  178.5030  141.6770 C   0  0  0  0  0  2  0  0  0  0  0  0
  191.2490  176.9060  143.4090 N   0  0  0  0  0  0  0  0  0  0  0  0
  184.8760  178.2950  143.1190 C   0  0  1  0  0  3  0  0  0  0  0  0
  184.8550  179.1070  144.2560 O   0  0  0  0  0  1  0  0  0  0  0  0
  184.4130  179.0650  141.9750 N   0  0  0  0  0  2  0  0  0  0  0  0
  181.9380  178.4650  142.6950 O   0  0  0  0  0  0  0  0  0  0  0  0
  182.8630  178.4460  141.5100 S   0  0  0  0  0  0  0  0  0  0  0  0
  183.0250  177.0360  141.0140 O   0  0  0  0  0  0  0  0  0  0  0  0
  182.2020  179.4350  140.2430 N   0  0  0  0  0  0  0  0  0  0  0  0
  183.0170  179.9190  139.1620 C   0  0  0  0  0  0  0  0  0  0  0  0
  182.5590  180.7830  138.3650 O   0  0  0  0  0  0  0  0  0  0  0  0
  184.4020  179.3980  138.9420 C   0  0  0  0  0  2  0  0  0  0  0  0
  184.3790  178.2180  138.0280 C   0  0  0  0  0  0  0  0  0  0  0  0
  185.5590  176.4980  136.7930 C   0  0  0  0  0  3  0  0  0  0  0  0
  183.1480  176.6600  136.6380 C   0  0  0  0  0  3  0  0  0  0  0  0
  184.3450  176.0330  136.2800 C   0  0  0  0  0  3  0  0  0  0  0  0
  183.1650  177.7530  137.5100 C   0  0  0  0  0  3  0  0  0  0  0  0
  185.5770  177.5920  137.6650 C   0  0  0  0  0  3  0  0  0  0  0  0
  180.7820  179.7640  140.2840 C   0  0  0  0  0  2  0  0  0  0  0  0
  179.3740  179.3510  138.3980 O   0  0  0  0  0  1  0  0  0  0  0  0
  179.9780  178.7420  139.4980 C   0  0  0  0  0  2  0  0  0  0  0  0
  188.9770  178.7690  140.3050 C   0  0  0  0  0  2  0  0  0  0  0  0
  189.2160  176.1130  137.6150 C   0  0  0  0  0  3  0  0  0  0  0  0
  189.1870  176.8910  136.4460 C   0  0  0  0  0  0  0  0  0  0  0  0
  189.0120  178.8940  137.8030 C   0  0  0  0  0  3  0  0  0  0  0  0
  189.1420  176.7240  138.8700 C   0  0  0  0  0  3  0  0  0  0  0  0
  189.0370  178.1150  138.9660 C   0  0  0  0  0  0  0  0  0  0  0  0
  189.0860  178.2830  136.5490 C   0  0  0  0  0  3  0  0  0  0  0  0
  188.5180  175.1520  134.8190 C   0  0  0  0  0  1  0  0  0  0  0  0
  189.2590  176.3100  135.1760 O   0  0  0  0  0  0  0  0  0  0  0  0
  1  5  1  0  0  0  0
  1  6  1  0  0  0  0
  2 11  1  0  0  0  0
  4  7  1  0  0  0  0
  4  8  1  0  0  0  0
  7  9  1  0  0  0  0
  8  1  2  0  0  0  0
  9  5  2  0  0  0  0
 10 16  1  1  0  0  0
 10  3  1  0  0  0  0
 11  3  1  0  0  0  0
 11  7  2  0  0  0  0
 12  2  2  0  0  0  0
 12 15  1  0  0  0  0
 13 35  1  6  0  0  0
 13 14  1  0  0  0  0
 13  2  1  0  0  0  0
 14 10  1  0  0  0  0
 15  4  2  0  0  0  0
 16 17  1  1  0  0  0
 18 16  1  0  0  0  0
 20 18  1  0  0  0  0
 20 19  2  0  0  0  0
 21 20  2  0  0  0  0
 22 32  1  0  0  0  0
 22 20  1  0  0  0  0
 23 22  1  0  0  0  0
 24 23  2  0  0  0  0
 25 23  1  0  0  0  0
 26 25  1  0  0  0  0
 27 31  2  0  0  0  0
 28 30  1  0  0  0  0
 29 28  2  0  0  0  0
 29 27  1  0  0  0  0
 30 26  2  0  0  0  0
 31 26  1  0  0  0  0
 33 34  1  0  0  0  0
 34 32  1  0  0  0  0
 36 39  1  0  0  0  0
 37 41  1  0  0  0  0
 37 36  2  0  0  0  0
 38 40  1  0  0  0  0
 39 40  2  0  0  0  0
 40 35  1  0  0  0  0
 41 38  2  0  0  0  0
 42 43  1  0  0  0  0
 43 37  1  0  0  0  0
M  END
>  <MODEL>
2

>  <REMARK>
 VINA RESULT:      -9.0      2.904      7.621
  Name = 
  11 active torsions:
  status: ('A' for Active; 'I' for Inactive)
    1  A    between atoms: C_1  and  C_34
    2  A    between atoms: C_1  and  C_35
    3  A    between atoms: C_2  and  N_6
    4  A    between atoms: C_2  and  C_27
    5  A    between atoms: N_4  and  S_12
    6  A    between atoms: N_4  and  C_15
    7  A    between atoms: N_6  and  S_12
    8  A    between atoms: C_11  and  C_14
    9  A    between atoms: C_14  and  C_22
   10  A    between atoms: C_15  and  C_42
   11  A    between atoms: C_19  and  O_37
                            x       y       z     vdW  Elec       q    Type
                         _______ _______ _______ _____ _____    ______ ____

>  <TORSDO>
F 11

$$$$
=
 OpenBabel11052416353D

 43 47  0  0  1  0  0  0  0  0999 V2000
  187.8490  177.8910  147.9260 C   0  0  0  0  0  0  0  0  0  0  0  0
  187.5130  177.9460  142.8920 C   0  0  0  0  0  0  0  0  0  0  0  0
  185.1420  178.5250  143.5830 C   0  0  0  0  0  2  0  0  0  0  0  0
  188.3200  177.7480  145.5550 C   0  0  0  0  0  0  0  0  0  0  0  0
  186.5190  178.2130  147.6470 C   0  0  0  0  0  3  0  0  0  0  0  0
  188.2680  177.8050  149.2110 F   0  0  0  0  0  0  0  0  0  0  0  0
  186.9750  178.0730  145.2630 C   0  0  0  0  0  0  0  0  0  0  0  0
  188.7480  177.6590  146.8810 C   0  0  0  0  0  3  0  0  0  0  0  0
  186.0820  178.3030  146.3220 C   0  0  0  0  0  3  0  0  0  0  0  0
  184.7300  178.0040  142.2100 C   0  0  2  0  0  3  0  0  0  0  0  0
  186.5630  178.1520  143.9200 C   0  0  0  0  0  0  0  0  0  0  0  0
  188.8250  177.6000  143.2430 C   0  0  0  0  0  3  0  0  0  0  0  0
  187.1130  177.9430  141.4290 C   0  0  1  0  0  3  0  0  0  0  0  0
  185.7230  178.5390  141.1890 C   0  0  0  0  0  2  0  0  0  0  0  0
  189.1970  177.5170  144.5460 N   0  0  0  0  0  0  0  0  0  0  0  0
  183.3170  178.4680  141.8710 C   0  0  1  0  0  3  0  0  0  0  0  0
  182.8290  179.2950  142.8850 O   0  0  0  0  0  1  0  0  0  0  0  0
  183.3220  179.2040  140.6160 N   0  0  0  0  0  2  0  0  0  0  0  0
  181.6750  177.2030  140.0850 O   0  0  0  0  0  0  0  0  0  0  0  0
  182.0310  178.5920  139.6360 S   0  0  0  0  0  0  0  0  0  0  0  0
  182.4750  178.5640  138.1990 O   0  0  0  0  0  0  0  0  0  0  0  0
  180.6440  179.6270  139.7940 N   0  0  0  0  0  0  0  0  0  0  0  0
  180.6680  180.9930  139.3470 C   0  0  0  0  0  0  0  0  0  0  0  0
  179.7200  181.7700  139.6420 O   0  0  0  0  0  0  0  0  0  0  0  0
  181.7910  181.5140  138.5070 C   0  0  0  0  0  2  0  0  0  0  0  0
  181.2680  182.3780  137.4080 C   0  0  0  0  0  0  0  0  0  0  0  0
  180.1180  182.6080  135.2880 C   0  0  0  0  0  3  0  0  0  0  0  0
  181.0040  184.5670  136.4020 C   0  0  0  0  0  3  0  0  0  0  0  0
  180.3240  183.9900  135.3250 C   0  0  0  0  0  3  0  0  0  0  0  0
  181.4770  183.7610  137.4420 C   0  0  0  0  0  3  0  0  0  0  0  0
  180.5920  181.8020  136.3270 C   0  0  0  0  0  3  0  0  0  0  0  0
  179.4290  179.0790  140.3860 C   0  0  0  0  0  2  0  0  0  0  0  0
  179.4030  177.9000  142.4640 O   0  0  0  0  0  1  0  0  0  0  0  0
  179.4890  179.1730  141.9020 C   0  0  0  0  0  2  0  0  0  0  0  0
  188.1370  178.6810  140.5720 C   0  0  0  0  0  2  0  0  0  0  0  0
  188.6010  176.5100  137.5020 C   0  0  0  0  0  3  0  0  0  0  0  0
  189.9040  176.0230  137.6950 C   0  0  0  0  0  0  0  0  0  0  0  0
  190.0520  177.2830  139.7630 C   0  0  0  0  0  3  0  0  0  0  0  0
  188.0290  177.3800  138.4350 C   0  0  0  0  0  3  0  0  0  0  0  0
  188.7540  177.7690  139.5660 C   0  0  0  0  0  0  0  0  0  0  0  0
  190.6230  176.4140  138.8300 C   0  0  0  0  0  3  0  0  0  0  0  0
  191.4340  174.1510  137.1720 C   0  0  0  0  0  1  0  0  0  0  0  0
  190.5050  175.1530  136.7800 O   0  0  0  0  0  0  0  0  0  0  0  0
  1  6  1  0  0  0  0
  2 12  2  0  0  0  0
  2 11  1  0  0  0  0
  3 11  1  0  0  0  0
  4  8  1  0  0  0  0
  5  1  1  0  0  0  0
  7  4  1  0  0  0  0
  7  9  1  0  0  0  0
  8  1  2  0  0  0  0
  9  5  2  0  0  0  0
 10 16  1  6  0  0  0
 10  3  1  0  0  0  0
 11  7  2  0  0  0  0
 12 15  1  0  0  0  0
 13 35  1  6  0  0  0
 13  2  1  0  0  0  0
 14 13  1  0  0  0  0
 14 10  1  0  0  0  0
 15  4  2  0  0  0  0
 16 17  1  1  0  0  0
 18 16  1  0  0  0  0
 20 22  1  0  0  0  0
 20 19  2  0  0  0  0
 20 18  1  0  0  0  0
 21 20  2  0  0  0  0
 22 32  1  0  0  0  0
 23 24  2  0  0  0  0
 23 22  1  0  0  0  0
 25 23  1  0  0  0  0
 26 30  1  0  0  0  0
 26 25  1  0  0  0  0
 27 29  2  0  0  0  0
 27 31  1  0  0  0  0
 28 30  2  0  0  0  0
 29 28  1  0  0  0  0
 31 26  2  0  0  0  0
 32 34  1  0  0  0  0
 34 33  1  0  0  0  0
 36 37  2  0  0  0  0
 36 39  1  0  0  0  0
 37 41  1  0  0  0  0
 39 40  2  0  0  0  0
 40 38  1  0  0  0  0
 40 35  1  0  0  0  0
 41 38  2  0  0  0  0
 43 42  1  0  0  0  0
 43 37  1  0  0  0  0
M  END
>  <MODEL>
3

>  <REMARK>
 VINA RESULT:      -8.9      2.876      8.706
  Name = 
  11 active torsions:
  status: ('A' for Active; 'I' for Inactive)
    1  A    between atoms: C_1  and  C_34
    2  A    between atoms: C_1  and  C_35
    3  A    between atoms: C_2  and  N_6
    4  A    between atoms: C_2  and  C_27
    5  A    between atoms: N_4  and  S_12
    6  A    between atoms: N_4  and  C_15
    7  A    between atoms: N_6  and  S_12
    8  A    between atoms: C_11  and  C_14
    9  A    between atoms: C_14  and  C_22
   10  A    between atoms: C_15  and  C_42
   11  A    between atoms: C_19  and  O_37
                            x       y       z     vdW  Elec       q    Type
                         _______ _______ _______ _____ _____    ______ ____

>  <TORSDO>
F 11

$$$$
=
 OpenBabel11052416353D

 43 47  0  0  1  0  0  0  0  0999 V2000
  182.1410  178.8590  143.2880 C   0  0  0  0  0  0  0  0  0  0  0  0
  187.1430  178.2070  143.4230 C   0  0  0  0  0  0  0  0  0  0  0  0
  186.7160  178.4890  140.9390 C   0  0  0  0  0  2  0  0  0  0  0  0
  184.4270  178.4870  143.9960 C   0  0  0  0  0  0  0  0  0  0  0  0
  182.5600  178.9280  141.9570 C   0  0  0  0  0  3  0  0  0  0  0  0
  180.8300  179.0080  143.5930 F   0  0  0  0  0  0  0  0  0  0  0  0
  184.8590  178.5540  142.6510 C   0  0  0  0  0  0  0  0  0  0  0  0
  183.0730  178.6390  144.3060 C   0  0  0  0  0  3  0  0  0  0  0  0
  183.9120  178.7750  141.6390 C   0  0  0  0  0  3  0  0  0  0  0  0
  188.0270  177.7350  140.7390 C   0  0  2  0  0  3  0  0  0  0  0  0
  186.2260  178.3920  142.3610 C   0  0  0  0  0  0  0  0  0  0  0  0
  186.6510  178.1220  144.7330 C   0  0  0  0  0  3  0  0  0  0  0  0
  188.6150  177.9520  143.1680 C   0  0  1  0  0  3  0  0  0  0  0  0
  189.0380  178.2850  141.7340 C   0  0  0  0  0  2  0  0  0  0  0  0
  185.3260  178.2690  144.9890 N   0  0  0  0  0  0  0  0  0  0  0  0
  188.5310  177.9220  139.3110 C   0  0  1  0  0  3  0  0  0  0  0  0
  189.9170  177.7520  139.2670 O   0  0  0  0  0  1  0  0  0  0  0  0
  187.9040  176.9490  138.4300 N   0  0  0  0  0  2  0  0  0  0  0  0
  188.9270  177.5080  136.0540 O   0  0  0  0  0  0  0  0  0  0  0  0
  187.6860  177.6970  136.8820 S   0  0  0  0  0  0  0  0  0  0  0  0
  187.4240  179.1650  137.0770 O   0  0  0  0  0  0  0  0  0  0  0  0
  186.3320  176.9680  136.0730 N   0  0  0  0  0  0  0  0  0  0  0  0
  185.0210  176.9510  136.6620 C   0  0  0  0  0  0  0  0  0  0  0  0
  184.1050  176.2570  136.1450 O   0  0  0  0  0  0  0  0  0  0  0  0
  184.7070  177.7710  137.8740 C   0  0  0  0  0  2  0  0  0  0  0  0
  183.3300  177.4730  138.3660 C   0  0  0  0  0  0  0  0  0  0  0  0
  181.0050  178.1130  138.6090 C   0  0  0  0  0  3  0  0  0  0  0  0
  181.7920  176.0310  139.5630 C   0  0  0  0  0  3  0  0  0  0  0  0
  180.7560  176.9380  139.3240 C   0  0  0  0  0  3  0  0  0  0  0  0
  183.0790  176.2990  139.0860 C   0  0  0  0  0  3  0  0  0  0  0  0
  182.2920  178.3820  138.1320 C   0  0  0  0  0  3  0  0  0  0  0  0
  186.5440  176.3710  134.7590 C   0  0  0  0  0  2  0  0  0  0  0  0
  186.0800  174.0280  134.7070 O   0  0  0  0  0  1  0  0  0  0  0  0
  187.0970  174.9620  134.8980 C   0  0  0  0  0  2  0  0  0  0  0  0
  189.4920  178.7260  144.1480 C   0  0  0  0  0  2  0  0  0  0  0  0
  190.2760  176.8400  147.3380 C   0  0  0  0  0  3  0  0  0  0  0  0
  191.4140  176.1080  146.9610 C   0  0  0  0  0  0  0  0  0  0  0  0
  191.2860  177.0820  144.7430 C   0  0  0  0  0  3  0  0  0  0  0  0
  189.6480  177.6880  146.4210 C   0  0  0  0  0  3  0  0  0  0  0  0
  190.1500  177.8080  145.1210 C   0  0  0  0  0  0  0  0  0  0  0  0
  191.9130  176.2350  145.6600 C   0  0  0  0  0  3  0  0  0  0  0  0
  193.0940  175.6940  148.7280 C   0  0  0  0  0  1  0  0  0  0  0  0
  192.0650  175.2520  147.8550 O   0  0  0  0  0  0  0  0  0  0  0  0
  1  6  1  0  0  0  0
  1  8  1  0  0  0  0
  2 12  1  0  0  0  0
  3 11  1  0  0  0  0
  4  8  2  0  0  0  0
  4 15  1  0  0  0  0
  5  1  2  0  0  0  0
  7  4  1  0  0  0  0
  9  5  1  0  0  0  0
  9  7  2  0  0  0  0
 10 16  1  6  0  0  0
 10  3  1  0  0  0  0
 10 14  1  0  0  0  0
 11  7  1  0  0  0  0
 11  2  2  0  0  0  0
 12 15  2  0  0  0  0
 13  2  1  0  0  0  0
 13 35  1  1  0  0  0
 14 13  1  0  0  0  0
 16 17  1  1  0  0  0
 18 16  1  0  0  0  0
 19 20  2  0  0  0  0
 20 21  2  0  0  0  0
 20 18  1  0  0  0  0
 22 23  1  0  0  0  0
 22 20  1  0  0  0  0
 23 25  1  0  0  0  0
 24 23  2  0  0  0  0
 25 26  1  0  0  0  0
 26 30  1  0  0  0  0
 27 29  2  0  0  0  0
 29 28  1  0  0  0  0
 30 28  2  0  0  0  0
 31 26  2  0  0  0  0
 31 27  1  0  0  0  0
 32 34  1  0  0  0  0
 32 22  1  0  0  0  0
 33 34  1  0  0  0  0
 35 40  1  0  0  0  0
 37 36  1  0  0  0  0
 37 43  1  0  0  0  0
 38 40  2  0  0  0  0
 38 41  1  0  0  0  0
 39 36  2  0  0  0  0
 40 39  1  0  0  0  0
 41 37  2  0  0  0  0
 43 42  1  0  0  0  0
M  END
>  <MODEL>
4

>  <REMARK>
 VINA RESULT:      -8.8      2.899      8.188
  Name = 
  11 active torsions:
  status: ('A' for Active; 'I' for Inactive)
    1  A    between atoms: C_1  and  C_34
    2  A    between atoms: C_1  and  C_35
    3  A    between atoms: C_2  and  N_6
    4  A    between atoms: C_2  and  C_27
    5  A    between atoms: N_4  and  S_12
    6  A    between atoms: N_4  and  C_15
    7  A    between atoms: N_6  and  S_12
    8  A    between atoms: C_11  and  C_14
    9  A    between atoms: C_14  and  C_22
   10  A    between atoms: C_15  and  C_42
   11  A    between atoms: C_19  and  O_37
                            x       y       z     vdW  Elec       q    Type
                         _______ _______ _______ _____ _____    ______ ____

>  <TORSDO>
F 11

$$$$
=
 OpenBabel11052416353D

 43 47  0  0  1  0  0  0  0  0999 V2000
  194.7860  173.6330  136.7500 C   0  0  0  0  0  0  0  0  0  0  0  0
  189.9210  174.8930  137.2110 C   0  0  0  0  0  0  0  0  0  0  0  0
  191.0520  176.6080  138.6980 C   0  0  0  0  0  2  0  0  0  0  0  0
  192.3720  173.7220  136.5730 C   0  0  0  0  0  0  0  0  0  0  0  0
  194.7670  174.7280  137.6170 C   0  0  0  0  0  3  0  0  0  0  0  0
  195.9640  173.0580  136.4130 F   0  0  0  0  0  0  0  0  0  0  0  0
  192.3440  174.8310  137.4500 C   0  0  0  0  0  0  0  0  0  0  0  0
  193.5900  173.1310  136.2290 C   0  0  0  0  0  3  0  0  0  0  0  0
  193.5530  175.3250  137.9670 C   0  0  0  0  0  3  0  0  0  0  0  0
  189.7050  176.7230  139.4050 C   0  0  2  0  0  3  0  0  0  0  0  0
  191.1060  175.4080  137.7880 C   0  0  0  0  0  0  0  0  0  0  0  0
  190.0110  173.7750  136.3700 C   0  0  0  0  0  3  0  0  0  0  0  0
  188.5530  175.4220  137.5950 C   0  0  1  0  0  3  0  0  0  0  0  0
  188.6190  176.7590  138.3390 C   0  0  0  0  0  2  0  0  0  0  0  0
  191.2150  173.2260  136.0670 N   0  0  0  0  0  0  0  0  0  0  0  0
  189.6600  177.9900  140.2530 C   0  0  1  0  0  3  0  0  0  0  0  0
  188.9130  178.9750  139.6020 O   0  0  0  0  0  1  0  0  0  0  0  0
  189.0500  177.7050  141.5430 N   0  0  0  0  0  2  0  0  0  0  0  0
  191.6220  177.4640  142.1140 O   0  0  0  0  0  0  0  0  0  0  0  0
  190.2630  177.0030  142.5610 S   0  0  0  0  0  0  0  0  0  0  0  0
  190.1780  175.5050  142.4670 O   0  0  0  0  0  0  0  0  0  0  0  0
  189.9950  177.4980  144.2050 N   0  0  0  0  0  0  0  0  0  0  0  0
  188.6820  177.4900  144.7900 C   0  0  0  0  0  0  0  0  0  0  0  0
  188.4890  178.0280  145.9140 O   0  0  0  0  0  0  0  0  0  0  0  0
  187.5310  176.8280  144.1010 C   0  0  0  0  0  2  0  0  0  0  0  0
  186.3390  177.7250  144.0900 C   0  0  0  0  0  0  0  0  0  0  0  0
  184.6100  178.9320  145.2850 C   0  0  0  0  0  3  0  0  0  0  0  0
  184.6730  178.9910  142.8650 C   0  0  0  0  0  3  0  0  0  0  0  0
  184.0770  179.3740  144.0710 C   0  0  0  0  0  3  0  0  0  0  0  0
  185.8010  178.1660  142.8750 C   0  0  0  0  0  3  0  0  0  0  0  0
  185.7390  178.1060  145.2950 C   0  0  0  0  0  3  0  0  0  0  0  0
  191.1420  177.9180  145.0030 C   0  0  0  0  0  2  0  0  0  0  0  0
  191.7570  177.1000  147.1620 O   0  0  0  0  0  1  0  0  0  0  0  0
  191.6790  176.7500  145.8140 C   0  0  0  0  0  2  0  0  0  0  0  0
  187.6500  175.5660  136.3740 C   0  0  0  0  0  2  0  0  0  0  0  0
  185.0450  173.0190  137.4110 C   0  0  0  0  0  3  0  0  0  0  0  0
  183.8590  173.6370  136.9830 C   0  0  0  0  0  0  0  0  0  0  0  0
  185.1540  175.5190  136.1660 C   0  0  0  0  0  3  0  0  0  0  0  0
  186.2780  173.6490  137.2180 C   0  0  0  0  0  3  0  0  0  0  0  0
  186.3340  174.9020  136.5970 C   0  0  0  0  0  0  0  0  0  0  0  0
  183.9220  174.8880  136.3600 C   0  0  0  0  0  3  0  0  0  0  0  0
  182.3810  171.6560  136.8990 C   0  0  0  0  0  1  0  0  0  0  0  0
  182.6110  173.0330  137.1620 O   0  0  0  0  0  0  0  0  0  0  0  0
  1  5  1  0  0  0  0
  2 13  1  0  0  0  0
  2 11  1  0  0  0  0
  3 10  1  0  0  0  0
  4  7  1  0  0  0  0
  5  9  2  0  0  0  0
  6  1  1  0  0  0  0
  7 11  2  0  0  0  0
  7  9  1  0  0  0  0
  8  4  1  0  0  0  0
  8  1  2  0  0  0  0
 10 16  1  6  0  0  0
 11  3  1  0  0  0  0
 12  2  2  0  0  0  0
 13 35  1  6  0  0  0
 13 14  1  0  0  0  0
 14 10  1  0  0  0  0
 15 12  1  0  0  0  0
 15  4  2  0  0  0  0
 16 17  1  6  0  0  0
 16 18  1  0  0  0  0
 18 20  1  0  0  0  0
 19 20  2  0  0  0  0
 20 22  1  0  0  0  0
 21 20  2  0  0  0  0
 22 23  1  0  0  0  0
 22 32  1  0  0  0  0
 23 24  2  0  0  0  0
 25 23  1  0  0  0  0
 26 25  1  0  0  0  0
 26 31  1  0  0  0  0
 27 31  2  0  0  0  0
 28 30  1  0  0  0  0
 28 29  2  0  0  0  0
 29 27  1  0  0  0  0
 30 26  2  0  0  0  0
 32 34  1  0  0  0  0
 34 33  1  0  0  0  0
 35 40  1  0  0  0  0
 37 43  1  0  0  0  0
 37 36  2  0  0  0  0
 38 41  2  0  0  0  0
 38 40  1  0  0  0  0
 39 36  1  0  0  0  0
 40 39  2  0  0  0  0
 41 37  1  0  0  0  0
 42 43  1  0  0  0  0
M  END
>  <MODEL>
5

>  <REMARK>
 VINA RESULT:      -8.5      4.254      8.339
  Name = 
  11 active torsions:
  status: ('A' for Active; 'I' for Inactive)
    1  A    between atoms: C_1  and  C_34
    2  A    between atoms: C_1  and  C_35
    3  A    between atoms: C_2  and  N_6
    4  A    between atoms: C_2  and  C_27
    5  A    between atoms: N_4  and  S_12
    6  A    between atoms: N_4  and  C_15
    7  A    between atoms: N_6  and  S_12
    8  A    between atoms: C_11  and  C_14
    9  A    between atoms: C_14  and  C_22
   10  A    between atoms: C_15  and  C_42
   11  A    between atoms: C_19  and  O_37
                            x       y       z     vdW  Elec       q    Type
                         _______ _______ _______ _____ _____    ______ ____

>  <TORSDO>
F 11

$$$$
=
 OpenBabel11052416353D

 43 47  0  0  1  0  0  0  0  0999 V2000
  188.0450  177.5210  147.5250 C   0  0  0  0  0  0  0  0  0  0  0  0
  188.1500  177.8240  142.4890 C   0  0  0  0  0  0  0  0  0  0  0  0
  185.7770  178.5520  143.0100 C   0  0  0  0  0  2  0  0  0  0  0  0
  188.7070  177.4480  145.1970 C   0  0  0  0  0  0  0  0  0  0  0  0
  186.7700  177.9560  147.1530 C   0  0  0  0  0  3  0  0  0  0  0  0
  188.3440  177.3460  148.8340 F   0  0  0  0  0  0  0  0  0  0  0  0
  187.4190  177.8870  144.8110 C   0  0  0  0  0  0  0  0  0  0  0  0
  189.0120  177.2670  146.5480 C   0  0  0  0  0  3  0  0  0  0  0  0
  186.4570  178.1370  145.8030 C   0  0  0  0  0  3  0  0  0  0  0  0
  185.4480  178.1240  141.5830 C   0  0  2  0  0  3  0  0  0  0  0  0
  187.1330  178.0560  143.4450 C   0  0  0  0  0  0  0  0  0  0  0  0
  189.3980  177.3640  142.9300 C   0  0  0  0  0  3  0  0  0  0  0  0
  187.8800  177.9160  141.0000 C   0  0  1  0  0  3  0  0  0  0  0  0
  186.5630  178.6270  140.6770 C   0  0  0  0  0  2  0  0  0  0  0  0
  189.6500  177.1950  144.2540 N   0  0  0  0  0  0  0  0  0  0  0  0
  184.1080  178.7090  141.1520 C   0  0  1  0  0  3  0  0  0  0  0  0
  184.3100  179.7580  140.2510 O   0  0  0  0  0  1  0  0  0  0  0  0
  183.2980  177.6830  140.5140 N   0  0  0  0  0  2  0  0  0  0  0  0
  181.4530  179.2770  141.5420 O   0  0  0  0  0  0  0  0  0  0  0  0
  181.6620  178.2520  140.4620 S   0  0  0  0  0  0  0  0  0  0  0  0
  180.7300  177.0920  140.6740 O   0  0  0  0  0  0  0  0  0  0  0  0
  181.3490  178.9720  138.9110 N   0  0  0  0  0  0  0  0  0  0  0  0
  181.7130  178.3120  137.6870 C   0  0  0  0  0  0  0  0  0  0  0  0
  181.6470  178.9330  136.5920 O   0  0  0  0  0  0  0  0  0  0  0  0
  182.1480  176.8800  137.6780 C   0  0  0  0  0  2  0  0  0  0  0  0
  183.4840  176.7410  137.0270 C   0  0  0  0  0  0  0  0  0  0  0  0
  185.8810  177.0930  137.0620 C   0  0  0  0  0  3  0  0  0  0  0  0
  184.8380  176.0610  135.1350 C   0  0  0  0  0  3  0  0  0  0  0  0
  185.9840  176.5210  135.7910 C   0  0  0  0  0  3  0  0  0  0  0  0
  183.5890  176.1730  135.7520 C   0  0  0  0  0  3  0  0  0  0  0  0
  184.6310  177.2060  137.6790 C   0  0  0  0  0  3  0  0  0  0  0  0
  180.6900  180.2720  138.8660 C   0  0  0  0  0  2  0  0  0  0  0  0
  181.0380  182.4910  138.0520 O   0  0  0  0  0  1  0  0  0  0  0  0
  181.6960  181.3660  138.5490 C   0  0  0  0  0  2  0  0  0  0  0  0
  189.0240  178.6120  140.2690 C   0  0  0  0  0  2  0  0  0  0  0  0
  189.7870  176.1630  137.4820 C   0  0  0  0  0  3  0  0  0  0  0  0
  189.6250  176.9700  136.3440 C   0  0  0  0  0  0  0  0  0  0  0  0
  189.0610  178.8460  137.7750 C   0  0  0  0  0  3  0  0  0  0  0  0
  189.5860  176.6970  138.7580 C   0  0  0  0  0  3  0  0  0  0  0  0
  189.2200  178.0380  138.9070 C   0  0  0  0  0  0  0  0  0  0  0  0
  189.2620  178.3130  136.5000 C   0  0  0  0  0  3  0  0  0  0  0  0
  190.1180  175.1020  134.8000 C   0  0  0  0  0  1  0  0  0  0  0  0
  189.8180  176.4680  135.0540 O   0  0  0  0  0  0  0  0  0  0  0  0
  1  6  1  0  0  0  0
  2 12  2  0  0  0  0
  2 11  1  0  0  0  0
  3 11  1  0  0  0  0
  4  8  1  0  0  0  0
  5  1  1  0  0  0  0
  7  4  1  0  0  0  0
  7  9  1  0  0  0  0
  8  1  2  0  0  0  0
  9  5  2  0  0  0  0
 10 16  1  6  0  0  0
 10  3  1  0  0  0  0
 11  7  2  0  0  0  0
 12 15  1  0  0  0  0
 13 35  1  6  0  0  0
 13  2  1  0  0  0  0
 14 13  1  0  0  0  0
 14 10  1  0  0  0  0
 15  4  2  0  0  0  0
 16 17  1  6  0  0  0
 18 16  1  0  0  0  0
 20 18  1  0  0  0  0
 20 21  2  0  0  0  0
 20 19  2  0  0  0  0
 22 20  1  0  0  0  0
 23 22  1  0  0  0  0
 24 23  2  0  0  0  0
 25 23  1  0  0  0  0
 26 25  1  0  0  0  0
 26 31  1  0  0  0  0
 27 31  2  0  0  0  0
 28 30  1  0  0  0  0
 28 29  2  0  0  0  0
 29 27  1  0  0  0  0
 30 26  2  0  0  0  0
 32 22  1  0  0  0  0
 33 34  1  0  0  0  0
 34 32  1  0  0  0  0
 36 39  1  0  0  0  0
 37 41  1  0  0  0  0
 37 36  2  0  0  0  0
 38 40  1  0  0  0  0
 39 40  2  0  0  0  0
 40 35  1  0  0  0  0
 41 38  2  0  0  0  0
 42 43  1  0  0  0  0
 43 37  1  0  0  0  0
M  END
>  <MODEL>
6

>  <REMARK>
 VINA RESULT:      -8.5      2.974      7.651
  Name = 
  11 active torsions:
  status: ('A' for Active; 'I' for Inactive)
    1  A    between atoms: C_1  and  C_34
    2  A    between atoms: C_1  and  C_35
    3  A    between atoms: C_2  and  N_6
    4  A    between atoms: C_2  and  C_27
    5  A    between atoms: N_4  and  S_12
    6  A    between atoms: N_4  and  C_15
    7  A    between atoms: N_6  and  S_12
    8  A    between atoms: C_11  and  C_14
    9  A    between atoms: C_14  and  C_22
   10  A    between atoms: C_15  and  C_42
   11  A    between atoms: C_19  and  O_37
                            x       y       z     vdW  Elec       q    Type
                         _______ _______ _______ _____ _____    ______ ____

>  <TORSDO>
F 11

$$$$
=
 OpenBabel11052416353D

 43 47  0  0  1  0  0  0  0  0999 V2000
  188.1040  177.5700  147.5420 C   0  0  0  0  0  0  0  0  0  0  0  0
  188.0700  177.8800  142.5060 C   0  0  0  0  0  0  0  0  0  0  0  0
  185.6540  178.3950  143.0810 C   0  0  0  0  0  2  0  0  0  0  0  0
  188.7190  177.5550  145.2000 C   0  0  0  0  0  0  0  0  0  0  0  0
  186.7890  177.8910  147.2000 C   0  0  0  0  0  3  0  0  0  0  0  0
  188.4470  177.4230  148.8440 F   0  0  0  0  0  0  0  0  0  0  0  0
  187.3890  177.8790  144.8440 C   0  0  0  0  0  0  0  0  0  0  0  0
  189.0680  177.4020  146.5440 C   0  0  0  0  0  3  0  0  0  0  0  0
  186.4310  178.0440  145.8570 C   0  0  0  0  0  3  0  0  0  0  0  0
  185.3330  177.9400  141.6610 C   0  0  2  0  0  3  0  0  0  0  0  0
  187.0580  178.0220  143.4840 C   0  0  0  0  0  0  0  0  0  0  0  0
  189.3640  177.5320  142.9190 C   0  0  0  0  0  3  0  0  0  0  0  0
  187.7600  177.9470  141.0230 C   0  0  1  0  0  3  0  0  0  0  0  0
  186.3780  178.5390  140.7310 C   0  0  0  0  0  2  0  0  0  0  0  0
  189.6590  177.3860  144.2360 N   0  0  0  0  0  0  0  0  0  0  0  0
  183.9370  178.4050  141.2600 C   0  0  1  0  0  3  0  0  0  0  0  0
  183.2970  178.9950  142.3530 O   0  0  0  0  0  1  0  0  0  0  0  0
  184.0240  179.3750  140.1790 N   0  0  0  0  0  2  0  0  0  0  0  0
  182.4930  180.4940  138.3340 O   0  0  0  0  0  0  0  0  0  0  0  0
  182.5030  179.3850  139.3490 S   0  0  0  0  0  0  0  0  0  0  0  0
  181.3990  179.5990  140.3480 O   0  0  0  0  0  0  0  0  0  0  0  0
  182.2730  177.8610  138.5470 N   0  0  0  0  0  0  0  0  0  0  0  0
  183.2780  177.3040  137.6830 C   0  0  0  0  0  0  0  0  0  0  0  0
  183.0120  176.2990  136.9710 O   0  0  0  0  0  0  0  0  0  0  0  0
  184.6580  177.8800  137.6300 C   0  0  0  0  0  2  0  0  0  0  0  0
  185.5440  177.0410  136.7710 C   0  0  0  0  0  0  0  0  0  0  0  0
  187.0910  175.1910  136.5290 C   0  0  0  0  0  3  0  0  0  0  0  0
  186.5430  176.5670  134.6130 C   0  0  0  0  0  3  0  0  0  0  0  0
  187.2390  175.4910  135.1720 C   0  0  0  0  0  3  0  0  0  0  0  0
  185.6980  177.3420  135.4130 C   0  0  0  0  0  3  0  0  0  0  0  0
  186.2450  175.9660  137.3290 C   0  0  0  0  0  3  0  0  0  0  0  0
  181.0280  177.1350  138.7720 C   0  0  0  0  0  2  0  0  0  0  0  0
  180.7630  174.8260  139.3230 O   0  0  0  0  0  1  0  0  0  0  0  0
  181.2310  176.0450  139.8120 C   0  0  0  0  0  2  0  0  0  0  0  0
  188.8220  178.7410  140.2690 C   0  0  0  0  0  2  0  0  0  0  0  0
  189.7060  177.6580  136.7480 C   0  0  0  0  0  3  0  0  0  0  0  0
  190.3790  176.4480  136.9850 C   0  0  0  0  0  0  0  0  0  0  0  0
  190.0390  176.7450  139.3690 C   0  0  0  0  0  3  0  0  0  0  0  0
  189.2050  178.4070  137.8170 C   0  0  0  0  0  3  0  0  0  0  0  0
  189.3730  177.9530  139.1290 C   0  0  0  0  0  0  0  0  0  0  0  0
  190.5400  175.9970  138.3000 C   0  0  0  0  0  3  0  0  0  0  0  0
  191.0560  174.2680  136.0330 C   0  0  0  0  0  1  0  0  0  0  0  0
  190.8920  175.6760  135.9380 O   0  0  0  0  0  0  0  0  0  0  0  0
  1  6  1  0  0  0  0
  2 12  2  0  0  0  0
  2 11  1  0  0  0  0
  3 11  1  0  0  0  0
  4  8  1  0  0  0  0
  5  1  1  0  0  0  0
  7  4  1  0  0  0  0
  7  9  1  0  0  0  0
  8  1  2  0  0  0  0
  9  5  2  0  0  0  0
 10 16  1  6  0  0  0
 10  3  1  0  0  0  0
 11  7  2  0  0  0  0
 12 15  1  0  0  0  0
 13 35  1  6  0  0  0
 13  2  1  0  0  0  0
 14 13  1  0  0  0  0
 14 10  1  0  0  0  0
 15  4  2  0  0  0  0
 16 17  1  1  0  0  0
 18 16  1  0  0  0  0
 19 20  2  0  0  0  0
 20 18  1  0  0  0  0
 20 21  2  0  0  0  0
 22 32  1  0  0  0  0
 22 20  1  0  0  0  0
 23 22  1  0  0  0  0
 24 23  2  0  0  0  0
 25 23  1  0  0  0  0
 26 31  1  0  0  0  0
 26 25  1  0  0  0  0
 27 31  2  0  0  0  0
 28 29  2  0  0  0  0
 28 30  1  0  0  0  0
 29 27  1  0  0  0  0
 30 26  2  0  0  0  0
 32 34  1  0  0  0  0
 33 34  1  0  0  0  0
 36 37  2  0  0  0  0
 36 39  1  0  0  0  0
 37 41  1  0  0  0  0
 39 40  2  0  0  0  0
 40 38  1  0  0  0  0
 40 35  1  0  0  0  0
 41 38  2  0  0  0  0
 43 42  1  0  0  0  0
 43 37  1  0  0  0  0
M  END
>  <MODEL>
7

>  <REMARK>
 VINA RESULT:      -8.5      2.808      7.362
  Name = 
  11 active torsions:
  status: ('A' for Active; 'I' for Inactive)
    1  A    between atoms: C_1  and  C_34
    2  A    between atoms: C_1  and  C_35
    3  A    between atoms: C_2  and  N_6
    4  A    between atoms: C_2  and  C_27
    5  A    between atoms: N_4  and  S_12
    6  A    between atoms: N_4  and  C_15
    7  A    between atoms: N_6  and  S_12
    8  A    between atoms: C_11  and  C_14
    9  A    between atoms: C_14  and  C_22
   10  A    between atoms: C_15  and  C_42
   11  A    between atoms: C_19  and  O_37
                            x       y       z     vdW  Elec       q    Type
                         _______ _______ _______ _____ _____    ______ ____

>  <TORSDO>
F 11

$$$$
=
 OpenBabel11052416353D

 43 47  0  0  1  0  0  0  0  0999 V2000
  184.5720  177.1130  135.5140 C   0  0  0  0  0  0  0  0  0  0  0  0
  189.2790  176.2860  137.1340 C   0  0  0  0  0  0  0  0  0  0  0  0
  188.1620  177.2140  139.2140 C   0  0  0  0  0  2  0  0  0  0  0  0
  186.9160  176.5240  135.6700 C   0  0  0  0  0  0  0  0  0  0  0  0
  184.5780  177.5090  136.8540 C   0  0  0  0  0  3  0  0  0  0  0  0
  183.4330  177.2040  134.7870 F   0  0  0  0  0  0  0  0  0  0  0  0
  186.9310  176.9230  137.0270 C   0  0  0  0  0  0  0  0  0  0  0  0
  185.7400  176.6220  134.9230 C   0  0  0  0  0  3  0  0  0  0  0  0
  185.7510  177.4160  137.6070 C   0  0  0  0  0  3  0  0  0  0  0  0
  189.5680  177.6010  139.6630 C   0  0  2  0  0  3  0  0  0  0  0  0
  188.1280  176.8220  137.7580 C   0  0  0  0  0  0  0  0  0  0  0  0
  189.2090  175.9330  135.7790 C   0  0  0  0  0  3  0  0  0  0  0  0
  190.6160  176.2230  137.8470 C   0  0  1  0  0  3  0  0  0  0  0  0
  190.4940  176.4330  139.3590 C   0  0  0  0  0  2  0  0  0  0  0  0
  188.0470  176.0500  135.0880 N   0  0  0  0  0  0  0  0  0  0  0  0
  189.5780  177.9130  141.1560 C   0  0  1  0  0  3  0  0  0  0  0  0
  188.7160  178.9780  141.4280 O   0  0  0  0  0  1  0  0  0  0  0  0
  189.1480  176.7460  141.9120 N   0  0  0  0  0  2  0  0  0  0  0  0
  191.7310  176.7930  142.4810 O   0  0  0  0  0  0  0  0  0  0  0  0
  190.4070  176.3450  143.0330 S   0  0  0  0  0  0  0  0  0  0  0  0
  190.4210  174.8560  143.2440 O   0  0  0  0  0  0  0  0  0  0  0  0
  190.1090  177.1430  144.5470 N   0  0  0  0  0  0  0  0  0  0  0  0
  188.7740  177.3770  145.0260 C   0  0  0  0  0  0  0  0  0  0  0  0
  188.5830  178.1190  146.0270 O   0  0  0  0  0  0  0  0  0  0  0  0
  187.5920  176.7320  144.3730 C   0  0  0  0  0  2  0  0  0  0  0  0
  186.4150  177.6480  144.3960 C   0  0  0  0  0  0  0  0  0  0  0  0
  184.9250  179.1770  143.2490 C   0  0  0  0  0  3  0  0  0  0  0  0
  184.6310  178.7480  145.6140 C   0  0  0  0  0  3  0  0  0  0  0  0
  184.2320  179.3990  144.4430 C   0  0  0  0  0  3  0  0  0  0  0  0
  185.7230  177.8750  145.5910 C   0  0  0  0  0  3  0  0  0  0  0  0
  186.0170  178.3040  143.2250 C   0  0  0  0  0  3  0  0  0  0  0  0
  191.2510  177.5710  145.3470 C   0  0  0  0  0  2  0  0  0  0  0  0
  192.0110  176.7900  147.4730 O   0  0  0  0  0  1  0  0  0  0  0  0
  191.8040  176.4040  146.1490 C   0  0  0  0  0  2  0  0  0  0  0  0
  191.3300  174.9020  137.5740 C   0  0  0  0  0  2  0  0  0  0  0  0
  195.0550  174.4590  137.0480 C   0  0  0  0  0  3  0  0  0  0  0  0
  195.3690  175.5920  136.2800 C   0  0  0  0  0  0  0  0  0  0  0  0
  193.0390  176.2660  136.3520 C   0  0  0  0  0  3  0  0  0  0  0  0
  193.7400  174.2320  137.4640 C   0  0  0  0  0  3  0  0  0  0  0  0
  192.7300  175.1340  137.1140 C   0  0  0  0  0  0  0  0  0  0  0  0
  194.3540  176.4920  135.9360 C   0  0  0  0  0  3  0  0  0  0  0  0
  197.7240  174.9000  135.9800 C   0  0  0  0  0  1  0  0  0  0  0  0
  196.6740  175.8470  135.8480 O   0  0  0  0  0  0  0  0  0  0  0  0
  1  5  1  0  0  0  0
  2 11  1  0  0  0  0
  2 13  1  0  0  0  0
  3 10  1  0  0  0  0
  4  7  1  0  0  0  0
  5  9  2  0  0  0  0
  6  1  1  0  0  0  0
  7  9  1  0  0  0  0
  7 11  2  0  0  0  0
  8  1  2  0  0  0  0
  8  4  1  0  0  0  0
 10 16  1  1  0  0  0
 11  3  1  0  0  0  0
 12  2  2  0  0  0  0
 13 35  1  1  0  0  0
 13 14  1  0  0  0  0
 14 10  1  0  0  0  0
 15  4  2  0  0  0  0
 15 12  1  0  0  0  0
 16 17  1  6  0  0  0
 16 18  1  0  0  0  0
 18 20  1  0  0  0  0
 19 20  2  0  0  0  0
 20 21  2  0  0  0  0
 20 22  1  0  0  0  0
 22 23  1  0  0  0  0
 22 32  1  0  0  0  0
 23 24  2  0  0  0  0
 25 26  1  0  0  0  0
 25 23  1  0  0  0  0
 26 30  1  0  0  0  0
 27 29  2  0  0  0  0
 29 28  1  0  0  0  0
 30 28  2  0  0  0  0
 31 27  1  0  0  0  0
 31 26  2  0  0  0  0
 32 34  1  0  0  0  0
 34 33  1  0  0  0  0
 36 39  1  0  0  0  0
 37 36  2  0  0  0  0
 38 40  1  0  0  0  0
 40 39  2  0  0  0  0
 40 35  1  0  0  0  0
 41 37  1  0  0  0  0
 41 38  2  0  0  0  0
 43 42  1  0  0  0  0
 43 37  1  0  0  0  0
M  END
>  <MODEL>
8

>  <REMARK>
 VINA RESULT:      -8.4      4.194      9.947
  Name = 
  11 active torsions:
  status: ('A' for Active; 'I' for Inactive)
    1  A    between atoms: C_1  and  C_34
    2  A    between atoms: C_1  and  C_35
    3  A    between atoms: C_2  and  N_6
    4  A    between atoms: C_2  and  C_27
    5  A    between atoms: N_4  and  S_12
    6  A    between atoms: N_4  and  C_15
    7  A    between atoms: N_6  and  S_12
    8  A    between atoms: C_11  and  C_14
    9  A    between atoms: C_14  and  C_22
   10  A    between atoms: C_15  and  C_42
   11  A    between atoms: C_19  and  O_37
                            x       y       z     vdW  Elec       q    Type
                         _______ _______ _______ _____ _____    ______ ____

>  <TORSDO>
F 11

$$$$
=
 OpenBabel11052416353D

 43 47  0  0  1  0  0  0  0  0999 V2000
  188.0720  177.6840  147.6060 C   0  0  0  0  0  0  0  0  0  0  0  0
  185.4030  178.5850  143.4200 C   0  0  0  0  0  0  0  0  0  0  0  0
  187.6470  177.8780  142.4710 C   0  0  0  0  0  2  0  0  0  0  0  0
  186.3280  178.2750  146.0330 C   0  0  0  0  0  0  0  0  0  0  0  0
  188.9430  177.4170  146.5470 C   0  0  0  0  0  3  0  0  0  0  0  0
  188.4930  177.5250  148.8840 F   0  0  0  0  0  0  0  0  0  0  0  0
  187.2030  178.0080  144.9550 C   0  0  0  0  0  0  0  0  0  0  0  0
  186.7670  178.1130  147.3490 C   0  0  0  0  0  3  0  0  0  0  0  0
  188.5120  177.5780  145.2270 C   0  0  0  0  0  3  0  0  0  0  0  0
  187.2380  178.6490  141.2200 C   0  0  2  0  0  3  0  0  0  0  0  0
  186.7430  178.1840  143.6380 C   0  0  0  0  0  0  0  0  0  0  0  0
  184.5920  178.8610  144.5290 C   0  0  0  0  0  3  0  0  0  0  0  0
  184.8730  178.8640  142.0270 C   0  0  1  0  0  3  0  0  0  0  0  0
  185.7830  178.3200  140.9220 C   0  0  0  0  0  2  0  0  0  0  0  0
  185.0610  178.6970  145.7920 N   0  0  0  0  0  0  0  0  0  0  0  0
  188.1240  178.2540  140.0430 C   0  0  1  0  0  3  0  0  0  0  0  0
  188.9610  177.1970  140.4080 O   0  0  0  0  0  1  0  0  0  0  0  0
  187.3010  177.8420  138.9160 N   0  0  0  0  0  2  0  0  0  0  0  0
  189.5620  178.6010  137.7680 O   0  0  0  0  0  0  0  0  0  0  0  0
  188.1190  178.3120  137.4620 S   0  0  0  0  0  0  0  0  0  0  0  0
  187.4610  179.5430  136.9030 O   0  0  0  0  0  0  0  0  0  0  0  0
  188.0190  177.0230  136.3010 N   0  0  0  0  0  0  0  0  0  0  0  0
  188.8510  175.8540  136.3980 C   0  0  0  0  0  0  0  0  0  0  0  0
  188.8920  175.0280  135.4470 O   0  0  0  0  0  0  0  0  0  0  0  0
  189.6590  175.5790  137.6270 C   0  0  0  0  0  2  0  0  0  0  0  0
  191.0830  175.3150  137.2710 C   0  0  0  0  0  0  0  0  0  0  0  0
  192.9000  173.7520  136.9120 C   0  0  0  0  0  3  0  0  0  0  0  0
  193.2910  176.1320  136.6940 C   0  0  0  0  0  3  0  0  0  0  0  0
  193.7650  174.8170  136.6460 C   0  0  0  0  0  3  0  0  0  0  0  0
  191.9520  176.3800  137.0080 C   0  0  0  0  0  3  0  0  0  0  0  0
  191.5600  174.0000  137.2270 C   0  0  0  0  0  3  0  0  0  0  0  0
  187.0540  177.1370  135.2130 C   0  0  0  0  0  2  0  0  0  0  0  0
  185.4970  175.7680  136.4000 O   0  0  0  0  0  1  0  0  0  0  0  0
  185.6370  176.9900  135.7420 C   0  0  0  0  0  2  0  0  0  0  0  0
  183.4650  178.3040  141.8460 C   0  0  0  0  0  2  0  0  0  0  0  0
  182.7360  176.7550  138.4670 C   0  0  0  0  0  3  0  0  0  0  0  0
  182.5250  177.8940  137.6730 C   0  0  0  0  0  0  0  0  0  0  0  0
  182.9210  179.2980  139.6110 C   0  0  0  0  0  3  0  0  0  0  0  0
  183.0360  176.8890  139.8250 C   0  0  0  0  0  3  0  0  0  0  0  0
  183.1260  178.1600  140.4000 C   0  0  0  0  0  0  0  0  0  0  0  0
  182.6200  179.1640  138.2540 C   0  0  0  0  0  3  0  0  0  0  0  0
  180.9030  177.5760  135.8330 C   0  0  0  0  0  1  0  0  0  0  0  0
  182.2230  177.7950  136.3110 O   0  0  0  0  0  0  0  0  0  0  0  0
  1  6  1  0  0  0  0
  2 11  2  0  0  0  0
  2 12  1  0  0  0  0
  3 11  1  0  0  0  0
  4  8  2  0  0  0  0
  5  1  2  0  0  0  0
  7  9  2  0  0  0  0
  7  4  1  0  0  0  0
  8  1  1  0  0  0  0
  9  5  1  0  0  0  0
 10 16  1  6  0  0  0
 10  3  1  0  0  0  0
 11  7  1  0  0  0  0
 12 15  2  0  0  0  0
 13 35  1  1  0  0  0
 13  2  1  0  0  0  0
 14 10  1  0  0  0  0
 14 13  1  0  0  0  0
 15  4  1  0  0  0  0
 16 17  1  1  0  0  0
 18 16  1  0  0  0  0
 20 19  2  0  0  0  0
 20 18  1  0  0  0  0
 21 20  2  0  0  0  0
 22 23  1  0  0  0  0
 22 20  1  0  0  0  0
 23 25  1  0  0  0  0
 24 23  2  0  0  0  0
 26 25  1  0  0  0  0
 27 31  2  0  0  0  0
 28 30  1  0  0  0  0
 29 28  2  0  0  0  0
 29 27  1  0  0  0  0
 30 26  2  0  0  0  0
 31 26  1  0  0  0  0
 32 34  1  0  0  0  0
 32 22  1  0  0  0  0
 34 33  1  0  0  0  0
 36 39  1  0  0  0  0
 37 41  1  0  0  0  0
 37 36  2  0  0  0  0
 38 40  1  0  0  0  0
 39 40  2  0  0  0  0
 40 35  1  0  0  0  0
 41 38  2  0  0  0  0
 42 43  1  0  0  0  0
 43 37  1  0  0  0  0
M  END
>  <MODEL>
9

>  <REMARK>
 VINA RESULT:      -8.3      2.150      3.820
  Name = 
  11 active torsions:
  status: ('A' for Active; 'I' for Inactive)
    1  A    between atoms: C_1  and  C_34
    2  A    between atoms: C_1  and  C_35
    3  A    between atoms: C_2  and  N_6
    4  A    between atoms: C_2  and  C_27
    5  A    between atoms: N_4  and  S_12
    6  A    between atoms: N_4  and  C_15
    7  A    between atoms: N_6  and  S_12
    8  A    between atoms: C_11  and  C_14
    9  A    between atoms: C_14  and  C_22
   10  A    between atoms: C_15  and  C_42
   11  A    between atoms: C_19  and  O_37
                            x       y       z     vdW  Elec       q    Type
                         _______ _______ _______ _____ _____    ______ ____

>  <TORSDO>
F 11

$$$$
