=
 OpenBabel11052413303D

 28 32  0  0  1  0  0  0  0  0999 V2000
  186.9110  178.5110  141.0010 C   0  0  0  0  0  0  0  0  0  0  0  0
  184.2840  178.3070  144.9400 O   0  0  0  0  0  0  0  0  0  0  0  0
  187.9760  178.2640  144.4910 C   0  0  1  0  0  3  0  0  0  0  0  0
  186.5650  178.2510  146.4740 N   0  0  0  0  0  2  0  0  0  0  0  0
  185.5060  178.3740  142.9430 N   0  0  0  0  0  0  0  0  0  0  0  0
  187.9380  177.6580  143.0870 C   0  0  0  0  0  2  0  0  0  0  0  0
  184.5900  179.0800  140.7790 C   0  0  0  0  0  3  0  0  0  0  0  0
  185.4100  178.2780  144.3740 C   0  0  0  0  0  0  0  0  0  0  0  0
  184.2880  178.5200  142.1410 C   0  0  0  0  0  2  0  0  0  0  0  0
  186.6380  178.1590  145.1840 C   0  0  0  0  0  0  0  0  0  0  0  0
  185.7880  179.0330  140.2770 N   0  0  0  0  0  0  0  0  0  0  0  0
  186.7840  178.2060  142.3000 C   0  0  0  0  0  0  0  0  0  0  0  0
  188.8150  177.0650  146.5090 C   0  0  0  0  0  3  0  0  0  0  0  0
  190.4420  177.7200  144.8330 C   0  0  0  0  0  0  0  0  0  0  0  0
  191.1590  176.5580  146.8350 C   0  0  0  0  0  0  0  0  0  0  0  0
  189.1070  177.6730  145.2830 C   0  0  0  0  0  0  0  0  0  0  0  0
  191.4600  177.1620  145.6120 C   0  0  0  0  0  3  0  0  0  0  0  0
  190.7560  178.3030  143.6490 F   0  0  0  0  0  0  0  0  0  0  0  0
  192.2440  175.9670  147.6600 C   0  0  0  0  0  1  0  0  0  0  0  0
  189.8370  176.5090  147.2840 C   0  0  0  0  0  3  0  0  0  0  0  0
  188.1640  178.3730  140.3300 N   0  0  0  0  0  0  0  0  0  0  0  0
  189.0580  178.5820  139.1840 N   0  0  1  0  0  0  0  0  0  0  0  0
  189.5300  177.8790  140.2500 C   0  0  2  0  0  3  0  0  0  0  0  0
  189.5160  176.4870  140.0770 O   0  0  0  0  0  1  0  0  0  0  0  0
  189.3480  178.0250  136.8360 C   0  0  2  0  0  3  0  0  0  0  0  0
  188.5320  177.7670  138.0890 C   0  0  2  0  0  3  0  0  0  0  0  0
  187.9910  178.6730  137.0020 C   0  0  0  0  0  2  0  0  0  0  0  0
  189.2220  176.8300  135.9150 C   0  0  0  0  0  1  0  0  0  0  0  0
  1 12  2  0  0  0  0
  3 10  1  0  0  0  0
  3 16  1  1  0  0  0
  5  8  1  0  0  0  0
  6  3  1  0  0  0  0
  7  9  1  0  0  0  0
  8  2  2  0  0  0  0
  8 10  1  0  0  0  0
  9  5  1  0  0  0  0
 10  4  2  0  0  0  0
 11  7  2  0  0  0  0
 11  1  1  0  0  0  0
 12  5  1  0  0  0  0
 12  6  1  0  0  0  0
 13 20  1  0  0  0  0
 14 16  1  0  0  0  0
 14 17  2  0  0  0  0
 15 20  2  0  0  0  0
 15 19  1  0  0  0  0
 16 13  2  0  0  0  0
 17 15  1  0  0  0  0
 18 14  1  0  0  0  0
 21  1  1  0  0  0  0
 22 23  1  0  0  0  0
 22 21  1  1  0  0  0
 23 24  1  6  0  0  0
 23 21  1  0  0  0  0
 25 28  1  6  0  0  0
 25 27  1  0  0  0  0
 25 26  1  0  0  0  0
 26 27  1  6  0  0  0
 26 22  1  0  0  0  0
M  END
>  <MODEL>
1

>  <REMARK>
 VINA RESULT:      -9.8      0.000      0.000
  Name = 
  3 active torsions:
  status: ('A' for Active; 'I' for Inactive)
    1  A    between atoms: C_1  and  N_2
    2  A    between atoms: N_3  and  C_7
    3  A    between atoms: C_10  and  C_13
                            x       y       z     vdW  Elec       q    Type
                         _______ _______ _______ _____ _____    ______ ____

>  <TORSDO>
F 3

$$$$
=
 OpenBabel11052413303D

 28 32  0  0  1  0  0  0  0  0999 V2000
  186.8770  178.4600  139.9680 C   0  0  0  0  0  0  0  0  0  0  0  0
  191.3420  176.9890  140.5690 O   0  0  0  0  0  0  0  0  0  0  0  0
  188.5210  177.2030  142.9840 C   0  0  1  0  0  3  0  0  0  0  0  0
  190.8020  176.3820  143.1950 N   0  0  0  0  0  2  0  0  0  0  0  0
  189.1650  177.7680  140.1960 N   0  0  0  0  0  0  0  0  0  0  0  0
  187.8060  178.3460  142.2610 C   0  0  0  0  0  2  0  0  0  0  0  0
  188.1530  178.0480  137.9780 C   0  0  0  0  0  3  0  0  0  0  0  0
  190.2030  177.2500  141.0440 C   0  0  0  0  0  0  0  0  0  0  0  0
  189.4290  177.9800  138.7690 C   0  0  0  0  0  2  0  0  0  0  0  0
  189.9290  177.0100  142.4740 C   0  0  0  0  0  0  0  0  0  0  0  0
  187.0130  178.2980  138.5500 N   0  0  0  0  0  0  0  0  0  0  0  0
  187.9130  178.1880  140.7730 C   0  0  0  0  0  0  0  0  0  0  0  0
  189.5880  177.8490  145.1420 C   0  0  0  0  0  3  0  0  0  0  0  0
  187.2700  177.1370  145.2030 C   0  0  0  0  0  0  0  0  0  0  0  0
  188.4000  177.7770  147.2490 C   0  0  0  0  0  0  0  0  0  0  0  0
  188.4450  177.3990  144.4720 C   0  0  0  0  0  0  0  0  0  0  0  0
  187.2540  177.3280  146.5880 C   0  0  0  0  0  3  0  0  0  0  0  0
  186.1470  176.7000  144.5810 F   0  0  0  0  0  0  0  0  0  0  0  0
  188.3790  177.9780  148.7210 C   0  0  0  0  0  1  0  0  0  0  0  0
  189.5670  178.0380  146.5270 C   0  0  0  0  0  3  0  0  0  0  0  0
  185.6150  178.8650  140.5010 N   0  0  0  0  0  0  0  0  0  0  0  0
  184.7820  179.6000  141.4600 N   0  0  1  0  0  0  0  0  0  0  0  0
  184.1610  178.8290  140.5270 C   0  0  2  0  0  3  0  0  0  0  0  0
  183.7310  177.5810  141.0010 O   0  0  0  0  0  1  0  0  0  0  0  0
  183.9620  179.5090  143.7460 C   0  0  2  0  0  3  0  0  0  0  0  0
  184.9770  178.9600  142.7610 C   0  0  2  0  0  3  0  0  0  0  0  0
  185.3900  180.0040  143.7790 C   0  0  0  0  0  2  0  0  0  0  0  0
  183.7590  178.4970  144.8540 C   0  0  0  0  0  1  0  0  0  0  0  0
  1 21  1  0  0  0  0
  1 12  2  0  0  0  0
  2  8  2  0  0  0  0
  3 16  1  1  0  0  0
  5 12  1  0  0  0  0
  5  8  1  0  0  0  0
  6  3  1  0  0  0  0
  7 11  2  0  0  0  0
  7  9  1  0  0  0  0
  8 10  1  0  0  0  0
  9  5  1  0  0  0  0
 10  3  1  0  0  0  0
 10  4  2  0  0  0  0
 11  1  1  0  0  0  0
 12  6  1  0  0  0  0
 13 20  1  0  0  0  0
 14 17  2  0  0  0  0
 15 19  1  0  0  0  0
 16 13  2  0  0  0  0
 16 14  1  0  0  0  0
 17 15  1  0  0  0  0
 18 14  1  0  0  0  0
 20 15  2  0  0  0  0
 21 23  1  0  0  0  0
 22 21  1  6  0  0  0
 22 26  1  0  0  0  0
 23 24  1  1  0  0  0
 23 22  1  0  0  0  0
 25 27  1  0  0  0  0
 25 28  1  1  0  0  0
 26 25  1  0  0  0  0
 26 27  1  1  0  0  0
M  END
>  <MODEL>
2

>  <REMARK>
 VINA RESULT:      -9.6      2.169      5.078
  Name = 
  3 active torsions:
  status: ('A' for Active; 'I' for Inactive)
    1  A    between atoms: C_1  and  N_2
    2  A    between atoms: N_3  and  C_7
    3  A    between atoms: C_10  and  C_13
                            x       y       z     vdW  Elec       q    Type
                         _______ _______ _______ _____ _____    ______ ____

>  <TORSDO>
F 3

$$$$
=
 OpenBabel11052413303D

 28 32  0  0  1  0  0  0  0  0999 V2000
  186.0240  178.2790  142.3850 C   0  0  0  0  0  0  0  0  0  0  0  0
  184.4800  178.6220  146.8520 O   0  0  0  0  0  0  0  0  0  0  0  0
  187.9200  178.1750  145.5100 C   0  0  1  0  0  3  0  0  0  0  0  0
  187.0650  178.4450  147.7730 N   0  0  0  0  0  2  0  0  0  0  0  0
  185.1540  178.4230  144.6190 N   0  0  0  0  0  0  0  0  0  0  0  0
  187.4770  177.4780  144.2230 C   0  0  0  0  0  2  0  0  0  0  0  0
  183.7770  179.0630  142.6910 C   0  0  0  0  0  3  0  0  0  0  0  0
  185.4200  178.4400  146.0310 C   0  0  0  0  0  0  0  0  0  0  0  0
  183.7880  178.6340  144.1320 C   0  0  0  0  0  2  0  0  0  0  0  0
  186.8000  178.2550  146.5200 C   0  0  0  0  0  0  0  0  0  0  0  0
  184.7990  178.8590  141.9160 N   0  0  0  0  0  0  0  0  0  0  0  0
  186.2080  178.0820  143.6980 C   0  0  0  0  0  0  0  0  0  0  0  0
  189.0370  176.6020  147.0890 C   0  0  0  0  0  3  0  0  0  0  0  0
  190.4460  177.8370  145.5490 C   0  0  0  0  0  0  0  0  0  0  0  0
  191.4370  176.2900  147.1290 C   0  0  0  0  0  0  0  0  0  0  0  0
  189.1660  177.5300  146.0500 C   0  0  0  0  0  0  0  0  0  0  0  0
  191.5750  177.2150  146.0920 C   0  0  0  0  0  3  0  0  0  0  0  0
  190.6020  178.7340  144.5430 F   0  0  0  0  0  0  0  0  0  0  0  0
  192.6390  175.6330  147.7030 C   0  0  0  0  0  1  0  0  0  0  0  0
  190.1680  175.9830  147.6290 C   0  0  0  0  0  3  0  0  0  0  0  0
  187.0490  177.9680  141.4410 N   0  0  0  0  0  0  0  0  0  0  0  0
  188.1840  177.1660  140.9670 N   0  0  1  0  0  0  0  0  0  0  0  0
  187.7930  178.2320  140.2180 C   0  0  2  0  0  3  0  0  0  0  0  0
  188.5820  179.3790  140.3890 O   0  0  0  0  0  1  0  0  0  0  0  0
  190.5560  176.7890  141.3390 C   0  0  2  0  0  3  0  0  0  0  0  0
  189.2930  177.4270  141.8850 C   0  0  2  0  0  3  0  0  0  0  0  0
  189.7920  176.1160  142.4570 C   0  0  0  0  0  2  0  0  0  0  0  0
  191.7570  177.5080  141.9160 C   0  0  0  0  0  1  0  0  0  0  0  0
  1 12  2  0  0  0  0
  3 16  1  1  0  0  0
  3 10  1  0  0  0  0
  5  8  1  0  0  0  0
  6  3  1  0  0  0  0
  7  9  1  0  0  0  0
  8 10  1  0  0  0  0
  8  2  2  0  0  0  0
  9  5  1  0  0  0  0
 10  4  2  0  0  0  0
 11  1  1  0  0  0  0
 11  7  2  0  0  0  0
 12  6  1  0  0  0  0
 12  5  1  0  0  0  0
 13 20  1  0  0  0  0
 14 16  1  0  0  0  0
 14 17  2  0  0  0  0
 15 20  2  0  0  0  0
 15 19  1  0  0  0  0
 16 13  2  0  0  0  0
 17 15  1  0  0  0  0
 18 14  1  0  0  0  0
 21  1  1  0  0  0  0
 22 21  1  1  0  0  0
 22 26  1  0  0  0  0
 23 24  1  1  0  0  0
 23 22  1  0  0  0  0
 23 21  1  0  0  0  0
 25 26  1  0  0  0  0
 25 28  1  1  0  0  0
 25 27  1  0  0  0  0
 26 27  1  1  0  0  0
M  END
>  <MODEL>
3

>  <REMARK>
 VINA RESULT:      -9.5      1.892      2.529
  Name = 
  3 active torsions:
  status: ('A' for Active; 'I' for Inactive)
    1  A    between atoms: C_1  and  N_2
    2  A    between atoms: N_3  and  C_7
    3  A    between atoms: C_10  and  C_13
                            x       y       z     vdW  Elec       q    Type
                         _______ _______ _______ _____ _____    ______ ____

>  <TORSDO>
F 3

$$$$
=
 OpenBabel11052413303D

 28 32  0  0  1  0  0  0  0  0999 V2000
  189.3320  177.3440  142.7440 C   0  0  0  0  0  0  0  0  0  0  0  0
  187.4780  178.4440  138.5230 O   0  0  0  0  0  0  0  0  0  0  0  0
  186.0880  178.8350  141.9510 C   0  0  1  0  0  3  0  0  0  0  0  0
  185.2370  179.4530  139.7550 N   0  0  0  0  0  2  0  0  0  0  0  0
  188.4510  177.8350  140.5640 N   0  0  0  0  0  0  0  0  0  0  0  0
  186.8850  177.6790  142.5560 C   0  0  0  0  0  2  0  0  0  0  0  0
  190.8380  177.3560  140.8750 C   0  0  0  0  0  3  0  0  0  0  0  0
  187.3700  178.3620  139.7760 C   0  0  0  0  0  0  0  0  0  0  0  0
  189.6890  177.4060  139.9070 C   0  0  0  0  0  2  0  0  0  0  0  0
  186.1350  178.8200  140.4410 C   0  0  0  0  0  0  0  0  0  0  0  0
  190.6400  177.2970  142.1580 N   0  0  0  0  0  0  0  0  0  0  0  0
  188.2680  177.6220  141.9770 C   0  0  0  0  0  0  0  0  0  0  0  0
  183.6870  178.1800  141.7980 C   0  0  0  0  0  3  0  0  0  0  0  0
  184.3670  179.5240  143.6990 C   0  0  0  0  0  0  0  0  0  0  0  0
  182.0540  178.8440  143.4560 C   0  0  0  0  0  0  0  0  0  0  0  0
  184.6910  178.8510  142.5050 C   0  0  0  0  0  0  0  0  0  0  0  0
  183.0500  179.5170  144.1680 C   0  0  0  0  0  3  0  0  0  0  0  0
  185.3190  180.1850  144.4050 F   0  0  0  0  0  0  0  0  0  0  0  0
  180.6550  178.8390  143.9580 C   0  0  0  0  0  1  0  0  0  0  0  0
  182.3720  178.1760  142.2710 C   0  0  0  0  0  3  0  0  0  0  0  0
  189.1940  177.1400  144.1500 N   0  0  0  0  0  0  0  0  0  0  0  0
  188.4140  176.8070  145.3480 N   0  0  1  0  0  0  0  0  0  0  0  0
  189.7240  177.1400  145.5060 C   0  0  2  0  0  3  0  0  0  0  0  0
  189.9390  178.4620  145.9250 O   0  0  0  0  0  1  0  0  0  0  0  0
  186.8810  177.8110  146.9450 C   0  0  2  0  0  3  0  0  0  0  0  0
  187.4680  177.9050  145.5490 C   0  0  2  0  0  3  0  0  0  0  0  0
  186.0770  177.3400  145.7540 C   0  0  0  0  0  2  0  0  0  0  0  0
  186.3950  179.1820  147.3650 C   0  0  0  0  0  1  0  0  0  0  0  0
  1 21  1  0  0  0  0
  2  8  2  0  0  0  0
  3 16  1  6  0  0  0
  3  6  1  0  0  0  0
  4 10  2  0  0  0  0
  5 12  1  0  0  0  0
  7 11  2  0  0  0  0
  8 10  1  0  0  0  0
  8  5  1  0  0  0  0
  9  5  1  0  0  0  0
  9  7  1  0  0  0  0
 10  3  1  0  0  0  0
 11  1  1  0  0  0  0
 12  6  1  0  0  0  0
 12  1  2  0  0  0  0
 13 20  2  0  0  0  0
 13 16  1  0  0  0  0
 14 17  1  0  0  0  0
 14 18  1  0  0  0  0
 15 19  1  0  0  0  0
 15 17  2  0  0  0  0
 16 14  2  0  0  0  0
 20 15  1  0  0  0  0
 21 23  1  0  0  0  0
 22 21  1  6  0  0  0
 22 23  1  0  0  0  0
 22 26  1  0  0  0  0
 23 24  1  1  0  0  0
 25 28  1  6  0  0  0
 26 27  1  6  0  0  0
 26 25  1  0  0  0  0
 27 25  1  0  0  0  0
M  END
>  <MODEL>
4

>  <REMARK>
 VINA RESULT:      -9.5      2.514      7.028
  Name = 
  3 active torsions:
  status: ('A' for Active; 'I' for Inactive)
    1  A    between atoms: C_1  and  N_2
    2  A    between atoms: N_3  and  C_7
    3  A    between atoms: C_10  and  C_13
                            x       y       z     vdW  Elec       q    Type
                         _______ _______ _______ _____ _____    ______ ____

>  <TORSDO>
F 3

$$$$
=
 OpenBabel11052413303D

 28 32  0  0  1  0  0  0  0  0999 V2000
  186.9380  178.3080  139.3420 C   0  0  0  0  0  0  0  0  0  0  0  0
  191.4580  177.2360  140.2810 O   0  0  0  0  0  0  0  0  0  0  0  0
  188.4570  177.1990  142.4780 C   0  0  1  0  0  3  0  0  0  0  0  0
  190.7800  176.5810  142.8640 N   0  0  0  0  0  2  0  0  0  0  0  0
  189.2550  177.8200  139.7430 N   0  0  0  0  0  0  0  0  0  0  0  0
  187.7010  178.2750  141.6980 C   0  0  0  0  0  2  0  0  0  0  0  0
  188.3900  178.0110  137.4540 C   0  0  0  0  0  3  0  0  0  0  0  0
  190.2690  177.3950  140.6690 C   0  0  0  0  0  0  0  0  0  0  0  0
  189.6050  178.0560  138.3380 C   0  0  0  0  0  2  0  0  0  0  0  0
  189.9120  177.1310  142.0760 C   0  0  0  0  0  0  0  0  0  0  0  0
  187.1930  178.1590  137.9390 N   0  0  0  0  0  0  0  0  0  0  0  0
  187.9320  178.1270  140.2230 C   0  0  0  0  0  0  0  0  0  0  0  0
  189.3830  177.5520  144.7660 C   0  0  0  0  0  3  0  0  0  0  0  0
  186.9730  177.3920  144.5410 C   0  0  0  0  0  0  0  0  0  0  0  0
  187.9710  177.7270  146.7230 C   0  0  0  0  0  0  0  0  0  0  0  0
  188.2550  177.3870  143.9550 C   0  0  0  0  0  0  0  0  0  0  0  0
  186.8390  177.5630  145.9220 C   0  0  0  0  0  3  0  0  0  0  0  0
  185.8610  177.2340  143.7810 F   0  0  0  0  0  0  0  0  0  0  0  0
  187.8230  177.9060  148.1910 C   0  0  0  0  0  1  0  0  0  0  0  0
  189.2430  177.7210  146.1460 C   0  0  0  0  0  3  0  0  0  0  0  0
  185.6100  178.5990  139.7780 N   0  0  0  0  0  0  0  0  0  0  0  0
  184.2340  178.2110  140.1100 N   0  0  1  0  0  0  0  0  0  0  0  0
  184.5710  179.5270  140.2000 C   0  0  2  0  0  3  0  0  0  0  0  0
  184.1640  180.3050  139.1060 O   0  0  0  0  0  1  0  0  0  0  0  0
  182.1210  177.5560  139.1030 C   0  0  2  0  0  3  0  0  0  0  0  0
  183.5940  177.8210  138.8540 C   0  0  2  0  0  3  0  0  0  0  0  0
  183.0850  176.3990  138.9690 C   0  0  0  0  0  2  0  0  0  0  0  0
  181.3650  177.7300  137.8030 C   0  0  0  0  0  1  0  0  0  0  0  0
  1 21  1  0  0  0  0
  1 12  2  0  0  0  0
  2  8  2  0  0  0  0
  3 16  1  1  0  0  0
  5 12  1  0  0  0  0
  5  8  1  0  0  0  0
  6  3  1  0  0  0  0
  7 11  2  0  0  0  0
  7  9  1  0  0  0  0
  8 10  1  0  0  0  0
  9  5  1  0  0  0  0
 10  3  1  0  0  0  0
 10  4  2  0  0  0  0
 11  1  1  0  0  0  0
 12  6  1  0  0  0  0
 13 20  1  0  0  0  0
 14 17  2  0  0  0  0
 15 19  1  0  0  0  0
 16 14  1  0  0  0  0
 16 13  2  0  0  0  0
 17 15  1  0  0  0  0
 18 14  1  0  0  0  0
 20 15  2  0  0  0  0
 21 23  1  0  0  0  0
 22 21  1  6  0  0  0
 22 23  1  0  0  0  0
 23 24  1  6  0  0  0
 25 28  1  6  0  0  0
 26 27  1  1  0  0  0
 26 25  1  0  0  0  0
 26 22  1  0  0  0  0
 27 25  1  0  0  0  0
M  END
>  <MODEL>
5

>  <REMARK>
 VINA RESULT:      -9.4      2.455      4.906
  Name = 
  3 active torsions:
  status: ('A' for Active; 'I' for Inactive)
    1  A    between atoms: C_1  and  N_2
    2  A    between atoms: N_3  and  C_7
    3  A    between atoms: C_10  and  C_13
                            x       y       z     vdW  Elec       q    Type
                         _______ _______ _______ _____ _____    ______ ____

>  <TORSDO>
F 3

$$$$
=
 OpenBabel11052413303D

 28 32  0  0  1  0  0  0  0  0999 V2000
  185.6980  178.7500  140.3200 C   0  0  0  0  0  0  0  0  0  0  0  0
  181.7070  178.7350  142.8760 O   0  0  0  0  0  0  0  0  0  0  0  0
  185.2600  179.0010  143.9420 C   0  0  1  0  0  3  0  0  0  0  0  0
  183.1670  179.0730  145.1810 N   0  0  0  0  0  2  0  0  0  0  0  0
  183.6310  178.6960  141.5420 N   0  0  0  0  0  0  0  0  0  0  0  0
  185.8230  178.2410  142.7400 C   0  0  0  0  0  2  0  0  0  0  0  0
  183.6450  179.0630  139.1160 C   0  0  0  0  0  3  0  0  0  0  0  0
  182.9660  178.7530  142.8150 C   0  0  0  0  0  0  0  0  0  0  0  0
  182.8400  178.6320  140.3100 C   0  0  0  0  0  2  0  0  0  0  0  0
  183.7620  178.8450  144.0540 C   0  0  0  0  0  0  0  0  0  0  0  0
  184.9440  179.0760  139.1440 N   0  0  0  0  0  0  0  0  0  0  0  0
  185.0660  178.5820  141.4900 C   0  0  0  0  0  0  0  0  0  0  0  0
  185.7690  179.3600  146.3560 C   0  0  0  0  0  3  0  0  0  0  0  0
  186.9060  177.5390  145.2270 C   0  0  0  0  0  0  0  0  0  0  0  0
  187.3390  177.9750  147.5700 C   0  0  0  0  0  0  0  0  0  0  0  0
  185.9960  178.6150  145.1940 C   0  0  0  0  0  0  0  0  0  0  0  0
  187.5720  177.2250  146.4150 C   0  0  0  0  0  3  0  0  0  0  0  0
  187.1480  176.7990  144.1150 F   0  0  0  0  0  0  0  0  0  0  0  0
  188.0500  177.6380  148.8310 C   0  0  0  0  0  1  0  0  0  0  0  0
  186.4380  179.0420  147.5420 C   0  0  0  0  0  3  0  0  0  0  0  0
  187.1200  178.6600  140.2290 N   0  0  0  0  0  0  0  0  0  0  0  0
  188.3790  178.6600  139.4750 N   0  0  1  0  0  0  0  0  0  0  0  0
  188.4340  178.4590  140.8200 C   0  0  2  0  0  3  0  0  0  0  0  0
  188.5770  177.1160  141.1990 O   0  0  0  0  0  1  0  0  0  0  0  0
  189.6670  177.3770  137.8610 C   0  0  2  0  0  3  0  0  0  0  0  0
  188.3830  177.4410  138.6670 C   0  0  2  0  0  3  0  0  0  0  0  0
  188.3800  177.8110  137.1970 C   0  0  0  0  0  2  0  0  0  0  0  0
  189.9510  175.9330  137.5060 C   0  0  0  0  0  1  0  0  0  0  0  0
  1 12  2  0  0  0  0
  3 10  1  0  0  0  0
  3 16  1  1  0  0  0
  5  8  1  0  0  0  0
  6  3  1  0  0  0  0
  7 11  2  0  0  0  0
  7  9  1  0  0  0  0
  8  2  2  0  0  0  0
  8 10  1  0  0  0  0
  9  5  1  0  0  0  0
 10  4  2  0  0  0  0
 11  1  1  0  0  0  0
 12  5  1  0  0  0  0
 12  6  1  0  0  0  0
 13 20  1  0  0  0  0
 14 17  2  0  0  0  0
 15 19  1  0  0  0  0
 16 14  1  0  0  0  0
 16 13  2  0  0  0  0
 17 15  1  0  0  0  0
 18 14  1  0  0  0  0
 20 15  2  0  0  0  0
 21  1  1  0  0  0  0
 21 23  1  0  0  0  0
 22 21  1  1  0  0  0
 22 23  1  0  0  0  0
 23 24  1  6  0  0  0
 25 28  1  6  0  0  0
 25 26  1  0  0  0  0
 26 27  1  6  0  0  0
 26 22  1  0  0  0  0
 27 25  1  0  0  0  0
M  END
>  <MODEL>
6

>  <REMARK>
 VINA RESULT:      -9.4      2.290      2.792
  Name = 
  3 active torsions:
  status: ('A' for Active; 'I' for Inactive)
    1  A    between atoms: C_1  and  N_2
    2  A    between atoms: N_3  and  C_7
    3  A    between atoms: C_10  and  C_13
                            x       y       z     vdW  Elec       q    Type
                         _______ _______ _______ _____ _____    ______ ____

>  <TORSDO>
F 3

$$$$
=
 OpenBabel11052413303D

 28 32  0  0  1  0  0  0  0  0999 V2000
  189.6650  177.5250  141.5730 C   0  0  0  0  0  0  0  0  0  0  0  0
  189.3640  177.8700  146.2910 O   0  0  0  0  0  0  0  0  0  0  0  0
  186.6970  177.6360  143.7080 C   0  0  1  0  0  3  0  0  0  0  0  0
  186.6230  177.7270  146.1400 N   0  0  0  0  0  2  0  0  0  0  0  0
  189.6010  177.7400  143.9650 N   0  0  0  0  0  0  0  0  0  0  0  0
  187.5310  178.2650  142.5910 C   0  0  0  0  0  2  0  0  0  0  0  0
  191.6830  177.1390  142.8130 C   0  0  0  0  0  3  0  0  0  0  0  0
  188.8080  177.8200  145.1610 C   0  0  0  0  0  0  0  0  0  0  0  0
  191.0630  177.7000  144.0620 C   0  0  0  0  0  2  0  0  0  0  0  0
  187.3350  177.8320  145.0630 C   0  0  0  0  0  0  0  0  0  0  0  0
  191.0300  177.1020  141.6900 N   0  0  0  0  0  0  0  0  0  0  0  0
  188.9610  177.8190  142.6760 C   0  0  0  0  0  0  0  0  0  0  0  0
  184.6610  178.5440  144.8230 C   0  0  0  0  0  3  0  0  0  0  0  0
  184.5590  178.1710  142.4290 C   0  0  0  0  0  0  0  0  0  0  0  0
  182.6290  179.0420  143.6060 C   0  0  0  0  0  0  0  0  0  0  0  0
  185.2790  178.1270  143.6390 C   0  0  0  0  0  0  0  0  0  0  0  0
  183.2380  178.6290  142.4190 C   0  0  0  0  0  3  0  0  0  0  0  0
  185.1320  177.7730  141.2650 F   0  0  0  0  0  0  0  0  0  0  0  0
  181.2240  179.5270  143.5910 C   0  0  0  0  0  1  0  0  0  0  0  0
  183.3390  179.0000  144.8080 C   0  0  0  0  0  3  0  0  0  0  0  0
  189.0640  177.5770  140.2790 N   0  0  0  0  0  0  0  0  0  0  0  0
  188.7710  177.0140  138.9560 N   0  0  1  0  0  0  0  0  0  0  0  0
  188.2950  178.2560  139.2460 C   0  0  2  0  0  3  0  0  0  0  0  0
  189.0550  179.3060  138.7110 O   0  0  0  0  0  1  0  0  0  0  0  0
  189.9340  176.0020  137.0760 C   0  0  2  0  0  3  0  0  0  0  0  0
  190.0360  176.9930  138.2210 C   0  0  2  0  0  3  0  0  0  0  0  0
  190.6650  175.6200  138.3430 C   0  0  0  0  0  2  0  0  0  0  0  0
  190.9420  176.3790  136.0110 C   0  0  0  0  0  1  0  0  0  0  0  0
  1 11  1  0  0  0  0
  1 12  2  0  0  0  0
  3 16  1  1  0  0  0
  3 10  1  0  0  0  0
  5  9  1  0  0  0  0
  5  8  1  0  0  0  0
  6 12  1  0  0  0  0
  6  3  1  0  0  0  0
  7  9  1  0  0  0  0
  8  2  2  0  0  0  0
 10  8  1  0  0  0  0
 10  4  2  0  0  0  0
 11  7  2  0  0  0  0
 12  5  1  0  0  0  0
 14 16  1  0  0  0  0
 15 20  2  0  0  0  0
 16 13  2  0  0  0  0
 17 14  2  0  0  0  0
 17 15  1  0  0  0  0
 18 14  1  0  0  0  0
 19 15  1  0  0  0  0
 20 13  1  0  0  0  0
 21  1  1  0  0  0  0
 22 23  1  0  0  0  0
 22 21  1  1  0  0  0
 23 24  1  6  0  0  0
 23 21  1  0  0  0  0
 25 28  1  6  0  0  0
 25 26  1  0  0  0  0
 25 27  1  0  0  0  0
 26 27  1  1  0  0  0
 26 22  1  0  0  0  0
M  END
>  <MODEL>
7

>  <REMARK>
 VINA RESULT:      -9.2      2.459      5.198
  Name = 
  3 active torsions:
  status: ('A' for Active; 'I' for Inactive)
    1  A    between atoms: C_1  and  N_2
    2  A    between atoms: N_3  and  C_7
    3  A    between atoms: C_10  and  C_13
                            x       y       z     vdW  Elec       q    Type
                         _______ _______ _______ _____ _____    ______ ____

>  <TORSDO>
F 3

$$$$
=
 OpenBabel11052413303D

 28 32  0  0  1  0  0  0  0  0999 V2000
  189.3500  177.9150  143.0900 C   0  0  0  0  0  0  0  0  0  0  0  0
  187.4940  178.1160  138.7340 O   0  0  0  0  0  0  0  0  0  0  0  0
  186.0190  178.9940  142.0330 C   0  0  1  0  0  3  0  0  0  0  0  0
  185.1640  179.1520  139.7600 N   0  0  0  0  0  2  0  0  0  0  0  0
  188.4740  177.9490  140.8540 N   0  0  0  0  0  0  0  0  0  0  0  0
  186.8880  178.0260  142.8360 C   0  0  0  0  0  2  0  0  0  0  0  0
  190.8830  177.7130  141.2550 C   0  0  0  0  0  3  0  0  0  0  0  0
  187.3710  178.2460  139.9810 C   0  0  0  0  0  0  0  0  0  0  0  0
  189.7510  177.5070  140.2880 C   0  0  0  0  0  2  0  0  0  0  0  0
  186.0930  178.7190  140.5500 C   0  0  0  0  0  0  0  0  0  0  0  0
  190.6680  177.8660  142.5270 N   0  0  0  0  0  0  0  0  0  0  0  0
  188.2820  177.9730  142.2820 C   0  0  0  0  0  0  0  0  0  0  0  0
  183.5740  178.6270  141.7130 C   0  0  0  0  0  3  0  0  0  0  0  0
  184.3220  179.3800  143.8940 C   0  0  0  0  0  0  0  0  0  0  0  0
  181.9640  179.0030  143.4810 C   0  0  0  0  0  0  0  0  0  0  0  0
  184.6150  179.0020  142.5700 C   0  0  0  0  0  0  0  0  0  0  0  0
  182.9980  179.3780  144.3430 C   0  0  0  0  0  3  0  0  0  0  0  0
  185.3100  179.7480  144.7480 F   0  0  0  0  0  0  0  0  0  0  0  0
  180.5580  179.0030  143.9620 C   0  0  0  0  0  1  0  0  0  0  0  0
  182.2520  178.6280  142.1660 C   0  0  0  0  0  3  0  0  0  0  0  0
  189.2030  177.9500  144.5100 N   0  0  0  0  0  0  0  0  0  0  0  0
  189.7410  177.9420  145.8750 N   0  0  1  0  0  0  0  0  0  0  0  0
  188.3910  177.9870  145.7160 C   0  0  2  0  0  3  0  0  0  0  0  0
  187.7470  176.7520  145.8860 O   0  0  0  0  0  1  0  0  0  0  0  0
  191.4820  176.7050  147.0370 C   0  0  2  0  0  3  0  0  0  0  0  0
  190.2940  176.6060  146.0990 C   0  0  2  0  0  3  0  0  0  0  0  0
  191.7050  176.5460  145.5500 C   0  0  0  0  0  2  0  0  0  0  0  0
  191.6810  175.3680  147.7190 C   0  0  0  0  0  1  0  0  0  0  0  0
  1 21  1  0  0  0  0
  2  8  2  0  0  0  0
  3 16  1  1  0  0  0
  3  6  1  0  0  0  0
  4 10  2  0  0  0  0
  5 12  1  0  0  0  0
  7 11  2  0  0  0  0
  8 10  1  0  0  0  0
  8  5  1  0  0  0  0
  9  5  1  0  0  0  0
  9  7  1  0  0  0  0
 10  3  1  0  0  0  0
 11  1  1  0  0  0  0
 12  6  1  0  0  0  0
 12  1  2  0  0  0  0
 13 20  2  0  0  0  0
 13 16  1  0  0  0  0
 14 17  1  0  0  0  0
 14 18  1  0  0  0  0
 15 19  1  0  0  0  0
 15 17  2  0  0  0  0
 16 14  2  0  0  0  0
 20 15  1  0  0  0  0
 21 23  1  0  0  0  0
 22 21  1  6  0  0  0
 22 26  1  0  0  0  0
 23 22  1  0  0  0  0
 23 24  1  1  0  0  0
 25 28  1  1  0  0  0
 26 27  1  6  0  0  0
 26 25  1  0  0  0  0
 27 25  1  0  0  0  0
M  END
>  <MODEL>
8

>  <REMARK>
 VINA RESULT:      -9.1      2.320      7.122
  Name = 
  3 active torsions:
  status: ('A' for Active; 'I' for Inactive)
    1  A    between atoms: C_1  and  N_2
    2  A    between atoms: N_3  and  C_7
    3  A    between atoms: C_10  and  C_13
                            x       y       z     vdW  Elec       q    Type
                         _______ _______ _______ _____ _____    ______ ____

>  <TORSDO>
F 3

$$$$
=
 OpenBabel11052413303D

 28 32  0  0  1  0  0  0  0  0999 V2000
  187.9310  177.7800  142.3950 C   0  0  0  0  0  0  0  0  0  0  0  0
  186.5350  178.5540  137.9330 O   0  0  0  0  0  0  0  0  0  0  0  0
  189.3890  176.5750  139.2650 C   0  0  1  0  0  3  0  0  0  0  0  0
  188.5630  176.9450  137.0050 N   0  0  0  0  0  2  0  0  0  0  0  0
  187.1790  178.2530  140.1640 N   0  0  0  0  0  0  0  0  0  0  0  0
  189.5370  177.3920  140.5490 C   0  0  0  0  0  2  0  0  0  0  0  0
  185.7390  178.7100  142.0970 C   0  0  0  0  0  3  0  0  0  0  0  0
  187.3570  178.0590  138.7500 C   0  0  0  0  0  0  0  0  0  0  0  0
  186.0280  179.0170  140.6550 C   0  0  0  0  0  2  0  0  0  0  0  0
  188.5010  177.2660  138.2580 C   0  0  0  0  0  0  0  0  0  0  0  0
  186.6370  178.1750  142.8690 N   0  0  0  0  0  0  0  0  0  0  0  0
  188.1940  177.7990  141.0810 C   0  0  0  0  0  0  0  0  0  0  0  0
  191.8260  177.0440  139.0250 C   0  0  0  0  0  3  0  0  0  0  0  0
  190.9450  175.0800  137.9080 C   0  0  0  0  0  0  0  0  0  0  0  0
  193.2980  175.6270  137.7290 C   0  0  0  0  0  0  0  0  0  0  0  0
  190.7420  176.2140  138.7190 C   0  0  0  0  0  0  0  0  0  0  0  0
  192.2220  174.7920  137.4180 C   0  0  0  0  0  3  0  0  0  0  0  0
  189.9130  174.2580  137.5930 F   0  0  0  0  0  0  0  0  0  0  0  0
  194.6540  175.3180  137.2050 C   0  0  0  0  0  1  0  0  0  0  0  0
  193.1010  176.7530  138.5320 C   0  0  0  0  0  3  0  0  0  0  0  0
  188.9040  177.3230  143.3350 N   0  0  0  0  0  0  0  0  0  0  0  0
  189.2980  176.7540  144.6290 N   0  0  1  0  0  0  0  0  0  0  0  0
  190.2800  177.1010  143.7530 C   0  0  2  0  0  3  0  0  0  0  0  0
  190.8920  178.3330  144.0280 O   0  0  0  0  0  1  0  0  0  0  0  0
  188.8270  177.0870  146.9910 C   0  0  2  0  0  3  0  0  0  0  0  0
  188.9880  177.7630  145.6420 C   0  0  2  0  0  3  0  0  0  0  0  0
  187.6040  177.5040  146.2040 C   0  0  0  0  0  2  0  0  0  0  0  0
  189.0890  178.1030  148.0820 C   0  0  0  0  0  1  0  0  0  0  0  0
  1 11  1  0  0  0  0
  1 21  1  0  0  0  0
  2  8  2  0  0  0  0
  3 16  1  6  0  0  0
  3  6  1  0  0  0  0
  4 10  2  0  0  0  0
  5  9  1  0  0  0  0
  5 12  1  0  0  0  0
  6 12  1  0  0  0  0
  7 11  2  0  0  0  0
  8  5  1  0  0  0  0
  9  7  1  0  0  0  0
 10  8  1  0  0  0  0
 10  3  1  0  0  0  0
 12  1  2  0  0  0  0
 14 16  2  0  0  0  0
 15 20  1  0  0  0  0
 16 13  1  0  0  0  0
 17 15  2  0  0  0  0
 17 14  1  0  0  0  0
 18 14  1  0  0  0  0
 19 15  1  0  0  0  0
 20 13  2  0  0  0  0
 21 23  1  0  0  0  0
 22 21  1  6  0  0  0
 22 26  1  0  0  0  0
 23 24  1  1  0  0  0
 23 22  1  0  0  0  0
 25 28  1  1  0  0  0
 26 27  1  6  0  0  0
 26 25  1  0  0  0  0
 27 25  1  0  0  0  0
M  END
>  <MODEL>
9

>  <REMARK>
 VINA RESULT:      -8.9      3.019      7.008
  Name = 
  3 active torsions:
  status: ('A' for Active; 'I' for Inactive)
    1  A    between atoms: C_1  and  N_2
    2  A    between atoms: N_3  and  C_7
    3  A    between atoms: C_10  and  C_13
                            x       y       z     vdW  Elec       q    Type
                         _______ _______ _______ _____ _____    ______ ____

>  <TORSDO>
F 3

$$$$
