=
 OpenBabel11052414393D

 32 36  0  0  0  0  0  0  0  0999 V2000
  188.8020  177.7190  142.8690 C   0  0  0  0  0  0  0  0  0  0  0  0
  186.0610  178.2330  142.9050 C   0  0  0  0  0  0  0  0  0  0  0  0
  190.1890  177.5090  142.8790 C   0  0  0  0  0  3  0  0  0  0  0  0
  188.1280  177.9320  141.6320 C   0  0  0  0  0  0  0  0  0  0  0  0
  186.0210  178.4010  140.5170 N   0  0  0  0  0  0  0  0  0  0  0  0
  182.6000  178.8170  144.1500 C   0  0  0  0  0  3  0  0  0  0  0  0
  186.7320  178.1860  141.6610 C   0  0  0  0  0  0  0  0  0  0  0  0
  182.6170  178.9740  141.7320 C   0  0  0  0  0  3  0  0  0  0  0  0
  183.9900  178.7100  141.7240 C   0  0  0  0  0  0  0  0  0  0  0  0
  188.8840  177.8920  140.4250 C   0  0  0  0  0  0  0  0  0  0  0  0
  184.6870  178.6560  140.5200 C   0  0  0  0  0  3  0  0  0  0  0  0
  190.2670  177.6670  140.4800 C   0  0  0  0  0  3  0  0  0  0  0  0
  186.7460  178.0190  144.0560 N   0  0  0  0  0  0  0  0  0  0  0  0
  188.0770  177.7500  144.0800 C   0  0  0  0  0  0  0  0  0  0  0  0
  184.6810  178.4970  142.9360 C   0  0  0  0  0  0  0  0  0  0  0  0
  190.9160  177.4810  141.6940 C   0  0  0  0  0  3  0  0  0  0  0  0
  181.9230  179.0260  142.9450 C   0  0  0  0  0  3  0  0  0  0  0  0
  183.9730  178.5520  144.1470 C   0  0  0  0  0  3  0  0  0  0  0  0
  188.6620  177.5590  147.8270 C   0  0  0  0  0  0  0  0  0  0  0  0
  187.9980  177.7780  148.9880 F   0  0  0  0  0  0  0  0  0  0  0  0
  188.7130  177.5290  145.3960 C   0  0  0  0  0  0  0  0  0  0  0  0
  189.9940  177.1430  147.8600 C   0  0  0  0  0  3  0  0  0  0  0  0
  190.0540  177.1280  145.4430 C   0  0  0  0  0  3  0  0  0  0  0  0
  188.0190  177.7620  146.6000 C   0  0  0  0  0  0  0  0  0  0  0  0
  186.7400  178.2160  146.5860 F   0  0  0  0  0  0  0  0  0  0  0  0
  190.6990  176.9290  146.6660 C   0  0  0  0  0  0  0  0  0  0  0  0
  192.5690  175.6420  147.6480 C   0  0  0  0  0  1  0  0  0  0  0  0
  192.0360  176.5200  146.6660 O   0  0  0  0  0  0  0  0  0  0  0  0
  188.2620  178.0830  139.1490 N   0  0  0  0  0  2  0  0  0  0  0  0
  188.9610  178.6050  137.9830 C   0  0  0  0  0  2  0  0  0  0  0  0
  188.0760  179.3460  137.2040 O   0  0  0  0  0  0  0  0  0  0  0  0
  187.0800  178.4400  136.8480 C   0  0  0  0  0  1  0  0  0  0  0  0
  1  3  1  0  0  0  0
  1 14  1  0  0  0  0
  2 15  1  0  0  0  0
  2 13  1  0  0  0  0
  4  7  1  0  0  0  0
  4  1  2  0  0  0  0
  5 11  2  0  0  0  0
  5  7  1  0  0  0  0
  7  2  2  0  0  0  0
  8 17  1  0  0  0  0
  9  8  2  0  0  0  0
  9 15  1  0  0  0  0
 10 12  2  0  0  0  0
 10  4  1  0  0  0  0
 11  9  1  0  0  0  0
 12 16  1  0  0  0  0
 13 14  2  0  0  0  0
 14 21  1  0  0  0  0
 15 18  2  0  0  0  0
 16  3  2  0  0  0  0
 17  6  2  0  0  0  0
 18  6  1  0  0  0  0
 19 22  1  0  0  0  0
 19 20  1  0  0  0  0
 21 23  2  0  0  0  0
 21 24  1  0  0  0  0
 23 26  1  0  0  0  0
 24 19  2  0  0  0  0
 25 24  1  0  0  0  0
 26 28  1  0  0  0  0
 26 22  2  0  0  0  0
 28 27  1  0  0  0  0
 29 10  1  0  0  0  0
 30 29  1  0  0  0  0
 31 30  1  0  0  0  0
 32 31  1  0  0  0  0
M  END
>  <MODEL>
1

>  <REMARK>
 VINA RESULT:     -10.6      0.000      0.000
  Name = 
  5 active torsions:
  status: ('A' for Active; 'I' for Inactive)
    1  A    between atoms: O_13  and  C_18
    2  A    between atoms: C_14  and  N_29
    3  A    between atoms: O_15  and  C_26
    4  A    between atoms: C_16  and  C_27
    5  A    between atoms: C_18  and  N_29
                            x       y       z     vdW  Elec       q    Type
                         _______ _______ _______ _____ _____    ______ ____

>  <TORSDO>
F 5

$$$$
=
 OpenBabel11052414393D

 32 36  0  0  0  0  0  0  0  0999 V2000
  189.5340  177.4000  142.5890 C   0  0  0  0  0  0  0  0  0  0  0  0
  186.9290  178.0200  143.3700 C   0  0  0  0  0  0  0  0  0  0  0  0
  190.8240  177.0400  142.1740 C   0  0  0  0  0  3  0  0  0  0  0  0
  189.2310  177.4640  143.9800 C   0  0  0  0  0  0  0  0  0  0  0  0
  187.5410  177.8640  145.6790 N   0  0  0  0  0  0  0  0  0  0  0  0
  183.3070  178.8700  143.2030 C   0  0  0  0  0  3  0  0  0  0  0  0
  187.9040  177.7860  144.3670 C   0  0  0  0  0  0  0  0  0  0  0  0
  183.9820  178.7020  145.5230 C   0  0  0  0  0  3  0  0  0  0  0  0
  185.2870  178.3970  145.1220 C   0  0  0  0  0  0  0  0  0  0  0  0
  190.2680  177.1910  144.9190 C   0  0  0  0  0  0  0  0  0  0  0  0
  186.2760  178.1610  146.0730 C   0  0  0  0  0  3  0  0  0  0  0  0
  191.5470  176.8470  144.4590 C   0  0  0  0  0  3  0  0  0  0  0  0
  187.2670  177.9510  142.0580 N   0  0  0  0  0  0  0  0  0  0  0  0
  188.5260  177.6680  141.6370 C   0  0  0  0  0  0  0  0  0  0  0  0
  185.6110  178.3270  143.7510 C   0  0  0  0  0  0  0  0  0  0  0  0
  191.8250  176.7690  143.1000 C   0  0  0  0  0  3  0  0  0  0  0  0
  182.9940  178.9380  144.5630 C   0  0  0  0  0  3  0  0  0  0  0  0
  184.6110  178.5660  142.7960 C   0  0  0  0  0  3  0  0  0  0  0  0
  188.0710  177.9860  137.8810 C   0  0  0  0  0  0  0  0  0  0  0  0
  187.1440  178.4030  136.9850 F   0  0  0  0  0  0  0  0  0  0  0  0
  188.7750  177.6270  140.1800 C   0  0  0  0  0  0  0  0  0  0  0  0
  189.2880  177.4720  137.4290 C   0  0  0  0  0  3  0  0  0  0  0  0
  189.9850  177.0980  139.7140 C   0  0  0  0  0  3  0  0  0  0  0  0
  187.8060  178.0580  139.2540 C   0  0  0  0  0  0  0  0  0  0  0  0
  186.5980  178.5130  139.6740 F   0  0  0  0  0  0  0  0  0  0  0  0
  190.2510  177.0210  138.3440 C   0  0  0  0  0  0  0  0  0  0  0  0
  192.6780  176.6610  138.6600 C   0  0  0  0  0  1  0  0  0  0  0  0
  191.4750  176.4930  137.9220 O   0  0  0  0  0  0  0  0  0  0  0  0
  190.0310  177.2550  146.3310 N   0  0  0  0  0  2  0  0  0  0  0  0
  190.6560  176.3580  147.2920 C   0  0  0  0  0  2  0  0  0  0  0  0
  191.8730  176.8940  147.7060 O   0  0  0  0  0  0  0  0  0  0  0  0
  192.6370  175.7870  148.0690 C   0  0  0  0  0  1  0  0  0  0  0  0
  1  4  1  0  0  0  0
  2 15  2  0  0  0  0
  2  7  1  0  0  0  0
  3  1  2  0  0  0  0
  3 16  1  0  0  0  0
  4  7  1  0  0  0  0
  4 10  2  0  0  0  0
  5 11  1  0  0  0  0
  6 17  1  0  0  0  0
  7  5  2  0  0  0  0
  9  8  1  0  0  0  0
  9 11  2  0  0  0  0
 10 29  1  0  0  0  0
 12 10  1  0  0  0  0
 13  2  1  0  0  0  0
 14 13  2  0  0  0  0
 14  1  1  0  0  0  0
 15  9  1  0  0  0  0
 16 12  2  0  0  0  0
 17  8  2  0  0  0  0
 18  6  2  0  0  0  0
 18 15  1  0  0  0  0
 19 24  1  0  0  0  0
 20 19  1  0  0  0  0
 21 14  1  0  0  0  0
 22 19  2  0  0  0  0
 22 26  1  0  0  0  0
 23 21  1  0  0  0  0
 24 25  1  0  0  0  0
 24 21  2  0  0  0  0
 26 23  2  0  0  0  0
 28 26  1  0  0  0  0
 28 27  1  0  0  0  0
 29 30  1  0  0  0  0
 30 31  1  0  0  0  0
 31 32  1  0  0  0  0
M  END
>  <MODEL>
2

>  <REMARK>
 VINA RESULT:     -10.5      2.675      6.527
  Name = 
  5 active torsions:
  status: ('A' for Active; 'I' for Inactive)
    1  A    between atoms: O_13  and  C_18
    2  A    between atoms: C_14  and  N_29
    3  A    between atoms: O_15  and  C_26
    4  A    between atoms: C_16  and  C_27
    5  A    between atoms: C_18  and  N_29
                            x       y       z     vdW  Elec       q    Type
                         _______ _______ _______ _____ _____    ______ ____

>  <TORSDO>
F 5

$$$$
=
 OpenBabel11052414393D

 32 36  0  0  0  0  0  0  0  0999 V2000
  189.3720  177.3130  142.8720 C   0  0  0  0  0  0  0  0  0  0  0  0
  186.6870  177.9970  143.1890 C   0  0  0  0  0  0  0  0  0  0  0  0
  190.7060  176.9200  142.6880 C   0  0  0  0  0  3  0  0  0  0  0  0
  188.8440  177.4250  144.1910 C   0  0  0  0  0  0  0  0  0  0  0  0
  186.9030  177.9040  145.5720 N   0  0  0  0  0  0  0  0  0  0  0  0
  183.1620  178.8980  142.3960 C   0  0  0  0  0  3  0  0  0  0  0  0
  187.4780  177.7800  144.3410 C   0  0  0  0  0  0  0  0  0  0  0  0
  183.4380  178.7920  144.8010 C   0  0  0  0  0  3  0  0  0  0  0  0
  184.7840  178.4550  144.6320 C   0  0  0  0  0  0  0  0  0  0  0  0
  189.7040  177.1650  145.2970 C   0  0  0  0  0  0  0  0  0  0  0  0
  185.5960  178.2330  145.7400 C   0  0  0  0  0  3  0  0  0  0  0  0
  191.0340  176.7870  145.0670 C   0  0  0  0  0  3  0  0  0  0  0  0
  187.2370  177.8820  141.9540 N   0  0  0  0  0  0  0  0  0  0  0  0
  188.5430  177.5670  141.7580 C   0  0  0  0  0  0  0  0  0  0  0  0
  185.3310  178.3360  143.3360 C   0  0  0  0  0  0  0  0  0  0  0  0
  191.5330  176.6620  143.7760 C   0  0  0  0  0  3  0  0  0  0  0  0
  182.6290  179.0140  143.6830 C   0  0  0  0  0  3  0  0  0  0  0  0
  184.5080  178.5620  142.2220 C   0  0  0  0  0  3  0  0  0  0  0  0
  188.7760  177.8850  137.9810 C   0  0  0  0  0  0  0  0  0  0  0  0
  188.0720  178.3970  136.9430 F   0  0  0  0  0  0  0  0  0  0  0  0
  189.0300  177.4760  140.3650 C   0  0  0  0  0  0  0  0  0  0  0  0
  189.9820  177.2240  137.7400 C   0  0  0  0  0  3  0  0  0  0  0  0
  190.2290  176.8010  140.1080 C   0  0  0  0  0  3  0  0  0  0  0  0
  188.2920  178.0070  139.2890 C   0  0  0  0  0  0  0  0  0  0  0  0
  187.0930  178.6080  139.5010 F   0  0  0  0  0  0  0  0  0  0  0  0
  190.7140  176.6740  138.8040 C   0  0  0  0  0  0  0  0  0  0  0  0
  192.9220  176.4780  137.7070 C   0  0  0  0  0  1  0  0  0  0  0  0
  191.9200  175.9990  138.5930 O   0  0  0  0  0  0  0  0  0  0  0  0
  189.2370  177.2770  146.6470 N   0  0  0  0  0  2  0  0  0  0  0  0
  190.1200  177.4490  147.7910 C   0  0  0  0  0  2  0  0  0  0  0  0
  189.5260  178.3090  148.7120 O   0  0  0  0  0  0  0  0  0  0  0  0
  188.1850  177.9280  148.7310 C   0  0  0  0  0  1  0  0  0  0  0  0
  1  4  1  0  0  0  0
  2 15  2  0  0  0  0
  2  7  1  0  0  0  0
  3  1  2  0  0  0  0
  3 16  1  0  0  0  0
  4  7  1  0  0  0  0
  4 10  2  0  0  0  0
  5 11  1  0  0  0  0
  6 17  1  0  0  0  0
  7  5  2  0  0  0  0
  9  8  1  0  0  0  0
  9 11  2  0  0  0  0
 10 29  1  0  0  0  0
 12 10  1  0  0  0  0
 13  2  1  0  0  0  0
 14 13  2  0  0  0  0
 14  1  1  0  0  0  0
 15  9  1  0  0  0  0
 16 12  2  0  0  0  0
 17  8  2  0  0  0  0
 18  6  2  0  0  0  0
 18 15  1  0  0  0  0
 19 24  1  0  0  0  0
 20 19  1  0  0  0  0
 21 14  1  0  0  0  0
 22 19  2  0  0  0  0
 22 26  1  0  0  0  0
 23 21  1  0  0  0  0
 24 25  1  0  0  0  0
 24 21  2  0  0  0  0
 26 23  2  0  0  0  0
 27 28  1  0  0  0  0
 28 26  1  0  0  0  0
 29 30  1  0  0  0  0
 30 31  1  0  0  0  0
 31 32  1  0  0  0  0
M  END
>  <MODEL>
3

>  <REMARK>
 VINA RESULT:     -10.3      2.802      6.442
  Name = 
  5 active torsions:
  status: ('A' for Active; 'I' for Inactive)
    1  A    between atoms: O_13  and  C_18
    2  A    between atoms: C_14  and  N_29
    3  A    between atoms: O_15  and  C_26
    4  A    between atoms: C_16  and  C_27
    5  A    between atoms: C_18  and  N_29
                            x       y       z     vdW  Elec       q    Type
                         _______ _______ _______ _____ _____    ______ ____

>  <TORSDO>
F 5

$$$$
=
 OpenBabel11052414393D

 32 36  0  0  0  0  0  0  0  0999 V2000
  187.5100  178.0300  141.4430 C   0  0  0  0  0  0  0  0  0  0  0  0
  188.9170  177.4260  143.7740 C   0  0  0  0  0  0  0  0  0  0  0  0
  186.7710  178.2880  140.2790 C   0  0  0  0  0  3  0  0  0  0  0  0
  188.8930  177.7020  141.3440 C   0  0  0  0  0  0  0  0  0  0  0  0
  190.9260  177.0780  142.5190 N   0  0  0  0  0  0  0  0  0  0  0  0
  189.6930  176.8170  147.3650 C   0  0  0  0  0  3  0  0  0  0  0  0
  189.6010  177.4020  142.5370 C   0  0  0  0  0  0  0  0  0  0  0  0
  191.6970  176.4800  146.0460 C   0  0  0  0  0  3  0  0  0  0  0  0
  190.9850  176.7900  144.8840 C   0  0  0  0  0  0  0  0  0  0  0  0
  189.5000  177.6770  140.0550 C   0  0  0  0  0  0  0  0  0  0  0  0
  191.6220  176.7780  143.6460 C   0  0  0  0  0  3  0  0  0  0  0  0
  188.7270  177.9530  138.9190 C   0  0  0  0  0  3  0  0  0  0  0  0
  187.6000  177.7480  143.8170 N   0  0  0  0  0  0  0  0  0  0  0  0
  186.8840  178.0640  142.7080 C   0  0  0  0  0  0  0  0  0  0  0  0
  189.6140  177.1170  144.9550 C   0  0  0  0  0  0  0  0  0  0  0  0
  187.3740  178.2530  139.0260 C   0  0  0  0  0  3  0  0  0  0  0  0
  191.0510  176.4940  147.2850 C   0  0  0  0  0  3  0  0  0  0  0  0
  188.9760  177.1280  146.2050 C   0  0  0  0  0  3  0  0  0  0  0  0
  183.5640  179.0450  144.2680 C   0  0  0  0  0  0  0  0  0  0  0  0
  183.0500  179.3770  145.4770 F   0  0  0  0  0  0  0  0  0  0  0  0
  185.4560  178.4050  142.8810 C   0  0  0  0  0  0  0  0  0  0  0  0
  182.7270  178.9870  143.1520 C   0  0  0  0  0  3  0  0  0  0  0  0
  184.6030  178.3340  141.7730 C   0  0  0  0  0  3  0  0  0  0  0  0
  184.9260  178.7470  144.1400 C   0  0  0  0  0  0  0  0  0  0  0  0
  185.7160  178.7570  145.2450 F   0  0  0  0  0  0  0  0  0  0  0  0
  183.2420  178.6280  141.8970 C   0  0  0  0  0  0  0  0  0  0  0  0
  181.0590  178.9360  140.7770 C   0  0  0  0  0  1  0  0  0  0  0  0
  182.4280  178.5530  140.7640 O   0  0  0  0  0  0  0  0  0  0  0  0
  190.8900  177.3710  139.8910 N   0  0  0  0  0  2  0  0  0  0  0  0
  191.4270  176.6640  138.7370 C   0  0  0  0  0  2  0  0  0  0  0  0
  190.9330  175.3610  138.7190 O   0  0  0  0  0  0  0  0  0  0  0  0
  191.4760  174.7980  137.5650 C   0  0  0  0  0  1  0  0  0  0  0  0
  1 14  1  0  0  0  0
  2 13  1  0  0  0  0
  2 15  1  0  0  0  0
  3  1  1  0  0  0  0
  4  1  2  0  0  0  0
  4  7  1  0  0  0  0
  5  7  1  0  0  0  0
  5 11  2  0  0  0  0
  7  2  2  0  0  0  0
  8 17  2  0  0  0  0
  9 15  2  0  0  0  0
  9  8  1  0  0  0  0
 10  4  1  0  0  0  0
 11  9  1  0  0  0  0
 12 16  1  0  0  0  0
 12 10  2  0  0  0  0
 14 21  1  0  0  0  0
 14 13  2  0  0  0  0
 15 18  1  0  0  0  0
 16  3  2  0  0  0  0
 17  6  1  0  0  0  0
 18  6  2  0  0  0  0
 19 20  1  0  0  0  0
 21 24  2  0  0  0  0
 22 19  2  0  0  0  0
 23 26  2  0  0  0  0
 23 21  1  0  0  0  0
 24 19  1  0  0  0  0
 24 25  1  0  0  0  0
 26 22  1  0  0  0  0
 28 27  1  0  0  0  0
 28 26  1  0  0  0  0
 29 10  1  0  0  0  0
 30 29  1  0  0  0  0
 31 30  1  0  0  0  0
 32 31  1  0  0  0  0
M  END
>  <MODEL>
4

>  <REMARK>
 VINA RESULT:     -10.3      2.298      6.350
  Name = 
  5 active torsions:
  status: ('A' for Active; 'I' for Inactive)
    1  A    between atoms: O_13  and  C_18
    2  A    between atoms: C_14  and  N_29
    3  A    between atoms: O_15  and  C_26
    4  A    between atoms: C_16  and  C_27
    5  A    between atoms: C_18  and  N_29
                            x       y       z     vdW  Elec       q    Type
                         _______ _______ _______ _____ _____    ______ ____

>  <TORSDO>
F 5

$$$$
=
 OpenBabel11052414393D

 32 36  0  0  0  0  0  0  0  0999 V2000
  187.5200  177.9540  143.6700 C   0  0  0  0  0  0  0  0  0  0  0  0
  188.9280  177.5870  141.2900 C   0  0  0  0  0  0  0  0  0  0  0  0
  186.8160  178.0830  144.8760 C   0  0  0  0  0  3  0  0  0  0  0  0
  186.8650  178.2310  142.4360 C   0  0  0  0  0  0  0  0  0  0  0  0
  187.0290  178.2910  140.0120 N   0  0  0  0  0  0  0  0  0  0  0  0
  191.6650  176.7530  138.9070 C   0  0  0  0  0  3  0  0  0  0  0  0
  187.5920  178.0470  141.2310 C   0  0  0  0  0  0  0  0  0  0  0  0
  189.7150  177.4750  137.6640 C   0  0  0  0  0  3  0  0  0  0  0  0
  189.0190  177.6610  138.8620 C   0  0  0  0  0  0  0  0  0  0  0  0
  185.5080  178.6670  142.4640 C   0  0  0  0  0  0  0  0  0  0  0  0
  187.7020  178.1120  138.8460 C   0  0  0  0  0  3  0  0  0  0  0  0
  184.8460  178.7940  143.6930 C   0  0  0  0  0  3  0  0  0  0  0  0
  189.5100  177.3410  142.4910 N   0  0  0  0  0  0  0  0  0  0  0  0
  188.8650  177.5230  143.6710 C   0  0  0  0  0  0  0  0  0  0  0  0
  189.6450  177.3930  140.0980 C   0  0  0  0  0  0  0  0  0  0  0  0
  185.4900  178.5020  144.8890 C   0  0  0  0  0  3  0  0  0  0  0  0
  191.0370  177.0220  137.6870 C   0  0  0  0  0  3  0  0  0  0  0  0
  190.9730  176.9380  140.1080 C   0  0  0  0  0  3  0  0  0  0  0  0
  191.4100  176.1280  146.1190 C   0  0  0  0  0  0  0  0  0  0  0  0
  192.5100  175.3370  146.1260 F   0  0  0  0  0  0  0  0  0  0  0  0
  189.6050  177.2260  144.9160 C   0  0  0  0  0  0  0  0  0  0  0  0
  190.9330  176.6590  147.3190 C   0  0  0  0  0  3  0  0  0  0  0  0
  189.1270  177.7390  146.1280 C   0  0  0  0  0  3  0  0  0  0  0  0
  190.7460  176.4010  144.9170 C   0  0  0  0  0  0  0  0  0  0  0  0
  191.1930  175.8340  143.7680 F   0  0  0  0  0  0  0  0  0  0  0  0
  189.7850  177.4660  147.3310 C   0  0  0  0  0  0  0  0  0  0  0  0
  187.8930  178.2470  148.7180 C   0  0  0  0  0  1  0  0  0  0  0  0
  189.2790  178.0060  148.5160 O   0  0  0  0  0  0  0  0  0  0  0  0
  184.8000  178.9770  141.2580 N   0  0  0  0  0  2  0  0  0  0  0  0
  183.4040  178.6280  141.0330 C   0  0  0  0  0  2  0  0  0  0  0  0
  183.1570  178.5580  139.6640 O   0  0  0  0  0  0  0  0  0  0  0  0
  183.8060  179.6710  139.1340 C   0  0  0  0  0  1  0  0  0  0  0  0
  1 14  1  0  0  0  0
  1  3  2  0  0  0  0
  2 13  1  0  0  0  0
  3 16  1  0  0  0  0
  4 10  2  0  0  0  0
  4  1  1  0  0  0  0
  5  7  2  0  0  0  0
  6 18  2  0  0  0  0
  7  2  1  0  0  0  0
  7  4  1  0  0  0  0
  8 17  2  0  0  0  0
  8  9  1  0  0  0  0
  9 15  1  0  0  0  0
 10 12  1  0  0  0  0
 11  9  2  0  0  0  0
 11  5  1  0  0  0  0
 12 16  2  0  0  0  0
 13 14  2  0  0  0  0
 14 21  1  0  0  0  0
 15 18  1  0  0  0  0
 15  2  2  0  0  0  0
 17  6  1  0  0  0  0
 19 20  1  0  0  0  0
 19 22  1  0  0  0  0
 21 24  1  0  0  0  0
 21 23  2  0  0  0  0
 22 26  2  0  0  0  0
 23 26  1  0  0  0  0
 24 19  2  0  0  0  0
 25 24  1  0  0  0  0
 26 28  1  0  0  0  0
 28 27  1  0  0  0  0
 29 10  1  0  0  0  0
 30 29  1  0  0  0  0
 31 30  1  0  0  0  0
 32 31  1  0  0  0  0
M  END
>  <MODEL>
5

>  <REMARK>
 VINA RESULT:     -10.0      2.291      5.113
  Name = 
  5 active torsions:
  status: ('A' for Active; 'I' for Inactive)
    1  A    between atoms: O_13  and  C_18
    2  A    between atoms: C_14  and  N_29
    3  A    between atoms: O_15  and  C_26
    4  A    between atoms: C_16  and  C_27
    5  A    between atoms: C_18  and  N_29
                            x       y       z     vdW  Elec       q    Type
                         _______ _______ _______ _____ _____    ______ ____

>  <TORSDO>
F 5

$$$$
=
 OpenBabel11052414393D

 32 36  0  0  0  0  0  0  0  0999 V2000
  186.3260  178.1580  144.2830 C   0  0  0  0  0  0  0  0  0  0  0  0
  186.8200  178.2280  141.5390 C   0  0  0  0  0  0  0  0  0  0  0  0
  186.0870  178.0680  145.6630 C   0  0  0  0  0  3  0  0  0  0  0  0
  185.2610  178.5060  143.4030 C   0  0  0  0  0  0  0  0  0  0  0  0
  184.5540  178.8680  141.1060 N   0  0  0  0  0  0  0  0  0  0  0  0
  188.5820  177.9790  138.2680 C   0  0  0  0  0  3  0  0  0  0  0  0
  185.5250  178.5440  142.0090 C   0  0  0  0  0  0  0  0  0  0  0  0
  186.2790  178.6270  137.8880 C   0  0  0  0  0  3  0  0  0  0  0  0
  186.0420  178.5950  139.2650 C   0  0  0  0  0  0  0  0  0  0  0  0
  183.9790  178.7870  143.9580 C   0  0  0  0  0  0  0  0  0  0  0  0
  184.7800  178.9010  139.7680 C   0  0  0  0  0  3  0  0  0  0  0  0
  183.7880  178.6970  145.3430 C   0  0  0  0  0  3  0  0  0  0  0  0
  187.8030  177.9060  142.4180 N   0  0  0  0  0  0  0  0  0  0  0  0
  187.6070  177.8770  143.7610 C   0  0  0  0  0  0  0  0  0  0  0  0
  187.0800  178.2530  140.1580 C   0  0  0  0  0  0  0  0  0  0  0  0
  184.8290  178.3380  146.1900 C   0  0  0  0  0  3  0  0  0  0  0  0
  187.5480  178.3200  137.3910 C   0  0  0  0  0  3  0  0  0  0  0  0
  188.3500  177.9460  139.6470 C   0  0  0  0  0  3  0  0  0  0  0  0
  190.9480  176.5180  144.9480 C   0  0  0  0  0  0  0  0  0  0  0  0
  192.0400  175.8860  144.4530 F   0  0  0  0  0  0  0  0  0  0  0  0
  188.7560  177.5180  144.6190 C   0  0  0  0  0  0  0  0  0  0  0  0
  190.8790  176.8170  146.3100 C   0  0  0  0  0  3  0  0  0  0  0  0
  188.6920  177.7970  145.9900 C   0  0  0  0  0  3  0  0  0  0  0  0
  189.8870  176.8590  144.1000 C   0  0  0  0  0  0  0  0  0  0  0  0
  189.9470  176.5140  142.7880 F   0  0  0  0  0  0  0  0  0  0  0  0
  189.7480  177.4560  146.8400 C   0  0  0  0  0  0  0  0  0  0  0  0
  188.4070  178.0560  148.8290 C   0  0  0  0  0  1  0  0  0  0  0  0
  189.6460  177.7610  148.2000 O   0  0  0  0  0  0  0  0  0  0  0  0
  182.8720  179.1590  143.1270 N   0  0  0  0  0  2  0  0  0  0  0  0
  181.4800  179.0120  143.5290 C   0  0  0  0  0  2  0  0  0  0  0  0
  180.6600  179.6680  142.6130 O   0  0  0  0  0  0  0  0  0  0  0  0
  180.8910  179.0120  141.4050 C   0  0  0  0  0  1  0  0  0  0  0  0
  1  3  2  0  0  0  0
  2  7  1  0  0  0  0
  2 13  1  0  0  0  0
  3 16  1  0  0  0  0
  4 10  2  0  0  0  0
  4  1  1  0  0  0  0
  5  7  2  0  0  0  0
  6 18  2  0  0  0  0
  7  4  1  0  0  0  0
  8  9  1  0  0  0  0
  9 11  2  0  0  0  0
  9 15  1  0  0  0  0
 10 12  1  0  0  0  0
 11  5  1  0  0  0  0
 12 16  2  0  0  0  0
 13 14  2  0  0  0  0
 14  1  1  0  0  0  0
 14 21  1  0  0  0  0
 15  2  2  0  0  0  0
 17  8  2  0  0  0  0
 17  6  1  0  0  0  0
 18 15  1  0  0  0  0
 19 22  1  0  0  0  0
 20 19  1  0  0  0  0
 21 23  2  0  0  0  0
 22 26  2  0  0  0  0
 23 26  1  0  0  0  0
 24 21  1  0  0  0  0
 24 19  2  0  0  0  0
 25 24  1  0  0  0  0
 26 28  1  0  0  0  0
 28 27  1  0  0  0  0
 29 30  1  0  0  0  0
 29 10  1  0  0  0  0
 31 30  1  0  0  0  0
 32 31  1  0  0  0  0
M  END
>  <MODEL>
6

>  <REMARK>
 VINA RESULT:      -9.9      2.628      5.173
  Name = 
  5 active torsions:
  status: ('A' for Active; 'I' for Inactive)
    1  A    between atoms: O_13  and  C_18
    2  A    between atoms: C_14  and  N_29
    3  A    between atoms: O_15  and  C_26
    4  A    between atoms: C_16  and  C_27
    5  A    between atoms: C_18  and  N_29
                            x       y       z     vdW  Elec       q    Type
                         _______ _______ _______ _____ _____    ______ ____

>  <TORSDO>
F 5

$$$$
=
 OpenBabel11052414393D

 32 36  0  0  0  0  0  0  0  0999 V2000
  189.4560  177.7380  142.9220 C   0  0  0  0  0  0  0  0  0  0  0  0
  186.7180  178.1640  143.2370 C   0  0  0  0  0  0  0  0  0  0  0  0
  190.8210  177.4730  142.7420 C   0  0  0  0  0  3  0  0  0  0  0  0
  188.9300  177.8810  144.2380 C   0  0  0  0  0  0  0  0  0  0  0  0
  186.9640  178.2480  145.6170 N   0  0  0  0  0  0  0  0  0  0  0  0
  183.1110  178.6470  142.4430 C   0  0  0  0  0  3  0  0  0  0  0  0
  187.5370  178.1030  144.3870 C   0  0  0  0  0  0  0  0  0  0  0  0
  183.4180  178.7250  144.8450 C   0  0  0  0  0  3  0  0  0  0  0  0
  184.7910  178.5170  144.6770 C   0  0  0  0  0  0  0  0  0  0  0  0
  189.8230  177.7830  145.3450 C   0  0  0  0  0  0  0  0  0  0  0  0
  185.6310  178.4520  145.7840 C   0  0  0  0  0  3  0  0  0  0  0  0
  191.1830  177.5290  145.1190 C   0  0  0  0  0  3  0  0  0  0  0  0
  187.2650  178.0260  142.0030 N   0  0  0  0  0  0  0  0  0  0  0  0
  188.5950  177.8330  141.8070 C   0  0  0  0  0  0  0  0  0  0  0  0
  185.3350  178.3710  143.3830 C   0  0  0  0  0  0  0  0  0  0  0  0
  191.6800  177.3710  143.8310 C   0  0  0  0  0  3  0  0  0  0  0  0
  182.5800  178.7910  143.7280 C   0  0  0  0  0  3  0  0  0  0  0  0
  184.4830  178.4390  142.2690 C   0  0  0  0  0  3  0  0  0  0  0  0
  190.4950  176.6700  138.7320 C   0  0  0  0  0  0  0  0  0  0  0  0
  191.4300  175.7540  138.3820 F   0  0  0  0  0  0  0  0  0  0  0  0
  189.0760  177.7020  140.4150 C   0  0  0  0  0  0  0  0  0  0  0  0
  189.9850  177.5420  137.7680 C   0  0  0  0  0  3  0  0  0  0  0  0
  188.5840  178.5820  139.4420 C   0  0  0  0  0  3  0  0  0  0  0  0
  190.0500  176.7510  140.0570 C   0  0  0  0  0  0  0  0  0  0  0  0
  190.5940  175.9310  140.9920 F   0  0  0  0  0  0  0  0  0  0  0  0
  189.0280  178.5060  138.1190 C   0  0  0  0  0  0  0  0  0  0  0  0
  187.5530  179.0070  136.1980 C   0  0  0  0  0  1  0  0  0  0  0  0
  188.5050  179.3980  137.1780 O   0  0  0  0  0  0  0  0  0  0  0  0
  189.3590  177.9330  146.6930 N   0  0  0  0  0  2  0  0  0  0  0  0
  189.4340  176.8770  147.6920 C   0  0  0  0  0  2  0  0  0  0  0  0
  188.2760  176.8860  148.4650 O   0  0  0  0  0  0  0  0  0  0  0  0
  188.1170  178.2180  148.8430 C   0  0  0  0  0  1  0  0  0  0  0  0
  1  4  1  0  0  0  0
  2 15  2  0  0  0  0
  2  7  1  0  0  0  0
  3  1  2  0  0  0  0
  3 16  1  0  0  0  0
  4  7  1  0  0  0  0
  4 10  2  0  0  0  0
  5 11  1  0  0  0  0
  6 17  1  0  0  0  0
  7  5  2  0  0  0  0
  9  8  1  0  0  0  0
  9 11  2  0  0  0  0
 10 29  1  0  0  0  0
 12 10  1  0  0  0  0
 13  2  1  0  0  0  0
 14 13  2  0  0  0  0
 14  1  1  0  0  0  0
 15  9  1  0  0  0  0
 16 12  2  0  0  0  0
 17  8  2  0  0  0  0
 18  6  2  0  0  0  0
 18 15  1  0  0  0  0
 19 24  1  0  0  0  0
 20 19  1  0  0  0  0
 21 14  1  0  0  0  0
 22 26  1  0  0  0  0
 22 19  2  0  0  0  0
 23 21  1  0  0  0  0
 24 21  2  0  0  0  0
 24 25  1  0  0  0  0
 26 23  2  0  0  0  0
 27 28  1  0  0  0  0
 28 26  1  0  0  0  0
 29 30  1  0  0  0  0
 30 31  1  0  0  0  0
 31 32  1  0  0  0  0
M  END
>  <MODEL>
7

>  <REMARK>
 VINA RESULT:      -9.9      2.588      6.698
  Name = 
  5 active torsions:
  status: ('A' for Active; 'I' for Inactive)
    1  A    between atoms: O_13  and  C_18
    2  A    between atoms: C_14  and  N_29
    3  A    between atoms: O_15  and  C_26
    4  A    between atoms: C_16  and  C_27
    5  A    between atoms: C_18  and  N_29
                            x       y       z     vdW  Elec       q    Type
                         _______ _______ _______ _____ _____    ______ ____

>  <TORSDO>
F 5

$$$$
=
 OpenBabel11052414393D

 32 36  0  0  0  0  0  0  0  0999 V2000
  185.3110  178.3420  143.9940 C   0  0  0  0  0  0  0  0  0  0  0  0
  187.6030  177.8710  142.4780 C   0  0  0  0  0  0  0  0  0  0  0  0
  184.1560  178.6310  144.7370 C   0  0  0  0  0  3  0  0  0  0  0  0
  186.5340  178.0650  144.6690 C   0  0  0  0  0  0  0  0  0  0  0  0
  188.9000  177.5500  144.4650 N   0  0  0  0  0  0  0  0  0  0  0  0
  189.8700  177.4500  139.5530 C   0  0  0  0  0  3  0  0  0  0  0  0
  187.6940  177.8210  143.8880 C   0  0  0  0  0  0  0  0  0  0  0  0
  191.1340  177.1330  141.5960 C   0  0  0  0  0  3  0  0  0  0  0  0
  189.9780  177.3640  142.3470 C   0  0  0  0  0  0  0  0  0  0  0  0
  186.5430  178.0570  146.0940 C   0  0  0  0  0  0  0  0  0  0  0  0
  190.0250  177.3230  143.7380 C   0  0  0  0  0  3  0  0  0  0  0  0
  185.3640  178.3390  146.7960 C   0  0  0  0  0  3  0  0  0  0  0  0
  186.4140  178.1350  141.8810 N   0  0  0  0  0  0  0  0  0  0  0  0
  185.2720  178.3540  142.5830 C   0  0  0  0  0  0  0  0  0  0  0  0
  188.7540  177.6420  141.7030 C   0  0  0  0  0  0  0  0  0  0  0  0
  184.1810  178.6280  146.1270 C   0  0  0  0  0  3  0  0  0  0  0  0
  191.0790  177.1750  140.2000 C   0  0  0  0  0  3  0  0  0  0  0  0
  188.7110  177.6820  140.3000 C   0  0  0  0  0  3  0  0  0  0  0  0
  182.8750  179.2040  139.7640 C   0  0  0  0  0  0  0  0  0  0  0  0
  182.8990  179.4970  138.4410 F   0  0  0  0  0  0  0  0  0  0  0  0
  184.0350  178.6260  141.8210 C   0  0  0  0  0  0  0  0  0  0  0  0
  181.6570  179.1860  140.4460 C   0  0  0  0  0  3  0  0  0  0  0  0
  182.8090  178.6280  142.4970 C   0  0  0  0  0  3  0  0  0  0  0  0
  184.0670  178.9340  140.4470 C   0  0  0  0  0  0  0  0  0  0  0  0
  185.2470  179.0070  139.7800 F   0  0  0  0  0  0  0  0  0  0  0  0
  181.6170  178.9010  141.8190 C   0  0  0  0  0  0  0  0  0  0  0  0
  180.3550  178.6270  143.9280 C   0  0  0  0  0  1  0  0  0  0  0  0
  180.4150  178.8830  142.5320 O   0  0  0  0  0  0  0  0  0  0  0  0
  187.7380  177.7690  146.8300 N   0  0  0  0  0  2  0  0  0  0  0  0
  187.9580  178.1950  148.2050 C   0  0  0  0  0  2  0  0  0  0  0  0
  189.3250  178.2290  148.4680 O   0  0  0  0  0  0  0  0  0  0  0  0
  189.8520  177.1790  147.7180 C   0  0  0  0  0  1  0  0  0  0  0  0
  1  4  1  0  0  0  0
  1  3  2  0  0  0  0
  2  7  1  0  0  0  0
  3 16  1  0  0  0  0
  4 10  2  0  0  0  0
  6 17  1  0  0  0  0
  6 18  2  0  0  0  0
  7  5  2  0  0  0  0
  7  4  1  0  0  0  0
  8  9  1  0  0  0  0
  9 11  2  0  0  0  0
 10 12  1  0  0  0  0
 10 29  1  0  0  0  0
 11  5  1  0  0  0  0
 13  2  1  0  0  0  0
 13 14  2  0  0  0  0
 14  1  1  0  0  0  0
 15  9  1  0  0  0  0
 15  2  2  0  0  0  0
 16 12  2  0  0  0  0
 17  8  2  0  0  0  0
 18 15  1  0  0  0  0
 19 22  2  0  0  0  0
 19 24  1  0  0  0  0
 20 19  1  0  0  0  0
 21 23  1  0  0  0  0
 21 14  1  0  0  0  0
 22 26  1  0  0  0  0
 24 21  2  0  0  0  0
 25 24  1  0  0  0  0
 26 23  2  0  0  0  0
 26 28  1  0  0  0  0
 28 27  1  0  0  0  0
 29 30  1  0  0  0  0
 30 31  1  0  0  0  0
 32 31  1  0  0  0  0
M  END
>  <MODEL>
8

>  <REMARK>
 VINA RESULT:      -9.9      3.138      8.103
  Name = 
  5 active torsions:
  status: ('A' for Active; 'I' for Inactive)
    1  A    between atoms: O_13  and  C_18
    2  A    between atoms: C_14  and  N_29
    3  A    between atoms: O_15  and  C_26
    4  A    between atoms: C_16  and  C_27
    5  A    between atoms: C_18  and  N_29
                            x       y       z     vdW  Elec       q    Type
                         _______ _______ _______ _____ _____    ______ ____

>  <TORSDO>
F 5

$$$$
=
 OpenBabel11052414393D

 32 36  0  0  0  0  0  0  0  0999 V2000
  189.3060  177.5650  141.8880 C   0  0  0  0  0  0  0  0  0  0  0  0
  186.7250  178.1400  142.7750 C   0  0  0  0  0  0  0  0  0  0  0  0
  190.6230  177.3180  141.4730 C   0  0  0  0  0  3  0  0  0  0  0  0
  188.3390  178.0120  140.9420 C   0  0  0  0  0  0  0  0  0  0  0  0
  186.0500  178.7290  140.5550 N   0  0  0  0  0  0  0  0  0  0  0  0
  183.7880  178.5900  145.0200 C   0  0  0  0  0  3  0  0  0  0  0  0
  187.0270  178.2960  141.4020 C   0  0  0  0  0  0  0  0  0  0  0  0
  183.1590  179.1720  142.7540 C   0  0  0  0  0  3  0  0  0  0  0  0
  184.4540  178.8760  142.3180 C   0  0  0  0  0  0  0  0  0  0  0  0
  188.7330  178.1650  139.5810 C   0  0  0  0  0  0  0  0  0  0  0  0
  184.7910  179.0160  140.9750 C   0  0  0  0  0  3  0  0  0  0  0  0
  190.0570  177.8960  139.2080 C   0  0  0  0  0  3  0  0  0  0  0  0
  187.6800  177.7070  143.6370 N   0  0  0  0  0  0  0  0  0  0  0  0
  188.9420  177.4010  143.2420 C   0  0  0  0  0  0  0  0  0  0  0  0
  185.4300  178.4330  143.2350 C   0  0  0  0  0  0  0  0  0  0  0  0
  190.9970  177.4790  140.1430 C   0  0  0  0  0  3  0  0  0  0  0  0
  182.8280  179.0280  144.1040 C   0  0  0  0  0  3  0  0  0  0  0  0
  185.0850  178.2920  144.5880 C   0  0  0  0  0  3  0  0  0  0  0  0
  191.6930  175.4770  145.0160 C   0  0  0  0  0  0  0  0  0  0  0  0
  192.5880  174.4910  144.7680 F   0  0  0  0  0  0  0  0  0  0  0  0
  189.8940  176.9340  144.2720 C   0  0  0  0  0  0  0  0  0  0  0  0
  191.6350  176.0550  146.2860 C   0  0  0  0  0  3  0  0  0  0  0  0
  189.8350  177.4940  145.5540 C   0  0  0  0  0  3  0  0  0  0  0  0
  190.8200  175.9060  144.0090 C   0  0  0  0  0  0  0  0  0  0  0  0
  190.8550  175.2980  142.7960 F   0  0  0  0  0  0  0  0  0  0  0  0
  190.7020  177.0660  146.5630 C   0  0  0  0  0  0  0  0  0  0  0  0
  189.3950  178.1650  148.3520 C   0  0  0  0  0  1  0  0  0  0  0  0
  190.6140  177.6580  147.8260 O   0  0  0  0  0  0  0  0  0  0  0  0
  187.8030  178.5960  138.5790 N   0  0  0  0  0  2  0  0  0  0  0  0
  187.6100  177.9060  137.3120 C   0  0  0  0  0  2  0  0  0  0  0  0
  186.8970  176.7290  137.5270 O   0  0  0  0  0  0  0  0  0  0  0  0
  187.7010  175.7280  136.9860 C   0  0  0  0  0  1  0  0  0  0  0  0
  1 14  1  0  0  0  0
  2 15  1  0  0  0  0
  2 13  1  0  0  0  0
  3  1  1  0  0  0  0
  4  7  1  0  0  0  0
  4  1  2  0  0  0  0
  5 11  2  0  0  0  0
  5  7  1  0  0  0  0
  7  2  2  0  0  0  0
  8 17  1  0  0  0  0
  9  8  2  0  0  0  0
  9 15  1  0  0  0  0
 10  4  1  0  0  0  0
 11  9  1  0  0  0  0
 12 10  2  0  0  0  0
 12 16  1  0  0  0  0
 14 13  2  0  0  0  0
 14 21  1  0  0  0  0
 15 18  2  0  0  0  0
 16  3  2  0  0  0  0
 17  6  2  0  0  0  0
 18  6  1  0  0  0  0
 19 22  1  0  0  0  0
 20 19  1  0  0  0  0
 21 23  2  0  0  0  0
 22 26  2  0  0  0  0
 23 26  1  0  0  0  0
 24 21  1  0  0  0  0
 24 19  2  0  0  0  0
 25 24  1  0  0  0  0
 26 28  1  0  0  0  0
 28 27  1  0  0  0  0
 29 10  1  0  0  0  0
 30 31  1  0  0  0  0
 30 29  1  0  0  0  0
 32 31  1  0  0  0  0
M  END
>  <MODEL>
9

>  <REMARK>
 VINA RESULT:      -9.8      2.082      2.506
  Name = 
  5 active torsions:
  status: ('A' for Active; 'I' for Inactive)
    1  A    between atoms: O_13  and  C_18
    2  A    between atoms: C_14  and  N_29
    3  A    between atoms: O_15  and  C_26
    4  A    between atoms: C_16  and  C_27
    5  A    between atoms: C_18  and  N_29
                            x       y       z     vdW  Elec       q    Type
                         _______ _______ _______ _____ _____    ______ ____

>  <TORSDO>
F 5

$$$$
