=
 OpenBabel11052413353D

 28 32  0  0  1  0  0  0  0  0999 V2000
  184.2170  179.0520  142.2550 C   0  0  0  0  0  3  0  0  0  0  0  0
  178.9310  180.8330  140.2440 O   0  0  0  0  0  1  0  0  0  0  0  0
  182.2450  178.6720  143.6040 C   0  0  0  0  0  0  0  0  0  0  0  0
  181.9460  178.8360  141.1370 C   0  0  2  0  0  3  0  0  0  0  0  0
  184.3670  178.9070  144.6530 C   0  0  0  0  0  0  0  0  0  0  0  0
  182.8350  178.8380  142.3390 C   0  0  0  0  0  0  0  0  0  0  0  0
  179.6350  179.2130  142.5770 S   0  0  0  0  0  0  0  0  0  0  0  0
  183.0250  178.6980  144.7190 N   0  0  0  0  0  0  0  0  0  0  0  0
  180.3640  179.4430  138.8620 C   0  0  2  0  0  3  0  0  0  0  0  0
  182.6340  179.0870  139.8000 C   0  0  0  0  0  2  0  0  0  0  0  0
  180.7810  178.3520  143.7460 C   0  0  0  0  0  2  0  0  0  0  0  0
  180.2500  180.4060  140.0650 C   0  0  2  0  0  3  0  0  0  0  0  0
  185.1760  178.9340  145.9000 C   0  0  0  0  0  1  0  0  0  0  0  0
  184.9880  179.0860  143.4170 C   0  0  0  0  0  3  0  0  0  0  0  0
  180.8540  179.8610  141.3730 C   0  0  2  0  0  3  0  0  0  0  0  0
  181.7070  178.8120  138.6810 N   0  0  1  0  0  0  0  0  0  0  0  0
  181.6000  177.3450  138.3900 C   0  0  1  0  0  0  0  0  0  0  0  0
  181.4450  177.0330  136.8880 C   0  0  2  0  0  3  0  0  0  0  0  0
  183.0960  175.6600  137.6390 C   0  0  2  0  0  0  0  0  0  0  0  0
  184.0660  176.7910  137.9210 C   0  0  0  0  0  2  0  0  0  0  0  0
  182.8380  176.5570  138.8120 C   0  0  1  0  0  3  0  0  0  0  0  0
  183.5120  174.2500  137.9980 C   0  0  0  0  0  1  0  0  0  0  0  0
  180.4170  176.7090  139.1220 C   0  0  0  0  0  1  0  0  0  0  0  0
  182.1520  175.8450  136.6070 O   0  0  0  0  0  0  0  0  0  0  0  0
  181.9660  178.1320  135.9620 C   0  0  0  0  0  2  0  0  0  0  0  0
  182.2860  177.5570  134.5960 C   0  0  0  0  0  1  0  0  0  0  0  0
  180.8070  181.2180  137.3050 O   0  0  0  0  0  1  0  0  0  0  0  0
  179.9340  180.1670  137.5910 C   0  0  0  0  0  2  0  0  0  0  0  0
  1  6  2  0  0  0  0
  1 14  1  0  0  0  0
  3 11  1  0  0  0  0
  3  8  2  0  0  0  0
  4 10  1  6  0  0  0
  4 15  1  0  0  0  0
  4  6  1  0  0  0  0
  5  8  1  0  0  0  0
  5 13  1  0  0  0  0
  6  3  1  0  0  0  0
  7 11  1  0  0  0  0
  9 28  1  6  0  0  0
  9 12  1  0  0  0  0
 12  2  1  1  0  0  0
 12 15  1  0  0  0  0
 14  5  2  0  0  0  0
 15  7  1  1  0  0  0
 16  9  1  0  0  0  0
 16 10  1  1  0  0  0
 17 16  1  0  0  0  0
 17 21  1  0  0  0  0
 17 23  1  1  0  0  0
 18 25  1  6  0  0  0
 18 17  1  0  0  0  0
 19 20  1  0  0  0  0
 19 22  1  1  0  0  0
 19 21  1  0  0  0  0
 21 20  1  6  0  0  0
 24 18  1  0  0  0  0
 24 19  1  0  0  0  0
 26 25  1  0  0  0  0
 27 28  1  0  0  0  0
M  END
>  <MODEL>
1

>  <REMARK>
 VINA RESULT:      -5.3      0.000      0.000
  Name = 
  3 active torsions:
  status: ('A' for Active; 'I' for Inactive)
    1  A    between atoms: C_1  and  N_27
    2  A    between atoms: C_2  and  C_3
    3  A    between atoms: C_16  and  C_21
                            x       y       z     vdW  Elec       q    Type
                         _______ _______ _______ _____ _____    ______ ____

>  <TORSDO>
F 3

$$$$
=
 OpenBabel11052413353D

 28 32  0  0  1  0  0  0  0  0999 V2000
  185.8200  173.5180  137.4980 C   0  0  0  0  0  3  0  0  0  0  0  0
  186.5490  179.3420  136.6590 O   0  0  0  0  0  1  0  0  0  0  0  0
  184.6500  174.6100  135.6850 C   0  0  0  0  0  0  0  0  0  0  0  0
  186.7830  175.6300  136.4660 C   0  0  2  0  0  3  0  0  0  0  0  0
  183.7310  172.6510  136.6730 C   0  0  0  0  0  0  0  0  0  0  0  0
  185.7530  174.5500  136.5530 C   0  0  0  0  0  0  0  0  0  0  0  0
  185.1850  177.3370  135.0210 S   0  0  0  0  0  0  0  0  0  0  0  0
  183.6810  173.6580  135.7590 N   0  0  0  0  0  0  0  0  0  0  0  0
  188.4770  177.8760  136.8270 C   0  0  2  0  0  3  0  0  0  0  0  0
  187.9210  175.5470  137.4780 C   0  0  0  0  0  2  0  0  0  0  0  0
  184.5720  175.6450  134.5940 C   0  0  0  0  0  2  0  0  0  0  0  0
  186.9720  178.0880  137.1080 C   0  0  2  0  0  3  0  0  0  0  0  0
  182.6450  171.6380  136.7210 C   0  0  0  0  0  1  0  0  0  0  0  0
  184.8050  172.5620  137.5600 C   0  0  0  0  0  3  0  0  0  0  0  0
  186.0650  176.9590  136.5840 C   0  0  2  0  0  3  0  0  0  0  0  0
  188.9920  176.5070  137.1320 N   0  0  1  0  0  0  0  0  0  0  0  0
  189.8790  175.9880  136.0400 C   0  0  1  0  0  0  0  0  0  0  0  0
  191.3800  176.1840  136.3310 C   0  0  2  0  0  3  0  0  0  0  0  0
  191.1520  174.0130  135.6960 C   0  0  2  0  0  0  0  0  0  0  0  0
  190.3480  173.6180  136.9200 C   0  0  0  0  0  2  0  0  0  0  0  0
  189.7330  174.4840  135.8120 C   0  0  1  0  0  3  0  0  0  0  0  0
  191.3860  172.9690  134.6240 C   0  0  0  0  0  1  0  0  0  0  0  0
  189.5730  176.6570  134.6990 C   0  0  0  0  0  1  0  0  0  0  0  0
  192.0790  175.0670  135.8280 O   0  0  0  0  0  0  0  0  0  0  0  0
  191.7180  176.3340  137.8150 C   0  0  0  0  0  2  0  0  0  0  0  0
  193.1960  176.0860  138.0430 C   0  0  0  0  0  1  0  0  0  0  0  0
  188.9380  178.9550  138.9240 O   0  0  0  0  0  1  0  0  0  0  0  0
  189.2850  178.9340  137.5720 C   0  0  0  0  0  2  0  0  0  0  0  0
  1 14  1  0  0  0  0
  3  8  2  0  0  0  0
  3  6  1  0  0  0  0
  4  6  1  0  0  0  0
  4 15  1  0  0  0  0
  4 10  1  1  0  0  0
  5 13  1  0  0  0  0
  5 14  2  0  0  0  0
  6  1  2  0  0  0  0
  8  5  1  0  0  0  0
  9 12  1  0  0  0  0
  9 16  1  0  0  0  0
  9 28  1  1  0  0  0
 11  7  1  0  0  0  0
 11  3  1  0  0  0  0
 12  2  1  6  0  0  0
 15  7  1  6  0  0  0
 15 12  1  0  0  0  0
 16 10  1  6  0  0  0
 17 23  1  6  0  0  0
 17 18  1  0  0  0  0
 17 16  1  0  0  0  0
 18 25  1  1  0  0  0
 19 22  1  6  0  0  0
 19 21  1  0  0  0  0
 19 24  1  0  0  0  0
 19 20  1  0  0  0  0
 21 17  1  0  0  0  0
 21 20  1  1  0  0  0
 24 18  1  0  0  0  0
 25 26  1  0  0  0  0
 28 27  1  0  0  0  0
M  END
>  <MODEL>
2

>  <REMARK>
 VINA RESULT:      -5.1      6.530      9.040
  Name = 
  3 active torsions:
  status: ('A' for Active; 'I' for Inactive)
    1  A    between atoms: C_1  and  N_27
    2  A    between atoms: C_2  and  C_3
    3  A    between atoms: C_16  and  C_21
                            x       y       z     vdW  Elec       q    Type
                         _______ _______ _______ _____ _____    ______ ____

>  <TORSDO>
F 3

$$$$
=
 OpenBabel11052413353D

 28 32  0  0  1  0  0  0  0  0999 V2000
  180.7450  180.3030  135.5520 C   0  0  0  0  0  3  0  0  0  0  0  0
  178.9310  177.5590  140.4850 O   0  0  0  0  0  1  0  0  0  0  0  0
  180.6780  181.5310  137.6350 C   0  0  0  0  0  0  0  0  0  0  0  0
  180.9740  179.0610  137.7560 C   0  0  2  0  0  3  0  0  0  0  0  0
  180.4320  182.6900  135.5720 C   0  0  0  0  0  0  0  0  0  0  0  0
  180.8160  180.3100  136.9510 C   0  0  0  0  0  0  0  0  0  0  0  0
  180.1190  180.2070  140.1040 S   0  0  0  0  0  0  0  0  0  0  0  0
  180.5040  182.6820  136.9300 N   0  0  0  0  0  0  0  0  0  0  0  0
  180.6850  176.5880  139.1160 C   0  0  2  0  0  3  0  0  0  0  0  0
  181.0510  177.7620  136.9600 C   0  0  0  0  0  2  0  0  0  0  0  0
  180.8330  181.6080  139.1300 C   0  0  0  0  0  2  0  0  0  0  0  0
  179.4990  177.5750  139.2080 C   0  0  2  0  0  3  0  0  0  0  0  0
  180.2330  183.9720  134.8470 C   0  0  0  0  0  1  0  0  0  0  0  0
  180.5540  181.4980  134.8570 C   0  0  0  0  0  3  0  0  0  0  0  0
  179.8300  179.0070  138.7490 C   0  0  2  0  0  3  0  0  0  0  0  0
  181.4560  176.6420  137.8370 N   0  0  1  0  0  0  0  0  0  0  0  0
  182.9360  176.6250  138.0750 C   0  0  1  0  0  0  0  0  0  0  0  0
  183.5630  175.2250  137.9080 C   0  0  2  0  0  3  0  0  0  0  0  0
  184.8690  176.6380  136.6950 C   0  0  2  0  0  0  0  0  0  0  0  0
  183.7910  176.9410  135.6720 C   0  0  0  0  0  2  0  0  0  0  0  0
  183.7130  177.5040  137.0970 C   0  0  1  0  0  3  0  0  0  0  0  0
  186.1930  177.3620  136.5790 C   0  0  0  0  0  1  0  0  0  0  0  0
  183.2880  177.1270  139.4770 C   0  0  0  0  0  1  0  0  0  0  0  0
  184.8400  175.3780  137.3280 O   0  0  0  0  0  0  0  0  0  0  0  0
  182.7490  174.2740  137.0320 C   0  0  0  0  0  2  0  0  0  0  0  0
  183.4920  172.9660  136.8470 C   0  0  0  0  0  1  0  0  0  0  0  0
  179.4260  174.7060  138.3140 O   0  0  0  0  0  1  0  0  0  0  0  0
  180.1890  175.1720  139.3870 C   0  0  0  0  0  2  0  0  0  0  0  0
  1  6  1  0  0  0  0
  3 11  1  0  0  0  0
  4 10  1  6  0  0  0
  4 15  1  0  0  0  0
  5  8  2  0  0  0  0
  6  3  2  0  0  0  0
  6  4  1  0  0  0  0
  8  3  1  0  0  0  0
  9 12  1  0  0  0  0
  9 28  1  6  0  0  0
 11  7  1  0  0  0  0
 12  2  1  1  0  0  0
 13  5  1  0  0  0  0
 14  1  2  0  0  0  0
 14  5  1  0  0  0  0
 15 12  1  0  0  0  0
 15  7  1  1  0  0  0
 16 10  1  1  0  0  0
 16 17  1  0  0  0  0
 16  9  1  0  0  0  0
 17 23  1  1  0  0  0
 18 25  1  6  0  0  0
 18 17  1  0  0  0  0
 19 22  1  6  0  0  0
 19 21  1  0  0  0  0
 19 24  1  0  0  0  0
 20 19  1  0  0  0  0
 21 20  1  6  0  0  0
 21 17  1  0  0  0  0
 24 18  1  0  0  0  0
 26 25  1  0  0  0  0
 27 28  1  0  0  0  0
M  END
>  <MODEL>
3

>  <REMARK>
 VINA RESULT:      -4.8      3.366      5.643
  Name = 
  3 active torsions:
  status: ('A' for Active; 'I' for Inactive)
    1  A    between atoms: C_1  and  N_27
    2  A    between atoms: C_2  and  C_3
    3  A    between atoms: C_16  and  C_21
                            x       y       z     vdW  Elec       q    Type
                         _______ _______ _______ _____ _____    ______ ____

>  <TORSDO>
F 3

$$$$
=
 OpenBabel11052413353D

 28 32  0  0  1  0  0  0  0  0999 V2000
  186.9800  178.1050  137.9940 C   0  0  0  0  0  3  0  0  0  0  0  0
  192.5840  176.1710  138.0940 O   0  0  0  0  0  1  0  0  0  0  0  0
  187.4780  175.8710  137.2110 C   0  0  0  0  0  0  0  0  0  0  0  0
  189.0150  176.8780  138.8920 C   0  0  2  0  0  3  0  0  0  0  0  0
  185.5910  177.0330  136.3460 C   0  0  0  0  0  0  0  0  0  0  0  0
  187.7900  176.9630  138.0390 C   0  0  0  0  0  0  0  0  0  0  0  0
  190.0900  174.7540  137.5160 S   0  0  0  0  0  0  0  0  0  0  0  0
  186.3850  175.9300  136.4020 N   0  0  0  0  0  0  0  0  0  0  0  0
  191.5740  177.1080  140.0930 C   0  0  2  0  0  3  0  0  0  0  0  0
  189.3390  178.1180  139.7170 C   0  0  0  0  0  2  0  0  0  0  0  0
  188.2620  174.5880  137.2830 C   0  0  0  0  0  2  0  0  0  0  0  0
  191.5380  176.9760  138.5540 C   0  0  2  0  0  3  0  0  0  0  0  0
  184.4120  177.0530  135.4410 C   0  0  0  0  0  1  0  0  0  0  0  0
  185.8730  178.1410  137.1450 C   0  0  0  0  0  3  0  0  0  0  0  0
  190.1790  176.5230  137.9890 C   0  0  2  0  0  3  0  0  0  0  0  0
  190.4090  177.8240  140.6950 N   0  0  1  0  0  0  0  0  0  0  0  0
  189.8810  177.1140  141.9060 C   0  0  1  0  0  0  0  0  0  0  0  0
  190.3450  177.7480  143.2330 C   0  0  2  0  0  3  0  0  0  0  0  0
  188.0960  177.4750  143.4300 C   0  0  2  0  0  0  0  0  0  0  0  0
  187.7620  178.4970  142.3600 C   0  0  0  0  0  2  0  0  0  0  0  0
  188.3560  177.1300  141.9950 C   0  0  1  0  0  3  0  0  0  0  0  0
  186.9590  176.7080  144.0710 C   0  0  0  0  0  1  0  0  0  0  0  0
  190.2970  175.6420  141.9220 C   0  0  0  0  0  1  0  0  0  0  0  0
  189.2880  177.6540  144.1630 O   0  0  0  0  0  0  0  0  0  0  0  0
  190.7550  179.2160  143.1180 C   0  0  0  0  0  2  0  0  0  0  0  0
  191.6800  179.5930  144.2590 C   0  0  0  0  0  1  0  0  0  0  0  0
  193.9710  176.9620  140.1580 O   0  0  0  0  0  1  0  0  0  0  0  0
  192.8850  177.7630  140.5150 C   0  0  0  0  0  2  0  0  0  0  0  0
  1  6  1  0  0  0  0
  3 11  1  0  0  0  0
  3  6  2  0  0  0  0
  4 10  1  6  0  0  0
  5  8  2  0  0  0  0
  5 14  1  0  0  0  0
  6  4  1  0  0  0  0
  8  3  1  0  0  0  0
  9 28  1  6  0  0  0
  9 16  1  0  0  0  0
 11  7  1  0  0  0  0
 12  2  1  1  0  0  0
 12  9  1  0  0  0  0
 13  5  1  0  0  0  0
 14  1  2  0  0  0  0
 15  7  1  1  0  0  0
 15 12  1  0  0  0  0
 15  4  1  0  0  0  0
 16 10  1  6  0  0  0
 16 17  1  0  0  0  0
 17 23  1  6  0  0  0
 17 21  1  0  0  0  0
 17 18  1  0  0  0  0
 18 25  1  6  0  0  0
 18 24  1  0  0  0  0
 19 22  1  1  0  0  0
 19 24  1  0  0  0  0
 20 19  1  0  0  0  0
 21 20  1  6  0  0  0
 21 19  1  0  0  0  0
 25 26  1  0  0  0  0
 27 28  1  0  0  0  0
M  END
>  <MODEL>
4

>  <REMARK>
 VINA RESULT:      -4.5      6.619     10.043
  Name = 
  3 active torsions:
  status: ('A' for Active; 'I' for Inactive)
    1  A    between atoms: C_1  and  N_27
    2  A    between atoms: C_2  and  C_3
    3  A    between atoms: C_16  and  C_21
                            x       y       z     vdW  Elec       q    Type
                         _______ _______ _______ _____ _____    ______ ____

>  <TORSDO>
F 3

$$$$
=
 OpenBabel11052413353D

 28 32  0  0  1  0  0  0  0  0999 V2000
  185.6660  177.4790  136.2410 C   0  0  0  0  0  3  0  0  0  0  0  0
  180.5240  179.4390  138.4480 O   0  0  0  0  0  1  0  0  0  0  0  0
  185.5790  178.2610  138.5290 C   0  0  0  0  0  0  0  0  0  0  0  0
  183.4800  177.3670  137.5300 C   0  0  2  0  0  3  0  0  0  0  0  0
  187.6180  178.3960  137.3110 C   0  0  0  0  0  0  0  0  0  0  0  0
  184.9370  177.6840  137.4200 C   0  0  0  0  0  0  0  0  0  0  0  0
  183.0880  178.9250  139.7610 S   0  0  0  0  0  0  0  0  0  0  0  0
  186.8980  178.5870  138.4490 N   0  0  0  0  0  0  0  0  0  0  0  0
  180.6500  177.2630  137.3780 C   0  0  2  0  0  3  0  0  0  0  0  0
  182.8240  176.8050  136.2730 C   0  0  0  0  0  2  0  0  0  0  0  0
  184.8670  178.4230  139.8450 C   0  0  0  0  0  2  0  0  0  0  0  0
  181.2850  178.6590  137.5730 C   0  0  2  0  0  3  0  0  0  0  0  0
  189.0540  178.7750  137.2700 C   0  0  0  0  0  1  0  0  0  0  0  0
  187.0140  177.8350  136.1850 C   0  0  0  0  0  3  0  0  0  0  0  0
  182.7690  178.6270  137.9810 C   0  0  2  0  0  3  0  0  0  0  0  0
  181.4680  176.3010  136.5790 N   0  0  1  0  0  0  0  0  0  0  0  0
  181.5040  174.9410  137.2100 C   0  0  1  0  0  0  0  0  0  0  0  0
  180.4420  173.9780  136.6410 C   0  0  2  0  0  3  0  0  0  0  0  0
  182.4030  172.8260  136.6100 C   0  0  2  0  0  0  0  0  0  0  0  0
  183.0390  173.7100  135.5550 C   0  0  0  0  0  2  0  0  0  0  0  0
  182.8290  174.2130  136.9900 C   0  0  1  0  0  3  0  0  0  0  0  0
  183.2370  171.7180  137.2170 C   0  0  0  0  0  1  0  0  0  0  0  0
  181.3020  175.0160  138.7240 C   0  0  0  0  0  1  0  0  0  0  0  0
  181.0000  172.6830  136.5910 O   0  0  0  0  0  0  0  0  0  0  0  0
  179.9490  174.3440  135.2420 C   0  0  0  0  0  2  0  0  0  0  0  0
  179.2790  173.1480  134.5940 C   0  0  0  0  0  1  0  0  0  0  0  0
  179.3250  178.1140  135.5630 O   0  0  0  0  0  1  0  0  0  0  0  0
  179.2590  177.4200  136.7730 C   0  0  0  0  0  2  0  0  0  0  0  0
  1  6  1  0  0  0  0
  3 11  1  0  0  0  0
  4 10  1  6  0  0  0
  4 15  1  0  0  0  0
  5  8  2  0  0  0  0
  6  4  1  0  0  0  0
  6  3  2  0  0  0  0
  7 11  1  0  0  0  0
  8  3  1  0  0  0  0
  9 28  1  6  0  0  0
  9 12  1  0  0  0  0
 12 15  1  0  0  0  0
 12  2  1  1  0  0  0
 13  5  1  0  0  0  0
 14  1  2  0  0  0  0
 14  5  1  0  0  0  0
 15  7  1  1  0  0  0
 16 10  1  1  0  0  0
 16 17  1  0  0  0  0
 16  9  1  0  0  0  0
 17 23  1  1  0  0  0
 18 25  1  6  0  0  0
 18 17  1  0  0  0  0
 19 21  1  0  0  0  0
 19 22  1  1  0  0  0
 20 19  1  0  0  0  0
 21 20  1  6  0  0  0
 21 17  1  0  0  0  0
 24 19  1  0  0  0  0
 24 18  1  0  0  0  0
 26 25  1  0  0  0  0
 27 28  1  0  0  0  0
M  END
>  <MODEL>
5

>  <REMARK>
 VINA RESULT:      -4.4      3.382      4.852
  Name = 
  3 active torsions:
  status: ('A' for Active; 'I' for Inactive)
    1  A    between atoms: C_1  and  N_27
    2  A    between atoms: C_2  and  C_3
    3  A    between atoms: C_16  and  C_21
                            x       y       z     vdW  Elec       q    Type
                         _______ _______ _______ _____ _____    ______ ____

>  <TORSDO>
F 3

$$$$
=
 OpenBabel11052413353D

 28 32  0  0  1  0  0  0  0  0999 V2000
  183.6580  172.6740  137.2110 C   0  0  0  0  0  3  0  0  0  0  0  0
  179.5410  176.3560  139.3670 O   0  0  0  0  0  1  0  0  0  0  0  0
  181.6570  173.1020  135.9210 C   0  0  0  0  0  0  0  0  0  0  0  0
  182.4060  174.8640  137.5130 C   0  0  2  0  0  3  0  0  0  0  0  0
  182.8110  171.0380  135.6620 C   0  0  0  0  0  0  0  0  0  0  0  0
  182.6030  173.5300  136.8680 C   0  0  0  0  0  0  0  0  0  0  0  0
  179.7790  175.0940  136.7380 S   0  0  0  0  0  0  0  0  0  0  0  0
  181.7930  171.8800  135.3380 N   0  0  0  0  0  0  0  0  0  0  0  0
  181.8610  177.0580  139.2270 C   0  0  2  0  0  3  0  0  0  0  0  0
  183.4270  175.2450  138.5810 C   0  0  0  0  0  2  0  0  0  0  0  0
  180.5550  174.0140  135.4520 C   0  0  0  0  0  2  0  0  0  0  0  0
  180.8520  175.8870  139.2540 C   0  0  2  0  0  3  0  0  0  0  0  0
  182.9140  169.7100  135.0030 C   0  0  0  0  0  1  0  0  0  0  0  0
  183.7650  171.4220  136.6050 C   0  0  0  0  0  3  0  0  0  0  0  0
  181.0040  174.8940  138.0870 C   0  0  2  0  0  3  0  0  0  0  0  0
  183.2780  176.6680  138.9550 N   0  0  1  0  0  0  0  0  0  0  0  0
  183.9270  177.5800  137.9590 C   0  0  1  0  0  0  0  0  0  0  0  0
  184.8450  178.6360  138.6090 C   0  0  2  0  0  3  0  0  0  0  0  0
  186.0630  177.7070  136.9280 C   0  0  2  0  0  0  0  0  0  0  0  0
  186.1510  176.3450  137.5880 C   0  0  0  0  0  2  0  0  0  0  0  0
  184.8360  176.8470  136.9750 C   0  0  1  0  0  3  0  0  0  0  0  0
  186.6650  177.8780  135.5490 C   0  0  0  0  0  1  0  0  0  0  0  0
  182.8900  178.3230  137.1140 C   0  0  0  0  0  1  0  0  0  0  0  0
  185.9560  178.8390  137.7630 O   0  0  0  0  0  0  0  0  0  0  0  0
  185.3610  178.2500  139.9950 C   0  0  0  0  0  2  0  0  0  0  0  0
  185.0590  179.3520  140.9920 C   0  0  0  0  0  1  0  0  0  0  0  0
  181.5540  179.2010  140.2690 O   0  0  0  0  0  1  0  0  0  0  0  0
  181.7590  177.8440  140.5290 C   0  0  0  0  0  2  0  0  0  0  0  0
  3  6  2  0  0  0  0
  4 15  1  0  0  0  0
  4 10  1  1  0  0  0
  5 14  1  0  0  0  0
  6  1  1  0  0  0  0
  6  4  1  0  0  0  0
  8  5  2  0  0  0  0
  8  3  1  0  0  0  0
  9 12  1  0  0  0  0
  9 28  1  1  0  0  0
 11  3  1  0  0  0  0
 11  7  1  0  0  0  0
 12  2  1  6  0  0  0
 13  5  1  0  0  0  0
 14  1  2  0  0  0  0
 15  7  1  6  0  0  0
 15 12  1  0  0  0  0
 16 10  1  6  0  0  0
 16  9  1  0  0  0  0
 17 23  1  6  0  0  0
 17 18  1  0  0  0  0
 17 16  1  0  0  0  0
 18 25  1  1  0  0  0
 19 22  1  6  0  0  0
 19 21  1  0  0  0  0
 19 20  1  0  0  0  0
 19 24  1  0  0  0  0
 21 20  1  1  0  0  0
 21 17  1  0  0  0  0
 24 18  1  0  0  0  0
 25 26  1  0  0  0  0
 27 28  1  0  0  0  0
M  END
>  <MODEL>
6

>  <REMARK>
 VINA RESULT:      -4.1      3.284      6.854
  Name = 
  3 active torsions:
  status: ('A' for Active; 'I' for Inactive)
    1  A    between atoms: C_1  and  N_27
    2  A    between atoms: C_2  and  C_3
    3  A    between atoms: C_16  and  C_21
                            x       y       z     vdW  Elec       q    Type
                         _______ _______ _______ _____ _____    ______ ____

>  <TORSDO>
F 3

$$$$
=
 OpenBabel11052413353D

 28 32  0  0  1  0  0  0  0  0999 V2000
  189.8050  176.5490  140.5860 C   0  0  0  0  0  3  0  0  0  0  0  0
  192.3200  173.3750  136.2540 O   0  0  0  0  0  1  0  0  0  0  0  0
  192.0840  177.0310  139.9310 C   0  0  0  0  0  0  0  0  0  0  0  0
  190.5810  176.0130  138.2270 C   0  0  2  0  0  3  0  0  0  0  0  0
  191.3670  177.5030  142.1500 C   0  0  0  0  0  0  0  0  0  0  0  0
  190.8040  176.5530  139.6020 C   0  0  0  0  0  0  0  0  0  0  0  0
  193.2580  175.7670  137.6540 S   0  0  0  0  0  0  0  0  0  0  0  0
  192.3250  177.5030  141.1850 N   0  0  0  0  0  0  0  0  0  0  0  0
  190.1670  174.4400  135.9030 C   0  0  2  0  0  3  0  0  0  0  0  0
  189.1920  175.4470  137.9500 C   0  0  0  0  0  2  0  0  0  0  0  0
  193.1660  177.1400  138.8910 C   0  0  0  0  0  2  0  0  0  0  0  0
  191.2170  173.9250  136.9130 C   0  0  2  0  0  3  0  0  0  0  0  0
  191.6810  178.0210  143.5070 C   0  0  0  0  0  1  0  0  0  0  0  0
  190.0860  177.0270  141.8660 C   0  0  0  0  0  3  0  0  0  0  0  0
  191.6420  174.9620  137.9690 C   0  0  2  0  0  3  0  0  0  0  0  0
  189.0190  175.1830  136.5050 N   0  0  1  0  0  0  0  0  0  0  0  0
  188.6990  176.4330  135.7420 C   0  0  1  0  0  0  0  0  0  0  0  0
  187.4420  176.3010  134.8580 C   0  0  2  0  0  3  0  0  0  0  0  0
  187.1820  178.2390  136.0190 C   0  0  2  0  0  0  0  0  0  0  0  0
  187.0470  177.5510  137.3630 C   0  0  0  0  0  2  0  0  0  0  0  0
  188.4010  177.6290  136.6440 C   0  0  1  0  0  3  0  0  0  0  0  0
  187.1790  179.7530  135.9840 C   0  0  0  0  0  1  0  0  0  0  0  0
  189.8610  176.8550  134.8390 C   0  0  0  0  0  1  0  0  0  0  0  0
  186.7590  177.5350  134.8730 O   0  0  0  0  0  0  0  0  0  0  0  0
  186.4720  175.2090  135.3060 C   0  0  0  0  0  2  0  0  0  0  0  0
  185.1030  175.4420  134.6970 C   0  0  0  0  0  1  0  0  0  0  0  0
  188.7620  172.4960  135.7720 O   0  0  0  0  0  1  0  0  0  0  0  0
  189.6680  173.2770  135.0520 C   0  0  0  0  0  2  0  0  0  0  0  0
  1 14  1  0  0  0  0
  3  8  2  0  0  0  0
  4 10  1  1  0  0  0
  4  6  1  0  0  0  0
  5 13  1  0  0  0  0
  6  3  1  0  0  0  0
  6  1  2  0  0  0  0
  7 11  1  0  0  0  0
  8  5  1  0  0  0  0
  9 28  1  1  0  0  0
  9 16  1  0  0  0  0
  9 12  1  0  0  0  0
 11  3  1  0  0  0  0
 12  2  1  6  0  0  0
 12 15  1  0  0  0  0
 14  5  2  0  0  0  0
 15  7  1  6  0  0  0
 15  4  1  0  0  0  0
 16 10  1  1  0  0  0
 17 23  1  6  0  0  0
 17 16  1  0  0  0  0
 17 21  1  0  0  0  0
 18 24  1  0  0  0  0
 18 25  1  1  0  0  0
 18 17  1  0  0  0  0
 19 22  1  6  0  0  0
 19 21  1  0  0  0  0
 19 20  1  0  0  0  0
 21 20  1  1  0  0  0
 24 19  1  0  0  0  0
 26 25  1  0  0  0  0
 28 27  1  0  0  0  0
M  END
>  <MODEL>
7

>  <REMARK>
 VINA RESULT:      -4.1      7.119      9.414
  Name = 
  3 active torsions:
  status: ('A' for Active; 'I' for Inactive)
    1  A    between atoms: C_1  and  N_27
    2  A    between atoms: C_2  and  C_3
    3  A    between atoms: C_16  and  C_21
                            x       y       z     vdW  Elec       q    Type
                         _______ _______ _______ _____ _____    ______ ____

>  <TORSDO>
F 3

$$$$
=
 OpenBabel11052413353D

 28 32  0  0  1  0  0  0  0  0999 V2000
  184.2080  172.3990  136.6690 C   0  0  0  0  0  3  0  0  0  0  0  0
  181.9730  177.7170  138.0400 O   0  0  0  0  0  1  0  0  0  0  0  0
  182.5110  173.3750  135.2470 C   0  0  0  0  0  0  0  0  0  0  0  0
  183.9480  174.9240  136.5660 C   0  0  2  0  0  3  0  0  0  0  0  0
  182.7340  171.0100  135.3690 C   0  0  0  0  0  0  0  0  0  0  0  0
  183.5760  173.5370  136.1510 C   0  0  0  0  0  0  0  0  0  0  0  0
  181.6130  176.0550  135.6580 S   0  0  0  0  0  0  0  0  0  0  0  0
  182.1310  172.1230  134.8730 N   0  0  0  0  0  0  0  0  0  0  0  0
  184.3750  177.3990  137.8840 C   0  0  2  0  0  3  0  0  0  0  0  0
  185.0650  175.0330  137.5990 C   0  0  0  0  0  2  0  0  0  0  0  0
  181.8560  174.5620  134.5940 C   0  0  0  0  0  2  0  0  0  0  0  0
  182.9830  176.7510  138.0570 C   0  0  2  0  0  3  0  0  0  0  0  0
  182.2770  169.6640  134.9350 C   0  0  0  0  0  1  0  0  0  0  0  0
  183.7870  171.1280  136.2760 C   0  0  0  0  0  3  0  0  0  0  0  0
  182.6910  175.6050  137.0700 C   0  0  2  0  0  3  0  0  0  0  0  0
  185.5090  176.4360  137.7360 N   0  0  1  0  0  0  0  0  0  0  0  0
  186.4420  176.8380  136.6330 C   0  0  1  0  0  0  0  0  0  0  0  0
  187.5850  177.7580  137.1090 C   0  0  2  0  0  3  0  0  0  0  0  0
  188.5780  176.1180  135.8840 C   0  0  2  0  0  0  0  0  0  0  0  0
  188.2410  175.0170  136.8710 C   0  0  0  0  0  2  0  0  0  0  0  0
  187.1570  175.6520  135.9890 C   0  0  1  0  0  3  0  0  0  0  0  0
  189.2760  175.7390  134.5960 C   0  0  0  0  0  1  0  0  0  0  0  0
  185.7050  177.5590  135.5040 C   0  0  0  0  0  1  0  0  0  0  0  0
  188.7520  177.4240  136.3890 O   0  0  0  0  0  0  0  0  0  0  0  0
  187.8960  177.6500  138.6020 C   0  0  0  0  0  2  0  0  0  0  0  0
  189.2820  178.1960  138.8890 C   0  0  0  0  0  1  0  0  0  0  0  0
  184.7690  179.6690  138.5670 O   0  0  0  0  0  1  0  0  0  0  0  0
  184.6330  178.3610  139.0380 C   0  0  0  0  0  2  0  0  0  0  0  0
  3  6  1  0  0  0  0
  4 15  1  0  0  0  0
  4 10  1  1  0  0  0
  5 14  2  0  0  0  0
  6  4  1  0  0  0  0
  6  1  2  0  0  0  0
  8  3  2  0  0  0  0
  8  5  1  0  0  0  0
  9 12  1  0  0  0  0
  9 28  1  1  0  0  0
 11  3  1  0  0  0  0
 11  7  1  0  0  0  0
 12  2  1  6  0  0  0
 13  5  1  0  0  0  0
 14  1  1  0  0  0  0
 15  7  1  6  0  0  0
 15 12  1  0  0  0  0
 16 10  1  6  0  0  0
 16  9  1  0  0  0  0
 17 23  1  6  0  0  0
 17 18  1  0  0  0  0
 17 16  1  0  0  0  0
 18 25  1  1  0  0  0
 19 22  1  6  0  0  0
 19 21  1  0  0  0  0
 19 24  1  0  0  0  0
 19 20  1  0  0  0  0
 21 17  1  0  0  0  0
 21 20  1  1  0  0  0
 24 18  1  0  0  0  0
 25 26  1  0  0  0  0
 27 28  1  0  0  0  0
M  END
>  <MODEL>
8

>  <REMARK>
 VINA RESULT:      -4.1      4.262      7.704
  Name = 
  3 active torsions:
  status: ('A' for Active; 'I' for Inactive)
    1  A    between atoms: C_1  and  N_27
    2  A    between atoms: C_2  and  C_3
    3  A    between atoms: C_16  and  C_21
                            x       y       z     vdW  Elec       q    Type
                         _______ _______ _______ _____ _____    ______ ____

>  <TORSDO>
F 3

$$$$
=
 OpenBabel11052413353D

 28 32  0  0  1  0  0  0  0  0999 V2000
  180.9040  177.4080  141.4680 C   0  0  0  0  0  3  0  0  0  0  0  0
  185.5780  179.0200  138.1950 O   0  0  0  0  0  1  0  0  0  0  0  0
  180.9980  179.6470  140.5570 C   0  0  0  0  0  0  0  0  0  0  0  0
  182.2350  177.8530  139.3510 C   0  0  2  0  0  3  0  0  0  0  0  0
  179.7790  179.2370  142.5580 C   0  0  0  0  0  0  0  0  0  0  0  0
  181.3490  178.2880  140.4730 C   0  0  0  0  0  0  0  0  0  0  0  0
  183.0520  180.4010  138.7190 S   0  0  0  0  0  0  0  0  0  0  0  0
  180.2170  180.0790  141.5830 N   0  0  0  0  0  0  0  0  0  0  0  0
  184.3480  176.9960  137.6630 C   0  0  2  0  0  3  0  0  0  0  0  0
  182.6360  176.3810  139.3510 C   0  0  0  0  0  2  0  0  0  0  0  0
  181.3750  180.6180  139.4690 C   0  0  0  0  0  2  0  0  0  0  0  0
  184.6930  178.0730  138.7160 C   0  0  2  0  0  3  0  0  0  0  0  0
  178.9340  179.7570  143.6630 C   0  0  0  0  0  1  0  0  0  0  0  0
  180.1150  177.8830  142.5160 C   0  0  0  0  0  3  0  0  0  0  0  0
  183.4660  178.7370  139.3680 C   0  0  2  0  0  3  0  0  0  0  0  0
  183.2900  176.0230  138.0740 N   0  0  1  0  0  0  0  0  0  0  0  0
  182.2920  175.7870  136.9800 C   0  0  1  0  0  0  0  0  0  0  0  0
  182.5710  174.5050  136.1690 C   0  0  2  0  0  3  0  0  0  0  0  0
  180.3650  174.4230  136.7180 C   0  0  2  0  0  0  0  0  0  0  0  0
  180.6230  174.2630  138.2040 C   0  0  0  0  0  2  0  0  0  0  0  0
  180.8670  175.6030  137.4970 C   0  0  1  0  0  3  0  0  0  0  0  0
  178.9320  174.5390  136.2460 C   0  0  0  0  0  1  0  0  0  0  0  0
  182.2450  176.9580  135.9970 C   0  0  0  0  0  1  0  0  0  0  0  0
  181.3340  173.9210  135.8240 O   0  0  0  0  0  0  0  0  0  0  0  0
  183.4040  173.4610  136.9130 C   0  0  0  0  0  2  0  0  0  0  0  0
  184.5220  172.9530  136.0230 C   0  0  0  0  0  1  0  0  0  0  0  0
  186.0060  176.6400  135.9620 O   0  0  0  0  0  1  0  0  0  0  0  0
  185.6200  176.2650  137.2500 C   0  0  0  0  0  2  0  0  0  0  0  0
  1 14  1  0  0  0  0
  3  8  2  0  0  0  0
  4 10  1  1  0  0  0
  4 15  1  0  0  0  0
  4  6  1  0  0  0  0
  5 13  1  0  0  0  0
  6  3  1  0  0  0  0
  6  1  2  0  0  0  0
  7 11  1  0  0  0  0
  8  5  1  0  0  0  0
  9 28  1  1  0  0  0
  9 16  1  0  0  0  0
  9 12  1  0  0  0  0
 11  3  1  0  0  0  0
 12  2  1  6  0  0  0
 12 15  1  0  0  0  0
 14  5  2  0  0  0  0
 15  7  1  6  0  0  0
 16 10  1  1  0  0  0
 17 23  1  6  0  0  0
 17 21  1  0  0  0  0
 17 16  1  0  0  0  0
 18 25  1  1  0  0  0
 18 17  1  0  0  0  0
 19 22  1  6  0  0  0
 19 21  1  0  0  0  0
 19 20  1  0  0  0  0
 21 20  1  1  0  0  0
 24 18  1  0  0  0  0
 24 19  1  0  0  0  0
 26 25  1  0  0  0  0
 27 28  1  0  0  0  0
M  END
>  <MODEL>
9

>  <REMARK>
 VINA RESULT:      -3.8      3.132      4.538
  Name = 
  3 active torsions:
  status: ('A' for Active; 'I' for Inactive)
    1  A    between atoms: C_1  and  N_27
    2  A    between atoms: C_2  and  C_3
    3  A    between atoms: C_16  and  C_21
                            x       y       z     vdW  Elec       q    Type
                         _______ _______ _______ _____ _____    ______ ____

>  <TORSDO>
F 3

$$$$
