=
 OpenBabel11052414543D

 55 62  0  0  1  0  0  0  0  0999 V2000
  183.7620  179.2540  143.4790 C   0  0  0  0  0  3  0  0  0  0  0  0
  182.0190  178.6280  141.3800 C   0  0  0  0  0  0  0  0  0  0  0  0
  183.3890  178.7640  141.1350 C   0  0  0  0  0  3  0  0  0  0  0  0
  182.3940  179.1190  143.7240 C   0  0  0  0  0  3  0  0  0  0  0  0
  184.2690  179.0770  142.1880 C   0  0  0  0  0  0  0  0  0  0  0  0
  181.5220  178.8050  142.6770 C   0  0  0  0  0  3  0  0  0  0  0  0
  181.0960  178.2770  140.2640 C   0  0  0  0  0  2  0  0  0  0  0  0
  179.9710  177.3960  140.7700 C   0  0  0  0  0  2  0  0  0  0  0  0
  179.4890  176.4950  139.6530 C   0  0  0  0  0  2  0  0  0  0  0  0
  180.0680  175.1010  139.8170 C   0  0  0  0  0  2  0  0  0  0  0  0
  181.3450  175.0040  139.1280 N   0  0  0  0  0  2  0  0  0  0  0  0
  184.3500  175.4310  137.2290 C   0  0  2  0  0  3  0  0  0  0  0  0
  181.0750  175.3030  134.6390 C   0  0  0  0  0  1  0  0  0  0  0  0
  182.2440  175.0530  135.5820 C   0  0  2  0  0  0  0  0  0  0  0  0
  181.0590  174.9570  137.7010 C   0  0  1  0  0  3  0  0  0  0  0  0
  183.5050  171.6100  137.0160 C   0  0  0  0  0  2  0  0  0  0  0  0
  184.5060  172.6170  135.4120 C   0  0  0  0  0  2  0  0  0  0  0  0
  182.2210  173.5790  136.0330 C   0  0  1  0  0  3  0  0  0  0  0  0
  182.0180  175.8310  136.8870 C   0  0  1  0  0  3  0  0  0  0  0  0
  185.2350  177.1240  135.6210 C   0  0  0  0  0  1  0  0  0  0  0  0
  184.2950  173.9340  137.5840 C   0  0  0  0  0  2  0  0  0  0  0  0
  184.4270  171.1810  135.8910 C   0  0  0  0  0  2  0  0  0  0  0  0
  179.9870  173.0990  136.6970 F   0  0  0  0  0  0  0  0  0  0  0  0
  183.5840  173.0510  136.5420 C   0  0  0  0  0  0  0  0  0  0  0  0
  183.1940  176.1470  137.6390 O   0  0  0  0  0  0  0  0  0  0  0  0
  183.5160  175.5020  134.8480 C   0  0  0  0  0  2  0  0  0  0  0  0
  181.2050  173.5350  137.1780 C   0  0  2  0  0  3  0  0  0  0  0  0
  184.7170  175.7080  135.7710 C   0  0  2  0  0  3  0  0  0  0  0  0
  185.6410  179.2260  141.9790 O   0  0  0  0  0  0  0  0  0  0  0  0
  186.4210  178.2740  141.2590 C   0  0  0  0  0  2  0  0  0  0  0  0
  187.8920  178.6850  141.2410 C   0  0  2  0  0  3  0  0  0  0  0  0
  189.5430  177.3930  139.8750 C   0  0  0  0  0  2  0  0  0  0  0  0
  189.1890  177.0150  137.4310 N   0  0  1  0  0  0  0  0  0  0  0  0
  187.4890  178.2650  138.7630 C   0  0  0  0  0  2  0  0  0  0  0  0
  188.1890  178.0940  137.4130 C   0  0  0  0  0  2  0  0  0  0  0  0
  190.1830  177.2440  138.4920 C   0  0  0  0  0  2  0  0  0  0  0  0
  188.5250  178.5250  139.8560 C   0  0  1  0  0  3  0  0  0  0  0  0
  188.5320  175.7210  137.6160 C   0  0  0  0  0  3  0  0  0  0  0  0
  189.4440  174.6090  137.1350 C   0  0  0  0  0  2  0  0  0  0  0  0
  188.2990  175.0720  136.2640 C   0  0  0  0  0  2  0  0  0  0  0  0
  188.6430  177.9640  142.2650 N   0  0  0  0  0  2  0  0  0  0  0  0
  187.7320  177.0490  142.9390 C   0  0  0  0  0  2  0  0  0  0  0  0
  188.6240  177.3840  146.6350 C   0  0  0  0  0  3  0  0  0  0  0  0
  187.4410  177.9320  147.1370 C   0  0  0  0  0  3  0  0  0  0  0  0
  187.6640  177.3490  144.4060 C   0  0  0  0  0  0  0  0  0  0  0  0
  186.4840  177.8990  144.9170 C   0  0  0  0  0  3  0  0  0  0  0  0
  186.3710  178.1890  146.2770 C   0  0  0  0  0  3  0  0  0  0  0  0
  188.7450  177.0820  145.2740 C   0  0  0  0  0  0  0  0  0  0  0  0
  190.0230  176.4830  144.7760 C   0  0  0  0  0  2  0  0  0  0  0  0
  191.1990  177.3300  145.1570 C   0  0  0  0  0  0  0  0  0  0  0  0
  191.4260  178.3920  144.5200 O   0  0  0  0  0  0  0  0  0  0  0  0
  192.0790  176.9490  146.2180 N   0  0  0  0  0  2  0  0  0  0  0  0
  191.8440  175.7930  147.0710 C   0  0  0  0  0  2  0  0  0  0  0  0
  193.0500  175.9820  148.9090 C   0  0  0  0  0  1  0  0  0  0  0  0
  193.0450  175.3810  147.6500 O   0  0  0  0  0  0  0  0  0  0  0  0
  1  4  1  0  0  0  0
  2  6  1  0  0  0  0
  3  2  2  0  0  0  0
  3  5  1  0  0  0  0
  5  1  2  0  0  0  0
  6  4  2  0  0  0  0
  7  8  1  0  0  0  0
  7  2  1  0  0  0  0
  9 10  1  0  0  0  0
  9  8  1  0  0  0  0
 11 10  1  0  0  0  0
 12 21  1  6  0  0  0
 12 25  1  0  0  0  0
 14 13  1  6  0  0  0
 14 18  1  0  0  0  0
 14 19  1  0  0  0  0
 15 11  1  1  0  0  0
 17 22  1  0  0  0  0
 17 24  1  0  0  0  0
 18 24  1  1  0  0  0
 18 27  1  0  0  0  0
 19 25  1  1  0  0  0
 19 15  1  0  0  0  0
 22 16  1  0  0  0  0
 24 16  1  0  0  0  0
 24 21  1  0  0  0  0
 26 14  1  0  0  0  0
 26 28  1  0  0  0  0
 27 23  1  6  0  0  0
 27 15  1  0  0  0  0
 28 20  1  1  0  0  0
 28 12  1  0  0  0  0
 29  5  1  0  0  0  0
 30 29  1  0  0  0  0
 31 30  1  6  0  0  0
 31 41  1  0  0  0  0
 33 38  1  1  0  0  0
 33 36  1  0  0  0  0
 34 37  1  0  0  0  0
 35 33  1  0  0  0  0
 35 34  1  0  0  0  0
 36 32  1  0  0  0  0
 37 32  1  0  0  0  0
 37 31  1  1  0  0  0
 39 38  1  0  0  0  0
 40 39  1  0  0  0  0
 40 38  1  0  0  0  0
 41 42  1  0  0  0  0
 42 45  1  0  0  0  0
 43 44  1  0  0  0  0
 45 46  2  0  0  0  0
 45 48  1  0  0  0  0
 46 47  1  0  0  0  0
 47 44  2  0  0  0  0
 48 43  2  0  0  0  0
 49 50  1  0  0  0  0
 49 48  1  0  0  0  0
 50 52  1  0  0  0  0
 51 50  2  0  0  0  0
 52 53  1  0  0  0  0
 53 55  1  0  0  0  0
 55 54  1  0  0  0  0
M  END
>  <MODEL>
1

>  <REMARK>
 VINA RESULT:      -8.1      0.000      0.000
  Name = 
  18 active torsions:
  status: ('A' for Active; 'I' for Inactive)
    1  A    between atoms: O_2  and  C_28
    2  A    between atoms: O_2  and  C_44
    3  A    between atoms: C_4  and  O_37
    4  A    between atoms: C_4  and  N_40
    5  A    between atoms: C_5  and  C_45
    6  A    between atoms: C_7  and  N_22
    7  A    between atoms: C_8  and  N_22
    8  A    between atoms: C_8  and  C_43
    9  A    between atoms: C_10  and  N_32
   10  A    between atoms: C_16  and  C_36
   11  A    between atoms: C_26  and  C_45
   12  A    between atoms: C_27  and  C_54
   13  A    between atoms: C_28  and  C_49
   14  A    between atoms: N_33  and  C_36
   15  A    between atoms: N_33  and  C_49
   16  A    between atoms: C_43  and  C_51
   17  A    between atoms: C_49  and  C_52
   18  A    between atoms: C_51  and  C_54
                            x       y       z     vdW  Elec       q    Type
                         _______ _______ _______ _____ _____    ______ ____

>  <TORSDO>
F 18

$$$$
=
 OpenBabel11052414543D

 55 62  0  0  1  0  0  0  0  0999 V2000
  190.4460  177.4510  143.8770 C   0  0  0  0  0  3  0  0  0  0  0  0
  187.6740  177.4060  144.2640 C   0  0  0  0  0  0  0  0  0  0  0  0
  188.1990  177.3830  142.9690 C   0  0  0  0  0  3  0  0  0  0  0  0
  189.9210  177.4750  145.1700 C   0  0  0  0  0  3  0  0  0  0  0  0
  189.5920  177.4040  142.7690 C   0  0  0  0  0  0  0  0  0  0  0  0
  188.5370  177.4510  145.3660 C   0  0  0  0  0  3  0  0  0  0  0  0
  186.1990  177.3640  144.4690 C   0  0  0  0  0  2  0  0  0  0  0  0
  185.6800  178.7380  144.8430 C   0  0  0  0  0  2  0  0  0  0  0  0
  184.4180  179.0350  144.0610 C   0  0  0  0  0  2  0  0  0  0  0  0
  184.4440  178.3070  142.7280 C   0  0  0  0  0  2  0  0  0  0  0  0
  183.4520  178.8730  141.8290 N   0  0  0  0  0  2  0  0  0  0  0  0
  180.3150  178.2170  140.2300 C   0  0  2  0  0  3  0  0  0  0  0  0
  183.4160  176.6690  137.8970 C   0  0  0  0  0  1  0  0  0  0  0  0
  182.3600  177.4920  138.6210 C   0  0  2  0  0  0  0  0  0  0  0  0
  183.6620  178.2640  140.5220 C   0  0  1  0  0  3  0  0  0  0  0  0
  181.7720  181.3810  138.4320 C   0  0  0  0  0  2  0  0  0  0  0  0
  180.5290  179.9830  137.3870 C   0  0  0  0  0  2  0  0  0  0  0  0
  182.6520  178.9900  138.4040 C   0  0  1  0  0  3  0  0  0  0  0  0
  182.5260  177.3100  140.1370 C   0  0  1  0  0  3  0  0  0  0  0  0
  179.0730  176.1870  139.4760 C   0  0  0  0  0  1  0  0  0  0  0  0
  180.6390  179.6900  139.9170 C   0  0  0  0  0  2  0  0  0  0  0  0
  180.8720  181.4490  137.2120 C   0  0  0  0  0  2  0  0  0  0  0  0
  184.9690  179.3080  138.8460 F   0  0  0  0  0  0  0  0  0  0  0  0
  181.4270  179.9120  138.6130 C   0  0  0  0  0  0  0  0  0  0  0  0
  181.3580  177.5510  140.9280 O   0  0  0  0  0  0  0  0  0  0  0  0
  180.9910  177.0050  138.1220 C   0  0  0  0  0  2  0  0  0  0  0  0
  183.7240  179.3350  139.4420 C   0  0  2  0  0  3  0  0  0  0  0  0
  179.8270  177.4200  139.0210 C   0  0  2  0  0  3  0  0  0  0  0  0
  190.1510  177.3870  141.4900 O   0  0  0  0  0  0  0  0  0  0  0  0
  189.4120  177.0230  140.3280 C   0  0  0  0  0  2  0  0  0  0  0  0
  190.3110  177.0230  139.0940 C   0  0  2  0  0  3  0  0  0  0  0  0
  189.6120  176.8870  136.6950 C   0  0  0  0  0  2  0  0  0  0  0  0
  187.6750  178.2110  135.8340 N   0  0  1  0  0  0  0  0  0  0  0  0
  188.3040  178.3370  138.2460 C   0  0  0  0  0  2  0  0  0  0  0  0
  187.7370  179.0690  137.0260 C   0  0  0  0  0  2  0  0  0  0  0  0
  189.0030  177.6580  135.5210 C   0  0  0  0  0  2  0  0  0  0  0  0
  189.6920  177.7870  137.9210 C   0  0  1  0  0  3  0  0  0  0  0  0
  186.7080  177.1330  136.0380 C   0  0  0  0  0  3  0  0  0  0  0  0
  186.6940  176.2190  134.8270 C   0  0  0  0  0  2  0  0  0  0  0  0
  185.5980  177.2450  135.0090 C   0  0  0  0  0  2  0  0  0  0  0  0
  190.6740  175.6580  138.7190 N   0  0  0  0  0  2  0  0  0  0  0  0
  192.0840  175.6440  138.3560 C   0  0  0  0  0  2  0  0  0  0  0  0
  193.9430  172.8880  136.4790 C   0  0  0  0  0  3  0  0  0  0  0  0
  192.8830  172.2760  135.8050 C   0  0  0  0  0  3  0  0  0  0  0  0
  192.3960  174.4700  137.4770 C   0  0  0  0  0  0  0  0  0  0  0  0
  191.3410  173.8500  136.7990 C   0  0  0  0  0  3  0  0  0  0  0  0
  191.5820  172.7570  135.9660 C   0  0  0  0  0  3  0  0  0  0  0  0
  193.7120  173.9890  137.3120 C   0  0  0  0  0  0  0  0  0  0  0  0
  194.8750  174.6270  138.0070 C   0  0  0  0  0  2  0  0  0  0  0  0
  195.8070  175.2640  137.0230 C   0  0  0  0  0  0  0  0  0  0  0  0
  195.3310  175.8830  136.0350 O   0  0  0  0  0  0  0  0  0  0  0  0
  197.2270  175.1710  137.1720 N   0  0  0  0  0  2  0  0  0  0  0  0
  197.8670  174.5620  138.3280 C   0  0  0  0  0  2  0  0  0  0  0  0
  197.7570  175.2860  140.4090 C   0  0  0  0  0  1  0  0  0  0  0  0
  198.3540  175.5560  139.1770 O   0  0  0  0  0  0  0  0  0  0  0  0
  1  4  1  0  0  0  0
  2  7  1  0  0  0  0
  2  6  1  0  0  0  0
  3  2  2  0  0  0  0
  4  6  2  0  0  0  0
  5  3  1  0  0  0  0
  5  1  2  0  0  0  0
  7  8  1  0  0  0  0
  9  8  1  0  0  0  0
 10  9  1  0  0  0  0
 11 10  1  0  0  0  0
 12 21  1  6  0  0  0
 12 25  1  0  0  0  0
 14 13  1  6  0  0  0
 14 19  1  0  0  0  0
 15 11  1  1  0  0  0
 16 24  1  0  0  0  0
 17 24  1  0  0  0  0
 18 24  1  1  0  0  0
 18 14  1  0  0  0  0
 18 27  1  0  0  0  0
 19 15  1  0  0  0  0
 19 25  1  1  0  0  0
 22 17  1  0  0  0  0
 22 16  1  0  0  0  0
 24 21  1  0  0  0  0
 26 14  1  0  0  0  0
 26 28  1  0  0  0  0
 27 23  1  6  0  0  0
 27 15  1  0  0  0  0
 28 20  1  1  0  0  0
 28 12  1  0  0  0  0
 29  5  1  0  0  0  0
 30 29  1  0  0  0  0
 31 30  1  1  0  0  0
 32 37  1  0  0  0  0
 33 38  1  1  0  0  0
 33 35  1  0  0  0  0
 35 34  1  0  0  0  0
 36 33  1  0  0  0  0
 36 32  1  0  0  0  0
 37 34  1  0  0  0  0
 37 31  1  1  0  0  0
 39 40  1  0  0  0  0
 39 38  1  0  0  0  0
 40 38  1  0  0  0  0
 41 31  1  0  0  0  0
 42 41  1  0  0  0  0
 43 48  1  0  0  0  0
 44 47  1  0  0  0  0
 44 43  2  0  0  0  0
 45 42  1  0  0  0  0
 46 45  1  0  0  0  0
 47 46  2  0  0  0  0
 48 45  2  0  0  0  0
 48 49  1  0  0  0  0
 50 52  1  0  0  0  0
 50 49  1  0  0  0  0
 51 50  2  0  0  0  0
 52 53  1  0  0  0  0
 53 55  1  0  0  0  0
 55 54  1  0  0  0  0
M  END
>  <MODEL>
2

>  <REMARK>
 VINA RESULT:      -7.9      3.759      7.276
  Name = 
  18 active torsions:
  status: ('A' for Active; 'I' for Inactive)
    1  A    between atoms: O_2  and  C_28
    2  A    between atoms: O_2  and  C_44
    3  A    between atoms: C_4  and  O_37
    4  A    between atoms: C_4  and  N_40
    5  A    between atoms: C_5  and  C_45
    6  A    between atoms: C_7  and  N_22
    7  A    between atoms: C_8  and  N_22
    8  A    between atoms: C_8  and  C_43
    9  A    between atoms: C_10  and  N_32
   10  A    between atoms: C_16  and  C_36
   11  A    between atoms: C_26  and  C_45
   12  A    between atoms: C_27  and  C_54
   13  A    between atoms: C_28  and  C_49
   14  A    between atoms: N_33  and  C_36
   15  A    between atoms: N_33  and  C_49
   16  A    between atoms: C_43  and  C_51
   17  A    between atoms: C_49  and  C_52
   18  A    between atoms: C_51  and  C_54
                            x       y       z     vdW  Elec       q    Type
                         _______ _______ _______ _____ _____    ______ ____

>  <TORSDO>
F 18

$$$$
=
 OpenBabel11052414543D

 55 62  0  0  1  0  0  0  0  0999 V2000
  187.4180  178.3280  141.3120 C   0  0  0  0  0  3  0  0  0  0  0  0
  185.5080  178.4060  143.3570 C   0  0  0  0  0  0  0  0  0  0  0  0
  186.6830  177.6680  143.5260 C   0  0  0  0  0  3  0  0  0  0  0  0
  186.2450  179.0650  141.1440 C   0  0  0  0  0  3  0  0  0  0  0  0
  187.6470  177.6260  142.5010 C   0  0  0  0  0  0  0  0  0  0  0  0
  185.2900  179.1070  142.1650 C   0  0  0  0  0  3  0  0  0  0  0  0
  184.5020  178.4620  144.4540 C   0  0  0  0  0  2  0  0  0  0  0  0
  183.3940  179.4350  144.1020 C   0  0  0  0  0  2  0  0  0  0  0  0
  182.1750  178.6690  143.6350 C   0  0  0  0  0  2  0  0  0  0  0  0
  181.5880  179.3230  142.3960 C   0  0  0  0  0  2  0  0  0  0  0  0
  181.2540  178.3120  141.4060 N   0  0  0  0  0  2  0  0  0  0  0  0
  180.3390  176.4570  138.4830 C   0  0  2  0  0  3  0  0  0  0  0  0
  184.3970  177.4290  138.2980 C   0  0  0  0  0  1  0  0  0  0  0  0
  182.8770  177.3540  138.2700 C   0  0  2  0  0  0  0  0  0  0  0  0
  182.3730  178.2380  140.4760 C   0  0  1  0  0  3  0  0  0  0  0  0
  180.3270  180.2210  137.3880 C   0  0  0  0  0  2  0  0  0  0  0  0
  180.8210  178.6630  136.0030 C   0  0  0  0  0  2  0  0  0  0  0  0
  182.3060  178.7730  138.0800 C   0  0  1  0  0  3  0  0  0  0  0  0
  182.3640  176.9430  139.6580 C   0  0  1  0  0  3  0  0  0  0  0  0
  181.0600  174.3210  137.4110 C   0  0  0  0  0  1  0  0  0  0  0  0
  179.8480  177.8950  138.2310 C   0  0  0  0  0  2  0  0  0  0  0  0
  180.2810  180.0740  135.8790 C   0  0  0  0  0  2  0  0  0  0  0  0
  183.4340  180.1800  139.6320 F   0  0  0  0  0  0  0  0  0  0  0  0
  180.8650  178.8060  137.5170 C   0  0  0  0  0  0  0  0  0  0  0  0
  181.0750  176.3210  139.6900 O   0  0  0  0  0  0  0  0  0  0  0  0
  182.4990  176.3360  137.1830 C   0  0  0  0  0  2  0  0  0  0  0  0
  182.3130  179.3890  139.4820 C   0  0  2  0  0  3  0  0  0  0  0  0
  181.0600  175.8310  137.2890 C   0  0  2  0  0  3  0  0  0  0  0  0
  188.8280  176.8940  142.6320 O   0  0  0  0  0  0  0  0  0  0  0  0
  189.5140  176.3270  141.5190 C   0  0  0  0  0  2  0  0  0  0  0  0
  191.0200  176.5500  141.6410 C   0  0  2  0  0  3  0  0  0  0  0  0
  190.5840  178.1480  143.5170 C   0  0  0  0  0  2  0  0  0  0  0  0
  190.9290  177.4740  145.8980 N   0  0  1  0  0  0  0  0  0  0  0  0
  191.3260  175.8300  144.0630 C   0  0  0  0  0  2  0  0  0  0  0  0
  191.7330  176.3260  145.4530 C   0  0  0  0  0  2  0  0  0  0  0  0
  191.0090  178.5750  144.9240 C   0  0  0  0  0  2  0  0  0  0  0  0
  191.4340  176.9720  143.0540 C   0  0  1  0  0  3  0  0  0  0  0  0
  189.5380  177.0690  146.0990 C   0  0  0  0  0  3  0  0  0  0  0  0
  188.7970  178.1410  146.8750 C   0  0  0  0  0  2  0  0  0  0  0  0
  189.2690  176.8910  147.5820 C   0  0  0  0  0  2  0  0  0  0  0  0
  191.4850  177.5000  140.6340 N   0  0  0  0  0  2  0  0  0  0  0  0
  190.4450  177.6410  139.6250 C   0  0  0  0  0  2  0  0  0  0  0  0
  190.3870  176.0750  136.1440 C   0  0  0  0  0  3  0  0  0  0  0  0
  191.7460  175.8130  135.9570 C   0  0  0  0  0  3  0  0  0  0  0  0
  190.8660  177.0070  138.3340 C   0  0  0  0  0  0  0  0  0  0  0  0
  192.2260  176.7420  138.1360 C   0  0  0  0  0  3  0  0  0  0  0  0
  192.6650  176.1460  136.9540 C   0  0  0  0  0  3  0  0  0  0  0  0
  189.9340  176.6650  137.3300 C   0  0  0  0  0  0  0  0  0  0  0  0
  188.4690  176.9180  137.4990 C   0  0  0  0  0  2  0  0  0  0  0  0
  188.0520  178.1680  136.7870 C   0  0  0  0  0  0  0  0  0  0  0  0
  188.3510  179.2870  137.2800 O   0  0  0  0  0  0  0  0  0  0  0  0
  187.3060  178.1180  135.5670 N   0  0  0  0  0  2  0  0  0  0  0  0
  186.9990  176.8760  134.8730 C   0  0  0  0  0  2  0  0  0  0  0  0
  185.4450  175.3630  135.2780 C   0  0  0  0  0  1  0  0  0  0  0  0
  185.6180  176.6790  134.8480 O   0  0  0  0  0  0  0  0  0  0  0  0
  1  5  1  0  0  0  0
  2  3  1  0  0  0  0
  2  7  1  0  0  0  0
  4  1  2  0  0  0  0
  4  6  1  0  0  0  0
  5 29  1  0  0  0  0
  5  3  2  0  0  0  0
  6  2  2  0  0  0  0
  8  7  1  0  0  0  0
  9  8  1  0  0  0  0
 10  9  1  0  0  0  0
 11 10  1  0  0  0  0
 12 21  1  6  0  0  0
 12 25  1  0  0  0  0
 14 13  1  1  0  0  0
 14 19  1  0  0  0  0
 15 11  1  1  0  0  0
 16 24  1  0  0  0  0
 17 24  1  0  0  0  0
 18 24  1  1  0  0  0
 18 14  1  0  0  0  0
 18 27  1  0  0  0  0
 19 25  1  6  0  0  0
 19 15  1  0  0  0  0
 22 17  1  0  0  0  0
 22 16  1  0  0  0  0
 24 21  1  0  0  0  0
 26 28  1  0  0  0  0
 26 14  1  0  0  0  0
 27 23  1  6  0  0  0
 27 15  1  0  0  0  0
 28 20  1  1  0  0  0
 28 12  1  0  0  0  0
 30 29  1  0  0  0  0
 31 30  1  1  0  0  0
 32 36  1  0  0  0  0
 33 38  1  6  0  0  0
 34 35  1  0  0  0  0
 35 33  1  0  0  0  0
 36 33  1  0  0  0  0
 37 31  1  6  0  0  0
 37 32  1  0  0  0  0
 37 34  1  0  0  0  0
 38 39  1  0  0  0  0
 38 40  1  0  0  0  0
 39 40  1  0  0  0  0
 41 31  1  0  0  0  0
 42 41  1  0  0  0  0
 43 48  1  0  0  0  0
 44 43  2  0  0  0  0
 44 47  1  0  0  0  0
 45 42  1  0  0  0  0
 46 45  1  0  0  0  0
 47 46  2  0  0  0  0
 48 49  1  0  0  0  0
 48 45  2  0  0  0  0
 50 51  2  0  0  0  0
 50 49  1  0  0  0  0
 52 50  1  0  0  0  0
 53 52  1  0  0  0  0
 55 53  1  0  0  0  0
 55 54  1  0  0  0  0
M  END
>  <MODEL>
3

>  <REMARK>
 VINA RESULT:      -7.3      2.532      7.463
  Name = 
  18 active torsions:
  status: ('A' for Active; 'I' for Inactive)
    1  A    between atoms: O_2  and  C_28
    2  A    between atoms: O_2  and  C_44
    3  A    between atoms: C_4  and  O_37
    4  A    between atoms: C_4  and  N_40
    5  A    between atoms: C_5  and  C_45
    6  A    between atoms: C_7  and  N_22
    7  A    between atoms: C_8  and  N_22
    8  A    between atoms: C_8  and  C_43
    9  A    between atoms: C_10  and  N_32
   10  A    between atoms: C_16  and  C_36
   11  A    between atoms: C_26  and  C_45
   12  A    between atoms: C_27  and  C_54
   13  A    between atoms: C_28  and  C_49
   14  A    between atoms: N_33  and  C_36
   15  A    between atoms: N_33  and  C_49
   16  A    between atoms: C_43  and  C_51
   17  A    between atoms: C_49  and  C_52
   18  A    between atoms: C_51  and  C_54
                            x       y       z     vdW  Elec       q    Type
                         _______ _______ _______ _____ _____    ______ ____

>  <TORSDO>
F 18

$$$$
=
 OpenBabel11052414543D

 55 62  0  0  1  0  0  0  0  0999 V2000
  184.2810  179.1300  143.4800 C   0  0  0  0  0  3  0  0  0  0  0  0
  182.1750  178.6920  141.6890 C   0  0  0  0  0  0  0  0  0  0  0  0
  183.4870  178.7940  141.2150 C   0  0  0  0  0  3  0  0  0  0  0  0
  182.9720  179.0290  143.9540 C   0  0  0  0  0  3  0  0  0  0  0  0
  184.5490  179.0130  142.1120 C   0  0  0  0  0  0  0  0  0  0  0  0
  181.9190  178.8080  143.0610 C   0  0  0  0  0  3  0  0  0  0  0  0
  181.0580  178.4400  140.7360 C   0  0  0  0  0  2  0  0  0  0  0  0
  180.0310  177.5170  141.3620 C   0  0  0  0  0  2  0  0  0  0  0  0
  179.3190  176.7390  140.2760 C   0  0  0  0  0  2  0  0  0  0  0  0
  179.7060  175.2720  140.3430 C   0  0  0  0  0  2  0  0  0  0  0  0
  180.8600  175.0190  139.4960 N   0  0  0  0  0  2  0  0  0  0  0  0
  183.4550  175.6380  137.1070 C   0  0  2  0  0  3  0  0  0  0  0  0
  179.8570  174.9420  135.1010 C   0  0  0  0  0  1  0  0  0  0  0  0
  181.1800  174.8990  135.8530 C   0  0  2  0  0  0  0  0  0  0  0  0
  180.3620  174.8310  138.1400 C   0  0  1  0  0  3  0  0  0  0  0  0
  183.0670  171.7400  137.2550 C   0  0  0  0  0  2  0  0  0  0  0  0
  183.6720  172.7280  135.4530 C   0  0  0  0  0  2  0  0  0  0  0  0
  181.4120  173.4710  136.3850 C   0  0  1  0  0  3  0  0  0  0  0  0
  181.0670  175.7430  137.1300 C   0  0  1  0  0  3  0  0  0  0  0  0
  183.8600  177.2920  135.2820 C   0  0  0  0  0  1  0  0  0  0  0  0
  183.6420  174.1750  137.5520 C   0  0  0  0  0  2  0  0  0  0  0  0
  183.8490  171.3330  136.0190 C   0  0  0  0  0  2  0  0  0  0  0  0
  179.3860  172.7920  137.4330 F   0  0  0  0  0  0  0  0  0  0  0  0
  182.8920  173.1400  136.6920 C   0  0  0  0  0  0  0  0  0  0  0  0
  182.2970  176.2470  137.6600 O   0  0  0  0  0  0  0  0  0  0  0  0
  182.2570  175.4310  134.8950 C   0  0  0  0  0  2  0  0  0  0  0  0
  180.6000  173.3990  137.6820 C   0  0  2  0  0  3  0  0  0  0  0  0
  183.5520  175.8420  135.5950 C   0  0  2  0  0  3  0  0  0  0  0  0
  185.8690  179.1260  141.6740 O   0  0  0  0  0  0  0  0  0  0  0  0
  186.4670  178.1970  140.7730 C   0  0  0  0  0  2  0  0  0  0  0  0
  187.8500  178.6790  140.3390 C   0  0  2  0  0  3  0  0  0  0  0  0
  188.9760  176.9710  138.8990 C   0  0  0  0  0  2  0  0  0  0  0  0
  188.1260  176.4440  136.6090 N   0  0  1  0  0  0  0  0  0  0  0  0
  186.9390  178.1180  138.0300 C   0  0  0  0  0  2  0  0  0  0  0  0
  187.3450  177.6900  136.6170 C   0  0  0  0  0  2  0  0  0  0  0  0
  189.3200  176.5720  137.4610 C   0  0  0  0  0  2  0  0  0  0  0  0
  188.1850  178.2710  138.9020 C   0  0  1  0  0  3  0  0  0  0  0  0
  187.2960  175.3250  137.0560 C   0  0  0  0  0  3  0  0  0  0  0  0
  188.0250  174.0170  136.8130 C   0  0  0  0  0  2  0  0  0  0  0  0
  186.9310  174.4570  135.8660 C   0  0  0  0  0  2  0  0  0  0  0  0
  188.8720  178.2300  141.2810 N   0  0  0  0  0  2  0  0  0  0  0  0
  188.3320  177.1130  142.0440 C   0  0  0  0  0  2  0  0  0  0  0  0
  189.6650  178.0760  145.4890 C   0  0  0  0  0  3  0  0  0  0  0  0
  188.5420  177.8210  146.2800 C   0  0  0  0  0  3  0  0  0  0  0  0
  188.4360  177.3740  143.5160 C   0  0  0  0  0  0  0  0  0  0  0  0
  187.3170  177.1220  144.3170 C   0  0  0  0  0  3  0  0  0  0  0  0
  187.3690  177.3430  145.6930 C   0  0  0  0  0  3  0  0  0  0  0  0
  189.6260  177.8510  144.1070 C   0  0  0  0  0  0  0  0  0  0  0  0
  190.8530  178.1240  143.2950 C   0  0  0  0  0  2  0  0  0  0  0  0
  191.5930  176.8570  142.9930 C   0  0  0  0  0  0  0  0  0  0  0  0
  191.5580  175.9110  143.8230 O   0  0  0  0  0  0  0  0  0  0  0  0
  192.3510  176.7050  141.7900 N   0  0  0  0  0  2  0  0  0  0  0  0
  192.3710  177.7030  140.7310 C   0  0  0  0  0  2  0  0  0  0  0  0
  192.8520  176.5920  138.8860 C   0  0  0  0  0  1  0  0  0  0  0  0
  193.4170  177.4320  139.8470 O   0  0  0  0  0  0  0  0  0  0  0  0
  1  4  1  0  0  0  0
  2  6  1  0  0  0  0
  3  2  2  0  0  0  0
  3  5  1  0  0  0  0
  5  1  2  0  0  0  0
  6  4  2  0  0  0  0
  7  8  1  0  0  0  0
  7  2  1  0  0  0  0
  9 10  1  0  0  0  0
  9  8  1  0  0  0  0
 11 10  1  0  0  0  0
 12 21  1  6  0  0  0
 12 25  1  0  0  0  0
 14 13  1  6  0  0  0
 14 18  1  0  0  0  0
 14 19  1  0  0  0  0
 15 11  1  1  0  0  0
 17 22  1  0  0  0  0
 17 24  1  0  0  0  0
 18 24  1  1  0  0  0
 18 27  1  0  0  0  0
 19 25  1  1  0  0  0
 19 15  1  0  0  0  0
 22 16  1  0  0  0  0
 24 16  1  0  0  0  0
 24 21  1  0  0  0  0
 26 28  1  0  0  0  0
 26 14  1  0  0  0  0
 27 23  1  6  0  0  0
 27 15  1  0  0  0  0
 28 20  1  1  0  0  0
 28 12  1  0  0  0  0
 29  5  1  0  0  0  0
 30 29  1  0  0  0  0
 31 30  1  1  0  0  0
 31 41  1  0  0  0  0
 32 37  1  0  0  0  0
 33 35  1  0  0  0  0
 33 38  1  1  0  0  0
 33 36  1  0  0  0  0
 34 37  1  0  0  0  0
 35 34  1  0  0  0  0
 36 32  1  0  0  0  0
 37 31  1  1  0  0  0
 39 38  1  0  0  0  0
 40 39  1  0  0  0  0
 40 38  1  0  0  0  0
 41 42  1  0  0  0  0
 42 45  1  0  0  0  0
 43 44  1  0  0  0  0
 45 48  1  0  0  0  0
 45 46  2  0  0  0  0
 46 47  1  0  0  0  0
 47 44  2  0  0  0  0
 48 43  2  0  0  0  0
 49 48  1  0  0  0  0
 50 49  1  0  0  0  0
 50 51  2  0  0  0  0
 52 50  1  0  0  0  0
 53 52  1  0  0  0  0
 54 55  1  0  0  0  0
 55 53  1  0  0  0  0
M  END
>  <MODEL>
4

>  <REMARK>
 VINA RESULT:      -7.2      1.542      2.331
  Name = 
  18 active torsions:
  status: ('A' for Active; 'I' for Inactive)
    1  A    between atoms: O_2  and  C_28
    2  A    between atoms: O_2  and  C_44
    3  A    between atoms: C_4  and  O_37
    4  A    between atoms: C_4  and  N_40
    5  A    between atoms: C_5  and  C_45
    6  A    between atoms: C_7  and  N_22
    7  A    between atoms: C_8  and  N_22
    8  A    between atoms: C_8  and  C_43
    9  A    between atoms: C_10  and  N_32
   10  A    between atoms: C_16  and  C_36
   11  A    between atoms: C_26  and  C_45
   12  A    between atoms: C_27  and  C_54
   13  A    between atoms: C_28  and  C_49
   14  A    between atoms: N_33  and  C_36
   15  A    between atoms: N_33  and  C_49
   16  A    between atoms: C_43  and  C_51
   17  A    between atoms: C_49  and  C_52
   18  A    between atoms: C_51  and  C_54
                            x       y       z     vdW  Elec       q    Type
                         _______ _______ _______ _____ _____    ______ ____

>  <TORSDO>
F 18

$$$$
=
 OpenBabel11052414543D

 55 62  0  0  1  0  0  0  0  0999 V2000
  190.7550  176.5960  143.2560 C   0  0  0  0  0  3  0  0  0  0  0  0
  188.1300  177.3110  143.9140 C   0  0  0  0  0  0  0  0  0  0  0  0
  188.4870  177.1150  142.5760 C   0  0  0  0  0  3  0  0  0  0  0  0
  190.3980  176.7910  144.5910 C   0  0  0  0  0  3  0  0  0  0  0  0
  189.8050  176.7550  142.2410 C   0  0  0  0  0  0  0  0  0  0  0  0
  189.0880  177.1470  144.9220 C   0  0  0  0  0  3  0  0  0  0  0  0
  186.7280  177.6730  144.2640 C   0  0  0  0  0  2  0  0  0  0  0  0
  185.9710  178.1050  143.0230 C   0  0  0  0  0  2  0  0  0  0  0  0
  184.5930  178.5960  143.4130 C   0  0  0  0  0  2  0  0  0  0  0  0
  183.5970  178.2960  142.3070 C   0  0  0  0  0  2  0  0  0  0  0  0
  184.1790  178.6050  141.0110 N   0  0  0  0  0  2  0  0  0  0  0  0
  183.4100  176.7220  138.0640 C   0  0  2  0  0  3  0  0  0  0  0  0
  181.3130  180.3340  137.9920 C   0  0  0  0  0  1  0  0  0  0  0  0
  181.8590  178.9280  138.2010 C   0  0  2  0  0  0  0  0  0  0  0  0
  183.1500  179.2770  140.2290 C   0  0  1  0  0  3  0  0  0  0  0  0
  180.4250  176.0920  140.5250 C   0  0  0  0  0  2  0  0  0  0  0  0
  180.1340  176.0890  138.4020 C   0  0  0  0  0  2  0  0  0  0  0  0
  181.0940  178.2560  139.3570 C   0  0  1  0  0  3  0  0  0  0  0  0
  183.2990  179.0160  138.7270 C   0  0  1  0  0  3  0  0  0  0  0  0
  183.6080  177.0780  135.6010 C   0  0  0  0  0  1  0  0  0  0  0  0
  182.5600  176.0990  139.1870 C   0  0  0  0  0  2  0  0  0  0  0  0
  179.4110  175.4710  139.5820 C   0  0  0  0  0  2  0  0  0  0  0  0
  181.0360  179.8250  141.1450 F   0  0  0  0  0  0  0  0  0  0  0  0
  181.1550  176.7100  139.3440 C   0  0  0  0  0  0  0  0  0  0  0  0
  184.1270  177.8750  138.4800 O   0  0  0  0  0  0  0  0  0  0  0  0
  181.7760  178.2100  136.8450 C   0  0  0  0  0  2  0  0  0  0  0  0
  181.7700  178.7760  140.6290 C   0  0  2  0  0  3  0  0  0  0  0  0
  182.6430  176.9540  136.7620 C   0  0  2  0  0  3  0  0  0  0  0  0
  190.1980  176.5570  140.9160 O   0  0  0  0  0  0  0  0  0  0  0  0
  190.3620  177.6290  139.9900 C   0  0  0  0  0  2  0  0  0  0  0  0
  190.5970  177.0920  138.5800 C   0  0  2  0  0  3  0  0  0  0  0  0
  189.6940  176.7920  136.2660 C   0  0  0  0  0  2  0  0  0  0  0  0
  187.2370  176.6030  135.8490 N   0  0  1  0  0  0  0  0  0  0  0  0
  188.0960  176.8500  138.1790 C   0  0  0  0  0  2  0  0  0  0  0  0
  186.9720  177.1560  137.1860 C   0  0  0  0  0  2  0  0  0  0  0  0
  188.5230  177.0960  135.3270 C   0  0  0  0  0  2  0  0  0  0  0  0
  189.4220  177.3840  137.6420 C   0  0  1  0  0  3  0  0  0  0  0  0
  187.2310  175.1410  135.8970 C   0  0  0  0  0  3  0  0  0  0  0  0
  187.7700  174.5820  134.5940 C   0  0  0  0  0  2  0  0  0  0  0  0
  186.2790  174.6020  134.8450 C   0  0  0  0  0  2  0  0  0  0  0  0
  190.9210  175.6690  138.6160 N   0  0  0  0  0  2  0  0  0  0  0  0
  192.3250  175.5110  138.2640 C   0  0  0  0  0  2  0  0  0  0  0  0
  193.8960  172.7540  136.1420 C   0  0  0  0  0  3  0  0  0  0  0  0
  192.7610  172.2300  135.5190 C   0  0  0  0  0  3  0  0  0  0  0  0
  192.5110  174.3650  137.3150 C   0  0  0  0  0  0  0  0  0  0  0  0
  191.3800  173.8330  136.6870 C   0  0  0  0  0  3  0  0  0  0  0  0
  191.5030  172.7700  135.7910 C   0  0  0  0  0  3  0  0  0  0  0  0
  193.7850  173.8250  137.0370 C   0  0  0  0  0  0  0  0  0  0  0  0
  195.0250  174.3670  137.6750 C   0  0  0  0  0  2  0  0  0  0  0  0
  195.9560  173.2610  138.0680 C   0  0  0  0  0  0  0  0  0  0  0  0
  195.5160  172.2990  138.7510 O   0  0  0  0  0  0  0  0  0  0  0  0
  197.3380  173.2830  137.7000 N   0  0  0  0  0  2  0  0  0  0  0  0
  197.9140  174.3010  136.8330 C   0  0  0  0  0  2  0  0  0  0  0  0
  198.8680  174.5340  138.8090 C   0  0  0  0  0  1  0  0  0  0  0  0
  198.6790  175.1890  137.5910 O   0  0  0  0  0  0  0  0  0  0  0  0
  1  4  1  0  0  0  0
  2  7  1  0  0  0  0
  2  6  1  0  0  0  0
  3  2  2  0  0  0  0
  4  6  2  0  0  0  0
  5  3  1  0  0  0  0
  5  1  2  0  0  0  0
  8  9  1  0  0  0  0
  8  7  1  0  0  0  0
 10  9  1  0  0  0  0
 11 10  1  0  0  0  0
 12 25  1  0  0  0  0
 12 21  1  1  0  0  0
 14 13  1  6  0  0  0
 14 19  1  0  0  0  0
 14 18  1  0  0  0  0
 15 27  1  0  0  0  0
 15 11  1  1  0  0  0
 17 24  1  0  0  0  0
 17 22  1  0  0  0  0
 18 24  1  6  0  0  0
 18 27  1  0  0  0  0
 19 25  1  1  0  0  0
 19 15  1  0  0  0  0
 21 24  1  0  0  0  0
 22 16  1  0  0  0  0
 24 16  1  0  0  0  0
 26 14  1  0  0  0  0
 27 23  1  6  0  0  0
 28 20  1  6  0  0  0
 28 26  1  0  0  0  0
 28 12  1  0  0  0  0
 29  5  1  0  0  0  0
 30 29  1  0  0  0  0
 31 41  1  0  0  0  0
 31 30  1  1  0  0  0
 32 37  1  0  0  0  0
 33 38  1  1  0  0  0
 33 35  1  0  0  0  0
 35 34  1  0  0  0  0
 36 33  1  0  0  0  0
 36 32  1  0  0  0  0
 37 34  1  0  0  0  0
 37 31  1  1  0  0  0
 39 40  1  0  0  0  0
 39 38  1  0  0  0  0
 40 38  1  0  0  0  0
 42 41  1  0  0  0  0
 43 48  1  0  0  0  0
 44 47  1  0  0  0  0
 44 43  2  0  0  0  0
 45 42  1  0  0  0  0
 46 45  1  0  0  0  0
 47 46  2  0  0  0  0
 48 45  2  0  0  0  0
 48 49  1  0  0  0  0
 49 50  1  0  0  0  0
 50 51  2  0  0  0  0
 52 50  1  0  0  0  0
 53 55  1  0  0  0  0
 53 52  1  0  0  0  0
 55 54  1  0  0  0  0
M  END
>  <MODEL>
5

>  <REMARK>
 VINA RESULT:      -7.1      3.852      7.060
  Name = 
  18 active torsions:
  status: ('A' for Active; 'I' for Inactive)
    1  A    between atoms: O_2  and  C_28
    2  A    between atoms: O_2  and  C_44
    3  A    between atoms: C_4  and  O_37
    4  A    between atoms: C_4  and  N_40
    5  A    between atoms: C_5  and  C_45
    6  A    between atoms: C_7  and  N_22
    7  A    between atoms: C_8  and  N_22
    8  A    between atoms: C_8  and  C_43
    9  A    between atoms: C_10  and  N_32
   10  A    between atoms: C_16  and  C_36
   11  A    between atoms: C_26  and  C_45
   12  A    between atoms: C_27  and  C_54
   13  A    between atoms: C_28  and  C_49
   14  A    between atoms: N_33  and  C_36
   15  A    between atoms: N_33  and  C_49
   16  A    between atoms: C_43  and  C_51
   17  A    between atoms: C_49  and  C_52
   18  A    between atoms: C_51  and  C_54
                            x       y       z     vdW  Elec       q    Type
                         _______ _______ _______ _____ _____    ______ ____

>  <TORSDO>
F 18

$$$$
=
 OpenBabel11052414543D

 55 62  0  0  1  0  0  0  0  0999 V2000
  187.8120  178.0920  136.5910 C   0  0  0  0  0  3  0  0  0  0  0  0
  185.5920  176.4900  136.0050 C   0  0  0  0  0  0  0  0  0  0  0  0
  186.2400  176.3650  137.2380 C   0  0  0  0  0  3  0  0  0  0  0  0
  187.1660  178.2180  135.3600 C   0  0  0  0  0  3  0  0  0  0  0  0
  187.3550  177.1690  137.5370 C   0  0  0  0  0  0  0  0  0  0  0  0
  186.0560  177.4190  135.0660 C   0  0  0  0  0  3  0  0  0  0  0  0
  184.4000  175.6500  135.7030 C   0  0  0  0  0  2  0  0  0  0  0  0
  184.2700  174.5350  136.7220 C   0  0  0  0  0  2  0  0  0  0  0  0
  182.8300  174.4260  137.1750 C   0  0  0  0  0  2  0  0  0  0  0  0
  181.9950  175.5210  136.5350 C   0  0  0  0  0  2  0  0  0  0  0  0
  181.2840  176.2710  137.5570 N   0  0  0  0  0  2  0  0  0  0  0  0
  180.0560  179.6230  137.8460 C   0  0  2  0  0  3  0  0  0  0  0  0
  183.9980  179.4630  139.2210 C   0  0  0  0  0  1  0  0  0  0  0  0
  182.4940  179.4130  138.9890 C   0  0  2  0  0  0  0  0  0  0  0  0
  182.2630  177.1190  138.2240 C   0  0  1  0  0  3  0  0  0  0  0  0
  179.7110  178.0630  141.4250 C   0  0  0  0  0  2  0  0  0  0  0  0
  180.0800  180.1560  141.1570 C   0  0  0  0  0  2  0  0  0  0  0  0
  181.8350  178.6100  140.1280 C   0  0  1  0  0  3  0  0  0  0  0  0
  182.2010  178.5710  137.7390 C   0  0  1  0  0  3  0  0  0  0  0  0
  180.7210  181.8620  136.9650 C   0  0  0  0  0  1  0  0  0  0  0  0
  179.4670  178.8610  139.0480 C   0  0  0  0  0  2  0  0  0  0  0  0
  179.4600  179.3110  142.2520 C   0  0  0  0  0  2  0  0  0  0  0  0
  183.1020  176.6120  140.3800 F   0  0  0  0  0  0  0  0  0  0  0  0
  180.3290  178.9080  140.3240 C   0  0  0  0  0  0  0  0  0  0  0  0
  180.9610  178.8420  137.0780 O   0  0  0  0  0  0  0  0  0  0  0  0
  182.0150  180.8660  138.8400 C   0  0  0  0  0  2  0  0  0  0  0  0
  182.0090  177.1430  139.7240 C   0  0  2  0  0  3  0  0  0  0  0  0
  180.6320  180.9930  138.2030 C   0  0  2  0  0  3  0  0  0  0  0  0
  188.0290  177.0660  138.7560 O   0  0  0  0  0  0  0  0  0  0  0  0
  188.9100  178.0770  139.2400 C   0  0  0  0  0  2  0  0  0  0  0  0
  190.2900  177.4950  139.5360 C   0  0  2  0  0  3  0  0  0  0  0  0
  192.5140  177.0790  138.4690 C   0  0  0  0  0  2  0  0  0  0  0  0
  192.8220  175.2600  136.7840 N   0  0  1  0  0  0  0  0  0  0  0  0
  190.5980  175.6040  137.8610 C   0  0  0  0  0  2  0  0  0  0  0  0
  191.3650  175.1850  136.6040 C   0  0  0  0  0  2  0  0  0  0  0  0
  193.2280  176.6140  137.1970 C   0  0  0  0  0  2  0  0  0  0  0  0
  191.0060  177.0180  138.2700 C   0  0  1  0  0  3  0  0  0  0  0  0
  193.2610  174.2720  137.7690 C   0  0  0  0  0  3  0  0  0  0  0  0
  194.7720  174.3110  137.8980 C   0  0  0  0  0  2  0  0  0  0  0  0
  194.1130  173.2170  137.0880 C   0  0  0  0  0  2  0  0  0  0  0  0
  190.1990  176.4360  140.5380 N   0  0  0  0  0  2  0  0  0  0  0  0
  189.0920  176.7450  141.4310 C   0  0  0  0  0  2  0  0  0  0  0  0
  189.2710  177.7870  145.0990 C   0  0  0  0  0  3  0  0  0  0  0  0
  190.6270  178.1050  145.2100 C   0  0  0  0  0  3  0  0  0  0  0  0
  189.5960  177.2130  142.7630 C   0  0  0  0  0  0  0  0  0  0  0  0
  190.9530  177.5320  142.8840 C   0  0  0  0  0  3  0  0  0  0  0  0
  191.4670  177.9780  144.1020 C   0  0  0  0  0  3  0  0  0  0  0  0
  188.7430  177.3470  143.8790 C   0  0  0  0  0  0  0  0  0  0  0  0
  187.2830  177.0280  143.7960 C   0  0  0  0  0  2  0  0  0  0  0  0
  186.5060  178.1970  143.2720 C   0  0  0  0  0  0  0  0  0  0  0  0
  186.7510  178.6300  142.1150 O   0  0  0  0  0  0  0  0  0  0  0  0
  185.5030  178.8400  144.0620 N   0  0  0  0  0  2  0  0  0  0  0  0
  185.0830  178.3510  145.3680 C   0  0  0  0  0  2  0  0  0  0  0  0
  183.0900  178.9920  144.6720 C   0  0  0  0  0  1  0  0  0  0  0  0
  183.9370  179.0310  145.7800 O   0  0  0  0  0  0  0  0  0  0  0  0
  1  5  1  0  0  0  0
  2  3  1  0  0  0  0
  3  5  2  0  0  0  0
  4  1  2  0  0  0  0
  5 29  1  0  0  0  0
  6  4  1  0  0  0  0
  6  2  2  0  0  0  0
  7  2  1  0  0  0  0
  7  8  1  0  0  0  0
  8  9  1  0  0  0  0
 10  9  1  0  0  0  0
 10 11  1  0  0  0  0
 12 28  1  0  0  0  0
 12 21  1  1  0  0  0
 14 13  1  1  0  0  0
 14 18  1  0  0  0  0
 15 11  1  6  0  0  0
 15 27  1  0  0  0  0
 16 22  1  0  0  0  0
 17 22  1  0  0  0  0
 18 24  1  6  0  0  0
 19 25  1  1  0  0  0
 19 15  1  0  0  0  0
 19 14  1  0  0  0  0
 21 24  1  0  0  0  0
 24 17  1  0  0  0  0
 24 16  1  0  0  0  0
 25 12  1  0  0  0  0
 26 14  1  0  0  0  0
 27 18  1  0  0  0  0
 27 23  1  1  0  0  0
 28 20  1  6  0  0  0
 28 26  1  0  0  0  0
 29 30  1  0  0  0  0
 31 30  1  6  0  0  0
 31 41  1  0  0  0  0
 33 36  1  0  0  0  0
 33 38  1  1  0  0  0
 34 37  1  0  0  0  0
 35 33  1  0  0  0  0
 35 34  1  0  0  0  0
 36 32  1  0  0  0  0
 37 32  1  0  0  0  0
 37 31  1  1  0  0  0
 38 39  1  0  0  0  0
 40 38  1  0  0  0  0
 40 39  1  0  0  0  0
 41 42  1  0  0  0  0
 42 45  1  0  0  0  0
 43 44  1  0  0  0  0
 45 46  2  0  0  0  0
 45 48  1  0  0  0  0
 46 47  1  0  0  0  0
 47 44  2  0  0  0  0
 48 43  2  0  0  0  0
 49 48  1  0  0  0  0
 50 49  1  0  0  0  0
 50 52  1  0  0  0  0
 51 50  2  0  0  0  0
 52 53  1  0  0  0  0
 53 55  1  0  0  0  0
 54 55  1  0  0  0  0
M  END
>  <MODEL>
6

>  <REMARK>
 VINA RESULT:      -7.1      2.638      6.007
  Name = 
  18 active torsions:
  status: ('A' for Active; 'I' for Inactive)
    1  A    between atoms: O_2  and  C_28
    2  A    between atoms: O_2  and  C_44
    3  A    between atoms: C_4  and  O_37
    4  A    between atoms: C_4  and  N_40
    5  A    between atoms: C_5  and  C_45
    6  A    between atoms: C_7  and  N_22
    7  A    between atoms: C_8  and  N_22
    8  A    between atoms: C_8  and  C_43
    9  A    between atoms: C_10  and  N_32
   10  A    between atoms: C_16  and  C_36
   11  A    between atoms: C_26  and  C_45
   12  A    between atoms: C_27  and  C_54
   13  A    between atoms: C_28  and  C_49
   14  A    between atoms: N_33  and  C_36
   15  A    between atoms: N_33  and  C_49
   16  A    between atoms: C_43  and  C_51
   17  A    between atoms: C_49  and  C_52
   18  A    between atoms: C_51  and  C_54
                            x       y       z     vdW  Elec       q    Type
                         _______ _______ _______ _____ _____    ______ ____

>  <TORSDO>
F 18

$$$$
=
 OpenBabel11052414543D

 55 62  0  0  1  0  0  0  0  0999 V2000
  184.0030  178.8330  143.4860 C   0  0  0  0  0  3  0  0  0  0  0  0
  181.6820  178.6700  141.9300 C   0  0  0  0  0  0  0  0  0  0  0  0
  182.9270  178.3820  141.3620 C   0  0  0  0  0  3  0  0  0  0  0  0
  182.7610  179.1200  144.0540 C   0  0  0  0  0  3  0  0  0  0  0  0
  184.0960  178.4610  142.1410 C   0  0  0  0  0  0  0  0  0  0  0  0
  181.6000  179.0380  143.2780 C   0  0  0  0  0  3  0  0  0  0  0  0
  180.4460  178.5640  141.1050 C   0  0  0  0  0  2  0  0  0  0  0  0
  179.5680  177.4390  141.6150 C   0  0  0  0  0  2  0  0  0  0  0  0
  178.9450  176.7100  140.4430 C   0  0  0  0  0  2  0  0  0  0  0  0
  179.5900  175.3460  140.2720 C   0  0  0  0  0  2  0  0  0  0  0  0
  180.8100  175.4640  139.4890 N   0  0  0  0  0  2  0  0  0  0  0  0
  181.9840  177.8800  137.1210 C   0  0  2  0  0  3  0  0  0  0  0  0
  179.8140  174.9200  135.1260 C   0  0  0  0  0  1  0  0  0  0  0  0
  180.8260  175.8000  135.8460 C   0  0  2  0  0  0  0  0  0  0  0  0
  180.4880  175.0470  138.1310 C   0  0  1  0  0  3  0  0  0  0  0  0
  184.5050  174.8860  136.9090 C   0  0  0  0  0  2  0  0  0  0  0  0
  184.0770  176.1010  135.1970 C   0  0  0  0  0  2  0  0  0  0  0  0
  182.0490  174.9460  136.2370 C   0  0  1  0  0  3  0  0  0  0  0  0
  180.2470  176.2390  137.1980 C   0  0  1  0  0  3  0  0  0  0  0  0
  180.9400  179.4150  135.4520 C   0  0  0  0  0  1  0  0  0  0  0  0
  183.1930  176.9750  137.4230 C   0  0  0  0  0  2  0  0  0  0  0  0
  185.2400  175.2290  135.6270 C   0  0  0  0  0  2  0  0  0  0  0  0
  181.2060  172.9670  137.2540 F   0  0  0  0  0  0  0  0  0  0  0  0
  183.3400  175.7630  136.4840 C   0  0  0  0  0  0  0  0  0  0  0  0
  180.7880  177.4430  137.7500 O   0  0  0  0  0  0  0  0  0  0  0  0
  181.1190  176.9920  134.9220 C   0  0  0  0  0  2  0  0  0  0  0  0
  181.6390  174.2470  137.5360 C   0  0  2  0  0  3  0  0  0  0  0  0
  181.7840  178.1700  135.6330 C   0  0  2  0  0  3  0  0  0  0  0  0
  185.3560  178.1860  141.6050 O   0  0  0  0  0  0  0  0  0  0  0  0
  185.9700  179.0060  140.6150 C   0  0  0  0  0  2  0  0  0  0  0  0
  187.4920  178.9170  140.7080 C   0  0  2  0  0  3  0  0  0  0  0  0
  187.2760  177.5310  138.6360 C   0  0  0  0  0  2  0  0  0  0  0  0
  189.2700  176.4610  137.5790 N   0  0  1  0  0  0  0  0  0  0  0  0
  189.5420  177.8770  139.6160 C   0  0  0  0  0  2  0  0  0  0  0  0
  190.0320  176.6640  138.8200 C   0  0  0  0  0  2  0  0  0  0  0  0
  187.8320  176.3310  137.8660 C   0  0  0  0  0  2  0  0  0  0  0  0
  188.0550  177.7250  139.9290 C   0  0  1  0  0  3  0  0  0  0  0  0
  189.5100  177.5670  136.6530 C   0  0  0  0  0  3  0  0  0  0  0  0
  188.6880  177.3690  135.3930 C   0  0  0  0  0  2  0  0  0  0  0  0
  190.1640  177.0400  135.3890 C   0  0  0  0  0  2  0  0  0  0  0  0
  187.9250  178.9050  142.1030 N   0  0  0  0  0  2  0  0  0  0  0  0
  187.7020  177.5690  142.6390 C   0  0  0  0  0  2  0  0  0  0  0  0
  188.8160  177.7380  146.2860 C   0  0  0  0  0  3  0  0  0  0  0  0
  187.5870  177.6110  146.9370 C   0  0  0  0  0  3  0  0  0  0  0  0
  187.6950  177.5910  144.1370 C   0  0  0  0  0  0  0  0  0  0  0  0
  186.4690  177.4660  144.7980 C   0  0  0  0  0  3  0  0  0  0  0  0
  186.4130  177.4740  146.1930 C   0  0  0  0  0  3  0  0  0  0  0  0
  188.8840  177.7230  144.8870 C   0  0  0  0  0  0  0  0  0  0  0  0
  190.2210  177.8490  144.2270 C   0  0  0  0  0  2  0  0  0  0  0  0
  190.8180  176.5020  143.9590 C   0  0  0  0  0  0  0  0  0  0  0  0
  190.5680  175.9220  142.8690 O   0  0  0  0  0  0  0  0  0  0  0  0
  191.6540  175.8520  144.9200 N   0  0  0  0  0  2  0  0  0  0  0  0
  192.0760  176.4820  146.1630 C   0  0  0  0  0  2  0  0  0  0  0  0
  192.4690  175.5780  148.1360 C   0  0  0  0  0  1  0  0  0  0  0  0
  191.4380  175.8720  147.2430 O   0  0  0  0  0  0  0  0  0  0  0  0
  1  4  1  0  0  0  0
  2  6  1  0  0  0  0
  3  2  2  0  0  0  0
  3  5  1  0  0  0  0
  5  1  2  0  0  0  0
  6  4  2  0  0  0  0
  7  8  1  0  0  0  0
  7  2  1  0  0  0  0
  9  8  1  0  0  0  0
 10  9  1  0  0  0  0
 11 10  1  0  0  0  0
 12 21  1  6  0  0  0
 12 25  1  0  0  0  0
 14 13  1  6  0  0  0
 14 18  1  0  0  0  0
 14 19  1  0  0  0  0
 15 11  1  1  0  0  0
 17 22  1  0  0  0  0
 17 24  1  0  0  0  0
 18 24  1  1  0  0  0
 18 27  1  0  0  0  0
 19 25  1  1  0  0  0
 19 15  1  0  0  0  0
 22 16  1  0  0  0  0
 24 16  1  0  0  0  0
 24 21  1  0  0  0  0
 26 28  1  0  0  0  0
 26 14  1  0  0  0  0
 27 23  1  6  0  0  0
 27 15  1  0  0  0  0
 28 20  1  1  0  0  0
 28 12  1  0  0  0  0
 29  5  1  0  0  0  0
 30 29  1  0  0  0  0
 31 30  1  1  0  0  0
 31 41  1  0  0  0  0
 32 37  1  0  0  0  0
 33 38  1  6  0  0  0
 33 36  1  0  0  0  0
 33 35  1  0  0  0  0
 34 37  1  0  0  0  0
 35 34  1  0  0  0  0
 36 32  1  0  0  0  0
 37 31  1  6  0  0  0
 39 38  1  0  0  0  0
 40 39  1  0  0  0  0
 40 38  1  0  0  0  0
 41 42  1  0  0  0  0
 42 45  1  0  0  0  0
 43 44  1  0  0  0  0
 45 46  2  0  0  0  0
 45 48  1  0  0  0  0
 46 47  1  0  0  0  0
 47 44  2  0  0  0  0
 48 43  2  0  0  0  0
 49 48  1  0  0  0  0
 50 49  1  0  0  0  0
 50 52  1  0  0  0  0
 51 50  2  0  0  0  0
 52 53  1  0  0  0  0
 53 55  1  0  0  0  0
 55 54  1  0  0  0  0
M  END
>  <MODEL>
7

>  <REMARK>
 VINA RESULT:      -7.0      1.414      2.023
  Name = 
  18 active torsions:
  status: ('A' for Active; 'I' for Inactive)
    1  A    between atoms: O_2  and  C_28
    2  A    between atoms: O_2  and  C_44
    3  A    between atoms: C_4  and  O_37
    4  A    between atoms: C_4  and  N_40
    5  A    between atoms: C_5  and  C_45
    6  A    between atoms: C_7  and  N_22
    7  A    between atoms: C_8  and  N_22
    8  A    between atoms: C_8  and  C_43
    9  A    between atoms: C_10  and  N_32
   10  A    between atoms: C_16  and  C_36
   11  A    between atoms: C_26  and  C_45
   12  A    between atoms: C_27  and  C_54
   13  A    between atoms: C_28  and  C_49
   14  A    between atoms: N_33  and  C_36
   15  A    between atoms: N_33  and  C_49
   16  A    between atoms: C_43  and  C_51
   17  A    between atoms: C_49  and  C_52
   18  A    between atoms: C_51  and  C_54
                            x       y       z     vdW  Elec       q    Type
                         _______ _______ _______ _____ _____    ______ ____

>  <TORSDO>
F 18

$$$$
=
 OpenBabel11052414543D

 55 62  0  0  1  0  0  0  0  0999 V2000
  190.4200  176.9750  138.5420 C   0  0  0  0  0  3  0  0  0  0  0  0
  189.2610  175.0710  136.8480 C   0  0  0  0  0  0  0  0  0  0  0  0
  188.5360  175.5770  137.9310 C   0  0  0  0  0  3  0  0  0  0  0  0
  191.1440  176.4700  137.4600 C   0  0  0  0  0  3  0  0  0  0  0  0
  189.1150  176.5350  138.7850 C   0  0  0  0  0  0  0  0  0  0  0  0
  190.5660  175.5200  136.6120 C   0  0  0  0  0  3  0  0  0  0  0  0
  188.6360  174.0720  135.9370 C   0  0  0  0  0  2  0  0  0  0  0  0
  187.8780  173.0310  136.7390 C   0  0  0  0  0  2  0  0  0  0  0  0
  186.4130  173.0650  136.3590 C   0  0  0  0  0  2  0  0  0  0  0  0
  185.6220  173.8470  137.3930 C   0  0  0  0  0  2  0  0  0  0  0  0
  184.2210  173.9120  137.0070 N   0  0  0  0  0  2  0  0  0  0  0  0
  181.5780  175.9560  138.2970 C   0  0  2  0  0  3  0  0  0  0  0  0
  182.9850  177.5950  134.7210 C   0  0  0  0  0  1  0  0  0  0  0  0
  182.7100  177.1310  136.1440 C   0  0  2  0  0  0  0  0  0  0  0  0
  184.0570  175.1090  136.1930 C   0  0  1  0  0  3  0  0  0  0  0  0
  184.9030  177.7420  139.3570 C   0  0  0  0  0  2  0  0  0  0  0  0
  183.1200  178.8600  138.9590 C   0  0  0  0  0  2  0  0  0  0  0  0
  183.9470  177.4200  137.0170 C   0  0  1  0  0  3  0  0  0  0  0  0
  182.6050  175.5990  136.1670 C   0  0  1  0  0  3  0  0  0  0  0  0
  179.3510  176.7370  137.4850 C   0  0  0  0  0  1  0  0  0  0  0  0
  182.8290  176.3320  139.1140 C   0  0  0  0  0  2  0  0  0  0  0  0
  184.3700  179.0970  139.7820 C   0  0  0  0  0  2  0  0  0  0  0  0
  185.8380  176.6220  135.8120 F   0  0  0  0  0  0  0  0  0  0  0  0
  183.6500  177.4990  138.5330 C   0  0  0  0  0  0  0  0  0  0  0  0
  181.8520  175.0390  137.2470 O   0  0  0  0  0  0  0  0  0  0  0  0
  181.4080  177.8120  136.5940 C   0  0  0  0  0  2  0  0  0  0  0  0
  184.8970  176.2490  136.7510 C   0  0  2  0  0  3  0  0  0  0  0  0
  180.7670  177.1600  137.8180 C   0  0  2  0  0  3  0  0  0  0  0  0
  188.4230  177.0580  139.8790 O   0  0  0  0  0  0  0  0  0  0  0  0
  188.7490  178.3110  140.4730 C   0  0  0  0  0  2  0  0  0  0  0  0
  188.6970  178.2160  141.9970 C   0  0  2  0  0  3  0  0  0  0  0  0
  190.3700  178.5820  143.8210 C   0  0  0  0  0  2  0  0  0  0  0  0
  191.6990  176.6850  144.7590 N   0  0  1  0  0  0  0  0  0  0  0  0
  190.0040  176.2650  142.9760 C   0  0  0  0  0  2  0  0  0  0  0  0
  191.3510  175.8670  143.5870 C   0  0  0  0  0  2  0  0  0  0  0  0
  191.7030  178.1160  144.4120 C   0  0  0  0  0  2  0  0  0  0  0  0
  190.0240  177.7450  142.5970 C   0  0  1  0  0  3  0  0  0  0  0  0
  190.7630  176.4270  145.8520 C   0  0  0  0  0  3  0  0  0  0  0  0
  191.2370  177.1290  147.1110 C   0  0  0  0  0  2  0  0  0  0  0  0
  191.4640  175.6430  146.9470 C   0  0  0  0  0  2  0  0  0  0  0  0
  187.5810  177.3770  142.4240 N   0  0  0  0  0  2  0  0  0  0  0  0
  186.4640  178.2440  142.7730 C   0  0  0  0  0  2  0  0  0  0  0  0
  184.7610  178.2340  146.1890 C   0  0  0  0  0  3  0  0  0  0  0  0
  185.8750  178.2290  147.0320 C   0  0  0  0  0  3  0  0  0  0  0  0
  186.2250  178.2350  144.2520 C   0  0  0  0  0  0  0  0  0  0  0  0
  187.3340  178.2290  145.1050 C   0  0  0  0  0  3  0  0  0  0  0  0
  187.1620  178.2270  146.4890 C   0  0  0  0  0  3  0  0  0  0  0  0
  184.9230  178.2430  144.7980 C   0  0  0  0  0  0  0  0  0  0  0  0
  183.7060  178.2620  143.9280 C   0  0  0  0  0  2  0  0  0  0  0  0
  183.2810  179.6660  143.6260 C   0  0  0  0  0  0  0  0  0  0  0  0
  184.0320  180.6210  143.9530 O   0  0  0  0  0  0  0  0  0  0  0  0
  182.0320  179.9460  142.9880 N   0  0  0  0  0  2  0  0  0  0  0  0
  181.1440  178.9070  142.4870 C   0  0  0  0  0  2  0  0  0  0  0  0
  179.9040  178.3640  144.2290 C   0  0  0  0  0  1  0  0  0  0  0  0
  179.8690  179.0740  143.0280 O   0  0  0  0  0  0  0  0  0  0  0  0
  1  5  1  0  0  0  0
  2  3  1  0  0  0  0
  3  5  2  0  0  0  0
  4  1  2  0  0  0  0
  5 29  1  0  0  0  0
  6  2  2  0  0  0  0
  6  4  1  0  0  0  0
  7  8  1  0  0  0  0
  7  2  1  0  0  0  0
  9  8  1  0  0  0  0
  9 10  1  0  0  0  0
 11 10  1  0  0  0  0
 12 21  1  6  0  0  0
 14 13  1  6  0  0  0
 14 19  1  0  0  0  0
 14 26  1  0  0  0  0
 14 18  1  0  0  0  0
 15 27  1  0  0  0  0
 15 11  1  1  0  0  0
 16 22  1  0  0  0  0
 17 22  1  0  0  0  0
 18 24  1  1  0  0  0
 19 15  1  0  0  0  0
 19 25  1  1  0  0  0
 24 17  1  0  0  0  0
 24 21  1  0  0  0  0
 24 16  1  0  0  0  0
 25 12  1  0  0  0  0
 26 28  1  0  0  0  0
 27 23  1  6  0  0  0
 27 18  1  0  0  0  0
 28 20  1  6  0  0  0
 28 12  1  0  0  0  0
 29 30  1  0  0  0  0
 31 30  1  6  0  0  0
 31 41  1  0  0  0  0
 32 36  1  0  0  0  0
 33 38  1  1  0  0  0
 34 35  1  0  0  0  0
 35 33  1  0  0  0  0
 36 33  1  0  0  0  0
 37 31  1  1  0  0  0
 37 34  1  0  0  0  0
 37 32  1  0  0  0  0
 38 40  1  0  0  0  0
 38 39  1  0  0  0  0
 40 39  1  0  0  0  0
 41 42  1  0  0  0  0
 42 45  1  0  0  0  0
 43 44  1  0  0  0  0
 45 48  1  0  0  0  0
 45 46  2  0  0  0  0
 46 47  1  0  0  0  0
 47 44  2  0  0  0  0
 48 43  2  0  0  0  0
 49 48  1  0  0  0  0
 50 49  1  0  0  0  0
 50 51  2  0  0  0  0
 52 50  1  0  0  0  0
 53 52  1  0  0  0  0
 53 55  1  0  0  0  0
 55 54  1  0  0  0  0
M  END
>  <MODEL>
8

>  <REMARK>
 VINA RESULT:      -6.9      2.515      6.946
  Name = 
  18 active torsions:
  status: ('A' for Active; 'I' for Inactive)
    1  A    between atoms: O_2  and  C_28
    2  A    between atoms: O_2  and  C_44
    3  A    between atoms: C_4  and  O_37
    4  A    between atoms: C_4  and  N_40
    5  A    between atoms: C_5  and  C_45
    6  A    between atoms: C_7  and  N_22
    7  A    between atoms: C_8  and  N_22
    8  A    between atoms: C_8  and  C_43
    9  A    between atoms: C_10  and  N_32
   10  A    between atoms: C_16  and  C_36
   11  A    between atoms: C_26  and  C_45
   12  A    between atoms: C_27  and  C_54
   13  A    between atoms: C_28  and  C_49
   14  A    between atoms: N_33  and  C_36
   15  A    between atoms: N_33  and  C_49
   16  A    between atoms: C_43  and  C_51
   17  A    between atoms: C_49  and  C_52
   18  A    between atoms: C_51  and  C_54
                            x       y       z     vdW  Elec       q    Type
                         _______ _______ _______ _____ _____    ______ ____

>  <TORSDO>
F 18

$$$$
=
 OpenBabel11052414543D

 55 62  0  0  1  0  0  0  0  0999 V2000
  179.3350  177.8770  140.2490 C   0  0  0  0  0  3  0  0  0  0  0  0
  181.2010  178.8440  142.0990 C   0  0  0  0  0  0  0  0  0  0  0  0
  181.4770  177.6850  141.3670 C   0  0  0  0  0  3  0  0  0  0  0  0
  179.0590  179.0340  140.9800 C   0  0  0  0  0  3  0  0  0  0  0  0
  180.5430  177.1960  140.4350 C   0  0  0  0  0  0  0  0  0  0  0  0
  179.9900  179.5190  141.9040 C   0  0  0  0  0  3  0  0  0  0  0  0
  182.2020  179.3670  143.0690 C   0  0  0  0  0  2  0  0  0  0  0  0
  183.4740  178.5430  143.0090 C   0  0  0  0  0  2  0  0  0  0  0  0
  184.6640  179.4210  143.3310 C   0  0  0  0  0  2  0  0  0  0  0  0
  185.7280  179.2760  142.2570 C   0  0  0  0  0  2  0  0  0  0  0  0
  187.0400  179.1370  142.8680 N   0  0  0  0  0  2  0  0  0  0  0  0
  190.5690  178.5360  142.9640 C   0  0  2  0  0  3  0  0  0  0  0  0
  188.5410  174.8860  142.8420 C   0  0  0  0  0  1  0  0  0  0  0  0
  189.2140  176.2100  143.1770 C   0  0  2  0  0  0  0  0  0  0  0  0
  187.3130  177.7100  142.9740 C   0  0  1  0  0  3  0  0  0  0  0  0
  189.3190  178.0630  146.6490 C   0  0  0  0  0  2  0  0  0  0  0  0
  190.9890  176.9550  145.8920 C   0  0  0  0  0  2  0  0  0  0  0  0
  188.8070  176.6360  144.6010 C   0  0  1  0  0  3  0  0  0  0  0  0
  188.6260  177.3170  142.2890 C   0  0  1  0  0  3  0  0  0  0  0  0
  192.2340  177.3720  141.5140 C   0  0  0  0  0  1  0  0  0  0  0  0
  190.1650  178.8620  144.4150 C   0  0  0  0  0  2  0  0  0  0  0  0
  190.5270  177.3850  147.2700 C   0  0  0  0  0  2  0  0  0  0  0  0
  186.4440  176.3940  144.7410 F   0  0  0  0  0  0  0  0  0  0  0  0
  189.7820  177.6370  145.2660 C   0  0  0  0  0  0  0  0  0  0  0  0
  189.4620  178.4600  142.0790 O   0  0  0  0  0  0  0  0  0  0  0  0
  190.7210  176.0170  142.9480 C   0  0  0  0  0  2  0  0  0  0  0  0
  187.4380  177.3020  144.4350 C   0  0  2  0  0  3  0  0  0  0  0  0
  191.4980  177.3280  142.8370 C   0  0  2  0  0  3  0  0  0  0  0  0
  180.7840  176.0400  139.6910 O   0  0  0  0  0  0  0  0  0  0  0  0
  179.8510  175.5190  138.7490 C   0  0  0  0  0  2  0  0  0  0  0  0
  180.4930  175.3860  137.3690 C   0  0  2  0  0  3  0  0  0  0  0  0
  181.3640  173.7210  135.7180 C   0  0  0  0  0  2  0  0  0  0  0  0
  181.1450  171.2640  136.1180 N   0  0  1  0  0  0  0  0  0  0  0  0
  180.3080  172.8880  137.8180 C   0  0  0  0  0  2  0  0  0  0  0  0
  180.1240  171.5260  137.1430 C   0  0  0  0  0  2  0  0  0  0  0  0
  181.1530  172.3330  135.1060 C   0  0  0  0  0  2  0  0  0  0  0  0
  180.2920  173.9940  136.7640 C   0  0  1  0  0  3  0  0  0  0  0  0
  182.4630  171.1370  136.7380 C   0  0  0  0  0  3  0  0  0  0  0  0
  183.5440  171.4030  135.7080 C   0  0  0  0  0  2  0  0  0  0  0  0
  183.2140  169.9810  136.1040 C   0  0  0  0  0  2  0  0  0  0  0  0
  181.9050  175.7560  137.4190 N   0  0  0  0  0  2  0  0  0  0  0  0
  182.0810  176.9890  136.6630 C   0  0  0  0  0  2  0  0  0  0  0  0
  184.3760  179.0920  138.8720 C   0  0  0  0  0  3  0  0  0  0  0  0
  183.5280  180.1590  139.1820 C   0  0  0  0  0  3  0  0  0  0  0  0
  182.6170  178.0790  137.5410 C   0  0  0  0  0  0  0  0  0  0  0  0
  181.7760  179.1520  137.8560 C   0  0  0  0  0  3  0  0  0  0  0  0
  182.2280  180.1880  138.6740 C   0  0  0  0  0  3  0  0  0  0  0  0
  183.9300  178.0440  138.0580 C   0  0  0  0  0  0  0  0  0  0  0  0
  184.8630  176.9130  137.7600 C   0  0  0  0  0  2  0  0  0  0  0  0
  185.8090  177.2720  136.6560 C   0  0  0  0  0  0  0  0  0  0  0  0
  185.3640  177.4280  135.4880 O   0  0  0  0  0  0  0  0  0  0  0  0
  187.2110  177.4260  136.8950 N   0  0  0  0  0  2  0  0  0  0  0  0
  187.8020  177.3610  138.2240 C   0  0  0  0  0  2  0  0  0  0  0  0
  189.0600  179.0610  137.5950 C   0  0  0  0  0  1  0  0  0  0  0  0
  188.2150  178.6340  138.6200 O   0  0  0  0  0  0  0  0  0  0  0  0
  1  5  2  0  0  0  0
  1  4  1  0  0  0  0
  2  7  1  0  0  0  0
  3  2  2  0  0  0  0
  4  6  2  0  0  0  0
  5  3  1  0  0  0  0
  6  2  1  0  0  0  0
  8  7  1  0  0  0  0
  8  9  1  0  0  0  0
 10 11  1  0  0  0  0
 10  9  1  0  0  0  0
 12 21  1  1  0  0  0
 14 13  1  6  0  0  0
 14 18  1  0  0  0  0
 15 11  1  1  0  0  0
 15 27  1  0  0  0  0
 16 22  1  0  0  0  0
 17 22  1  0  0  0  0
 18 24  1  6  0  0  0
 19 25  1  1  0  0  0
 19 15  1  0  0  0  0
 19 14  1  0  0  0  0
 21 24  1  0  0  0  0
 24 17  1  0  0  0  0
 24 16  1  0  0  0  0
 25 12  1  0  0  0  0
 26 14  1  0  0  0  0
 27 18  1  0  0  0  0
 27 23  1  6  0  0  0
 28 20  1  6  0  0  0
 28 26  1  0  0  0  0
 28 12  1  0  0  0  0
 29  5  1  0  0  0  0
 30 29  1  0  0  0  0
 31 41  1  0  0  0  0
 31 30  1  1  0  0  0
 32 37  1  0  0  0  0
 33 38  1  1  0  0  0
 33 35  1  0  0  0  0
 35 34  1  0  0  0  0
 36 32  1  0  0  0  0
 36 33  1  0  0  0  0
 37 31  1  1  0  0  0
 37 34  1  0  0  0  0
 39 40  1  0  0  0  0
 39 38  1  0  0  0  0
 40 38  1  0  0  0  0
 42 41  1  0  0  0  0
 42 45  1  0  0  0  0
 43 44  1  0  0  0  0
 45 46  2  0  0  0  0
 45 48  1  0  0  0  0
 46 47  1  0  0  0  0
 47 44  2  0  0  0  0
 48 43  2  0  0  0  0
 49 48  1  0  0  0  0
 50 52  1  0  0  0  0
 50 49  1  0  0  0  0
 51 50  2  0  0  0  0
 52 53  1  0  0  0  0
 53 55  1  0  0  0  0
 54 55  1  0  0  0  0
M  END
>  <MODEL>
9

>  <REMARK>
 VINA RESULT:      -6.1      2.680      9.104
  Name = 
  18 active torsions:
  status: ('A' for Active; 'I' for Inactive)
    1  A    between atoms: O_2  and  C_28
    2  A    between atoms: O_2  and  C_44
    3  A    between atoms: C_4  and  O_37
    4  A    between atoms: C_4  and  N_40
    5  A    between atoms: C_5  and  C_45
    6  A    between atoms: C_7  and  N_22
    7  A    between atoms: C_8  and  N_22
    8  A    between atoms: C_8  and  C_43
    9  A    between atoms: C_10  and  N_32
   10  A    between atoms: C_16  and  C_36
   11  A    between atoms: C_26  and  C_45
   12  A    between atoms: C_27  and  C_54
   13  A    between atoms: C_28  and  C_49
   14  A    between atoms: N_33  and  C_36
   15  A    between atoms: N_33  and  C_49
   16  A    between atoms: C_43  and  C_51
   17  A    between atoms: C_49  and  C_52
   18  A    between atoms: C_51  and  C_54
                            x       y       z     vdW  Elec       q    Type
                         _______ _______ _______ _____ _____    ______ ____

>  <TORSDO>
F 18

$$$$
