=
 OpenBabel11052413183D

 31 34  0  0  1  0  0  0  0  0999 V2000
  188.3070  177.2770  144.2540 C   0  0  0  0  0  0  0  0  0  0  0  0
  187.2710  177.6970  145.1410 C   0  0  0  0  0  0  0  0  0  0  0  0
  186.3720  178.0120  147.4020 C   0  0  0  0  0  3  0  0  0  0  0  0
  189.6410  177.0180  144.6000 C   0  0  0  0  0  0  0  0  0  0  0  0
  191.6400  176.6900  145.8120 C   0  0  2  0  0  3  0  0  0  0  0  0
  187.3550  177.5850  146.5050 C   0  0  0  0  0  3  0  0  0  0  0  0
  189.0970  177.0920  141.8890 C   0  0  0  0  0  0  0  0  0  0  0  0
  185.8170  178.3000  143.3250 C   0  0  0  0  0  3  0  0  0  0  0  0
  185.2310  178.5790  146.9270 C   0  0  0  0  0  3  0  0  0  0  0  0
  190.2890  176.5490  142.3660 C   0  0  0  0  0  3  0  0  0  0  0  0
  188.0700  177.3460  142.8970 C   0  0  0  0  0  0  0  0  0  0  0  0
  190.2570  176.9460  145.8360 O   0  0  0  0  0  0  0  0  0  0  0  0
  183.8560  179.3500  145.2070 O   0  0  0  0  0  1  0  0  0  0  0  0
  190.5370  176.5630  143.7250 C   0  0  0  0  0  0  0  0  0  0  0  0
  191.6880  176.3990  144.3970 O   0  0  0  0  0  0  0  0  0  0  0  0
  186.7940  177.8160  142.4790 C   0  0  0  0  0  3  0  0  0  0  0  0
  186.0090  178.2060  144.6830 C   0  0  0  0  0  0  0  0  0  0  0  0
  185.0340  178.7220  145.5620 C   0  0  0  0  0  0  0  0  0  0  0  0
  192.1720  175.6110  146.7840 C   0  0  0  0  0  3  0  0  0  0  0  0
  192.5500  175.9260  148.0470 C   0  0  0  0  0  2  0  0  0  0  0  0
  188.7240  176.9770  140.5150 O   0  0  0  0  0  0  0  0  0  0  0  0
  190.6790  176.4140  138.9620 C   0  0  0  0  0  1  0  0  0  0  0  0
  189.4640  177.2440  139.2800 C   0  0  1  0  0  3  0  0  0  0  0  0
  188.9180  179.3760  138.3590 O   0  0  0  0  0  1  0  0  0  0  0  0
  188.8990  178.0000  138.0410 C   0  0  2  0  0  3  0  0  0  0  0  0
  187.0400  176.5450  136.7890 C   0  0  0  0  0  1  0  0  0  0  0  0
  187.4300  177.5900  137.8050 C   0  0  2  0  0  3  0  0  0  0  0  0
  186.4570  178.6340  138.0020 O   0  0  0  0  0  0  0  0  0  0  0  0
  185.2450  178.5180  138.7420 C   0  0  0  0  0  0  0  0  0  0  0  0
  184.3510  177.6340  138.5010 O   0  0  0  0  0  0  0  0  0  0  0  0
  185.0460  179.4730  139.7950 N   0  0  0  0  0  1  0  0  0  0  0  0
  1  4  1  0  0  0  0
  1  2  2  0  0  0  0
  2  6  1  0  0  0  0
  4 12  1  0  0  0  0
  5 12  1  0  0  0  0
  5 19  1  1  0  0  0
  6  3  2  0  0  0  0
  7 10  2  0  0  0  0
  7 11  1  0  0  0  0
  8 17  2  0  0  0  0
  9  3  1  0  0  0  0
 10 14  1  0  0  0  0
 11  1  1  0  0  0  0
 13 18  1  0  0  0  0
 14 15  1  0  0  0  0
 14  4  2  0  0  0  0
 15  5  1  0  0  0  0
 16 11  2  0  0  0  0
 16  8  1  0  0  0  0
 17  2  1  0  0  0  0
 17 18  1  0  0  0  0
 18  9  2  0  0  0  0
 19 20  2  0  0  0  0
 21  7  1  0  0  0  0
 23 22  1  6  0  0  0
 23 21  1  0  0  0  0
 25 24  1  1  0  0  0
 25 23  1  0  0  0  0
 27 26  1  6  0  0  0
 27 28  1  0  0  0  0
 27 25  1  0  0  0  0
 28 29  1  0  0  0  0
 29 31  1  0  0  0  0
 30 29  2  0  0  0  0
M  END
>  <MODEL>
1

>  <REMARK>
 VINA RESULT:     -10.3      0.000      0.000
  Name = 
  7 active torsions:
  status: ('A' for Active; 'I' for Inactive)
    1  A    between atoms: C_1  and  O_24
    2  A    between atoms: C_2  and  C_13
    3  A    between atoms: C_9  and  C_22
    4  A    between atoms: C_9  and  O_23
    5  A    between atoms: C_15  and  O_23
    6  A    between atoms: C_19  and  C_22
    7  A    between atoms: C_19  and  O_24
                            x       y       z     vdW  Elec       q    Type
                         _______ _______ _______ _____ _____    ______ ____

>  <TORSDO>
F 7

$$$$
=
 OpenBabel11052413183D

 31 34  0  0  1  0  0  0  0  0999 V2000
  188.6190  177.8070  143.7880 C   0  0  0  0  0  0  0  0  0  0  0  0
  189.1860  177.5040  145.0620 C   0  0  0  0  0  0  0  0  0  0  0  0
  189.0110  177.3080  147.5010 C   0  0  0  0  0  3  0  0  0  0  0  0
  187.2530  177.9330  143.4960 C   0  0  0  0  0  0  0  0  0  0  0  0
  184.9050  178.0730  143.6830 C   0  0  2  0  0  3  0  0  0  0  0  0
  188.4960  177.6230  146.2410 C   0  0  0  0  0  3  0  0  0  0  0  0
  188.9480  177.8830  141.3110 C   0  0  0  0  0  0  0  0  0  0  0  0
  191.3400  177.0290  144.1090 C   0  0  0  0  0  3  0  0  0  0  0  0
  190.2880  176.8530  147.6100 C   0  0  0  0  0  3  0  0  0  0  0  0
  187.6270  178.3080  141.1830 C   0  0  0  0  0  3  0  0  0  0  0  0
  189.4390  177.7450  142.6800 C   0  0  0  0  0  0  0  0  0  0  0  0
  186.1490  177.9570  144.3280 O   0  0  0  0  0  0  0  0  0  0  0  0
  192.3440  176.2050  146.7170 O   0  0  0  0  0  1  0  0  0  0  0  0
  186.8040  178.2850  142.2920 C   0  0  0  0  0  0  0  0  0  0  0  0
  185.4650  178.3410  142.3780 O   0  0  0  0  0  0  0  0  0  0  0  0
  190.8030  177.4020  142.8940 C   0  0  0  0  0  3  0  0  0  0  0  0
  190.5580  177.1190  145.2360 C   0  0  0  0  0  0  0  0  0  0  0  0
  191.0810  176.7150  146.4810 C   0  0  0  0  0  0  0  0  0  0  0  0
  183.9070  179.1030  144.2600 C   0  0  0  0  0  3  0  0  0  0  0  0
  182.5760  179.0040  144.0230 C   0  0  0  0  0  2  0  0  0  0  0  0
  189.8810  178.0190  140.2370 O   0  0  0  0  0  0  0  0  0  0  0  0
  190.3040  176.1390  138.5530 C   0  0  0  0  0  1  0  0  0  0  0  0
  189.8480  177.5420  138.8530 C   0  0  1  0  0  3  0  0  0  0  0  0
  188.9590  179.5590  137.9410 O   0  0  0  0  0  1  0  0  0  0  0  0
  188.9950  178.1660  137.7090 C   0  0  2  0  0  3  0  0  0  0  0  0
  187.1330  176.3320  137.1550 C   0  0  0  0  0  1  0  0  0  0  0  0
  187.5480  177.6360  137.7890 C   0  0  2  0  0  3  0  0  0  0  0  0
  186.5200  178.6460  137.8220 O   0  0  0  0  0  0  0  0  0  0  0  0
  185.2470  178.5210  138.4490 C   0  0  0  0  0  0  0  0  0  0  0  0
  184.4830  177.5050  138.3040 O   0  0  0  0  0  0  0  0  0  0  0  0
  184.8270  179.6240  139.2660 N   0  0  0  0  0  1  0  0  0  0  0  0
  1  2  2  0  0  0  0
  2 17  1  0  0  0  0
  2  6  1  0  0  0  0
  3  9  1  0  0  0  0
  4  1  1  0  0  0  0
  4 12  1  0  0  0  0
  5 19  1  1  0  0  0
  5 12  1  0  0  0  0
  6  3  2  0  0  0  0
  7 11  1  0  0  0  0
  8 17  2  0  0  0  0
 10  7  2  0  0  0  0
 10 14  1  0  0  0  0
 11 16  2  0  0  0  0
 11  1  1  0  0  0  0
 14 15  1  0  0  0  0
 14  4  2  0  0  0  0
 15  5  1  0  0  0  0
 16  8  1  0  0  0  0
 17 18  1  0  0  0  0
 18 13  1  0  0  0  0
 18  9  2  0  0  0  0
 20 19  2  0  0  0  0
 21  7  1  0  0  0  0
 23 22  1  1  0  0  0
 23 21  1  0  0  0  0
 25 27  1  0  0  0  0
 25 24  1  1  0  0  0
 25 23  1  0  0  0  0
 27 26  1  6  0  0  0
 27 28  1  0  0  0  0
 28 29  1  0  0  0  0
 29 31  1  0  0  0  0
 30 29  2  0  0  0  0
M  END
>  <MODEL>
2

>  <REMARK>
 VINA RESULT:      -9.8      1.441      4.456
  Name = 
  7 active torsions:
  status: ('A' for Active; 'I' for Inactive)
    1  A    between atoms: C_1  and  O_24
    2  A    between atoms: C_2  and  C_13
    3  A    between atoms: C_9  and  C_22
    4  A    between atoms: C_9  and  O_23
    5  A    between atoms: C_15  and  O_23
    6  A    between atoms: C_19  and  C_22
    7  A    between atoms: C_19  and  O_24
                            x       y       z     vdW  Elec       q    Type
                         _______ _______ _______ _____ _____    ______ ____

>  <TORSDO>
F 7

$$$$
=
 OpenBabel11052413183D

 31 34  0  0  1  0  0  0  0  0999 V2000
  188.3670  177.2910  144.2470 C   0  0  0  0  0  0  0  0  0  0  0  0
  187.3220  177.7130  145.1210 C   0  0  0  0  0  0  0  0  0  0  0  0
  186.3920  178.0190  147.3710 C   0  0  0  0  0  3  0  0  0  0  0  0
  189.6940  177.0190  144.6110 C   0  0  0  0  0  0  0  0  0  0  0  0
  191.6710  176.6650  145.8500 C   0  0  2  0  0  3  0  0  0  0  0  0
  187.3850  177.5900  146.4850 C   0  0  0  0  0  3  0  0  0  0  0  0
  189.1910  177.1160  141.8930 C   0  0  0  0  0  0  0  0  0  0  0  0
  185.9000  178.3410  143.2880 C   0  0  0  0  0  3  0  0  0  0  0  0
  185.2630  178.5990  146.8830 C   0  0  0  0  0  3  0  0  0  0  0  0
  190.3710  176.5600  142.3840 C   0  0  0  0  0  3  0  0  0  0  0  0
  188.1510  177.3720  142.8870 C   0  0  0  0  0  0  0  0  0  0  0  0
  190.2910  176.9320  145.8550 O   0  0  0  0  0  0  0  0  0  0  0  0
  183.9200  179.3940  145.1480 O   0  0  0  0  0  1  0  0  0  0  0  0
  190.5990  176.5620  143.7460 C   0  0  0  0  0  0  0  0  0  0  0  0
  191.7390  176.3840  144.4330 O   0  0  0  0  0  0  0  0  0  0  0  0
  186.8850  177.8550  142.4530 C   0  0  0  0  0  3  0  0  0  0  0  0
  186.0710  178.2360  144.6480 C   0  0  0  0  0  0  0  0  0  0  0  0
  185.0870  178.7530  145.5160 C   0  0  0  0  0  0  0  0  0  0  0  0
  192.1800  175.5750  146.8210 C   0  0  0  0  0  3  0  0  0  0  0  0
  192.5630  175.8810  148.0860 C   0  0  0  0  0  2  0  0  0  0  0  0
  188.8380  177.0140  140.5120 O   0  0  0  0  0  0  0  0  0  0  0  0
  190.8010  176.3370  139.0170 C   0  0  0  0  0  1  0  0  0  0  0  0
  189.6170  177.2250  139.2900 C   0  0  1  0  0  3  0  0  0  0  0  0
  188.9250  179.3270  138.4000 O   0  0  0  0  0  1  0  0  0  0  0  0
  189.1130  177.9780  138.0240 C   0  0  2  0  0  3  0  0  0  0  0  0
  186.4500  178.1300  137.8860 C   0  0  0  0  0  1  0  0  0  0  0  0
  187.7440  177.4140  137.5900 C   0  0  2  0  0  3  0  0  0  0  0  0
  187.6470  175.9760  137.5640 O   0  0  0  0  0  0  0  0  0  0  0  0
  187.9650  175.1380  136.4580 C   0  0  0  0  0  0  0  0  0  0  0  0
  189.1270  175.0840  135.9220 O   0  0  0  0  0  0  0  0  0  0  0  0
  186.8950  174.3400  135.9310 N   0  0  0  0  0  1  0  0  0  0  0  0
  1  4  1  0  0  0  0
  1  2  2  0  0  0  0
  2  6  1  0  0  0  0
  4 12  1  0  0  0  0
  5 12  1  0  0  0  0
  5 19  1  1  0  0  0
  6  3  2  0  0  0  0
  7 10  2  0  0  0  0
  7 11  1  0  0  0  0
  8 17  2  0  0  0  0
  9  3  1  0  0  0  0
 10 14  1  0  0  0  0
 11  1  1  0  0  0  0
 13 18  1  0  0  0  0
 14 15  1  0  0  0  0
 14  4  2  0  0  0  0
 15  5  1  0  0  0  0
 16 11  2  0  0  0  0
 16  8  1  0  0  0  0
 17  2  1  0  0  0  0
 17 18  1  0  0  0  0
 18  9  2  0  0  0  0
 19 20  2  0  0  0  0
 21  7  1  0  0  0  0
 23 22  1  6  0  0  0
 23 21  1  0  0  0  0
 25 24  1  1  0  0  0
 25 23  1  0  0  0  0
 27 26  1  1  0  0  0
 27 25  1  0  0  0  0
 28 27  1  0  0  0  0
 29 28  1  0  0  0  0
 30 29  2  0  0  0  0
 31 29  1  0  0  0  0
M  END
>  <MODEL>
3

>  <REMARK>
 VINA RESULT:      -9.7      1.627      1.949
  Name = 
  7 active torsions:
  status: ('A' for Active; 'I' for Inactive)
    1  A    between atoms: C_1  and  O_24
    2  A    between atoms: C_2  and  C_13
    3  A    between atoms: C_9  and  C_22
    4  A    between atoms: C_9  and  O_23
    5  A    between atoms: C_15  and  O_23
    6  A    between atoms: C_19  and  C_22
    7  A    between atoms: C_19  and  O_24
                            x       y       z     vdW  Elec       q    Type
                         _______ _______ _______ _____ _____    ______ ____

>  <TORSDO>
F 7

$$$$
=
 OpenBabel11052413183D

 31 34  0  0  1  0  0  0  0  0999 V2000
  186.3750  178.1330  144.0630 C   0  0  0  0  0  0  0  0  0  0  0  0
  187.3200  177.8140  145.0840 C   0  0  0  0  0  0  0  0  0  0  0  0
  189.5470  177.0730  145.7980 C   0  0  0  0  0  3  0  0  0  0  0  0
  186.6630  178.3660  142.7100 C   0  0  0  0  0  0  0  0  0  0  0  0
  187.7720  178.5680  140.6370 C   0  0  2  0  0  3  0  0  0  0  0  0
  188.5890  177.3660  144.8230 C   0  0  0  0  0  3  0  0  0  0  0  0
  184.0860  178.9720  143.5120 C   0  0  0  0  0  0  0  0  0  0  0  0
  185.7310  178.2470  146.8350 C   0  0  0  0  0  3  0  0  0  0  0  0
  189.2350  177.2240  147.1120 C   0  0  0  0  0  3  0  0  0  0  0  0
  184.4090  178.8630  142.1610 C   0  0  0  0  0  3  0  0  0  0  0  0
  185.0960  178.4800  144.4450 C   0  0  0  0  0  0  0  0  0  0  0  0
  187.8350  178.2090  141.9950 O   0  0  0  0  0  0  0  0  0  0  0  0
  187.7900  177.8070  148.8500 O   0  0  0  0  0  1  0  0  0  0  0  0
  185.7150  178.5920  141.8020 C   0  0  0  0  0  0  0  0  0  0  0  0
  186.3360  178.7380  140.6200 O   0  0  0  0  0  0  0  0  0  0  0  0
  184.8050  178.4740  145.8380 C   0  0  0  0  0  3  0  0  0  0  0  0
  187.0030  177.8600  146.4840 C   0  0  0  0  0  0  0  0  0  0  0  0
  187.9710  177.6530  147.4890 C   0  0  0  0  0  0  0  0  0  0  0  0
  188.3880  177.5810  139.6190 C   0  0  0  0  0  3  0  0  0  0  0  0
  189.7310  177.4460  139.4940 C   0  0  0  0  0  2  0  0  0  0  0  0
  182.7310  179.1080  143.9440 O   0  0  0  0  0  0  0  0  0  0  0  0
  180.2790  178.3760  143.9660 C   0  0  0  0  0  1  0  0  0  0  0  0
  181.4610  178.9520  143.2330 C   0  0  1  0  0  3  0  0  0  0  0  0
  179.9630  180.5320  142.2580 O   0  0  0  0  0  1  0  0  0  0  0  0
  181.0630  179.7080  141.9310 C   0  0  2  0  0  3  0  0  0  0  0  0
  179.1460  178.5540  140.4720 C   0  0  0  0  0  1  0  0  0  0  0  0
  180.5960  178.6990  140.8620 C   0  0  2  0  0  3  0  0  0  0  0  0
  181.3680  177.4850  140.7780 O   0  0  0  0  0  0  0  0  0  0  0  0
  182.2800  177.1460  139.7370 C   0  0  0  0  0  0  0  0  0  0  0  0
  182.7600  175.9720  139.5710 O   0  0  0  0  0  0  0  0  0  0  0  0
  182.6720  178.2120  138.8590 N   0  0  0  0  0  1  0  0  0  0  0  0
  1 11  1  0  0  0  0
  1  2  2  0  0  0  0
  2 17  1  0  0  0  0
  3  9  1  0  0  0  0
  4  1  1  0  0  0  0
  5 19  1  6  0  0  0
  5 12  1  0  0  0  0
  6  2  1  0  0  0  0
  6  3  2  0  0  0  0
  7 21  1  0  0  0  0
  7 11  1  0  0  0  0
  9 18  2  0  0  0  0
 10  7  2  0  0  0  0
 11 16  2  0  0  0  0
 12  4  1  0  0  0  0
 14 10  1  0  0  0  0
 14  4  2  0  0  0  0
 15  5  1  0  0  0  0
 15 14  1  0  0  0  0
 16  8  1  0  0  0  0
 17  8  2  0  0  0  0
 17 18  1  0  0  0  0
 18 13  1  0  0  0  0
 20 19  2  0  0  0  0
 23 21  1  0  0  0  0
 23 22  1  1  0  0  0
 25 24  1  1  0  0  0
 25 23  1  0  0  0  0
 27 26  1  1  0  0  0
 27 25  1  0  0  0  0
 28 27  1  0  0  0  0
 29 28  1  0  0  0  0
 30 29  2  0  0  0  0
 31 29  1  0  0  0  0
M  END
>  <MODEL>
4

>  <REMARK>
 VINA RESULT:      -9.4      2.884      6.121
  Name = 
  7 active torsions:
  status: ('A' for Active; 'I' for Inactive)
    1  A    between atoms: C_1  and  O_24
    2  A    between atoms: C_2  and  C_13
    3  A    between atoms: C_9  and  C_22
    4  A    between atoms: C_9  and  O_23
    5  A    between atoms: C_15  and  O_23
    6  A    between atoms: C_19  and  C_22
    7  A    between atoms: C_19  and  O_24
                            x       y       z     vdW  Elec       q    Type
                         _______ _______ _______ _____ _____    ______ ____

>  <TORSDO>
F 7

$$$$
=
 OpenBabel11052413183D

 31 34  0  0  1  0  0  0  0  0999 V2000
  188.3880  177.8380  143.6380 C   0  0  0  0  0  0  0  0  0  0  0  0
  188.9540  177.5590  144.9170 C   0  0  0  0  0  0  0  0  0  0  0  0
  188.7830  177.4180  147.3600 C   0  0  0  0  0  3  0  0  0  0  0  0
  187.0220  177.9710  143.3460 C   0  0  0  0  0  0  0  0  0  0  0  0
  184.6760  178.1370  143.5350 C   0  0  2  0  0  3  0  0  0  0  0  0
  188.2680  177.7100  146.0940 C   0  0  0  0  0  3  0  0  0  0  0  0
  188.7120  177.8570  141.1590 C   0  0  0  0  0  0  0  0  0  0  0  0
  191.1030  177.0430  143.9700 C   0  0  0  0  0  3  0  0  0  0  0  0
  190.0560  176.9540  147.4760 C   0  0  0  0  0  3  0  0  0  0  0  0
  187.3950  178.2920  141.0250 C   0  0  0  0  0  3  0  0  0  0  0  0
  189.2040  177.7450  142.5290 C   0  0  0  0  0  0  0  0  0  0  0  0
  185.9210  178.0240  144.1790 O   0  0  0  0  0  0  0  0  0  0  0  0
  192.1040  176.2670  146.5930 O   0  0  0  0  0  1  0  0  0  0  0  0
  186.5740  178.3010  142.1350 C   0  0  0  0  0  0  0  0  0  0  0  0
  185.2360  178.3700  142.2230 O   0  0  0  0  0  0  0  0  0  0  0  0
  190.5660  177.3940  142.7480 C   0  0  0  0  0  3  0  0  0  0  0  0
  190.3240  177.1650  145.0960 C   0  0  0  0  0  0  0  0  0  0  0  0
  190.8460  176.7830  146.3490 C   0  0  0  0  0  0  0  0  0  0  0  0
  183.6890  179.1890  144.0910 C   0  0  0  0  0  3  0  0  0  0  0  0
  182.3490  179.0410  143.9480 C   0  0  0  0  0  2  0  0  0  0  0  0
  189.6430  177.9610  140.0800 O   0  0  0  0  0  0  0  0  0  0  0  0
  189.2980  178.5860  137.6230 C   0  0  0  0  0  1  0  0  0  0  0  0
  189.5600  177.5450  138.6780 C   0  0  1  0  0  3  0  0  0  0  0  0
  190.8980  175.6230  139.1290 O   0  0  0  0  0  1  0  0  0  0  0  0
  190.1360  176.2190  138.1000 C   0  0  2  0  0  3  0  0  0  0  0  0
  190.8840  175.9540  135.5490 C   0  0  0  0  0  1  0  0  0  0  0  0
  191.0890  176.5310  136.9270 C   0  0  2  0  0  3  0  0  0  0  0  0
  192.4660  176.7530  137.2910 O   0  0  0  0  0  0  0  0  0  0  0  0
  193.5570  175.8870  136.9940 C   0  0  0  0  0  0  0  0  0  0  0  0
  193.6020  174.6580  137.3480 O   0  0  0  0  0  0  0  0  0  0  0  0
  194.6560  176.4670  136.2740 N   0  0  0  0  0  1  0  0  0  0  0  0
  1  2  2  0  0  0  0
  2 17  1  0  0  0  0
  2  6  1  0  0  0  0
  3  9  1  0  0  0  0
  4  1  1  0  0  0  0
  4 12  1  0  0  0  0
  5 19  1  1  0  0  0
  5 12  1  0  0  0  0
  6  3  2  0  0  0  0
  7 11  1  0  0  0  0
  8 17  2  0  0  0  0
 10  7  2  0  0  0  0
 10 14  1  0  0  0  0
 11 16  2  0  0  0  0
 11  1  1  0  0  0  0
 14 15  1  0  0  0  0
 14  4  2  0  0  0  0
 15  5  1  0  0  0  0
 16  8  1  0  0  0  0
 17 18  1  0  0  0  0
 18 13  1  0  0  0  0
 18  9  2  0  0  0  0
 20 19  2  0  0  0  0
 21  7  1  0  0  0  0
 23 22  1  6  0  0  0
 23 21  1  0  0  0  0
 25 23  1  0  0  0  0
 25 24  1  1  0  0  0
 27 26  1  6  0  0  0
 27 28  1  0  0  0  0
 27 25  1  0  0  0  0
 29 28  1  0  0  0  0
 29 30  2  0  0  0  0
 31 29  1  0  0  0  0
M  END
>  <MODEL>
5

>  <REMARK>
 VINA RESULT:      -9.1      2.971      5.713
  Name = 
  7 active torsions:
  status: ('A' for Active; 'I' for Inactive)
    1  A    between atoms: C_1  and  O_24
    2  A    between atoms: C_2  and  C_13
    3  A    between atoms: C_9  and  C_22
    4  A    between atoms: C_9  and  O_23
    5  A    between atoms: C_15  and  O_23
    6  A    between atoms: C_19  and  C_22
    7  A    between atoms: C_19  and  O_24
                            x       y       z     vdW  Elec       q    Type
                         _______ _______ _______ _____ _____    ______ ____

>  <TORSDO>
F 7

$$$$
=
 OpenBabel11052413183D

 31 34  0  0  1  0  0  0  0  0999 V2000
  187.5250  177.9590  143.3600 C   0  0  0  0  0  0  0  0  0  0  0  0
  186.5200  178.1050  144.3620 C   0  0  0  0  0  0  0  0  0  0  0  0
  185.7540  177.9090  146.6840 C   0  0  0  0  0  3  0  0  0  0  0  0
  188.8980  177.7720  143.5820 C   0  0  0  0  0  0  0  0  0  0  0  0
  190.9950  177.4210  144.6060 C   0  0  2  0  0  3  0  0  0  0  0  0
  186.7060  177.7520  145.6730 C   0  0  0  0  0  3  0  0  0  0  0  0
  188.1650  178.2910  140.9660 C   0  0  0  0  0  0  0  0  0  0  0  0
  184.8990  178.8890  142.7700 C   0  0  0  0  0  3  0  0  0  0  0  0
  184.5390  178.4400  146.3850 C   0  0  0  0  0  3  0  0  0  0  0  0
  189.4290  177.7890  141.2700 C   0  0  0  0  0  3  0  0  0  0  0  0
  187.1910  178.2550  142.0540 C   0  0  0  0  0  0  0  0  0  0  0  0
  189.6010  177.5330  144.7480 O   0  0  0  0  0  0  0  0  0  0  0  0
  182.9880  179.3780  144.9140 O   0  0  0  0  0  1  0  0  0  0  0  0
  189.7670  177.5760  142.5920 C   0  0  0  0  0  0  0  0  0  0  0  0
  190.9710  177.4030  143.1610 O   0  0  0  0  0  0  0  0  0  0  0  0
  185.8540  178.6670  141.7990 C   0  0  0  0  0  3  0  0  0  0  0  0
  185.1900  178.5650  144.0740 C   0  0  0  0  0  0  0  0  0  0  0  0
  184.2380  178.8130  145.0830 C   0  0  0  0  0  0  0  0  0  0  0  0
  191.6830  176.2390  145.3270 C   0  0  0  0  0  3  0  0  0  0  0  0
  191.7180  176.1630  146.6800 C   0  0  0  0  0  2  0  0  0  0  0  0
  187.7110  178.3960  139.6150 O   0  0  0  0  0  0  0  0  0  0  0  0
  187.0840  176.9760  137.5820 C   0  0  0  0  0  1  0  0  0  0  0  0
  188.1220  177.7030  138.3930 C   0  0  1  0  0  3  0  0  0  0  0  0
  189.0550  178.1780  136.2500 O   0  0  0  0  0  1  0  0  0  0  0  0
  189.4310  177.9870  137.5980 C   0  0  2  0  0  3  0  0  0  0  0  0
  191.6440  176.7530  138.4450 C   0  0  0  0  0  1  0  0  0  0  0  0
  190.3560  176.7540  137.6590 C   0  0  2  0  0  3  0  0  0  0  0  0
  190.3700  175.9300  136.4760 O   0  0  0  0  0  0  0  0  0  0  0  0
  189.7010  174.6830  136.3200 C   0  0  0  0  0  0  0  0  0  0  0  0
  188.7850  174.4750  135.4500 O   0  0  0  0  0  0  0  0  0  0  0  0
  190.0880  173.6330  137.2190 N   0  0  0  0  0  1  0  0  0  0  0  0
  1  4  1  0  0  0  0
  1  2  2  0  0  0  0
  2  6  1  0  0  0  0
  4 12  1  0  0  0  0
  5 12  1  0  0  0  0
  5 19  1  1  0  0  0
  6  3  2  0  0  0  0
  7 10  2  0  0  0  0
  7 11  1  0  0  0  0
  8 17  2  0  0  0  0
  9  3  1  0  0  0  0
 10 14  1  0  0  0  0
 11  1  1  0  0  0  0
 13 18  1  0  0  0  0
 14 15  1  0  0  0  0
 14  4  2  0  0  0  0
 15  5  1  0  0  0  0
 16 11  2  0  0  0  0
 16  8  1  0  0  0  0
 17  2  1  0  0  0  0
 17 18  1  0  0  0  0
 18  9  2  0  0  0  0
 19 20  2  0  0  0  0
 21  7  1  0  0  0  0
 23 22  1  6  0  0  0
 23 21  1  0  0  0  0
 25 24  1  6  0  0  0
 25 27  1  0  0  0  0
 25 23  1  0  0  0  0
 27 26  1  6  0  0  0
 28 27  1  0  0  0  0
 29 28  1  0  0  0  0
 29 31  1  0  0  0  0
 30 29  2  0  0  0  0
M  END
>  <MODEL>
6

>  <REMARK>
 VINA RESULT:      -9.0      2.292      2.958
  Name = 
  7 active torsions:
  status: ('A' for Active; 'I' for Inactive)
    1  A    between atoms: C_1  and  O_24
    2  A    between atoms: C_2  and  C_13
    3  A    between atoms: C_9  and  C_22
    4  A    between atoms: C_9  and  O_23
    5  A    between atoms: C_15  and  O_23
    6  A    between atoms: C_19  and  C_22
    7  A    between atoms: C_19  and  O_24
                            x       y       z     vdW  Elec       q    Type
                         _______ _______ _______ _____ _____    ______ ____

>  <TORSDO>
F 7

$$$$
=
 OpenBabel11052413183D

 31 34  0  0  1  0  0  0  0  0999 V2000
  188.2980  177.3180  144.3270 C   0  0  0  0  0  0  0  0  0  0  0  0
  187.2750  177.7910  145.2020 C   0  0  0  0  0  0  0  0  0  0  0  0
  186.4250  178.2820  147.4500 C   0  0  0  0  0  3  0  0  0  0  0  0
  189.6460  177.1160  144.6590 C   0  0  0  0  0  0  0  0  0  0  0  0
  191.6800  176.9330  145.8420 C   0  0  2  0  0  3  0  0  0  0  0  0
  187.3950  177.7990  146.5670 C   0  0  0  0  0  3  0  0  0  0  0  0
  189.0340  176.9450  141.9670 C   0  0  0  0  0  0  0  0  0  0  0  0
  185.7640  178.2070  143.3790 C   0  0  0  0  0  3  0  0  0  0  0  0
  185.2610  178.7830  146.9590 C   0  0  0  0  0  3  0  0  0  0  0  0
  190.2490  176.4700  142.4580 C   0  0  0  0  0  3  0  0  0  0  0  0
  188.0270  177.2650  142.9760 C   0  0  0  0  0  0  0  0  0  0  0  0
  190.2940  177.1630  145.8800 O   0  0  0  0  0  0  0  0  0  0  0  0
  183.8270  179.3760  145.2160 O   0  0  0  0  0  1  0  0  0  0  0  0
  190.5300  176.6060  143.8030 C   0  0  0  0  0  0  0  0  0  0  0  0
  191.7000  176.5230  144.4560 O   0  0  0  0  0  0  0  0  0  0  0  0
  186.7310  177.6720  142.5530 C   0  0  0  0  0  3  0  0  0  0  0  0
  185.9910  178.2340  144.7350 C   0  0  0  0  0  0  0  0  0  0  0  0
  185.0270  178.8040  145.5920 C   0  0  0  0  0  0  0  0  0  0  0  0
  192.2600  175.9530  146.8880 C   0  0  0  0  0  3  0  0  0  0  0  0
  191.4510  175.2510  147.7190 C   0  0  0  0  0  2  0  0  0  0  0  0
  188.6310  176.7050  140.6180 O   0  0  0  0  0  0  0  0  0  0  0  0
  189.0570  178.9980  139.5650 C   0  0  0  0  0  1  0  0  0  0  0  0
  188.6880  177.5460  139.4200 C   0  0  1  0  0  3  0  0  0  0  0  0
  187.6370  176.3310  137.6570 O   0  0  0  0  0  1  0  0  0  0  0  0
  188.8320  177.0210  137.9610 C   0  0  2  0  0  3  0  0  0  0  0  0
  189.8420  174.6600  137.2250 C   0  0  0  0  0  1  0  0  0  0  0  0
  189.9940  176.0090  137.8820 C   0  0  2  0  0  3  0  0  0  0  0  0
  190.9200  176.0420  138.9870 O   0  0  0  0  0  0  0  0  0  0  0  0
  192.1540  176.7520  139.0200 C   0  0  0  0  0  0  0  0  0  0  0  0
  193.0070  176.7320  138.0660 O   0  0  0  0  0  0  0  0  0  0  0  0
  192.4280  177.5030  140.2120 N   0  0  0  0  0  1  0  0  0  0  0  0
  1  4  1  0  0  0  0
  1  2  2  0  0  0  0
  2  6  1  0  0  0  0
  4 12  1  0  0  0  0
  5 12  1  0  0  0  0
  5 19  1  1  0  0  0
  6  3  2  0  0  0  0
  7 10  2  0  0  0  0
  7 11  1  0  0  0  0
  8 17  2  0  0  0  0
  9  3  1  0  0  0  0
 10 14  1  0  0  0  0
 11  1  1  0  0  0  0
 13 18  1  0  0  0  0
 14 15  1  0  0  0  0
 14  4  2  0  0  0  0
 15  5  1  0  0  0  0
 16 11  2  0  0  0  0
 16  8  1  0  0  0  0
 17  2  1  0  0  0  0
 17 18  1  0  0  0  0
 18  9  2  0  0  0  0
 19 20  2  0  0  0  0
 21  7  1  0  0  0  0
 23 22  1  1  0  0  0
 23 21  1  0  0  0  0
 25 24  1  1  0  0  0
 25 23  1  0  0  0  0
 27 26  1  1  0  0  0
 27 25  1  0  0  0  0
 27 28  1  0  0  0  0
 28 29  1  0  0  0  0
 29 31  1  0  0  0  0
 30 29  2  0  0  0  0
M  END
>  <MODEL>
7

>  <REMARK>
 VINA RESULT:      -8.9      1.934      2.890
  Name = 
  7 active torsions:
  status: ('A' for Active; 'I' for Inactive)
    1  A    between atoms: C_1  and  O_24
    2  A    between atoms: C_2  and  C_13
    3  A    between atoms: C_9  and  C_22
    4  A    between atoms: C_9  and  O_23
    5  A    between atoms: C_15  and  O_23
    6  A    between atoms: C_19  and  C_22
    7  A    between atoms: C_19  and  O_24
                            x       y       z     vdW  Elec       q    Type
                         _______ _______ _______ _____ _____    ______ ____

>  <TORSDO>
F 7

$$$$
=
 OpenBabel11052413183D

 31 34  0  0  1  0  0  0  0  0999 V2000
  185.8840  178.3300  142.4680 C   0  0  0  0  0  0  0  0  0  0  0  0
  186.2680  178.1640  143.8320 C   0  0  0  0  0  0  0  0  0  0  0  0
  187.9430  177.6350  145.5450 C   0  0  0  0  0  3  0  0  0  0  0  0
  186.7490  178.4620  141.3720 C   0  0  0  0  0  0  0  0  0  0  0  0
  188.6740  178.5540  140.0090 C   0  0  2  0  0  3  0  0  0  0  0  0
  187.5260  177.7790  144.2180 C   0  0  0  0  0  3  0  0  0  0  0  0
  184.0780  178.9650  140.8590 C   0  0  0  0  0  0  0  0  0  0  0  0
  184.0500  178.6430  144.6240 C   0  0  0  0  0  3  0  0  0  0  0  0
  187.0650  177.8800  146.5540 C   0  0  0  0  0  3  0  0  0  0  0  0
  184.9810  178.7600  139.8180 C   0  0  0  0  0  3  0  0  0  0  0  0
  184.5640  178.6240  142.1940 C   0  0  0  0  0  0  0  0  0  0  0  0
  188.1210  178.3200  141.2810 O   0  0  0  0  0  0  0  0  0  0  0  0
  184.9790  178.5170  147.3830 O   0  0  0  0  0  1  0  0  0  0  0  0
  186.3130  178.5460  140.1160 C   0  0  0  0  0  0  0  0  0  0  0  0
  187.3990  178.6280  139.3310 O   0  0  0  0  0  0  0  0  0  0  0  0
  183.6730  178.7210  143.2990 C   0  0  0  0  0  3  0  0  0  0  0  0
  185.3500  178.3120  144.9260 C   0  0  0  0  0  0  0  0  0  0  0  0
  185.7600  178.2560  146.2740 C   0  0  0  0  0  0  0  0  0  0  0  0
  189.7040  177.5250  139.4890 C   0  0  0  0  0  3  0  0  0  0  0  0
  190.7480  177.1240  140.2560 C   0  0  0  0  0  2  0  0  0  0  0  0
  182.6720  179.0500  140.6200 O   0  0  0  0  0  0  0  0  0  0  0  0
  180.4210  178.1190  141.4030 C   0  0  0  0  0  1  0  0  0  0  0  0
  181.6370  178.0180  140.5220 C   0  0  1  0  0  3  0  0  0  0  0  0
  182.5380  176.1720  139.3090 O   0  0  0  0  0  1  0  0  0  0  0  0
  181.4380  177.0590  139.3110 C   0  0  2  0  0  3  0  0  0  0  0  0
  182.6900  177.8780  137.0980 C   0  0  0  0  0  1  0  0  0  0  0  0
  181.4780  177.8630  137.9960 C   0  0  2  0  0  3  0  0  0  0  0  0
  180.7080  179.0820  137.9920 O   0  0  0  0  0  0  0  0  0  0  0  0
  181.1810  180.3660  137.5950 C   0  0  0  0  0  0  0  0  0  0  0  0
  181.8970  181.1180  138.3430 O   0  0  0  0  0  0  0  0  0  0  0  0
  180.7960  180.8120  136.2870 N   0  0  0  0  0  1  0  0  0  0  0  0
  1  2  2  0  0  0  0
  2  6  1  0  0  0  0
  2 17  1  0  0  0  0
  3  9  1  0  0  0  0
  4  1  1  0  0  0  0
  5 19  1  6  0  0  0
  5 12  1  0  0  0  0
  6  3  2  0  0  0  0
  7 11  1  0  0  0  0
  8 17  2  0  0  0  0
 10 14  1  0  0  0  0
 10  7  2  0  0  0  0
 11  1  1  0  0  0  0
 11 16  2  0  0  0  0
 12  4  1  0  0  0  0
 14  4  2  0  0  0  0
 15  5  1  0  0  0  0
 15 14  1  0  0  0  0
 16  8  1  0  0  0  0
 17 18  1  0  0  0  0
 18  9  2  0  0  0  0
 18 13  1  0  0  0  0
 19 20  2  0  0  0  0
 21  7  1  0  0  0  0
 23 21  1  0  0  0  0
 23 22  1  6  0  0  0
 25 24  1  6  0  0  0
 25 23  1  0  0  0  0
 27 26  1  1  0  0  0
 27 25  1  0  0  0  0
 28 27  1  0  0  0  0
 29 28  1  0  0  0  0
 29 30  2  0  0  0  0
 31 29  1  0  0  0  0
M  END
>  <MODEL>
8

>  <REMARK>
 VINA RESULT:      -8.5      2.779      5.485
  Name = 
  7 active torsions:
  status: ('A' for Active; 'I' for Inactive)
    1  A    between atoms: C_1  and  O_24
    2  A    between atoms: C_2  and  C_13
    3  A    between atoms: C_9  and  C_22
    4  A    between atoms: C_9  and  O_23
    5  A    between atoms: C_15  and  O_23
    6  A    between atoms: C_19  and  C_22
    7  A    between atoms: C_19  and  O_24
                            x       y       z     vdW  Elec       q    Type
                         _______ _______ _______ _____ _____    ______ ____

>  <TORSDO>
F 7

$$$$
=
 OpenBabel11052413183D

 31 34  0  0  1  0  0  0  0  0999 V2000
  186.2470  178.4650  141.4080 C   0  0  0  0  0  0  0  0  0  0  0  0
  184.8380  178.6480  141.5340 C   0  0  0  0  0  0  0  0  0  0  0  0
  182.6310  179.0880  140.5560 C   0  0  0  0  0  3  0  0  0  0  0  0
  186.9490  178.2110  140.2210 C   0  0  0  0  0  0  0  0  0  0  0  0
  187.5090  177.8870  137.9510 C   0  0  2  0  0  3  0  0  0  0  0  0
  184.0170  178.9310  140.4720 C   0  0  0  0  0  3  0  0  0  0  0  0
  188.4040  177.9360  142.5560 C   0  0  0  0  0  0  0  0  0  0  0  0
  184.9130  178.4080  143.9240 C   0  0  0  0  0  3  0  0  0  0  0  0
  182.0130  178.9650  141.7610 C   0  0  0  0  0  3  0  0  0  0  0  0
  189.0420  178.0160  141.3200 C   0  0  0  0  0  3  0  0  0  0  0  0
  186.9850  178.2830  142.5600 C   0  0  0  0  0  0  0  0  0  0  0  0
  186.5300  178.2210  138.9030 O   0  0  0  0  0  0  0  0  0  0  0  0
  182.0060  178.5570  144.0590 O   0  0  0  0  0  1  0  0  0  0  0  0
  188.2770  178.1180  140.1750 C   0  0  0  0  0  0  0  0  0  0  0  0
  188.6070  177.9050  138.8910 O   0  0  0  0  0  0  0  0  0  0  0  0
  186.2840  178.3130  143.7970 C   0  0  0  0  0  3  0  0  0  0  0  0
  184.1560  178.6300  142.7980 C   0  0  0  0  0  0  0  0  0  0  0  0
  182.7520  178.7000  142.9040 C   0  0  0  0  0  0  0  0  0  0  0  0
  187.6170  178.7950  136.7050 C   0  0  0  0  0  3  0  0  0  0  0  0
  187.1740  178.3830  135.4920 C   0  0  0  0  0  2  0  0  0  0  0  0
  189.1430  177.9730  143.7790 O   0  0  0  0  0  0  0  0  0  0  0  0
  191.1480  179.5230  144.1280 C   0  0  0  0  0  1  0  0  0  0  0  0
  190.5730  178.1340  144.0480 C   0  0  1  0  0  3  0  0  0  0  0  0
  191.2500  175.8480  143.9930 O   0  0  0  0  0  1  0  0  0  0  0  0
  191.4940  177.0530  144.6880 C   0  0  2  0  0  3  0  0  0  0  0  0
  191.9650  176.0600  147.1220 C   0  0  0  0  0  1  0  0  0  0  0  0
  191.0980  176.8370  146.1630 C   0  0  2  0  0  3  0  0  0  0  0  0
  189.6820  176.7430  146.4170 O   0  0  0  0  0  0  0  0  0  0  0  0
  188.9460  177.5400  147.3400 C   0  0  0  0  0  0  0  0  0  0  0  0
  189.4740  178.1220  148.3500 O   0  0  0  0  0  0  0  0  0  0  0  0
  187.5350  177.6550  147.1010 N   0  0  0  0  0  1  0  0  0  0  0  0
  1  2  2  0  0  0  0
  1 11  1  0  0  0  0
  2 17  1  0  0  0  0
  3  9  1  0  0  0  0
  4  1  1  0  0  0  0
  5 19  1  6  0  0  0
  5 15  1  0  0  0  0
  5 12  1  0  0  0  0
  6  3  2  0  0  0  0
  6  2  1  0  0  0  0
  7 11  1  0  0  0  0
  7 21  1  0  0  0  0
  9 18  2  0  0  0  0
 10  7  2  0  0  0  0
 11 16  2  0  0  0  0
 12  4  1  0  0  0  0
 14  4  2  0  0  0  0
 14 10  1  0  0  0  0
 15 14  1  0  0  0  0
 16  8  1  0  0  0  0
 17 18  1  0  0  0  0
 17  8  2  0  0  0  0
 18 13  1  0  0  0  0
 20 19  2  0  0  0  0
 21 23  1  0  0  0  0
 23 22  1  1  0  0  0
 23 25  1  0  0  0  0
 25 24  1  6  0  0  0
 25 27  1  0  0  0  0
 27 28  1  0  0  0  0
 27 26  1  6  0  0  0
 28 29  1  0  0  0  0
 29 30  2  0  0  0  0
 31 29  1  0  0  0  0
M  END
>  <MODEL>
9

>  <REMARK>
 VINA RESULT:      -8.4      2.382      7.019
  Name = 
  7 active torsions:
  status: ('A' for Active; 'I' for Inactive)
    1  A    between atoms: C_1  and  O_24
    2  A    between atoms: C_2  and  C_13
    3  A    between atoms: C_9  and  C_22
    4  A    between atoms: C_9  and  O_23
    5  A    between atoms: C_15  and  O_23
    6  A    between atoms: C_19  and  C_22
    7  A    between atoms: C_19  and  O_24
                            x       y       z     vdW  Elec       q    Type
                         _______ _______ _______ _____ _____    ______ ____

>  <TORSDO>
F 7

$$$$
