=
 OpenBabel11052415383D

 34 39  0  0  1  0  0  0  0  0999 V2000
  182.6440  177.9750  140.9150 C   0  0  0  0  0  0  0  0  0  0  0  0
  179.9990  175.9590  139.1410 C   0  0  0  0  0  3  0  0  0  0  0  0
  179.8140  177.7700  140.6920 N   0  0  0  0  0  0  0  0  0  0  0  0
  184.1290  178.0450  142.9570 C   0  0  2  0  0  3  0  0  0  0  0  0
  184.0580  177.9590  141.4120 C   0  0  0  0  0  2  0  0  0  0  0  0
  182.0970  179.6190  142.7070 C   0  0  1  0  0  3  0  0  0  0  0  0
  180.7840  179.9440  143.3150 N   0  0  0  0  0  0  0  0  0  0  0  0
  182.9440  178.7690  143.6590 C   0  0  0  0  0  2  0  0  0  0  0  0
  180.3950  178.6900  141.3960 C   0  0  0  0  0  0  0  0  0  0  0  0
  181.7980  178.8130  141.5000 C   0  0  0  0  0  0  0  0  0  0  0  0
  179.8010  179.3740  142.4720 N   0  0  0  0  0  0  0  0  0  0  0  0
  180.7770  175.0040  138.2820 C   0  0  0  0  0  2  0  0  0  0  0  0
  181.4520  175.6750  137.0740 C   0  0  2  0  0  3  0  0  0  0  0  0
  181.8450  177.1550  137.2820 C   0  0  0  0  0  2  0  0  0  0  0  0
  180.6080  176.9030  139.8600 C   0  0  0  0  0  0  0  0  0  0  0  0
  182.7520  177.3840  138.4950 C   0  0  0  0  0  2  0  0  0  0  0  0
  182.1410  177.0150  139.8590 C   0  0  1  0  0  3  0  0  0  0  0  0
  187.9430  178.0400  143.6070 C   0  0  0  0  0  2  0  0  0  0  0  0
  185.7780  177.9450  145.8560 C   0  0  0  0  0  2  0  0  0  0  0  0
  189.9250  177.0670  146.6690 C   0  0  0  0  0  0  0  0  0  0  0  0
  189.5440  177.3620  145.3560 C   0  0  0  0  0  3  0  0  0  0  0  0
  188.2160  177.6640  145.0370 C   0  0  0  0  0  0  0  0  0  0  0  0
  185.4980  178.5590  143.4090 C   0  0  1  0  0  3  0  0  0  0  0  0
  187.6340  177.3970  147.3850 C   0  0  0  0  0  3  0  0  0  0  0  0
  187.2460  177.7040  146.0770 C   0  0  0  0  0  0  0  0  0  0  0  0
  188.9610  177.0860  147.6830 C   0  0  0  0  0  3  0  0  0  0  0  0
  185.5020  179.0640  144.8600 C   0  0  0  0  0  2  0  0  0  0  0  0
  186.5990  177.5410  143.1050 C   0  0  0  0  0  2  0  0  0  0  0  0
  191.3280  176.7450  146.9770 C   0  0  0  0  0  0  0  0  0  0  0  0
  191.8500  177.1310  148.0570 O   0  0  0  0  0  1  0  0  0  0  0  0
  192.0910  176.0080  146.0780 O   0  0  0  0  0  0  0  0  0  0  0  0
  180.6400  175.4670  135.8700 N   0  0  0  0  0  0  0  0  0  0  0  0
  181.4000  175.7130  134.7730 O   0  0  0  0  0  1  0  0  0  0  0  0
  180.2350  174.0710  135.8160 C   0  0  0  0  0  1  0  0  0  0  0  0
  1  5  1  0  0  0  0
  1 10  2  0  0  0  0
  2 15  2  0  0  0  0
  3  9  2  0  0  0  0
  4  5  1  6  0  0  0
  4 23  1  0  0  0  0
  4  8  1  0  0  0  0
  6  7  1  0  0  0  0
  6  8  1  1  0  0  0
  9 10  1  0  0  0  0
  9 11  1  0  0  0  0
 10  6  1  0  0  0  0
 11  7  2  0  0  0  0
 12  2  1  0  0  0  0
 13 32  1  6  0  0  0
 13 14  1  0  0  0  0
 13 12  1  0  0  0  0
 14 16  1  0  0  0  0
 15  3  1  0  0  0  0
 17 16  1  6  0  0  0
 17 15  1  0  0  0  0
 17  1  1  0  0  0  0
 18 22  1  0  0  0  0
 19 25  1  0  0  0  0
 20 29  1  0  0  0  0
 20 26  1  0  0  0  0
 21 20  2  0  0  0  0
 22 21  1  0  0  0  0
 22 25  2  0  0  0  0
 23 28  1  1  0  0  0
 23 27  1  0  0  0  0
 24 26  2  0  0  0  0
 25 24  1  0  0  0  0
 27 19  1  0  0  0  0
 28 18  1  0  0  0  0
 29 30  1  0  0  0  0
 31 29  2  0  0  0  0
 33 32  1  0  0  0  0
 34 32  1  0  0  0  0
M  END
>  <MODEL>
1

>  <REMARK>
 VINA RESULT:     -10.0      0.000      0.000
  Name = 
  3 active torsions:
  status: ('A' for Active; 'I' for Inactive)
    1  A    between atoms: N_3  and  C_25
    2  A    between atoms: C_7  and  C_11
    3  A    between atoms: C_8  and  C_18
                            x       y       z     vdW  Elec       q    Type
                         _______ _______ _______ _____ _____    ______ ____

>  <TORSDO>
F 3

$$$$
=
 OpenBabel11052415383D

 34 39  0  0  1  0  0  0  0  0999 V2000
  190.9510  176.5470  138.1240 C   0  0  0  0  0  0  0  0  0  0  0  0
  191.7700  173.8210  135.6530 C   0  0  0  0  0  3  0  0  0  0  0  0
  190.2390  175.6540  135.5170 N   0  0  0  0  0  0  0  0  0  0  0  0
  189.5050  177.1330  140.1110 C   0  0  2  0  0  3  0  0  0  0  0  0
  190.9430  176.9090  139.5790 C   0  0  0  0  0  2  0  0  0  0  0  0
  189.0750  178.1510  137.7760 C   0  0  1  0  0  3  0  0  0  0  0  0
  188.0720  178.2000  136.6860 N   0  0  0  0  0  0  0  0  0  0  0  0
  188.4530  177.6070  139.0670 C   0  0  0  0  0  2  0  0  0  0  0  0
  189.7610  176.7390  136.0400 C   0  0  0  0  0  0  0  0  0  0  0  0
  190.1200  177.2020  137.3250 C   0  0  0  0  0  0  0  0  0  0  0  0
  188.5490  177.3460  135.6640 N   0  0  0  0  0  0  0  0  0  0  0  0
  192.8370  173.0140  136.3340 C   0  0  0  0  0  2  0  0  0  0  0  0
  194.1980  173.7280  136.4000 C   0  0  2  0  0  3  0  0  0  0  0  0
  194.1260  175.2700  136.4520 C   0  0  0  0  0  2  0  0  0  0  0  0
  191.2860  174.9380  136.1990 C   0  0  0  0  0  0  0  0  0  0  0  0
  193.2750  175.8060  137.6070 C   0  0  0  0  0  2  0  0  0  0  0  0
  191.7870  175.4120  137.5730 C   0  0  1  0  0  3  0  0  0  0  0  0
  190.2660  178.1480  143.7670 C   0  0  0  0  0  2  0  0  0  0  0  0
  187.4130  177.4750  142.6880 C   0  0  0  0  0  2  0  0  0  0  0  0
  188.2290  177.7370  146.9190 C   0  0  0  0  0  0  0  0  0  0  0  0
  189.2830  177.9200  146.0160 C   0  0  0  0  0  3  0  0  0  0  0  0
  189.0730  177.8570  144.6350 C   0  0  0  0  0  0  0  0  0  0  0  0
  189.5230  177.9940  141.3760 C   0  0  1  0  0  3  0  0  0  0  0  0
  186.7120  177.4410  145.0530 C   0  0  0  0  0  3  0  0  0  0  0  0
  187.7570  177.6340  144.1430 C   0  0  0  0  0  0  0  0  0  0  0  0
  186.9420  177.4960  146.4280 C   0  0  0  0  0  3  0  0  0  0  0  0
  188.1270  178.4800  141.7940 C   0  0  0  0  0  2  0  0  0  0  0  0
  190.3010  177.3080  142.5010 C   0  0  0  0  0  2  0  0  0  0  0  0
  188.4770  177.8010  148.3680 C   0  0  0  0  0  0  0  0  0  0  0  0
  187.5790  177.4670  149.1860 O   0  0  0  0  0  1  0  0  0  0  0  0
  189.7090  178.2310  148.8490 O   0  0  0  0  0  0  0  0  0  0  0  0
  195.0720  173.2360  135.3290 N   0  0  0  0  0  0  0  0  0  0  0  0
  195.5110  174.2870  134.5940 O   0  0  0  0  0  1  0  0  0  0  0  0
  196.2380  172.6080  135.9310 C   0  0  0  0  0  1  0  0  0  0  0  0
  1  5  1  0  0  0  0
  2 15  2  0  0  0  0
  2 12  1  0  0  0  0
  3  9  2  0  0  0  0
  3 15  1  0  0  0  0
  4  8  1  6  0  0  0
  4 23  1  0  0  0  0
  5  4  1  0  0  0  0
  6  8  1  1  0  0  0
  7  6  1  0  0  0  0
  9 10  1  0  0  0  0
 10  6  1  0  0  0  0
 10  1  2  0  0  0  0
 11  9  1  0  0  0  0
 11  7  2  0  0  0  0
 12 13  1  0  0  0  0
 13 32  1  6  0  0  0
 13 14  1  0  0  0  0
 14 16  1  0  0  0  0
 15 17  1  0  0  0  0
 17 16  1  6  0  0  0
 17  1  1  0  0  0  0
 18 22  1  0  0  0  0
 19 25  1  0  0  0  0
 20 29  1  0  0  0  0
 21 20  2  0  0  0  0
 22 21  1  0  0  0  0
 23 27  1  1  0  0  0
 23 28  1  0  0  0  0
 24 26  2  0  0  0  0
 25 22  2  0  0  0  0
 25 24  1  0  0  0  0
 26 20  1  0  0  0  0
 27 19  1  0  0  0  0
 28 18  1  0  0  0  0
 29 31  2  0  0  0  0
 29 30  1  0  0  0  0
 32 34  1  0  0  0  0
 33 32  1  0  0  0  0
M  END
>  <MODEL>
2

>  <REMARK>
 VINA RESULT:      -9.8      6.943      8.849
  Name = 
  3 active torsions:
  status: ('A' for Active; 'I' for Inactive)
    1  A    between atoms: N_3  and  C_25
    2  A    between atoms: C_7  and  C_11
    3  A    between atoms: C_8  and  C_18
                            x       y       z     vdW  Elec       q    Type
                         _______ _______ _______ _____ _____    ______ ____

>  <TORSDO>
F 3

$$$$
=
 OpenBabel11052415383D

 34 39  0  0  1  0  0  0  0  0999 V2000
  186.4270  177.9190  143.4530 C   0  0  0  0  0  0  0  0  0  0  0  0
  189.6460  178.3270  145.3720 C   0  0  0  0  0  3  0  0  0  0  0  0
  187.3680  178.3750  146.1000 N   0  0  0  0  0  0  0  0  0  0  0  0
  184.6920  179.1520  142.0920 C   0  0  2  0  0  3  0  0  0  0  0  0
  185.7880  178.0570  142.1040 C   0  0  0  0  0  2  0  0  0  0  0  0
  184.1930  178.3180  144.4850 C   0  0  1  0  0  3  0  0  0  0  0  0
  183.8600  178.7970  145.8480 N   0  0  0  0  0  0  0  0  0  0  0  0
  183.9820  179.4270  143.4490 C   0  0  0  0  0  2  0  0  0  0  0  0
  186.1120  178.2190  145.8210 C   0  0  0  0  0  0  0  0  0  0  0  0
  185.6340  177.9750  144.5150 C   0  0  0  0  0  0  0  0  0  0  0  0
  185.0480  178.6960  146.6090 N   0  0  0  0  0  0  0  0  0  0  0  0
  190.7170  178.1530  144.3350 C   0  0  0  0  0  2  0  0  0  0  0  0
  190.8780  176.7000  143.8570 C   0  0  2  0  0  3  0  0  0  0  0  0
  189.5900  175.8480  143.9090 C   0  0  0  0  0  2  0  0  0  0  0  0
  188.3560  178.1620  145.0740 C   0  0  0  0  0  0  0  0  0  0  0  0
  188.4200  176.4560  143.1310 C   0  0  0  0  0  2  0  0  0  0  0  0
  187.9260  177.8230  143.6380 C   0  0  1  0  0  3  0  0  0  0  0  0
  182.3400  177.2450  139.6830 C   0  0  0  0  0  2  0  0  0  0  0  0
  185.0810  178.4860  138.8460 C   0  0  0  0  0  2  0  0  0  0  0  0
  183.0010  175.6760  136.3140 C   0  0  0  0  0  0  0  0  0  0  0  0
  182.4460  176.0030  137.5560 C   0  0  0  0  0  3  0  0  0  0  0  0
  183.0720  176.9150  138.4120 C   0  0  0  0  0  0  0  0  0  0  0  0
  183.7130  178.9270  140.9370 C   0  0  1  0  0  3  0  0  0  0  0  0
  184.8300  177.2030  136.7540 C   0  0  0  0  0  3  0  0  0  0  0  0
  184.2770  177.5440  137.9930 C   0  0  0  0  0  0  0  0  0  0  0  0
  184.1980  176.2820  135.9180 C   0  0  0  0  0  3  0  0  0  0  0  0
  184.2190  179.4890  139.6000 C   0  0  0  0  0  2  0  0  0  0  0  0
  183.2700  177.4650  140.8650 C   0  0  0  0  0  2  0  0  0  0  0  0
  182.3260  174.7080  135.4340 C   0  0  0  0  0  0  0  0  0  0  0  0
  182.9860  174.0400  134.5940 O   0  0  0  0  0  0  0  0  0  0  0  0
  180.9520  174.5190  135.5250 O   0  0  0  0  0  1  0  0  0  0  0  0
  192.0060  176.0680  144.5500 N   0  0  0  0  0  0  0  0  0  0  0  0
  191.8680  176.2530  145.8870 O   0  0  0  0  0  1  0  0  0  0  0  0
  191.9610  174.6350  144.3020 C   0  0  0  0  0  1  0  0  0  0  0  0
  1 17  1  0  0  0  0
  1 10  2  0  0  0  0
  4  5  1  1  0  0  0
  4  8  1  0  0  0  0
  5  1  1  0  0  0  0
  6  8  1  6  0  0  0
  6 10  1  0  0  0  0
  6  7  1  0  0  0  0
  7 11  2  0  0  0  0
  9  3  2  0  0  0  0
  9 11  1  0  0  0  0
 10  9  1  0  0  0  0
 12  2  1  0  0  0  0
 13 14  1  0  0  0  0
 13 12  1  0  0  0  0
 13 32  1  1  0  0  0
 15  2  2  0  0  0  0
 15  3  1  0  0  0  0
 16 14  1  0  0  0  0
 17 16  1  1  0  0  0
 17 15  1  0  0  0  0
 18 28  1  0  0  0  0
 19 27  1  0  0  0  0
 20 21  1  0  0  0  0
 21 22  2  0  0  0  0
 22 18  1  0  0  0  0
 23 27  1  6  0  0  0
 23  4  1  0  0  0  0
 24 25  2  0  0  0  0
 25 22  1  0  0  0  0
 25 19  1  0  0  0  0
 26 20  2  0  0  0  0
 26 24  1  0  0  0  0
 28 23  1  0  0  0  0
 29 31  1  0  0  0  0
 29 20  1  0  0  0  0
 30 29  2  0  0  0  0
 32 33  1  0  0  0  0
 34 32  1  0  0  0  0
M  END
>  <MODEL>
3

>  <REMARK>
 VINA RESULT:      -8.8      3.122      9.706
  Name = 
  3 active torsions:
  status: ('A' for Active; 'I' for Inactive)
    1  A    between atoms: N_3  and  C_25
    2  A    between atoms: C_7  and  C_11
    3  A    between atoms: C_8  and  C_18
                            x       y       z     vdW  Elec       q    Type
                         _______ _______ _______ _____ _____    ______ ____

>  <TORSDO>
F 3

$$$$
=
 OpenBabel11052415383D

 34 39  0  0  1  0  0  0  0  0999 V2000
  190.2490  176.9610  140.6790 C   0  0  0  0  0  0  0  0  0  0  0  0
  190.2500  178.8390  143.9480 C   0  0  0  0  0  3  0  0  0  0  0  0
  188.5960  178.6850  142.2270 N   0  0  0  0  0  0  0  0  0  0  0  0
  190.9370  177.0900  138.2510 C   0  0  2  0  0  3  0  0  0  0  0  0
  191.1230  176.3730  139.6130 C   0  0  0  0  0  2  0  0  0  0  0  0
  188.4600  177.2540  138.9680 C   0  0  1  0  0  3  0  0  0  0  0  0
  187.3000  178.1760  138.9700 N   0  0  0  0  0  0  0  0  0  0  0  0
  189.5470  177.7460  138.0060 C   0  0  0  0  0  2  0  0  0  0  0  0
  188.2020  178.1530  141.1130 C   0  0  0  0  0  0  0  0  0  0  0  0
  189.0060  177.2820  140.3440 C   0  0  0  0  0  0  0  0  0  0  0  0
  187.1840  178.6700  140.2910 N   0  0  0  0  0  0  0  0  0  0  0  0
  191.5670  178.4850  144.5760 C   0  0  0  0  0  2  0  0  0  0  0  0
  191.6280  177.0400  145.1010 C   0  0  2  0  0  3  0  0  0  0  0  0
  190.7440  176.0290  144.3380 C   0  0  0  0  0  2  0  0  0  0  0  0
  189.8540  178.2830  142.8010 C   0  0  0  0  0  0  0  0  0  0  0  0
  191.0260  175.9780  142.8340 C   0  0  0  0  0  2  0  0  0  0  0  0
  190.7620  177.2850  142.0650 C   0  0  1  0  0  3  0  0  0  0  0  0
  191.5710  173.8330  136.2610 C   0  0  0  0  0  2  0  0  0  0  0  0
  193.8280  175.6130  137.4820 C   0  0  0  0  0  2  0  0  0  0  0  0
  194.6180  171.6140  136.0620 C   0  0  0  0  0  0  0  0  0  0  0  0
  193.3080  172.1020  136.0070 C   0  0  0  0  0  3  0  0  0  0  0  0
  192.9970  173.3940  136.4430 C   0  0  0  0  0  0  0  0  0  0  0  0
  191.3860  176.1900  137.0980 C   0  0  1  0  0  3  0  0  0  0  0  0
  195.3460  173.7340  136.9820 C   0  0  0  0  0  3  0  0  0  0  0  0
  194.0410  174.2350  136.9200 C   0  0  0  0  0  0  0  0  0  0  0  0
  195.6360  172.4390  136.5530 C   0  0  0  0  0  3  0  0  0  0  0  0
  192.8400  176.4410  136.6700 C   0  0  0  0  0  2  0  0  0  0  0  0
  191.0710  174.7210  137.3880 C   0  0  0  0  0  2  0  0  0  0  0  0
  194.9180  170.2480  135.6030 C   0  0  0  0  0  0  0  0  0  0  0  0
  195.9180  169.6280  136.0540 O   0  0  0  0  0  1  0  0  0  0  0  0
  194.0980  169.6280  134.6670 O   0  0  0  0  0  0  0  0  0  0  0  0
  191.3900  177.0250  146.5480 N   0  0  0  0  0  0  0  0  0  0  0  0
  190.0810  176.7590  146.7820 O   0  0  0  0  0  1  0  0  0  0  0  0
  192.1660  175.9440  147.1370 C   0  0  0  0  0  1  0  0  0  0  0  0
  1 17  1  0  0  0  0
  2 12  1  0  0  0  0
  3 15  1  0  0  0  0
  4  8  1  6  0  0  0
  4  5  1  0  0  0  0
  5  1  1  0  0  0  0
  6  8  1  6  0  0  0
  6  7  1  0  0  0  0
  6 10  1  0  0  0  0
  7 11  2  0  0  0  0
  9  3  2  0  0  0  0
 10  1  2  0  0  0  0
 10  9  1  0  0  0  0
 11  9  1  0  0  0  0
 12 13  1  0  0  0  0
 13 32  1  1  0  0  0
 14 13  1  0  0  0  0
 15  2  2  0  0  0  0
 16 14  1  0  0  0  0
 17 15  1  0  0  0  0
 17 16  1  1  0  0  0
 18 22  1  0  0  0  0
 18 28  1  0  0  0  0
 20 26  1  0  0  0  0
 21 20  2  0  0  0  0
 21 22  1  0  0  0  0
 22 25  2  0  0  0  0
 23 27  1  1  0  0  0
 23 28  1  0  0  0  0
 23  4  1  0  0  0  0
 25 24  1  0  0  0  0
 25 19  1  0  0  0  0
 26 24  2  0  0  0  0
 27 19  1  0  0  0  0
 29 30  1  0  0  0  0
 29 20  1  0  0  0  0
 31 29  2  0  0  0  0
 32 33  1  0  0  0  0
 32 34  1  0  0  0  0
M  END
>  <MODEL>
4

>  <REMARK>
 VINA RESULT:      -8.5      7.834     11.154
  Name = 
  3 active torsions:
  status: ('A' for Active; 'I' for Inactive)
    1  A    between atoms: N_3  and  C_25
    2  A    between atoms: C_7  and  C_11
    3  A    between atoms: C_8  and  C_18
                            x       y       z     vdW  Elec       q    Type
                         _______ _______ _______ _____ _____    ______ ____

>  <TORSDO>
F 3

$$$$
=
 OpenBabel11052415383D

 34 39  0  0  1  0  0  0  0  0999 V2000
  189.8890  176.4250  138.0880 C   0  0  0  0  0  0  0  0  0  0  0  0
  188.8280  173.9270  135.4720 C   0  0  0  0  0  3  0  0  0  0  0  0
  188.5540  176.3010  135.5780 N   0  0  0  0  0  0  0  0  0  0  0  0
  189.2060  177.5210  140.2600 C   0  0  2  0  0  3  0  0  0  0  0  0
  190.2240  176.6010  139.5390 C   0  0  0  0  0  2  0  0  0  0  0  0
  189.1820  178.8140  138.0230 C   0  0  1  0  0  3  0  0  0  0  0  0
  188.2710  179.4980  137.0750 N   0  0  0  0  0  0  0  0  0  0  0  0
  188.4930  178.5820  139.3720 C   0  0  0  0  0  2  0  0  0  0  0  0
  188.8050  177.4200  136.1820 C   0  0  0  0  0  0  0  0  0  0  0  0
  189.4830  177.4960  137.4190 C   0  0  0  0  0  0  0  0  0  0  0  0
  188.0970  178.6190  135.9810 N   0  0  0  0  0  0  0  0  0  0  0  0
  189.3360  172.6130  135.9890 C   0  0  0  0  0  2  0  0  0  0  0  0
  190.8640  172.4640  135.8920 C   0  0  2  0  0  3  0  0  0  0  0  0
  191.6580  173.7860  135.9870 C   0  0  0  0  0  2  0  0  0  0  0  0
  189.0950  175.0730  136.1010 C   0  0  0  0  0  0  0  0  0  0  0  0
  191.3590  174.5910  137.2550 C   0  0  0  0  0  2  0  0  0  0  0  0
  189.9050  175.0740  137.4070 C   0  0  1  0  0  3  0  0  0  0  0  0
  191.5300  177.8220  143.3380 C   0  0  0  0  0  2  0  0  0  0  0  0
  188.4600  177.2740  143.5020 C   0  0  0  0  0  2  0  0  0  0  0  0
  191.0420  176.7260  146.9180 C   0  0  0  0  0  0  0  0  0  0  0  0
  191.6080  177.1210  145.7010 C   0  0  0  0  0  3  0  0  0  0  0  0
  190.8180  177.3230  144.5650 C   0  0  0  0  0  0  0  0  0  0  0  0
  189.8180  178.1150  141.5300 C   0  0  1  0  0  3  0  0  0  0  0  0
  188.8520  176.7510  145.8800 C   0  0  0  0  0  3  0  0  0  0  0  0
  189.4090  177.1560  144.6620 C   0  0  0  0  0  0  0  0  0  0  0  0
  189.6580  176.5420  147.0000 C   0  0  0  0  0  3  0  0  0  0  0  0
  188.7700  178.4610  142.5990 C   0  0  0  0  0  2  0  0  0  0  0  0
  190.9670  177.2500  142.0480 C   0  0  0  0  0  2  0  0  0  0  0  0
  191.8960  176.5130  148.0970 C   0  0  0  0  0  0  0  0  0  0  0  0
  192.2610  175.3500  148.4200 O   0  0  0  0  0  0  0  0  0  0  0  0
  192.3120  177.5940  148.8650 O   0  0  0  0  0  1  0  0  0  0  0  0
  191.2140  171.6750  134.7060 N   0  0  0  0  0  0  0  0  0  0  0  0
  192.4560  171.1550  134.8670 O   0  0  0  0  0  1  0  0  0  0  0  0
  190.2850  170.5600  134.5970 C   0  0  0  0  0  1  0  0  0  0  0  0
  1  5  1  0  0  0  0
  2 12  1  0  0  0  0
  2 15  2  0  0  0  0
  3 15  1  0  0  0  0
  3  9  2  0  0  0  0
  4  8  1  6  0  0  0
  4 23  1  0  0  0  0
  5  4  1  0  0  0  0
  6  8  1  1  0  0  0
  7  6  1  0  0  0  0
  9 10  1  0  0  0  0
 10  6  1  0  0  0  0
 10  1  2  0  0  0  0
 11  9  1  0  0  0  0
 11  7  2  0  0  0  0
 13 32  1  6  0  0  0
 13 14  1  0  0  0  0
 13 12  1  0  0  0  0
 14 16  1  0  0  0  0
 15 17  1  0  0  0  0
 17 16  1  6  0  0  0
 17  1  1  0  0  0  0
 18 22  1  0  0  0  0
 19 25  1  0  0  0  0
 20 26  1  0  0  0  0
 20 29  1  0  0  0  0
 21 20  2  0  0  0  0
 22 25  2  0  0  0  0
 22 21  1  0  0  0  0
 23 28  1  1  0  0  0
 23 27  1  0  0  0  0
 24 26  2  0  0  0  0
 25 24  1  0  0  0  0
 27 19  1  0  0  0  0
 28 18  1  0  0  0  0
 29 30  2  0  0  0  0
 29 31  1  0  0  0  0
 32 33  1  0  0  0  0
 34 32  1  0  0  0  0
M  END
>  <MODEL>
5

>  <REMARK>
 VINA RESULT:      -8.1      6.228      7.463
  Name = 
  3 active torsions:
  status: ('A' for Active; 'I' for Inactive)
    1  A    between atoms: N_3  and  C_25
    2  A    between atoms: C_7  and  C_11
    3  A    between atoms: C_8  and  C_18
                            x       y       z     vdW  Elec       q    Type
                         _______ _______ _______ _____ _____    ______ ____

>  <TORSDO>
F 3

$$$$
=
 OpenBabel11052415383D

 34 39  0  0  1  0  0  0  0  0999 V2000
  184.0950  178.6230  141.6210 C   0  0  0  0  0  0  0  0  0  0  0  0
  181.0130  177.7570  139.6310 C   0  0  0  0  0  3  0  0  0  0  0  0
  181.2710  178.4220  141.9140 N   0  0  0  0  0  0  0  0  0  0  0  0
  185.9640  177.6510  143.0150 C   0  0  2  0  0  3  0  0  0  0  0  0
  185.5760  178.4150  141.7240 C   0  0  0  0  0  2  0  0  0  0  0  0
  184.0360  178.9980  144.0840 C   0  0  1  0  0  3  0  0  0  0  0  0
  182.8990  178.8700  145.0270 N   0  0  0  0  0  0  0  0  0  0  0  0
  184.9980  177.8130  144.2250 C   0  0  0  0  0  2  0  0  0  0  0  0
  182.0450  178.8410  142.8650 C   0  0  0  0  0  0  0  0  0  0  0  0
  183.4460  178.9620  142.7270 C   0  0  0  0  0  0  0  0  0  0  0  0
  181.7290  178.7980  144.2360 N   0  0  0  0  0  0  0  0  0  0  0  0
  181.5340  177.4650  138.2530 C   0  0  0  0  0  2  0  0  0  0  0  0
  181.9950  178.7190  137.4920 C   0  0  2  0  0  3  0  0  0  0  0  0
  182.5230  179.8670  138.3820 C   0  0  0  0  0  2  0  0  0  0  0  0
  181.8190  178.1890  140.6020 C   0  0  0  0  0  0  0  0  0  0  0  0
  183.6700  179.4480  139.3070 C   0  0  0  0  0  2  0  0  0  0  0  0
  183.3240  178.3650  140.3450 C   0  0  1  0  0  3  0  0  0  0  0  0
  189.6320  176.8660  143.9650 C   0  0  0  0  0  2  0  0  0  0  0  0
  187.5580  178.1740  145.9000 C   0  0  0  0  0  2  0  0  0  0  0  0
  191.3010  176.5780  147.3390 C   0  0  0  0  0  0  0  0  0  0  0  0
  191.0010  176.4670  145.9770 C   0  0  0  0  0  3  0  0  0  0  0  0
  189.8070  176.9760  145.4550 C   0  0  0  0  0  0  0  0  0  0  0  0
  187.4280  177.9090  143.3790 C   0  0  1  0  0  3  0  0  0  0  0  0
  189.2050  177.7440  147.6840 C   0  0  0  0  0  3  0  0  0  0  0  0
  188.9010  177.6470  146.3220 C   0  0  0  0  0  0  0  0  0  0  0  0
  190.3960  177.2200  148.1900 C   0  0  0  0  0  3  0  0  0  0  0  0
  187.5940  178.8850  144.5540 C   0  0  0  0  0  2  0  0  0  0  0  0
  188.1940  176.5970  143.5520 C   0  0  0  0  0  2  0  0  0  0  0  0
  192.5610  176.0280  147.8650 C   0  0  0  0  0  0  0  0  0  0  0  0
  193.0740  176.4980  148.9160 O   0  0  0  0  0  1  0  0  0  0  0  0
  193.1970  174.9820  147.2070 O   0  0  0  0  0  0  0  0  0  0  0  0
  180.9450  179.1560  136.5670 N   0  0  0  0  0  0  0  0  0  0  0  0
  180.0410  178.1550  136.4130 O   0  0  0  0  0  1  0  0  0  0  0  0
  180.2450  180.2880  137.1550 C   0  0  0  0  0  1  0  0  0  0  0  0
  1  5  1  0  0  0  0
  1 10  2  0  0  0  0
  2 15  2  0  0  0  0
  3  9  2  0  0  0  0
  4  5  1  6  0  0  0
  4 23  1  0  0  0  0
  4  8  1  0  0  0  0
  6  8  1  6  0  0  0
  6  7  1  0  0  0  0
  9 11  1  0  0  0  0
 10  9  1  0  0  0  0
 10  6  1  0  0  0  0
 11  7  2  0  0  0  0
 12  2  1  0  0  0  0
 13 32  1  1  0  0  0
 13 12  1  0  0  0  0
 13 14  1  0  0  0  0
 14 16  1  0  0  0  0
 15  3  1  0  0  0  0
 17 16  1  6  0  0  0
 17 15  1  0  0  0  0
 17  1  1  0  0  0  0
 18 22  1  0  0  0  0
 19 25  1  0  0  0  0
 20 29  1  0  0  0  0
 20 26  1  0  0  0  0
 21 20  2  0  0  0  0
 22 21  1  0  0  0  0
 22 25  2  0  0  0  0
 23 28  1  1  0  0  0
 23 27  1  0  0  0  0
 24 26  2  0  0  0  0
 25 24  1  0  0  0  0
 27 19  1  0  0  0  0
 28 18  1  0  0  0  0
 29 30  1  0  0  0  0
 31 29  2  0  0  0  0
 32 34  1  0  0  0  0
 33 32  1  0  0  0  0
M  END
>  <MODEL>
6

>  <REMARK>
 VINA RESULT:      -7.8      1.753      2.445
  Name = 
  3 active torsions:
  status: ('A' for Active; 'I' for Inactive)
    1  A    between atoms: N_3  and  C_25
    2  A    between atoms: C_7  and  C_11
    3  A    between atoms: C_8  and  C_18
                            x       y       z     vdW  Elec       q    Type
                         _______ _______ _______ _____ _____    ______ ____

>  <TORSDO>
F 3

$$$$
=
 OpenBabel11052415383D

 34 39  0  0  1  0  0  0  0  0999 V2000
  186.4340  177.8390  143.4570 C   0  0  0  0  0  0  0  0  0  0  0  0
  189.5600  178.4870  145.4620 C   0  0  0  0  0  3  0  0  0  0  0  0
  187.2580  178.4680  146.1080 N   0  0  0  0  0  0  0  0  0  0  0  0
  184.6990  178.9220  141.9750 C   0  0  2  0  0  3  0  0  0  0  0  0
  185.8400  177.8790  142.0810 C   0  0  0  0  0  2  0  0  0  0  0  0
  184.1490  178.1870  144.3900 C   0  0  1  0  0  3  0  0  0  0  0  0
  183.7460  178.7180  145.7140 N   0  0  0  0  0  0  0  0  0  0  0  0
  183.9280  179.2320  143.2920 C   0  0  0  0  0  2  0  0  0  0  0  0
  186.0200  178.2420  145.7940 C   0  0  0  0  0  0  0  0  0  0  0  0
  185.6010  177.9110  144.4870 C   0  0  0  0  0  0  0  0  0  0  0  0
  184.9090  178.7090  146.5190 N   0  0  0  0  0  0  0  0  0  0  0  0
  190.6760  178.3090  144.4730 C   0  0  0  0  0  2  0  0  0  0  0  0
  190.9170  176.8430  144.0750 C   0  0  2  0  0  3  0  0  0  0  0  0
  189.6660  175.9370  144.1270 C   0  0  0  0  0  2  0  0  0  0  0  0
  188.2910  178.2490  145.1280 C   0  0  0  0  0  0  0  0  0  0  0  0
  188.4990  176.4520  143.2790 C   0  0  0  0  0  2  0  0  0  0  0  0
  187.9280  177.8200  143.6970 C   0  0  1  0  0  3  0  0  0  0  0  0
  183.0170  179.2740  138.5080 C   0  0  0  0  0  2  0  0  0  0  0  0
  181.5560  179.7570  141.2260 C   0  0  0  0  0  2  0  0  0  0  0  0
  179.8300  181.0130  137.4740 C   0  0  0  0  0  0  0  0  0  0  0  0
  181.0930  180.4110  137.4670 C   0  0  0  0  0  3  0  0  0  0  0  0
  181.6950  179.9750  138.6520 C   0  0  0  0  0  0  0  0  0  0  0  0
  183.7730  178.5960  140.8010 C   0  0  1  0  0  3  0  0  0  0  0  0
  179.7340  180.7310  139.8790 C   0  0  0  0  0  3  0  0  0  0  0  0
  180.9920  180.1190  139.8800 C   0  0  0  0  0  0  0  0  0  0  0  0
  179.1540  181.1700  138.6880 C   0  0  0  0  0  3  0  0  0  0  0  0
  182.3040  178.4300  141.2200 C   0  0  0  0  0  2  0  0  0  0  0  0
  183.9790  179.5760  139.6450 C   0  0  0  0  0  2  0  0  0  0  0  0
  179.2220  181.4690  136.2140 C   0  0  0  0  0  0  0  0  0  0  0  0
  178.9580  180.6460  135.2970 O   0  0  0  0  0  0  0  0  0  0  0  0
  178.9310  182.8160  136.0250 O   0  0  0  0  0  1  0  0  0  0  0  0
  192.0450  176.2980  144.8380 N   0  0  0  0  0  0  0  0  0  0  0  0
  191.8540  176.5490  146.1580 O   0  0  0  0  0  1  0  0  0  0  0  0
  192.0670  174.8530  144.6690 C   0  0  0  0  0  1  0  0  0  0  0  0
  1 17  1  0  0  0  0
  1 10  2  0  0  0  0
  4  5  1  1  0  0  0
  4  8  1  0  0  0  0
  5  1  1  0  0  0  0
  6  8  1  6  0  0  0
  6 10  1  0  0  0  0
  6  7  1  0  0  0  0
  7 11  2  0  0  0  0
  9  3  2  0  0  0  0
  9 11  1  0  0  0  0
 10  9  1  0  0  0  0
 12  2  1  0  0  0  0
 13 14  1  0  0  0  0
 13 12  1  0  0  0  0
 13 32  1  1  0  0  0
 15  2  2  0  0  0  0
 15  3  1  0  0  0  0
 16 14  1  0  0  0  0
 17 16  1  1  0  0  0
 17 15  1  0  0  0  0
 18 22  1  0  0  0  0
 18 28  1  0  0  0  0
 20 26  1  0  0  0  0
 21 20  2  0  0  0  0
 21 22  1  0  0  0  0
 22 25  2  0  0  0  0
 23 28  1  6  0  0  0
 23 27  1  0  0  0  0
 23  4  1  0  0  0  0
 24 25  1  0  0  0  0
 25 19  1  0  0  0  0
 26 24  2  0  0  0  0
 27 19  1  0  0  0  0
 29 20  1  0  0  0  0
 30 29  2  0  0  0  0
 31 29  1  0  0  0  0
 32 33  1  0  0  0  0
 34 32  1  0  0  0  0
M  END
>  <MODEL>
7

>  <REMARK>
 VINA RESULT:      -7.5      3.695     10.280
  Name = 
  3 active torsions:
  status: ('A' for Active; 'I' for Inactive)
    1  A    between atoms: N_3  and  C_25
    2  A    between atoms: C_7  and  C_11
    3  A    between atoms: C_8  and  C_18
                            x       y       z     vdW  Elec       q    Type
                         _______ _______ _______ _____ _____    ______ ____

>  <TORSDO>
F 3

$$$$
=
 OpenBabel11052415383D

 34 39  0  0  1  0  0  0  0  0999 V2000
  188.1600  175.1730  137.1600 C   0  0  0  0  0  0  0  0  0  0  0  0
  185.7240  173.8720  134.5940 C   0  0  0  0  0  3  0  0  0  0  0  0
  188.1150  173.8660  134.6320 N   0  0  0  0  0  0  0  0  0  0  0  0
  189.4160  177.2270  137.9240 C   0  0  2  0  0  3  0  0  0  0  0  0
  188.3450  176.1620  138.2710 C   0  0  0  0  0  2  0  0  0  0  0  0
  190.6160  175.2660  136.7470 C   0  0  1  0  0  3  0  0  0  0  0  0
  191.3760  174.9240  135.5210 N   0  0  0  0  0  0  0  0  0  0  0  0
  190.5260  176.7850  136.9270 C   0  0  0  0  0  2  0  0  0  0  0  0
  189.2140  174.1060  135.2760 C   0  0  0  0  0  0  0  0  0  0  0  0
  189.2480  174.7380  136.5390 C   0  0  0  0  0  0  0  0  0  0  0  0
  190.4860  174.2120  134.6840 N   0  0  0  0  0  0  0  0  0  0  0  0
  184.3750  174.1510  135.1910 C   0  0  0  0  0  2  0  0  0  0  0  0
  184.0260  173.2330  136.3750 C   0  0  2  0  0  3  0  0  0  0  0  0
  185.2370  172.7300  137.1920 C   0  0  0  0  0  2  0  0  0  0  0  0
  186.8480  174.1220  135.2670 C   0  0  0  0  0  0  0  0  0  0  0  0
  186.1220  173.8570  137.7350 C   0  0  0  0  0  2  0  0  0  0  0  0
  186.7930  174.7440  136.6710 C   0  0  1  0  0  3  0  0  0  0  0  0
  191.2890  177.4970  141.2990 C   0  0  0  0  0  2  0  0  0  0  0  0
  188.1880  177.6950  140.9910 C   0  0  0  0  0  2  0  0  0  0  0  0
  190.0490  177.1460  144.8470 C   0  0  0  0  0  0  0  0  0  0  0  0
  190.8600  177.1960  143.7080 C   0  0  0  0  0  3  0  0  0  0  0  0
  190.3110  177.3820  142.4350 C   0  0  0  0  0  0  0  0  0  0  0  0
  189.9740  177.8690  139.1960 C   0  0  1  0  0  3  0  0  0  0  0  0
  188.1020  177.4950  143.4480 C   0  0  0  0  0  3  0  0  0  0  0  0
  188.9060  177.5570  142.3050 C   0  0  0  0  0  0  0  0  0  0  0  0
  188.6660  177.2970  144.7090 C   0  0  0  0  0  3  0  0  0  0  0  0
  188.9070  178.6140  140.0130 C   0  0  0  0  0  2  0  0  0  0  0  0
  190.7860  176.8630  140.0130 C   0  0  0  0  0  2  0  0  0  0  0  0
  190.6510  176.9420  146.1740 C   0  0  0  0  0  0  0  0  0  0  0  0
  189.9210  176.7950  147.1910 O   0  0  0  0  0  1  0  0  0  0  0  0
  192.0330  176.9070  146.3190 O   0  0  0  0  0  0  0  0  0  0  0  0
  183.1540  172.1440  135.9220 N   0  0  0  0  0  0  0  0  0  0  0  0
  183.7940  170.9600  136.0960 O   0  0  0  0  0  1  0  0  0  0  0  0
  181.9630  172.1220  136.7570 C   0  0  0  0  0  1  0  0  0  0  0  0
  1  5  1  0  0  0  0
  2 12  1  0  0  0  0
  2 15  2  0  0  0  0
  3 15  1  0  0  0  0
  3  9  2  0  0  0  0
  4  8  1  1  0  0  0
  4  5  1  0  0  0  0
  4 23  1  0  0  0  0
  6  8  1  6  0  0  0
  7  6  1  0  0  0  0
  9 10  1  0  0  0  0
 10  6  1  0  0  0  0
 10  1  2  0  0  0  0
 11  9  1  0  0  0  0
 11  7  2  0  0  0  0
 12 13  1  0  0  0  0
 13 32  1  6  0  0  0
 13 14  1  0  0  0  0
 14 16  1  0  0  0  0
 15 17  1  0  0  0  0
 17  1  1  0  0  0  0
 17 16  1  1  0  0  0
 18 22  1  0  0  0  0
 19 25  1  0  0  0  0
 20 29  1  0  0  0  0
 21 20  2  0  0  0  0
 22 21  1  0  0  0  0
 23 27  1  1  0  0  0
 23 28  1  0  0  0  0
 24 26  2  0  0  0  0
 25 22  2  0  0  0  0
 25 24  1  0  0  0  0
 26 20  1  0  0  0  0
 27 19  1  0  0  0  0
 28 18  1  0  0  0  0
 29 31  2  0  0  0  0
 29 30  1  0  0  0  0
 32 33  1  0  0  0  0
 32 34  1  0  0  0  0
M  END
>  <MODEL>
8

>  <REMARK>
 VINA RESULT:      -7.5      5.232      6.965
  Name = 
  3 active torsions:
  status: ('A' for Active; 'I' for Inactive)
    1  A    between atoms: N_3  and  C_25
    2  A    between atoms: C_7  and  C_11
    3  A    between atoms: C_8  and  C_18
                            x       y       z     vdW  Elec       q    Type
                         _______ _______ _______ _____ _____    ______ ____

>  <TORSDO>
F 3

$$$$
=
 OpenBabel11052415383D

 34 39  0  0  1  0  0  0  0  0999 V2000
  186.7610  176.5250  137.3780 C   0  0  0  0  0  0  0  0  0  0  0  0
  184.2290  176.2860  134.5950 C   0  0  0  0  0  3  0  0  0  0  0  0
  185.9830  174.7990  135.2530 N   0  0  0  0  0  0  0  0  0  0  0  0
  189.0300  177.4460  137.9990 C   0  0  2  0  0  3  0  0  0  0  0  0
  187.5050  177.4740  138.2690 C   0  0  0  0  0  2  0  0  0  0  0  0
  188.6540  174.9200  137.6070 C   0  0  1  0  0  3  0  0  0  0  0  0
  189.0490  173.8000  136.7190 N   0  0  0  0  0  0  0  0  0  0  0  0
  189.6030  176.1110  137.4380 C   0  0  0  0  0  2  0  0  0  0  0  0
  186.9190  174.4930  136.0960 C   0  0  0  0  0  0  0  0  0  0  0  0
  187.3020  175.3330  137.1650 C   0  0  0  0  0  0  0  0  0  0  0  0
  187.9590  173.5790  135.8460 N   0  0  0  0  0  0  0  0  0  0  0  0
  183.3930  177.5230  134.7500 C   0  0  0  0  0  2  0  0  0  0  0  0
  182.4520  177.4790  135.9670 C   0  0  2  0  0  3  0  0  0  0  0  0
  182.9600  176.6330  137.1560 C   0  0  0  0  0  2  0  0  0  0  0  0
  185.1890  175.9810  135.4700 C   0  0  0  0  0  0  0  0  0  0  0  0
  184.3420  177.0560  137.6640 C   0  0  0  0  0  2  0  0  0  0  0  0
  185.4930  176.9160  136.6510 C   0  0  1  0  0  3  0  0  0  0  0  0
  191.4410  177.4020  141.0240 C   0  0  0  0  0  2  0  0  0  0  0  0
  188.3370  177.6500  141.2560 C   0  0  0  0  0  2  0  0  0  0  0  0
  190.7970  176.7490  144.6860 C   0  0  0  0  0  0  0  0  0  0  0  0
  191.4100  176.8930  143.4370 C   0  0  0  0  0  3  0  0  0  0  0  0
  190.6620  177.1950  142.2940 C   0  0  0  0  0  0  0  0  0  0  0  0
  189.8050  177.9680  139.2100 C   0  0  1  0  0  3  0  0  0  0  0  0
  188.6540  177.2350  143.6670 C   0  0  0  0  0  3  0  0  0  0  0  0
  189.2590  177.3920  142.4150 C   0  0  0  0  0  0  0  0  0  0  0  0
  189.4130  176.9220  144.7940 C   0  0  0  0  0  3  0  0  0  0  0  0
  188.9050  178.6470  140.2540 C   0  0  0  0  0  2  0  0  0  0  0  0
  190.7190  176.8880  139.7900 C   0  0  0  0  0  2  0  0  0  0  0  0
  191.6050  176.4230  145.8730 C   0  0  0  0  0  0  0  0  0  0  0  0
  192.3320  175.3940  145.8880 O   0  0  0  0  0  0  0  0  0  0  0  0
  191.5740  177.2510  146.9900 O   0  0  0  0  0  1  0  0  0  0  0  0
  181.1000  177.1040  135.5390 N   0  0  0  0  0  0  0  0  0  0  0  0
  180.8260  175.8490  135.9770 O   0  0  0  0  0  1  0  0  0  0  0  0
  180.1460  178.0030  136.1690 C   0  0  0  0  0  1  0  0  0  0  0  0
  1  5  1  0  0  0  0
  2 12  1  0  0  0  0
  2 15  2  0  0  0  0
  3 15  1  0  0  0  0
  3  9  2  0  0  0  0
  4  8  1  1  0  0  0
  4  5  1  0  0  0  0
  4 23  1  0  0  0  0
  6  8  1  6  0  0  0
  7  6  1  0  0  0  0
  9 10  1  0  0  0  0
 10  1  2  0  0  0  0
 10  6  1  0  0  0  0
 11  9  1  0  0  0  0
 11  7  2  0  0  0  0
 12 13  1  0  0  0  0
 13 32  1  6  0  0  0
 13 14  1  0  0  0  0
 14 16  1  0  0  0  0
 15 17  1  0  0  0  0
 17  1  1  0  0  0  0
 17 16  1  1  0  0  0
 18 22  1  0  0  0  0
 19 25  1  0  0  0  0
 20 26  1  0  0  0  0
 20 29  1  0  0  0  0
 21 20  2  0  0  0  0
 22 25  2  0  0  0  0
 22 21  1  0  0  0  0
 23 28  1  1  0  0  0
 23 27  1  0  0  0  0
 24 26  2  0  0  0  0
 25 24  1  0  0  0  0
 27 19  1  0  0  0  0
 28 18  1  0  0  0  0
 29 30  2  0  0  0  0
 29 31  1  0  0  0  0
 32 33  1  0  0  0  0
 32 34  1  0  0  0  0
M  END
>  <MODEL>
9

>  <REMARK>
 VINA RESULT:      -7.3      4.036      5.903
  Name = 
  3 active torsions:
  status: ('A' for Active; 'I' for Inactive)
    1  A    between atoms: N_3  and  C_25
    2  A    between atoms: C_7  and  C_11
    3  A    between atoms: C_8  and  C_18
                            x       y       z     vdW  Elec       q    Type
                         _______ _______ _______ _____ _____    ______ ____

>  <TORSDO>
F 3

$$$$
