=
 OpenBabel11052413433D

 27 32  0  0  1  0  0  0  0  0999 V2000
  184.5500  179.2880  139.8030 C   0  0  0  0  0  2  0  0  0  0  0  0
  184.6340  178.3910  142.2110 C   0  0  0  0  0  0  0  0  0  0  0  0
  186.9190  177.4230  141.8170 C   0  0  2  0  0  3  0  0  0  0  0  0
  185.3550  179.2810  146.3650 C   0  0  0  0  0  3  0  0  0  0  0  0
  187.3230  177.9210  147.1360 C   0  0  0  0  0  3  0  0  0  0  0  0
  183.8050  179.0780  142.9990 C   0  0  0  0  0  3  0  0  0  0  0  0
  187.2120  177.3990  144.6720 C   0  0  0  0  0  3  0  0  0  0  0  0
  189.1800  177.5580  140.8540 C   0  0  0  0  0  3  0  0  0  0  0  0
  187.7270  177.2940  146.0400 C   0  0  0  0  0  3  0  0  0  0  0  0
  189.1470  177.5780  139.4850 C   0  0  0  0  0  3  0  0  0  0  0  0
  186.1630  178.0620  144.1680 C   0  0  0  0  0  0  0  0  0  0  0  0
  184.2500  178.1170  140.7590 C   0  0  1  0  0  3  0  0  0  0  0  0
  186.2380  178.8890  147.2750 C   0  0  0  0  0  3  0  0  0  0  0  0
  185.2000  178.8790  144.9620 C   0  0  0  0  0  0  0  0  0  0  0  0
  185.5930  178.9100  138.7300 C   0  0  0  0  0  2  0  0  0  0  0  0
  185.9120  177.9530  142.7470 N   0  0  0  0  0  0  0  0  0  0  0  0
  188.0820  178.1660  141.7200 C   0  0  1  0  0  3  0  0  0  0  0  0
  184.1340  179.3330  144.3700 N   0  0  0  0  0  0  0  0  0  0  0  0
  187.9870  178.1300  138.6860 C   0  0  0  0  0  3  0  0  0  0  0  0
  186.9210  178.5870  139.3460 C   0  0  0  0  0  0  0  0  0  0  0  0
  187.0290  178.4250  140.7240 N   0  0  0  0  0  0  0  0  0  0  0  0
  180.2910  176.5730  140.3160 C   0  0  0  0  0  3  0  0  0  0  0  0
  182.8620  177.5840  140.5910 C   0  0  0  0  0  0  0  0  0  0  0  0
  182.6660  176.3780  139.9120 C   0  0  0  0  0  3  0  0  0  0  0  0
  181.3720  175.8740  139.7740 C   0  0  0  0  0  3  0  0  0  0  0  0
  180.5250  177.7730  140.9920 C   0  0  0  0  0  3  0  0  0  0  0  0
  181.7940  178.2480  141.1170 N   0  0  0  0  0  0  0  0  0  0  0  0
  1 12  1  0  0  0  0
  2 16  1  0  0  0  0
  2  6  2  0  0  0  0
  3 21  1  6  0  0  0
  3 16  1  0  0  0  0
  4 13  2  0  0  0  0
  5 13  1  0  0  0  0
  6 18  1  0  0  0  0
  7  9  1  0  0  0  0
  9  5  2  0  0  0  0
 10  8  2  0  0  0  0
 11  7  2  0  0  0  0
 11 14  1  0  0  0  0
 12 23  1  1  0  0  0
 12  2  1  0  0  0  0
 14  4  1  0  0  0  0
 15 20  1  0  0  0  0
 15  1  1  0  0  0  0
 16 11  1  0  0  0  0
 17  8  1  6  0  0  0
 17  3  1  0  0  0  0
 18 14  2  0  0  0  0
 19 20  2  0  0  0  0
 19 10  1  0  0  0  0
 20 21  1  0  0  0  0
 21 17  1  0  0  0  0
 22 26  1  0  0  0  0
 23 27  1  0  0  0  0
 24 23  2  0  0  0  0
 25 24  1  0  0  0  0
 25 22  2  0  0  0  0
 26 27  2  0  0  0  0
M  END
>  <MODEL>
1

>  <REMARK>
 VINA RESULT:      -7.9      0.000      0.000
  Name = 
  1 active torsions:
  status: ('A' for Active; 'I' for Inactive)
    1  A    between atoms: C_9  and  C_15
                            x       y       z     vdW  Elec       q    Type
                         _______ _______ _______ _____ _____    ______ ____

>  <TORSDO>
F 1

$$$$
=
 OpenBabel11052413433D

 27 32  0  0  1  0  0  0  0  0999 V2000
  184.5430  179.7530  143.5880 C   0  0  0  0  0  2  0  0  0  0  0  0
  185.2120  178.3290  141.5550 C   0  0  0  0  0  0  0  0  0  0  0  0
  182.8540  177.5030  141.3020 C   0  0  2  0  0  3  0  0  0  0  0  0
  186.0540  178.2530  137.3290 C   0  0  0  0  0  3  0  0  0  0  0  0
  184.3570  176.7750  136.2110 C   0  0  0  0  0  3  0  0  0  0  0  0
  186.3220  178.8090  140.9890 C   0  0  0  0  0  3  0  0  0  0  0  0
  183.5630  176.8300  138.6030 C   0  0  0  0  0  3  0  0  0  0  0  0
  180.4220  177.8800  141.3440 C   0  0  0  0  0  3  0  0  0  0  0  0
  183.5440  176.4200  137.1960 C   0  0  0  0  0  3  0  0  0  0  0  0
  179.9820  178.2120  142.5970 C   0  0  0  0  0  3  0  0  0  0  0  0
  184.4290  177.5790  139.2970 C   0  0  0  0  0  0  0  0  0  0  0  0
  185.0450  178.3910  143.0700 C   0  0  1  0  0  3  0  0  0  0  0  0
  185.5070  177.6740  136.2680 C   0  0  0  0  0  3  0  0  0  0  0  0
  185.6780  178.1810  138.7460 C   0  0  0  0  0  0  0  0  0  0  0  0
  183.1640  179.6430  144.2730 C   0  0  0  0  0  2  0  0  0  0  0  0
  184.1630  177.7950  140.7030 N   0  0  0  0  0  0  0  0  0  0  0  0
  181.8020  178.2610  140.8190 C   0  0  1  0  0  3  0  0  0  0  0  0
  186.5110  178.7480  139.5700 N   0  0  0  0  0  0  0  0  0  0  0  0
  180.8400  178.9190  143.6220 C   0  0  0  0  0  3  0  0  0  0  0  0
  182.1060  179.2020  143.3060 C   0  0  0  0  0  0  0  0  0  0  0  0
  182.4660  178.7290  142.0470 N   0  0  0  0  0  0  0  0  0  0  0  0
  188.4210  176.9410  145.2520 C   0  0  0  0  0  3  0  0  0  0  0  0
  186.2350  177.8960  143.8310 C   0  0  0  0  0  0  0  0  0  0  0  0
  186.3600  178.2010  145.1890 C   0  0  0  0  0  3  0  0  0  0  0  0
  187.4610  177.7210  145.9000 C   0  0  0  0  0  3  0  0  0  0  0  0
  188.2610  176.6510  143.8950 C   0  0  0  0  0  3  0  0  0  0  0  0
  187.1810  177.1280  143.2190 N   0  0  0  0  0  0  0  0  0  0  0  0
  1 15  1  0  0  0  0
  2 12  1  0  0  0  0
  3 16  1  6  0  0  0
  3 21  1  0  0  0  0
  4 14  1  0  0  0  0
  5 13  1  0  0  0  0
  5  9  2  0  0  0  0
  6  2  2  0  0  0  0
  7 11  2  0  0  0  0
  8 10  2  0  0  0  0
  9  7  1  0  0  0  0
 10 19  1  0  0  0  0
 11 16  1  0  0  0  0
 12  1  1  0  0  0  0
 12 23  1  1  0  0  0
 13  4  2  0  0  0  0
 14 11  1  0  0  0  0
 14 18  2  0  0  0  0
 16  2  1  0  0  0  0
 17  3  1  0  0  0  0
 17  8  1  1  0  0  0
 17 21  1  0  0  0  0
 18  6  1  0  0  0  0
 20 19  2  0  0  0  0
 20 15  1  0  0  0  0
 21 20  1  0  0  0  0
 22 25  1  0  0  0  0
 23 24  1  0  0  0  0
 24 25  2  0  0  0  0
 26 22  2  0  0  0  0
 27 23  2  0  0  0  0
 27 26  1  0  0  0  0
M  END
>  <MODEL>
2

>  <REMARK>
 VINA RESULT:      -7.6      1.770      7.098
  Name = 
  1 active torsions:
  status: ('A' for Active; 'I' for Inactive)
    1  A    between atoms: C_9  and  C_15
                            x       y       z     vdW  Elec       q    Type
                         _______ _______ _______ _____ _____    ______ ____

>  <TORSDO>
F 1

$$$$
=
 OpenBabel11052413433D

 27 32  0  0  1  0  0  0  0  0999 V2000
  189.0610  178.3680  139.4550 C   0  0  0  0  0  2  0  0  0  0  0  0
  190.8480  176.5470  139.1460 C   0  0  0  0  0  0  0  0  0  0  0  0
  189.3210  175.2420  137.6380 C   0  0  2  0  0  3  0  0  0  0  0  0
  194.4490  175.3390  137.1100 C   0  0  0  0  0  3  0  0  0  0  0  0
  193.9390  173.2900  135.7480 C   0  0  0  0  0  3  0  0  0  0  0  0
  192.0650  177.0340  139.3950 C   0  0  0  0  0  3  0  0  0  0  0  0
  191.6820  173.9220  136.6760 C   0  0  0  0  0  3  0  0  0  0  0  0
  187.6430  175.1350  135.8410 C   0  0  0  0  0  3  0  0  0  0  0  0
  192.6380  173.1050  135.9250 C   0  0  0  0  0  3  0  0  0  0  0  0
  186.4720  175.7440  136.2040 C   0  0  0  0  0  3  0  0  0  0  0  0
  191.8540  175.0010  137.4500 C   0  0  0  0  0  0  0  0  0  0  0  0
  189.6530  177.0380  139.9580 C   0  0  1  0  0  3  0  0  0  0  0  0
  194.7770  174.3670  136.2680 C   0  0  0  0  0  3  0  0  0  0  0  0
  193.1670  175.6350  137.7620 C   0  0  0  0  0  0  0  0  0  0  0  0
  187.6060  178.2090  138.9630 C   0  0  0  0  0  2  0  0  0  0  0  0
  190.6830  175.5840  138.0700 N   0  0  0  0  0  0  0  0  0  0  0  0
  189.0090  175.5960  136.3370 C   0  0  1  0  0  3  0  0  0  0  0  0
  193.2060  176.5770  138.6580 N   0  0  0  0  0  0  0  0  0  0  0  0
  186.3970  176.8850  137.1940 C   0  0  0  0  0  3  0  0  0  0  0  0
  187.5260  177.2960  137.7770 C   0  0  0  0  0  0  0  0  0  0  0  0
  188.6330  176.5380  137.4040 N   0  0  0  0  0  0  0  0  0  0  0  0
  190.2790  177.0310  144.1850 C   0  0  0  0  0  3  0  0  0  0  0  0
  189.8870  177.0400  141.4370 C   0  0  0  0  0  0  0  0  0  0  0  0
  189.5700  178.1800  142.1810 C   0  0  0  0  0  3  0  0  0  0  0  0
  189.7700  178.1720  143.5620 C   0  0  0  0  0  3  0  0  0  0  0  0
  190.5800  175.9080  143.4100 C   0  0  0  0  0  3  0  0  0  0  0  0
  190.3770  175.9350  142.0650 N   0  0  0  0  0  0  0  0  0  0  0  0
  1 12  1  0  0  0  0
  2  6  2  0  0  0  0
  2 12  1  0  0  0  0
  3 21  1  1  0  0  0
  3 16  1  0  0  0  0
  4 14  1  0  0  0  0
  5  9  2  0  0  0  0
  5 13  1  0  0  0  0
  7 11  2  0  0  0  0
  8 10  2  0  0  0  0
  9  7  1  0  0  0  0
 10 19  1  0  0  0  0
 11 14  1  0  0  0  0
 11 16  1  0  0  0  0
 12 23  1  1  0  0  0
 13  4  2  0  0  0  0
 14 18  2  0  0  0  0
 15  1  1  0  0  0  0
 16  2  1  0  0  0  0
 17  8  1  1  0  0  0
 17 21  1  0  0  0  0
 17  3  1  0  0  0  0
 18  6  1  0  0  0  0
 19 20  2  0  0  0  0
 20 15  1  0  0  0  0
 21 20  1  0  0  0  0
 23 27  2  0  0  0  0
 23 24  1  0  0  0  0
 24 25  2  0  0  0  0
 25 22  1  0  0  0  0
 26 22  2  0  0  0  0
 27 26  1  0  0  0  0
M  END
>  <MODEL>
3

>  <REMARK>
 VINA RESULT:      -7.6      4.553      8.738
  Name = 
  1 active torsions:
  status: ('A' for Active; 'I' for Inactive)
    1  A    between atoms: C_9  and  C_15
                            x       y       z     vdW  Elec       q    Type
                         _______ _______ _______ _____ _____    ______ ____

>  <TORSDO>
F 1

$$$$
=
 OpenBabel11052413433D

 27 32  0  0  1  0  0  0  0  0999 V2000
  181.6040  178.4440  140.3530 C   0  0  0  0  0  2  0  0  0  0  0  0
  183.9040  178.7750  139.2530 C   0  0  0  0  0  0  0  0  0  0  0  0
  184.9590  179.2190  141.4890 C   0  0  2  0  0  3  0  0  0  0  0  0
  187.4090  176.8950  137.5930 C   0  0  0  0  0  3  0  0  0  0  0  0
  189.3930  177.5460  138.9910 C   0  0  0  0  0  3  0  0  0  0  0  0
  183.9530  178.1610  138.0690 C   0  0  0  0  0  3  0  0  0  0  0  0
  187.4630  178.5780  140.2420 C   0  0  0  0  0  3  0  0  0  0  0  0
  185.1980  178.7430  143.8920 C   0  0  0  0  0  3  0  0  0  0  0  0
  188.8700  178.2690  139.9710 C   0  0  0  0  0  3  0  0  0  0  0  0
  184.0460  179.0150  144.5800 C   0  0  0  0  0  3  0  0  0  0  0  0
  186.3480  178.3090  139.5530 C   0  0  0  0  0  0  0  0  0  0  0  0
  182.6060  179.4280  139.7170 C   0  0  1  0  0  3  0  0  0  0  0  0
  188.6990  176.8620  137.9020 C   0  0  0  0  0  3  0  0  0  0  0  0
  186.2980  177.6040  138.2390 C   0  0  0  0  0  0  0  0  0  0  0  0
  181.3280  178.7720  141.8360 C   0  0  0  0  0  2  0  0  0  0  0  0
  185.0870  178.7680  140.0970 N   0  0  0  0  0  0  0  0  0  0  0  0
  185.2070  178.2530  142.4480 C   0  0  1  0  0  3  0  0  0  0  0  0
  185.1640  177.5550  137.6020 N   0  0  0  0  0  0  0  0  0  0  0  0
  182.6670  178.9400  143.9620 C   0  0  0  0  0  3  0  0  0  0  0  0
  182.5660  178.6280  142.6680 C   0  0  0  0  0  0  0  0  0  0  0  0
  183.8060  178.4700  142.0530 N   0  0  0  0  0  0  0  0  0  0  0  0
  180.7490  181.9350  136.7970 C   0  0  0  0  0  3  0  0  0  0  0  0
  181.9670  180.3050  138.6860 C   0  0  0  0  0  0  0  0  0  0  0  0
  181.1630  179.7310  137.6970 C   0  0  0  0  0  3  0  0  0  0  0  0
  180.5530  180.5530  136.7490 C   0  0  0  0  0  3  0  0  0  0  0  0
  181.5550  182.4740  137.8020 C   0  0  0  0  0  3  0  0  0  0  0  0
  182.1410  181.6560  138.7190 N   0  0  0  0  0  0  0  0  0  0  0  0
  1 15  1  0  0  0  0
  2 12  1  0  0  0  0
  2 16  1  0  0  0  0
  3 16  1  6  0  0  0
  3 21  1  0  0  0  0
  3 17  1  0  0  0  0
  4 13  2  0  0  0  0
  4 14  1  0  0  0  0
  5  9  2  0  0  0  0
  6  2  2  0  0  0  0
  8 10  2  0  0  0  0
  9  7  1  0  0  0  0
 11 16  1  0  0  0  0
 11  7  2  0  0  0  0
 12 23  1  6  0  0  0
 12  1  1  0  0  0  0
 13  5  1  0  0  0  0
 14 11  1  0  0  0  0
 15 20  1  0  0  0  0
 17  8  1  1  0  0  0
 18  6  1  0  0  0  0
 18 14  2  0  0  0  0
 19 10  1  0  0  0  0
 20 19  2  0  0  0  0
 21 17  1  0  0  0  0
 21 20  1  0  0  0  0
 22 26  1  0  0  0  0
 23 27  1  0  0  0  0
 24 23  2  0  0  0  0
 25 22  2  0  0  0  0
 25 24  1  0  0  0  0
 26 27  2  0  0  0  0
M  END
>  <MODEL>
4

>  <REMARK>
 VINA RESULT:      -7.6      2.555      5.679
  Name = 
  1 active torsions:
  status: ('A' for Active; 'I' for Inactive)
    1  A    between atoms: C_9  and  C_15
                            x       y       z     vdW  Elec       q    Type
                         _______ _______ _______ _____ _____    ______ ____

>  <TORSDO>
F 1

$$$$
=
 OpenBabel11052413433D

 27 32  0  0  1  0  0  0  0  0999 V2000
  189.0540  178.6280  138.9770 C   0  0  0  0  0  2  0  0  0  0  0  0
  187.1500  178.1250  140.6280 C   0  0  0  0  0  0  0  0  0  0  0  0
  188.7600  177.0390  142.2220 C   0  0  2  0  0  3  0  0  0  0  0  0
  184.5740  179.6450  143.7310 C   0  0  0  0  0  3  0  0  0  0  0  0
  185.0430  178.3680  145.8440 C   0  0  0  0  0  3  0  0  0  0  0  0
  186.1230  178.9530  140.4300 C   0  0  0  0  0  3  0  0  0  0  0  0
  186.7710  177.4630  144.2480 C   0  0  0  0  0  3  0  0  0  0  0  0
  190.9450  176.9520  143.3530 C   0  0  0  0  0  3  0  0  0  0  0  0
  186.0430  177.5630  145.5160 C   0  0  0  0  0  3  0  0  0  0  0  0
  191.9670  176.7550  142.4640 C   0  0  0  0  0  3  0  0  0  0  0  0
  186.5840  178.0680  143.0680 C   0  0  0  0  0  0  0  0  0  0  0  0
  187.9720  177.6350  139.4390 C   0  0  1  0  0  3  0  0  0  0  0  0
  184.3870  179.3780  145.0170 C   0  0  0  0  0  3  0  0  0  0  0  0
  185.4860  179.0290  142.7590 C   0  0  0  0  0  0  0  0  0  0  0  0
  190.4780  178.0540  139.1370 C   0  0  0  0  0  2  0  0  0  0  0  0
  187.4910  177.7410  141.9880 N   0  0  0  0  0  0  0  0  0  0  0  0
  189.6770  177.7230  143.0020 C   0  0  1  0  0  3  0  0  0  0  0  0
  185.3250  179.4140  141.5270 N   0  0  0  0  0  0  0  0  0  0  0  0
  191.9180  177.2060  141.0210 C   0  0  0  0  0  3  0  0  0  0  0  0
  190.8060  177.7940  140.5760 C   0  0  0  0  0  0  0  0  0  0  0  0
  189.8030  177.8500  141.5400 N   0  0  0  0  0  0  0  0  0  0  0  0
  185.5880  176.1470  136.2200 C   0  0  0  0  0  3  0  0  0  0  0  0
  187.1440  177.1230  138.3020 C   0  0  0  0  0  0  0  0  0  0  0  0
  187.5700  175.9960  137.5940 C   0  0  0  0  0  3  0  0  0  0  0  0
  186.7860  175.5090  136.5470 C   0  0  0  0  0  3  0  0  0  0  0  0
  185.1900  177.2680  136.9540 C   0  0  0  0  0  3  0  0  0  0  0  0
  185.9680  177.7270  137.9710 N   0  0  0  0  0  0  0  0  0  0  0  0
  1 15  1  0  0  0  0
  1 12  1  0  0  0  0
  2 16  1  0  0  0  0
  3 21  1  6  0  0  0
  3 17  1  0  0  0  0
  4 13  2  0  0  0  0
  6  2  2  0  0  0  0
  6 18  1  0  0  0  0
  7  9  1  0  0  0  0
  9  5  2  0  0  0  0
 10  8  2  0  0  0  0
 11  7  2  0  0  0  0
 12 23  1  6  0  0  0
 12  2  1  0  0  0  0
 13  5  1  0  0  0  0
 14 11  1  0  0  0  0
 14  4  1  0  0  0  0
 15 20  1  0  0  0  0
 16  3  1  0  0  0  0
 16 11  1  0  0  0  0
 17  8  1  6  0  0  0
 18 14  2  0  0  0  0
 19 10  1  0  0  0  0
 20 19  2  0  0  0  0
 20 21  1  0  0  0  0
 21 17  1  0  0  0  0
 22 25  2  0  0  0  0
 22 26  1  0  0  0  0
 24 23  2  0  0  0  0
 25 24  1  0  0  0  0
 26 27  2  0  0  0  0
 27 23  1  0  0  0  0
M  END
>  <MODEL>
5

>  <REMARK>
 VINA RESULT:      -7.3      2.605      3.926
  Name = 
  1 active torsions:
  status: ('A' for Active; 'I' for Inactive)
    1  A    between atoms: C_9  and  C_15
                            x       y       z     vdW  Elec       q    Type
                         _______ _______ _______ _____ _____    ______ ____

>  <TORSDO>
F 1

$$$$
=
 OpenBabel11052413433D

 27 32  0  0  1  0  0  0  0  0999 V2000
  190.8410  178.5260  142.3460 C   0  0  0  0  0  2  0  0  0  0  0  0
  188.2990  178.1450  142.4100 C   0  0  0  0  0  0  0  0  0  0  0  0
  188.4750  177.0510  144.6640 C   0  0  2  0  0  3  0  0  0  0  0  0
  184.4170  179.8560  143.1650 C   0  0  0  0  0  3  0  0  0  0  0  0
  183.3730  178.6290  145.0940 C   0  0  0  0  0  3  0  0  0  0  0  0
  187.6740  179.0040  141.6030 C   0  0  0  0  0  3  0  0  0  0  0  0
  185.6760  177.6110  144.9620 C   0  0  0  0  0  3  0  0  0  0  0  0
  189.4360  176.9180  146.9260 C   0  0  0  0  0  3  0  0  0  0  0  0
  184.3140  177.7780  145.4780 C   0  0  0  0  0  3  0  0  0  0  0  0
  190.7800  176.6540  146.8910 C   0  0  0  0  0  3  0  0  0  0  0  0
  186.3100  178.1850  143.9330 C   0  0  0  0  0  0  0  0  0  0  0  0
  189.6640  177.5880  142.0150 C   0  0  1  0  0  3  0  0  0  0  0  0
  183.4420  179.6370  144.0380 C   0  0  0  0  0  3  0  0  0  0  0  0
  185.7070  179.1770  142.9950 C   0  0  0  0  0  0  0  0  0  0  0  0
  191.8090  177.9040  143.3760 C   0  0  0  0  0  2  0  0  0  0  0  0
  187.6790  177.7920  143.6760 N   0  0  0  0  0  0  0  0  0  0  0  0
  188.7190  177.7240  145.8490 C   0  0  1  0  0  3  0  0  0  0  0  0
  186.3850  179.5290  141.9420 N   0  0  0  0  0  0  0  0  0  0  0  0
  191.6800  177.0620  145.7460 C   0  0  0  0  0  3  0  0  0  0  0  0
  191.1340  177.6770  144.6950 C   0  0  0  0  0  0  0  0  0  0  0  0
  189.7510  177.8010  144.8010 N   0  0  0  0  0  0  0  0  0  0  0  0
  189.8220  176.0770  138.0220 C   0  0  0  0  0  3  0  0  0  0  0  0
  189.7240  177.0720  140.6110 C   0  0  0  0  0  0  0  0  0  0  0  0
  190.9090  176.5020  140.1380 C   0  0  0  0  0  3  0  0  0  0  0  0
  190.9550  176.0040  138.8350 C   0  0  0  0  0  3  0  0  0  0  0  0
  188.6530  176.6490  138.5300 C   0  0  0  0  0  3  0  0  0  0  0  0
  188.6280  177.1290  139.8030 N   0  0  0  0  0  0  0  0  0  0  0  0
  1 15  1  0  0  0  0
  2 16  1  0  0  0  0
  3 16  1  6  0  0  0
  3 21  1  0  0  0  0
  3 17  1  0  0  0  0
  4 13  2  0  0  0  0
  5  9  2  0  0  0  0
  6 18  1  0  0  0  0
  6  2  2  0  0  0  0
  7  9  1  0  0  0  0
 10  8  2  0  0  0  0
 11  7  2  0  0  0  0
 12 23  1  6  0  0  0
 12  1  1  0  0  0  0
 12  2  1  0  0  0  0
 13  5  1  0  0  0  0
 14  4  1  0  0  0  0
 14 11  1  0  0  0  0
 15 20  1  0  0  0  0
 16 11  1  0  0  0  0
 17  8  1  1  0  0  0
 18 14  2  0  0  0  0
 19 10  1  0  0  0  0
 20 21  1  0  0  0  0
 20 19  2  0  0  0  0
 21 17  1  0  0  0  0
 22 26  2  0  0  0  0
 22 25  1  0  0  0  0
 24 23  1  0  0  0  0
 25 24  2  0  0  0  0
 26 27  1  0  0  0  0
 27 23  2  0  0  0  0
M  END
>  <MODEL>
6

>  <REMARK>
 VINA RESULT:      -7.3      2.993      5.906
  Name = 
  1 active torsions:
  status: ('A' for Active; 'I' for Inactive)
    1  A    between atoms: C_9  and  C_15
                            x       y       z     vdW  Elec       q    Type
                         _______ _______ _______ _____ _____    ______ ____

>  <TORSDO>
F 1

$$$$
=
 OpenBabel11052413433D

 27 32  0  0  1  0  0  0  0  0999 V2000
  181.7790  179.1160  141.6080 C   0  0  0  0  0  2  0  0  0  0  0  0
  183.7610  178.0990  140.3240 C   0  0  0  0  0  0  0  0  0  0  0  0
  182.3080  176.2370  139.4690 C   0  0  2  0  0  3  0  0  0  0  0  0
  186.2280  178.2530  136.7940 C   0  0  0  0  0  3  0  0  0  0  0  0
  185.9420  176.0980  135.5350 C   0  0  0  0  0  3  0  0  0  0  0  0
  184.6900  179.0250  140.0830 C   0  0  0  0  0  3  0  0  0  0  0  0
  184.2850  175.8690  137.4200 C   0  0  0  0  0  3  0  0  0  0  0  0
  180.1700  175.4080  138.5750 C   0  0  0  0  0  3  0  0  0  0  0  0
  185.0250  175.4400  136.2300 C   0  0  0  0  0  3  0  0  0  0  0  0
  179.1550  175.5430  139.4840 C   0  0  0  0  0  3  0  0  0  0  0  0
  184.3820  176.9690  138.1760 C   0  0  0  0  0  0  0  0  0  0  0  0
  182.9700  178.1390  141.6290 C   0  0  1  0  0  3  0  0  0  0  0  0
  186.4710  177.4380  135.7760 C   0  0  0  0  0  3  0  0  0  0  0  0
  185.3660  178.0710  137.9680 C   0  0  0  0  0  0  0  0  0  0  0  0
  180.4270  178.3900  141.7760 C   0  0  0  0  0  2  0  0  0  0  0  0
  183.4920  177.0930  139.3110 N   0  0  0  0  0  0  0  0  0  0  0  0
  181.3420  176.3790  138.4880 C   0  0  1  0  0  3  0  0  0  0  0  0
  185.4580  179.0010  138.8740 N   0  0  0  0  0  0  0  0  0  0  0  0
  179.1250  176.6170  140.5490 C   0  0  0  0  0  3  0  0  0  0  0  0
  180.1600  177.4560  140.6340 C   0  0  0  0  0  0  0  0  0  0  0  0
  181.1710  177.1600  139.7250 N   0  0  0  0  0  0  0  0  0  0  0  0
  185.3900  178.5740  145.1230 C   0  0  0  0  0  3  0  0  0  0  0  0
  183.8220  178.3050  142.8480 C   0  0  0  0  0  0  0  0  0  0  0  0
  183.2700  178.8670  144.0020 C   0  0  0  0  0  3  0  0  0  0  0  0
  184.0610  179.0030  145.1430 C   0  0  0  0  0  3  0  0  0  0  0  0
  185.9070  178.0110  143.9530 C   0  0  0  0  0  3  0  0  0  0  0  0
  185.1200  177.8870  142.8510 N   0  0  0  0  0  0  0  0  0  0  0  0
  1 12  1  0  0  0  0
  1 15  1  0  0  0  0
  2 12  1  0  0  0  0
  3 16  1  6  0  0  0
  3 21  1  0  0  0  0
  4 14  1  0  0  0  0
  5 13  1  0  0  0  0
  5  9  2  0  0  0  0
  6  2  2  0  0  0  0
  7 11  2  0  0  0  0
  8 10  2  0  0  0  0
  9  7  1  0  0  0  0
 10 19  1  0  0  0  0
 11 16  1  0  0  0  0
 12 23  1  1  0  0  0
 13  4  2  0  0  0  0
 14 11  1  0  0  0  0
 14 18  2  0  0  0  0
 16  2  1  0  0  0  0
 17  8  1  1  0  0  0
 17  3  1  0  0  0  0
 17 21  1  0  0  0  0
 18  6  1  0  0  0  0
 19 20  2  0  0  0  0
 20 15  1  0  0  0  0
 21 20  1  0  0  0  0
 22 25  1  0  0  0  0
 23 27  2  0  0  0  0
 23 24  1  0  0  0  0
 24 25  2  0  0  0  0
 26 22  2  0  0  0  0
 27 26  1  0  0  0  0
M  END
>  <MODEL>
7

>  <REMARK>
 VINA RESULT:      -7.2      2.049      7.135
  Name = 
  1 active torsions:
  status: ('A' for Active; 'I' for Inactive)
    1  A    between atoms: C_9  and  C_15
                            x       y       z     vdW  Elec       q    Type
                         _______ _______ _______ _____ _____    ______ ____

>  <TORSDO>
F 1

$$$$
=
 OpenBabel11052413433D

 27 32  0  0  1  0  0  0  0  0999 V2000
  188.6570  177.6380  135.8660 C   0  0  0  0  0  2  0  0  0  0  0  0
  188.3620  177.1760  138.3780 C   0  0  0  0  0  0  0  0  0  0  0  0
  190.5200  175.8900  138.4390 C   0  0  2  0  0  3  0  0  0  0  0  0
  188.7580  178.6930  142.3920 C   0  0  0  0  0  3  0  0  0  0  0  0
  190.4270  177.2680  143.6160 C   0  0  0  0  0  3  0  0  0  0  0  0
  187.5580  178.0840  138.9330 C   0  0  0  0  0  3  0  0  0  0  0  0
  190.5040  176.3360  141.2740 C   0  0  0  0  0  3  0  0  0  0  0  0
  192.8660  175.5850  137.7620 C   0  0  0  0  0  3  0  0  0  0  0  0
  190.8530  176.4140  142.6960 C   0  0  0  0  0  3  0  0  0  0  0  0
  192.9810  175.3670  136.4150 C   0  0  0  0  0  3  0  0  0  0  0  0
  189.6170  177.0190  140.5410 C   0  0  0  0  0  0  0  0  0  0  0  0
  188.0990  176.6980  136.9520 C   0  0  1  0  0  3  0  0  0  0  0  0
  189.4780  178.3670  143.4580 C   0  0  0  0  0  3  0  0  0  0  0  0
  188.6970  178.0710  141.0630 C   0  0  0  0  0  0  0  0  0  0  0  0
  189.7450  176.9560  135.0090 C   0  0  0  0  0  2  0  0  0  0  0  0
  189.5040  176.6920  139.1350 N   0  0  0  0  0  0  0  0  0  0  0  0
  191.7780  176.4620  138.3720 C   0  0  1  0  0  3  0  0  0  0  0  0
  187.7730  178.5370  140.2750 N   0  0  0  0  0  0  0  0  0  0  0  0
  191.9990  175.9020  135.3970 C   0  0  0  0  0  3  0  0  0  0  0  0
  190.9430  176.5920  135.8330 C   0  0  0  0  0  0  0  0  0  0  0  0
  190.8820  176.6640  137.2220 N   0  0  0  0  0  0  0  0  0  0  0  0
  184.0480  175.5760  136.1880 C   0  0  0  0  0  3  0  0  0  0  0  0
  186.6760  176.3120  136.6970 C   0  0  0  0  0  0  0  0  0  0  0  0
  185.8700  177.1390  135.9090 C   0  0  0  0  0  3  0  0  0  0  0  0
  184.5490  176.7660  135.6570 C   0  0  0  0  0  3  0  0  0  0  0  0
  184.8840  174.7710  136.9660 C   0  0  0  0  0  3  0  0  0  0  0  0
  186.1690  175.1520  137.2010 N   0  0  0  0  0  0  0  0  0  0  0  0
  1 12  1  0  0  0  0
  2  6  2  0  0  0  0
  2 16  1  0  0  0  0
  3 21  1  6  0  0  0
  3 16  1  0  0  0  0
  4 13  2  0  0  0  0
  6 18  1  0  0  0  0
  7  9  1  0  0  0  0
  9  5  2  0  0  0  0
 10  8  2  0  0  0  0
 11 14  1  0  0  0  0
 11  7  2  0  0  0  0
 12 23  1  6  0  0  0
 12  2  1  0  0  0  0
 13  5  1  0  0  0  0
 14  4  1  0  0  0  0
 15 20  1  0  0  0  0
 15  1  1  0  0  0  0
 16 11  1  0  0  0  0
 17  8  1  6  0  0  0
 17  3  1  0  0  0  0
 18 14  2  0  0  0  0
 19 20  2  0  0  0  0
 19 10  1  0  0  0  0
 20 21  1  0  0  0  0
 21 17  1  0  0  0  0
 22 26  1  0  0  0  0
 23 27  1  0  0  0  0
 24 23  2  0  0  0  0
 25 24  1  0  0  0  0
 25 22  2  0  0  0  0
 26 27  2  0  0  0  0
M  END
>  <MODEL>
8

>  <REMARK>
 VINA RESULT:      -6.8      3.897      5.470
  Name = 
  1 active torsions:
  status: ('A' for Active; 'I' for Inactive)
    1  A    between atoms: C_9  and  C_15
                            x       y       z     vdW  Elec       q    Type
                         _______ _______ _______ _____ _____    ______ ____

>  <TORSDO>
F 1

$$$$
=
 OpenBabel11052413433D

 27 32  0  0  1  0  0  0  0  0999 V2000
  188.0910  178.5990  139.8220 C   0  0  0  0  0  2  0  0  0  0  0  0
  189.9810  176.8810  139.5270 C   0  0  0  0  0  0  0  0  0  0  0  0
  188.6750  175.6850  137.7450 C   0  0  2  0  0  3  0  0  0  0  0  0
  193.8210  176.0120  137.7750 C   0  0  0  0  0  3  0  0  0  0  0  0
  193.5450  174.0970  136.1720 C   0  0  0  0  0  3  0  0  0  0  0  0
  191.1430  177.3820  139.9500 C   0  0  0  0  0  3  0  0  0  0  0  0
  191.1790  174.5530  136.9140 C   0  0  0  0  0  3  0  0  0  0  0  0
  187.1960  175.7050  135.7780 C   0  0  0  0  0  3  0  0  0  0  0  0
  192.2430  173.8500  136.1910 C   0  0  0  0  0  3  0  0  0  0  0  0
  185.9680  176.2340  136.0730 C   0  0  0  0  0  3  0  0  0  0  0  0
  191.2220  175.5520  137.8040 C   0  0  0  0  0  0  0  0  0  0  0  0
  188.6880  177.2450  140.2520 C   0  0  1  0  0  3  0  0  0  0  0  0
  194.2760  175.1430  136.8810 C   0  0  0  0  0  3  0  0  0  0  0  0
  192.4680  176.1960  138.3130 C   0  0  0  0  0  0  0  0  0  0  0  0
  186.7030  178.4400  139.1650 C   0  0  0  0  0  2  0  0  0  0  0  0
  189.9690  176.0280  138.3500 N   0  0  0  0  0  0  0  0  0  0  0  0
  188.4820  176.1600  136.4590 C   0  0  1  0  0  3  0  0  0  0  0  0
  192.3730  177.0420  139.2970 N   0  0  0  0  0  0  0  0  0  0  0  0
  185.7410  177.2640  137.1570 C   0  0  0  0  0  3  0  0  0  0  0  0
  186.7850  177.6520  137.8940 C   0  0  0  0  0  0  0  0  0  0  0  0
  187.9570  176.9750  137.5670 N   0  0  0  0  0  0  0  0  0  0  0  0
  188.8930  176.8100  144.4980 C   0  0  0  0  0  3  0  0  0  0  0  0
  188.7690  177.1040  141.7400 C   0  0  0  0  0  0  0  0  0  0  0  0
  187.8340  177.7610  142.5450 C   0  0  0  0  0  3  0  0  0  0  0  0
  187.9010  177.6130  143.9310 C   0  0  0  0  0  3  0  0  0  0  0  0
  189.8070  176.1640  143.6620 C   0  0  0  0  0  3  0  0  0  0  0  0
  189.7260  176.3210  142.3130 N   0  0  0  0  0  0  0  0  0  0  0  0
  1 12  1  0  0  0  0
  2  6  2  0  0  0  0
  2 12  1  0  0  0  0
  3 21  1  1  0  0  0
  3 16  1  0  0  0  0
  4 14  1  0  0  0  0
  5  9  2  0  0  0  0
  5 13  1  0  0  0  0
  7 11  2  0  0  0  0
  8 10  2  0  0  0  0
  9  7  1  0  0  0  0
 10 19  1  0  0  0  0
 11 14  1  0  0  0  0
 11 16  1  0  0  0  0
 12 23  1  1  0  0  0
 13  4  2  0  0  0  0
 14 18  2  0  0  0  0
 15  1  1  0  0  0  0
 16  2  1  0  0  0  0
 17  8  1  6  0  0  0
 17 21  1  0  0  0  0
 17  3  1  0  0  0  0
 18  6  1  0  0  0  0
 19 20  2  0  0  0  0
 20 15  1  0  0  0  0
 21 20  1  0  0  0  0
 23 27  2  0  0  0  0
 23 24  1  0  0  0  0
 24 25  2  0  0  0  0
 25 22  1  0  0  0  0
 26 22  2  0  0  0  0
 27 26  1  0  0  0  0
M  END
>  <MODEL>
9

>  <REMARK>
 VINA RESULT:      -6.7      3.765      7.958
  Name = 
  1 active torsions:
  status: ('A' for Active; 'I' for Inactive)
    1  A    between atoms: C_9  and  C_15
                            x       y       z     vdW  Elec       q    Type
                         _______ _______ _______ _____ _____    ______ ____

>  <TORSDO>
F 1

$$$$
