=
 OpenBabel11052413443D

 27 31  0  0  1  0  0  0  0  0999 V2000
  187.1430  178.5510  141.7060 C   0  0  0  0  0  3  0  0  0  0  0  0
  187.4950  177.8860  144.1150 C   0  0  0  0  0  0  0  0  0  0  0  0
  189.3970  176.8420  142.7800 C   0  0  0  0  0  3  0  0  0  0  0  0
  189.9700  177.0670  147.7280 S   0  0  0  0  0  0  0  0  0  0  0  0
  192.4310  175.8010  147.2290 C   0  0  0  0  0  1  0  0  0  0  0  0
  186.9820  178.2710  145.3750 C   0  0  0  0  0  3  0  0  0  0  0  0
  190.7370  176.4350  145.4140 C   0  0  0  0  0  0  0  0  0  0  0  0
  190.2330  177.2370  139.3070 C   0  0  0  0  0  3  0  0  0  0  0  0
  191.5130  175.9400  144.3700 O   0  0  0  0  0  1  0  0  0  0  0  0
  189.3540  178.2320  138.8920 C   0  0  0  0  0  0  0  0  0  0  0  0
  189.4720  177.0390  145.2470 C   0  0  0  0  0  0  0  0  0  0  0  0
  186.6610  178.0560  142.9600 N   0  0  0  0  0  0  0  0  0  0  0  0
  191.1490  176.3780  146.7420 C   0  0  0  0  0  0  0  0  0  0  0  0
  188.9290  177.4410  146.4630 C   0  0  0  0  0  0  0  0  0  0  0  0
  188.2540  178.1870  141.0660 C   0  0  0  0  0  0  0  0  0  0  0  0
  188.7680  177.2680  144.0400 C   0  0  0  0  0  0  0  0  0  0  0  0
  190.1620  176.7530  140.6130 C   0  0  0  0  0  3  0  0  0  0  0  0
  187.6950  178.0600  146.5560 C   0  0  0  0  0  3  0  0  0  0  0  0
  189.4310  178.7240  137.6330 F   0  0  0  0  0  0  0  0  0  0  0  0
  188.3660  178.6890  139.7630 C   0  0  0  0  0  3  0  0  0  0  0  0
  189.2090  177.2380  141.5190 C   0  0  0  0  0  0  0  0  0  0  0  0
  182.4730  178.6280  143.2950 C   0  0  0  0  0  2  0  0  0  0  0  0
  185.2070  178.0090  143.1390 C   0  0  2  0  0  3  0  0  0  0  0  0
  184.4700  178.0830  141.7860 C   0  0  0  0  0  2  0  0  0  0  0  0
  183.0300  178.6280  141.8700 C   0  0  0  0  0  2  0  0  0  0  0  0
  183.4340  179.3360  144.2050 C   0  0  0  0  0  3  0  0  0  0  0  0
  184.7370  179.0500  144.1250 C   0  0  0  0  0  3  0  0  0  0  0  0
  1 12  1  0  0  0  0
  2  6  1  0  0  0  0
  3 16  1  0  0  0  0
  6 18  2  0  0  0  0
  7 13  2  0  0  0  0
  8 17  2  0  0  0  0
  9  7  1  0  0  0  0
 10  8  1  0  0  0  0
 10 20  2  0  0  0  0
 11  7  1  0  0  0  0
 11 14  2  0  0  0  0
 12 23  1  0  0  0  0
 12  2  1  0  0  0  0
 13  5  1  0  0  0  0
 13  4  1  0  0  0  0
 14 18  1  0  0  0  0
 14  4  1  0  0  0  0
 15 21  1  0  0  0  0
 15  1  2  0  0  0  0
 16  2  2  0  0  0  0
 16 11  1  0  0  0  0
 17 21  1  0  0  0  0
 19 10  1  0  0  0  0
 20 15  1  0  0  0  0
 21  3  2  0  0  0  0
 22 26  1  0  0  0  0
 23 24  1  6  0  0  0
 23 27  1  0  0  0  0
 24 25  1  0  0  0  0
 25 22  1  0  0  0  0
 27 26  2  0  0  0  0
M  END
>  <MODEL>
1

>  <REMARK>
 VINA RESULT:     -10.8      0.000      0.000
  Name = 
  1 active torsions:
  status: ('A' for Active; 'I' for Inactive)
    1  A    between atoms: C_9  and  N_15
                            x       y       z     vdW  Elec       q    Type
                         _______ _______ _______ _____ _____    ______ ____

>  <TORSDO>
F 1

$$$$
=
 OpenBabel11052413443D

 27 31  0  0  1  0  0  0  0  0999 V2000
  186.5350  178.7970  140.4310 C   0  0  0  0  0  3  0  0  0  0  0  0
  185.5980  178.7210  142.7730 C   0  0  0  0  0  0  0  0  0  0  0  0
  187.7490  177.3570  142.7980 C   0  0  0  0  0  3  0  0  0  0  0  0
  185.9060  178.7490  147.2170 S   0  0  0  0  0  0  0  0  0  0  0  0
  188.1120  177.3590  148.2710 C   0  0  0  0  0  1  0  0  0  0  0  0
  184.6000  179.4050  143.5060 C   0  0  0  0  0  3  0  0  0  0  0  0
  187.5960  177.5690  145.7700 C   0  0  0  0  0  0  0  0  0  0  0  0
  190.1910  176.8970  140.2020 C   0  0  0  0  0  3  0  0  0  0  0  0
  188.7040  176.8260  145.3720 O   0  0  0  0  0  1  0  0  0  0  0  0
  189.7590  177.7790  139.2160 C   0  0  0  0  0  0  0  0  0  0  0  0
  186.6580  178.1370  144.8800 C   0  0  0  0  0  0  0  0  0  0  0  0
  185.4500  178.6240  141.3490 N   0  0  0  0  0  0  0  0  0  0  0  0
  187.3100  177.8240  147.1080 C   0  0  0  0  0  0  0  0  0  0  0  0
  185.6580  178.8260  145.5580 C   0  0  0  0  0  0  0  0  0  0  0  0
  187.7570  178.2730  140.5140 C   0  0  0  0  0  0  0  0  0  0  0  0
  186.6560  178.0820  143.4650 C   0  0  0  0  0  0  0  0  0  0  0  0
  189.4390  176.7400  141.3660 C   0  0  0  0  0  3  0  0  0  0  0  0
  184.6250  179.4700  144.8990 C   0  0  0  0  0  3  0  0  0  0  0  0
  190.4940  177.9540  138.0930 F   0  0  0  0  0  0  0  0  0  0  0  0
  188.5450  178.4470  139.3690 C   0  0  0  0  0  3  0  0  0  0  0  0
  188.2430  177.4440  141.5610 C   0  0  0  0  0  0  0  0  0  0  0  0
  181.8450  178.4110  139.1260 C   0  0  0  0  0  2  0  0  0  0  0  0
  184.0970  178.6460  140.7870 C   0  0  2  0  0  3  0  0  0  0  0  0
  183.5140  177.2230  140.6650 C   0  0  0  0  0  2  0  0  0  0  0  0
  182.4180  177.0700  139.5920 C   0  0  0  0  0  2  0  0  0  0  0  0
  182.9700  179.3120  138.7080 C   0  0  0  0  0  3  0  0  0  0  0  0
  184.0460  179.4190  139.4920 C   0  0  0  0  0  3  0  0  0  0  0  0
  1 15  2  0  0  0  0
  1 12  1  0  0  0  0
  2 16  2  0  0  0  0
  2  6  1  0  0  0  0
  3 16  1  0  0  0  0
  6 18  2  0  0  0  0
  7 13  2  0  0  0  0
  8 17  2  0  0  0  0
  9  7  1  0  0  0  0
 10 20  2  0  0  0  0
 10  8  1  0  0  0  0
 11 14  2  0  0  0  0
 11  7  1  0  0  0  0
 12  2  1  0  0  0  0
 13  4  1  0  0  0  0
 13  5  1  0  0  0  0
 14  4  1  0  0  0  0
 15 21  1  0  0  0  0
 16 11  1  0  0  0  0
 17 21  1  0  0  0  0
 18 14  1  0  0  0  0
 19 10  1  0  0  0  0
 20 15  1  0  0  0  0
 21  3  2  0  0  0  0
 22 25  1  0  0  0  0
 23 27  1  6  0  0  0
 23 12  1  0  0  0  0
 24 23  1  0  0  0  0
 25 24  1  0  0  0  0
 26 22  1  0  0  0  0
 26 27  2  0  0  0  0
M  END
>  <MODEL>
2

>  <REMARK>
 VINA RESULT:     -10.3      2.026      2.997
  Name = 
  1 active torsions:
  status: ('A' for Active; 'I' for Inactive)
    1  A    between atoms: C_9  and  N_15
                            x       y       z     vdW  Elec       q    Type
                         _______ _______ _______ _____ _____    ______ ____

>  <TORSDO>
F 1

$$$$
=
 OpenBabel11052413443D

 27 31  0  0  1  0  0  0  0  0999 V2000
  188.9470  177.1470  142.5760 C   0  0  0  0  0  3  0  0  0  0  0  0
  186.6330  178.0770  142.9570 C   0  0  0  0  0  0  0  0  0  0  0  0
  187.2580  178.6280  140.5500 C   0  0  0  0  0  3  0  0  0  0  0  0
  182.4390  179.0030  141.7740 S   0  0  0  0  0  0  0  0  0  0  0  0
  182.1010  179.8030  139.0990 C   0  0  0  0  0  1  0  0  0  0  0  0
  185.6200  177.9510  143.9370 C   0  0  0  0  0  3  0  0  0  0  0  0
  184.3550  179.1870  140.1500 C   0  0  0  0  0  0  0  0  0  0  0  0
  190.1470  177.6360  138.6580 C   0  0  0  0  0  3  0  0  0  0  0  0
  185.0780  179.4110  138.9820 O   0  0  0  0  0  1  0  0  0  0  0  0
  190.7780  176.7370  139.5120 C   0  0  0  0  0  0  0  0  0  0  0  0
  184.9250  178.7640  141.3700 C   0  0  0  0  0  0  0  0  0  0  0  0
  187.9960  177.8770  143.3570 N   0  0  0  0  0  0  0  0  0  0  0  0
  182.9760  179.3640  140.2190 C   0  0  0  0  0  0  0  0  0  0  0  0
  183.9630  178.6200  142.3650 C   0  0  0  0  0  0  0  0  0  0  0  0
  189.1640  177.2470  141.2650 C   0  0  0  0  0  0  0  0  0  0  0  0
  186.2850  178.4800  141.6440 C   0  0  0  0  0  0  0  0  0  0  0  0
  188.9970  178.3010  139.0830 C   0  0  0  0  0  3  0  0  0  0  0  0
  184.2800  178.2130  143.6490 C   0  0  0  0  0  3  0  0  0  0  0  0
  191.8830  176.0710  139.1010 F   0  0  0  0  0  0  0  0  0  0  0  0
  190.2960  176.5590  140.8080 C   0  0  0  0  0  3  0  0  0  0  0  0
  188.4660  178.0950  140.3630 C   0  0  0  0  0  0  0  0  0  0  0  0
  189.0560  177.9890  147.4620 C   0  0  0  0  0  2  0  0  0  0  0  0
  188.3620  178.1660  144.7470 C   0  0  2  0  0  3  0  0  0  0  0  0
  189.8350  177.8040  145.0280 C   0  0  0  0  0  2  0  0  0  0  0  0
  190.1490  177.5030  146.5070 C   0  0  0  0  0  2  0  0  0  0  0  0
  187.7280  177.4530  147.0120 C   0  0  0  0  0  3  0  0  0  0  0  0
  187.4010  177.5270  145.7180 C   0  0  0  0  0  3  0  0  0  0  0  0
  1 12  1  0  0  0  0
  2 12  1  0  0  0  0
  2  6  1  0  0  0  0
  3 16  1  0  0  0  0
  4 14  1  0  0  0  0
  5 13  1  0  0  0  0
  7 13  2  0  0  0  0
  7 11  1  0  0  0  0
  8 17  2  0  0  0  0
  8 10  1  0  0  0  0
  9  7  1  0  0  0  0
 10 20  2  0  0  0  0
 11 16  1  0  0  0  0
 11 14  2  0  0  0  0
 13  4  1  0  0  0  0
 14 18  1  0  0  0  0
 15  1  2  0  0  0  0
 16  2  2  0  0  0  0
 17 21  1  0  0  0  0
 18  6  2  0  0  0  0
 19 10  1  0  0  0  0
 20 15  1  0  0  0  0
 21  3  2  0  0  0  0
 21 15  1  0  0  0  0
 23 12  1  6  0  0  0
 23 24  1  0  0  0  0
 23 27  1  0  0  0  0
 24 25  1  0  0  0  0
 25 22  1  0  0  0  0
 26 22  1  0  0  0  0
 27 26  2  0  0  0  0
M  END
>  <MODEL>
3

>  <REMARK>
 VINA RESULT:      -9.5      2.913      6.000
  Name = 
  1 active torsions:
  status: ('A' for Active; 'I' for Inactive)
    1  A    between atoms: C_9  and  N_15
                            x       y       z     vdW  Elec       q    Type
                         _______ _______ _______ _____ _____    ______ ____

>  <TORSDO>
F 1

$$$$
=
 OpenBabel11052413443D

 27 31  0  0  1  0  0  0  0  0999 V2000
  185.2600  178.0180  141.5260 C   0  0  0  0  0  3  0  0  0  0  0  0
  187.2670  177.8350  143.0440 C   0  0  0  0  0  0  0  0  0  0  0  0
  185.3740  178.8070  144.4450 C   0  0  0  0  0  3  0  0  0  0  0  0
  189.3020  176.9830  146.9150 S   0  0  0  0  0  0  0  0  0  0  0  0
  187.8920  177.7910  149.2100 C   0  0  0  0  0  1  0  0  0  0  0  0
  188.5330  177.2050  143.0080 C   0  0  0  0  0  3  0  0  0  0  0  0
  187.0510  178.1070  146.8100 C   0  0  0  0  0  0  0  0  0  0  0  0
  181.9230  179.3110  143.5800 C   0  0  0  0  0  3  0  0  0  0  0  0
  185.8620  178.7190  147.1960 O   0  0  0  0  0  1  0  0  0  0  0  0
  181.8260  178.6960  142.3360 C   0  0  0  0  0  0  0  0  0  0  0  0
  187.4210  177.8630  145.4700 C   0  0  0  0  0  0  0  0  0  0  0  0
  186.6520  178.2020  141.8010 N   0  0  0  0  0  0  0  0  0  0  0  0
  188.0000  177.6730  147.7310 C   0  0  0  0  0  0  0  0  0  0  0  0
  188.6600  177.2370  145.3840 C   0  0  0  0  0  0  0  0  0  0  0  0
  184.2320  178.3150  142.3210 C   0  0  0  0  0  0  0  0  0  0  0  0
  186.6890  178.1640  144.2960 C   0  0  0  0  0  0  0  0  0  0  0  0
  183.1590  179.3820  144.2210 C   0  0  0  0  0  3  0  0  0  0  0  0
  189.2350  176.8940  144.1720 C   0  0  0  0  0  3  0  0  0  0  0  0
  180.6260  178.6020  141.7160 F   0  0  0  0  0  0  0  0  0  0  0  0
  182.9760  178.2170  141.7100 C   0  0  0  0  0  3  0  0  0  0  0  0
  184.3170  178.8580  143.6310 C   0  0  0  0  0  0  0  0  0  0  0  0
  189.0830  178.3510  138.3290 C   0  0  0  0  0  2  0  0  0  0  0  0
  187.5200  178.4970  140.6570 C   0  0  2  0  0  3  0  0  0  0  0  0
  186.7290  178.4860  139.3320 C   0  0  0  0  0  2  0  0  0  0  0  0
  187.5810  178.1930  138.0810 C   0  0  0  0  0  2  0  0  0  0  0  0
  189.4780  177.5350  139.5250 C   0  0  0  0  0  3  0  0  0  0  0  0
  188.7300  177.5960  140.6310 C   0  0  0  0  0  3  0  0  0  0  0  0
  1 12  1  0  0  0  0
  1 15  2  0  0  0  0
  2 16  1  0  0  0  0
  4 13  1  0  0  0  0
  6  2  2  0  0  0  0
  6 18  1  0  0  0  0
  7  9  1  0  0  0  0
  7 13  2  0  0  0  0
  8 17  2  0  0  0  0
 10  8  1  0  0  0  0
 11  7  1  0  0  0  0
 12  2  1  0  0  0  0
 13  5  1  0  0  0  0
 14 11  1  0  0  0  0
 14  4  1  0  0  0  0
 15 21  1  0  0  0  0
 16  3  1  0  0  0  0
 16 11  2  0  0  0  0
 18 14  2  0  0  0  0
 19 10  1  0  0  0  0
 20 15  1  0  0  0  0
 20 10  2  0  0  0  0
 21 17  1  0  0  0  0
 21  3  2  0  0  0  0
 22 26  1  0  0  0  0
 23 24  1  6  0  0  0
 23 12  1  0  0  0  0
 25 22  1  0  0  0  0
 25 24  1  0  0  0  0
 26 27  2  0  0  0  0
 27 23  1  0  0  0  0
M  END
>  <MODEL>
4

>  <REMARK>
 VINA RESULT:      -9.5      2.677      5.414
  Name = 
  1 active torsions:
  status: ('A' for Active; 'I' for Inactive)
    1  A    between atoms: C_9  and  N_15
                            x       y       z     vdW  Elec       q    Type
                         _______ _______ _______ _____ _____    ______ ____

>  <TORSDO>
F 1

$$$$
=
 OpenBabel11052413443D

 27 31  0  0  1  0  0  0  0  0999 V2000
  189.7230  176.8620  141.1060 C   0  0  0  0  0  3  0  0  0  0  0  0
  187.5900  177.7750  142.0970 C   0  0  0  0  0  0  0  0  0  0  0  0
  187.6160  178.4690  139.6460 C   0  0  0  0  0  3  0  0  0  0  0  0
  183.2510  178.7850  142.0350 S   0  0  0  0  0  0  0  0  0  0  0  0
  182.2830  179.7470  139.5770 C   0  0  0  0  0  1  0  0  0  0  0  0
  186.8460  177.5940  143.2860 C   0  0  0  0  0  3  0  0  0  0  0  0
  184.7150  179.0610  140.0040 C   0  0  0  0  0  0  0  0  0  0  0  0
  189.9360  177.5840  137.0490 C   0  0  0  0  0  3  0  0  0  0  0  0
  185.1340  179.3530  138.7100 O   0  0  0  0  0  1  0  0  0  0  0  0
  190.7400  176.6330  137.6680 C   0  0  0  0  0  0  0  0  0  0  0  0
  185.5580  178.5630  141.0200 C   0  0  0  0  0  0  0  0  0  0  0  0
  189.0060  177.5470  142.1380 N   0  0  0  0  0  0  0  0  0  0  0  0
  183.3980  179.2380  140.4200 C   0  0  0  0  0  0  0  0  0  0  0  0
  184.8670  178.3620  142.2110 C   0  0  0  0  0  0  0  0  0  0  0  0
  189.6150  177.0410  139.7900 C   0  0  0  0  0  0  0  0  0  0  0  0
  186.9380  178.2580  140.9350 C   0  0  0  0  0  0  0  0  0  0  0  0
  188.9370  178.2260  137.7800 C   0  0  0  0  0  3  0  0  0  0  0  0
  185.4820  177.8770  143.3520 C   0  0  0  0  0  3  0  0  0  0  0  0
  191.6980  175.9880  136.9600 F   0  0  0  0  0  0  0  0  0  0  0  0
  190.5870  176.3780  139.0300 C   0  0  0  0  0  3  0  0  0  0  0  0
  188.7320  177.9440  139.1370 C   0  0  0  0  0  0  0  0  0  0  0  0
  191.6210  177.8980  145.4570 C   0  0  0  0  0  2  0  0  0  0  0  0
  189.7060  177.7500  143.4090 C   0  0  2  0  0  3  0  0  0  0  0  0
  190.6460  178.9720  143.3460 C   0  0  0  0  0  2  0  0  0  0  0  0
  191.8200  178.9300  144.3440 C   0  0  0  0  0  2  0  0  0  0  0  0
  191.3070  176.5630  144.8470 C   0  0  0  0  0  3  0  0  0  0  0  0
  190.4030  176.4920  143.8660 C   0  0  0  0  0  3  0  0  0  0  0  0
  1 12  1  0  0  0  0
  2 12  1  0  0  0  0
  2  6  1  0  0  0  0
  3 16  1  0  0  0  0
  4 14  1  0  0  0  0
  5 13  1  0  0  0  0
  6 18  2  0  0  0  0
  7 13  2  0  0  0  0
  7 11  1  0  0  0  0
  8 10  1  0  0  0  0
  8 17  2  0  0  0  0
  9  7  1  0  0  0  0
 10 20  2  0  0  0  0
 11 14  2  0  0  0  0
 13  4  1  0  0  0  0
 14 18  1  0  0  0  0
 15  1  2  0  0  0  0
 16 11  1  0  0  0  0
 16  2  2  0  0  0  0
 17 21  1  0  0  0  0
 19 10  1  0  0  0  0
 20 15  1  0  0  0  0
 21  3  2  0  0  0  0
 21 15  1  0  0  0  0
 23 12  1  6  0  0  0
 23 27  1  0  0  0  0
 24 23  1  0  0  0  0
 24 25  1  0  0  0  0
 25 22  1  0  0  0  0
 26 22  1  0  0  0  0
 27 26  2  0  0  0  0
M  END
>  <MODEL>
5

>  <REMARK>
 VINA RESULT:      -9.1      3.062      6.279
  Name = 
  1 active torsions:
  status: ('A' for Active; 'I' for Inactive)
    1  A    between atoms: C_9  and  N_15
                            x       y       z     vdW  Elec       q    Type
                         _______ _______ _______ _____ _____    ______ ____

>  <TORSDO>
F 1

$$$$
=
 OpenBabel11052413443D

 27 31  0  0  1  0  0  0  0  0999 V2000
  188.9610  178.0800  143.8640 C   0  0  0  0  0  3  0  0  0  0  0  0
  186.9590  178.2050  142.3320 C   0  0  0  0  0  0  0  0  0  0  0  0
  186.0630  177.7640  144.6760 C   0  0  0  0  0  3  0  0  0  0  0  0
  182.7890  179.3590  141.2710 S   0  0  0  0  0  0  0  0  0  0  0  0
  180.9220  179.1500  143.3630 C   0  0  0  0  0  1  0  0  0  0  0  0
  186.7000  178.6260  141.0070 C   0  0  0  0  0  3  0  0  0  0  0  0
  183.4100  178.5790  143.5840 C   0  0  0  0  0  0  0  0  0  0  0  0
  187.8230  177.6450  147.8070 C   0  0  0  0  0  3  0  0  0  0  0  0
  183.3160  178.2220  144.9250 O   0  0  0  0  0  1  0  0  0  0  0  0
  189.1040  178.0580  147.4540 C   0  0  0  0  0  0  0  0  0  0  0  0
  184.6050  178.5460  142.8330 C   0  0  0  0  0  0  0  0  0  0  0  0
  188.2770  177.7380  142.6540 N   0  0  0  0  0  0  0  0  0  0  0  0
  182.3100  179.0110  142.8480 C   0  0  0  0  0  0  0  0  0  0  0  0
  184.4010  178.9590  141.5210 C   0  0  0  0  0  0  0  0  0  0  0  0
  188.4670  178.0710  145.1020 C   0  0  0  0  0  0  0  0  0  0  0  0
  185.8990  178.1720  143.2720 C   0  0  0  0  0  0  0  0  0  0  0  0
  186.8490  177.4950  146.8200 C   0  0  0  0  0  3  0  0  0  0  0  0
  185.4260  179.0130  140.5920 C   0  0  0  0  0  3  0  0  0  0  0  0
  190.0500  178.2270  148.4070 F   0  0  0  0  0  0  0  0  0  0  0  0
  189.4220  178.2530  146.1110 C   0  0  0  0  0  3  0  0  0  0  0  0
  187.1350  177.7390  145.4700 C   0  0  0  0  0  0  0  0  0  0  0  0
  190.8810  176.6650  139.4830 C   0  0  0  0  0  2  0  0  0  0  0  0
  189.0810  177.1360  141.5860 C   0  0  2  0  0  3  0  0  0  0  0  0
  190.5600  176.9990  142.0030 C   0  0  0  0  0  2  0  0  0  0  0  0
  191.5550  176.9540  140.8270 C   0  0  0  0  0  2  0  0  0  0  0  0
  189.7530  177.6330  139.2750 C   0  0  0  0  0  3  0  0  0  0  0  0
  188.9010  177.8660  140.2780 C   0  0  0  0  0  3  0  0  0  0  0  0
  1 15  2  0  0  0  0
  2 12  1  0  0  0  0
  2 16  1  0  0  0  0
  3 21  2  0  0  0  0
  4 14  1  0  0  0  0
  4 13  1  0  0  0  0
  6  2  2  0  0  0  0
  7  9  1  0  0  0  0
 10  8  1  0  0  0  0
 10 19  1  0  0  0  0
 11 16  2  0  0  0  0
 11  7  1  0  0  0  0
 12  1  1  0  0  0  0
 13  5  1  0  0  0  0
 13  7  2  0  0  0  0
 14 11  1  0  0  0  0
 15 21  1  0  0  0  0
 15 20  1  0  0  0  0
 16  3  1  0  0  0  0
 17  8  2  0  0  0  0
 18  6  1  0  0  0  0
 18 14  2  0  0  0  0
 20 10  2  0  0  0  0
 21 17  1  0  0  0  0
 22 25  1  0  0  0  0
 23 27  1  6  0  0  0
 23 24  1  0  0  0  0
 23 12  1  0  0  0  0
 25 24  1  0  0  0  0
 26 22  1  0  0  0  0
 26 27  2  0  0  0  0
M  END
>  <MODEL>
6

>  <REMARK>
 VINA RESULT:      -9.0      3.550      7.177
  Name = 
  1 active torsions:
  status: ('A' for Active; 'I' for Inactive)
    1  A    between atoms: C_9  and  N_15
                            x       y       z     vdW  Elec       q    Type
                         _______ _______ _______ _____ _____    ______ ____

>  <TORSDO>
F 1

$$$$
=
 OpenBabel11052413443D

 27 31  0  0  1  0  0  0  0  0999 V2000
  185.9510  178.0430  142.0240 C   0  0  0  0  0  3  0  0  0  0  0  0
  188.3800  177.5460  142.4950 C   0  0  0  0  0  0  0  0  0  0  0  0
  187.3400  178.2840  144.7010 C   0  0  0  0  0  3  0  0  0  0  0  0
  191.7460  175.9600  144.9470 S   0  0  0  0  0  0  0  0  0  0  0  0
  191.4990  176.3640  147.7180 C   0  0  0  0  0  1  0  0  0  0  0  0
  189.4500  176.9080  141.8260 C   0  0  0  0  0  3  0  0  0  0  0  0
  189.7720  177.1300  145.9870 C   0  0  0  0  0  0  0  0  0  0  0  0
  183.9070  179.0070  145.4770 C   0  0  0  0  0  3  0  0  0  0  0  0
  188.9150  177.6850  146.9330 O   0  0  0  0  0  1  0  0  0  0  0  0
  183.2450  178.6320  144.3120 C   0  0  0  0  0  0  0  0  0  0  0  0
  189.5280  177.1270  144.5970 C   0  0  0  0  0  0  0  0  0  0  0  0
  187.3430  178.1460  141.7060 N   0  0  0  0  0  0  0  0  0  0  0  0
  190.9720  176.5160  146.3360 C   0  0  0  0  0  0  0  0  0  0  0  0
  190.5540  176.5030  143.8950 C   0  0  0  0  0  0  0  0  0  0  0  0
  185.3800  178.2110  143.2160 C   0  0  0  0  0  0  0  0  0  0  0  0
  188.4070  177.6520  143.9080 C   0  0  0  0  0  0  0  0  0  0  0  0
  185.2990  178.9350  145.5340 C   0  0  0  0  0  3  0  0  0  0  0  0
  190.5390  176.3750  142.5160 C   0  0  0  0  0  3  0  0  0  0  0  0
  181.8930  178.6770  144.2550 F   0  0  0  0  0  0  0  0  0  0  0  0
  183.9800  178.2520  143.1900 C   0  0  0  0  0  3  0  0  0  0  0  0
  186.0520  178.5040  144.4330 C   0  0  0  0  0  0  0  0  0  0  0  0
  188.4470  178.8380  137.6700 C   0  0  0  0  0  2  0  0  0  0  0  0
  187.6820  178.6280  140.3640 C   0  0  2  0  0  3  0  0  0  0  0  0
  186.5920  178.2530  139.3380 C   0  0  0  0  0  2  0  0  0  0  0  0
  187.0870  178.1680  137.8810 C   0  0  0  0  0  2  0  0  0  0  0  0
  189.4280  178.2940  138.6670 C   0  0  0  0  0  3  0  0  0  0  0  0
  189.0630  178.1840  139.9470 C   0  0  0  0  0  3  0  0  0  0  0  0
  1 15  2  0  0  0  0
  2 16  1  0  0  0  0
  4 13  1  0  0  0  0
  6  2  2  0  0  0  0
  6 18  1  0  0  0  0
  7 13  2  0  0  0  0
  7  9  1  0  0  0  0
  8 17  2  0  0  0  0
 10  8  1  0  0  0  0
 11  7  1  0  0  0  0
 12  1  1  0  0  0  0
 12  2  1  0  0  0  0
 13  5  1  0  0  0  0
 14 11  1  0  0  0  0
 14  4  1  0  0  0  0
 15 21  1  0  0  0  0
 16 11  2  0  0  0  0
 16  3  1  0  0  0  0
 18 14  2  0  0  0  0
 19 10  1  0  0  0  0
 20 15  1  0  0  0  0
 20 10  2  0  0  0  0
 21  3  2  0  0  0  0
 21 17  1  0  0  0  0
 22 25  1  0  0  0  0
 22 26  1  0  0  0  0
 23 24  1  6  0  0  0
 23 12  1  0  0  0  0
 25 24  1  0  0  0  0
 26 27  2  0  0  0  0
 27 23  1  0  0  0  0
M  END
>  <MODEL>
7

>  <REMARK>
 VINA RESULT:      -9.0      2.461      5.101
  Name = 
  1 active torsions:
  status: ('A' for Active; 'I' for Inactive)
    1  A    between atoms: C_9  and  N_15
                            x       y       z     vdW  Elec       q    Type
                         _______ _______ _______ _____ _____    ______ ____

>  <TORSDO>
F 1

$$$$
=
 OpenBabel11052413443D

 27 31  0  0  1  0  0  0  0  0999 V2000
  186.7530  177.8600  142.8440 C   0  0  0  0  0  3  0  0  0  0  0  0
  189.1480  177.1980  143.2840 C   0  0  0  0  0  0  0  0  0  0  0  0
  188.1930  178.0130  145.5010 C   0  0  0  0  0  3  0  0  0  0  0  0
  192.4310  175.3920  145.6950 S   0  0  0  0  0  0  0  0  0  0  0  0
  192.2510  175.8210  148.4680 C   0  0  0  0  0  1  0  0  0  0  0  0
  190.1620  176.4850  142.6020 C   0  0  0  0  0  3  0  0  0  0  0  0
  190.5580  176.6980  146.7570 C   0  0  0  0  0  0  0  0  0  0  0  0
  184.8290  178.9730  146.3210 C   0  0  0  0  0  3  0  0  0  0  0  0
  189.7540  177.3140  147.7130 O   0  0  0  0  0  1  0  0  0  0  0  0
  184.1260  178.6420  145.1670 C   0  0  0  0  0  0  0  0  0  0  0  0
  190.2940  176.7080  145.3710 C   0  0  0  0  0  0  0  0  0  0  0  0
  188.1440  177.8660  142.5060 N   0  0  0  0  0  0  0  0  0  0  0  0
  191.7160  176.0040  147.0930 C   0  0  0  0  0  0  0  0  0  0  0  0
  191.2640  176.0120  144.6580 C   0  0  0  0  0  0  0  0  0  0  0  0
  186.2110  178.0710  144.0440 C   0  0  0  0  0  0  0  0  0  0  0  0
  189.2030  177.3060  144.6960 C   0  0  0  0  0  0  0  0  0  0  0  0
  186.2130  178.8060  146.3590 C   0  0  0  0  0  3  0  0  0  0  0  0
  191.2210  175.8810  143.2800 C   0  0  0  0  0  3  0  0  0  0  0  0
  182.7800  178.7800  145.1280 F   0  0  0  0  0  0  0  0  0  0  0  0
  184.8170  178.2080  144.0370 C   0  0  0  0  0  3  0  0  0  0  0  0
  186.9190  178.3210  145.2500 C   0  0  0  0  0  0  0  0  0  0  0  0
  189.0450  178.4840  138.4090 C   0  0  0  0  0  2  0  0  0  0  0  0
  188.4970  178.3190  141.1580 C   0  0  2  0  0  3  0  0  0  0  0  0
  187.2570  178.3770  140.2410 C   0  0  0  0  0  2  0  0  0  0  0  0
  187.5680  178.2530  138.7360 C   0  0  0  0  0  2  0  0  0  0  0  0
  189.8900  177.5900  139.2690 C   0  0  0  0  0  3  0  0  0  0  0  0
  189.6250  177.5030  140.5760 C   0  0  0  0  0  3  0  0  0  0  0  0
  1 15  2  0  0  0  0
  2 16  1  0  0  0  0
  4 13  1  0  0  0  0
  6 18  1  0  0  0  0
  6  2  2  0  0  0  0
  7 13  2  0  0  0  0
  7  9  1  0  0  0  0
  8 17  2  0  0  0  0
 10  8  1  0  0  0  0
 11  7  1  0  0  0  0
 12  1  1  0  0  0  0
 12  2  1  0  0  0  0
 13  5  1  0  0  0  0
 14 11  1  0  0  0  0
 14  4  1  0  0  0  0
 15 21  1  0  0  0  0
 16 11  2  0  0  0  0
 16  3  1  0  0  0  0
 18 14  2  0  0  0  0
 19 10  1  0  0  0  0
 20 15  1  0  0  0  0
 20 10  2  0  0  0  0
 21  3  2  0  0  0  0
 21 17  1  0  0  0  0
 22 25  1  0  0  0  0
 22 26  1  0  0  0  0
 23 24  1  6  0  0  0
 23 12  1  0  0  0  0
 25 24  1  0  0  0  0
 26 27  2  0  0  0  0
 27 23  1  0  0  0  0
M  END
>  <MODEL>
8

>  <REMARK>
 VINA RESULT:      -8.9      2.502      5.126
  Name = 
  1 active torsions:
  status: ('A' for Active; 'I' for Inactive)
    1  A    between atoms: C_9  and  N_15
                            x       y       z     vdW  Elec       q    Type
                         _______ _______ _______ _____ _____    ______ ____

>  <TORSDO>
F 1

$$$$
=
 OpenBabel11052413443D

 27 31  0  0  1  0  0  0  0  0999 V2000
  186.5880  177.5770  144.7830 C   0  0  0  0  0  3  0  0  0  0  0  0
  187.5530  177.8690  142.4690 C   0  0  0  0  0  0  0  0  0  0  0  0
  189.4920  178.0900  144.1070 C   0  0  0  0  0  3  0  0  0  0  0  0
  190.6550  177.3170  139.3200 S   0  0  0  0  0  0  0  0  0  0  0  0
  193.3140  177.4450  140.2260 C   0  0  0  0  0  1  0  0  0  0  0  0
  187.1220  177.6570  141.1390 C   0  0  0  0  0  3  0  0  0  0  0  0
  191.2580  177.7130  141.7330 C   0  0  0  0  0  0  0  0  0  0  0  0
  189.5390  177.6050  147.6670 C   0  0  0  0  0  3  0  0  0  0  0  0
  192.0040  177.8980  142.8930 O   0  0  0  0  0  1  0  0  0  0  0  0
  188.2650  177.1090  147.9250 C   0  0  0  0  0  0  0  0  0  0  0  0
  189.8480  177.7180  141.6840 C   0  0  0  0  0  0  0  0  0  0  0  0
  186.5620  178.1470  143.4700 N   0  0  0  0  0  0  0  0  0  0  0  0
  191.8510  177.5020  140.4910 C   0  0  0  0  0  0  0  0  0  0  0  0
  189.3770  177.5060  140.3930 C   0  0  0  0  0  0  0  0  0  0  0  0
  187.6360  177.4750  145.6000 C   0  0  0  0  0  0  0  0  0  0  0  0
  188.9400  177.8900  142.7570 C   0  0  0  0  0  0  0  0  0  0  0  0
  189.8820  177.9870  146.3700 C   0  0  0  0  0  3  0  0  0  0  0  0
  188.0260  177.4670  140.0930 C   0  0  0  0  0  3  0  0  0  0  0  0
  187.9300  176.7150  149.1760 F   0  0  0  0  0  0  0  0  0  0  0  0
  187.3210  177.0590  146.9010 C   0  0  0  0  0  3  0  0  0  0  0  0
  188.9630  177.8950  145.3160 C   0  0  0  0  0  0  0  0  0  0  0  0
  182.6360  179.4040  142.4790 C   0  0  0  0  0  2  0  0  0  0  0  0
  185.3160  178.7950  143.0530 C   0  0  2  0  0  3  0  0  0  0  0  0
  184.4570  179.2000  144.2690 C   0  0  0  0  0  2  0  0  0  0  0  0
  182.9490  179.3240  143.9750 C   0  0  0  0  0  2  0  0  0  0  0  0
  183.2900  178.2540  141.7720 C   0  0  0  0  0  3  0  0  0  0  0  0
  184.5620  177.9560  142.0510 C   0  0  0  0  0  3  0  0  0  0  0  0
  1 15  2  0  0  0  0
  2 16  1  0  0  0  0
  2 12  1  0  0  0  0
  3 21  2  0  0  0  0
  4 14  1  0  0  0  0
  4 13  1  0  0  0  0
  5 13  1  0  0  0  0
  6  2  2  0  0  0  0
  7  9  1  0  0  0  0
  8 10  1  0  0  0  0
 10 19  1  0  0  0  0
 11  7  1  0  0  0  0
 11 16  2  0  0  0  0
 12  1  1  0  0  0  0
 13  7  2  0  0  0  0
 14 11  1  0  0  0  0
 15 20  1  0  0  0  0
 16  3  1  0  0  0  0
 17  8  2  0  0  0  0
 18 14  2  0  0  0  0
 18  6  1  0  0  0  0
 20 10  2  0  0  0  0
 21 15  1  0  0  0  0
 21 17  1  0  0  0  0
 22 25  1  0  0  0  0
 23 27  1  6  0  0  0
 23 12  1  0  0  0  0
 23 24  1  0  0  0  0
 25 24  1  0  0  0  0
 26 27  2  0  0  0  0
 26 22  1  0  0  0  0
M  END
>  <MODEL>
9

>  <REMARK>
 VINA RESULT:      -8.6      3.099      5.316
  Name = 
  1 active torsions:
  status: ('A' for Active; 'I' for Inactive)
    1  A    between atoms: C_9  and  N_15
                            x       y       z     vdW  Elec       q    Type
                         _______ _______ _______ _____ _____    ______ ____

>  <TORSDO>
F 1

$$$$
