=
 OpenBabel11052412363D

 30 34  0  0  1  0  0  0  0  0999 V2000
  182.0080  178.0940  141.6400 C   0  0  1  0  0  3  0  0  0  0  0  0
  179.5050  177.4260  138.9230 C   0  0  0  0  0  2  0  0  0  0  0  0
  181.8400  181.5660  138.0310 C   0  0  0  0  0  1  0  0  0  0  0  0
  183.5610  178.0350  141.4930 C   0  0  2  0  0  3  0  0  0  0  0  0
  181.5270  178.9960  142.7860 C   0  0  0  0  0  2  0  0  0  0  0  0
  184.5710  179.0970  144.9300 N   0  0  0  0  0  2  0  0  0  0  0  0
  187.7750  177.3730  142.8840 C   0  0  0  0  0  2  0  0  0  0  0  0
  183.7220  179.0290  143.7800 C   0  0  0  0  0  0  0  0  0  0  0  0
  185.5980  177.9880  139.9540 C   0  0  0  0  0  2  0  0  0  0  0  0
  184.2740  180.3860  139.3740 O   0  0  0  0  0  1  0  0  0  0  0  0
  182.4350  178.9620  143.9300 N   0  0  0  0  0  0  0  0  0  0  0  0
  184.3000  179.0510  142.3870 C   0  0  1  0  0  3  0  0  0  0  0  0
  179.6110  178.1410  137.7260 O   0  0  0  0  0  0  0  0  0  0  0  0
  186.3060  178.9770  140.8890 C   0  0  2  0  0  3  0  0  0  0  0  0
  188.2590  177.4670  141.4400 C   0  0  0  0  0  2  0  0  0  0  0  0
  180.8840  177.2660  139.5440 C   0  0  0  0  0  2  0  0  0  0  0  0
  182.0250  179.5990  139.5870 C   0  0  1  0  0  3  0  0  0  0  0  0
  178.9310  179.3520  137.9280 C   0  0  0  0  0  2  0  0  0  0  0  0
  181.2650  178.4970  140.3650 C   0  0  2  0  0  3  0  0  0  0  0  0
  183.6260  176.8850  139.4200 F   0  0  0  0  0  0  0  0  0  0  0  0
  183.4830  179.2420  139.2310 C   0  0  2  0  0  3  0  0  0  0  0  0
  184.0610  178.0470  140.0280 C   0  0  1  0  0  0  0  0  0  0  0  0
  187.8240  178.7950  140.8160 C   0  0  0  0  0  2  0  0  0  0  0  0
  186.2560  177.4950  142.9380 C   0  0  0  0  0  2  0  0  0  0  0  0
  181.2680  180.2070  138.3910 C   0  0  1  0  0  3  0  0  0  0  0  0
  179.7820  180.3740  138.6880 C   0  0  0  0  0  2  0  0  0  0  0  0
  185.8190  178.8400  142.3370 C   0  0  2  0  0  3  0  0  0  0  0  0
  184.0680  179.0490  146.1880 O   0  0  0  0  0  0  0  0  0  0  0  0
  184.9850  178.2860  146.9130 C   0  0  0  0  0  2  0  0  0  0  0  0
  186.3800  178.5260  146.3760 C   0  0  0  0  0  1  0  0  0  0  0  0
  1  5  1  1  0  0  0
  2 16  1  0  0  0  0
  3 25  1  0  0  0  0
  4  1  1  0  0  0  0
  4 12  1  0  0  0  0
  5 11  1  0  0  0  0
  6 28  1  0  0  0  0
  7 24  1  0  0  0  0
  8 11  2  0  0  0  0
  8  6  1  0  0  0  0
  9 22  1  0  0  0  0
  9 14  1  0  0  0  0
 12  8  1  0  0  0  0
 13 18  1  0  0  0  0
 13  2  1  0  0  0  0
 14 27  1  0  0  0  0
 15  7  1  0  0  0  0
 16 19  1  0  0  0  0
 17 19  1  0  0  0  0
 18 26  1  0  0  0  0
 19  1  1  0  0  0  0
 20 22  1  0  0  0  0
 21 10  1  0  0  0  0
 21 17  1  0  0  0  0
 21 22  1  0  0  0  0
 22  4  1  0  0  0  0
 23 14  1  0  0  0  0
 23 15  1  0  0  0  0
 25 26  1  0  0  0  0
 25 17  1  0  0  0  0
 27 12  1  0  0  0  0
 27 24  1  0  0  0  0
 28 29  1  0  0  0  0
 30 29  1  0  0  0  0
M  END
>  <MODEL>
1

>  <REMARK>
 VINA RESULT:      -7.3      0.000      0.000
  Name = 
  2 active torsions:
  status: ('A' for Active; 'I' for Inactive)
    1  A    between atoms: N_6  and  O_21
    2  A    between atoms: C_9  and  O_21
                            x       y       z     vdW  Elec       q    Type
                         _______ _______ _______ _____ _____    ______ ____

>  <TORSDO>
F 2

$$$$
=
 OpenBabel11052412363D

 30 34  0  0  1  0  0  0  0  0999 V2000
  181.1150  177.6560  139.3710 C   0  0  1  0  0  3  0  0  0  0  0  0
  179.2310  180.2510  141.3220 C   0  0  0  0  0  2  0  0  0  0  0  0
  183.0220  178.6910  143.8870 C   0  0  0  0  0  1  0  0  0  0  0  0
  182.5360  177.8280  138.7460 C   0  0  2  0  0  3  0  0  0  0  0  0
  180.7380  176.1960  139.6600 C   0  0  0  0  0  2  0  0  0  0  0  0
  183.0420  174.4000  137.3500 N   0  0  0  0  0  2  0  0  0  0  0  0
  185.8010  177.0980  135.7580 C   0  0  0  0  0  2  0  0  0  0  0  0
  182.5120  175.3800  138.2470 C   0  0  0  0  0  0  0  0  0  0  0  0
  184.7180  179.1510  138.6400 C   0  0  0  0  0  2  0  0  0  0  0  0
  184.5020  178.2700  141.2890 O   0  0  0  0  0  1  0  0  0  0  0  0
  181.2870  175.2790  138.6640 N   0  0  0  0  0  0  0  0  0  0  0  0
  183.3620  176.5270  138.7350 C   0  0  1  0  0  3  0  0  0  0  0  0
  179.8540  180.8410  142.4260 O   0  0  0  0  0  0  0  0  0  0  0  0
  185.4970  177.8310  138.6000 C   0  0  2  0  0  3  0  0  0  0  0  0
  186.6040  178.2450  136.3650 C   0  0  0  0  0  2  0  0  0  0  0  0
  180.2820  179.8430  140.3020 C   0  0  0  0  0  2  0  0  0  0  0  0
  182.1350  178.5100  141.5420 C   0  0  1  0  0  3  0  0  0  0  0  0
  179.6220  179.9870  143.5150 C   0  0  0  0  0  2  0  0  0  0  0  0
  180.8770  178.4770  140.6400 C   0  0  2  0  0  3  0  0  0  0  0  0
  182.6600  180.1910  138.9230 F   0  0  0  0  0  0  0  0  0  0  0  0
  183.4110  179.0220  140.8410 C   0  0  2  0  0  3  0  0  0  0  0  0
  183.3280  179.0400  139.2950 C   0  0  1  0  0  0  0  0  0  0  0  0
  186.8250  178.0110  137.8610 C   0  0  0  0  0  2  0  0  0  0  0  0
  184.4560  176.9670  136.4630 C   0  0  0  0  0  2  0  0  0  0  0  0
  181.9380  179.1500  142.9290 C   0  0  1  0  0  3  0  0  0  0  0  0
  180.5830  178.7930  143.5290 C   0  0  0  0  0  2  0  0  0  0  0  0
  184.6750  176.7040  137.9610 C   0  0  2  0  0  3  0  0  0  0  0  0
  182.2820  173.3810  136.8810 O   0  0  0  0  0  0  0  0  0  0  0  0
  183.1160  172.2620  136.9190 C   0  0  0  0  0  2  0  0  0  0  0  0
  184.5170  172.6890  137.3040 C   0  0  0  0  0  1  0  0  0  0  0  0
  1  5  1  1  0  0  0
  1 19  1  0  0  0  0
  2 13  1  0  0  0  0
  4 22  1  0  0  0  0
  4  1  1  0  0  0  0
  6  8  1  0  0  0  0
  7 15  1  0  0  0  0
  7 24  1  0  0  0  0
  8 11  2  0  0  0  0
  8 12  1  0  0  0  0
  9 22  1  0  0  0  0
 11  5  1  0  0  0  0
 12  4  1  0  0  0  0
 13 18  1  0  0  0  0
 14  9  1  0  0  0  0
 15 23  1  0  0  0  0
 16 19  1  0  0  0  0
 16  2  1  0  0  0  0
 17 25  1  0  0  0  0
 18 26  1  0  0  0  0
 19 17  1  0  0  0  0
 20 22  1  0  0  0  0
 21 10  1  0  0  0  0
 21 17  1  0  0  0  0
 22 21  1  0  0  0  0
 23 14  1  0  0  0  0
 24 27  1  0  0  0  0
 25 26  1  0  0  0  0
 25  3  1  0  0  0  0
 27 14  1  0  0  0  0
 27 12  1  0  0  0  0
 28 29  1  0  0  0  0
 28  6  1  0  0  0  0
 29 30  1  0  0  0  0
M  END
>  <MODEL>
2

>  <REMARK>
 VINA RESULT:      -6.4      3.458      5.734
  Name = 
  2 active torsions:
  status: ('A' for Active; 'I' for Inactive)
    1  A    between atoms: N_6  and  O_21
    2  A    between atoms: C_9  and  O_21
                            x       y       z     vdW  Elec       q    Type
                         _______ _______ _______ _____ _____    ______ ____

>  <TORSDO>
F 2

$$$$
=
 OpenBabel11052412363D

 30 34  0  0  1  0  0  0  0  0999 V2000
  187.5380  178.0060  138.0450 C   0  0  1  0  0  3  0  0  0  0  0  0
  190.0050  176.7820  135.4930 C   0  0  0  0  0  2  0  0  0  0  0  0
  187.2340  173.1150  137.0000 C   0  0  0  0  0  1  0  0  0  0  0  0
  185.9950  178.1320  137.8450 C   0  0  2  0  0  3  0  0  0  0  0  0
  187.9630  177.8550  139.5130 C   0  0  0  0  0  2  0  0  0  0  0  0
  184.9970  179.2810  141.2580 N   0  0  0  0  0  2  0  0  0  0  0  0
  181.9180  179.8850  138.5040 C   0  0  0  0  0  2  0  0  0  0  0  0
  185.8100  178.6080  140.2910 C   0  0  0  0  0  0  0  0  0  0  0  0
  183.9230  177.5180  136.4840 C   0  0  0  0  0  2  0  0  0  0  0  0
  184.9780  175.0850  137.3820 O   0  0  0  0  0  1  0  0  0  0  0  0
  187.1020  178.6150  140.4160 N   0  0  0  0  0  0  0  0  0  0  0  0
  185.1870  177.8700  139.1320 C   0  0  1  0  0  3  0  0  0  0  0  0
  189.7870  175.5350  134.8980 O   0  0  0  0  0  0  0  0  0  0  0  0
  183.1500  177.3000  137.7910 C   0  0  2  0  0  3  0  0  0  0  0  0
  181.3800  179.0490  137.3460 C   0  0  0  0  0  2  0  0  0  0  0  0
  188.6700  177.4010  135.8780 C   0  0  0  0  0  2  0  0  0  0  0  0
  187.3010  175.6220  137.1850 C   0  0  1  0  0  3  0  0  0  0  0  0
  190.3480  174.5810  135.7620 C   0  0  0  0  0  2  0  0  0  0  0  0
  188.1940  176.8850  137.2360 C   0  0  2  0  0  3  0  0  0  0  0  0
  185.9780  177.9260  135.4820 F   0  0  0  0  0  0  0  0  0  0  0  0
  185.8760  175.8660  136.6470 C   0  0  2  0  0  3  0  0  0  0  0  0
  185.4480  177.3540  136.6230 C   0  0  1  0  0  0  0  0  0  0  0  0
  181.6560  177.5640  137.5840 C   0  0  0  0  0  2  0  0  0  0  0  0
  183.4180  179.6590  138.6620 C   0  0  0  0  0  2  0  0  0  0  0  0
  187.9530  174.3750  136.5560 C   0  0  1  0  0  3  0  0  0  0  0  0
  189.4230  174.2520  136.9390 C   0  0  0  0  0  2  0  0  0  0  0  0
  183.6960  178.1720  138.9280 C   0  0  2  0  0  3  0  0  0  0  0  0
  185.5440  179.9720  142.2870 O   0  0  0  0  0  0  0  0  0  0  0  0
  184.8530  179.5360  143.4200 C   0  0  0  0  0  2  0  0  0  0  0  0
  185.4530  178.2350  143.9080 C   0  0  0  0  0  1  0  0  0  0  0  0
  1  5  1  1  0  0  0
  2 16  1  0  0  0  0
  4  1  1  0  0  0  0
  4 12  1  0  0  0  0
  5 11  1  0  0  0  0
  6 28  1  0  0  0  0
  7 24  1  0  0  0  0
  8 11  2  0  0  0  0
  8  6  1  0  0  0  0
  9 22  1  0  0  0  0
  9 14  1  0  0  0  0
 12  8  1  0  0  0  0
 13  2  1  0  0  0  0
 13 18  1  0  0  0  0
 14 27  1  0  0  0  0
 15 23  1  0  0  0  0
 15  7  1  0  0  0  0
 16 19  1  0  0  0  0
 17 19  1  0  0  0  0
 18 26  1  0  0  0  0
 19  1  1  0  0  0  0
 20 22  1  0  0  0  0
 21 17  1  0  0  0  0
 21 10  1  0  0  0  0
 22 21  1  0  0  0  0
 22  4  1  0  0  0  0
 23 14  1  0  0  0  0
 24 27  1  0  0  0  0
 25 26  1  0  0  0  0
 25  3  1  0  0  0  0
 25 17  1  0  0  0  0
 27 12  1  0  0  0  0
 28 29  1  0  0  0  0
 29 30  1  0  0  0  0
M  END
>  <MODEL>
3

>  <REMARK>
 VINA RESULT:      -6.3      4.040      7.039
  Name = 
  2 active torsions:
  status: ('A' for Active; 'I' for Inactive)
    1  A    between atoms: N_6  and  O_21
    2  A    between atoms: C_9  and  O_21
                            x       y       z     vdW  Elec       q    Type
                         _______ _______ _______ _____ _____    ______ ____

>  <TORSDO>
F 2

$$$$
=
 OpenBabel11052412363D

 30 34  0  0  1  0  0  0  0  0999 V2000
  183.3430  178.1520  140.3430 C   0  0  1  0  0  3  0  0  0  0  0  0
  180.0460  178.2980  142.1330 C   0  0  0  0  0  2  0  0  0  0  0  0
  179.8730  181.0130  138.1340 C   0  0  0  0  0  1  0  0  0  0  0  0
  183.6150  177.4490  138.9750 C   0  0  2  0  0  3  0  0  0  0  0  0
  184.3330  179.2800  140.6690 C   0  0  0  0  0  2  0  0  0  0  0  0
  187.2130  178.3410  138.5020 N   0  0  0  0  0  2  0  0  0  0  0  0
  186.0710  175.2650  135.9210 C   0  0  0  0  0  2  0  0  0  0  0  0
  185.8770  178.5110  138.9860 C   0  0  0  0  0  0  0  0  0  0  0  0
  182.6760  176.4230  136.8340 C   0  0  0  0  0  2  0  0  0  0  0  0
  181.7990  179.0820  136.8390 O   0  0  0  0  0  1  0  0  0  0  0  0
  185.6770  178.9910  140.1750 N   0  0  0  0  0  0  0  0  0  0  0  0
  184.6890  178.1580  138.1260 C   0  0  1  0  0  3  0  0  0  0  0  0
  178.9320  178.7850  141.4430 O   0  0  0  0  0  0  0  0  0  0  0  0
  183.7800  177.1230  136.0330 C   0  0  2  0  0  3  0  0  0  0  0  0
  184.8100  175.0110  135.1000 C   0  0  0  0  0  2  0  0  0  0  0  0
  181.0100  177.6520  141.1510 C   0  0  0  0  0  2  0  0  0  0  0  0
  181.3920  179.3070  139.1860 C   0  0  1  0  0  3  0  0  0  0  0  0
  178.9630  180.1820  141.5780 C   0  0  0  0  0  2  0  0  0  0  0  0
  181.9220  178.6950  140.5050 C   0  0  2  0  0  3  0  0  0  0  0  0
  181.6170  176.1740  138.8860 F   0  0  0  0  0  0  0  0  0  0  0  0
  181.4330  178.3520  137.9750 C   0  0  2  0  0  3  0  0  0  0  0  0
  182.3370  177.1100  138.1700 C   0  0  1  0  0  0  0  0  0  0  0  0
  184.1130  176.3310  134.7660 C   0  0  0  0  0  2  0  0  0  0  0  0
  185.7190  176.0020  137.2080 C   0  0  0  0  0  2  0  0  0  0  0  0
  180.0460  180.0500  139.2940 C   0  0  1  0  0  3  0  0  0  0  0  0
  179.9380  180.8380  140.5950 C   0  0  0  0  0  2  0  0  0  0  0  0
  185.0440  177.3410  136.8760 C   0  0  2  0  0  3  0  0  0  0  0  0
  188.2890  178.6270  139.2740 O   0  0  0  0  0  0  0  0  0  0  0  0
  189.3880  178.4870  138.4240 C   0  0  0  0  0  2  0  0  0  0  0  0
  188.9350  178.6150  136.9860 C   0  0  0  0  0  1  0  0  0  0  0  0
  1 19  1  0  0  0  0
  1  5  1  6  0  0  0
  3 25  1  0  0  0  0
  4  1  1  0  0  0  0
  6  8  1  0  0  0  0
  6 28  1  0  0  0  0
  7 24  1  0  0  0  0
  8 11  2  0  0  0  0
  9 22  1  0  0  0  0
 10 21  1  0  0  0  0
 11  5  1  0  0  0  0
 12  4  1  0  0  0  0
 12  8  1  0  0  0  0
 13 18  1  0  0  0  0
 13  2  1  0  0  0  0
 14  9  1  0  0  0  0
 14 27  1  0  0  0  0
 15  7  1  0  0  0  0
 16  2  1  0  0  0  0
 17 25  1  0  0  0  0
 17 19  1  0  0  0  0
 19 16  1  0  0  0  0
 21 22  1  0  0  0  0
 21 17  1  0  0  0  0
 22 20  1  0  0  0  0
 22  4  1  0  0  0  0
 23 15  1  0  0  0  0
 23 14  1  0  0  0  0
 25 26  1  0  0  0  0
 26 18  1  0  0  0  0
 27 24  1  0  0  0  0
 27 12  1  0  0  0  0
 29 28  1  0  0  0  0
 30 29  1  0  0  0  0
M  END
>  <MODEL>
4

>  <REMARK>
 VINA RESULT:      -6.0      3.228      5.082
  Name = 
  2 active torsions:
  status: ('A' for Active; 'I' for Inactive)
    1  A    between atoms: N_6  and  O_21
    2  A    between atoms: C_9  and  O_21
                            x       y       z     vdW  Elec       q    Type
                         _______ _______ _______ _____ _____    ______ ____

>  <TORSDO>
F 2

$$$$
=
 OpenBabel11052412363D

 30 34  0  0  1  0  0  0  0  0999 V2000
  192.6760  176.7300  137.6010 C   0  0  1  0  0  3  0  0  0  0  0  0
  195.6670  176.1590  135.4050 C   0  0  0  0  0  2  0  0  0  0  0  0
  193.5560  171.9350  136.4460 C   0  0  0  0  0  1  0  0  0  0  0  0
  191.1830  176.5430  137.1860 C   0  0  2  0  0  3  0  0  0  0  0  0
  192.9210  176.6040  139.1120 C   0  0  0  0  0  2  0  0  0  0  0  0
  189.5120  177.3060  140.4400 N   0  0  0  0  0  2  0  0  0  0  0  0
  186.7770  177.3840  137.2880 C   0  0  0  0  0  2  0  0  0  0  0  0
  190.5720  176.8600  139.5880 C   0  0  0  0  0  0  0  0  0  0  0  0
  189.4900  175.5770  135.5350 C   0  0  0  0  0  2  0  0  0  0  0  0
  190.9040  173.3760  136.5350 O   0  0  0  0  0  1  0  0  0  0  0  0
  191.8040  177.1280  139.8950 N   0  0  0  0  0  0  0  0  0  0  0  0
  190.2820  176.0620  138.3410 C   0  0  1  0  0  3  0  0  0  0  0  0
  195.8010  174.9230  134.7650 O   0  0  0  0  0  0  0  0  0  0  0  0
  188.6120  175.1440  136.7150 C   0  0  2  0  0  3  0  0  0  0  0  0
  186.5880  176.5080  136.0520 C   0  0  0  0  0  2  0  0  0  0  0  0
  194.1930  176.4710  135.6070 C   0  0  0  0  0  2  0  0  0  0  0  0
  193.0660  174.3900  136.6780 C   0  0  1  0  0  3  0  0  0  0  0  0
  196.4270  174.0680  135.6850 C   0  0  0  0  0  2  0  0  0  0  0  0
  193.6570  175.8080  136.8750 C   0  0  2  0  0  3  0  0  0  0  0  0
  191.5300  176.4460  134.8420 F   0  0  0  0  0  0  0  0  0  0  0  0
  191.7080  174.3590  135.9470 C   0  0  2  0  0  3  0  0  0  0  0  0
  190.9820  175.7260  135.8860 C   0  0  1  0  0  0  0  0  0  0  0  0
  187.1380  175.1030  136.3030 C   0  0  0  0  0  2  0  0  0  0  0  0
  188.2550  177.4650  137.6530 C   0  0  0  0  0  2  0  0  0  0  0  0
  194.0450  173.3350  136.1270 C   0  0  1  0  0  3  0  0  0  0  0  0
  195.4430  173.5020  136.7130 C   0  0  0  0  0  2  0  0  0  0  0  0
  188.8020  176.0580  137.9330 C   0  0  2  0  0  3  0  0  0  0  0  0
  189.7560  178.0470  141.5480 O   0  0  0  0  0  0  0  0  0  0  0  0
  188.6780  177.7910  142.3970 C   0  0  0  0  0  2  0  0  0  0  0  0
  188.7790  176.3780  142.9300 C   0  0  0  0  0  1  0  0  0  0  0  0
  1  5  1  1  0  0  0
  2 16  1  0  0  0  0
  4  1  1  0  0  0  0
  4 12  1  0  0  0  0
  5 11  1  0  0  0  0
  6 28  1  0  0  0  0
  7 24  1  0  0  0  0
  8 11  2  0  0  0  0
  8  6  1  0  0  0  0
  9 22  1  0  0  0  0
  9 14  1  0  0  0  0
 12  8  1  0  0  0  0
 13  2  1  0  0  0  0
 13 18  1  0  0  0  0
 14 27  1  0  0  0  0
 15 23  1  0  0  0  0
 15  7  1  0  0  0  0
 16 19  1  0  0  0  0
 17 19  1  0  0  0  0
 18 26  1  0  0  0  0
 19  1  1  0  0  0  0
 20 22  1  0  0  0  0
 21 10  1  0  0  0  0
 21 17  1  0  0  0  0
 22 21  1  0  0  0  0
 22  4  1  0  0  0  0
 23 14  1  0  0  0  0
 24 27  1  0  0  0  0
 25  3  1  0  0  0  0
 25 17  1  0  0  0  0
 25 26  1  0  0  0  0
 27 12  1  0  0  0  0
 28 29  1  0  0  0  0
 29 30  1  0  0  0  0
M  END
>  <MODEL>
5

>  <REMARK>
 VINA RESULT:      -5.9      7.141     10.838
  Name = 
  2 active torsions:
  status: ('A' for Active; 'I' for Inactive)
    1  A    between atoms: N_6  and  O_21
    2  A    between atoms: C_9  and  O_21
                            x       y       z     vdW  Elec       q    Type
                         _______ _______ _______ _____ _____    ______ ____

>  <TORSDO>
F 2

$$$$
=
 OpenBabel11052412363D

 30 34  0  0  1  0  0  0  0  0999 V2000
  185.6840  178.3040  138.4220 C   0  0  1  0  0  3  0  0  0  0  0  0
  187.4700  177.6610  135.1830 C   0  0  0  0  0  2  0  0  0  0  0  0
  186.1210  173.4690  137.1810 C   0  0  0  0  0  1  0  0  0  0  0  0
  184.1620  178.0840  138.6920 C   0  0  2  0  0  3  0  0  0  0  0  0
  186.5520  178.2480  139.6880 C   0  0  0  0  0  2  0  0  0  0  0  0
  184.0160  178.9780  142.3170 N   0  0  0  0  0  2  0  0  0  0  0  0
  180.1980  178.8870  140.6330 C   0  0  0  0  0  2  0  0  0  0  0  0
  184.6240  178.5040  141.1110 C   0  0  0  0  0  0  0  0  0  0  0  0
  181.9560  177.0280  137.9580 C   0  0  0  0  0  2  0  0  0  0  0  0
  183.7210  174.8880  138.3400 O   0  0  0  0  0  1  0  0  0  0  0  0
  185.8620  178.7970  140.8520 N   0  0  0  0  0  0  0  0  0  0  0  0
  183.8530  177.6480  140.1380 C   0  0  1  0  0  3  0  0  0  0  0  0
  187.3530  176.3980  134.5940 O   0  0  0  0  0  0  0  0  0  0  0  0
  181.6750  176.6410  139.4150 C   0  0  2  0  0  3  0  0  0  0  0  0
  179.5260  177.9550  139.6290 C   0  0  0  0  0  2  0  0  0  0  0  0
  186.2140  177.9680  135.9830 C   0  0  0  0  0  2  0  0  0  0  0  0
  185.7090  175.9270  137.5080 C   0  0  1  0  0  3  0  0  0  0  0  0
  188.3350  175.5920  135.1890 C   0  0  0  0  0  2  0  0  0  0  0  0
  186.2880  177.3580  137.3820 C   0  0  2  0  0  3  0  0  0  0  0  0
  183.4800  177.8830  136.4290 F   0  0  0  0  0  0  0  0  0  0  0  0
  184.1700  175.8500  137.4290 C   0  0  2  0  0  3  0  0  0  0  0  0
  183.4500  177.2060  137.6330 C   0  0  1  0  0  0  0  0  0  0  0  0
  180.1680  176.5670  139.6730 C   0  0  0  0  0  2  0  0  0  0  0  0
  181.6880  178.9990  140.3290 C   0  0  0  0  0  2  0  0  0  0  0  0
  186.3890  174.8580  136.6330 C   0  0  1  0  0  3  0  0  0  0  0  0
  187.8980  175.0640  136.5590 C   0  0  0  0  0  2  0  0  0  0  0  0
  182.3410  177.6110  140.4000 C   0  0  2  0  0  3  0  0  0  0  0  0
  184.6880  179.7710  143.1860 O   0  0  0  0  0  0  0  0  0  0  0  0
  184.2220  179.3980  144.4480 C   0  0  0  0  0  2  0  0  0  0  0  0
  182.7700  178.9820  144.3480 C   0  0  0  0  0  1  0  0  0  0  0  0
  1  4  1  0  0  0  0
  1  5  1  1  0  0  0
  2 16  1  0  0  0  0
  4 12  1  0  0  0  0
  5 11  1  0  0  0  0
  6 28  1  0  0  0  0
  8  6  1  0  0  0  0
  9 14  1  0  0  0  0
 11  8  2  0  0  0  0
 12 27  1  0  0  0  0
 12  8  1  0  0  0  0
 13  2  1  0  0  0  0
 13 18  1  0  0  0  0
 14 23  1  0  0  0  0
 14 27  1  0  0  0  0
 15 23  1  0  0  0  0
 15  7  1  0  0  0  0
 16 19  1  0  0  0  0
 18 26  1  0  0  0  0
 19 17  1  0  0  0  0
 19  1  1  0  0  0  0
 20 22  1  0  0  0  0
 21 17  1  0  0  0  0
 21 22  1  0  0  0  0
 21 10  1  0  0  0  0
 22  9  1  0  0  0  0
 22  4  1  0  0  0  0
 24 27  1  0  0  0  0
 24  7  1  0  0  0  0
 25  3  1  0  0  0  0
 25 17  1  0  0  0  0
 26 25  1  0  0  0  0
 28 29  1  0  0  0  0
 30 29  1  0  0  0  0
M  END
>  <MODEL>
6

>  <REMARK>
 VINA RESULT:      -5.8      3.309      6.121
  Name = 
  2 active torsions:
  status: ('A' for Active; 'I' for Inactive)
    1  A    between atoms: N_6  and  O_21
    2  A    between atoms: C_9  and  O_21
                            x       y       z     vdW  Elec       q    Type
                         _______ _______ _______ _____ _____    ______ ____

>  <TORSDO>
F 2

$$$$
=
 OpenBabel11052412363D

 30 34  0  0  1  0  0  0  0  0999 V2000
  183.2490  178.2770  140.0310 C   0  0  1  0  0  3  0  0  0  0  0  0
  180.6700  179.3820  142.5260 C   0  0  0  0  0  2  0  0  0  0  0  0
  179.0050  180.0390  138.0340 C   0  0  0  0  0  1  0  0  0  0  0  0
  183.1520  177.0260  139.1020 C   0  0  2  0  0  3  0  0  0  0  0  0
  184.1760  179.3780  139.4950 C   0  0  0  0  0  2  0  0  0  0  0  0
  186.3220  177.4200  137.1640 N   0  0  0  0  0  2  0  0  0  0  0  0
  184.7420  173.5830  136.7050 C   0  0  0  0  0  2  0  0  0  0  0  0
  185.1910  177.8590  137.9230 C   0  0  0  0  0  0  0  0  0  0  0  0
  181.7000  175.2070  138.0520 C   0  0  0  0  0  2  0  0  0  0  0  0
  180.6140  177.6330  137.1740 O   0  0  0  0  0  1  0  0  0  0  0  0
  185.3230  178.8280  138.7760 N   0  0  0  0  0  0  0  0  0  0  0  0
  183.8360  177.2250  137.7350 C   0  0  1  0  0  3  0  0  0  0  0  0
  179.3550  179.5700  142.0900 O   0  0  0  0  0  0  0  0  0  0  0  0
  182.4290  175.4170  136.7200 C   0  0  2  0  0  3  0  0  0  0  0  0
  183.3200  173.0580  136.5300 C   0  0  0  0  0  2  0  0  0  0  0  0
  181.3410  178.3150  141.6750 C   0  0  0  0  0  2  0  0  0  0  0  0
  180.9330  178.9010  139.1780 C   0  0  1  0  0  3  0  0  0  0  0  0
  179.2910  180.8770  141.5820 C   0  0  0  0  0  2  0  0  0  0  0  0
  181.9020  178.9110  140.3850 C   0  0  2  0  0  3  0  0  0  0  0  0
  181.3580  175.9540  140.2250 F   0  0  0  0  0  0  0  0  0  0  0  0
  180.6900  177.5060  138.5640 C   0  0  2  0  0  3  0  0  0  0  0  0
  181.7270  176.4340  138.9820 C   0  0  1  0  0  0  0  0  0  0  0  0
  182.4290  174.1270  135.8950 C   0  0  0  0  0  2  0  0  0  0  0  0
  184.7350  174.8340  137.5780 C   0  0  0  0  0  2  0  0  0  0  0  0
  179.6210  179.6850  139.3740 C   0  0  1  0  0  3  0  0  0  0  0  0
  179.8450  180.9740  140.1580 C   0  0  0  0  0  2  0  0  0  0  0  0
  183.8640  175.9190  136.9290 C   0  0  2  0  0  3  0  0  0  0  0  0
  187.5510  177.9610  137.3430 O   0  0  0  0  0  0  0  0  0  0  0  0
  188.2810  176.9800  138.0170 C   0  0  0  0  0  2  0  0  0  0  0  0
  188.6920  177.5010  139.3770 C   0  0  0  0  0  1  0  0  0  0  0  0
  1  5  1  6  0  0  0
  1 19  1  0  0  0  0
  3 25  1  0  0  0  0
  4  1  1  0  0  0  0
  6 28  1  0  0  0  0
  6  8  1  0  0  0  0
  7 24  1  0  0  0  0
  8 11  2  0  0  0  0
  9 22  1  0  0  0  0
 10 21  1  0  0  0  0
 11  5  1  0  0  0  0
 12  8  1  0  0  0  0
 12  4  1  0  0  0  0
 13  2  1  0  0  0  0
 14 27  1  0  0  0  0
 14  9  1  0  0  0  0
 15  7  1  0  0  0  0
 16  2  1  0  0  0  0
 17 25  1  0  0  0  0
 17 19  1  0  0  0  0
 18 13  1  0  0  0  0
 19 16  1  0  0  0  0
 21 22  1  0  0  0  0
 21 17  1  0  0  0  0
 22  4  1  0  0  0  0
 22 20  1  0  0  0  0
 23 15  1  0  0  0  0
 23 14  1  0  0  0  0
 25 26  1  0  0  0  0
 26 18  1  0  0  0  0
 27 24  1  0  0  0  0
 27 12  1  0  0  0  0
 28 29  1  0  0  0  0
 29 30  1  0  0  0  0
M  END
>  <MODEL>
7

>  <REMARK>
 VINA RESULT:      -5.5      3.357      5.541
  Name = 
  2 active torsions:
  status: ('A' for Active; 'I' for Inactive)
    1  A    between atoms: N_6  and  O_21
    2  A    between atoms: C_9  and  O_21
                            x       y       z     vdW  Elec       q    Type
                         _______ _______ _______ _____ _____    ______ ____

>  <TORSDO>
F 2

$$$$
=
 OpenBabel11052412363D

 30 34  0  0  1  0  0  0  0  0999 V2000
  183.7660  177.6890  138.9670 C   0  0  1  0  0  3  0  0  0  0  0  0
  180.1820  177.6010  140.0820 C   0  0  0  0  0  2  0  0  0  0  0  0
  180.4210  178.7270  135.3850 C   0  0  0  0  0  1  0  0  0  0  0  0
  184.4560  176.6680  138.0100 C   0  0  2  0  0  3  0  0  0  0  0  0
  184.4420  179.0680  138.9940 C   0  0  0  0  0  2  0  0  0  0  0  0
  187.8510  178.2080  137.7660 N   0  0  0  0  0  2  0  0  0  0  0  0
  187.8770  174.2770  136.3640 C   0  0  0  0  0  2  0  0  0  0  0  0
  186.4330  178.1950  137.9550 C   0  0  0  0  0  0  0  0  0  0  0  0
  184.2130  174.7990  136.2850 C   0  0  0  0  0  2  0  0  0  0  0  0
  182.8990  177.0130  135.1840 O   0  0  0  0  0  1  0  0  0  0  0  0
  185.8910  178.9730  138.8410 N   0  0  0  0  0  0  0  0  0  0  0  0
  185.5480  177.3000  137.1240 C   0  0  1  0  0  3  0  0  0  0  0  0
  179.1800  177.5460  139.1070 O   0  0  0  0  0  0  0  0  0  0  0  0
  185.3250  175.4470  135.4520 C   0  0  2  0  0  3  0  0  0  0  0  0
  186.8950  173.4660  135.5210 C   0  0  0  0  0  2  0  0  0  0  0  0
  181.4390  176.9260  139.5570 C   0  0  0  0  0  2  0  0  0  0  0  0
  181.9470  177.8870  137.1980 C   0  0  1  0  0  3  0  0  0  0  0  0
  178.9320  178.8730  138.7220 C   0  0  0  0  0  2  0  0  0  0  0  0
  182.2710  177.8900  138.7110 C   0  0  2  0  0  3  0  0  0  0  0  0
  182.7870  174.9850  138.1090 F   0  0  0  0  0  0  0  0  0  0  0  0
  182.4250  176.6290  136.4430 C   0  0  2  0  0  3  0  0  0  0  0  0
  183.4700  175.7810  137.2100 C   0  0  1  0  0  0  0  0  0  0  0  0
  186.0660  174.3910  134.6280 C   0  0  0  0  0  2  0  0  0  0  0  0
  187.1220  175.2840  137.2240 C   0  0  0  0  0  2  0  0  0  0  0  0
  180.5010  178.2700  136.8290 C   0  0  1  0  0  3  0  0  0  0  0  0
  179.9680  179.3880  137.7180 C   0  0  0  0  0  2  0  0  0  0  0  0
  186.3110  176.2320  136.3280 C   0  0  2  0  0  3  0  0  0  0  0  0
  188.6610  178.9860  138.5250 O   0  0  0  0  0  0  0  0  0  0  0  0
  189.2410  178.1100  139.4450 C   0  0  0  0  0  2  0  0  0  0  0  0
  190.1390  177.1340  138.7170 C   0  0  0  0  0  1  0  0  0  0  0  0
  1  5  1  6  0  0  0
  3 25  1  0  0  0  0
  4  1  1  0  0  0  0
  6  8  1  0  0  0  0
  6 28  1  0  0  0  0
  7 24  1  0  0  0  0
  8 11  2  0  0  0  0
  9 22  1  0  0  0  0
 10 21  1  0  0  0  0
 11  5  1  0  0  0  0
 12  8  1  0  0  0  0
 12  4  1  0  0  0  0
 13  2  1  0  0  0  0
 14  9  1  0  0  0  0
 14 27  1  0  0  0  0
 15  7  1  0  0  0  0
 16  2  1  0  0  0  0
 17 19  1  0  0  0  0
 18 13  1  0  0  0  0
 19  1  1  0  0  0  0
 19 16  1  0  0  0  0
 21 17  1  0  0  0  0
 21 22  1  0  0  0  0
 22  4  1  0  0  0  0
 22 20  1  0  0  0  0
 23 14  1  0  0  0  0
 23 15  1  0  0  0  0
 25 17  1  0  0  0  0
 25 26  1  0  0  0  0
 26 18  1  0  0  0  0
 27 12  1  0  0  0  0
 27 24  1  0  0  0  0
 28 29  1  0  0  0  0
 30 29  1  0  0  0  0
M  END
>  <MODEL>
8

>  <REMARK>
 VINA RESULT:      -5.1      3.897      5.408
  Name = 
  2 active torsions:
  status: ('A' for Active; 'I' for Inactive)
    1  A    between atoms: N_6  and  O_21
    2  A    between atoms: C_9  and  O_21
                            x       y       z     vdW  Elec       q    Type
                         _______ _______ _______ _____ _____    ______ ____

>  <TORSDO>
F 2

$$$$
=
 OpenBabel11052412363D

 30 34  0  0  1  0  0  0  0  0999 V2000
  184.1550  174.9040  136.7650 C   0  0  1  0  0  3  0  0  0  0  0  0
  180.7380  176.4440  136.9770 C   0  0  0  0  0  2  0  0  0  0  0  0
  183.5420  178.1600  140.5240 C   0  0  0  0  0  1  0  0  0  0  0  0
  185.4710  175.6400  136.3590 C   0  0  2  0  0  3  0  0  0  0  0  0
  184.3840  173.6590  137.6340 C   0  0  0  0  0  2  0  0  0  0  0  0
  187.9250  172.8590  136.8050 N   0  0  0  0  0  2  0  0  0  0  0  0
  189.5810  175.9880  134.5940 C   0  0  0  0  0  2  0  0  0  0  0  0
  186.7210  173.5910  137.0530 C   0  0  0  0  0  0  0  0  0  0  0  0
  186.7020  177.8470  135.9920 C   0  0  0  0  0  2  0  0  0  0  0  0
  185.9140  177.8650  138.6790 O   0  0  0  0  0  1  0  0  0  0  0  0
  185.6120  172.9550  137.2740 N   0  0  0  0  0  0  0  0  0  0  0  0
  186.7220  175.0990  137.0800 C   0  0  1  0  0  3  0  0  0  0  0  0
  180.5670  177.5870  137.7640 O   0  0  0  0  0  0  0  0  0  0  0  0
  187.9340  177.2570  136.6890 C   0  0  2  0  0  3  0  0  0  0  0  0
  189.4970  177.5070  134.7170 C   0  0  0  0  0  2  0  0  0  0  0  0
  182.1590  176.4050  136.4380 C   0  0  0  0  0  2  0  0  0  0  0  0
  183.7870  176.8010  138.4230 C   0  0  1  0  0  3  0  0  0  0  0  0
  180.3440  177.1350  139.0740 C   0  0  0  0  0  2  0  0  0  0  0  0
  183.1190  175.7920  137.4570 C   0  0  2  0  0  3  0  0  0  0  0  0
  184.4620  177.5800  135.4400 F   0  0  0  0  0  0  0  0  0  0  0  0
  184.8630  177.6940  137.7720 C   0  0  2  0  0  3  0  0  0  0  0  0
  185.3730  177.1850  136.4010 C   0  0  1  0  0  0  0  0  0  0  0  0
  189.2150  177.9120  136.1650 C   0  0  0  0  0  2  0  0  0  0  0  0
  188.2770  175.3510  135.0620 C   0  0  0  0  0  2  0  0  0  0  0  0
  182.8190  177.6100  139.3080 C   0  0  1  0  0  3  0  0  0  0  0  0
  181.6470  176.7610  139.7870 C   0  0  0  0  0  2  0  0  0  0  0  0
  188.0050  175.7330  136.5250 C   0  0  2  0  0  3  0  0  0  0  0  0
  187.9340  171.5050  136.7500 O   0  0  0  0  0  0  0  0  0  0  0  0
  188.1740  171.2010  135.4080 C   0  0  0  0  0  2  0  0  0  0  0  0
  189.4490  171.8800  134.9570 C   0  0  0  0  0  1  0  0  0  0  0  0
  1 19  1  0  0  0  0
  1  5  1  1  0  0  0
  2 13  1  0  0  0  0
  4 22  1  0  0  0  0
  4  1  1  0  0  0  0
  4 12  1  0  0  0  0
  6  8  1  0  0  0  0
  7 15  1  0  0  0  0
  7 24  1  0  0  0  0
  8 12  1  0  0  0  0
  8 11  2  0  0  0  0
  9 22  1  0  0  0  0
  9 14  1  0  0  0  0
 11  5  1  0  0  0  0
 13 18  1  0  0  0  0
 15 23  1  0  0  0  0
 16  2  1  0  0  0  0
 16 19  1  0  0  0  0
 17 25  1  0  0  0  0
 18 26  1  0  0  0  0
 19 17  1  0  0  0  0
 20 22  1  0  0  0  0
 21 17  1  0  0  0  0
 21 10  1  0  0  0  0
 22 21  1  0  0  0  0
 23 14  1  0  0  0  0
 24 27  1  0  0  0  0
 25 26  1  0  0  0  0
 25  3  1  0  0  0  0
 27 14  1  0  0  0  0
 27 12  1  0  0  0  0
 28  6  1  0  0  0  0
 29 28  1  0  0  0  0
 30 29  1  0  0  0  0
M  END
>  <MODEL>
9

>  <REMARK>
 VINA RESULT:      -4.8      5.349      7.013
  Name = 
  2 active torsions:
  status: ('A' for Active; 'I' for Inactive)
    1  A    between atoms: N_6  and  O_21
    2  A    between atoms: C_9  and  O_21
                            x       y       z     vdW  Elec       q    Type
                         _______ _______ _______ _____ _____    ______ ____

>  <TORSDO>
F 2

$$$$
