=
 OpenBabel11052412473D

 25 28  0  0  1  0  0  0  0  0999 V2000
  187.7970  177.8460  145.7040 N   0  0  0  0  0  0  0  0  0  0  0  0
  186.8540  177.5540  144.6190 C   0  0  2  0  0  3  0  0  0  0  0  0
  186.0680  178.5240  147.2290 C   0  0  0  0  0  3  0  0  0  0  0  0
  189.1250  177.3470  145.7960 C   0  0  0  0  0  0  0  0  0  0  0  0
  191.6930  176.3810  146.2650 C   0  0  0  0  0  3  0  0  0  0  0  0
  185.1330  178.5940  146.0890 C   0  0  0  0  0  3  0  0  0  0  0  0
  189.6590  177.3880  147.0750 C   0  0  0  0  0  0  0  0  0  0  0  0
  190.9430  176.9050  147.3280 C   0  0  0  0  0  3  0  0  0  0  0  0
  184.6500  178.3840  143.6850 C   0  0  0  0  0  0  0  0  0  0  0  0
  182.9180  178.6250  143.8390 Cl  0  0  0  0  0  0  0  0  0  0  0  0
  187.3930  177.9540  143.3170 N   0  0  0  0  0  0  0  0  0  0  0  0
  191.1520  176.3380  144.9700 C   0  0  0  0  0  3  0  0  0  0  0  0
  187.3400  178.1890  147.0130 C   0  0  0  0  0  0  0  0  0  0  0  0
  188.5590  178.0540  148.3260 S   0  0  0  0  0  0  0  0  0  0  0  0
  185.1980  178.4180  142.5060 N   0  0  0  0  0  0  0  0  0  0  0  0
  189.8580  176.8190  144.7290 C   0  0  0  0  0  3  0  0  0  0  0  0
  186.6200  178.2910  142.3230 C   0  0  0  0  0  0  0  0  0  0  0  0
  185.5080  178.1980  144.8650 C   0  0  0  0  0  0  0  0  0  0  0  0
  187.2180  178.5830  140.9930 C   0  0  0  0  0  2  0  0  0  0  0  0
  188.7330  178.5390  141.0910 C   0  0  0  0  0  2  0  0  0  0  0  0
  190.1580  176.7960  139.9610 C   0  0  0  0  0  0  0  0  0  0  0  0
  190.4350  176.2810  141.0780 O   0  0  0  0  0  0  0  0  0  0  0  0
  190.7390  176.1900  138.7290 C   0  0  0  0  0  1  0  0  0  0  0  0
  189.2980  177.9450  139.8880 N   0  0  0  0  0  0  0  0  0  0  0  0
  189.0550  178.6140  138.6200 C   0  0  0  0  0  1  0  0  0  0  0  0
  1  4  1  0  0  0  0
  1 13  1  0  0  0  0
  2 11  1  6  0  0  0
  2 18  1  0  0  0  0
  2  1  1  0  0  0  0
  4  7  1  0  0  0  0
  5  8  1  0  0  0  0
  6  3  1  0  0  0  0
  7  8  2  0  0  0  0
  7 14  1  0  0  0  0
  9 10  1  0  0  0  0
  9 18  1  0  0  0  0
 12  5  2  0  0  0  0
 13  3  2  0  0  0  0
 13 14  1  0  0  0  0
 15  9  2  0  0  0  0
 16 12  1  0  0  0  0
 16  4  2  0  0  0  0
 17 15  1  0  0  0  0
 17 11  2  0  0  0  0
 18  6  2  0  0  0  0
 19 20  1  0  0  0  0
 19 17  1  0  0  0  0
 21 22  2  0  0  0  0
 23 21  1  0  0  0  0
 24 21  1  0  0  0  0
 24 20  1  0  0  0  0
 25 24  1  0  0  0  0
M  END
>  <MODEL>
1

>  <REMARK>
 VINA RESULT:     -10.0      0.000      0.000
  Name = 
  3 active torsions:
  status: ('A' for Active; 'I' for Inactive)
    1  A    between atoms: C_6  and  C_15
    2  A    between atoms: C_6  and  C_23
    3  A    between atoms: C_15  and  N_21
                            x       y       z     vdW  Elec       q    Type
                         _______ _______ _______ _____ _____    ______ ____

>  <TORSDO>
F 3

$$$$
=
 OpenBabel11052412473D

 25 28  0  0  1  0  0  0  0  0999 V2000
  188.1980  177.7000  145.5060 N   0  0  0  0  0  0  0  0  0  0  0  0
  187.4290  177.4370  144.2850 C   0  0  2  0  0  3  0  0  0  0  0  0
  186.2580  178.3360  146.7720 C   0  0  0  0  0  3  0  0  0  0  0  0
  189.5000  177.2010  145.7810 C   0  0  0  0  0  0  0  0  0  0  0  0
  191.9740  176.2250  146.6030 C   0  0  0  0  0  3  0  0  0  0  0  0
  185.5030  178.4350  145.5070 C   0  0  0  0  0  3  0  0  0  0  0  0
  189.8370  177.2080  147.1260 C   0  0  0  0  0  0  0  0  0  0  0  0
  191.0710  176.7200  147.5550 C   0  0  0  0  0  3  0  0  0  0  0  0
  185.3850  178.2890  143.0540 C   0  0  0  0  0  0  0  0  0  0  0  0
  183.6480  178.5230  142.9540 Cl  0  0  0  0  0  0  0  0  0  0  0  0
  188.1540  177.8710  143.0880 N   0  0  0  0  0  0  0  0  0  0  0  0
  191.6330  176.2160  145.2410 C   0  0  0  0  0  3  0  0  0  0  0  0
  187.5490  178.0080  146.7400 C   0  0  0  0  0  0  0  0  0  0  0  0
  188.5600  177.8400  148.2160 S   0  0  0  0  0  0  0  0  0  0  0  0
  186.1030  178.3550  141.9710 N   0  0  0  0  0  0  0  0  0  0  0  0
  190.3870  176.7020  144.8220 C   0  0  0  0  0  3  0  0  0  0  0  0
  187.5360  178.2340  141.9990 C   0  0  0  0  0  0  0  0  0  0  0  0
  186.0590  178.0720  144.3430 C   0  0  0  0  0  0  0  0  0  0  0  0
  188.3250  178.5610  140.7820 C   0  0  0  0  0  2  0  0  0  0  0  0
  187.5080  178.2480  139.5400 C   0  0  0  0  0  2  0  0  0  0  0  0
  188.2220  178.3780  137.1280 C   0  0  0  0  0  0  0  0  0  0  0  0
  187.3130  179.2180  136.8920 O   0  0  0  0  0  0  0  0  0  0  0  0
  189.1180  177.9570  136.0120 C   0  0  0  0  0  1  0  0  0  0  0  0
  188.3850  177.8410  138.4510 N   0  0  0  0  0  0  0  0  0  0  0  0
  189.3580  176.7930  138.7160 C   0  0  0  0  0  1  0  0  0  0  0  0
  1  4  1  0  0  0  0
  1 13  1  0  0  0  0
  2 11  1  6  0  0  0
  2 18  1  0  0  0  0
  2  1  1  0  0  0  0
  4  7  1  0  0  0  0
  5  8  1  0  0  0  0
  6  3  1  0  0  0  0
  7  8  2  0  0  0  0
  7 14  1  0  0  0  0
  9 18  1  0  0  0  0
 10  9  1  0  0  0  0
 12  5  2  0  0  0  0
 13  3  2  0  0  0  0
 13 14  1  0  0  0  0
 15 17  1  0  0  0  0
 15  9  2  0  0  0  0
 16 12  1  0  0  0  0
 16  4  2  0  0  0  0
 17 11  2  0  0  0  0
 18  6  2  0  0  0  0
 19 17  1  0  0  0  0
 20 19  1  0  0  0  0
 21 24  1  0  0  0  0
 22 21  2  0  0  0  0
 23 21  1  0  0  0  0
 24 25  1  0  0  0  0
 24 20  1  0  0  0  0
M  END
>  <MODEL>
2

>  <REMARK>
 VINA RESULT:      -9.4      1.577      1.825
  Name = 
  3 active torsions:
  status: ('A' for Active; 'I' for Inactive)
    1  A    between atoms: C_6  and  C_15
    2  A    between atoms: C_6  and  C_23
    3  A    between atoms: C_15  and  N_21
                            x       y       z     vdW  Elec       q    Type
                         _______ _______ _______ _____ _____    ______ ____

>  <TORSDO>
F 3

$$$$
=
 OpenBabel11052412473D

 25 28  0  0  1  0  0  0  0  0999 V2000
  187.0760  177.8330  145.3520 N   0  0  0  0  0  0  0  0  0  0  0  0
  188.5060  177.8760  145.0320 C   0  0  2  0  0  3  0  0  0  0  0  0
  187.4560  177.6480  147.7180 C   0  0  0  0  0  3  0  0  0  0  0  0
  186.0290  178.2790  144.5010 C   0  0  0  0  0  0  0  0  0  0  0  0
  183.8300  179.2190  143.0770 C   0  0  0  0  0  3  0  0  0  0  0  0
  188.8690  177.3270  147.4340 C   0  0  0  0  0  3  0  0  0  0  0  0
  184.8370  178.5460  145.1600 C   0  0  0  0  0  0  0  0  0  0  0  0
  183.7270  179.0210  144.4610 C   0  0  0  0  0  3  0  0  0  0  0  0
  190.7100  176.9310  145.8500 C   0  0  0  0  0  0  0  0  0  0  0  0
  191.9640  176.8150  147.0740 Cl  0  0  0  0  0  0  0  0  0  0  0  0
  188.8060  177.1310  143.8070 N   0  0  0  0  0  0  0  0  0  0  0  0
  185.0350  178.9510  142.4100 C   0  0  0  0  0  3  0  0  0  0  0  0
  186.6160  177.8590  146.7050 C   0  0  0  0  0  0  0  0  0  0  0  0
  184.8830  178.2740  146.9320 S   0  0  0  0  0  0  0  0  0  0  0  0
  190.9740  176.5700  144.6290 N   0  0  0  0  0  0  0  0  0  0  0  0
  186.1470  178.4810  143.1230 C   0  0  0  0  0  3  0  0  0  0  0  0
  189.9700  176.5830  143.5980 C   0  0  0  0  0  0  0  0  0  0  0  0
  189.3490  177.3770  146.1840 C   0  0  0  0  0  0  0  0  0  0  0  0
  190.2510  175.9320  142.2900 C   0  0  0  0  0  2  0  0  0  0  0  0
  190.7400  176.9690  141.2940 C   0  0  0  0  0  2  0  0  0  0  0  0
  189.9530  176.3990  138.9700 C   0  0  0  0  0  0  0  0  0  0  0  0
  190.9400  175.6320  138.8110 O   0  0  0  0  0  0  0  0  0  0  0  0
  188.9740  176.5490  137.8550 C   0  0  0  0  0  1  0  0  0  0  0  0
  189.7820  177.1120  140.2070 N   0  0  0  0  0  0  0  0  0  0  0  0
  188.7100  178.0810  140.3670 C   0  0  0  0  0  1  0  0  0  0  0  0
  1 13  1  0  0  0  0
  2 11  1  6  0  0  0
  2  1  1  0  0  0  0
  2 18  1  0  0  0  0
  4  7  1  0  0  0  0
  4  1  1  0  0  0  0
  5  8  1  0  0  0  0
  6  3  1  0  0  0  0
  7 14  1  0  0  0  0
  8  7  2  0  0  0  0
  9 18  1  0  0  0  0
  9 10  1  0  0  0  0
 12  5  2  0  0  0  0
 12 16  1  0  0  0  0
 13 14  1  0  0  0  0
 13  3  2  0  0  0  0
 15  9  2  0  0  0  0
 16  4  2  0  0  0  0
 17 11  2  0  0  0  0
 17 15  1  0  0  0  0
 18  6  2  0  0  0  0
 19 17  1  0  0  0  0
 20 19  1  0  0  0  0
 21 24  1  0  0  0  0
 22 21  2  0  0  0  0
 23 21  1  0  0  0  0
 24 25  1  0  0  0  0
 24 20  1  0  0  0  0
M  END
>  <MODEL>
3

>  <REMARK>
 VINA RESULT:      -8.9      2.547      4.696
  Name = 
  3 active torsions:
  status: ('A' for Active; 'I' for Inactive)
    1  A    between atoms: C_6  and  C_15
    2  A    between atoms: C_6  and  C_23
    3  A    between atoms: C_15  and  N_21
                            x       y       z     vdW  Elec       q    Type
                         _______ _______ _______ _____ _____    ______ ____

>  <TORSDO>
F 3

$$$$
=
 OpenBabel11052412473D

 25 28  0  0  1  0  0  0  0  0999 V2000
  187.6200  177.8780  145.5480 N   0  0  0  0  0  0  0  0  0  0  0  0
  186.5450  177.6210  144.5850 C   0  0  2  0  0  3  0  0  0  0  0  0
  186.1040  178.5210  147.2980 C   0  0  0  0  0  3  0  0  0  0  0  0
  188.9450  177.3720  145.4570 C   0  0  0  0  0  0  0  0  0  0  0  0
  191.5440  176.3830  145.5690 C   0  0  0  0  0  3  0  0  0  0  0  0
  185.0320  178.6270  146.2890 C   0  0  0  0  0  3  0  0  0  0  0  0
  189.6370  177.3750  146.6580 C   0  0  0  0  0  0  0  0  0  0  0  0
  190.9390  176.8800  146.7320 C   0  0  0  0  0  3  0  0  0  0  0  0
  184.2460  178.4860  143.9610 C   0  0  0  0  0  0  0  0  0  0  0  0
  182.5490  178.7290  144.3410 Cl  0  0  0  0  0  0  0  0  0  0  0  0
  186.9160  178.0540  143.2360 N   0  0  0  0  0  0  0  0  0  0  0  0
  190.8430  176.3780  144.3530 C   0  0  0  0  0  3  0  0  0  0  0  0
  187.3350  178.1870  146.9140 C   0  0  0  0  0  0  0  0  0  0  0  0
  188.7110  178.0110  148.0560 S   0  0  0  0  0  0  0  0  0  0  0  0
  184.6400  178.5510  142.7230 N   0  0  0  0  0  0  0  0  0  0  0  0
  189.5330  176.8710  144.2910 C   0  0  0  0  0  3  0  0  0  0  0  0
  186.0260  178.4220  142.3580 C   0  0  0  0  0  0  0  0  0  0  0  0
  185.2460  178.2640  145.0170 C   0  0  0  0  0  0  0  0  0  0  0  0
  186.4530  178.7490  140.9710 C   0  0  0  0  0  2  0  0  0  0  0  0
  185.2320  178.9910  140.1010 C   0  0  0  0  0  2  0  0  0  0  0  0
  184.2440  177.5430  138.2920 C   0  0  0  0  0  0  0  0  0  0  0  0
  183.1350  177.5320  138.8900 O   0  0  0  0  0  0  0  0  0  0  0  0
  184.3740  176.7950  137.0080 C   0  0  0  0  0  1  0  0  0  0  0  0
  185.3570  178.2640  138.8450 N   0  0  0  0  0  0  0  0  0  0  0  0
  186.6700  178.1990  138.2250 C   0  0  0  0  0  1  0  0  0  0  0  0
  1 13  1  0  0  0  0
  2 11  1  6  0  0  0
  2 18  1  0  0  0  0
  2  1  1  0  0  0  0
  4  1  1  0  0  0  0
  4  7  1  0  0  0  0
  5  8  1  0  0  0  0
  6  3  1  0  0  0  0
  7  8  2  0  0  0  0
  7 14  1  0  0  0  0
  9 10  1  0  0  0  0
  9 18  1  0  0  0  0
 12  5  2  0  0  0  0
 13  3  2  0  0  0  0
 13 14  1  0  0  0  0
 15  9  2  0  0  0  0
 16 12  1  0  0  0  0
 16  4  2  0  0  0  0
 17 15  1  0  0  0  0
 17 11  2  0  0  0  0
 18  6  2  0  0  0  0
 19 17  1  0  0  0  0
 20 19  1  0  0  0  0
 21 24  1  0  0  0  0
 21 22  2  0  0  0  0
 23 21  1  0  0  0  0
 24 20  1  0  0  0  0
 25 24  1  0  0  0  0
M  END
>  <MODEL>
4

>  <REMARK>
 VINA RESULT:      -8.9      2.307      2.703
  Name = 
  3 active torsions:
  status: ('A' for Active; 'I' for Inactive)
    1  A    between atoms: C_6  and  C_15
    2  A    between atoms: C_6  and  C_23
    3  A    between atoms: C_15  and  N_21
                            x       y       z     vdW  Elec       q    Type
                         _______ _______ _______ _____ _____    ______ ____

>  <TORSDO>
F 3

$$$$
=
 OpenBabel11052412473D

 25 28  0  0  1  0  0  0  0  0999 V2000
  186.5990  178.3070  144.5860 N   0  0  0  0  0  0  0  0  0  0  0  0
  186.3870  177.9360  143.1830 C   0  0  2  0  0  3  0  0  0  0  0  0
  184.3460  179.0920  144.8760 C   0  0  0  0  0  3  0  0  0  0  0  0
  187.6430  177.8200  145.4170 C   0  0  0  0  0  0  0  0  0  0  0  0
  189.5050  176.8960  147.2690 C   0  0  0  0  0  3  0  0  0  0  0  0
  184.1850  179.0760  143.4090 C   0  0  0  0  0  3  0  0  0  0  0  0
  187.3970  177.9550  146.7750 C   0  0  0  0  0  0  0  0  0  0  0  0
  188.3180  177.4940  147.7160 C   0  0  0  0  0  3  0  0  0  0  0  0
  185.0790  178.6900  141.1490 C   0  0  0  0  0  0  0  0  0  0  0  0
  183.5510  178.9380  140.3190 Cl  0  0  0  0  0  0  0  0  0  0  0  0
  187.5620  178.2400  142.3630 N   0  0  0  0  0  0  0  0  0  0  0  0
  189.7530  176.7570  145.8950 C   0  0  0  0  0  3  0  0  0  0  0  0
  185.5170  178.7450  145.4100 C   0  0  0  0  0  0  0  0  0  0  0  0
  185.8210  178.7080  147.1800 S   0  0  0  0  0  0  0  0  0  0  0  0
  186.1800  178.6400  140.4600 N   0  0  0  0  0  0  0  0  0  0  0  0
  188.8180  177.2160  144.9580 C   0  0  0  0  0  3  0  0  0  0  0  0
  187.4670  178.5020  141.0900 C   0  0  0  0  0  0  0  0  0  0  0  0
  185.1500  178.5930  142.6150 C   0  0  0  0  0  0  0  0  0  0  0  0
  188.7020  178.6970  140.2860 C   0  0  0  0  0  2  0  0  0  0  0  0
  189.2690  177.3490  139.8770 C   0  0  0  0  0  2  0  0  0  0  0  0
  190.3590  176.2830  137.8720 C   0  0  0  0  0  0  0  0  0  0  0  0
  190.7670  175.3280  138.5860 O   0  0  0  0  0  0  0  0  0  0  0  0
  190.6900  176.2840  136.4180 C   0  0  0  0  0  1  0  0  0  0  0  0
  189.5890  177.3470  138.4570 N   0  0  0  0  0  0  0  0  0  0  0  0
  189.2030  178.5070  137.6710 C   0  0  0  0  0  1  0  0  0  0  0  0
  1 13  1  0  0  0  0
  1  4  1  0  0  0  0
  2 11  1  6  0  0  0
  2  1  1  0  0  0  0
  3 13  2  0  0  0  0
  4  7  1  0  0  0  0
  5  8  1  0  0  0  0
  6  3  1  0  0  0  0
  7 14  1  0  0  0  0
  7  8  2  0  0  0  0
  9 18  1  0  0  0  0
 10  9  1  0  0  0  0
 12  5  2  0  0  0  0
 13 14  1  0  0  0  0
 15 17  1  0  0  0  0
 15  9  2  0  0  0  0
 16  4  2  0  0  0  0
 16 12  1  0  0  0  0
 17 11  2  0  0  0  0
 18  2  1  0  0  0  0
 18  6  2  0  0  0  0
 19 17  1  0  0  0  0
 20 19  1  0  0  0  0
 21 24  1  0  0  0  0
 21 22  2  0  0  0  0
 23 21  1  0  0  0  0
 24 20  1  0  0  0  0
 25 24  1  0  0  0  0
M  END
>  <MODEL>
5

>  <REMARK>
 VINA RESULT:      -8.9      1.604      2.225
  Name = 
  3 active torsions:
  status: ('A' for Active; 'I' for Inactive)
    1  A    between atoms: C_6  and  C_15
    2  A    between atoms: C_6  and  C_23
    3  A    between atoms: C_15  and  N_21
                            x       y       z     vdW  Elec       q    Type
                         _______ _______ _______ _____ _____    ______ ____

>  <TORSDO>
F 3

$$$$
=
 OpenBabel11052412473D

 25 28  0  0  1  0  0  0  0  0999 V2000
  188.9670  177.4440  143.2840 N   0  0  0  0  0  0  0  0  0  0  0  0
  189.5230  177.8770  141.9980 C   0  0  2  0  0  3  0  0  0  0  0  0
  191.1280  177.0420  144.2550 C   0  0  0  0  0  3  0  0  0  0  0  0
  187.6560  177.7300  143.7510 C   0  0  0  0  0  0  0  0  0  0  0  0
  185.2000  178.2860  144.9360 C   0  0  0  0  0  3  0  0  0  0  0  0
  191.7160  177.1180  142.9030 C   0  0  0  0  0  3  0  0  0  0  0  0
  187.5040  177.6070  145.1240 C   0  0  0  0  0  0  0  0  0  0  0  0
  186.2810  177.8850  145.7340 C   0  0  0  0  0  3  0  0  0  0  0  0
  191.4860  177.3990  140.4690 C   0  0  0  0  0  0  0  0  0  0  0  0
  193.2110  177.4300  140.1390 Cl  0  0  0  0  0  0  0  0  0  0  0  0
  188.7150  177.3990  140.8730 N   0  0  0  0  0  0  0  0  0  0  0  0
  185.3530  178.4120  143.5470 C   0  0  0  0  0  3  0  0  0  0  0  0
  189.8110  177.1760  144.4050 C   0  0  0  0  0  0  0  0  0  0  0  0
  188.9900  177.1200  146.0020 S   0  0  0  0  0  0  0  0  0  0  0  0
  190.6490  177.2800  139.4810 N   0  0  0  0  0  0  0  0  0  0  0  0
  186.5890  178.1380  142.9450 C   0  0  0  0  0  3  0  0  0  0  0  0
  189.2290  177.1850  139.6940 C   0  0  0  0  0  0  0  0  0  0  0  0
  190.9650  177.4500  141.8430 C   0  0  0  0  0  0  0  0  0  0  0  0
  188.3400  176.8030  138.5650 C   0  0  0  0  0  2  0  0  0  0  0  0
  187.7750  178.0520  137.9110 C   0  0  0  0  0  2  0  0  0  0  0  0
  185.3580  178.3690  138.5470 C   0  0  0  0  0  0  0  0  0  0  0  0
  185.7020  178.9650  139.6030 O   0  0  0  0  0  0  0  0  0  0  0  0
  183.9050  178.1870  138.2680 C   0  0  0  0  0  1  0  0  0  0  0  0
  186.3560  177.8780  137.6360 N   0  0  0  0  0  0  0  0  0  0  0  0
  185.9790  177.0950  136.4700 C   0  0  0  0  0  1  0  0  0  0  0  0
  1  4  1  0  0  0  0
  1 13  1  0  0  0  0
  2 11  1  6  0  0  0
  2  1  1  0  0  0  0
  3 13  2  0  0  0  0
  4  7  1  0  0  0  0
  5  8  1  0  0  0  0
  6  3  1  0  0  0  0
  7  8  2  0  0  0  0
  7 14  1  0  0  0  0
  9 18  1  0  0  0  0
 10  9  1  0  0  0  0
 12  5  2  0  0  0  0
 13 14  1  0  0  0  0
 15 17  1  0  0  0  0
 15  9  2  0  0  0  0
 16 12  1  0  0  0  0
 16  4  2  0  0  0  0
 17 11  2  0  0  0  0
 18  2  1  0  0  0  0
 18  6  2  0  0  0  0
 19 17  1  0  0  0  0
 20 19  1  0  0  0  0
 21 22  2  0  0  0  0
 23 21  1  0  0  0  0
 24 20  1  0  0  0  0
 24 21  1  0  0  0  0
 25 24  1  0  0  0  0
M  END
>  <MODEL>
6

>  <REMARK>
 VINA RESULT:      -8.4      3.172      5.371
  Name = 
  3 active torsions:
  status: ('A' for Active; 'I' for Inactive)
    1  A    between atoms: C_6  and  C_15
    2  A    between atoms: C_6  and  C_23
    3  A    between atoms: C_15  and  N_21
                            x       y       z     vdW  Elec       q    Type
                         _______ _______ _______ _____ _____    ______ ____

>  <TORSDO>
F 3

$$$$
=
 OpenBabel11052412473D

 25 28  0  0  1  0  0  0  0  0999 V2000
  189.1940  177.4880  144.1340 N   0  0  0  0  0  0  0  0  0  0  0  0
  188.5300  178.2770  143.0910 C   0  0  2  0  0  3  0  0  0  0  0  0
  191.1180  177.0240  142.7720 C   0  0  0  0  0  3  0  0  0  0  0  0
  188.8930  177.5410  145.5220 C   0  0  0  0  0  0  0  0  0  0  0  0
  188.5850  177.5820  148.2880 C   0  0  0  0  0  3  0  0  0  0  0  0
  190.3570  177.4870  141.5940 C   0  0  0  0  0  3  0  0  0  0  0  0
  189.9050  177.0620  146.3400 C   0  0  0  0  0  0  0  0  0  0  0  0
  189.7680  177.0780  147.7280 C   0  0  0  0  0  3  0  0  0  0  0  0
  188.2970  178.3600  140.5690 C   0  0  0  0  0  0  0  0  0  0  0  0
  188.9940  178.6100  138.9770 Cl  0  0  0  0  0  0  0  0  0  0  0  0
  187.0850  178.0380  143.0730 N   0  0  0  0  0  0  0  0  0  0  0  0
  187.5610  178.0700  147.4610 C   0  0  0  0  0  3  0  0  0  0  0  0
  190.5300  177.0110  143.9670 C   0  0  0  0  0  0  0  0  0  0  0  0
  191.3640  176.4860  145.4700 S   0  0  0  0  0  0  0  0  0  0  0  0
  187.0080  178.4310  140.7210 N   0  0  0  0  0  0  0  0  0  0  0  0
  187.7120  178.0560  146.0680 C   0  0  0  0  0  3  0  0  0  0  0  0
  186.3750  178.1730  141.9880 C   0  0  0  0  0  0  0  0  0  0  0  0
  189.1340  178.0180  141.7290 C   0  0  0  0  0  0  0  0  0  0  0  0
  184.8970  178.0220  142.0540 C   0  0  0  0  0  2  0  0  0  0  0  0
  184.2730  179.3040  142.5770 C   0  0  0  0  0  2  0  0  0  0  0  0
  181.8250  178.9070  143.0170 C   0  0  0  0  0  0  0  0  0  0  0  0
  181.5630  179.0930  141.7980 O   0  0  0  0  0  0  0  0  0  0  0  0
  180.7050  178.5950  143.9510 C   0  0  0  0  0  1  0  0  0  0  0  0
  183.1800  178.9960  143.4880 N   0  0  0  0  0  0  0  0  0  0  0  0
  183.4840  178.8910  144.9060 C   0  0  0  0  0  1  0  0  0  0  0  0
  1  4  1  0  0  0  0
  2 18  1  6  0  0  0
  2  1  1  0  0  0  0
  3 13  2  0  0  0  0
  4 16  2  0  0  0  0
  4  7  1  0  0  0  0
  6 18  2  0  0  0  0
  6  3  1  0  0  0  0
  7  8  2  0  0  0  0
  8  5  1  0  0  0  0
  9 15  2  0  0  0  0
  9 18  1  0  0  0  0
 10  9  1  0  0  0  0
 11  2  1  0  0  0  0
 12  5  2  0  0  0  0
 13  1  1  0  0  0  0
 13 14  1  0  0  0  0
 14  7  1  0  0  0  0
 15 17  1  0  0  0  0
 16 12  1  0  0  0  0
 17 19  1  0  0  0  0
 17 11  2  0  0  0  0
 19 20  1  0  0  0  0
 20 24  1  0  0  0  0
 21 24  1  0  0  0  0
 21 23  1  0  0  0  0
 22 21  2  0  0  0  0
 24 25  1  0  0  0  0
M  END
>  <MODEL>
7

>  <REMARK>
 VINA RESULT:      -8.4      3.067      5.523
  Name = 
  3 active torsions:
  status: ('A' for Active; 'I' for Inactive)
    1  A    between atoms: C_6  and  C_15
    2  A    between atoms: C_6  and  C_23
    3  A    between atoms: C_15  and  N_21
                            x       y       z     vdW  Elec       q    Type
                         _______ _______ _______ _____ _____    ______ ____

>  <TORSDO>
F 3

$$$$
=
 OpenBabel11052412473D

 25 28  0  0  1  0  0  0  0  0999 V2000
  189.2860  177.6260  143.7430 N   0  0  0  0  0  0  0  0  0  0  0  0
  188.1870  177.3130  144.6620 C   0  0  2  0  0  3  0  0  0  0  0  0
  190.9800  177.2870  145.4140 C   0  0  0  0  0  3  0  0  0  0  0  0
  189.2070  177.5960  142.3250 C   0  0  0  0  0  0  0  0  0  0  0  0
  189.3330  177.4630  139.5470 C   0  0  0  0  0  3  0  0  0  0  0  0
  189.9250  177.3190  146.4460 C   0  0  0  0  0  3  0  0  0  0  0  0
  190.4360  177.4960  141.6900 C   0  0  0  0  0  0  0  0  0  0  0  0
  190.5160  177.4250  140.2990 C   0  0  0  0  0  3  0  0  0  0  0  0
  187.5660  177.5590  147.1060 C   0  0  0  0  0  0  0  0  0  0  0  0
  187.8230  177.1590  148.7960 Cl  0  0  0  0  0  0  0  0  0  0  0  0
  187.0280  178.1780  144.4290 N   0  0  0  0  0  0  0  0  0  0  0  0
  188.0890  177.5610  140.1890 C   0  0  0  0  0  3  0  0  0  0  0  0
  190.6500  177.4630  144.1350 C   0  0  0  0  0  0  0  0  0  0  0  0
  191.8470  177.4250  142.7940 S   0  0  0  0  0  0  0  0  0  0  0  0
  186.4270  178.0640  146.7350 N   0  0  0  0  0  0  0  0  0  0  0  0
  188.0190  177.6240  141.5870 C   0  0  0  0  0  3  0  0  0  0  0  0
  186.1820  178.4700  145.3760 C   0  0  0  0  0  0  0  0  0  0  0  0
  188.6310  177.3870  146.1050 C   0  0  0  0  0  0  0  0  0  0  0  0
  184.9660  179.2640  145.0550 C   0  0  0  0  0  2  0  0  0  0  0  0
  185.0120  179.7110  143.6040 C   0  0  0  0  0  2  0  0  0  0  0  0
  184.0480  178.9110  141.4180 C   0  0  0  0  0  0  0  0  0  0  0  0
  185.0600  179.3390  140.8020 O   0  0  0  0  0  0  0  0  0  0  0  0
  182.9610  178.2490  140.6400 C   0  0  0  0  0  1  0  0  0  0  0  0
  183.9520  179.0620  142.8450 N   0  0  0  0  0  0  0  0  0  0  0  0
  182.7470  178.6700  143.5570 C   0  0  0  0  0  1  0  0  0  0  0  0
  1 13  1  0  0  0  0
  1  2  1  0  0  0  0
  2 11  1  1  0  0  0
  2 18  1  0  0  0  0
  3  6  1  0  0  0  0
  4  1  1  0  0  0  0
  5 12  2  0  0  0  0
  5  8  1  0  0  0  0
  7  4  1  0  0  0  0
  7 14  1  0  0  0  0
  8  7  2  0  0  0  0
  9 10  1  0  0  0  0
 11 17  2  0  0  0  0
 12 16  1  0  0  0  0
 13  3  2  0  0  0  0
 14 13  1  0  0  0  0
 15  9  2  0  0  0  0
 16  4  2  0  0  0  0
 17 15  1  0  0  0  0
 18  6  2  0  0  0  0
 18  9  1  0  0  0  0
 19 17  1  0  0  0  0
 20 19  1  0  0  0  0
 21 24  1  0  0  0  0
 22 21  2  0  0  0  0
 23 21  1  0  0  0  0
 24 25  1  0  0  0  0
 24 20  1  0  0  0  0
M  END
>  <MODEL>
8

>  <REMARK>
 VINA RESULT:      -8.3      2.717      5.386
  Name = 
  3 active torsions:
  status: ('A' for Active; 'I' for Inactive)
    1  A    between atoms: C_6  and  C_15
    2  A    between atoms: C_6  and  C_23
    3  A    between atoms: C_15  and  N_21
                            x       y       z     vdW  Elec       q    Type
                         _______ _______ _______ _____ _____    ______ ____

>  <TORSDO>
F 3

$$$$
=
 OpenBabel11052412473D

 25 28  0  0  1  0  0  0  0  0999 V2000
  188.9150  177.8240  143.2150 N   0  0  0  0  0  0  0  0  0  0  0  0
  187.5320  177.5300  143.6020 C   0  0  2  0  0  3  0  0  0  0  0  0
  189.7030  177.8580  145.4850 C   0  0  0  0  0  3  0  0  0  0  0  0
  189.4720  177.6050  141.9260 C   0  0  0  0  0  0  0  0  0  0  0  0
  190.8180  177.1310  139.5360 C   0  0  0  0  0  3  0  0  0  0  0  0
  188.3000  177.9240  145.9380 C   0  0  0  0  0  3  0  0  0  0  0  0
  190.8580  177.5390  141.9110 C   0  0  0  0  0  0  0  0  0  0  0  0
  191.5470  177.2990  140.7220 C   0  0  0  0  0  3  0  0  0  0  0  0
  185.8870  178.0280  145.4640 C   0  0  0  0  0  0  0  0  0  0  0  0
  185.3800  177.8720  147.1380 Cl  0  0  0  0  0  0  0  0  0  0  0  0
  186.5730  178.2480  142.7580 N   0  0  0  0  0  0  0  0  0  0  0  0
  189.4170  177.1960  139.5510 C   0  0  0  0  0  3  0  0  0  0  0  0
  189.9690  177.8380  144.1790 C   0  0  0  0  0  0  0  0  0  0  0  0
  191.6360  177.7390  143.5140 S   0  0  0  0  0  0  0  0  0  0  0  0
  185.0170  178.3750  144.5620 N   0  0  0  0  0  0  0  0  0  0  0  0
  188.7330  177.4300  140.7520 C   0  0  0  0  0  3  0  0  0  0  0  0
  185.3880  178.5800  143.1860 C   0  0  0  0  0  0  0  0  0  0  0  0
  187.2880  177.8280  145.0640 C   0  0  0  0  0  0  0  0  0  0  0  0
  184.4190  179.2110  142.2510 C   0  0  0  0  0  2  0  0  0  0  0  0
  184.1700  178.2900  141.0700 C   0  0  0  0  0  2  0  0  0  0  0  0
  183.2560  179.7430  139.2270 C   0  0  0  0  0  0  0  0  0  0  0  0
  184.4130  180.1750  138.9770 O   0  0  0  0  0  0  0  0  0  0  0  0
  182.1110  180.2490  138.4160 C   0  0  0  0  0  1  0  0  0  0  0  0
  183.0530  178.7810  140.2750 N   0  0  0  0  0  0  0  0  0  0  0  0
  181.7140  178.3530  140.6470 C   0  0  0  0  0  1  0  0  0  0  0  0
  1  2  1  0  0  0  0
  1 13  1  0  0  0  0
  2 11  1  6  0  0  0
  2 18  1  0  0  0  0
  3  6  1  0  0  0  0
  4  1  1  0  0  0  0
  5 12  2  0  0  0  0
  5  8  1  0  0  0  0
  7  4  1  0  0  0  0
  7 14  1  0  0  0  0
  8  7  2  0  0  0  0
  9 10  1  0  0  0  0
 11 17  2  0  0  0  0
 12 16  1  0  0  0  0
 13  3  2  0  0  0  0
 14 13  1  0  0  0  0
 15  9  2  0  0  0  0
 16  4  2  0  0  0  0
 17 15  1  0  0  0  0
 18  9  1  0  0  0  0
 18  6  2  0  0  0  0
 19 17  1  0  0  0  0
 20 19  1  0  0  0  0
 21 24  1  0  0  0  0
 22 21  2  0  0  0  0
 23 21  1  0  0  0  0
 24 25  1  0  0  0  0
 24 20  1  0  0  0  0
M  END
>  <MODEL>
9

>  <REMARK>
 VINA RESULT:      -8.3      3.006      5.037
  Name = 
  3 active torsions:
  status: ('A' for Active; 'I' for Inactive)
    1  A    between atoms: C_6  and  C_15
    2  A    between atoms: C_6  and  C_23
    3  A    between atoms: C_15  and  N_21
                            x       y       z     vdW  Elec       q    Type
                         _______ _______ _______ _____ _____    ______ ____

>  <TORSDO>
F 3

$$$$
