=
 OpenBabel11052413493D

 27 31  0  0  1  0  0  0  0  0999 V2000
  187.5180  178.5520  141.9810 O   0  0  0  0  0  0  0  0  0  0  0  0
  187.9500  177.5800  144.1220 C   0  0  0  0  0  0  0  0  0  0  0  0
  189.6510  176.5380  142.6230 N   0  0  0  0  0  2  0  0  0  0  0  0
  190.4540  177.0640  147.3800 N   0  0  0  0  0  0  0  0  0  0  0  0
  191.6730  176.4700  147.2660 C   0  0  0  0  0  0  0  0  0  0  0  0
  187.5900  177.9940  145.3710 N   0  0  0  0  0  0  0  0  0  0  0  0
  191.3040  176.1830  144.9010 C   0  0  0  0  0  3  0  0  0  0  0  0
  190.1540  177.2060  139.0080 C   0  0  0  0  0  0  0  0  0  0  0  0
  192.1190  176.0190  146.0220 C   0  0  0  0  0  3  0  0  0  0  0  0
  191.0480  176.7190  137.9260 C   0  0  0  0  0  1  0  0  0  0  0  0
  190.0480  176.7920  145.0290 C   0  0  0  0  0  0  0  0  0  0  0  0
  186.9880  177.7000  142.9810 C   0  0  1  0  0  3  0  0  0  0  0  0
  192.4950  176.3100  148.4150 N   0  0  0  0  0  1  0  0  0  0  0  0
  189.6420  177.2330  146.3040 C   0  0  0  0  0  0  0  0  0  0  0  0
  188.4570  178.1100  141.0500 C   0  0  0  0  0  0  0  0  0  0  0  0
  189.2090  176.9860  143.9170 C   0  0  0  0  0  0  0  0  0  0  0  0
  190.2260  176.6380  140.2800 C   0  0  0  0  0  3  0  0  0  0  0  0
  188.4000  177.8420  146.4500 C   0  0  0  0  0  3  0  0  0  0  0  0
  189.2660  178.2510  138.7630 C   0  0  0  0  0  3  0  0  0  0  0  0
  188.4220  178.6990  139.7810 C   0  0  0  0  0  3  0  0  0  0  0  0
  189.3980  177.0830  141.3180 C   0  0  0  0  0  0  0  0  0  0  0  0
  183.0400  178.9710  144.1170 C   0  0  0  0  0  3  0  0  0  0  0  0
  185.6190  178.1590  143.3890 C   0  0  0  0  0  0  0  0  0  0  0  0
  184.6240  178.2970  142.4150 C   0  0  0  0  0  3  0  0  0  0  0  0
  183.3370  178.7050  142.7780 C   0  0  0  0  0  3  0  0  0  0  0  0
  184.0290  178.8290  145.0960 C   0  0  0  0  0  3  0  0  0  0  0  0
  185.3160  178.4220  144.7330 C   0  0  0  0  0  3  0  0  0  0  0  0
  1 12  1  0  0  0  0
  2  6  1  0  0  0  0
  3 16  1  0  0  0  0
  5  4  1  0  0  0  0
  5 13  1  0  0  0  0
  6 18  2  0  0  0  0
  7 11  2  0  0  0  0
  7  9  1  0  0  0  0
  8 17  1  0  0  0  0
  9  5  2  0  0  0  0
 10  8  1  0  0  0  0
 11 14  1  0  0  0  0
 12 23  1  1  0  0  0
 12  2  1  0  0  0  0
 14 18  1  0  0  0  0
 14  4  2  0  0  0  0
 15 21  1  0  0  0  0
 15  1  1  0  0  0  0
 16  2  2  0  0  0  0
 16 11  1  0  0  0  0
 17 21  2  0  0  0  0
 19  8  2  0  0  0  0
 19 20  1  0  0  0  0
 20 15  2  0  0  0  0
 21  3  1  0  0  0  0
 22 26  1  0  0  0  0
 23 27  1  0  0  0  0
 24 25  1  0  0  0  0
 24 23  2  0  0  0  0
 25 22  2  0  0  0  0
 27 26  2  0  0  0  0
M  END
>  <MODEL>
1

>  <REMARK>
 VINA RESULT:     -11.4      0.000      0.000
  Name = 
  1 active torsions:
  status: ('A' for Active; 'I' for Inactive)
    1  A    between atoms: C_9  and  C_15
                            x       y       z     vdW  Elec       q    Type
                         _______ _______ _______ _____ _____    ______ ____

>  <TORSDO>
F 1

$$$$
=
 OpenBabel11052413493D

 27 31  0  0  1  0  0  0  0  0999 V2000
  189.6510  178.2610  141.9320 O   0  0  0  0  0  0  0  0  0  0  0  0
  187.3240  178.0690  141.4190 C   0  0  0  0  0  0  0  0  0  0  0  0
  187.4840  177.3610  143.8050 N   0  0  0  0  0  2  0  0  0  0  0  0
  183.4130  179.2990  142.0100 N   0  0  0  0  0  0  0  0  0  0  0  0
  182.7900  179.1680  143.2120 C   0  0  0  0  0  0  0  0  0  0  0  0
  186.5900  178.6240  140.4110 N   0  0  0  0  0  0  0  0  0  0  0  0
  184.7920  178.1910  144.1350 C   0  0  0  0  0  3  0  0  0  0  0  0
  190.5430  177.2460  145.9030 C   0  0  0  0  0  0  0  0  0  0  0  0
  183.4710  178.6110  144.2970 C   0  0  0  0  0  3  0  0  0  0  0  0
  190.8960  176.8550  147.2920 C   0  0  0  0  0  1  0  0  0  0  0  0
  185.4240  178.3280  142.8920 C   0  0  0  0  0  0  0  0  0  0  0  0
  188.7040  177.5540  141.1510 C   0  0  1  0  0  3  0  0  0  0  0  0
  181.4450  179.6000  143.3650 N   0  0  0  0  0  1  0  0  0  0  0  0
  184.6990  178.8970  141.8280 C   0  0  0  0  0  0  0  0  0  0  0  0
  189.8770  177.9650  143.2740 C   0  0  0  0  0  0  0  0  0  0  0  0
  186.7600  177.9290  142.7000 C   0  0  0  0  0  0  0  0  0  0  0  0
  189.2380  177.0740  145.4390 C   0  0  0  0  0  3  0  0  0  0  0  0
  185.3100  179.0420  140.5870 C   0  0  0  0  0  3  0  0  0  0  0  0
  191.5070  177.8120  145.0700 C   0  0  0  0  0  3  0  0  0  0  0  0
  191.1720  178.1690  143.7640 C   0  0  0  0  0  3  0  0  0  0  0  0
  188.8800  177.4400  144.1360 C   0  0  0  0  0  0  0  0  0  0  0  0
  189.7860  177.5840  136.9900 C   0  0  0  0  0  3  0  0  0  0  0  0
  189.0910  177.5840  139.7020 C   0  0  0  0  0  0  0  0  0  0  0  0
  189.6630  176.4460  139.1220 C   0  0  0  0  0  3  0  0  0  0  0  0
  190.0130  176.4460  137.7690 C   0  0  0  0  0  3  0  0  0  0  0  0
  189.2100  178.7220  137.5620 C   0  0  0  0  0  3  0  0  0  0  0  0
  188.8600  178.7220  138.9150 C   0  0  0  0  0  3  0  0  0  0  0  0
  1 15  1  0  0  0  0
  2 16  1  0  0  0  0
  3 21  1  0  0  0  0
  4  5  2  0  0  0  0
  5 13  1  0  0  0  0
  5  9  1  0  0  0  0
  6 18  1  0  0  0  0
  6  2  2  0  0  0  0
  7  9  2  0  0  0  0
  8 10  1  0  0  0  0
 11  7  1  0  0  0  0
 12 23  1  6  0  0  0
 12  2  1  0  0  0  0
 12  1  1  0  0  0  0
 14  4  1  0  0  0  0
 14 11  1  0  0  0  0
 15 20  2  0  0  0  0
 15 21  1  0  0  0  0
 16 11  2  0  0  0  0
 16  3  1  0  0  0  0
 17  8  1  0  0  0  0
 18 14  2  0  0  0  0
 19  8  2  0  0  0  0
 20 19  1  0  0  0  0
 21 17  2  0  0  0  0
 22 26  2  0  0  0  0
 22 25  1  0  0  0  0
 24 23  1  0  0  0  0
 25 24  2  0  0  0  0
 26 27  1  0  0  0  0
 27 23  2  0  0  0  0
M  END
>  <MODEL>
2

>  <REMARK>
 VINA RESULT:     -10.3      2.203      6.866
  Name = 
  1 active torsions:
  status: ('A' for Active; 'I' for Inactive)
    1  A    between atoms: C_9  and  C_15
                            x       y       z     vdW  Elec       q    Type
                         _______ _______ _______ _____ _____    ______ ____

>  <TORSDO>
F 1

$$$$
=
 OpenBabel11052413493D

 27 31  0  0  1  0  0  0  0  0999 V2000
  186.8140  178.8210  140.5060 O   0  0  0  0  0  0  0  0  0  0  0  0
  186.1190  178.2100  142.7110 C   0  0  0  0  0  0  0  0  0  0  0  0
  188.3180  177.0690  142.4260 N   0  0  0  0  0  2  0  0  0  0  0  0
  186.6840  178.3510  146.8120 N   0  0  0  0  0  0  0  0  0  0  0  0
  187.7900  177.8270  147.4050 C   0  0  0  0  0  0  0  0  0  0  0  0
  185.1970  178.7820  143.5390 N   0  0  0  0  0  0  0  0  0  0  0  0
  188.6280  177.1660  145.2440 C   0  0  0  0  0  3  0  0  0  0  0  0
  190.5490  177.2200  139.4640 C   0  0  0  0  0  0  0  0  0  0  0  0
  188.7830  177.2250  146.6290 C   0  0  0  0  0  3  0  0  0  0  0  0
  191.8510  176.6360  139.0510 C   0  0  0  0  0  1  0  0  0  0  0  0
  187.4840  177.7050  144.6410 C   0  0  0  0  0  0  0  0  0  0  0  0
  185.8460  178.0960  141.2430 C   0  0  1  0  0  3  0  0  0  0  0  0
  187.9370  177.8940  148.8180 N   0  0  0  0  0  1  0  0  0  0  0  0
  186.5100  178.3040  145.4650 C   0  0  0  0  0  0  0  0  0  0  0  0
  188.0820  178.3070  140.2390 C   0  0  0  0  0  0  0  0  0  0  0  0
  187.3050  177.6750  143.2460 C   0  0  0  0  0  0  0  0  0  0  0  0
  189.9740  176.8540  140.6820 C   0  0  0  0  0  3  0  0  0  0  0  0
  185.3680  178.8460  144.8850 C   0  0  0  0  0  3  0  0  0  0  0  0
  189.9140  178.1570  138.6500 C   0  0  0  0  0  3  0  0  0  0  0  0
  188.6870  178.6960  139.0380 C   0  0  0  0  0  3  0  0  0  0  0  0
  188.7510  177.3950  141.0950 C   0  0  0  0  0  0  0  0  0  0  0  0
  181.8900  179.2990  140.0590 C   0  0  0  0  0  3  0  0  0  0  0  0
  184.4620  178.5210  140.8500 C   0  0  0  0  0  0  0  0  0  0  0  0
  184.2850  179.3060  139.7050 C   0  0  0  0  0  3  0  0  0  0  0  0
  183.0020  179.6960  139.3110 C   0  0  0  0  0  3  0  0  0  0  0  0
  182.0600  178.5110  141.2010 C   0  0  0  0  0  3  0  0  0  0  0  0
  183.3430  178.1200  141.5950 C   0  0  0  0  0  3  0  0  0  0  0  0
  1 12  1  0  0  0  0
  2 16  2  0  0  0  0
  2  6  1  0  0  0  0
  3 16  1  0  0  0  0
  4  5  1  0  0  0  0
  5 13  1  0  0  0  0
  6 18  2  0  0  0  0
  7  9  1  0  0  0  0
  8 17  1  0  0  0  0
  9  5  2  0  0  0  0
 10  8  1  0  0  0  0
 11  7  2  0  0  0  0
 11 14  1  0  0  0  0
 12 23  1  1  0  0  0
 12  2  1  0  0  0  0
 14  4  2  0  0  0  0
 15  1  1  0  0  0  0
 15 21  1  0  0  0  0
 16 11  1  0  0  0  0
 17 21  2  0  0  0  0
 18 14  1  0  0  0  0
 19 20  1  0  0  0  0
 19  8  2  0  0  0  0
 20 15  2  0  0  0  0
 21  3  1  0  0  0  0
 22 26  1  0  0  0  0
 23 27  1  0  0  0  0
 24 23  2  0  0  0  0
 25 24  1  0  0  0  0
 25 22  2  0  0  0  0
 26 27  2  0  0  0  0
M  END
>  <MODEL>
3

>  <REMARK>
 VINA RESULT:     -10.3      1.874      2.883
  Name = 
  1 active torsions:
  status: ('A' for Active; 'I' for Inactive)
    1  A    between atoms: C_9  and  C_15
                            x       y       z     vdW  Elec       q    Type
                         _______ _______ _______ _____ _____    ______ ____

>  <TORSDO>
F 1

$$$$
=
 OpenBabel11052413493D

 27 31  0  0  1  0  0  0  0  0999 V2000
  189.5400  176.7350  142.6650 O   0  0  0  0  0  0  0  0  0  0  0  0
  187.7510  177.7880  143.8510 C   0  0  0  0  0  0  0  0  0  0  0  0
  187.5180  178.6340  141.5160 N   0  0  0  0  0  2  0  0  0  0  0  0
  183.6910  178.3110  144.4830 N   0  0  0  0  0  0  0  0  0  0  0  0
  182.8710  178.8150  143.5220 C   0  0  0  0  0  0  0  0  0  0  0  0
  187.1670  177.4660  145.0420 N   0  0  0  0  0  0  0  0  0  0  0  0
  184.7520  179.0010  142.0240 C   0  0  0  0  0  3  0  0  0  0  0  0
  189.6250  177.7430  138.5940 C   0  0  0  0  0  0  0  0  0  0  0  0
  183.3890  179.1690  142.2740 C   0  0  0  0  0  3  0  0  0  0  0  0
  189.7050  178.1120  137.1570 C   0  0  0  0  0  1  0  0  0  0  0  0
  185.5890  178.4830  143.0210 C   0  0  0  0  0  0  0  0  0  0  0  0
  189.2350  177.6710  143.6830 C   0  0  1  0  0  3  0  0  0  0  0  0
  181.4850  178.9810  143.7870 N   0  0  0  0  0  1  0  0  0  0  0  0
  185.0210  178.1380  144.2630 C   0  0  0  0  0  0  0  0  0  0  0  0
  189.4840  177.0630  141.3120 C   0  0  0  0  0  0  0  0  0  0  0  0
  186.9640  178.2860  142.7960 C   0  0  0  0  0  0  0  0  0  0  0  0
  188.6980  178.3720  139.4260 C   0  0  0  0  0  3  0  0  0  0  0  0
  185.8370  177.6210  145.2650 C   0  0  0  0  0  3  0  0  0  0  0  0
  190.4550  176.7470  139.1070 C   0  0  0  0  0  3  0  0  0  0  0  0
  190.3820  176.4120  140.4590 C   0  0  0  0  0  3  0  0  0  0  0  0
  188.6000  178.0380  140.7820 C   0  0  0  0  0  0  0  0  0  0  0  0
  191.3720  176.7010  147.2860 C   0  0  0  0  0  3  0  0  0  0  0  0
  189.9620  177.3260  144.9490 C   0  0  0  0  0  0  0  0  0  0  0  0
  191.1690  176.6230  144.8750 C   0  0  0  0  0  3  0  0  0  0  0  0
  191.8720  176.3080  146.0420 C   0  0  0  0  0  3  0  0  0  0  0  0
  190.1680  177.4090  147.3660 C   0  0  0  0  0  3  0  0  0  0  0  0
  189.4650  177.7230  146.1990 C   0  0  0  0  0  3  0  0  0  0  0  0
  1 12  1  0  0  0  0
  2  6  1  0  0  0  0
  3 16  1  0  0  0  0
  5 13  1  0  0  0  0
  5  4  2  0  0  0  0
  6 18  2  0  0  0  0
  7  9  2  0  0  0  0
  7 11  1  0  0  0  0
  8 19  2  0  0  0  0
  8 17  1  0  0  0  0
  9  5  1  0  0  0  0
 10  8  1  0  0  0  0
 11 14  2  0  0  0  0
 12  2  1  0  0  0  0
 12 23  1  1  0  0  0
 14  4  1  0  0  0  0
 14 18  1  0  0  0  0
 15  1  1  0  0  0  0
 16 11  1  0  0  0  0
 16  2  2  0  0  0  0
 17 21  2  0  0  0  0
 19 20  1  0  0  0  0
 20 15  2  0  0  0  0
 21 15  1  0  0  0  0
 21  3  1  0  0  0  0
 22 26  1  0  0  0  0
 23 27  1  0  0  0  0
 24 23  2  0  0  0  0
 24 25  1  0  0  0  0
 25 22  2  0  0  0  0
 27 26  2  0  0  0  0
M  END
>  <MODEL>
4

>  <REMARK>
 VINA RESULT:     -10.2      1.793      5.761
  Name = 
  1 active torsions:
  status: ('A' for Active; 'I' for Inactive)
    1  A    between atoms: C_9  and  C_15
                            x       y       z     vdW  Elec       q    Type
                         _______ _______ _______ _____ _____    ______ ____

>  <TORSDO>
F 1

$$$$
=
 OpenBabel11052413493D

 27 31  0  0  1  0  0  0  0  0999 V2000
  189.6330  176.7240  141.3690 O   0  0  0  0  0  0  0  0  0  0  0  0
  187.9380  177.7990  142.6680 C   0  0  0  0  0  0  0  0  0  0  0  0
  187.5530  178.6340  140.3490 N   0  0  0  0  0  2  0  0  0  0  0  0
  183.9350  178.3590  143.5730 N   0  0  0  0  0  0  0  0  0  0  0  0
  183.0560  178.8660  142.6680 C   0  0  0  0  0  0  0  0  0  0  0  0
  187.4340  177.4880  143.8980 N   0  0  0  0  0  0  0  0  0  0  0  0
  184.8300  179.0270  141.0440 C   0  0  0  0  0  3  0  0  0  0  0  0
  189.4470  177.7090  137.2950 C   0  0  0  0  0  0  0  0  0  0  0  0
  183.4900  179.2080  141.3850 C   0  0  0  0  0  3  0  0  0  0  0  0
  189.4310  178.0700  135.8540 C   0  0  0  0  0  1  0  0  0  0  0  0
  185.7300  178.5070  141.9840 C   0  0  0  0  0  0  0  0  0  0  0  0
  189.4050  177.6680  142.3990 C   0  0  1  0  0  3  0  0  0  0  0  0
  181.6920  179.0450  143.0260 N   0  0  0  0  0  1  0  0  0  0  0  0
  185.2460  178.1740  143.2640 C   0  0  0  0  0  0  0  0  0  0  0  0
  189.4860  177.0450  140.0200 C   0  0  0  0  0  0  0  0  0  0  0  0
  187.0850  178.2980  141.6670 C   0  0  0  0  0  0  0  0  0  0  0  0
  188.5840  178.3510  138.1850 C   0  0  0  0  0  3  0  0  0  0  0  0
  186.1240  177.6560  144.2110 C   0  0  0  0  0  3  0  0  0  0  0  0
  190.3010  176.7100  137.7560 C   0  0  0  0  0  3  0  0  0  0  0  0
  190.3190  176.3820  139.1120 C   0  0  0  0  0  3  0  0  0  0  0  0
  188.5770  178.0250  139.5460 C   0  0  0  0  0  0  0  0  0  0  0  0
  191.7740  176.6690  145.8460 C   0  0  0  0  0  3  0  0  0  0  0  0
  190.2150  177.3240  143.6140 C   0  0  0  0  0  0  0  0  0  0  0  0
  191.0020  176.1670  143.6080 C   0  0  0  0  0  3  0  0  0  0  0  0
  191.7780  175.8380  144.7220 C   0  0  0  0  0  3  0  0  0  0  0  0
  190.9940  177.8290  145.8570 C   0  0  0  0  0  3  0  0  0  0  0  0
  190.2170  178.1580  144.7420 C   0  0  0  0  0  3  0  0  0  0  0  0
  1 12  1  0  0  0  0
  2  6  1  0  0  0  0
  3 16  1  0  0  0  0
  5 13  1  0  0  0  0
  5  4  2  0  0  0  0
  6 18  2  0  0  0  0
  7  9  2  0  0  0  0
  7 11  1  0  0  0  0
  8 19  2  0  0  0  0
  8 17  1  0  0  0  0
  9  5  1  0  0  0  0
 10  8  1  0  0  0  0
 11 14  2  0  0  0  0
 12  2  1  0  0  0  0
 12 23  1  1  0  0  0
 14  4  1  0  0  0  0
 14 18  1  0  0  0  0
 15  1  1  0  0  0  0
 16 11  1  0  0  0  0
 16  2  2  0  0  0  0
 17 21  2  0  0  0  0
 19 20  1  0  0  0  0
 20 15  2  0  0  0  0
 21 15  1  0  0  0  0
 21  3  1  0  0  0  0
 22 26  1  0  0  0  0
 23 27  1  0  0  0  0
 24 23  2  0  0  0  0
 24 25  1  0  0  0  0
 25 22  2  0  0  0  0
 27 26  2  0  0  0  0
M  END
>  <MODEL>
5

>  <REMARK>
 VINA RESULT:      -9.9      2.130      5.943
  Name = 
  1 active torsions:
  status: ('A' for Active; 'I' for Inactive)
    1  A    between atoms: C_9  and  C_15
                            x       y       z     vdW  Elec       q    Type
                         _______ _______ _______ _____ _____    ______ ____

>  <TORSDO>
F 1

$$$$
=
 OpenBabel11052413493D

 27 31  0  0  1  0  0  0  0  0999 V2000
  186.8170  177.4520  143.1850 O   0  0  0  0  0  0  0  0  0  0  0  0
  188.1160  177.8930  141.2270 C   0  0  0  0  0  0  0  0  0  0  0  0
  189.7290  178.1800  143.1080 N   0  0  0  0  0  2  0  0  0  0  0  0
  191.2160  176.8640  138.6790 N   0  0  0  0  0  0  0  0  0  0  0  0
  192.5110  176.8380  139.0930 C   0  0  0  0  0  0  0  0  0  0  0  0
  187.8890  177.5670  139.9210 N   0  0  0  0  0  0  0  0  0  0  0  0
  191.8100  177.5010  141.3030 C   0  0  0  0  0  3  0  0  0  0  0  0
  189.0480  177.7250  146.7270 C   0  0  0  0  0  0  0  0  0  0  0  0
  192.8300  177.1560  140.4160 C   0  0  0  0  0  3  0  0  0  0  0  0
  189.8030  177.8520  148.0010 C   0  0  0  0  0  1  0  0  0  0  0  0
  190.4790  177.5290  140.8660 C   0  0  0  0  0  0  0  0  0  0  0  0
  186.9870  178.3450  142.0990 C   0  0  1  0  0  3  0  0  0  0  0  0
  193.5420  176.4840  138.1810 N   0  0  0  0  0  1  0  0  0  0  0  0
  190.2050  177.1980  139.5240 C   0  0  0  0  0  0  0  0  0  0  0  0
  187.6220  177.5030  144.3220 C   0  0  0  0  0  0  0  0  0  0  0  0
  189.4260  177.8570  141.7390 C   0  0  0  0  0  0  0  0  0  0  0  0
  189.6580  178.0640  145.5180 C   0  0  0  0  0  3  0  0  0  0  0  0
  188.8900  177.2180  139.0730 C   0  0  0  0  0  3  0  0  0  0  0  0
  187.7430  177.2380  146.7340 C   0  0  0  0  0  3  0  0  0  0  0  0
  187.0360  177.1290  145.5360 C   0  0  0  0  0  3  0  0  0  0  0  0
  188.9690  177.9480  144.3050 C   0  0  0  0  0  0  0  0  0  0  0  0
  183.2510  178.9030  140.0430 C   0  0  0  0  0  3  0  0  0  0  0  0
  185.6910  178.5300  141.3650 C   0  0  0  0  0  0  0  0  0  0  0  0
  184.4870  178.2530  142.0210 C   0  0  0  0  0  3  0  0  0  0  0  0
  183.2680  178.4370  141.3610 C   0  0  0  0  0  3  0  0  0  0  0  0
  184.4510  179.1870  139.3850 C   0  0  0  0  0  3  0  0  0  0  0  0
  185.6690  179.0030  140.0440 C   0  0  0  0  0  3  0  0  0  0  0  0
  1 15  1  0  0  0  0
  2 16  1  0  0  0  0
  2 12  1  0  0  0  0
  3 21  1  0  0  0  0
  4  5  2  0  0  0  0
  4 14  1  0  0  0  0
  5  9  1  0  0  0  0
  6  2  2  0  0  0  0
  8 19  1  0  0  0  0
  8 10  1  0  0  0  0
  9  7  2  0  0  0  0
 11  7  1  0  0  0  0
 11 16  2  0  0  0  0
 12 23  1  6  0  0  0
 12  1  1  0  0  0  0
 13  5  1  0  0  0  0
 14 11  1  0  0  0  0
 15 20  1  0  0  0  0
 16  3  1  0  0  0  0
 17  8  2  0  0  0  0
 18 14  2  0  0  0  0
 18  6  1  0  0  0  0
 20 19  2  0  0  0  0
 21 15  2  0  0  0  0
 21 17  1  0  0  0  0
 22 25  1  0  0  0  0
 23 24  1  0  0  0  0
 25 24  2  0  0  0  0
 26 22  2  0  0  0  0
 26 27  1  0  0  0  0
 27 23  2  0  0  0  0
M  END
>  <MODEL>
6

>  <REMARK>
 VINA RESULT:      -9.8      2.289      5.671
  Name = 
  1 active torsions:
  status: ('A' for Active; 'I' for Inactive)
    1  A    between atoms: C_9  and  C_15
                            x       y       z     vdW  Elec       q    Type
                         _______ _______ _______ _____ _____    ______ ____

>  <TORSDO>
F 1

$$$$
=
 OpenBabel11052413493D

 27 31  0  0  1  0  0  0  0  0999 V2000
  188.0680  178.2330  145.0770 O   0  0  0  0  0  0  0  0  0  0  0  0
  189.1400  177.3880  143.1140 C   0  0  0  0  0  0  0  0  0  0  0  0
  186.7380  177.5710  142.4680 N   0  0  0  0  0  2  0  0  0  0  0  0
  190.2780  177.8780  139.1620 N   0  0  0  0  0  0  0  0  0  0  0  0
  189.3670  178.0260  138.1630 C   0  0  0  0  0  0  0  0  0  0  0  0
  190.4540  177.4030  142.7470 N   0  0  0  0  0  0  0  0  0  0  0  0
  187.5820  177.8670  139.7760 C   0  0  0  0  0  3  0  0  0  0  0  0
  183.9450  178.8210  144.5680 C   0  0  0  0  0  0  0  0  0  0  0  0
  188.0010  178.0230  138.4540 C   0  0  0  0  0  3  0  0  0  0  0  0
  182.4770  179.0020  144.4310 C   0  0  0  0  0  1  0  0  0  0  0  0
  188.5270  177.7120  140.7980 C   0  0  0  0  0  0  0  0  0  0  0  0
  188.7580  177.1210  144.5380 C   0  0  1  0  0  3  0  0  0  0  0  0
  189.8050  178.1860  136.8200 N   0  0  0  0  0  1  0  0  0  0  0  0
  189.8940  177.7230  140.4570 C   0  0  0  0  0  0  0  0  0  0  0  0
  186.7150  178.4590  144.8300 C   0  0  0  0  0  0  0  0  0  0  0  0
  188.1390  177.5670  142.1430 C   0  0  0  0  0  0  0  0  0  0  0  0
  184.6750  178.2290  143.5360 C   0  0  0  0  0  3  0  0  0  0  0  0
  190.8480  177.5720  141.4580 C   0  0  0  0  0  3  0  0  0  0  0  0
  184.6010  179.2680  145.7130 C   0  0  0  0  0  3  0  0  0  0  0  0
  185.9780  179.0870  145.8410 C   0  0  0  0  0  3  0  0  0  0  0  0
  186.0600  178.0520  143.6400 C   0  0  0  0  0  0  0  0  0  0  0  0
  192.0380  176.0280  147.0950 C   0  0  0  0  0  3  0  0  0  0  0  0
  189.9160  176.7460  145.4150 C   0  0  0  0  0  0  0  0  0  0  0  0
  189.9020  177.1180  146.7640 C   0  0  0  0  0  3  0  0  0  0  0  0
  190.9620  176.7620  147.6020 C   0  0  0  0  0  3  0  0  0  0  0  0
  192.0560  175.6490  145.7490 C   0  0  0  0  0  3  0  0  0  0  0  0
  190.9960  176.0050  144.9110 C   0  0  0  0  0  3  0  0  0  0  0  0
  2 12  1  0  0  0  0
  3 21  1  0  0  0  0
  4 14  1  0  0  0  0
  5  9  1  0  0  0  0
  5  4  2  0  0  0  0
  6  2  1  0  0  0  0
  7 11  1  0  0  0  0
  8 19  1  0  0  0  0
  9  7  2  0  0  0  0
 10  8  1  0  0  0  0
 11 16  1  0  0  0  0
 12  1  1  0  0  0  0
 12 23  1  1  0  0  0
 13  5  1  0  0  0  0
 14 11  2  0  0  0  0
 14 18  1  0  0  0  0
 15  1  1  0  0  0  0
 15 20  1  0  0  0  0
 16  3  1  0  0  0  0
 16  2  2  0  0  0  0
 17 21  1  0  0  0  0
 17  8  2  0  0  0  0
 18  6  2  0  0  0  0
 19 20  2  0  0  0  0
 21 15  2  0  0  0  0
 22 25  1  0  0  0  0
 23 24  1  0  0  0  0
 24 25  2  0  0  0  0
 26 22  2  0  0  0  0
 27 23  2  0  0  0  0
 27 26  1  0  0  0  0
M  END
>  <MODEL>
7

>  <REMARK>
 VINA RESULT:      -9.7      1.972      6.979
  Name = 
  1 active torsions:
  status: ('A' for Active; 'I' for Inactive)
    1  A    between atoms: C_9  and  C_15
                            x       y       z     vdW  Elec       q    Type
                         _______ _______ _______ _____ _____    ______ ____

>  <TORSDO>
F 1

$$$$
=
 OpenBabel11052413493D

 27 31  0  0  1  0  0  0  0  0999 V2000
  188.2420  177.0510  143.3960 O   0  0  0  0  0  0  0  0  0  0  0  0
  186.1670  178.2350  143.5040 C   0  0  0  0  0  0  0  0  0  0  0  0
  186.9880  178.6510  141.1860 N   0  0  0  0  0  2  0  0  0  0  0  0
  182.2520  178.7220  142.2430 N   0  0  0  0  0  0  0  0  0  0  0  0
  181.9420  179.0230  140.9540 C   0  0  0  0  0  0  0  0  0  0  0  0
  185.1180  178.1060  144.3680 N   0  0  0  0  0  0  0  0  0  0  0  0
  184.2880  179.0070  140.3940 C   0  0  0  0  0  3  0  0  0  0  0  0
  190.0960  177.3350  139.6440 C   0  0  0  0  0  0  0  0  0  0  0  0
  182.9570  179.1710  140.0050 C   0  0  0  0  0  3  0  0  0  0  0  0
  190.7960  177.4500  138.3380 C   0  0  0  0  0  1  0  0  0  0  0  0
  184.5970  178.7000  141.7260 C   0  0  0  0  0  0  0  0  0  0  0  0
  187.5740  178.1400  144.0080 C   0  0  1  0  0  3  0  0  0  0  0  0
  180.5840  179.1860  140.5690 N   0  0  0  0  0  1  0  0  0  0  0  0
  183.5400  178.5590  142.6460 C   0  0  0  0  0  0  0  0  0  0  0  0
  188.7810  177.1360  142.1140 C   0  0  0  0  0  0  0  0  0  0  0  0
  185.9270  178.5140  142.1460 C   0  0  0  0  0  0  0  0  0  0  0  0
  188.9320  178.0680  139.8780 C   0  0  0  0  0  3  0  0  0  0  0  0
  183.8270  178.2530  143.9720 C   0  0  0  0  0  3  0  0  0  0  0  0
  190.5830  176.4730  140.6240 C   0  0  0  0  0  3  0  0  0  0  0  0
  189.9270  176.3760  141.8520 C   0  0  0  0  0  3  0  0  0  0  0  0
  188.2520  177.9730  141.0980 C   0  0  0  0  0  0  0  0  0  0  0  0
  187.9290  177.8870  148.2860 C   0  0  0  0  0  3  0  0  0  0  0  0
  187.6770  178.0460  145.5020 C   0  0  0  0  0  0  0  0  0  0  0  0
  188.7750  177.3930  146.0730 C   0  0  0  0  0  3  0  0  0  0  0  0
  188.9000  177.3110  147.4620 C   0  0  0  0  0  3  0  0  0  0  0  0
  186.8320  178.5460  147.7210 C   0  0  0  0  0  3  0  0  0  0  0  0
  186.7070  178.6280  146.3320 C   0  0  0  0  0  3  0  0  0  0  0  0
  1 12  1  0  0  0  0
  2 12  1  0  0  0  0
  2  6  1  0  0  0  0
  3 16  1  0  0  0  0
  4 14  1  0  0  0  0
  5  4  2  0  0  0  0
  7 11  1  0  0  0  0
  8 17  2  0  0  0  0
  8 19  1  0  0  0  0
  9  7  2  0  0  0  0
  9  5  1  0  0  0  0
 10  8  1  0  0  0  0
 11 16  1  0  0  0  0
 11 14  2  0  0  0  0
 12 23  1  1  0  0  0
 13  5  1  0  0  0  0
 14 18  1  0  0  0  0
 15  1  1  0  0  0  0
 16  2  2  0  0  0  0
 17 21  1  0  0  0  0
 18  6  2  0  0  0  0
 19 20  2  0  0  0  0
 20 15  1  0  0  0  0
 21  3  1  0  0  0  0
 21 15  2  0  0  0  0
 23 24  2  0  0  0  0
 23 27  1  0  0  0  0
 24 25  1  0  0  0  0
 25 22  2  0  0  0  0
 26 22  1  0  0  0  0
 27 26  2  0  0  0  0
M  END
>  <MODEL>
8

>  <REMARK>
 VINA RESULT:      -9.6      2.647      6.130
  Name = 
  1 active torsions:
  status: ('A' for Active; 'I' for Inactive)
    1  A    between atoms: C_9  and  C_15
                            x       y       z     vdW  Elec       q    Type
                         _______ _______ _______ _____ _____    ______ ____

>  <TORSDO>
F 1

$$$$
=
 OpenBabel11052413493D

 27 31  0  0  1  0  0  0  0  0999 V2000
  190.0730  177.9810  142.7350 O   0  0  0  0  0  0  0  0  0  0  0  0
  188.3230  177.7500  141.1220 C   0  0  0  0  0  0  0  0  0  0  0  0
  187.1930  177.3560  143.3110 N   0  0  0  0  0  2  0  0  0  0  0  0
  184.7620  179.0900  139.4850 N   0  0  0  0  0  0  0  0  0  0  0  0
  183.6060  179.1230  140.2010 C   0  0  0  0  0  0  0  0  0  0  0  0
  188.2490  178.1780  139.8280 N   0  0  0  0  0  0  0  0  0  0  0  0
  184.7790  178.2520  142.1190 C   0  0  0  0  0  3  0  0  0  0  0  0
  188.7400  177.4800  146.6810 C   0  0  0  0  0  0  0  0  0  0  0  0
  183.5960  178.7040  141.5340 C   0  0  0  0  0  3  0  0  0  0  0  0
  188.3070  177.2690  148.0860 C   0  0  0  0  0  1  0  0  0  0  0  0
  185.9640  178.2190  141.3720 C   0  0  0  0  0  0  0  0  0  0  0  0
  189.6030  177.1890  141.6590 C   0  0  1  0  0  3  0  0  0  0  0  0
  182.4070  179.5860  139.5940 N   0  0  0  0  0  1  0  0  0  0  0  0
  185.9270  178.6530  140.0330 C   0  0  0  0  0  0  0  0  0  0  0  0
  189.5610  177.8590  144.0250 C   0  0  0  0  0  0  0  0  0  0  0  0
  187.1770  177.7840  141.9380 C   0  0  0  0  0  0  0  0  0  0  0  0
  187.8440  177.2640  145.6340 C   0  0  0  0  0  3  0  0  0  0  0  0
  187.0940  178.6290  139.2760 C   0  0  0  0  0  3  0  0  0  0  0  0
  190.0330  177.9220  146.4080 C   0  0  0  0  0  3  0  0  0  0  0  0
  190.4380  178.1100  145.0860 C   0  0  0  0  0  3  0  0  0  0  0  0
  188.2270  177.4610  144.3020 C   0  0  0  0  0  0  0  0  0  0  0  0
  192.7120  176.7020  138.7280 C   0  0  0  0  0  3  0  0  0  0  0  0
  190.6740  177.0260  140.6210 C   0  0  0  0  0  0  0  0  0  0  0  0
  191.9630  177.5030  140.8860 C   0  0  0  0  0  3  0  0  0  0  0  0
  192.9800  177.3440  139.9410 C   0  0  0  0  0  3  0  0  0  0  0  0
  191.4280  176.2190  138.4600 C   0  0  0  0  0  3  0  0  0  0  0  0
  190.4110  176.3780  139.4050 C   0  0  0  0  0  3  0  0  0  0  0  0
  1 15  1  0  0  0  0
  2 12  1  0  0  0  0
  2 16  1  0  0  0  0
  3 21  1  0  0  0  0
  4 14  1  0  0  0  0
  4  5  2  0  0  0  0
  5  9  1  0  0  0  0
  6  2  2  0  0  0  0
  8 10  1  0  0  0  0
  9  7  2  0  0  0  0
 11 16  2  0  0  0  0
 11  7  1  0  0  0  0
 12 23  1  6  0  0  0
 12  1  1  0  0  0  0
 13  5  1  0  0  0  0
 14 11  1  0  0  0  0
 15 21  2  0  0  0  0
 15 20  1  0  0  0  0
 16  3  1  0  0  0  0
 17  8  2  0  0  0  0
 18  6  1  0  0  0  0
 18 14  2  0  0  0  0
 19  8  1  0  0  0  0
 20 19  2  0  0  0  0
 21 17  1  0  0  0  0
 22 25  1  0  0  0  0
 23 24  1  0  0  0  0
 25 24  2  0  0  0  0
 26 22  2  0  0  0  0
 26 27  1  0  0  0  0
 27 23  2  0  0  0  0
M  END
>  <MODEL>
9

>  <REMARK>
 VINA RESULT:      -9.6      2.543      7.660
  Name = 
  1 active torsions:
  status: ('A' for Active; 'I' for Inactive)
    1  A    between atoms: C_9  and  C_15
                            x       y       z     vdW  Elec       q    Type
                         _______ _______ _______ _____ _____    ______ ____

>  <TORSDO>
F 1

$$$$
