=
 OpenBabel11052415353D

 37 36  0  0  1  0  0  0  0  0999 V2000
  191.3860  177.8480  139.8620 O   0  0  0  0  0  1  0  0  0  0  0  0
  190.3150  177.2500  140.5460 C   0  0  1  0  0  0  0  0  0  0  0  0
  191.8080  177.9290  142.3380 O   0  0  0  0  0  1  0  0  0  0  0  0
  190.5200  177.4630  142.0580 C   0  0  2  0  0  3  0  0  0  0  0  0
  190.1920  176.2370  142.9130 C   0  0  0  0  0  2  0  0  0  0  0  0
  189.1800  176.5480  144.0110 C   0  0  0  0  0  2  0  0  0  0  0  0
  191.2090  176.8460  145.2170 F   0  0  0  0  0  0  0  0  0  0  0  0
  189.8600  177.1470  145.2340 C   0  0  0  0  0  0  0  0  0  0  0  0
  189.2910  176.6110  146.3720 F   0  0  0  0  0  0  0  0  0  0  0  0
  189.6910  178.5190  145.2480 F   0  0  0  0  0  0  0  0  0  0  0  0
  188.9940  177.9350  140.1340 C   0  0  2  0  0  3  0  0  0  0  0  0
  188.3460  178.6840  137.7450 C   0  0  0  0  0  0  0  0  0  0  0  0
  189.1440  178.7640  138.9330 N   0  0  0  0  0  2  0  0  0  0  0  0
  187.3640  177.6650  137.5840 N   0  0  0  0  0  1  0  0  0  0  0  0
  188.5300  179.5150  136.8200 O   0  0  0  0  0  0  0  0  0  0  0  0
  188.2890  178.6760  141.2720 C   0  0  0  0  0  2  0  0  0  0  0  0
  186.7950  178.4210  141.2100 C   0  0  0  0  0  2  0  0  0  0  0  0
  186.2420  178.2450  142.6060 C   0  0  0  0  0  2  0  0  0  0  0  0
  184.8340  179.3720  142.8290 S   0  0  0  0  0  0  0  0  0  0  0  0
  183.2640  178.7700  145.0600 S   0  0  0  0  0  0  0  0  0  0  0  0
  184.5960  178.8950  144.5390 C   0  0  0  0  0  0  0  0  0  0  0  0
  185.7600  178.3530  145.3100 C   0  0  0  0  0  2  0  0  0  0  0  0
  186.9720  178.4060  147.4900 C   0  0  0  0  0  1  0  0  0  0  0  0
  185.6480  178.6640  146.7930 C   0  0  0  0  0  2  0  0  0  0  0  0
  190.2550  175.8610  140.2940 O   0  0  0  0  0  0  0  0  0  0  0  0
  190.8070  175.6360  139.0890 O   0  0  0  0  0  0  0  0  0  0  0  0
  190.0060  175.3260  138.0150 N   0  0  0  0  0  0  0  0  0  0  0  0
  190.4280  174.5820  137.0430 C   0  0  0  0  0  0  0  0  0  0  0  0
  189.6040  174.3350  135.9930 F   0  0  0  0  0  0  0  0  0  0  0  0
  191.8490  172.8700  136.2410 O   0  0  0  0  0  1  0  0  0  0  0  0
  191.8060  174.0030  137.0570 C   0  0  1  0  0  3  0  0  0  0  0  0
  192.7390  174.9690  136.5890 O   0  0  0  0  0  0  0  0  0  0  0  0
  193.8280  175.3880  137.3580 C   0  0  0  0  0  0  0  0  0  0  0  0
  193.8770  176.5690  137.8050 O   0  0  0  0  0  0  0  0  0  0  0  0
  194.8440  174.4790  137.6450 O   0  0  0  0  0  0  0  0  0  0  0  0
  196.0680  174.4760  136.9250 C   0  0  0  0  0  2  0  0  0  0  0  0
  196.9950  175.2780  137.5840 O   0  0  0  0  0  1  0  0  0  0  0  0
  2  1  1  6  0  0  0
  2  4  1  0  0  0  0
  4  3  1  6  0  0  0
  4  5  1  0  0  0  0
  5  6  1  0  0  0  0
  6  8  1  0  0  0  0
  7  8  1  0  0  0  0
  8 10  1  0  0  0  0
  8  9  1  0  0  0  0
 11  2  1  0  0  0  0
 11 16  1  1  0  0  0
 12 13  1  0  0  0  0
 13 11  1  0  0  0  0
 14 12  1  0  0  0  0
 15 12  2  0  0  0  0
 17 16  1  0  0  0  0
 17 18  1  0  0  0  0
 18 19  1  0  0  0  0
 19 21  1  0  0  0  0
 21 20  2  0  0  0  0
 21 22  1  0  0  0  0
 22 24  1  0  0  0  0
 24 23  1  0  0  0  0
 25  2  1  0  0  0  0
 26 25  1  0  0  0  0
 27 26  1  0  0  0  0
 28 31  1  0  0  0  0
 28 27  2  0  0  0  0
 29 28  1  0  0  0  0
 31 30  1  6  0  0  0
 32 31  1  0  0  0  0
 32 33  1  0  0  0  0
 33 35  1  0  0  0  0
 33 34  2  0  0  0  0
 36 37  1  0  0  0  0
 36 35  1  0  0  0  0
M  END
>  <MODEL>
1

>  <REMARK>
 VINA RESULT:      -6.0      0.000      0.000
  Name = 
  21 active torsions:
  status: ('A' for Active; 'I' for Inactive)
    1  A    between atoms: N_1  and  O_36
    2  A    between atoms: C_5  and  C_17
    3  A    between atoms: C_6  and  S_8
    4  A    between atoms: C_6  and  C_31
    5  A    between atoms: C_7  and  O_33
    6  A    between atoms: S_8  and  C_19
    7  A    between atoms: C_10  and  C_14
    8  A    between atoms: C_10  and  C_20
    9  A    between atoms: C_10  and  N_22
   10  A    between atoms: C_11  and  O_26
   11  A    between atoms: C_11  and  O_33
   12  A    between atoms: C_14  and  C_31
   13  A    between atoms: C_16  and  C_21
   14  A    between atoms: C_16  and  C_30
   15  A    between atoms: C_17  and  O_26
   16  A    between atoms: C_18  and  C_19
   17  A    between atoms: C_18  and  C_35
   18  A    between atoms: C_20  and  C_24
   19  A    between atoms: C_20  and  O_29
   20  A    between atoms: C_24  and  C_30
   21  A    between atoms: O_29  and  O_36
                            x       y       z     vdW  Elec       q    Type
                         _______ _______ _______ _____ _____    ______ ____

>  <TORSDO>
F 21

$$$$
=
 OpenBabel11052415353D

 37 36  0  0  1  0  0  0  0  0999 V2000
  189.2180  179.2310  138.7830 O   0  0  0  0  0  1  0  0  0  0  0  0
  189.0920  177.8320  138.7990 C   0  0  1  0  0  0  0  0  0  0  0  0
  189.0540  178.3930  136.4360 O   0  0  0  0  0  1  0  0  0  0  0  0
  188.9740  177.3340  137.3460 C   0  0  2  0  0  3  0  0  0  0  0  0
  187.7320  176.4830  137.0740 C   0  0  0  0  0  2  0  0  0  0  0  0
  188.0690  175.1680  136.3780 C   0  0  0  0  0  2  0  0  0  0  0  0
  185.9000  174.6760  135.5320 F   0  0  0  0  0  0  0  0  0  0  0  0
  186.8810  174.2170  136.3910 C   0  0  0  0  0  0  0  0  0  0  0  0
  186.3680  174.1570  137.6720 F   0  0  0  0  0  0  0  0  0  0  0  0
  187.2810  172.9500  136.0060 F   0  0  0  0  0  0  0  0  0  0  0  0
  190.3580  177.2080  139.4240 C   0  0  2  0  0  3  0  0  0  0  0  0
  192.0860  175.6760  138.2580 C   0  0  0  0  0  0  0  0  0  0  0  0
  190.7710  175.9760  138.7420 N   0  0  0  0  0  2  0  0  0  0  0  0
  193.1280  176.6470  138.3060 N   0  0  0  0  0  1  0  0  0  0  0  0
  192.3200  174.5430  137.7660 O   0  0  0  0  0  0  0  0  0  0  0  0
  190.2930  177.0420  140.9430 C   0  0  0  0  0  2  0  0  0  0  0  0
  191.6200  177.4320  141.5660 C   0  0  0  0  0  2  0  0  0  0  0  0
  191.6400  177.0460  143.0270 C   0  0  0  0  0  2  0  0  0  0  0  0
  190.7920  178.3350  143.9870 S   0  0  0  0  0  0  0  0  0  0  0  0
  191.4820  176.6170  146.0810 S   0  0  0  0  0  0  0  0  0  0  0  0
  190.4120  177.2180  145.3360 C   0  0  0  0  0  0  0  0  0  0  0  0
  189.0070  177.1570  145.8540 C   0  0  0  0  0  2  0  0  0  0  0  0
  188.9400  178.2440  148.0980 C   0  0  0  0  0  1  0  0  0  0  0  0
  188.9690  176.9210  147.3550 C   0  0  0  0  0  2  0  0  0  0  0  0
  187.9370  177.4280  139.5050 O   0  0  0  0  0  0  0  0  0  0  0  0
  187.2490  178.5330  139.8390 O   0  0  0  0  0  0  0  0  0  0  0  0
  185.9190  178.6410  139.5010 N   0  0  0  0  0  0  0  0  0  0  0  0
  184.9920  178.7160  140.4020 C   0  0  0  0  0  0  0  0  0  0  0  0
  183.6950  178.7880  140.0110 F   0  0  0  0  0  0  0  0  0  0  0  0
  185.7070  179.9970  142.2560 O   0  0  0  0  0  1  0  0  0  0  0  0
  185.3290  178.7130  141.8580 C   0  0  1  0  0  3  0  0  0  0  0  0
  184.2010  178.2870  142.6130 O   0  0  0  0  0  0  0  0  0  0  0  0
  184.1110  178.4790  143.9930 C   0  0  0  0  0  0  0  0  0  0  0  0
  183.0450  178.9200  144.5090 O   0  0  0  0  0  0  0  0  0  0  0  0
  185.2040  178.1530  144.7950 O   0  0  0  0  0  0  0  0  0  0  0  0
  185.7290  179.0660  145.7470 C   0  0  0  0  0  2  0  0  0  0  0  0
  185.0490  178.9210  146.9530 O   0  0  0  0  0  1  0  0  0  0  0  0
  2  1  1  1  0  0  0
  2 11  1  0  0  0  0
  2 25  1  0  0  0  0
  4  3  1  6  0  0  0
  4  2  1  0  0  0  0
  5  4  1  0  0  0  0
  6  8  1  0  0  0  0
  6  5  1  0  0  0  0
  7  8  1  0  0  0  0
  8  9  1  0  0  0  0
 10  8  1  0  0  0  0
 11 16  1  1  0  0  0
 12 14  1  0  0  0  0
 12 13  1  0  0  0  0
 13 11  1  0  0  0  0
 15 12  2  0  0  0  0
 16 17  1  0  0  0  0
 17 18  1  0  0  0  0
 18 19  1  0  0  0  0
 19 21  1  0  0  0  0
 21 22  1  0  0  0  0
 21 20  2  0  0  0  0
 22 24  1  0  0  0  0
 24 23  1  0  0  0  0
 25 26  1  0  0  0  0
 27 26  1  0  0  0  0
 27 28  2  0  0  0  0
 28 31  1  0  0  0  0
 29 28  1  0  0  0  0
 31 30  1  1  0  0  0
 31 32  1  0  0  0  0
 32 33  1  0  0  0  0
 33 34  2  0  0  0  0
 33 35  1  0  0  0  0
 35 36  1  0  0  0  0
 36 37  1  0  0  0  0
M  END
>  <MODEL>
2

>  <REMARK>
 VINA RESULT:      -6.0      3.977      8.075
  Name = 
  21 active torsions:
  status: ('A' for Active; 'I' for Inactive)
    1  A    between atoms: N_1  and  O_36
    2  A    between atoms: C_5  and  C_17
    3  A    between atoms: C_6  and  S_8
    4  A    between atoms: C_6  and  C_31
    5  A    between atoms: C_7  and  O_33
    6  A    between atoms: S_8  and  C_19
    7  A    between atoms: C_10  and  C_14
    8  A    between atoms: C_10  and  C_20
    9  A    between atoms: C_10  and  N_22
   10  A    between atoms: C_11  and  O_26
   11  A    between atoms: C_11  and  O_33
   12  A    between atoms: C_14  and  C_31
   13  A    between atoms: C_16  and  C_21
   14  A    between atoms: C_16  and  C_30
   15  A    between atoms: C_17  and  O_26
   16  A    between atoms: C_18  and  C_19
   17  A    between atoms: C_18  and  C_35
   18  A    between atoms: C_20  and  C_24
   19  A    between atoms: C_20  and  O_29
   20  A    between atoms: C_24  and  C_30
   21  A    between atoms: O_29  and  O_36
                            x       y       z     vdW  Elec       q    Type
                         _______ _______ _______ _____ _____    ______ ____

>  <TORSDO>
F 21

$$$$
=
 OpenBabel11052415353D

 37 36  0  0  1  0  0  0  0  0999 V2000
  189.2270  179.1700  138.6980 O   0  0  0  0  0  1  0  0  0  0  0  0
  189.1230  177.7700  138.7540 C   0  0  1  0  0  0  0  0  0  0  0  0
  189.0120  178.2660  136.3790 O   0  0  0  0  0  1  0  0  0  0  0  0
  189.0420  177.2270  137.3150 C   0  0  2  0  0  3  0  0  0  0  0  0
  187.8860  176.2530  137.0770 C   0  0  0  0  0  2  0  0  0  0  0  0
  186.9060  176.7590  136.0230 C   0  0  0  0  0  2  0  0  0  0  0  0
  185.2040  176.5590  137.6750 F   0  0  0  0  0  0  0  0  0  0  0  0
  185.6770  177.3820  136.6690 C   0  0  0  0  0  0  0  0  0  0  0  0
  184.6940  177.5350  135.7110 F   0  0  0  0  0  0  0  0  0  0  0  0
  185.9920  178.6230  137.1940 F   0  0  0  0  0  0  0  0  0  0  0  0
  190.3860  177.1860  139.4220 C   0  0  2  0  0  3  0  0  0  0  0  0
  191.9550  175.5320  138.1990 C   0  0  0  0  0  0  0  0  0  0  0  0
  190.7440  175.8670  138.8880 N   0  0  0  0  0  2  0  0  0  0  0  0
  192.9110  176.5330  137.8620 N   0  0  0  0  0  1  0  0  0  0  0  0
  192.1680  174.3380  137.8690 O   0  0  0  0  0  0  0  0  0  0  0  0
  190.3560  177.2100  140.9510 C   0  0  0  0  0  2  0  0  0  0  0  0
  191.7640  177.3730  141.4960 C   0  0  0  0  0  2  0  0  0  0  0  0
  191.7190  177.5740  142.9930 C   0  0  0  0  0  2  0  0  0  0  0  0
  190.1470  178.3710  143.4340 S   0  0  0  0  0  0  0  0  0  0  0  0
  188.8120  177.4230  145.6980 S   0  0  0  0  0  0  0  0  0  0  0  0
  190.0770  177.5720  145.0350 C   0  0  0  0  0  0  0  0  0  0  0  0
  191.2750  176.8160  145.5230 C   0  0  0  0  0  2  0  0  0  0  0  0
  192.3510  175.6810  147.4660 C   0  0  0  0  0  1  0  0  0  0  0  0
  191.2530  176.6340  147.0310 C   0  0  0  0  0  2  0  0  0  0  0  0
  187.9610  177.3690  139.4500 O   0  0  0  0  0  0  0  0  0  0  0  0
  187.3230  178.4770  139.8640 O   0  0  0  0  0  0  0  0  0  0  0  0
  187.1000  178.6790  141.2070 N   0  0  0  0  0  0  0  0  0  0  0  0
  185.9040  178.7670  141.6920 C   0  0  0  0  0  0  0  0  0  0  0  0
  185.7440  179.0000  143.0200 F   0  0  0  0  0  0  0  0  0  0  0  0
  183.5710  178.3890  141.5970 O   0  0  0  0  0  1  0  0  0  0  0  0
  184.7020  178.6300  140.8140 C   0  0  1  0  0  3  0  0  0  0  0  0
  184.5190  179.8210  140.0580 O   0  0  0  0  0  0  0  0  0  0  0  0
  183.5420  179.9330  139.0660 C   0  0  0  0  0  0  0  0  0  0  0  0
  183.1070  181.0680  138.7240 O   0  0  0  0  0  0  0  0  0  0  0  0
  183.0730  178.7770  138.4430 O   0  0  0  0  0  0  0  0  0  0  0  0
  181.7170  178.3710  138.5480 C   0  0  0  0  0  2  0  0  0  0  0  0
  181.2650  177.9380  137.3040 O   0  0  0  0  0  1  0  0  0  0  0  0
  2  1  1  6  0  0  0
  2 11  1  0  0  0  0
  2 25  1  0  0  0  0
  4  3  1  6  0  0  0
  4  2  1  0  0  0  0
  5  4  1  0  0  0  0
  6  8  1  0  0  0  0
  6  5  1  0  0  0  0
  8 10  1  0  0  0  0
  8  7  1  0  0  0  0
  9  8  1  0  0  0  0
 11 16  1  1  0  0  0
 12 13  1  0  0  0  0
 13 11  1  0  0  0  0
 14 12  1  0  0  0  0
 15 12  2  0  0  0  0
 16 17  1  0  0  0  0
 17 18  1  0  0  0  0
 18 19  1  0  0  0  0
 19 21  1  0  0  0  0
 21 22  1  0  0  0  0
 21 20  2  0  0  0  0
 22 24  1  0  0  0  0
 24 23  1  0  0  0  0
 25 26  1  0  0  0  0
 26 27  1  0  0  0  0
 27 28  2  0  0  0  0
 28 29  1  0  0  0  0
 31 30  1  1  0  0  0
 31 28  1  0  0  0  0
 32 31  1  0  0  0  0
 33 32  1  0  0  0  0
 34 33  2  0  0  0  0
 35 36  1  0  0  0  0
 35 33  1  0  0  0  0
 37 36  1  0  0  0  0
M  END
>  <MODEL>
3

>  <REMARK>
 VINA RESULT:      -5.8      3.813      8.027
  Name = 
  21 active torsions:
  status: ('A' for Active; 'I' for Inactive)
    1  A    between atoms: N_1  and  O_36
    2  A    between atoms: C_5  and  C_17
    3  A    between atoms: C_6  and  S_8
    4  A    between atoms: C_6  and  C_31
    5  A    between atoms: C_7  and  O_33
    6  A    between atoms: S_8  and  C_19
    7  A    between atoms: C_10  and  C_14
    8  A    between atoms: C_10  and  C_20
    9  A    between atoms: C_10  and  N_22
   10  A    between atoms: C_11  and  O_26
   11  A    between atoms: C_11  and  O_33
   12  A    between atoms: C_14  and  C_31
   13  A    between atoms: C_16  and  C_21
   14  A    between atoms: C_16  and  C_30
   15  A    between atoms: C_17  and  O_26
   16  A    between atoms: C_18  and  C_19
   17  A    between atoms: C_18  and  C_35
   18  A    between atoms: C_20  and  C_24
   19  A    between atoms: C_20  and  O_29
   20  A    between atoms: C_24  and  C_30
   21  A    between atoms: O_29  and  O_36
                            x       y       z     vdW  Elec       q    Type
                         _______ _______ _______ _____ _____    ______ ____

>  <TORSDO>
F 21

$$$$
=
 OpenBabel11052415353D

 37 36  0  0  1  0  0  0  0  0999 V2000
  189.0600  179.2550  138.6710 O   0  0  0  0  0  1  0  0  0  0  0  0
  188.9650  177.8540  138.6330 C   0  0  1  0  0  0  0  0  0  0  0  0
  189.0520  178.4940  136.2920 O   0  0  0  0  0  1  0  0  0  0  0  0
  188.9190  177.4060  137.1590 C   0  0  2  0  0  3  0  0  0  0  0  0
  187.6870  176.5740  136.7960 C   0  0  0  0  0  2  0  0  0  0  0  0
  188.0350  175.3660  135.9320 C   0  0  0  0  0  2  0  0  0  0  0  0
  188.7800  173.5100  137.2220 F   0  0  0  0  0  0  0  0  0  0  0  0
  187.6610  174.0660  136.6280 C   0  0  0  0  0  0  0  0  0  0  0  0
  187.1610  173.1820  135.6920 F   0  0  0  0  0  0  0  0  0  0  0  0
  186.6940  174.3000  137.5890 F   0  0  0  0  0  0  0  0  0  0  0  0
  190.2190  177.2350  139.2880 C   0  0  2  0  0  3  0  0  0  0  0  0
  191.6960  175.4790  138.0930 C   0  0  0  0  0  0  0  0  0  0  0  0
  190.5080  175.8880  138.7840 N   0  0  0  0  0  2  0  0  0  0  0  0
  192.6960  176.4250  137.7250 N   0  0  0  0  0  1  0  0  0  0  0  0
  191.8490  174.2690  137.7910 O   0  0  0  0  0  0  0  0  0  0  0  0
  190.2270  177.3030  140.8160 C   0  0  0  0  0  2  0  0  0  0  0  0
  191.6450  177.5020  141.3200 C   0  0  0  0  0  2  0  0  0  0  0  0
  191.7160  177.2030  142.7990 C   0  0  0  0  0  2  0  0  0  0  0  0
  190.9400  178.5680  143.7140 S   0  0  0  0  0  0  0  0  0  0  0  0
  191.3200  176.7820  145.8290 S   0  0  0  0  0  0  0  0  0  0  0  0
  190.3660  177.4930  145.0270 C   0  0  0  0  0  0  0  0  0  0  0  0
  188.9330  177.5770  145.4590 C   0  0  0  0  0  2  0  0  0  0  0  0
  187.8800  176.3930  143.5340 C   0  0  0  0  0  1  0  0  0  0  0  0
  187.9930  177.7130  144.2730 C   0  0  0  0  0  2  0  0  0  0  0  0
  187.7920  177.4000  139.2760 O   0  0  0  0  0  0  0  0  0  0  0  0
  187.0540  178.4760  139.5970 O   0  0  0  0  0  0  0  0  0  0  0  0
  186.8210  178.7770  140.9200 N   0  0  0  0  0  0  0  0  0  0  0  0
  185.6380  179.0780  141.3510 C   0  0  0  0  0  0  0  0  0  0  0  0
  185.4720  179.3980  142.6600 F   0  0  0  0  0  0  0  0  0  0  0  0
  184.7130  179.9390  139.3530 O   0  0  0  0  0  1  0  0  0  0  0  0
  184.4600  179.0870  140.4300 C   0  0  1  0  0  3  0  0  0  0  0  0
  184.2110  177.7700  139.9540 O   0  0  0  0  0  0  0  0  0  0  0  0
  182.9190  177.2490  139.8460 C   0  0  0  0  0  0  0  0  0  0  0  0
  181.9140  178.0010  139.9850 O   0  0  0  0  0  0  0  0  0  0  0  0
  182.7570  175.8950  139.5570 O   0  0  0  0  0  0  0  0  0  0  0  0
  183.0250  175.3710  138.2650 C   0  0  0  0  0  2  0  0  0  0  0  0
  181.9520  174.5850  137.8520 O   0  0  0  0  0  1  0  0  0  0  0  0
  2  1  1  1  0  0  0
  2 25  1  0  0  0  0
  2 11  1  0  0  0  0
  4  3  1  6  0  0  0
  4  2  1  0  0  0  0
  5  4  1  0  0  0  0
  6  8  1  0  0  0  0
  6  5  1  0  0  0  0
  8  7  1  0  0  0  0
  8 10  1  0  0  0  0
  9  8  1  0  0  0  0
 11 16  1  1  0  0  0
 12 13  1  0  0  0  0
 13 11  1  0  0  0  0
 14 12  1  0  0  0  0
 15 12  2  0  0  0  0
 16 17  1  0  0  0  0
 17 18  1  0  0  0  0
 18 19  1  0  0  0  0
 19 21  1  0  0  0  0
 21 22  1  0  0  0  0
 21 20  2  0  0  0  0
 23 24  1  0  0  0  0
 24 22  1  0  0  0  0
 25 26  1  0  0  0  0
 26 27  1  0  0  0  0
 27 28  2  0  0  0  0
 28 29  1  0  0  0  0
 31 30  1  6  0  0  0
 31 28  1  0  0  0  0
 32 31  1  0  0  0  0
 33 32  1  0  0  0  0
 33 34  2  0  0  0  0
 35 33  1  0  0  0  0
 36 35  1  0  0  0  0
 37 36  1  0  0  0  0
M  END
>  <MODEL>
4

>  <REMARK>
 VINA RESULT:      -5.7      3.754      7.833
  Name = 
  21 active torsions:
  status: ('A' for Active; 'I' for Inactive)
    1  A    between atoms: N_1  and  O_36
    2  A    between atoms: C_5  and  C_17
    3  A    between atoms: C_6  and  S_8
    4  A    between atoms: C_6  and  C_31
    5  A    between atoms: C_7  and  O_33
    6  A    between atoms: S_8  and  C_19
    7  A    between atoms: C_10  and  C_14
    8  A    between atoms: C_10  and  C_20
    9  A    between atoms: C_10  and  N_22
   10  A    between atoms: C_11  and  O_26
   11  A    between atoms: C_11  and  O_33
   12  A    between atoms: C_14  and  C_31
   13  A    between atoms: C_16  and  C_21
   14  A    between atoms: C_16  and  C_30
   15  A    between atoms: C_17  and  O_26
   16  A    between atoms: C_18  and  C_19
   17  A    between atoms: C_18  and  C_35
   18  A    between atoms: C_20  and  C_24
   19  A    between atoms: C_20  and  O_29
   20  A    between atoms: C_24  and  C_30
   21  A    between atoms: O_29  and  O_36
                            x       y       z     vdW  Elec       q    Type
                         _______ _______ _______ _____ _____    ______ ____

>  <TORSDO>
F 21

$$$$
=
 OpenBabel11052415353D

 37 36  0  0  1  0  0  0  0  0999 V2000
  185.3730  180.0030  141.9460 O   0  0  0  0  0  1  0  0  0  0  0  0
  184.7410  178.7500  141.8890 C   0  0  1  0  0  0  0  0  0  0  0  0
  182.4000  179.0650  142.4530 O   0  0  0  0  0  1  0  0  0  0  0  0
  183.6470  178.7040  142.9720 C   0  0  2  0  0  3  0  0  0  0  0  0
  183.9690  179.5240  144.2230 C   0  0  0  0  0  2  0  0  0  0  0  0
  183.8460  178.7050  145.5030 C   0  0  0  0  0  2  0  0  0  0  0  0
  185.9130  177.5320  145.6210 F   0  0  0  0  0  0  0  0  0  0  0  0
  185.1930  178.5620  146.1970 C   0  0  0  0  0  0  0  0  0  0  0  0
  184.9830  178.2750  147.5320 F   0  0  0  0  0  0  0  0  0  0  0  0
  185.9080  179.7410  146.0970 F   0  0  0  0  0  0  0  0  0  0  0  0
  184.0670  178.5760  140.5110 C   0  0  2  0  0  3  0  0  0  0  0  0
  182.2980  176.8480  139.7540 C   0  0  0  0  0  0  0  0  0  0  0  0
  183.5740  177.2110  140.2960 N   0  0  0  0  0  2  0  0  0  0  0  0
  181.3110  177.8350  139.4690 N   0  0  0  0  0  1  0  0  0  0  0  0
  182.0380  175.6360  139.5460 O   0  0  0  0  0  0  0  0  0  0  0  0
  184.9000  179.0890  139.3350 C   0  0  0  0  0  2  0  0  0  0  0  0
  184.9970  178.0210  138.2610 C   0  0  0  0  0  2  0  0  0  0  0  0
  186.2710  178.1990  137.4680 C   0  0  0  0  0  2  0  0  0  0  0  0
  187.6910  177.8750  138.5530 S   0  0  0  0  0  0  0  0  0  0  0  0
  188.6220  177.4960  135.9450 S   0  0  0  0  0  0  0  0  0  0  0  0
  188.5820  176.9780  137.2840 C   0  0  0  0  0  0  0  0  0  0  0  0
  189.5080  175.8720  137.6900 C   0  0  0  0  0  2  0  0  0  0  0  0
  191.9460  176.3960  137.7450 C   0  0  0  0  0  1  0  0  0  0  0  0
  190.6560  176.3840  138.5440 C   0  0  0  0  0  2  0  0  0  0  0  0
  185.6560  177.7010  142.1310 O   0  0  0  0  0  0  0  0  0  0  0  0
  186.7680  178.2370  142.6630 O   0  0  0  0  0  0  0  0  0  0  0  0
  187.9200  178.3110  141.9130 N   0  0  0  0  0  0  0  0  0  0  0  0
  189.0130  177.7270  142.2850 C   0  0  0  0  0  0  0  0  0  0  0  0
  190.1280  177.8610  141.5230 F   0  0  0  0  0  0  0  0  0  0  0  0
  188.8800  175.5700  143.2440 O   0  0  0  0  0  1  0  0  0  0  0  0
  189.0680  176.9210  143.5430 C   0  0  1  0  0  3  0  0  0  0  0  0
  190.3270  177.1030  144.1780 O   0  0  0  0  0  0  0  0  0  0  0  0
  190.4400  177.4330  145.5310 C   0  0  0  0  0  0  0  0  0  0  0  0
  189.4460  177.8940  146.1600 O   0  0  0  0  0  0  0  0  0  0  0  0
  191.6540  177.2210  146.1810 O   0  0  0  0  0  0  0  0  0  0  0  0
  192.0500  175.9300  146.6200 C   0  0  0  0  0  2  0  0  0  0  0  0
  192.6870  176.0340  147.8530 O   0  0  0  0  0  1  0  0  0  0  0  0
  2  1  1  1  0  0  0
  2 25  1  0  0  0  0
  2  4  1  0  0  0  0
  4  3  1  6  0  0  0
  4  5  1  0  0  0  0
  5  6  1  0  0  0  0
  6  8  1  0  0  0  0
  7  8  1  0  0  0  0
  8  9  1  0  0  0  0
 10  8  1  0  0  0  0
 11 16  1  6  0  0  0
 11  2  1  0  0  0  0
 12 13  1  0  0  0  0
 13 11  1  0  0  0  0
 14 12  1  0  0  0  0
 15 12  2  0  0  0  0
 17 16  1  0  0  0  0
 18 17  1  0  0  0  0
 18 19  1  0  0  0  0
 20 21  2  0  0  0  0
 21 22  1  0  0  0  0
 21 19  1  0  0  0  0
 22 24  1  0  0  0  0
 23 24  1  0  0  0  0
 25 26  1  0  0  0  0
 27 28  2  0  0  0  0
 27 26  1  0  0  0  0
 28 31  1  0  0  0  0
 29 28  1  0  0  0  0
 31 30  1  6  0  0  0
 31 32  1  0  0  0  0
 32 33  1  0  0  0  0
 33 34  2  0  0  0  0
 33 35  1  0  0  0  0
 35 36  1  0  0  0  0
 36 37  1  0  0  0  0
M  END
>  <MODEL>
5

>  <REMARK>
 VINA RESULT:      -5.6      4.471      7.432
  Name = 
  21 active torsions:
  status: ('A' for Active; 'I' for Inactive)
    1  A    between atoms: N_1  and  O_36
    2  A    between atoms: C_5  and  C_17
    3  A    between atoms: C_6  and  S_8
    4  A    between atoms: C_6  and  C_31
    5  A    between atoms: C_7  and  O_33
    6  A    between atoms: S_8  and  C_19
    7  A    between atoms: C_10  and  C_14
    8  A    between atoms: C_10  and  C_20
    9  A    between atoms: C_10  and  N_22
   10  A    between atoms: C_11  and  O_26
   11  A    between atoms: C_11  and  O_33
   12  A    between atoms: C_14  and  C_31
   13  A    between atoms: C_16  and  C_21
   14  A    between atoms: C_16  and  C_30
   15  A    between atoms: C_17  and  O_26
   16  A    between atoms: C_18  and  C_19
   17  A    between atoms: C_18  and  C_35
   18  A    between atoms: C_20  and  C_24
   19  A    between atoms: C_20  and  O_29
   20  A    between atoms: C_24  and  C_30
   21  A    between atoms: O_29  and  O_36
                            x       y       z     vdW  Elec       q    Type
                         _______ _______ _______ _____ _____    ______ ____

>  <TORSDO>
F 21

$$$$
=
 OpenBabel11052415353D

 37 36  0  0  1  0  0  0  0  0999 V2000
  189.1290  179.1660  138.5690 O   0  0  0  0  0  1  0  0  0  0  0  0
  189.0530  177.7650  138.6420 C   0  0  1  0  0  0  0  0  0  0  0  0
  188.6840  178.2460  136.2900 O   0  0  0  0  0  1  0  0  0  0  0  0
  188.8260  177.2130  137.2220 C   0  0  2  0  0  3  0  0  0  0  0  0
  187.6620  176.2250  137.1130 C   0  0  0  0  0  2  0  0  0  0  0  0
  188.0670  174.9230  136.4300 C   0  0  0  0  0  2  0  0  0  0  0  0
  186.2070  174.0460  137.6290 F   0  0  0  0  0  0  0  0  0  0  0  0
  186.9310  173.9100  136.4590 C   0  0  0  0  0  0  0  0  0  0  0  0
  187.4630  172.6370  136.4010 F   0  0  0  0  0  0  0  0  0  0  0  0
  186.0970  174.1000  135.3720 F   0  0  0  0  0  0  0  0  0  0  0  0
  190.3910  177.2040  139.1710 C   0  0  2  0  0  3  0  0  0  0  0  0
  192.3880  176.0000  138.0520 C   0  0  0  0  0  0  0  0  0  0  0  0
  190.9870  176.2220  138.2590 N   0  0  0  0  0  2  0  0  0  0  0  0
  193.3650  176.8350  138.6670 N   0  0  0  0  0  1  0  0  0  0  0  0
  192.7600  175.0640  137.2990 O   0  0  0  0  0  0  0  0  0  0  0  0
  190.3340  176.7030  140.6150 C   0  0  0  0  0  2  0  0  0  0  0  0
  191.4020  177.3900  141.4460 C   0  0  0  0  0  2  0  0  0  0  0  0
  191.3920  176.8450  142.8550 C   0  0  0  0  0  2  0  0  0  0  0  0
  189.6700  176.5860  143.3730 S   0  0  0  0  0  0  0  0  0  0  0  0
  191.3580  177.1080  145.5380 S   0  0  0  0  0  0  0  0  0  0  0  0
  190.0030  177.0680  145.0660 C   0  0  0  0  0  0  0  0  0  0  0  0
  188.9070  177.7000  145.8700 C   0  0  0  0  0  2  0  0  0  0  0  0
  186.4490  177.9060  146.2370 C   0  0  0  0  0  1  0  0  0  0  0  0
  187.5320  177.2850  145.3740 C   0  0  0  0  0  2  0  0  0  0  0  0
  187.9800  177.3510  139.4610 O   0  0  0  0  0  0  0  0  0  0  0  0
  187.3300  178.4500  139.8780 O   0  0  0  0  0  0  0  0  0  0  0  0
  187.1820  178.6890  141.2250 N   0  0  0  0  0  0  0  0  0  0  0  0
  186.0140  178.8230  141.7690 C   0  0  0  0  0  0  0  0  0  0  0  0
  185.9300  179.0910  143.0970 F   0  0  0  0  0  0  0  0  0  0  0  0
  183.6500  178.7790  141.7920 O   0  0  0  0  0  1  0  0  0  0  0  0
  184.7660  178.6990  140.9560 C   0  0  1  0  0  3  0  0  0  0  0  0
  184.7170  179.7390  139.9870 O   0  0  0  0  0  0  0  0  0  0  0  0
  183.7750  179.7530  138.9550 C   0  0  0  0  0  0  0  0  0  0  0  0
  183.6050  178.7300  138.2330 O   0  0  0  0  0  0  0  0  0  0  0  0
  183.0110  180.9000  138.7500 O   0  0  0  0  0  0  0  0  0  0  0  0
  181.5990  180.8410  138.6100 C   0  0  0  0  0  2  0  0  0  0  0  0
  181.1840  181.7950  137.6860 O   0  0  0  0  0  1  0  0  0  0  0  0
  2  1  1  6  0  0  0
  2 11  1  0  0  0  0
  2 25  1  0  0  0  0
  4  3  1  6  0  0  0
  4  2  1  0  0  0  0
  5  4  1  0  0  0  0
  6  8  1  0  0  0  0
  6  5  1  0  0  0  0
  8  7  1  0  0  0  0
  9  8  1  0  0  0  0
 10  8  1  0  0  0  0
 11 16  1  1  0  0  0
 12 13  1  0  0  0  0
 12 14  1  0  0  0  0
 13 11  1  0  0  0  0
 15 12  2  0  0  0  0
 16 17  1  0  0  0  0
 17 18  1  0  0  0  0
 18 19  1  0  0  0  0
 19 21  1  0  0  0  0
 21 20  2  0  0  0  0
 21 22  1  0  0  0  0
 24 22  1  0  0  0  0
 24 23  1  0  0  0  0
 25 26  1  0  0  0  0
 26 27  1  0  0  0  0
 27 28  2  0  0  0  0
 28 29  1  0  0  0  0
 31 28  1  0  0  0  0
 31 30  1  1  0  0  0
 32 31  1  0  0  0  0
 33 32  1  0  0  0  0
 34 33  2  0  0  0  0
 35 33  1  0  0  0  0
 36 35  1  0  0  0  0
 37 36  1  0  0  0  0
M  END
>  <MODEL>
6

>  <REMARK>
 VINA RESULT:      -5.6      3.658      8.108
  Name = 
  21 active torsions:
  status: ('A' for Active; 'I' for Inactive)
    1  A    between atoms: N_1  and  O_36
    2  A    between atoms: C_5  and  C_17
    3  A    between atoms: C_6  and  S_8
    4  A    between atoms: C_6  and  C_31
    5  A    between atoms: C_7  and  O_33
    6  A    between atoms: S_8  and  C_19
    7  A    between atoms: C_10  and  C_14
    8  A    between atoms: C_10  and  C_20
    9  A    between atoms: C_10  and  N_22
   10  A    between atoms: C_11  and  O_26
   11  A    between atoms: C_11  and  O_33
   12  A    between atoms: C_14  and  C_31
   13  A    between atoms: C_16  and  C_21
   14  A    between atoms: C_16  and  C_30
   15  A    between atoms: C_17  and  O_26
   16  A    between atoms: C_18  and  C_19
   17  A    between atoms: C_18  and  C_35
   18  A    between atoms: C_20  and  C_24
   19  A    between atoms: C_20  and  O_29
   20  A    between atoms: C_24  and  C_30
   21  A    between atoms: O_29  and  O_36
                            x       y       z     vdW  Elec       q    Type
                         _______ _______ _______ _____ _____    ______ ____

>  <TORSDO>
F 21

$$$$
=
 OpenBabel11052415353D

 37 36  0  0  1  0  0  0  0  0999 V2000
  185.3110  180.1990  142.8570 O   0  0  0  0  0  1  0  0  0  0  0  0
  184.8740  178.8680  142.9560 C   0  0  1  0  0  0  0  0  0  0  0  0
  184.2440  179.6360  145.1720 O   0  0  0  0  0  1  0  0  0  0  0  0
  184.6810  178.5250  144.4450 C   0  0  2  0  0  3  0  0  0  0  0  0
  185.9090  177.8960  145.1060 C   0  0  0  0  0  2  0  0  0  0  0  0
  186.0590  178.3090  146.5670 C   0  0  0  0  0  2  0  0  0  0  0  0
  187.6890  178.7020  148.2550 F   0  0  0  0  0  0  0  0  0  0  0  0
  187.4560  178.0020  147.0860 C   0  0  0  0  0  0  0  0  0  0  0  0
  188.3830  178.3850  146.1370 F   0  0  0  0  0  0  0  0  0  0  0  0
  187.5880  176.6450  147.3230 F   0  0  0  0  0  0  0  0  0  0  0  0
  183.5120  178.7190  142.2440 C   0  0  2  0  0  3  0  0  0  0  0  0
  181.2130  178.8380  143.4250 C   0  0  0  0  0  0  0  0  0  0  0  0
  182.4660  178.2050  143.1350 N   0  0  0  0  0  2  0  0  0  0  0  0
  180.9140  180.1390  142.9290 N   0  0  0  0  0  1  0  0  0  0  0  0
  180.3720  178.2420  144.1440 O   0  0  0  0  0  0  0  0  0  0  0  0
  183.5760  177.9600  140.9170 C   0  0  0  0  0  2  0  0  0  0  0  0
  182.2910  178.1680  140.1370 C   0  0  0  0  0  2  0  0  0  0  0  0
  182.4450  179.3330  139.1870 C   0  0  0  0  0  2  0  0  0  0  0  0
  180.9670  180.3840  139.2980 S   0  0  0  0  0  0  0  0  0  0  0  0
  180.1400  179.2270  136.8930 S   0  0  0  0  0  0  0  0  0  0  0  0
  180.7120  180.3820  137.5250 C   0  0  0  0  0  0  0  0  0  0  0  0
  180.8180  181.6750  136.7750 C   0  0  0  0  0  2  0  0  0  0  0  0
  181.3550  184.0650  137.2450 C   0  0  0  0  0  1  0  0  0  0  0  0
  180.5180  182.8700  137.6640 C   0  0  0  0  0  2  0  0  0  0  0  0
  185.8220  177.9740  142.4090 O   0  0  0  0  0  0  0  0  0  0  0  0
  186.8290  178.7020  141.8970 O   0  0  0  0  0  0  0  0  0  0  0  0
  187.7740  178.0990  141.0990 N   0  0  0  0  0  0  0  0  0  0  0  0
  188.8560  177.5870  141.5920 C   0  0  0  0  0  0  0  0  0  0  0  0
  189.7680  177.0340  140.7530 F   0  0  0  0  0  0  0  0  0  0  0  0
  188.7760  176.3710  143.6190 O   0  0  0  0  0  1  0  0  0  0  0  0
  189.1170  177.6070  143.0640 C   0  0  1  0  0  3  0  0  0  0  0  0
  190.4920  177.8800  143.3050 O   0  0  0  0  0  0  0  0  0  0  0  0
  191.2930  177.0430  144.0850 C   0  0  0  0  0  0  0  0  0  0  0  0
  191.7940  175.9950  143.5880 O   0  0  0  0  0  0  0  0  0  0  0  0
  191.5530  177.3940  145.4090 O   0  0  0  0  0  0  0  0  0  0  0  0
  191.7010  176.4140  146.4250 C   0  0  0  0  0  2  0  0  0  0  0  0
  190.7070  176.5870  147.3850 O   0  0  0  0  0  1  0  0  0  0  0  0
  2  1  1  6  0  0  0
  2  4  1  0  0  0  0
  4  5  1  0  0  0  0
  4  3  1  1  0  0  0
  5  6  1  0  0  0  0
  6  8  1  0  0  0  0
  8 10  1  0  0  0  0
  8  7  1  0  0  0  0
  9  8  1  0  0  0  0
 11 16  1  6  0  0  0
 11  2  1  0  0  0  0
 11 13  1  0  0  0  0
 12 15  2  0  0  0  0
 13 12  1  0  0  0  0
 14 12  1  0  0  0  0
 17 16  1  0  0  0  0
 18 19  1  0  0  0  0
 18 17  1  0  0  0  0
 20 21  2  0  0  0  0
 21 19  1  0  0  0  0
 22 21  1  0  0  0  0
 22 24  1  0  0  0  0
 23 24  1  0  0  0  0
 25  2  1  0  0  0  0
 26 25  1  0  0  0  0
 27 28  2  0  0  0  0
 27 26  1  0  0  0  0
 28 31  1  0  0  0  0
 29 28  1  0  0  0  0
 31 32  1  0  0  0  0
 31 30  1  6  0  0  0
 32 33  1  0  0  0  0
 33 35  1  0  0  0  0
 34 33  2  0  0  0  0
 35 36  1  0  0  0  0
 36 37  1  0  0  0  0
M  END
>  <MODEL>
7

>  <REMARK>
 VINA RESULT:      -5.4      5.112      7.500
  Name = 
  21 active torsions:
  status: ('A' for Active; 'I' for Inactive)
    1  A    between atoms: N_1  and  O_36
    2  A    between atoms: C_5  and  C_17
    3  A    between atoms: C_6  and  S_8
    4  A    between atoms: C_6  and  C_31
    5  A    between atoms: C_7  and  O_33
    6  A    between atoms: S_8  and  C_19
    7  A    between atoms: C_10  and  C_14
    8  A    between atoms: C_10  and  C_20
    9  A    between atoms: C_10  and  N_22
   10  A    between atoms: C_11  and  O_26
   11  A    between atoms: C_11  and  O_33
   12  A    between atoms: C_14  and  C_31
   13  A    between atoms: C_16  and  C_21
   14  A    between atoms: C_16  and  C_30
   15  A    between atoms: C_17  and  O_26
   16  A    between atoms: C_18  and  C_19
   17  A    between atoms: C_18  and  C_35
   18  A    between atoms: C_20  and  C_24
   19  A    between atoms: C_20  and  O_29
   20  A    between atoms: C_24  and  C_30
   21  A    between atoms: O_29  and  O_36
                            x       y       z     vdW  Elec       q    Type
                         _______ _______ _______ _____ _____    ______ ____

>  <TORSDO>
F 21

$$$$
=
 OpenBabel11052415353D

 37 36  0  0  1  0  0  0  0  0999 V2000
  185.6830  180.1450  142.8260 O   0  0  0  0  0  1  0  0  0  0  0  0
  185.1720  178.8370  142.8690 C   0  0  1  0  0  0  0  0  0  0  0  0
  185.1660  179.4580  145.2170 O   0  0  0  0  0  1  0  0  0  0  0  0
  185.1420  178.3720  144.3380 C   0  0  2  0  0  3  0  0  0  0  0  0
  186.2340  177.3620  144.6970 C   0  0  0  0  0  2  0  0  0  0  0  0
  187.3360  177.9780  145.5520 C   0  0  0  0  0  2  0  0  0  0  0  0
  189.2240  176.7780  146.3650 F   0  0  0  0  0  0  0  0  0  0  0  0
  188.6900  177.3620  145.2310 C   0  0  0  0  0  0  0  0  0  0  0  0
  189.5430  178.3560  144.7910 F   0  0  0  0  0  0  0  0  0  0  0  0
  188.5570  176.4100  144.2370 F   0  0  0  0  0  0  0  0  0  0  0  0
  183.7260  178.8310  142.3280 C   0  0  2  0  0  3  0  0  0  0  0  0
  181.3680  179.0040  143.3770 C   0  0  0  0  0  0  0  0  0  0  0  0
  182.7350  178.5750  143.3800 N   0  0  0  0  0  2  0  0  0  0  0  0
  180.8640  179.8510  142.3480 N   0  0  0  0  0  1  0  0  0  0  0  0
  180.6050  178.6410  144.3080 O   0  0  0  0  0  0  0  0  0  0  0  0
  183.5180  177.9430  141.1000 C   0  0  0  0  0  2  0  0  0  0  0  0
  183.5330  178.7880  139.8400 C   0  0  0  0  0  2  0  0  0  0  0  0
  183.9680  177.9490  138.6600 C   0  0  0  0  0  2  0  0  0  0  0  0
  182.5990  177.8520  137.4700 S   0  0  0  0  0  0  0  0  0  0  0  0
  183.4600  175.2110  137.7790 S   0  0  0  0  0  0  0  0  0  0  0  0
  182.3360  176.1050  137.7640 C   0  0  0  0  0  0  0  0  0  0  0  0
  181.0050  175.6470  138.2790 C   0  0  0  0  0  2  0  0  0  0  0  0
  180.0230  176.9380  140.1730 C   0  0  0  0  0  1  0  0  0  0  0  0
  180.9120  175.7690  139.7900 C   0  0  0  0  0  2  0  0  0  0  0  0
  185.9830  177.9440  142.1330 O   0  0  0  0  0  0  0  0  0  0  0  0
  186.9410  178.6620  141.5240 O   0  0  0  0  0  0  0  0  0  0  0  0
  188.2490  178.2350  141.5660 N   0  0  0  0  0  0  0  0  0  0  0  0
  188.8910  177.9020  140.4930 C   0  0  0  0  0  0  0  0  0  0  0  0
  190.1690  177.4570  140.5970 F   0  0  0  0  0  0  0  0  0  0  0  0
  188.7740  179.0690  138.4390 O   0  0  0  0  0  1  0  0  0  0  0  0
  188.2440  177.9890  139.1480 C   0  0  1  0  0  3  0  0  0  0  0  0
  188.4670  176.7830  138.4260 O   0  0  0  0  0  0  0  0  0  0  0  0
  187.6440  176.3810  137.3730 C   0  0  0  0  0  0  0  0  0  0  0  0
  187.2360  177.2230  136.5240 O   0  0  0  0  0  0  0  0  0  0  0  0
  187.3000  175.0350  137.2570 O   0  0  0  0  0  0  0  0  0  0  0  0
  188.1500  174.1010  136.6090 C   0  0  0  0  0  2  0  0  0  0  0  0
  187.9720  172.8410  137.1730 O   0  0  0  0  0  1  0  0  0  0  0  0
  2  1  1  6  0  0  0
  2  4  1  0  0  0  0
  4  5  1  0  0  0  0
  4  3  1  1  0  0  0
  5  6  1  0  0  0  0
  8  6  1  0  0  0  0
  8  7  1  0  0  0  0
  9  8  1  0  0  0  0
 10  8  1  0  0  0  0
 11 16  1  6  0  0  0
 11  2  1  0  0  0  0
 11 13  1  0  0  0  0
 12 13  1  0  0  0  0
 12 15  2  0  0  0  0
 14 12  1  0  0  0  0
 17 16  1  0  0  0  0
 18 17  1  0  0  0  0
 19 21  1  0  0  0  0
 19 18  1  0  0  0  0
 21 20  2  0  0  0  0
 21 22  1  0  0  0  0
 22 24  1  0  0  0  0
 24 23  1  0  0  0  0
 25  2  1  0  0  0  0
 26 27  1  0  0  0  0
 26 25  1  0  0  0  0
 28 29  1  0  0  0  0
 28 27  2  0  0  0  0
 31 30  1  6  0  0  0
 31 28  1  0  0  0  0
 32 31  1  0  0  0  0
 33 32  1  0  0  0  0
 34 33  2  0  0  0  0
 35 33  1  0  0  0  0
 36 37  1  0  0  0  0
 36 35  1  0  0  0  0
M  END
>  <MODEL>
8

>  <REMARK>
 VINA RESULT:      -5.3      4.653      6.582
  Name = 
  21 active torsions:
  status: ('A' for Active; 'I' for Inactive)
    1  A    between atoms: N_1  and  O_36
    2  A    between atoms: C_5  and  C_17
    3  A    between atoms: C_6  and  S_8
    4  A    between atoms: C_6  and  C_31
    5  A    between atoms: C_7  and  O_33
    6  A    between atoms: S_8  and  C_19
    7  A    between atoms: C_10  and  C_14
    8  A    between atoms: C_10  and  C_20
    9  A    between atoms: C_10  and  N_22
   10  A    between atoms: C_11  and  O_26
   11  A    between atoms: C_11  and  O_33
   12  A    between atoms: C_14  and  C_31
   13  A    between atoms: C_16  and  C_21
   14  A    between atoms: C_16  and  C_30
   15  A    between atoms: C_17  and  O_26
   16  A    between atoms: C_18  and  C_19
   17  A    between atoms: C_18  and  C_35
   18  A    between atoms: C_20  and  C_24
   19  A    between atoms: C_20  and  O_29
   20  A    between atoms: C_24  and  C_30
   21  A    between atoms: O_29  and  O_36
                            x       y       z     vdW  Elec       q    Type
                         _______ _______ _______ _____ _____    ______ ____

>  <TORSDO>
F 21

$$$$
=
 OpenBabel11052415353D

 37 36  0  0  1  0  0  0  0  0999 V2000
  190.0200  176.0130  139.7290 O   0  0  0  0  0  1  0  0  0  0  0  0
  190.3450  177.3700  139.8920 C   0  0  1  0  0  0  0  0  0  0  0  0
  189.0560  179.2760  139.1150 O   0  0  0  0  0  1  0  0  0  0  0  0
  189.7780  178.1560  138.6940 C   0  0  2  0  0  3  0  0  0  0  0  0
  188.9480  177.3090  137.7270 C   0  0  0  0  0  2  0  0  0  0  0  0
  187.8970  178.1330  136.9890 C   0  0  0  0  0  2  0  0  0  0  0  0
  188.9730  177.8040  134.8920 F   0  0  0  0  0  0  0  0  0  0  0  0
  187.7600  177.6810  135.5420 C   0  0  0  0  0  0  0  0  0  0  0  0
  186.8250  178.4770  134.9090 F   0  0  0  0  0  0  0  0  0  0  0  0
  187.3380  176.3640  135.4930 F   0  0  0  0  0  0  0  0  0  0  0  0
  189.6850  177.9060  141.1800 C   0  0  2  0  0  3  0  0  0  0  0  0
  190.8760  176.6490  143.1010 C   0  0  0  0  0  0  0  0  0  0  0  0
  190.5770  177.8270  142.3420 N   0  0  0  0  0  2  0  0  0  0  0  0
  190.2110  175.4170  142.8410 N   0  0  0  0  0  1  0  0  0  0  0  0
  191.7270  176.7090  144.0240 O   0  0  0  0  0  0  0  0  0  0  0  0
  188.2990  177.3250  141.4650 C   0  0  0  0  0  2  0  0  0  0  0  0
  187.3380  178.4350  141.8470 C   0  0  0  0  0  2  0  0  0  0  0  0
  186.3810  177.9480  142.9100 C   0  0  0  0  0  2  0  0  0  0  0  0
  187.3370  177.3520  144.3350 S   0  0  0  0  0  0  0  0  0  0  0  0
  184.9970  178.6570  145.1290 S   0  0  0  0  0  0  0  0  0  0  0  0
  186.3120  178.2280  145.5150 C   0  0  0  0  0  0  0  0  0  0  0  0
  186.7140  178.2410  146.9580 C   0  0  0  0  0  2  0  0  0  0  0  0
  188.6710  177.9460  148.4770 C   0  0  0  0  0  1  0  0  0  0  0  0
  188.0130  177.4860  147.1880 C   0  0  0  0  0  2  0  0  0  0  0  0
  191.7440  177.5610  139.9320 O   0  0  0  0  0  0  0  0  0  0  0  0
  192.3210  176.5320  139.2900 O   0  0  0  0  0  0  0  0  0  0  0  0
  193.1770  176.7720  138.2390 N   0  0  0  0  0  0  0  0  0  0  0  0
  193.5790  175.8220  137.4570 C   0  0  0  0  0  0  0  0  0  0  0  0
  194.4490  176.1110  136.4570 F   0  0  0  0  0  0  0  0  0  0  0  0
  192.0270  174.1630  136.7990 O   0  0  0  0  0  1  0  0  0  0  0  0
  193.1080  174.4160  137.6470 C   0  0  1  0  0  3  0  0  0  0  0  0
  194.1660  173.5100  137.3590 O   0  0  0  0  0  0  0  0  0  0  0  0
  195.0600  173.0720  138.3390 C   0  0  0  0  0  0  0  0  0  0  0  0
  195.4600  171.8730  138.3470 O   0  0  0  0  0  0  0  0  0  0  0  0
  195.5230  173.9800  139.2890 O   0  0  0  0  0  0  0  0  0  0  0  0
  196.8450  174.4970  139.2440 C   0  0  0  0  0  2  0  0  0  0  0  0
  197.1150  175.1810  140.4260 O   0  0  0  0  0  1  0  0  0  0  0  0
  2  1  1  6  0  0  0
  2 25  1  0  0  0  0
  2 11  1  0  0  0  0
  4  3  1  1  0  0  0
  4  2  1  0  0  0  0
  5  4  1  0  0  0  0
  6  5  1  0  0  0  0
  7  8  1  0  0  0  0
  8  6  1  0  0  0  0
  9  8  1  0  0  0  0
 10  8  1  0  0  0  0
 11 16  1  1  0  0  0
 11 13  1  0  0  0  0
 12 15  2  0  0  0  0
 13 12  1  0  0  0  0
 14 12  1  0  0  0  0
 16 17  1  0  0  0  0
 17 18  1  0  0  0  0
 18 19  1  0  0  0  0
 19 21  1  0  0  0  0
 20 21  2  0  0  0  0
 21 22  1  0  0  0  0
 22 24  1  0  0  0  0
 24 23  1  0  0  0  0
 26 25  1  0  0  0  0
 27 26  1  0  0  0  0
 28 31  1  0  0  0  0
 28 27  2  0  0  0  0
 29 28  1  0  0  0  0
 31 30  1  6  0  0  0
 32 31  1  0  0  0  0
 32 33  1  0  0  0  0
 33 34  2  0  0  0  0
 33 35  1  0  0  0  0
 36 35  1  0  0  0  0
 36 37  1  0  0  0  0
M  END
>  <MODEL>
9

>  <REMARK>
 VINA RESULT:      -5.3      3.526      4.933
  Name = 
  21 active torsions:
  status: ('A' for Active; 'I' for Inactive)
    1  A    between atoms: N_1  and  O_36
    2  A    between atoms: C_5  and  C_17
    3  A    between atoms: C_6  and  S_8
    4  A    between atoms: C_6  and  C_31
    5  A    between atoms: C_7  and  O_33
    6  A    between atoms: S_8  and  C_19
    7  A    between atoms: C_10  and  C_14
    8  A    between atoms: C_10  and  C_20
    9  A    between atoms: C_10  and  N_22
   10  A    between atoms: C_11  and  O_26
   11  A    between atoms: C_11  and  O_33
   12  A    between atoms: C_14  and  C_31
   13  A    between atoms: C_16  and  C_21
   14  A    between atoms: C_16  and  C_30
   15  A    between atoms: C_17  and  O_26
   16  A    between atoms: C_18  and  C_19
   17  A    between atoms: C_18  and  C_35
   18  A    between atoms: C_20  and  C_24
   19  A    between atoms: C_20  and  O_29
   20  A    between atoms: C_24  and  C_30
   21  A    between atoms: O_29  and  O_36
                            x       y       z     vdW  Elec       q    Type
                         _______ _______ _______ _____ _____    ______ ____

>  <TORSDO>
F 21

$$$$
