=
 OpenBabel11052415223D

 37 43  0  0  1  0  0  0  0  0999 V2000
  192.5650  176.7760  137.2360 C   0  0  2  0  0  3  0  0  0  0  0  0
  187.3570  172.4810  137.4920 C   0  0  0  0  0  2  0  0  0  0  0  0
  187.9400  176.6520  137.3760 C   0  0  0  0  0  0  0  0  0  0  0  0
  193.1760  175.9850  136.0920 C   0  0  1  0  0  3  0  0  0  0  0  0
  191.6270  176.3670  139.5140 C   0  0  0  0  0  2  0  0  0  0  0  0
  186.9210  174.6720  136.2530 C   0  0  2  0  0  3  0  0  0  0  0  0
  189.2700  177.2100  137.7730 C   0  0  1  0  0  3  0  0  0  0  0  0
  188.0660  175.4240  136.8890 C   0  0  0  0  0  0  0  0  0  0  0  0
  189.3670  177.4750  139.2670 C   0  0  0  0  0  0  0  0  0  0  0  0
  185.8070  175.6200  135.7810 C   0  0  0  0  0  2  0  0  0  0  0  0
  189.4750  175.0230  136.9400 C   0  0  2  0  0  3  0  0  0  0  0  0
  189.3460  172.6460  136.0250 C   0  0  0  0  0  3  0  0  0  0  0  0
  186.5860  178.5890  137.6480 O   0  0  0  0  0  0  0  0  0  0  0  0
  185.4350  176.6500  136.8540 C   0  0  0  0  0  2  0  0  0  0  0  0
  190.0160  173.6150  136.9580 C   0  0  0  0  0  2  0  0  0  0  0  0
  190.2450  176.5970  140.1410 C   0  0  0  0  0  2  0  0  0  0  0  0
  186.6610  177.3790  137.3110 C   0  0  0  0  0  0  0  0  0  0  0  0
  190.1710  176.0640  137.4060 C   0  0  2  0  0  3  0  0  0  0  0  0
  186.3500  173.5820  137.1620 C   0  0  0  0  0  2  0  0  0  0  0  0
  188.1540  172.0930  136.2810 C   0  0  0  0  0  3  0  0  0  0  0  0
  192.6560  175.2440  137.3060 C   0  0  2  0  0  0  0  0  0  0  0  0
  191.5360  175.9880  138.0290 C   0  0  1  0  0  0  0  0  0  0  0  0
  188.6590  178.4800  139.7990 C   0  0  0  0  0  3  0  0  0  0  0  0
  191.9680  174.4200  134.5950 C   0  0  0  0  0  1  0  0  0  0  0  0
  192.1920  175.8770  134.9410 C   0  0  0  0  0  2  0  0  0  0  0  0
  193.8000  174.7300  138.2120 C   0  0  0  0  0  2  0  0  0  0  0  0
  194.3050  173.2950  137.9940 C   0  0  0  0  0  2  0  0  0  0  0  0
  195.8610  174.2780  139.2290 C   0  0  0  0  0  1  0  0  0  0  0  0
  195.4150  173.0250  138.8030 O   0  0  0  0  0  0  0  0  0  0  0  0
  188.7080  178.8320  141.2520 C   0  0  0  0  0  2  0  0  0  0  0  0
  186.2200  178.8610  141.2090 C   0  0  0  0  0  3  0  0  0  0  0  0
  187.3970  178.5530  141.8990 C   0  0  0  0  0  0  0  0  0  0  0  0
  187.3270  178.0280  143.1960 C   0  0  0  0  0  3  0  0  0  0  0  0
  186.0110  177.3070  145.0470 F   0  0  0  0  0  0  0  0  0  0  0  0
  184.9070  178.1240  143.1030 C   0  0  0  0  0  3  0  0  0  0  0  0
  186.0810  177.8170  143.7960 C   0  0  0  0  0  0  0  0  0  0  0  0
  184.9760  178.6430  141.8080 C   0  0  0  0  0  3  0  0  0  0  0  0
  1 21  1  0  0  0  0
  1 22  1  0  0  0  0
  3  7  1  0  0  0  0
  4  1  1  0  0  0  0
  4 21  1  0  0  0  0
  5 16  1  0  0  0  0
  6  8  1  0  0  0  0
  6 19  1  0  0  0  0
  7  9  1  0  0  0  0
  8 11  1  0  0  0  0
  8  3  2  0  0  0  0
  9 23  2  0  0  0  0
  9 16  1  0  0  0  0
 10  6  1  0  0  0  0
 10 14  1  0  0  0  0
 11 15  1  0  0  0  0
 11 18  1  0  0  0  0
 12 20  2  0  0  0  0
 12 15  1  0  0  0  0
 14 17  1  0  0  0  0
 17  3  1  0  0  0  0
 17 13  2  0  0  0  0
 18  7  1  0  0  0  0
 18 22  1  0  0  0  0
 19  2  1  0  0  0  0
 20  2  1  0  0  0  0
 21 22  1  0  0  0  0
 21 26  1  0  0  0  0
 22  5  1  0  0  0  0
 23 30  1  0  0  0  0
 24 25  1  0  0  0  0
 25  4  1  0  0  0  0
 27 26  1  0  0  0  0
 27 29  1  0  0  0  0
 29 28  1  0  0  0  0
 30 32  1  0  0  0  0
 31 37  2  0  0  0  0
 31 32  1  0  0  0  0
 32 33  2  0  0  0  0
 33 36  1  0  0  0  0
 35 36  2  0  0  0  0
 36 34  1  0  0  0  0
 37 35  1  0  0  0  0
M  END
>  <MODEL>
1

>  <REMARK>
 VINA RESULT:      -7.3      0.000      0.000
  Name = 
  6 active torsions:
  status: ('A' for Active; 'I' for Inactive)
    1  A    between atoms: C_5  and  C_23
    2  A    between atoms: C_6  and  C_31
    3  A    between atoms: C_17  and  C_26
    4  A    between atoms: C_17  and  C_33
    5  A    between atoms: C_26  and  O_34
    6  A    between atoms: C_31  and  C_37
                            x       y       z     vdW  Elec       q    Type
                         _______ _______ _______ _____ _____    ______ ____

>  <TORSDO>
F 6

$$$$
=
 OpenBabel11052415223D

 37 43  0  0  1  0  0  0  0  0999 V2000
  189.0190  178.3780  136.8180 C   0  0  2  0  0  3  0  0  0  0  0  0
  185.0920  172.9800  137.8490 C   0  0  0  0  0  2  0  0  0  0  0  0
  184.6960  177.1730  137.9500 C   0  0  0  0  0  0  0  0  0  0  0  0
  189.5100  177.7860  135.5080 C   0  0  1  0  0  3  0  0  0  0  0  0
  188.7460  177.6950  139.2040 C   0  0  0  0  0  2  0  0  0  0  0  0
  183.9100  175.0440  136.9170 C   0  0  2  0  0  3  0  0  0  0  0  0
  185.9250  178.0150  138.0930 C   0  0  1  0  0  3  0  0  0  0  0  0
  184.9750  176.0240  137.3480 C   0  0  0  0  0  0  0  0  0  0  0  0
  186.3020  178.2510  139.5460 C   0  0  0  0  0  0  0  0  0  0  0  0
  182.5360  175.7190  136.7780 C   0  0  0  0  0  2  0  0  0  0  0  0
  186.4100  175.9620  137.0590 C   0  0  2  0  0  3  0  0  0  0  0  0
  186.6030  173.6490  136.0030 C   0  0  0  0  0  3  0  0  0  0  0  0
  183.0480  178.7310  138.6670 O   0  0  0  0  0  0  0  0  0  0  0  0
  182.2020  176.6020  137.9860 C   0  0  0  0  0  2  0  0  0  0  0  0
  187.2380  174.7190  136.8440 C   0  0  0  0  0  2  0  0  0  0  0  0
  187.5300  177.5780  140.1340 C   0  0  0  0  0  2  0  0  0  0  0  0
  183.3090  177.5830  138.2240 C   0  0  0  0  0  0  0  0  0  0  0  0
  186.9480  177.1230  137.4460 C   0  0  2  0  0  3  0  0  0  0  0  0
  183.8180  173.8250  137.8360 C   0  0  0  0  0  2  0  0  0  0  0  0
  185.6540  172.8250  136.4660 C   0  0  0  0  0  3  0  0  0  0  0  0
  189.4600  176.9090  136.7420 C   0  0  2  0  0  0  0  0  0  0  0  0
  188.4020  177.3490  137.7490 C   0  0  1  0  0  0  0  0  0  0  0  0
  185.5310  179.0470  140.2990 C   0  0  0  0  0  3  0  0  0  0  0  0
  187.3460  178.6310  134.6410 C   0  0  0  0  0  1  0  0  0  0  0  0
  188.3360  177.4860  134.5940 C   0  0  0  0  0  2  0  0  0  0  0  0
  190.8660  176.6500  137.3320 C   0  0  0  0  0  2  0  0  0  0  0  0
  191.2180  175.2170  137.7620 C   0  0  0  0  0  2  0  0  0  0  0  0
  193.1400  176.2040  137.2710 C   0  0  0  0  0  1  0  0  0  0  0  0
  192.5870  174.9690  137.6120 O   0  0  0  0  0  0  0  0  0  0  0  0
  185.8350  179.3580  141.7310 C   0  0  0  0  0  2  0  0  0  0  0  0
  183.3930  178.9510  141.9810 C   0  0  0  0  0  3  0  0  0  0  0  0
  184.6470  179.0860  142.5850 C   0  0  0  0  0  0  0  0  0  0  0  0
  184.7620  179.0040  143.9790 C   0  0  0  0  0  3  0  0  0  0  0  0
  183.7300  178.7080  146.1070 F   0  0  0  0  0  0  0  0  0  0  0  0
  182.3700  178.6540  144.1530 C   0  0  0  0  0  3  0  0  0  0  0  0
  183.6210  178.7910  144.7600 C   0  0  0  0  0  0  0  0  0  0  0  0
  182.2550  178.7310  142.7630 C   0  0  0  0  0  3  0  0  0  0  0  0
  1 22  1  0  0  0  0
  3  7  1  0  0  0  0
  3 17  1  0  0  0  0
  4 21  1  0  0  0  0
  4  1  1  0  0  0  0
  5 16  1  0  0  0  0
  6  8  1  0  0  0  0
  6 19  1  0  0  0  0
  7  9  1  0  0  0  0
  8  3  2  0  0  0  0
  9 16  1  0  0  0  0
  9 23  2  0  0  0  0
 10  6  1  0  0  0  0
 10 14  1  0  0  0  0
 11  8  1  0  0  0  0
 11 18  1  0  0  0  0
 12 20  2  0  0  0  0
 12 15  1  0  0  0  0
 14 17  1  0  0  0  0
 15 11  1  0  0  0  0
 17 13  2  0  0  0  0
 18 22  1  0  0  0  0
 18  7  1  0  0  0  0
 19  2  1  0  0  0  0
 20  2  1  0  0  0  0
 21  1  1  0  0  0  0
 21 26  1  0  0  0  0
 21 22  1  0  0  0  0
 22  5  1  0  0  0  0
 23 30  1  0  0  0  0
 25 24  1  0  0  0  0
 25  4  1  0  0  0  0
 26 27  1  0  0  0  0
 28 29  1  0  0  0  0
 29 27  1  0  0  0  0
 30 32  1  0  0  0  0
 31 32  2  0  0  0  0
 31 37  1  0  0  0  0
 32 33  1  0  0  0  0
 33 36  2  0  0  0  0
 35 36  1  0  0  0  0
 36 34  1  0  0  0  0
 37 35  2  0  0  0  0
M  END
>  <MODEL>
2

>  <REMARK>
 VINA RESULT:      -6.7      2.012      3.386
  Name = 
  6 active torsions:
  status: ('A' for Active; 'I' for Inactive)
    1  A    between atoms: C_5  and  C_23
    2  A    between atoms: C_6  and  C_31
    3  A    between atoms: C_17  and  C_26
    4  A    between atoms: C_17  and  C_33
    5  A    between atoms: C_26  and  O_34
    6  A    between atoms: C_31  and  C_37
                            x       y       z     vdW  Elec       q    Type
                         _______ _______ _______ _____ _____    ______ ____

>  <TORSDO>
F 6

$$$$
=
 OpenBabel11052415223D

 37 43  0  0  1  0  0  0  0  0999 V2000
  188.1470  178.7610  137.0930 C   0  0  2  0  0  3  0  0  0  0  0  0
  185.2000  172.7080  137.6510 C   0  0  0  0  0  2  0  0  0  0  0  0
  184.0880  176.6120  136.5220 C   0  0  0  0  0  0  0  0  0  0  0  0
  189.2950  178.1430  136.3150 C   0  0  1  0  0  3  0  0  0  0  0  0
  186.8930  178.3740  139.2180 C   0  0  0  0  0  2  0  0  0  0  0  0
  184.2680  174.2260  135.8200 C   0  0  2  0  0  3  0  0  0  0  0  0
  184.9340  177.7640  136.9630 C   0  0  1  0  0  3  0  0  0  0  0  0
  184.8120  175.5060  136.4060 C   0  0  0  0  0  0  0  0  0  0  0  0
  184.5270  178.2960  138.3280 C   0  0  0  0  0  0  0  0  0  0  0  0
  183.0320  174.4800  134.9410 C   0  0  0  0  0  2  0  0  0  0  0  0
  186.1990  175.7920  136.7860 C   0  0  2  0  0  3  0  0  0  0  0  0
  187.2660  173.4900  136.5300 C   0  0  0  0  0  3  0  0  0  0  0  0
  182.0560  177.7550  136.0480 O   0  0  0  0  0  0  0  0  0  0  0  0
  182.0180  175.4030  135.6270 C   0  0  0  0  0  2  0  0  0  0  0  0
  187.2290  174.8000  137.2650 C   0  0  0  0  0  2  0  0  0  0  0  0
  185.4230  178.0670  139.5320 C   0  0  0  0  0  2  0  0  0  0  0  0
  182.6900  176.6680  136.0620 C   0  0  0  0  0  0  0  0  0  0  0  0
  186.2780  177.0970  137.0630 C   0  0  2  0  0  3  0  0  0  0  0  0
  183.9620  173.1700  136.8830 C   0  0  0  0  0  2  0  0  0  0  0  0
  186.3690  172.5160  136.7300 C   0  0  0  0  0  3  0  0  0  0  0  0
  188.8170  177.4680  137.5830 C   0  0  2  0  0  0  0  0  0  0  0  0
  187.3490  177.7460  137.8930 C   0  0  1  0  0  0  0  0  0  0  0  0
  183.3670  178.9530  138.4520 C   0  0  0  0  0  3  0  0  0  0  0  0
  189.6240  176.1920  134.8200 C   0  0  0  0  0  1  0  0  0  0  0  0
  188.7700  177.4130  135.0920 C   0  0  0  0  0  2  0  0  0  0  0  0
  189.7930  177.6830  138.7630 C   0  0  0  0  0  2  0  0  0  0  0  0
  190.8520  176.6020  139.0320 C   0  0  0  0  0  2  0  0  0  0  0  0
  191.6750  174.9810  137.7650 C   0  0  0  0  0  1  0  0  0  0  0  0
  190.5090  175.3960  138.4090 O   0  0  0  0  0  0  0  0  0  0  0  0
  182.8940  179.5340  139.7480 C   0  0  0  0  0  2  0  0  0  0  0  0
  181.2180  177.7080  139.5270 C   0  0  0  0  0  3  0  0  0  0  0  0
  181.7940  178.7070  140.3160 C   0  0  0  0  0  0  0  0  0  0  0  0
  181.3060  178.9430  141.6080 C   0  0  0  0  0  3  0  0  0  0  0  0
  179.7720  178.4040  143.3500 F   0  0  0  0  0  0  0  0  0  0  0  0
  179.6700  177.1810  141.3100 C   0  0  0  0  0  3  0  0  0  0  0  0
  180.2430  178.1800  142.1010 C   0  0  0  0  0  0  0  0  0  0  0  0
  180.1590  176.9420  140.0230 C   0  0  0  0  0  3  0  0  0  0  0  0
  1 21  1  0  0  0  0
  1 22  1  0  0  0  0
  3  7  1  0  0  0  0
  4  1  1  0  0  0  0
  4 21  1  0  0  0  0
  5 16  1  0  0  0  0
  6  8  1  0  0  0  0
  6 19  1  0  0  0  0
  7 18  1  0  0  0  0
  7  9  1  0  0  0  0
  8  3  2  0  0  0  0
  8 11  1  0  0  0  0
  9 23  2  0  0  0  0
  9 16  1  0  0  0  0
 10 14  1  0  0  0  0
 10  6  1  0  0  0  0
 11 18  1  0  0  0  0
 11 15  1  0  0  0  0
 12 20  2  0  0  0  0
 12 15  1  0  0  0  0
 13 17  2  0  0  0  0
 14 17  1  0  0  0  0
 17  3  1  0  0  0  0
 18 22  1  0  0  0  0
 19  2  1  0  0  0  0
 20  2  1  0  0  0  0
 21 22  1  0  0  0  0
 21 26  1  0  0  0  0
 22  5  1  0  0  0  0
 23 30  1  0  0  0  0
 24 25  1  0  0  0  0
 25  4  1  0  0  0  0
 26 27  1  0  0  0  0
 28 29  1  0  0  0  0
 29 27  1  0  0  0  0
 30 32  1  0  0  0  0
 31 37  2  0  0  0  0
 31 32  1  0  0  0  0
 32 33  2  0  0  0  0
 33 36  1  0  0  0  0
 35 36  2  0  0  0  0
 36 34  1  0  0  0  0
 37 35  1  0  0  0  0
M  END
>  <MODEL>
3

>  <REMARK>
 VINA RESULT:      -6.4      3.007      4.559
  Name = 
  6 active torsions:
  status: ('A' for Active; 'I' for Inactive)
    1  A    between atoms: C_5  and  C_23
    2  A    between atoms: C_6  and  C_31
    3  A    between atoms: C_17  and  C_26
    4  A    between atoms: C_17  and  C_33
    5  A    between atoms: C_26  and  O_34
    6  A    between atoms: C_31  and  C_37
                            x       y       z     vdW  Elec       q    Type
                         _______ _______ _______ _____ _____    ______ ____

>  <TORSDO>
F 6

$$$$
=
 OpenBabel11052415223D

 37 43  0  0  1  0  0  0  0  0999 V2000
  189.4010  178.7700  138.3140 C   0  0  2  0  0  3  0  0  0  0  0  0
  183.4530  175.6070  138.8050 C   0  0  0  0  0  2  0  0  0  0  0  0
  185.5570  178.6050  140.8860 C   0  0  0  0  0  0  0  0  0  0  0  0
  189.1540  179.0310  136.8380 C   0  0  1  0  0  3  0  0  0  0  0  0
  189.3350  176.8610  139.9220 C   0  0  0  0  0  2  0  0  0  0  0  0
  183.4870  178.0270  139.6210 C   0  0  2  0  0  3  0  0  0  0  0  0
  187.0400  178.7060  140.7120 C   0  0  1  0  0  3  0  0  0  0  0  0
  184.9840  178.0940  139.8040 C   0  0  0  0  0  0  0  0  0  0  0  0
  187.8010  177.8230  141.6880 C   0  0  0  0  0  0  0  0  0  0  0  0
  182.7560  179.0330  140.5250 C   0  0  0  0  0  2  0  0  0  0  0  0
  186.0170  177.7700  138.8150 C   0  0  2  0  0  3  0  0  0  0  0  0
  184.6100  176.7610  136.9430 C   0  0  0  0  0  3  0  0  0  0  0  0
  185.3080  179.7730  142.9440 O   0  0  0  0  0  0  0  0  0  0  0  0
  183.2710  178.9890  141.9690 C   0  0  0  0  0  2  0  0  0  0  0  0
  185.9120  176.7700  137.6910 C   0  0  0  0  0  2  0  0  0  0  0  0
  188.5190  176.5810  141.1910 C   0  0  0  0  0  2  0  0  0  0  0  0
  184.7580  179.1660  141.9880 C   0  0  0  0  0  0  0  0  0  0  0  0
  187.1910  178.1620  139.3180 C   0  0  2  0  0  3  0  0  0  0  0  0
  182.9270  176.6180  139.8230 C   0  0  0  0  0  2  0  0  0  0  0  0
  183.4950  176.1970  137.4260 C   0  0  0  0  0  3  0  0  0  0  0  0
  188.8930  177.6480  137.3970 C   0  0  2  0  0  0  0  0  0  0  0  0
  188.5370  177.6570  138.8800 C   0  0  1  0  0  0  0  0  0  0  0  0
  187.8170  178.1500  142.9870 C   0  0  0  0  0  3  0  0  0  0  0  0
  187.0430  179.1340  135.5420 C   0  0  0  0  0  1  0  0  0  0  0  0
  187.8490  179.7830  136.6480 C   0  0  0  0  0  2  0  0  0  0  0  0
  189.9890  176.6350  136.9870 C   0  0  0  0  0  2  0  0  0  0  0  0
  189.5870  175.1610  136.8250 C   0  0  0  0  0  2  0  0  0  0  0  0
  191.6510  175.0650  137.6250 C   0  0  0  0  0  1  0  0  0  0  0  0
  190.4780  174.3200  137.5020 O   0  0  0  0  0  0  0  0  0  0  0  0
  188.5580  177.3580  144.0170 C   0  0  0  0  0  2  0  0  0  0  0  0
  188.9760  177.6820  146.4490 C   0  0  0  0  0  3  0  0  0  0  0  0
  188.0720  177.6980  145.3820 C   0  0  0  0  0  0  0  0  0  0  0  0
  186.7220  177.9930  145.6170 C   0  0  0  0  0  3  0  0  0  0  0  0
  184.9820  178.5540  147.1450 F   0  0  0  0  0  0  0  0  0  0  0  0
  187.1910  178.2510  147.9800 C   0  0  0  0  0  3  0  0  0  0  0  0
  186.2840  178.2660  146.9170 C   0  0  0  0  0  0  0  0  0  0  0  0
  188.5380  177.9620  147.7460 C   0  0  0  0  0  3  0  0  0  0  0  0
  1 22  1  0  0  0  0
  2 19  1  0  0  0  0
  3 17  1  0  0  0  0
  4 21  1  0  0  0  0
  4  1  1  0  0  0  0
  5 16  1  0  0  0  0
  6  8  1  0  0  0  0
  6 19  1  0  0  0  0
  6 10  1  0  0  0  0
  7  3  1  0  0  0  0
  7  9  1  0  0  0  0
  8  3  2  0  0  0  0
  9 23  2  0  0  0  0
 10 14  1  0  0  0  0
 11 18  1  0  0  0  0
 11  8  1  0  0  0  0
 12 20  2  0  0  0  0
 12 15  1  0  0  0  0
 14 17  1  0  0  0  0
 15 11  1  0  0  0  0
 16  9  1  0  0  0  0
 17 13  2  0  0  0  0
 18  7  1  0  0  0  0
 20  2  1  0  0  0  0
 21  1  1  0  0  0  0
 21 22  1  0  0  0  0
 22 18  1  0  0  0  0
 22  5  1  0  0  0  0
 23 30  1  0  0  0  0
 24 25  1  0  0  0  0
 25  4  1  0  0  0  0
 26 21  1  0  0  0  0
 27 26  1  0  0  0  0
 27 29  1  0  0  0  0
 29 28  1  0  0  0  0
 30 32  1  0  0  0  0
 31 37  1  0  0  0  0
 32 33  1  0  0  0  0
 32 31  2  0  0  0  0
 33 36  2  0  0  0  0
 36 34  1  0  0  0  0
 36 35  1  0  0  0  0
 37 35  2  0  0  0  0
M  END
>  <MODEL>
4

>  <REMARK>
 VINA RESULT:      -6.3      2.476      4.882
  Name = 
  6 active torsions:
  status: ('A' for Active; 'I' for Inactive)
    1  A    between atoms: C_5  and  C_23
    2  A    between atoms: C_6  and  C_31
    3  A    between atoms: C_17  and  C_26
    4  A    between atoms: C_17  and  C_33
    5  A    between atoms: C_26  and  O_34
    6  A    between atoms: C_31  and  C_37
                            x       y       z     vdW  Elec       q    Type
                         _______ _______ _______ _____ _____    ______ ____

>  <TORSDO>
F 6

$$$$
=
 OpenBabel11052415223D

 37 43  0  0  1  0  0  0  0  0999 V2000
  181.5860  178.2930  138.1730 C   0  0  2  0  0  3  0  0  0  0  0  0
  187.5900  177.6020  141.1890 C   0  0  0  0  0  2  0  0  0  0  0  0
  186.0460  177.4480  137.2730 C   0  0  0  0  0  0  0  0  0  0  0  0
  181.3360  179.5810  138.9380 C   0  0  1  0  0  3  0  0  0  0  0  0
  182.2880  175.9410  138.6310 C   0  0  0  0  0  2  0  0  0  0  0  0
  187.6470  178.5650  138.8240 C   0  0  2  0  0  3  0  0  0  0  0  0
  184.5810  177.2160  137.0780 C   0  0  1  0  0  3  0  0  0  0  0  0
  186.2830  178.0530  138.4300 C   0  0  0  0  0  0  0  0  0  0  0  0
  184.2290  175.7380  137.0230 C   0  0  0  0  0  0  0  0  0  0  0  0
  188.5540  178.7750  137.6010 C   0  0  0  0  0  2  0  0  0  0  0  0
  185.0170  178.2550  139.1400 C   0  0  2  0  0  3  0  0  0  0  0  0
  185.8280  179.3400  141.3000 C   0  0  0  0  0  3  0  0  0  0  0  0
  186.8500  176.8040  135.1280 O   0  0  0  0  0  0  0  0  0  0  0  0
  188.5250  177.5730  136.6490 C   0  0  0  0  0  2  0  0  0  0  0  0
  184.8310  178.4430  140.6250 C   0  0  0  0  0  2  0  0  0  0  0  0
  183.4800  175.0890  138.1730 C   0  0  0  0  0  2  0  0  0  0  0  0
  187.1110  177.2510  136.2750 C   0  0  0  0  0  0  0  0  0  0  0  0
  184.0360  177.8150  138.3450 C   0  0  2  0  0  3  0  0  0  0  0  0
  188.3380  177.6750  139.8590 C   0  0  0  0  0  2  0  0  0  0  0  0
  187.0750  178.9500  141.5980 C   0  0  0  0  0  3  0  0  0  0  0  0
  181.8550  178.3700  139.6830 C   0  0  2  0  0  0  0  0  0  0  0  0
  182.6600  177.4200  138.7990 C   0  0  1  0  0  0  0  0  0  0  0  0
  184.6010  175.0190  135.9560 C   0  0  0  0  0  3  0  0  0  0  0  0
  181.8780  181.9260  138.3410 C   0  0  0  0  0  1  0  0  0  0  0  0
  182.4590  180.5710  138.6830 C   0  0  0  0  0  2  0  0  0  0  0  0
  180.7590  177.6990  140.5450 C   0  0  0  0  0  2  0  0  0  0  0  0
  180.5710  178.1940  141.9880 C   0  0  0  0  0  2  0  0  0  0  0  0
  182.0690  178.9940  143.4120 C   0  0  0  0  0  1  0  0  0  0  0  0
  181.3720  179.3120  142.2450 O   0  0  0  0  0  0  0  0  0  0  0  0
  184.2790  173.5660  135.8000 C   0  0  0  0  0  2  0  0  0  0  0  0
  185.5650  171.5420  135.1320 C   0  0  0  0  0  3  0  0  0  0  0  0
  185.5240  172.7510  135.8330 C   0  0  0  0  0  0  0  0  0  0  0  0
  186.6350  173.1590  136.5850 C   0  0  0  0  0  3  0  0  0  0  0  0
  188.8520  172.7450  137.3560 F   0  0  0  0  0  0  0  0  0  0  0  0
  187.8140  171.1450  135.9300 C   0  0  0  0  0  3  0  0  0  0  0  0
  187.7770  172.3530  136.6330 C   0  0  0  0  0  0  0  0  0  0  0  0
  186.7090  170.7410  135.1770 C   0  0  0  0  0  3  0  0  0  0  0  0
  1 22  1  0  0  0  0
  1  4  1  0  0  0  0
  1 21  1  0  0  0  0
  2 20  1  0  0  0  0
  3  8  2  0  0  0  0
  4 21  1  0  0  0  0
  5 22  1  0  0  0  0
  6 19  1  0  0  0  0
  7  3  1  0  0  0  0
  7 18  1  0  0  0  0
  8  6  1  0  0  0  0
  8 11  1  0  0  0  0
  9  7  1  0  0  0  0
  9 16  1  0  0  0  0
 10  6  1  0  0  0  0
 11 15  1  0  0  0  0
 12 20  2  0  0  0  0
 13 17  2  0  0  0  0
 14 10  1  0  0  0  0
 15 12  1  0  0  0  0
 16  5  1  0  0  0  0
 17 14  1  0  0  0  0
 17  3  1  0  0  0  0
 18 22  1  0  0  0  0
 18 11  1  0  0  0  0
 19  2  1  0  0  0  0
 21 26  1  0  0  0  0
 22 21  1  0  0  0  0
 23  9  2  0  0  0  0
 24 25  1  0  0  0  0
 25  4  1  0  0  0  0
 26 27  1  0  0  0  0
 27 29  1  0  0  0  0
 29 28  1  0  0  0  0
 30 32  1  0  0  0  0
 30 23  1  0  0  0  0
 31 37  2  0  0  0  0
 31 32  1  0  0  0  0
 32 33  2  0  0  0  0
 33 36  1  0  0  0  0
 35 36  2  0  0  0  0
 36 34  1  0  0  0  0
 37 35  1  0  0  0  0
M  END
>  <MODEL>
5

>  <REMARK>
 VINA RESULT:      -5.8      3.869      9.130
  Name = 
  6 active torsions:
  status: ('A' for Active; 'I' for Inactive)
    1  A    between atoms: C_5  and  C_23
    2  A    between atoms: C_6  and  C_31
    3  A    between atoms: C_17  and  C_26
    4  A    between atoms: C_17  and  C_33
    5  A    between atoms: C_26  and  O_34
    6  A    between atoms: C_31  and  C_37
                            x       y       z     vdW  Elec       q    Type
                         _______ _______ _______ _____ _____    ______ ____

>  <TORSDO>
F 6

$$$$
=
 OpenBabel11052415223D

 37 43  0  0  1  0  0  0  0  0999 V2000
  182.5580  177.8540  139.7290 C   0  0  2  0  0  3  0  0  0  0  0  0
  180.1810  174.1550  134.6010 C   0  0  0  0  0  2  0  0  0  0  0  0
  183.3550  173.9560  137.3640 C   0  0  0  0  0  0  0  0  0  0  0  0
  181.1630  177.9500  140.3220 C   0  0  1  0  0  3  0  0  0  0  0  0
  183.6970  178.2100  137.5360 C   0  0  0  0  0  2  0  0  0  0  0  0
  181.3070  172.8410  136.4810 C   0  0  2  0  0  3  0  0  0  0  0  0
  183.7950  175.2080  138.0560 C   0  0  1  0  0  3  0  0  0  0  0  0
  182.0700  174.0180  137.0380 C   0  0  0  0  0  0  0  0  0  0  0  0
  184.8430  175.9720  137.2640 C   0  0  0  0  0  0  0  0  0  0  0  0
  181.9940  171.5070  136.8110 C   0  0  0  0  0  2  0  0  0  0  0  0
  181.5300  175.3190  137.4430 C   0  0  2  0  0  3  0  0  0  0  0  0
  179.1250  175.1340  136.6160 C   0  0  0  0  0  3  0  0  0  0  0  0
  185.3020  172.6210  137.6580 O   0  0  0  0  0  0  0  0  0  0  0  0
  183.4990  171.5450  136.5170 C   0  0  0  0  0  2  0  0  0  0  0  0
  180.3160  176.0120  136.8760 C   0  0  0  0  0  2  0  0  0  0  0  0
  184.4840  177.2870  136.5950 C   0  0  0  0  0  2  0  0  0  0  0  0
  184.1270  172.7100  137.2180 C   0  0  0  0  0  0  0  0  0  0  0  0
  182.5080  175.9840  138.0660 C   0  0  2  0  0  3  0  0  0  0  0  0
  181.0540  172.9570  134.9770 C   0  0  0  0  0  2  0  0  0  0  0  0
  179.0380  174.3150  135.5600 C   0  0  0  0  0  3  0  0  0  0  0  0
  181.3540  178.2030  138.8410 C   0  0  2  0  0  0  0  0  0  0  0  0
  182.5610  177.4730  138.2580 C   0  0  1  0  0  0  0  0  0  0  0  0
  186.0780  175.4630  137.1540 C   0  0  0  0  0  3  0  0  0  0  0  0
  179.0930  176.5850  140.3520 C   0  0  0  0  0  1  0  0  0  0  0  0
  180.5930  176.5620  140.5550 C   0  0  0  0  0  2  0  0  0  0  0  0
  181.2580  179.7060  138.4880 C   0  0  0  0  0  2  0  0  0  0  0  0
  179.9880  180.2020  137.7780 C   0  0  0  0  0  2  0  0  0  0  0  0
  179.5970  181.9450  139.0880 C   0  0  0  0  0  1  0  0  0  0  0  0
  179.0660  180.7150  138.6970 O   0  0  0  0  0  0  0  0  0  0  0  0
  187.1810  176.1540  136.4170 C   0  0  0  0  0  2  0  0  0  0  0  0
  187.9640  177.8970  138.0130 C   0  0  0  0  0  3  0  0  0  0  0  0
  188.1970  176.6750  137.3720 C   0  0  0  0  0  0  0  0  0  0  0  0
  189.3930  175.9830  137.6060 C   0  0  0  0  0  3  0  0  0  0  0  0
  191.5030  175.8490  138.7060 F   0  0  0  0  0  0  0  0  0  0  0  0
  190.1110  177.7370  139.1160 C   0  0  0  0  0  3  0  0  0  0  0  0
  190.3490  176.5170  138.4760 C   0  0  0  0  0  0  0  0  0  0  0  0
  188.9180  178.4260  138.8860 C   0  0  0  0  0  3  0  0  0  0  0  0
  1  4  1  0  0  0  0
  2 19  1  0  0  0  0
  2 20  1  0  0  0  0
  3  7  1  0  0  0  0
  4 25  1  0  0  0  0
  5 22  1  0  0  0  0
  6 10  1  0  0  0  0
  6  8  1  0  0  0  0
  7 18  1  0  0  0  0
  8  3  2  0  0  0  0
  8 11  1  0  0  0  0
  9  7  1  0  0  0  0
 11 18  1  0  0  0  0
 12 15  1  0  0  0  0
 14 10  1  0  0  0  0
 14 17  1  0  0  0  0
 15 11  1  0  0  0  0
 16  9  1  0  0  0  0
 16  5  1  0  0  0  0
 17  3  1  0  0  0  0
 17 13  2  0  0  0  0
 18 22  1  0  0  0  0
 19  6  1  0  0  0  0
 20 12  2  0  0  0  0
 21  1  1  0  0  0  0
 21  4  1  0  0  0  0
 22 21  1  0  0  0  0
 22  1  1  0  0  0  0
 23  9  2  0  0  0  0
 24 25  1  0  0  0  0
 26 21  1  0  0  0  0
 27 26  1  0  0  0  0
 27 29  1  0  0  0  0
 29 28  1  0  0  0  0
 30 23  1  0  0  0  0
 30 32  1  0  0  0  0
 31 37  1  0  0  0  0
 32 33  1  0  0  0  0
 32 31  2  0  0  0  0
 33 36  2  0  0  0  0
 36 34  1  0  0  0  0
 36 35  1  0  0  0  0
 37 35  2  0  0  0  0
M  END
>  <MODEL>
6

>  <REMARK>
 VINA RESULT:      -5.4      4.485      9.295
  Name = 
  6 active torsions:
  status: ('A' for Active; 'I' for Inactive)
    1  A    between atoms: C_5  and  C_23
    2  A    between atoms: C_6  and  C_31
    3  A    between atoms: C_17  and  C_26
    4  A    between atoms: C_17  and  C_33
    5  A    between atoms: C_26  and  O_34
    6  A    between atoms: C_31  and  C_37
                            x       y       z     vdW  Elec       q    Type
                         _______ _______ _______ _____ _____    ______ ____

>  <TORSDO>
F 6

$$$$
=
 OpenBabel11052415223D

 37 43  0  0  1  0  0  0  0  0999 V2000
  181.6200  179.0840  137.8260 C   0  0  2  0  0  3  0  0  0  0  0  0
  185.3030  177.5860  143.2870 C   0  0  0  0  0  2  0  0  0  0  0  0
  185.9650  178.2350  139.1770 C   0  0  0  0  0  0  0  0  0  0  0  0
  180.9420  180.2150  138.5800 C   0  0  1  0  0  3  0  0  0  0  0  0
  182.1330  176.6600  138.1380 C   0  0  0  0  0  2  0  0  0  0  0  0
  186.4910  178.9730  141.5000 C   0  0  2  0  0  3  0  0  0  0  0  0
  184.8160  178.1050  138.2270 C   0  0  1  0  0  3  0  0  0  0  0  0
  185.5470  178.6020  140.3820 C   0  0  0  0  0  0  0  0  0  0  0  0
  184.6290  176.6800  137.7320 C   0  0  0  0  0  0  0  0  0  0  0  0
  187.8780  179.3700  140.9690 C   0  0  0  0  0  2  0  0  0  0  0  0
  184.0860  178.7210  140.3750 C   0  0  2  0  0  3  0  0  0  0  0  0
  183.6280  179.3450  142.8040 C   0  0  0  0  0  3  0  0  0  0  0  0
  187.7790  177.9720  137.6610 O   0  0  0  0  0  0  0  0  0  0  0  0
  188.4060  178.3700  139.9330 C   0  0  0  0  0  2  0  0  0  0  0  0
  183.1640  178.6340  141.5650 C   0  0  0  0  0  2  0  0  0  0  0  0
  183.4410  175.8600  138.2020 C   0  0  0  0  0  2  0  0  0  0  0  0
  187.3980  178.1840  138.8410 C   0  0  0  0  0  0  0  0  0  0  0  0
  183.6710  178.4790  139.1270 C   0  0  2  0  0  3  0  0  0  0  0  0
  186.6160  177.8760  142.5590 C   0  0  0  0  0  2  0  0  0  0  0  0
  184.5730  178.8550  143.6160 C   0  0  0  0  0  3  0  0  0  0  0  0
  181.0840  178.8650  139.2490 C   0  0  2  0  0  0  0  0  0  0  0  0
  182.2800  178.0650  138.7390 C   0  0  1  0  0  0  0  0  0  0  0  0
  185.5310  176.1590  136.8910 C   0  0  0  0  0  3  0  0  0  0  0  0
  181.9410  182.4680  138.3110 C   0  0  0  0  0  1  0  0  0  0  0  0
  181.9780  181.1860  139.1160 C   0  0  0  0  0  2  0  0  0  0  0  0
  179.7450  178.0920  139.2960 C   0  0  0  0  0  2  0  0  0  0  0  0
  179.0250  177.9740  140.6490 C   0  0  0  0  0  2  0  0  0  0  0  0
  179.6850  178.5360  142.6880 C   0  0  0  0  0  1  0  0  0  0  0  0
  179.9190  177.6160  141.6650 O   0  0  0  0  0  0  0  0  0  0  0  0
  185.4190  174.7760  136.3310 C   0  0  0  0  0  2  0  0  0  0  0  0
  186.9230  173.0150  135.4180 C   0  0  0  0  0  3  0  0  0  0  0  0
  186.7660  174.1510  136.2190 C   0  0  0  0  0  0  0  0  0  0  0  0
  187.8600  174.6580  136.9310 C   0  0  0  0  0  3  0  0  0  0  0  0
  190.1640  174.5150  137.5260 F   0  0  0  0  0  0  0  0  0  0  0  0
  189.2580  172.8910  136.0380 C   0  0  0  0  0  3  0  0  0  0  0  0
  189.1040  174.0250  136.8410 C   0  0  0  0  0  0  0  0  0  0  0  0
  188.1680  172.3870  135.3240 C   0  0  0  0  0  3  0  0  0  0  0  0
  1  4  1  0  0  0  0
  1 22  1  0  0  0  0
  1 21  1  0  0  0  0
  2 20  1  0  0  0  0
  3  8  2  0  0  0  0
  4 25  1  0  0  0  0
  4 21  1  0  0  0  0
  5 16  1  0  0  0  0
  5 22  1  0  0  0  0
  6 19  1  0  0  0  0
  7 18  1  0  0  0  0
  7  3  1  0  0  0  0
  8  6  1  0  0  0  0
  9 16  1  0  0  0  0
  9  7  1  0  0  0  0
 10  6  1  0  0  0  0
 11  8  1  0  0  0  0
 11 15  1  0  0  0  0
 12 20  2  0  0  0  0
 13 17  2  0  0  0  0
 14 10  1  0  0  0  0
 15 12  1  0  0  0  0
 17  3  1  0  0  0  0
 17 14  1  0  0  0  0
 18 11  1  0  0  0  0
 19  2  1  0  0  0  0
 21 26  1  0  0  0  0
 22 18  1  0  0  0  0
 22 21  1  0  0  0  0
 23  9  2  0  0  0  0
 24 25  1  0  0  0  0
 26 27  1  0  0  0  0
 27 29  1  0  0  0  0
 29 28  1  0  0  0  0
 30 23  1  0  0  0  0
 31 32  1  0  0  0  0
 32 30  1  0  0  0  0
 32 33  2  0  0  0  0
 35 36  2  0  0  0  0
 36 33  1  0  0  0  0
 36 34  1  0  0  0  0
 37 31  2  0  0  0  0
 37 35  1  0  0  0  0
M  END
>  <MODEL>
7

>  <REMARK>
 VINA RESULT:      -5.3      3.499      9.561
  Name = 
  6 active torsions:
  status: ('A' for Active; 'I' for Inactive)
    1  A    between atoms: C_5  and  C_23
    2  A    between atoms: C_6  and  C_31
    3  A    between atoms: C_17  and  C_26
    4  A    between atoms: C_17  and  C_33
    5  A    between atoms: C_26  and  O_34
    6  A    between atoms: C_31  and  C_37
                            x       y       z     vdW  Elec       q    Type
                         _______ _______ _______ _____ _____    ______ ____

>  <TORSDO>
F 6

$$$$
=
 OpenBabel11052415223D

 37 43  0  0  1  0  0  0  0  0999 V2000
  181.8620  177.5220  141.4470 C   0  0  2  0  0  3  0  0  0  0  0  0
  180.7720  182.8290  137.4130 C   0  0  0  0  0  2  0  0  0  0  0  0
  181.4640  178.6950  136.9880 C   0  0  0  0  0  0  0  0  0  0  0  0
  180.6710  177.9140  142.3040 C   0  0  1  0  0  3  0  0  0  0  0  0
  183.9130  178.5720  140.4850 C   0  0  0  0  0  2  0  0  0  0  0  0
  179.9010  180.5880  136.5490 C   0  0  2  0  0  3  0  0  0  0  0  0
  182.0990  177.9450  138.1160 C   0  0  1  0  0  3  0  0  0  0  0  0
  180.7830  179.7420  137.4360 C   0  0  0  0  0  0  0  0  0  0  0  0
  183.6180  177.9680  138.0470 C   0  0  0  0  0  0  0  0  0  0  0  0
  179.4850  179.8370  135.2740 C   0  0  0  0  0  2  0  0  0  0  0  0
  180.9190  179.8220  138.8930 C   0  0  2  0  0  3  0  0  0  0  0  0
  179.5880  181.9380  139.3980 C   0  0  0  0  0  3  0  0  0  0  0  0
  181.9240  177.2010  135.1950 O   0  0  0  0  0  0  0  0  0  0  0  0
  180.6760  179.1490  134.5960 C   0  0  0  0  0  2  0  0  0  0  0  0
  180.7460  181.0490  139.7520 C   0  0  0  0  0  2  0  0  0  0  0  0
  184.4140  178.7840  139.0500 C   0  0  0  0  0  2  0  0  0  0  0  0
  181.3880  178.2720  135.5790 C   0  0  0  0  0  0  0  0  0  0  0  0
  181.6370  178.7660  139.2870 C   0  0  2  0  0  3  0  0  0  0  0  0
  180.5340  181.9360  136.1960 C   0  0  0  0  0  2  0  0  0  0  0  0
  179.6080  182.7820  138.3580 C   0  0  0  0  0  3  0  0  0  0  0  0
  181.6690  178.9770  141.8970 C   0  0  2  0  0  0  0  0  0  0  0  0
  182.3840  178.6590  140.5870 C   0  0  1  0  0  0  0  0  0  0  0  0
  184.2370  177.2710  137.0850 C   0  0  0  0  0  3  0  0  0  0  0  0
  179.1490  176.6700  140.7930 C   0  0  0  0  0  1  0  0  0  0  0  0
  179.4170  178.0060  141.4530 C   0  0  0  0  0  2  0  0  0  0  0  0
  182.5900  179.3940  143.0680 C   0  0  0  0  0  2  0  0  0  0  0  0
  182.4610  178.6320  144.3960 C   0  0  0  0  0  2  0  0  0  0  0  0
  184.6550  178.8520  144.6100 C   0  0  0  0  0  1  0  0  0  0  0  0
  183.4540  179.0260  145.3000 O   0  0  0  0  0  0  0  0  0  0  0  0
  185.7260  177.2130  136.9520 C   0  0  0  0  0  2  0  0  0  0  0  0
  187.4730  175.5170  136.4330 C   0  0  0  0  0  3  0  0  0  0  0  0
  186.1880  175.7980  136.9080 C   0  0  0  0  0  0  0  0  0  0  0  0
  185.3440  174.7490  137.2960 C   0  0  0  0  0  3  0  0  0  0  0  0
  184.9770  172.4120  137.5790 F   0  0  0  0  0  0  0  0  0  0  0  0
  187.0750  173.1500  136.7290 C   0  0  0  0  0  3  0  0  0  0  0  0
  185.7890  173.4260  137.2020 C   0  0  0  0  0  0  0  0  0  0  0  0
  187.9180  174.1960  136.3460 C   0  0  0  0  0  3  0  0  0  0  0  0
  1 21  1  0  0  0  0
  1  4  1  0  0  0  0
  2 20  1  0  0  0  0
  3  8  2  0  0  0  0
  3  7  1  0  0  0  0
  5 22  1  0  0  0  0
  6  8  1  0  0  0  0
  7 18  1  0  0  0  0
  8 11  1  0  0  0  0
  9  7  1  0  0  0  0
  9 16  1  0  0  0  0
 10  6  1  0  0  0  0
 11 18  1  0  0  0  0
 11 15  1  0  0  0  0
 12 15  1  0  0  0  0
 13 17  2  0  0  0  0
 14 10  1  0  0  0  0
 14 17  1  0  0  0  0
 16  5  1  0  0  0  0
 17  3  1  0  0  0  0
 18 22  1  0  0  0  0
 19  6  1  0  0  0  0
 19  2  1  0  0  0  0
 20 12  2  0  0  0  0
 21  4  1  0  0  0  0
 21 26  1  0  0  0  0
 22  1  1  0  0  0  0
 22 21  1  0  0  0  0
 23  9  2  0  0  0  0
 24 25  1  0  0  0  0
 25  4  1  0  0  0  0
 26 27  1  0  0  0  0
 27 29  1  0  0  0  0
 28 29  1  0  0  0  0
 30 23  1  0  0  0  0
 31 32  1  0  0  0  0
 32 30  1  0  0  0  0
 32 33  2  0  0  0  0
 35 36  2  0  0  0  0
 36 33  1  0  0  0  0
 36 34  1  0  0  0  0
 37 31  2  0  0  0  0
 37 35  1  0  0  0  0
M  END
>  <MODEL>
8

>  <REMARK>
 VINA RESULT:      -4.9      4.763     10.067
  Name = 
  6 active torsions:
  status: ('A' for Active; 'I' for Inactive)
    1  A    between atoms: C_5  and  C_23
    2  A    between atoms: C_6  and  C_31
    3  A    between atoms: C_17  and  C_26
    4  A    between atoms: C_17  and  C_33
    5  A    between atoms: C_26  and  O_34
    6  A    between atoms: C_31  and  C_37
                            x       y       z     vdW  Elec       q    Type
                         _______ _______ _______ _____ _____    ______ ____

>  <TORSDO>
F 6

$$$$
=
 OpenBabel11052415223D

 37 43  0  0  1  0  0  0  0  0999 V2000
  180.6460  176.7650  141.0310 C   0  0  2  0  0  3  0  0  0  0  0  0
  181.1980  179.6720  134.9590 C   0  0  0  0  0  2  0  0  0  0  0  0
  183.5260  177.1800  137.4320 C   0  0  0  0  0  0  0  0  0  0  0  0
  179.2660  176.2440  140.6690 C   0  0  1  0  0  3  0  0  0  0  0  0
  181.9150  178.9150  140.9860 C   0  0  0  0  0  2  0  0  0  0  0  0
  182.3960  177.4310  135.2230 C   0  0  2  0  0  3  0  0  0  0  0  0
  183.2240  177.1230  138.8960 C   0  0  1  0  0  3  0  0  0  0  0  0
  182.4370  177.4700  136.7320 C   0  0  0  0  0  0  0  0  0  0  0  0
  183.9590  178.1950  139.6830 C   0  0  0  0  0  0  0  0  0  0  0  0
  183.5230  176.5610  134.6430 C   0  0  0  0  0  2  0  0  0  0  0  0
  181.3100  177.6700  137.6470 C   0  0  2  0  0  3  0  0  0  0  0  0
  179.4470  178.2740  136.0150 C   0  0  0  0  0  3  0  0  0  0  0  0
  185.7630  176.3700  137.4450 O   0  0  0  0  0  0  0  0  0  0  0  0
  184.8810  176.8760  135.2820 C   0  0  0  0  0  2  0  0  0  0  0  0
  180.0520  178.4570  137.3770 C   0  0  0  0  0  2  0  0  0  0  0  0
  183.1950  179.3680  140.2710 C   0  0  0  0  0  2  0  0  0  0  0  0
  184.7800  176.7770  136.7730 C   0  0  0  0  0  0  0  0  0  0  0  0
  181.7520  177.4270  138.8860 C   0  0  2  0  0  3  0  0  0  0  0  0
  182.4170  178.8250  134.5940 C   0  0  0  0  0  2  0  0  0  0  0  0
  179.9380  178.8570  134.9140 C   0  0  0  0  0  3  0  0  0  0  0  0
  179.6110  177.6870  140.3700 C   0  0  2  0  0  0  0  0  0  0  0  0
  181.1040  177.9150  140.1500 C   0  0  1  0  0  0  0  0  0  0  0  0
  185.2860  178.0970  139.8380 C   0  0  0  0  0  3  0  0  0  0  0  0
  179.4140  173.9390  139.7650 C   0  0  0  0  0  1  0  0  0  0  0  0
  179.3340  175.4070  139.4030 C   0  0  0  0  0  2  0  0  0  0  0  0
  178.9320  178.6670  141.3560 C   0  0  0  0  0  2  0  0  0  0  0  0
  179.0490  180.1730  141.0750 C   0  0  0  0  0  2  0  0  0  0  0  0
  179.5180  180.2350  143.2400 C   0  0  0  0  0  1  0  0  0  0  0  0
  179.8790  180.7970  142.0140 O   0  0  0  0  0  0  0  0  0  0  0  0
  186.0920  179.0880  140.6160 C   0  0  0  0  0  2  0  0  0  0  0  0
  187.2280  177.6340  142.2860 C   0  0  0  0  0  3  0  0  0  0  0  0
  186.2760  178.6220  142.0180 C   0  0  0  0  0  0  0  0  0  0  0  0
  185.4850  179.1290  143.0580 C   0  0  0  0  0  3  0  0  0  0  0  0
  184.8900  179.1310  145.3650 F   0  0  0  0  0  0  0  0  0  0  0  0
  186.6040  177.6550  144.6230 C   0  0  0  0  0  3  0  0  0  0  0  0
  185.6500  178.6410  144.3580 C   0  0  0  0  0  0  0  0  0  0  0  0
  187.3960  177.1530  143.5870 C   0  0  0  0  0  3  0  0  0  0  0  0
  3  7  1  0  0  0  0
  4  1  1  0  0  0  0
  6  8  1  0  0  0  0
  7  9  1  0  0  0  0
  8  3  2  0  0  0  0
  8 11  1  0  0  0  0
  9 23  2  0  0  0  0
  9 16  1  0  0  0  0
 10  6  1  0  0  0  0
 10 14  1  0  0  0  0
 11 18  1  0  0  0  0
 12 15  1  0  0  0  0
 14 17  1  0  0  0  0
 15 11  1  0  0  0  0
 16  5  1  0  0  0  0
 17  3  1  0  0  0  0
 17 13  2  0  0  0  0
 18  7  1  0  0  0  0
 18 22  1  0  0  0  0
 19  2  1  0  0  0  0
 19  6  1  0  0  0  0
 20  2  1  0  0  0  0
 20 12  2  0  0  0  0
 21  4  1  0  0  0  0
 21  1  1  0  0  0  0
 21 26  1  0  0  0  0
 22 21  1  0  0  0  0
 22  5  1  0  0  0  0
 22  1  1  0  0  0  0
 23 30  1  0  0  0  0
 25 24  1  0  0  0  0
 25  4  1  0  0  0  0
 27 26  1  0  0  0  0
 27 29  1  0  0  0  0
 29 28  1  0  0  0  0
 30 32  1  0  0  0  0
 31 37  1  0  0  0  0
 32 31  2  0  0  0  0
 32 33  1  0  0  0  0
 33 36  2  0  0  0  0
 36 35  1  0  0  0  0
 36 34  1  0  0  0  0
 37 35  2  0  0  0  0
M  END
>  <MODEL>
9

>  <REMARK>
 VINA RESULT:      -4.7      5.307      9.382
  Name = 
  6 active torsions:
  status: ('A' for Active; 'I' for Inactive)
    1  A    between atoms: C_5  and  C_23
    2  A    between atoms: C_6  and  C_31
    3  A    between atoms: C_17  and  C_26
    4  A    between atoms: C_17  and  C_33
    5  A    between atoms: C_26  and  O_34
    6  A    between atoms: C_31  and  C_37
                            x       y       z     vdW  Elec       q    Type
                         _______ _______ _______ _____ _____    ______ ____

>  <TORSDO>
F 6

$$$$
