=
 OpenBabel11052412573D

 31 35  0  0  1  0  0  0  0  0999 V2000
  184.9820  178.5040  144.6480 C   0  0  0  0  0  0  0  0  0  0  0  0
  188.4930  177.7590  143.4730 C   0  0  0  0  0  0  0  0  0  0  0  0
  189.2920  177.5410  144.6540 C   0  0  0  0  0  0  0  0  0  0  0  0
  189.4310  177.5720  147.2560 C   0  0  0  0  0  2  0  0  0  0  0  0
  187.0880  178.0490  143.4880 C   0  0  0  0  0  0  0  0  0  0  0  0
  184.3200  178.6330  143.4280 C   0  0  0  0  0  3  0  0  0  0  0  0
  188.6010  177.3660  145.9980 C   0  0  0  0  0  2  0  0  0  0  0  0
  188.3870  177.8470  141.0170 C   0  0  0  0  0  0  0  0  0  0  0  0
  184.2340  178.6690  145.9210 C   0  0  0  0  0  1  0  0  0  0  0  0
  191.2700  177.2930  143.2390 C   0  0  0  0  0  3  0  0  0  0  0  0
  190.2990  176.4370  147.4380 N   0  0  0  0  0  0  0  0  0  0  0  0
  187.0560  178.0910  141.0820 N   0  0  0  0  0  0  0  0  0  0  0  0
  189.1280  177.6860  142.1990 C   0  0  0  0  0  0  0  0  0  0  0  0
  189.0290  177.7510  139.7390 N   0  0  0  0  0  2  0  0  0  0  0  0
  186.3470  178.2190  144.6720 C   0  0  0  0  0  3  0  0  0  0  0  0
  191.3290  176.2630  146.6890 C   0  0  0  0  0  3  0  0  0  0  0  0
  186.3970  178.2010  142.2580 C   0  0  0  0  0  0  0  0  0  0  0  0
  185.0280  178.4830  142.2370 C   0  0  0  0  0  3  0  0  0  0  0  0
  190.4990  177.4540  142.1030 C   0  0  0  0  0  3  0  0  0  0  0  0
  190.6980  177.3250  144.5040 C   0  0  0  0  0  0  0  0  0  0  0  0
  191.6890  177.2590  145.6320 C   0  0  0  0  0  2  0  0  0  0  0  0
  189.1370  178.8270  137.5590 C   0  0  0  0  0  1  0  0  0  0  0  0
  188.3210  177.9410  138.4820 C   0  0  1  0  0  3  0  0  0  0  0  0
  188.1040  176.6480  137.8510 N   0  0  0  0  0  2  0  0  0  0  0  0
  189.2820  176.2810  137.2310 O   0  0  0  0  0  0  0  0  0  0  0  0
  189.1810  173.9760  137.2110 O   0  0  0  0  0  0  0  0  0  0  0  0
  189.8500  175.0200  137.4330 C   0  0  0  0  0  0  0  0  0  0  0  0
  191.1940  174.9050  137.8940 N   0  0  0  0  0  2  0  0  0  0  0  0
  193.4720  175.6860  138.1180 C   0  0  0  0  0  2  0  0  0  0  0  0
  192.8450  176.3890  136.9360 C   0  0  0  0  0  2  0  0  0  0  0  0
  192.0090  176.0780  138.1610 C   0  0  0  0  0  3  0  0  0  0  0  0
  1 15  1  0  0  0  0
  1  9  1  0  0  0  0
  2  5  1  0  0  0  0
  2  3  1  0  0  0  0
  3  7  1  0  0  0  0
  4 11  1  0  0  0  0
  5 15  2  0  0  0  0
  6  1  2  0  0  0  0
  7  4  1  0  0  0  0
  8 12  2  0  0  0  0
  8 13  1  0  0  0  0
 10 20  1  0  0  0  0
 12 17  1  0  0  0  0
 13  2  2  0  0  0  0
 14  8  1  0  0  0  0
 16 11  2  0  0  0  0
 17  5  1  0  0  0  0
 18 17  2  0  0  0  0
 18  6  1  0  0  0  0
 19 13  1  0  0  0  0
 19 10  2  0  0  0  0
 20  3  2  0  0  0  0
 20 21  1  0  0  0  0
 21 16  1  0  0  0  0
 23 22  1  6  0  0  0
 23 14  1  0  0  0  0
 24 23  1  0  0  0  0
 25 27  1  0  0  0  0
 25 24  1  0  0  0  0
 26 27  2  0  0  0  0
 27 28  1  0  0  0  0
 28 31  1  0  0  0  0
 29 31  1  0  0  0  0
 30 29  1  0  0  0  0
 30 31  1  0  0  0  0
M  END
>  <MODEL>
1

>  <REMARK>
 VINA RESULT:      -9.7      0.000      0.000
  Name = 
  5 active torsions:
  status: ('A' for Active; 'I' for Inactive)
    1  A    between atoms: O_3  and  C_19
    2  A    between atoms: O_3  and  N_22
    3  A    between atoms: C_9  and  N_22
    4  A    between atoms: C_9  and  N_23
    5  A    between atoms: C_11  and  N_24
                            x       y       z     vdW  Elec       q    Type
                         _______ _______ _______ _____ _____    ______ ____

>  <TORSDO>
F 5

$$$$
=
 OpenBabel11052412573D

 31 35  0  0  1  0  0  0  0  0999 V2000
  190.2050  177.1170  145.3720 C   0  0  0  0  0  0  0  0  0  0  0  0
  187.3590  178.0810  143.0850 C   0  0  0  0  0  0  0  0  0  0  0  0
  186.1740  178.1660  143.9040 C   0  0  0  0  0  0  0  0  0  0  0  0
  185.0830  177.8100  146.2430 C   0  0  0  0  0  2  0  0  0  0  0  0
  188.6660  177.7610  143.5820 C   0  0  0  0  0  0  0  0  0  0  0  0
  191.2740  177.1280  144.4790 C   0  0  0  0  0  3  0  0  0  0  0  0
  186.3140  178.1540  145.4180 C   0  0  0  0  0  2  0  0  0  0  0  0
  188.3680  178.3010  140.8520 C   0  0  0  0  0  0  0  0  0  0  0  0
  190.4330  176.7760  146.8010 C   0  0  0  0  0  1  0  0  0  0  0  0
  184.8540  178.6340  141.9000 C   0  0  0  0  0  3  0  0  0  0  0  0
  184.1800  178.9310  146.2310 N   0  0  0  0  0  0  0  0  0  0  0  0
  189.5860  178.0210  141.3750 N   0  0  0  0  0  0  0  0  0  0  0  0
  187.2380  178.3280  141.6870 C   0  0  0  0  0  0  0  0  0  0  0  0
  188.2420  178.5710  139.4510 N   0  0  0  0  0  2  0  0  0  0  0  0
  188.9200  177.4260  144.9250 C   0  0  0  0  0  3  0  0  0  0  0  0
  183.4960  179.2220  145.1830 C   0  0  0  0  0  3  0  0  0  0  0  0
  189.7660  177.7490  142.6870 C   0  0  0  0  0  0  0  0  0  0  0  0
  191.0530  177.4420  143.1390 C   0  0  0  0  0  3  0  0  0  0  0  0
  185.9940  178.6000  141.1200 C   0  0  0  0  0  3  0  0  0  0  0  0
  184.9180  178.4300  143.2720 C   0  0  0  0  0  0  0  0  0  0  0  0
  183.5790  178.3750  143.9510 C   0  0  0  0  0  2  0  0  0  0  0  0
  189.7420  177.0820  138.2440 C   0  0  0  0  0  1  0  0  0  0  0  0
  189.3690  178.5250  138.5320 C   0  0  1  0  0  3  0  0  0  0  0  0
  189.0060  179.1920  137.2900 N   0  0  0  0  0  2  0  0  0  0  0  0
  187.6440  179.0460  137.1180 O   0  0  0  0  0  0  0  0  0  0  0  0
  187.7310  178.0530  135.0370 O   0  0  0  0  0  0  0  0  0  0  0  0
  187.1200  178.2110  136.1270 C   0  0  0  0  0  0  0  0  0  0  0  0
  185.8840  177.5320  136.3410 N   0  0  0  0  0  2  0  0  0  0  0  0
  183.6590  177.7050  137.2720 C   0  0  0  0  0  2  0  0  0  0  0  0
  184.2970  176.4410  137.8020 C   0  0  0  0  0  2  0  0  0  0  0  0
  185.1430  177.6790  137.5820 C   0  0  0  0  0  3  0  0  0  0  0  0
  1  9  1  0  0  0  0
  2  5  1  0  0  0  0
  2  3  1  0  0  0  0
  3  7  1  0  0  0  0
  5 15  2  0  0  0  0
  6  1  2  0  0  0  0
  7  4  1  0  0  0  0
  8 12  2  0  0  0  0
  8 13  1  0  0  0  0
 10 20  1  0  0  0  0
 11  4  1  0  0  0  0
 12 17  1  0  0  0  0
 13  2  2  0  0  0  0
 14  8  1  0  0  0  0
 15  1  1  0  0  0  0
 16 11  2  0  0  0  0
 17 18  2  0  0  0  0
 17  5  1  0  0  0  0
 18  6  1  0  0  0  0
 19 13  1  0  0  0  0
 19 10  2  0  0  0  0
 20  3  2  0  0  0  0
 20 21  1  0  0  0  0
 21 16  1  0  0  0  0
 23 22  1  6  0  0  0
 23 14  1  0  0  0  0
 24 23  1  0  0  0  0
 25 24  1  0  0  0  0
 26 27  2  0  0  0  0
 27 28  1  0  0  0  0
 27 25  1  0  0  0  0
 28 31  1  0  0  0  0
 29 31  1  0  0  0  0
 29 30  1  0  0  0  0
 31 30  1  0  0  0  0
M  END
>  <MODEL>
2

>  <REMARK>
 VINA RESULT:      -9.5      2.303      5.249
  Name = 
  5 active torsions:
  status: ('A' for Active; 'I' for Inactive)
    1  A    between atoms: O_3  and  C_19
    2  A    between atoms: O_3  and  N_22
    3  A    between atoms: C_9  and  N_22
    4  A    between atoms: C_9  and  N_23
    5  A    between atoms: C_11  and  N_24
                            x       y       z     vdW  Elec       q    Type
                         _______ _______ _______ _____ _____    ______ ____

>  <TORSDO>
F 5

$$$$
=
 OpenBabel11052412573D

 31 35  0  0  1  0  0  0  0  0999 V2000
  185.0300  178.4870  144.7060 C   0  0  0  0  0  0  0  0  0  0  0  0
  188.5280  177.7790  143.4740 C   0  0  0  0  0  0  0  0  0  0  0  0
  189.3430  177.5400  144.6400 C   0  0  0  0  0  0  0  0  0  0  0  0
  189.5140  177.5190  147.2400 C   0  0  0  0  0  2  0  0  0  0  0  0
  187.1230  178.0630  143.5120 C   0  0  0  0  0  0  0  0  0  0  0  0
  184.3520  178.6370  143.4970 C   0  0  0  0  0  3  0  0  0  0  0  0
  188.6690  177.3360  145.9890 C   0  0  0  0  0  2  0  0  0  0  0  0
  188.3920  177.9150  141.0210 C   0  0  0  0  0  0  0  0  0  0  0  0
  184.2970  178.6240  145.9910 C   0  0  0  0  0  1  0  0  0  0  0  0
  191.3040  177.3280  143.1960 C   0  0  0  0  0  3  0  0  0  0  0  0
  190.3880  176.3850  147.3890 N   0  0  0  0  0  0  0  0  0  0  0  0
  187.0610  178.1530  141.1080 N   0  0  0  0  0  0  0  0  0  0  0  0
  189.1480  177.7330  142.1910 C   0  0  0  0  0  0  0  0  0  0  0  0
  189.0180  177.8470  139.7340 N   0  0  0  0  0  2  0  0  0  0  0  0
  186.3960  178.2070  144.7080 C   0  0  0  0  0  3  0  0  0  0  0  0
  191.4090  176.2290  146.6240 C   0  0  0  0  0  3  0  0  0  0  0  0
  186.4160  178.2370  142.2940 C   0  0  0  0  0  0  0  0  0  0  0  0
  185.0460  178.5140  142.2950 C   0  0  0  0  0  3  0  0  0  0  0  0
  190.5180  177.5090  142.0730 C   0  0  0  0  0  3  0  0  0  0  0  0
  190.7470  177.3320  144.4680 C   0  0  0  0  0  0  0  0  0  0  0  0
  191.7520  177.2480  145.5820 C   0  0  0  0  0  2  0  0  0  0  0  0
  189.0690  179.0120  137.5970 C   0  0  0  0  0  1  0  0  0  0  0  0
  188.2940  178.0590  138.4900 C   0  0  1  0  0  3  0  0  0  0  0  0
  188.1210  176.7850  137.8100 N   0  0  0  0  0  2  0  0  0  0  0  0
  186.7680  176.5090  137.7730 O   0  0  0  0  0  0  0  0  0  0  0  0
  186.2230  176.9940  135.5840 O   0  0  0  0  0  0  0  0  0  0  0  0
  185.9340  177.0780  136.8080 C   0  0  0  0  0  0  0  0  0  0  0  0
  184.7460  177.7630  137.2000 N   0  0  0  0  0  2  0  0  0  0  0  0
  184.1730  179.3510  138.9320 C   0  0  0  0  0  2  0  0  0  0  0  0
  182.9710  178.4680  138.6820 C   0  0  0  0  0  2  0  0  0  0  0  0
  184.3670  177.8850  138.5970 C   0  0  0  0  0  3  0  0  0  0  0  0
  1 15  1  0  0  0  0
  1  9  1  0  0  0  0
  2  5  1  0  0  0  0
  2  3  1  0  0  0  0
  3  7  1  0  0  0  0
  4 11  1  0  0  0  0
  5 15  2  0  0  0  0
  6  1  2  0  0  0  0
  7  4  1  0  0  0  0
  8 12  2  0  0  0  0
  8 13  1  0  0  0  0
 10 20  1  0  0  0  0
 12 17  1  0  0  0  0
 13  2  2  0  0  0  0
 14  8  1  0  0  0  0
 16 11  2  0  0  0  0
 17 18  2  0  0  0  0
 17  5  1  0  0  0  0
 18  6  1  0  0  0  0
 19 13  1  0  0  0  0
 19 10  2  0  0  0  0
 20  3  2  0  0  0  0
 20 21  1  0  0  0  0
 21 16  1  0  0  0  0
 23 22  1  6  0  0  0
 23 14  1  0  0  0  0
 24 23  1  0  0  0  0
 25 24  1  0  0  0  0
 26 27  2  0  0  0  0
 27 28  1  0  0  0  0
 27 25  1  0  0  0  0
 28 31  1  0  0  0  0
 30 29  1  0  0  0  0
 31 30  1  0  0  0  0
 31 29  1  0  0  0  0
M  END
>  <MODEL>
3

>  <REMARK>
 VINA RESULT:      -9.5      1.901      3.431
  Name = 
  5 active torsions:
  status: ('A' for Active; 'I' for Inactive)
    1  A    between atoms: O_3  and  C_19
    2  A    between atoms: O_3  and  N_22
    3  A    between atoms: C_9  and  N_22
    4  A    between atoms: C_9  and  N_23
    5  A    between atoms: C_11  and  N_24
                            x       y       z     vdW  Elec       q    Type
                         _______ _______ _______ _____ _____    ______ ____

>  <TORSDO>
F 5

$$$$
=
 OpenBabel11052412573D

 31 35  0  0  1  0  0  0  0  0999 V2000
  189.7380  177.3030  141.7590 C   0  0  0  0  0  0  0  0  0  0  0  0
  186.3450  178.3460  143.0490 C   0  0  0  0  0  0  0  0  0  0  0  0
  186.3760  178.1890  144.4830 C   0  0  0  0  0  0  0  0  0  0  0  0
  187.6830  177.3670  146.5810 C   0  0  0  0  0  2  0  0  0  0  0  0
  187.4540  178.0750  142.1810 C   0  0  0  0  0  0  0  0  0  0  0  0
  189.5890  177.5570  140.3970 C   0  0  0  0  0  3  0  0  0  0  0  0
  187.7080  177.9510  145.1770 C   0  0  0  0  0  2  0  0  0  0  0  0
  185.0700  179.0110  141.0530 C   0  0  0  0  0  0  0  0  0  0  0  0
  191.0210  176.7640  142.2800 C   0  0  0  0  0  1  0  0  0  0  0  0
  184.0220  178.8420  144.5790 C   0  0  0  0  0  3  0  0  0  0  0  0
  187.2650  178.3850  147.5080 N   0  0  0  0  0  0  0  0  0  0  0  0
  186.1540  178.7670  140.2780 N   0  0  0  0  0  0  0  0  0  0  0  0
  185.1390  178.7990  142.4400 C   0  0  0  0  0  0  0  0  0  0  0  0
  183.8590  179.4870  140.4510 N   0  0  0  0  0  2  0  0  0  0  0  0
  188.6820  177.5580  142.6340 C   0  0  0  0  0  3  0  0  0  0  0  0
  186.0410  178.7730  147.5600 C   0  0  0  0  0  3  0  0  0  0  0  0
  187.3200  178.3090  140.7880 C   0  0  0  0  0  0  0  0  0  0  0  0
  188.3810  178.0570  139.9140 C   0  0  0  0  0  3  0  0  0  0  0  0
  184.0030  179.0400  143.2110 C   0  0  0  0  0  3  0  0  0  0  0  0
  185.1790  178.4310  145.2270 C   0  0  0  0  0  0  0  0  0  0  0  0
  184.9970  178.1430  146.6910 C   0  0  0  0  0  2  0  0  0  0  0  0
  182.8100  178.6270  138.4300 C   0  0  0  0  0  1  0  0  0  0  0  0
  183.7170  179.6930  139.0170 C   0  0  1  0  0  3  0  0  0  0  0  0
  183.1450  181.0090  138.7750 N   0  0  0  0  0  2  0  0  0  0  0  0
  181.8650  180.8260  138.2890 O   0  0  0  0  0  0  0  0  0  0  0  0
  180.2170  181.1720  139.8660 O   0  0  0  0  0  0  0  0  0  0  0  0
  180.7810  181.5430  138.8030 C   0  0  0  0  0  0  0  0  0  0  0  0
  180.3010  182.7020  138.1240 N   0  0  0  0  0  2  0  0  0  0  0  0
  180.1950  184.4180  136.4230 C   0  0  0  0  0  2  0  0  0  0  0  0
  181.5210  184.5420  137.1390 C   0  0  0  0  0  2  0  0  0  0  0  0
  180.9190  183.1730  136.8960 C   0  0  0  0  0  3  0  0  0  0  0  0
  1  9  1  0  0  0  0
  1 15  1  0  0  0  0
  2  3  1  0  0  0  0
  3  7  1  0  0  0  0
  3 20  2  0  0  0  0
  4 11  1  0  0  0  0
  5 15  2  0  0  0  0
  5  2  1  0  0  0  0
  6  1  2  0  0  0  0
  7  4  1  0  0  0  0
  8 13  1  0  0  0  0
 10 20  1  0  0  0  0
 11 16  2  0  0  0  0
 12 17  1  0  0  0  0
 12  8  2  0  0  0  0
 13  2  2  0  0  0  0
 13 19  1  0  0  0  0
 14  8  1  0  0  0  0
 17  5  1  0  0  0  0
 18  6  1  0  0  0  0
 18 17  2  0  0  0  0
 19 10  2  0  0  0  0
 20 21  1  0  0  0  0
 21 16  1  0  0  0  0
 23 22  1  1  0  0  0
 23 14  1  0  0  0  0
 24 23  1  0  0  0  0
 25 24  1  0  0  0  0
 25 27  1  0  0  0  0
 27 26  2  0  0  0  0
 28 27  1  0  0  0  0
 29 31  1  0  0  0  0
 29 30  1  0  0  0  0
 31 30  1  0  0  0  0
 31 28  1  0  0  0  0
M  END
>  <MODEL>
4

>  <REMARK>
 VINA RESULT:      -9.3      4.584      7.477
  Name = 
  5 active torsions:
  status: ('A' for Active; 'I' for Inactive)
    1  A    between atoms: O_3  and  C_19
    2  A    between atoms: O_3  and  N_22
    3  A    between atoms: C_9  and  N_22
    4  A    between atoms: C_9  and  N_23
    5  A    between atoms: C_11  and  N_24
                            x       y       z     vdW  Elec       q    Type
                         _______ _______ _______ _____ _____    ______ ____

>  <TORSDO>
F 5

$$$$
=
 OpenBabel11052412573D

 31 35  0  0  1  0  0  0  0  0999 V2000
  184.9540  178.5230  144.6300 C   0  0  0  0  0  0  0  0  0  0  0  0
  188.4530  177.7930  143.4120 C   0  0  0  0  0  0  0  0  0  0  0  0
  189.2640  177.5600  144.5820 C   0  0  0  0  0  0  0  0  0  0  0  0
  189.4280  177.5560  147.1820 C   0  0  0  0  0  2  0  0  0  0  0  0
  187.0490  178.0830  143.4440 C   0  0  0  0  0  0  0  0  0  0  0  0
  184.2800  178.6670  143.4180 C   0  0  0  0  0  3  0  0  0  0  0  0
  188.5860  177.3670  145.9300 C   0  0  0  0  0  2  0  0  0  0  0  0
  188.3230  177.9130  140.9580 C   0  0  0  0  0  0  0  0  0  0  0  0
  184.2180  178.6710  145.9120 C   0  0  0  0  0  1  0  0  0  0  0  0
  191.2280  177.3300  143.1450 C   0  0  0  0  0  3  0  0  0  0  0  0
  190.2980  176.4200  147.3410 N   0  0  0  0  0  0  0  0  0  0  0  0
  186.9930  178.1570  141.0390 N   0  0  0  0  0  0  0  0  0  0  0  0
  189.0760  177.7360  142.1310 C   0  0  0  0  0  0  0  0  0  0  0  0
  188.9530  177.8330  139.6730 N   0  0  0  0  0  2  0  0  0  0  0  0
  186.3190  178.2370  144.6370 C   0  0  0  0  0  3  0  0  0  0  0  0
  191.3200  176.2550  146.5800 C   0  0  0  0  0  3  0  0  0  0  0  0
  186.3460  178.2510  142.2230 C   0  0  0  0  0  0  0  0  0  0  0  0
  184.9760  178.5330  142.2190 C   0  0  0  0  0  3  0  0  0  0  0  0
  190.4460  177.5060  142.0180 C   0  0  0  0  0  3  0  0  0  0  0  0
  190.6680  177.3450  144.4150 C   0  0  0  0  0  0  0  0  0  0  0  0
  191.6690  177.2650  145.5320 C   0  0  0  0  0  2  0  0  0  0  0  0
  189.0250  178.9650  137.5190 C   0  0  0  0  0  1  0  0  0  0  0  0
  188.2330  178.0400  138.4260 C   0  0  1  0  0  3  0  0  0  0  0  0
  188.0380  176.7590  137.7640 N   0  0  0  0  0  2  0  0  0  0  0  0
  186.6780  176.5370  137.6710 O   0  0  0  0  0  0  0  0  0  0  0  0
  186.3060  176.8450  135.4150 O   0  0  0  0  0  0  0  0  0  0  0  0
  186.0780  176.1800  136.4600 C   0  0  0  0  0  0  0  0  0  0  0  0
  185.2000  175.0580  136.3980 N   0  0  0  0  0  2  0  0  0  0  0  0
  184.3970  172.9000  137.1340 C   0  0  0  0  0  2  0  0  0  0  0  0
  185.8290  173.0540  137.5950 C   0  0  0  0  0  2  0  0  0  0  0  0
  184.9070  174.2570  137.5740 C   0  0  0  0  0  3  0  0  0  0  0  0
  1 15  1  0  0  0  0
  1  9  1  0  0  0  0
  2  5  1  0  0  0  0
  2  3  1  0  0  0  0
  3  7  1  0  0  0  0
  4 11  1  0  0  0  0
  5 15  2  0  0  0  0
  6  1  2  0  0  0  0
  7  4  1  0  0  0  0
  8 12  2  0  0  0  0
  8 13  1  0  0  0  0
 10 20  1  0  0  0  0
 12 17  1  0  0  0  0
 13  2  2  0  0  0  0
 14  8  1  0  0  0  0
 16 11  2  0  0  0  0
 17  5  1  0  0  0  0
 18 17  2  0  0  0  0
 18  6  1  0  0  0  0
 19 13  1  0  0  0  0
 19 10  2  0  0  0  0
 20  3  2  0  0  0  0
 20 21  1  0  0  0  0
 21 16  1  0  0  0  0
 23 22  1  6  0  0  0
 23 14  1  0  0  0  0
 24 23  1  0  0  0  0
 25 24  1  0  0  0  0
 26 27  2  0  0  0  0
 27 25  1  0  0  0  0
 28 27  1  0  0  0  0
 28 31  1  0  0  0  0
 29 31  1  0  0  0  0
 29 30  1  0  0  0  0
 31 30  1  0  0  0  0
M  END
>  <MODEL>
5

>  <REMARK>
 VINA RESULT:      -9.3      2.004      3.046
  Name = 
  5 active torsions:
  status: ('A' for Active; 'I' for Inactive)
    1  A    between atoms: O_3  and  C_19
    2  A    between atoms: O_3  and  N_22
    3  A    between atoms: C_9  and  N_22
    4  A    between atoms: C_9  and  N_23
    5  A    between atoms: C_11  and  N_24
                            x       y       z     vdW  Elec       q    Type
                         _______ _______ _______ _____ _____    ______ ____

>  <TORSDO>
F 5

$$$$
=
 OpenBabel11052412573D

 31 35  0  0  1  0  0  0  0  0999 V2000
  190.3670  177.2560  142.0460 C   0  0  0  0  0  0  0  0  0  0  0  0
  186.9050  178.2050  143.2150 C   0  0  0  0  0  0  0  0  0  0  0  0
  186.8890  178.0500  144.6490 C   0  0  0  0  0  0  0  0  0  0  0  0
  188.1460  177.2660  146.7930 C   0  0  0  0  0  2  0  0  0  0  0  0
  188.0500  177.9650  142.3860 C   0  0  0  0  0  0  0  0  0  0  0  0
  190.2590  177.5040  140.6790 C   0  0  0  0  0  3  0  0  0  0  0  0
  188.2030  177.8490  145.3890 C   0  0  0  0  0  2  0  0  0  0  0  0
  185.6810  178.8330  141.1760 C   0  0  0  0  0  0  0  0  0  0  0  0
  191.6460  176.7530  142.6110 C   0  0  0  0  0  1  0  0  0  0  0  0
  184.5160  178.6380  144.6630 C   0  0  0  0  0  3  0  0  0  0  0  0
  187.6680  178.2740  147.7030 N   0  0  0  0  0  0  0  0  0  0  0  0
  186.7970  178.6190  140.4390 N   0  0  0  0  0  0  0  0  0  0  0  0
  185.7080  178.6240  142.5640 C   0  0  0  0  0  0  0  0  0  0  0  0
  184.4790  179.2750  140.5310 N   0  0  0  0  0  2  0  0  0  0  0  0
  189.2750  177.4820  142.8830 C   0  0  0  0  0  3  0  0  0  0  0  0
  186.4330  178.6270  147.7120 C   0  0  0  0  0  3  0  0  0  0  0  0
  187.9570  178.1940  140.9890 C   0  0  0  0  0  0  0  0  0  0  0  0
  189.0550  177.9700  140.1530 C   0  0  0  0  0  3  0  0  0  0  0  0
  184.5390  178.8340  143.2950 C   0  0  0  0  0  3  0  0  0  0  0  0
  185.6610  178.2590  145.3520 C   0  0  0  0  0  0  0  0  0  0  0  0
  185.4370  177.9680  146.8090 C   0  0  0  0  0  2  0  0  0  0  0  0
  183.7920  178.2400  138.4380 C   0  0  0  0  0  1  0  0  0  0  0  0
  184.3810  179.4760  139.0930 C   0  0  1  0  0  3  0  0  0  0  0  0
  183.5280  180.6240  138.8250 N   0  0  0  0  0  2  0  0  0  0  0  0
  182.2570  180.1500  138.5670 O   0  0  0  0  0  0  0  0  0  0  0  0
  180.6650  181.8170  138.6690 O   0  0  0  0  0  0  0  0  0  0  0  0
  181.1280  180.7430  139.1380 C   0  0  0  0  0  0  0  0  0  0  0  0
  180.4900  180.1380  140.2610 N   0  0  0  0  0  2  0  0  0  0  0  0
  180.9370  179.0010  142.3470 C   0  0  0  0  0  2  0  0  0  0  0  0
  179.8630  178.2330  141.6110 C   0  0  0  0  0  2  0  0  0  0  0  0
  180.9830  178.8980  140.8360 C   0  0  0  0  0  3  0  0  0  0  0  0
  1  9  1  0  0  0  0
  1 15  1  0  0  0  0
  2  3  1  0  0  0  0
  3 20  2  0  0  0  0
  3  7  1  0  0  0  0
  4 11  1  0  0  0  0
  5 15  2  0  0  0  0
  5  2  1  0  0  0  0
  6  1  2  0  0  0  0
  7  4  1  0  0  0  0
  8 13  1  0  0  0  0
 10 20  1  0  0  0  0
 11 16  2  0  0  0  0
 12 17  1  0  0  0  0
 12  8  2  0  0  0  0
 13  2  2  0  0  0  0
 13 19  1  0  0  0  0
 14  8  1  0  0  0  0
 17  5  1  0  0  0  0
 18  6  1  0  0  0  0
 18 17  2  0  0  0  0
 19 10  2  0  0  0  0
 20 21  1  0  0  0  0
 21 16  1  0  0  0  0
 23 22  1  6  0  0  0
 23 14  1  0  0  0  0
 24 23  1  0  0  0  0
 25 24  1  0  0  0  0
 25 27  1  0  0  0  0
 26 27  2  0  0  0  0
 27 28  1  0  0  0  0
 28 31  1  0  0  0  0
 30 29  1  0  0  0  0
 31 30  1  0  0  0  0
 31 29  1  0  0  0  0
M  END
>  <MODEL>
6

>  <REMARK>
 VINA RESULT:      -9.3      3.585      6.975
  Name = 
  5 active torsions:
  status: ('A' for Active; 'I' for Inactive)
    1  A    between atoms: O_3  and  C_19
    2  A    between atoms: O_3  and  N_22
    3  A    between atoms: C_9  and  N_22
    4  A    between atoms: C_9  and  N_23
    5  A    between atoms: C_11  and  N_24
                            x       y       z     vdW  Elec       q    Type
                         _______ _______ _______ _____ _____    ______ ____

>  <TORSDO>
F 5

$$$$
=
 OpenBabel11052412573D

 31 35  0  0  1  0  0  0  0  0999 V2000
  190.8460  177.2850  142.0080 C   0  0  0  0  0  0  0  0  0  0  0  0
  187.7550  177.7850  144.1170 C   0  0  0  0  0  0  0  0  0  0  0  0
  188.1670  177.6850  145.4960 C   0  0  0  0  0  0  0  0  0  0  0  0
  190.0780  177.1680  147.1910 C   0  0  0  0  0  2  0  0  0  0  0  0
  188.6420  177.6750  142.9960 C   0  0  0  0  0  0  0  0  0  0  0  0
  190.3210  177.4620  140.7290 C   0  0  0  0  0  3  0  0  0  0  0  0
  189.6510  177.6990  145.8310 C   0  0  0  0  0  2  0  0  0  0  0  0
  185.9270  178.1550  142.5120 C   0  0  0  0  0  0  0  0  0  0  0  0
  192.2910  176.9880  142.1840 C   0  0  0  0  0  1  0  0  0  0  0  0
  185.8350  177.9340  146.1860 C   0  0  0  0  0  3  0  0  0  0  0  0
  189.7340  178.1340  148.2020 N   0  0  0  0  0  0  0  0  0  0  0  0
  186.8090  178.0710  141.4870 N   0  0  0  0  0  0  0  0  0  0  0  0
  186.3750  178.0060  143.8350 C   0  0  0  0  0  0  0  0  0  0  0  0
  184.5420  178.3990  142.2380 N   0  0  0  0  0  2  0  0  0  0  0  0
  190.0130  177.3880  143.1220 C   0  0  0  0  0  3  0  0  0  0  0  0
  188.5140  178.3100  148.5640 C   0  0  0  0  0  3  0  0  0  0  0  0
  188.1260  177.8340  141.6840 C   0  0  0  0  0  0  0  0  0  0  0  0
  188.9640  177.7340  140.5690 C   0  0  0  0  0  3  0  0  0  0  0  0
  185.4430  178.0780  144.8690 C   0  0  0  0  0  3  0  0  0  0  0  0
  187.1700  177.7470  146.5200 C   0  0  0  0  0  0  0  0  0  0  0  0
  187.4110  177.4840  147.9790 C   0  0  0  0  0  2  0  0  0  0  0  0
  182.5150  178.7660  140.9390 C   0  0  0  0  0  1  0  0  0  0  0  0
  184.0140  178.5280  140.8880 C   0  0  1  0  0  3  0  0  0  0  0  0
  184.6630  179.6490  140.2230 N   0  0  0  0  0  2  0  0  0  0  0  0
  184.5670  179.4410  138.8610 O   0  0  0  0  0  0  0  0  0  0  0  0
  186.6190  178.6410  138.1730 O   0  0  0  0  0  0  0  0  0  0  0  0
  185.3680  178.4990  138.2090 C   0  0  0  0  0  0  0  0  0  0  0  0
  184.7740  177.3680  137.5750 N   0  0  0  0  0  2  0  0  0  0  0  0
  183.0210  175.8360  136.9200 C   0  0  0  0  0  2  0  0  0  0  0  0
  183.0240  175.9340  138.4280 C   0  0  0  0  0  2  0  0  0  0  0  0
  183.3360  177.1580  137.5910 C   0  0  0  0  0  3  0  0  0  0  0  0
  1  9  1  0  0  0  0
  1 15  1  0  0  0  0
  2  3  1  0  0  0  0
  3  7  1  0  0  0  0
  3 20  2  0  0  0  0
  4 11  1  0  0  0  0
  5 15  2  0  0  0  0
  5  2  1  0  0  0  0
  6  1  2  0  0  0  0
  7  4  1  0  0  0  0
  8 13  1  0  0  0  0
 10 20  1  0  0  0  0
 11 16  2  0  0  0  0
 12 17  1  0  0  0  0
 12  8  2  0  0  0  0
 13  2  2  0  0  0  0
 13 19  1  0  0  0  0
 14  8  1  0  0  0  0
 17  5  1  0  0  0  0
 18  6  1  0  0  0  0
 18 17  2  0  0  0  0
 19 10  2  0  0  0  0
 20 21  1  0  0  0  0
 21 16  1  0  0  0  0
 23 22  1  1  0  0  0
 23 14  1  0  0  0  0
 24 23  1  0  0  0  0
 25 24  1  0  0  0  0
 26 27  2  0  0  0  0
 27 25  1  0  0  0  0
 28 31  1  0  0  0  0
 28 27  1  0  0  0  0
 29 31  1  0  0  0  0
 29 30  1  0  0  0  0
 31 30  1  0  0  0  0
M  END
>  <MODEL>
7

>  <REMARK>
 VINA RESULT:      -9.3      2.657      5.479
  Name = 
  5 active torsions:
  status: ('A' for Active; 'I' for Inactive)
    1  A    between atoms: O_3  and  C_19
    2  A    between atoms: O_3  and  N_22
    3  A    between atoms: C_9  and  N_22
    4  A    between atoms: C_9  and  N_23
    5  A    between atoms: C_11  and  N_24
                            x       y       z     vdW  Elec       q    Type
                         _______ _______ _______ _____ _____    ______ ____

>  <TORSDO>
F 5

$$$$
=
 OpenBabel11052412573D

 31 35  0  0  1  0  0  0  0  0999 V2000
  185.0260  178.5730  144.1470 C   0  0  0  0  0  0  0  0  0  0  0  0
  188.6140  177.7160  143.3370 C   0  0  0  0  0  0  0  0  0  0  0  0
  189.2920  177.5200  144.5950 C   0  0  0  0  0  0  0  0  0  0  0  0
  189.1840  177.6330  147.1960 C   0  0  0  0  0  2  0  0  0  0  0  0
  187.2210  178.0360  143.2090 C   0  0  0  0  0  0  0  0  0  0  0  0
  184.4870  178.6750  142.8670 C   0  0  0  0  0  3  0  0  0  0  0  0
  188.4720  177.4040  145.8720 C   0  0  0  0  0  2  0  0  0  0  0  0
  188.7440  177.7260  140.8810 C   0  0  0  0  0  0  0  0  0  0  0  0
  184.1650  178.7950  145.3370 C   0  0  0  0  0  1  0  0  0  0  0  0
  191.3890  177.1850  143.3840 C   0  0  0  0  0  3  0  0  0  0  0  0
  190.0040  176.4870  147.4950 N   0  0  0  0  0  0  0  0  0  0  0  0
  187.4190  178.0000  140.8110 N   0  0  0  0  0  0  0  0  0  0  0  0
  189.3650  177.5880  142.1330 C   0  0  0  0  0  0  0  0  0  0  0  0
  189.5020  177.5750  139.6740 N   0  0  0  0  0  2  0  0  0  0  0  0
  186.3760  178.2600  144.3110 C   0  0  0  0  0  3  0  0  0  0  0  0
  191.0950  176.2670  146.8540 C   0  0  0  0  0  3  0  0  0  0  0  0
  186.6540  178.1620  141.9140 C   0  0  0  0  0  0  0  0  0  0  0  0
  185.3000  178.4720  141.7540 C   0  0  0  0  0  3  0  0  0  0  0  0
  190.7330  177.3250  142.1750 C   0  0  0  0  0  3  0  0  0  0  0  0
  190.7000  177.2700  144.5870 C   0  0  0  0  0  0  0  0  0  0  0  0
  191.5770  177.2200  145.8060 C   0  0  0  0  0  2  0  0  0  0  0  0
  189.0950  179.1730  137.8840 C   0  0  0  0  0  1  0  0  0  0  0  0
  188.9210  177.7390  138.3500 C   0  0  1  0  0  3  0  0  0  0  0  0
  189.5850  176.8400  137.4180 N   0  0  0  0  0  2  0  0  0  0  0  0
  189.5020  175.5620  137.9350 O   0  0  0  0  0  0  0  0  0  0  0  0
  191.5560  174.5120  137.9190 O   0  0  0  0  0  0  0  0  0  0  0  0
  190.3640  174.5460  137.5130 C   0  0  0  0  0  0  0  0  0  0  0  0
  189.9020  173.5400  136.6150 N   0  0  0  0  0  2  0  0  0  0  0  0
  188.2140  172.1580  135.5710 C   0  0  0  0  0  2  0  0  0  0  0  0
  187.7170  172.5570  136.9410 C   0  0  0  0  0  2  0  0  0  0  0  0
  188.5350  173.5330  136.1210 C   0  0  0  0  0  3  0  0  0  0  0  0
  1 15  1  0  0  0  0
  1  9  1  0  0  0  0
  2  3  1  0  0  0  0
  3  7  1  0  0  0  0
  4 11  1  0  0  0  0
  5  2  1  0  0  0  0
  5 15  2  0  0  0  0
  6  1  2  0  0  0  0
  7  4  1  0  0  0  0
  8 13  1  0  0  0  0
 10 20  1  0  0  0  0
 12  8  2  0  0  0  0
 12 17  1  0  0  0  0
 13 19  1  0  0  0  0
 13  2  2  0  0  0  0
 14  8  1  0  0  0  0
 16 11  2  0  0  0  0
 17  5  1  0  0  0  0
 18 17  2  0  0  0  0
 18  6  1  0  0  0  0
 19 10  2  0  0  0  0
 20  3  2  0  0  0  0
 20 21  1  0  0  0  0
 21 16  1  0  0  0  0
 23 22  1  6  0  0  0
 23 14  1  0  0  0  0
 24 25  1  0  0  0  0
 24 23  1  0  0  0  0
 27 26  2  0  0  0  0
 27 25  1  0  0  0  0
 28 27  1  0  0  0  0
 29 31  1  0  0  0  0
 29 30  1  0  0  0  0
 31 28  1  0  0  0  0
 31 30  1  0  0  0  0
M  END
>  <MODEL>
8

>  <REMARK>
 VINA RESULT:      -9.1      1.269      2.043
  Name = 
  5 active torsions:
  status: ('A' for Active; 'I' for Inactive)
    1  A    between atoms: O_3  and  C_19
    2  A    between atoms: O_3  and  N_22
    3  A    between atoms: C_9  and  N_22
    4  A    between atoms: C_9  and  N_23
    5  A    between atoms: C_11  and  N_24
                            x       y       z     vdW  Elec       q    Type
                         _______ _______ _______ _____ _____    ______ ____

>  <TORSDO>
F 5

$$$$
=
 OpenBabel11052412573D

 31 35  0  0  1  0  0  0  0  0999 V2000
  187.4440  178.1820  140.0380 C   0  0  0  0  0  0  0  0  0  0  0  0
  185.2270  178.4470  143.0830 C   0  0  0  0  0  0  0  0  0  0  0  0
  183.8790  178.6340  142.6040 C   0  0  0  0  0  0  0  0  0  0  0  0
  182.2970  179.0150  140.5690 C   0  0  0  0  0  2  0  0  0  0  0  0
  186.3710  178.2790  142.2350 C   0  0  0  0  0  0  0  0  0  0  0  0
  188.6820  177.9500  140.6350 C   0  0  0  0  0  3  0  0  0  0  0  0
  183.5750  178.4110  141.1310 C   0  0  0  0  0  2  0  0  0  0  0  0
  186.7390  178.2050  145.0090 C   0  0  0  0  0  0  0  0  0  0  0  0
  187.3340  178.2530  138.5580 C   0  0  0  0  0  1  0  0  0  0  0  0
  183.1150  178.8550  144.9170 C   0  0  0  0  0  3  0  0  0  0  0  0
  181.1710  178.2420  141.0240 N   0  0  0  0  0  0  0  0  0  0  0  0
  187.7840  178.0240  144.1660 N   0  0  0  0  0  0  0  0  0  0  0  0
  185.4520  178.4270  144.4900 C   0  0  0  0  0  0  0  0  0  0  0  0
  186.9530  178.1650  146.4250 N   0  0  0  0  0  2  0  0  0  0  0  0
  186.3090  178.3470  140.8310 C   0  0  0  0  0  3  0  0  0  0  0  0
  180.7660  178.3130  142.2420 C   0  0  0  0  0  3  0  0  0  0  0  0
  187.6440  178.0590  142.8220 C   0  0  0  0  0  0  0  0  0  0  0  0
  188.7800  177.8910  142.0240 C   0  0  0  0  0  3  0  0  0  0  0  0
  184.3980  178.6290  145.3800 C   0  0  0  0  0  3  0  0  0  0  0  0
  182.8340  178.8550  143.5570 C   0  0  0  0  0  0  0  0  0  0  0  0
  181.4220  179.2390  143.2180 C   0  0  0  0  0  2  0  0  0  0  0  0
  188.1400  177.8640  148.5290 C   0  0  0  0  0  1  0  0  0  0  0  0
  188.2670  177.9730  147.0200 C   0  0  1  0  0  3  0  0  0  0  0  0
  188.8610  176.7530  146.4920 N   0  0  0  0  0  2  0  0  0  0  0  0
  189.8800  176.3790  147.3450 O   0  0  0  0  0  0  0  0  0  0  0  0
  191.9110  177.1220  148.1490 O   0  0  0  0  0  0  0  0  0  0  0  0
  191.1900  176.8310  147.1580 C   0  0  0  0  0  0  0  0  0  0  0  0
  191.7200  176.9700  145.8420 N   0  0  0  0  0  2  0  0  0  0  0  0
  191.6810  177.0860  143.4270 C   0  0  0  0  0  2  0  0  0  0  0  0
  191.6810  175.6290  143.8310 C   0  0  0  0  0  2  0  0  0  0  0  0
  190.9290  176.6450  144.6670 C   0  0  0  0  0  3  0  0  0  0  0  0
  1  6  2  0  0  0  0
  1 15  1  0  0  0  0
  2 13  1  0  0  0  0
  3  2  2  0  0  0  0
  3 20  1  0  0  0  0
  4 11  1  0  0  0  0
  4  7  1  0  0  0  0
  5 17  1  0  0  0  0
  5  2  1  0  0  0  0
  6 18  1  0  0  0  0
  7  3  1  0  0  0  0
  8 14  1  0  0  0  0
  9  1  1  0  0  0  0
 10 19  1  0  0  0  0
 11 16  2  0  0  0  0
 12  8  2  0  0  0  0
 13  8  1  0  0  0  0
 13 19  2  0  0  0  0
 14 23  1  0  0  0  0
 15  5  2  0  0  0  0
 16 21  1  0  0  0  0
 17 12  1  0  0  0  0
 18 17  2  0  0  0  0
 20 10  2  0  0  0  0
 21 20  1  0  0  0  0
 23 22  1  1  0  0  0
 24 23  1  0  0  0  0
 24 25  1  0  0  0  0
 27 25  1  0  0  0  0
 27 26  2  0  0  0  0
 28 27  1  0  0  0  0
 29 30  1  0  0  0  0
 29 31  1  0  0  0  0
 30 31  1  0  0  0  0
 31 28  1  0  0  0  0
M  END
>  <MODEL>
9

>  <REMARK>
 VINA RESULT:      -9.0      3.925      7.645
  Name = 
  5 active torsions:
  status: ('A' for Active; 'I' for Inactive)
    1  A    between atoms: O_3  and  C_19
    2  A    between atoms: O_3  and  N_22
    3  A    between atoms: C_9  and  N_22
    4  A    between atoms: C_9  and  N_23
    5  A    between atoms: C_11  and  N_24
                            x       y       z     vdW  Elec       q    Type
                         _______ _______ _______ _____ _____    ______ ____

>  <TORSDO>
F 5

$$$$
