=
 OpenBabel11052413233D

 28 31  0  0  1  0  0  0  0  0999 V2000
  188.6450  177.4120  145.5160 C   0  0  0  0  0  0  0  0  0  0  0  0
  185.1560  178.1400  146.8900 C   0  0  0  0  0  2  0  0  0  0  0  0
  185.6370  178.4190  143.8770 C   0  0  0  0  0  2  0  0  0  0  0  0
  187.4250  178.2510  147.9020 C   0  0  0  0  0  3  0  0  0  0  0  0
  186.4180  177.2070  144.3730 C   0  0  0  0  0  2  0  0  0  0  0  0
  188.8120  178.1220  147.8370 C   0  0  0  0  0  3  0  0  0  0  0  0
  184.7280  179.2170  146.0070 N   0  0  0  0  0  2  0  0  0  0  0  0
  186.6370  177.9590  146.7860 C   0  0  0  0  0  0  0  0  0  0  0  0
  184.3820  178.6310  144.7160 C   0  0  1  0  0  3  0  0  0  0  0  0
  189.4170  177.7050  146.6520 C   0  0  0  0  0  3  0  0  0  0  0  0
  187.2460  177.5390  145.5840 C   0  0  0  0  0  0  0  0  0  0  0  0
  189.2380  176.9870  144.3150 O   0  0  0  0  0  0  0  0  0  0  0  0
  189.7860  177.8380  143.3030 C   0  0  1  0  0  3  0  0  0  0  0  0
  191.6270  177.5310  141.0360 C   0  0  0  0  0  2  0  0  0  0  0  0
  191.3070  178.0120  143.4520 C   0  0  0  0  0  2  0  0  0  0  0  0
  187.9730  177.2790  141.7080 F   0  0  0  0  0  0  0  0  0  0  0  0
  189.3000  177.4740  141.9150 C   0  0  0  0  0  0  0  0  0  0  0  0
  190.1500  177.2980  140.8910 C   0  0  0  0  0  3  0  0  0  0  0  0
  192.0880  177.1760  142.4420 C   0  0  0  0  0  2  0  0  0  0  0  0
  183.4370  179.5630  143.9650 C   0  0  0  0  0  2  0  0  0  0  0  0
  183.0830  178.7700  141.5910 C   0  0  0  0  0  2  0  0  0  0  0  0
  180.8230  179.5480  143.0380 S   0  0  0  0  0  0  0  0  0  0  0  0
  181.0620  178.3020  140.2010 C   0  0  2  0  0  3  0  0  0  0  0  0
  182.5030  178.8280  143.0030 C   0  0  2  0  0  3  0  0  0  0  0  0
  179.8600  177.8680  141.0400 C   0  0  0  0  0  2  0  0  0  0  0  0
  180.0710  177.9640  142.5520 C   0  0  0  0  0  2  0  0  0  0  0  0
  180.8530  177.8610  138.7670 C   0  0  0  0  0  1  0  0  0  0  0  0
  182.3780  177.7370  140.7200 C   0  0  0  0  0  2  0  0  0  0  0  0
  1 11  2  0  0  0  0
  1 10  1  0  0  0  0
  3  5  1  0  0  0  0
  3  9  1  0  0  0  0
  5 11  1  0  0  0  0
  6  4  1  0  0  0  0
  7  2  1  0  0  0  0
  8  2  1  0  0  0  0
  8  4  2  0  0  0  0
  9 20  1  6  0  0  0
  9  7  1  0  0  0  0
 10  6  2  0  0  0  0
 11  8  1  0  0  0  0
 12  1  1  0  0  0  0
 13 15  1  0  0  0  0
 13 12  1  1  0  0  0
 14 19  1  0  0  0  0
 16 17  1  0  0  0  0
 17 13  1  0  0  0  0
 18 14  1  0  0  0  0
 18 17  2  0  0  0  0
 19 15  1  0  0  0  0
 21 24  1  0  0  0  0
 23 27  1  6  0  0  0
 23 28  1  0  0  0  0
 23 25  1  0  0  0  0
 24 22  1  0  0  0  0
 24 20  1  1  0  0  0
 25 26  1  0  0  0  0
 26 22  1  0  0  0  0
 28 21  1  0  0  0  0
M  END
>  <MODEL>
1

>  <REMARK>
 VINA RESULT:      -9.3      0.000      0.000
  Name = 
  4 active torsions:
  status: ('A' for Active; 'I' for Inactive)
    1  A    between atoms: C_1  and  O_2
    2  A    between atoms: O_2  and  C_3
    3  A    between atoms: C_10  and  C_13
    4  A    between atoms: C_10  and  C_25
                            x       y       z     vdW  Elec       q    Type
                         _______ _______ _______ _____ _____    ______ ____

>  <TORSDO>
F 4

$$$$
=
 OpenBabel11052413233D

 28 31  0  0  1  0  0  0  0  0999 V2000
  185.6930  177.9870  145.0130 C   0  0  0  0  0  0  0  0  0  0  0  0
  185.0620  178.3190  141.2600 C   0  0  0  0  0  2  0  0  0  0  0  0
  187.9540  178.1110  142.2520 C   0  0  0  0  0  2  0  0  0  0  0  0
  183.7610  179.0250  143.2590 C   0  0  0  0  0  3  0  0  0  0  0  0
  187.0930  177.1740  143.0930 C   0  0  0  0  0  2  0  0  0  0  0  0
  183.5830  179.1380  144.6370 C   0  0  0  0  0  3  0  0  0  0  0  0
  186.2120  179.1170  140.8550 N   0  0  0  0  0  2  0  0  0  0  0  0
  184.8950  178.3920  142.7450 C   0  0  0  0  0  0  0  0  0  0  0  0
  187.3830  178.2470  140.8440 C   0  0  1  0  0  3  0  0  0  0  0  0
  184.5420  178.6220  145.5080 C   0  0  0  0  0  3  0  0  0  0  0  0
  185.8700  177.8710  143.6220 C   0  0  0  0  0  0  0  0  0  0  0  0
  186.6690  177.4580  145.8760 O   0  0  0  0  0  0  0  0  0  0  0  0
  187.7990  178.1630  146.3960 C   0  0  1  0  0  3  0  0  0  0  0  0
  189.6200  177.8710  148.6810 C   0  0  0  0  0  2  0  0  0  0  0  0
  187.5070  178.8010  147.7650 C   0  0  0  0  0  2  0  0  0  0  0  0
  189.3930  176.7400  145.1400 F   0  0  0  0  0  0  0  0  0  0  0  0
  189.0770  177.3540  146.3090 C   0  0  0  0  0  0  0  0  0  0  0  0
  189.8870  177.1930  147.3670 C   0  0  0  0  0  3  0  0  0  0  0  0
  188.1230  178.0100  148.9160 C   0  0  0  0  0  2  0  0  0  0  0  0
  188.4540  178.8360  139.9320 C   0  0  0  0  0  2  0  0  0  0  0  0
  190.4390  177.3470  139.4470 C   0  0  0  0  0  2  0  0  0  0  0  0
  189.0900  178.4470  137.2610 S   0  0  0  0  0  0  0  0  0  0  0  0
  191.4330  176.4070  137.3590 C   0  0  2  0  0  3  0  0  0  0  0  0
  189.0620  177.8110  138.9750 C   0  0  2  0  0  3  0  0  0  0  0  0
  190.3950  176.2060  136.2530 C   0  0  0  0  0  2  0  0  0  0  0  0
  189.0080  176.7640  136.5730 C   0  0  0  0  0  2  0  0  0  0  0  0
  192.6430  175.5450  137.0680 C   0  0  0  0  0  1  0  0  0  0  0  0
  190.8920  176.0740  138.7430 C   0  0  0  0  0  2  0  0  0  0  0  0
  1 10  1  0  0  0  0
  1 12  1  0  0  0  0
  2  8  1  0  0  0  0
  3  5  1  0  0  0  0
  4  6  1  0  0  0  0
  5 11  1  0  0  0  0
  6 10  2  0  0  0  0
  7  2  1  0  0  0  0
  8  4  2  0  0  0  0
  8 11  1  0  0  0  0
  9 20  1  6  0  0  0
  9  7  1  0  0  0  0
  9  3  1  0  0  0  0
 11  1  2  0  0  0  0
 13 12  1  1  0  0  0
 13 15  1  0  0  0  0
 14 19  1  0  0  0  0
 15 19  1  0  0  0  0
 16 17  1  0  0  0  0
 17 13  1  0  0  0  0
 17 18  2  0  0  0  0
 18 14  1  0  0  0  0
 22 24  1  0  0  0  0
 23 27  1  6  0  0  0
 23 28  1  0  0  0  0
 24 21  1  0  0  0  0
 24 20  1  1  0  0  0
 25 26  1  0  0  0  0
 25 23  1  0  0  0  0
 26 22  1  0  0  0  0
 28 21  1  0  0  0  0
M  END
>  <MODEL>
2

>  <REMARK>
 VINA RESULT:      -9.1      3.244      6.938
  Name = 
  4 active torsions:
  status: ('A' for Active; 'I' for Inactive)
    1  A    between atoms: C_1  and  O_2
    2  A    between atoms: O_2  and  C_3
    3  A    between atoms: C_10  and  C_13
    4  A    between atoms: C_10  and  C_25
                            x       y       z     vdW  Elec       q    Type
                         _______ _______ _______ _____ _____    ______ ____

>  <TORSDO>
F 4

$$$$
=
 OpenBabel11052413233D

 28 31  0  0  1  0  0  0  0  0999 V2000
  187.8290  177.5500  144.6730 C   0  0  0  0  0  0  0  0  0  0  0  0
  191.2760  178.0920  143.1180 C   0  0  0  0  0  2  0  0  0  0  0  0
  188.9860  177.1410  141.3190 C   0  0  0  0  0  2  0  0  0  0  0  0
  190.5330  177.5400  145.4270 C   0  0  0  0  0  3  0  0  0  0  0  0
  188.4240  178.1560  142.3080 C   0  0  0  0  0  2  0  0  0  0  0  0
  189.5460  177.2620  146.3710 C   0  0  0  0  0  3  0  0  0  0  0  0
  191.2990  177.0340  142.1170 N   0  0  0  0  0  2  0  0  0  0  0  0
  190.1830  177.8300  144.1060 C   0  0  0  0  0  0  0  0  0  0  0  0
  190.4460  177.4450  141.0070 C   0  0  1  0  0  3  0  0  0  0  0  0
  188.2030  177.2680  145.9960 C   0  0  0  0  0  3  0  0  0  0  0  0
  188.8260  177.8340  143.7210 C   0  0  0  0  0  0  0  0  0  0  0  0
  186.4800  177.5640  144.2770 O   0  0  0  0  0  0  0  0  0  0  0  0
  185.6190  178.7070  144.2710 C   0  0  1  0  0  3  0  0  0  0  0  0
  182.7790  179.2270  143.7370 C   0  0  0  0  0  2  0  0  0  0  0  0
  185.0960  179.0330  142.8620 C   0  0  0  0  0  2  0  0  0  0  0  0
  184.9500  178.3430  146.6300 F   0  0  0  0  0  0  0  0  0  0  0  0
  184.5700  178.6480  145.3630 C   0  0  0  0  0  0  0  0  0  0  0  0
  183.2690  178.8500  145.1060 C   0  0  0  0  0  3  0  0  0  0  0  0
  183.6490  178.5890  142.6640 C   0  0  0  0  0  2  0  0  0  0  0  0
  190.8490  176.6930  139.7430 C   0  0  0  0  0  2  0  0  0  0  0  0
  189.9780  175.4590  137.7150 C   0  0  0  0  0  2  0  0  0  0  0  0
  189.3910  178.1840  137.9130 S   0  0  0  0  0  0  0  0  0  0  0  0
  188.4670  176.0740  135.8260 C   0  0  2  0  0  3  0  0  0  0  0  0
  189.7150  176.5770  138.7230 C   0  0  2  0  0  3  0  0  0  0  0  0
  187.4470  177.1450  136.2150 C   0  0  0  0  0  2  0  0  0  0  0  0
  187.6520  177.7440  137.6070 C   0  0  0  0  0  2  0  0  0  0  0  0
  187.9760  175.3440  134.5940 C   0  0  0  0  0  1  0  0  0  0  0  0
  188.7230  175.0710  136.9430 C   0  0  0  0  0  2  0  0  0  0  0  0
  1 10  1  0  0  0  0
  2  8  1  0  0  0  0
  3  5  1  0  0  0  0
  4  6  1  0  0  0  0
  5 11  1  0  0  0  0
  7  2  1  0  0  0  0
  8  4  2  0  0  0  0
  9 20  1  6  0  0  0
  9  3  1  0  0  0  0
  9  7  1  0  0  0  0
 10  6  2  0  0  0  0
 11  8  1  0  0  0  0
 11  1  2  0  0  0  0
 12  1  1  0  0  0  0
 13 12  1  6  0  0  0
 13 17  1  0  0  0  0
 14 18  1  0  0  0  0
 15 13  1  0  0  0  0
 17 16  1  0  0  0  0
 18 17  2  0  0  0  0
 19 15  1  0  0  0  0
 19 14  1  0  0  0  0
 21 24  1  0  0  0  0
 22 24  1  0  0  0  0
 23 27  1  6  0  0  0
 23 25  1  0  0  0  0
 23 28  1  0  0  0  0
 24 20  1  1  0  0  0
 25 26  1  0  0  0  0
 26 22  1  0  0  0  0
 28 21  1  0  0  0  0
M  END
>  <MODEL>
3

>  <REMARK>
 VINA RESULT:      -9.0      3.732      6.867
  Name = 
  4 active torsions:
  status: ('A' for Active; 'I' for Inactive)
    1  A    between atoms: C_1  and  O_2
    2  A    between atoms: O_2  and  C_3
    3  A    between atoms: C_10  and  C_13
    4  A    between atoms: C_10  and  C_25
                            x       y       z     vdW  Elec       q    Type
                         _______ _______ _______ _____ _____    ______ ____

>  <TORSDO>
F 4

$$$$
=
 OpenBabel11052413233D

 28 31  0  0  1  0  0  0  0  0999 V2000
  188.5160  177.1810  146.1650 C   0  0  0  0  0  0  0  0  0  0  0  0
  185.1320  178.3500  144.8320 C   0  0  0  0  0  2  0  0  0  0  0  0
  187.3840  177.7870  142.8320 C   0  0  0  0  0  2  0  0  0  0  0  0
  186.2910  178.6690  147.0100 C   0  0  0  0  0  3  0  0  0  0  0  0
  187.4510  176.7340  143.9330 C   0  0  0  0  0  2  0  0  0  0  0  0
  187.3750  178.4900  147.8680 C   0  0  0  0  0  3  0  0  0  0  0  0
  185.5470  179.1590  143.6920 N   0  0  0  0  0  2  0  0  0  0  0  0
  186.3030  178.1070  145.7310 C   0  0  0  0  0  0  0  0  0  0  0  0
  185.9490  178.2540  142.6200 C   0  0  1  0  0  3  0  0  0  0  0  0
  188.4790  177.7490  147.4470 C   0  0  0  0  0  3  0  0  0  0  0  0
  187.4200  177.3600  145.3010 C   0  0  0  0  0  0  0  0  0  0  0  0
  189.6200  176.4290  145.7250 O   0  0  0  0  0  0  0  0  0  0  0  0
  190.8160  176.9560  145.1460 C   0  0  1  0  0  3  0  0  0  0  0  0
  191.7520  177.6310  142.4460 C   0  0  0  0  0  2  0  0  0  0  0  0
  191.5250  175.9320  144.2420 C   0  0  0  0  0  2  0  0  0  0  0  0
  189.9720  179.2830  145.2690 F   0  0  0  0  0  0  0  0  0  0  0  0
  190.6110  178.3310  144.5430 C   0  0  0  0  0  0  0  0  0  0  0  0
  191.0080  178.6230  143.2940 C   0  0  0  0  0  3  0  0  0  0  0  0
  191.2990  176.2130  142.7600 C   0  0  0  0  0  2  0  0  0  0  0  0
  185.8560  178.9720  141.2790 C   0  0  0  0  0  2  0  0  0  0  0  0
  183.5330  177.9770  141.3520 C   0  0  0  0  0  2  0  0  0  0  0  0
  184.4230  178.9870  138.9040 S   0  0  0  0  0  0  0  0  0  0  0  0
  181.6510  177.8400  139.7180 C   0  0  2  0  0  3  0  0  0  0  0  0
  184.4300  179.0460  140.7310 C   0  0  2  0  0  3  0  0  0  0  0  0
  181.6460  179.0070  138.7290 C   0  0  0  0  0  2  0  0  0  0  0  0
  182.8660  179.9250  138.8220 C   0  0  0  0  0  2  0  0  0  0  0  0
  180.2740  177.2110  139.7520 C   0  0  0  0  0  1  0  0  0  0  0  0
  182.0530  178.2610  141.1250 C   0  0  0  0  0  2  0  0  0  0  0  0
  1 10  1  0  0  0  0
  2  8  1  0  0  0  0
  3  5  1  0  0  0  0
  4  6  1  0  0  0  0
  5 11  1  0  0  0  0
  7  2  1  0  0  0  0
  8  4  2  0  0  0  0
  9 20  1  6  0  0  0
  9  3  1  0  0  0  0
  9  7  1  0  0  0  0
 10  6  2  0  0  0  0
 11  8  1  0  0  0  0
 11  1  2  0  0  0  0
 12  1  1  0  0  0  0
 13 12  1  6  0  0  0
 14 19  1  0  0  0  0
 14 18  1  0  0  0  0
 15 13  1  0  0  0  0
 17 13  1  0  0  0  0
 17 16  1  0  0  0  0
 18 17  2  0  0  0  0
 19 15  1  0  0  0  0
 22 24  1  0  0  0  0
 23 27  1  1  0  0  0
 23 28  1  0  0  0  0
 24 20  1  1  0  0  0
 24 21  1  0  0  0  0
 25 26  1  0  0  0  0
 25 23  1  0  0  0  0
 26 22  1  0  0  0  0
 28 21  1  0  0  0  0
M  END
>  <MODEL>
4

>  <REMARK>
 VINA RESULT:      -8.8      1.954      2.521
  Name = 
  4 active torsions:
  status: ('A' for Active; 'I' for Inactive)
    1  A    between atoms: C_1  and  O_2
    2  A    between atoms: O_2  and  C_3
    3  A    between atoms: C_10  and  C_13
    4  A    between atoms: C_10  and  C_25
                            x       y       z     vdW  Elec       q    Type
                         _______ _______ _______ _____ _____    ______ ____

>  <TORSDO>
F 4

$$$$
=
 OpenBabel11052413233D

 28 31  0  0  1  0  0  0  0  0999 V2000
  186.7190  178.3830  145.1090 C   0  0  0  0  0  0  0  0  0  0  0  0
  183.6960  178.1120  142.7890 C   0  0  0  0  0  2  0  0  0  0  0  0
  186.4210  178.8150  141.5760 C   0  0  0  0  0  2  0  0  0  0  0  0
  183.9260  178.6510  145.2060 C   0  0  0  0  0  3  0  0  0  0  0  0
  186.6410  177.7770  142.6710 C   0  0  0  0  0  2  0  0  0  0  0  0
  184.6860  178.8630  146.3550 C   0  0  0  0  0  3  0  0  0  0  0  0
  184.0050  179.1440  141.8080 N   0  0  0  0  0  2  0  0  0  0  0  0
  184.5470  178.3000  144.0050 C   0  0  0  0  0  0  0  0  0  0  0  0
  185.0520  178.6330  140.9300 C   0  0  1  0  0  3  0  0  0  0  0  0
  186.0740  178.7290  146.3060 C   0  0  0  0  0  3  0  0  0  0  0  0
  185.9510  178.1660  143.9500 C   0  0  0  0  0  0  0  0  0  0  0  0
  188.1160  178.2410  145.0410 O   0  0  0  0  0  0  0  0  0  0  0  0
  188.8540  177.0560  145.3540 C   0  0  1  0  0  3  0  0  0  0  0  0
  191.6420  176.3950  145.9930 C   0  0  0  0  0  2  0  0  0  0  0  0
  189.8860  176.7100  144.2660 C   0  0  0  0  0  2  0  0  0  0  0  0
  188.5310  177.3750  147.7900 F   0  0  0  0  0  0  0  0  0  0  0  0
  189.3760  177.0560  146.7760 C   0  0  0  0  0  0  0  0  0  0  0  0
  190.6600  176.7900  147.0590 C   0  0  0  0  0  3  0  0  0  0  0  0
  191.3080  177.0820  144.6780 C   0  0  0  0  0  2  0  0  0  0  0  0
  185.0270  179.3880  139.6050 C   0  0  0  0  0  2  0  0  0  0  0  0
  183.9720  177.3370  138.5700 C   0  0  0  0  0  2  0  0  0  0  0  0
  186.6540  177.8450  137.9720 S   0  0  0  0  0  0  0  0  0  0  0  0
  184.7320  175.6560  136.8880 C   0  0  2  0  0  3  0  0  0  0  0  0
  184.9840  178.4660  138.3860 C   0  0  2  0  0  3  0  0  0  0  0  0
  185.7420  176.2340  135.8950 C   0  0  0  0  0  2  0  0  0  0  0  0
  186.2110  177.6530  136.2180 C   0  0  0  0  0  2  0  0  0  0  0  0
  184.1120  174.4080  136.2960 C   0  0  0  0  0  1  0  0  0  0  0  0
  183.6340  176.6450  137.2550 C   0  0  0  0  0  2  0  0  0  0  0  0
  1 10  1  0  0  0  0
  2  8  1  0  0  0  0
  3  5  1  0  0  0  0
  4  6  1  0  0  0  0
  5 11  1  0  0  0  0
  7  2  1  0  0  0  0
  8  4  2  0  0  0  0
  9 20  1  6  0  0  0
  9  3  1  0  0  0  0
  9  7  1  0  0  0  0
 10  6  2  0  0  0  0
 11  8  1  0  0  0  0
 11  1  2  0  0  0  0
 12  1  1  0  0  0  0
 13 12  1  6  0  0  0
 13 17  1  0  0  0  0
 14 18  1  0  0  0  0
 15 19  1  0  0  0  0
 15 13  1  0  0  0  0
 17 18  2  0  0  0  0
 17 16  1  0  0  0  0
 19 14  1  0  0  0  0
 22 24  1  0  0  0  0
 23 27  1  6  0  0  0
 23 28  1  0  0  0  0
 24 21  1  0  0  0  0
 24 20  1  1  0  0  0
 25 26  1  0  0  0  0
 25 23  1  0  0  0  0
 26 22  1  0  0  0  0
 28 21  1  0  0  0  0
M  END
>  <MODEL>
5

>  <REMARK>
 VINA RESULT:      -8.3      3.368      4.704
  Name = 
  4 active torsions:
  status: ('A' for Active; 'I' for Inactive)
    1  A    between atoms: C_1  and  O_2
    2  A    between atoms: O_2  and  C_3
    3  A    between atoms: C_10  and  C_13
    4  A    between atoms: C_10  and  C_25
                            x       y       z     vdW  Elec       q    Type
                         _______ _______ _______ _____ _____    ______ ____

>  <TORSDO>
F 4

$$$$
=
 OpenBabel11052413233D

 28 31  0  0  1  0  0  0  0  0999 V2000
  189.2830  177.7350  144.3170 C   0  0  0  0  0  0  0  0  0  0  0  0
  191.4850  177.1560  141.2500 C   0  0  0  0  0  2  0  0  0  0  0  0
  188.4870  177.6310  140.8370 C   0  0  0  0  0  2  0  0  0  0  0  0
  191.6910  176.4650  143.6310 C   0  0  0  0  0  3  0  0  0  0  0  0
  188.9630  178.5450  141.9600 C   0  0  0  0  0  2  0  0  0  0  0  0
  191.2260  176.4130  144.9440 C   0  0  0  0  0  3  0  0  0  0  0  0
  190.5700  176.4250  140.3840 N   0  0  0  0  0  2  0  0  0  0  0  0
  190.9670  177.1520  142.6530 C   0  0  0  0  0  0  0  0  0  0  0  0
  189.6090  177.3770  139.8370 C   0  0  1  0  0  3  0  0  0  0  0  0
  190.0300  177.0450  145.2840 C   0  0  0  0  0  3  0  0  0  0  0  0
  189.7540  177.7900  142.9920 C   0  0  0  0  0  0  0  0  0  0  0  0
  188.0770  178.3810  144.6430 O   0  0  0  0  0  0  0  0  0  0  0  0
  186.8580  177.7370  145.0240 C   0  0  1  0  0  3  0  0  0  0  0  0
  184.2660  178.5730  146.1220 C   0  0  0  0  0  2  0  0  0  0  0  0
  186.6000  177.8310  146.5380 C   0  0  0  0  0  2  0  0  0  0  0  0
  185.8520  178.0930  142.7870 F   0  0  0  0  0  0  0  0  0  0  0  0
  185.6940  178.1270  144.1350 C   0  0  0  0  0  0  0  0  0  0  0  0
  184.5240  178.5440  144.6420 C   0  0  0  0  0  3  0  0  0  0  0  0
  185.5480  178.8810  146.8820 C   0  0  0  0  0  2  0  0  0  0  0  0
  189.0080  176.8200  138.5510 C   0  0  0  0  0  2  0  0  0  0  0  0
  191.1290  176.6460  137.1860 C   0  0  0  0  0  2  0  0  0  0  0  0
  189.0480  174.8900  136.5600 S   0  0  0  0  0  0  0  0  0  0  0  0
  191.9410  175.0630  135.4350 C   0  0  2  0  0  3  0  0  0  0  0  0
  189.9540  175.8850  137.7980 C   0  0  2  0  0  3  0  0  0  0  0  0
  191.3490  173.6610  135.5920 C   0  0  0  0  0  2  0  0  0  0  0  0
  190.2670  173.5430  136.6660 C   0  0  0  0  0  2  0  0  0  0  0  0
  193.1970  174.9820  134.5940 C   0  0  0  0  0  1  0  0  0  0  0  0
  192.2650  175.7180  136.7710 C   0  0  0  0  0  2  0  0  0  0  0  0
  1 12  1  0  0  0  0
  1 10  1  0  0  0  0
  2  8  1  0  0  0  0
  3  5  1  0  0  0  0
  4  6  1  0  0  0  0
  5 11  1  0  0  0  0
  6 10  2  0  0  0  0
  7  2  1  0  0  0  0
  8 11  1  0  0  0  0
  8  4  2  0  0  0  0
  9 20  1  6  0  0  0
  9  7  1  0  0  0  0
  9  3  1  0  0  0  0
 11  1  2  0  0  0  0
 13 12  1  6  0  0  0
 13 15  1  0  0  0  0
 14 19  1  0  0  0  0
 15 19  1  0  0  0  0
 16 17  1  0  0  0  0
 17 18  2  0  0  0  0
 17 13  1  0  0  0  0
 18 14  1  0  0  0  0
 21 24  1  0  0  0  0
 22 26  1  0  0  0  0
 22 24  1  0  0  0  0
 23 27  1  6  0  0  0
 23 25  1  0  0  0  0
 23 28  1  0  0  0  0
 24 20  1  6  0  0  0
 25 26  1  0  0  0  0
 28 21  1  0  0  0  0
M  END
>  <MODEL>
6

>  <REMARK>
 VINA RESULT:      -8.2      4.019      7.953
  Name = 
  4 active torsions:
  status: ('A' for Active; 'I' for Inactive)
    1  A    between atoms: C_1  and  O_2
    2  A    between atoms: O_2  and  C_3
    3  A    between atoms: C_10  and  C_13
    4  A    between atoms: C_10  and  C_25
                            x       y       z     vdW  Elec       q    Type
                         _______ _______ _______ _____ _____    ______ ____

>  <TORSDO>
F 4

$$$$
=
 OpenBabel11052413233D

 28 31  0  0  1  0  0  0  0  0999 V2000
  187.2020  178.2550  145.5670 C   0  0  0  0  0  0  0  0  0  0  0  0
  183.9530  178.1300  143.5610 C   0  0  0  0  0  2  0  0  0  0  0  0
  186.5860  178.5970  142.0660 C   0  0  0  0  0  2  0  0  0  0  0  0
  184.4570  178.7250  145.9230 C   0  0  0  0  0  3  0  0  0  0  0  0
  186.8420  177.5810  143.1740 C   0  0  0  0  0  2  0  0  0  0  0  0
  185.3400  178.9180  146.9850 C   0  0  0  0  0  3  0  0  0  0  0  0
  184.2340  179.1070  142.5170 N   0  0  0  0  0  2  0  0  0  0  0  0
  184.9300  178.2940  144.6820 C   0  0  0  0  0  0  0  0  0  0  0  0
  185.1510  178.4950  141.5620 C   0  0  1  0  0  3  0  0  0  0  0  0
  186.7030  178.6830  146.8080 C   0  0  0  0  0  3  0  0  0  0  0  0
  186.3100  178.0580  144.4970 C   0  0  0  0  0  0  0  0  0  0  0  0
  188.5720  178.0100  145.3710 O   0  0  0  0  0  0  0  0  0  0  0  0
  189.2590  176.7940  145.6780 C   0  0  1  0  0  3  0  0  0  0  0  0
  192.0310  176.0000  146.2350 C   0  0  0  0  0  2  0  0  0  0  0  0
  190.2340  176.3790  144.5630 C   0  0  0  0  0  2  0  0  0  0  0  0
  189.0370  177.1650  148.1190 F   0  0  0  0  0  0  0  0  0  0  0  0
  189.8290  176.7880  147.0820 C   0  0  0  0  0  0  0  0  0  0  0  0
  191.1070  176.4610  147.3260 C   0  0  0  0  0  3  0  0  0  0  0  0
  191.6860  176.6830  144.9200 C   0  0  0  0  0  2  0  0  0  0  0  0
  185.0470  179.2080  140.2190 C   0  0  0  0  0  2  0  0  0  0  0  0
  184.6290  177.9980  138.0380 C   0  0  0  0  0  2  0  0  0  0  0  0
  182.6850  179.8110  138.8970 S   0  0  0  0  0  0  0  0  0  0  0  0
  182.6960  177.8770  136.4630 C   0  0  2  0  0  3  0  0  0  0  0  0
  183.9950  178.5990  139.2920 C   0  0  2  0  0  3  0  0  0  0  0  0
  181.3530  178.0880  137.1650 C   0  0  0  0  0  2  0  0  0  0  0  0
  181.4600  178.4910  138.6360 C   0  0  0  0  0  2  0  0  0  0  0  0
  182.4620  177.1810  135.1400 C   0  0  0  0  0  1  0  0  0  0  0  0
  183.6770  177.0660  137.2990 C   0  0  0  0  0  2  0  0  0  0  0  0
  1 10  1  0  0  0  0
  2  8  1  0  0  0  0
  3  5  1  0  0  0  0
  4  6  1  0  0  0  0
  5 11  1  0  0  0  0
  7  2  1  0  0  0  0
  8  4  2  0  0  0  0
  9 20  1  6  0  0  0
  9  3  1  0  0  0  0
  9  7  1  0  0  0  0
 10  6  2  0  0  0  0
 11  8  1  0  0  0  0
 11  1  2  0  0  0  0
 12  1  1  0  0  0  0
 13 12  1  6  0  0  0
 13 17  1  0  0  0  0
 14 18  1  0  0  0  0
 15 19  1  0  0  0  0
 15 13  1  0  0  0  0
 17 18  2  0  0  0  0
 17 16  1  0  0  0  0
 19 14  1  0  0  0  0
 21 24  1  0  0  0  0
 22 24  1  0  0  0  0
 23 27  1  6  0  0  0
 23 25  1  0  0  0  0
 23 28  1  0  0  0  0
 24 20  1  6  0  0  0
 25 26  1  0  0  0  0
 26 22  1  0  0  0  0
 28 21  1  0  0  0  0
M  END
>  <MODEL>
7

>  <REMARK>
 VINA RESULT:      -8.2      2.568      3.794
  Name = 
  4 active torsions:
  status: ('A' for Active; 'I' for Inactive)
    1  A    between atoms: C_1  and  O_2
    2  A    between atoms: O_2  and  C_3
    3  A    between atoms: C_10  and  C_13
    4  A    between atoms: C_10  and  C_25
                            x       y       z     vdW  Elec       q    Type
                         _______ _______ _______ _____ _____    ______ ____

>  <TORSDO>
F 4

$$$$
=
 OpenBabel11052413233D

 28 31  0  0  1  0  0  0  0  0999 V2000
  189.0380  177.7970  143.6250 C   0  0  0  0  0  0  0  0  0  0  0  0
  191.6060  177.3170  140.8380 C   0  0  0  0  0  2  0  0  0  0  0  0
  188.6650  177.7120  140.0740 C   0  0  0  0  0  2  0  0  0  0  0  0
  191.5460  176.6040  143.2210 C   0  0  0  0  0  3  0  0  0  0  0  0
  188.9770  178.6260  141.2540 C   0  0  0  0  0  2  0  0  0  0  0  0
  190.9300  176.5230  144.4680 C   0  0  0  0  0  3  0  0  0  0  0  0
  190.8220  176.5700  139.8630 N   0  0  0  0  0  2  0  0  0  0  0  0
  190.9240  177.2810  142.1690 C   0  0  0  0  0  0  0  0  0  0  0  0
  189.9060  177.5010  139.2130 C   0  0  1  0  0  3  0  0  0  0  0  0
  189.6840  177.1170  144.6690 C   0  0  0  0  0  3  0  0  0  0  0  0
  189.6620  177.8810  142.3670 C   0  0  0  0  0  0  0  0  0  0  0  0
  187.7830  178.4040  143.8100 O   0  0  0  0  0  0  0  0  0  0  0  0
  186.6160  177.7720  144.3420 C   0  0  1  0  0  3  0  0  0  0  0  0
  184.2170  178.6240  145.8050 C   0  0  0  0  0  2  0  0  0  0  0  0
  186.5700  177.8350  145.8790 C   0  0  0  0  0  2  0  0  0  0  0  0
  185.3180  178.1950  142.2740 F   0  0  0  0  0  0  0  0  0  0  0  0
  185.3490  178.2010  143.6310 C   0  0  0  0  0  0  0  0  0  0  0  0
  184.2680  178.6250  144.3040 C   0  0  0  0  0  3  0  0  0  0  0  0
  185.5960  178.8950  146.3870 C   0  0  0  0  0  2  0  0  0  0  0  0
  189.4790  176.9440  137.8600 C   0  0  0  0  0  2  0  0  0  0  0  0
  187.6020  175.4680  137.0290 C   0  0  0  0  0  2  0  0  0  0  0  0
  187.2160  178.2330  136.9080 S   0  0  0  0  0  0  0  0  0  0  0  0
  185.2670  175.9000  136.2570 C   0  0  2  0  0  3  0  0  0  0  0  0
  187.9650  176.7790  137.7250 C   0  0  2  0  0  3  0  0  0  0  0  0
  184.6550  177.1430  136.9050 C   0  0  0  0  0  2  0  0  0  0  0  0
  185.6280  177.9620  137.7540 C   0  0  0  0  0  2  0  0  0  0  0  0
  184.1570  175.0180  135.7260 C   0  0  0  0  0  1  0  0  0  0  0  0
  186.1360  175.1000  137.2200 C   0  0  0  0  0  2  0  0  0  0  0  0
  1 12  1  0  0  0  0
  1 10  1  0  0  0  0
  2  8  1  0  0  0  0
  3  5  1  0  0  0  0
  4  6  1  0  0  0  0
  5 11  1  0  0  0  0
  6 10  2  0  0  0  0
  7  2  1  0  0  0  0
  8 11  1  0  0  0  0
  8  4  2  0  0  0  0
  9 20  1  6  0  0  0
  9  7  1  0  0  0  0
  9  3  1  0  0  0  0
 11  1  2  0  0  0  0
 13 12  1  6  0  0  0
 13 15  1  0  0  0  0
 14 19  1  0  0  0  0
 15 19  1  0  0  0  0
 16 17  1  0  0  0  0
 17 18  2  0  0  0  0
 17 13  1  0  0  0  0
 18 14  1  0  0  0  0
 21 28  1  0  0  0  0
 21 24  1  0  0  0  0
 22 24  1  0  0  0  0
 22 26  1  0  0  0  0
 23 27  1  1  0  0  0
 23 25  1  0  0  0  0
 23 28  1  0  0  0  0
 24 20  1  6  0  0  0
 25 26  1  0  0  0  0
M  END
>  <MODEL>
8

>  <REMARK>
 VINA RESULT:      -8.1      3.654      6.321
  Name = 
  4 active torsions:
  status: ('A' for Active; 'I' for Inactive)
    1  A    between atoms: C_1  and  O_2
    2  A    between atoms: O_2  and  C_3
    3  A    between atoms: C_10  and  C_13
    4  A    between atoms: C_10  and  C_25
                            x       y       z     vdW  Elec       q    Type
                         _______ _______ _______ _____ _____    ______ ____

>  <TORSDO>
F 4

$$$$
=
 OpenBabel11052413233D

 28 31  0  0  1  0  0  0  0  0999 V2000
  188.0400  177.3050  145.8890 C   0  0  0  0  0  0  0  0  0  0  0  0
  185.4250  178.2210  143.2580 C   0  0  0  0  0  2  0  0  0  0  0  0
  188.2680  177.5540  142.3330 C   0  0  0  0  0  2  0  0  0  0  0  0
  185.6640  178.7850  145.6690 C   0  0  0  0  0  3  0  0  0  0  0  0
  187.9070  176.6120  143.4770 C   0  0  0  0  0  2  0  0  0  0  0  0
  186.3380  178.7260  146.8880 C   0  0  0  0  0  3  0  0  0  0  0  0
  186.2450  178.9330  142.2870 N   0  0  0  0  0  2  0  0  0  0  0  0
  186.1620  178.1060  144.5550 C   0  0  0  0  0  0  0  0  0  0  0  0
  187.0240  177.9470  141.5460 C   0  0  1  0  0  3  0  0  0  0  0  0
  187.5170  177.9900  146.9970 C   0  0  0  0  0  3  0  0  0  0  0  0
  187.3570  177.3620  144.6590 C   0  0  0  0  0  0  0  0  0  0  0  0
  189.2260  176.5550  145.9800 O   0  0  0  0  0  0  0  0  0  0  0  0
  190.5390  177.0200  145.6550 C   0  0  1  0  0  3  0  0  0  0  0  0
  192.0560  177.5570  143.1990 C   0  0  0  0  0  2  0  0  0  0  0  0
  191.3820  175.9390  144.9580 C   0  0  0  0  0  2  0  0  0  0  0  0
  189.7820  179.3760  145.5190 F   0  0  0  0  0  0  0  0  0  0  0  0
  190.5220  178.3760  144.9780 C   0  0  0  0  0  0  0  0  0  0  0  0
  191.1880  178.6050  143.8350 C   0  0  0  0  0  3  0  0  0  0  0  0
  191.4900  176.1680  143.4530 C   0  0  0  0  0  2  0  0  0  0  0  0
  187.4520  178.5320  140.2040 C   0  0  0  0  0  2  0  0  0  0  0  0
  189.7940  177.8550  139.5340 C   0  0  0  0  0  2  0  0  0  0  0  0
  187.7770  177.5820  137.6190 S   0  0  0  0  0  0  0  0  0  0  0  0
  190.7720  176.7540  137.5180 C   0  0  2  0  0  3  0  0  0  0  0  0
  188.3010  177.5720  139.3710 C   0  0  2  0  0  3  0  0  0  0  0  0
  189.7800  175.8240  136.8170 C   0  0  0  0  0  2  0  0  0  0  0  0
  188.3570  175.8750  137.3750 C   0  0  0  0  0  2  0  0  0  0  0  0
  192.1800  176.3830  137.1030 C   0  0  0  0  0  1  0  0  0  0  0  0
  190.6570  176.7030  139.0360 C   0  0  0  0  0  2  0  0  0  0  0  0
  1 12  1  0  0  0  0
  1 10  1  0  0  0  0
  2  8  1  0  0  0  0
  3  5  1  0  0  0  0
  4  6  1  0  0  0  0
  5 11  1  0  0  0  0
  6 10  2  0  0  0  0
  7  2  1  0  0  0  0
  8 11  1  0  0  0  0
  8  4  2  0  0  0  0
  9 20  1  6  0  0  0
  9  7  1  0  0  0  0
  9  3  1  0  0  0  0
 11  1  2  0  0  0  0
 13 12  1  6  0  0  0
 14 19  1  0  0  0  0
 14 18  1  0  0  0  0
 15 13  1  0  0  0  0
 17 16  1  0  0  0  0
 17 13  1  0  0  0  0
 18 17  2  0  0  0  0
 19 15  1  0  0  0  0
 22 24  1  0  0  0  0
 23 27  1  1  0  0  0
 23 28  1  0  0  0  0
 24 21  1  0  0  0  0
 24 20  1  1  0  0  0
 25 26  1  0  0  0  0
 25 23  1  0  0  0  0
 26 22  1  0  0  0  0
 28 21  1  0  0  0  0
M  END
>  <MODEL>
9

>  <REMARK>
 VINA RESULT:      -8.1      3.400      5.659
  Name = 
  4 active torsions:
  status: ('A' for Active; 'I' for Inactive)
    1  A    between atoms: C_1  and  O_2
    2  A    between atoms: O_2  and  C_3
    3  A    between atoms: C_10  and  C_13
    4  A    between atoms: C_10  and  C_25
                            x       y       z     vdW  Elec       q    Type
                         _______ _______ _______ _____ _____    ______ ____

>  <TORSDO>
F 4

$$$$
