=
 OpenBabel11052415543D

 34 39  0  0  1  0  0  0  0  0999 V2000
  188.7550  177.7520  143.3030 C   0  0  0  0  0  0  0  0  0  0  0  0
  190.9900  177.6240  141.9980 C   0  0  0  0  0  0  0  0  0  0  0  0
  191.6720  177.9320  144.3440 C   0  0  0  0  0  3  0  0  0  0  0  0
  186.8220  177.6450  145.3590 C   0  0  0  0  0  3  0  0  0  0  0  0
  187.3960  178.0430  143.0680 C   0  0  0  0  0  3  0  0  0  0  0  0
  188.1560  177.3720  145.6440 C   0  0  0  0  0  0  0  0  0  0  0  0
  189.8010  176.7870  147.3080 C   0  0  0  0  0  3  0  0  0  0  0  0
  188.4770  176.9880  146.9460 C   0  0  0  0  0  3  0  0  0  0  0  0
  186.4320  178.0280  144.0780 C   0  0  0  0  0  0  0  0  0  0  0  0
  190.5170  177.3910  145.0610 C   0  0  0  0  0  0  0  0  0  0  0  0
  189.1670  177.5030  144.6420 C   0  0  0  0  0  0  0  0  0  0  0  0
  190.8090  177.0210  146.3790 C   0  0  0  0  0  3  0  0  0  0  0  0
  191.6350  177.4000  140.7750 C   0  0  0  0  0  3  0  0  0  0  0  0
  190.9270  177.0110  139.6350 C   0  0  0  0  0  0  0  0  0  0  0  0
  189.5480  176.8560  139.7140 C   0  0  0  0  0  3  0  0  0  0  0  0
  191.8350  178.0370  143.0670 N   0  0  0  0  0  0  0  0  0  0  0  0
  188.8930  177.0960  140.9180 C   0  0  0  0  0  3  0  0  0  0  0  0
  189.5840  177.4930  142.0850 C   0  0  0  0  0  0  0  0  0  0  0  0
  182.7900  178.9710  144.5290 C   0  0  0  0  0  3  0  0  0  0  0  0
  184.5460  178.3410  142.4580 C   0  0  0  0  0  3  0  0  0  0  0  0
  180.9030  179.3300  142.9590 C   0  0  0  0  0  1  0  0  0  0  0  0
  182.3270  178.9640  143.2120 C   0  0  0  0  0  0  0  0  0  0  0  0
  183.2050  178.6270  142.1600 C   0  0  0  0  0  0  0  0  0  0  0  0
  185.0160  178.3480  143.7790 C   0  0  0  0  0  0  0  0  0  0  0  0
  184.1210  178.6620  144.8120 C   0  0  0  0  0  3  0  0  0  0  0  0
  182.6950  177.2330  140.1740 C   0  0  2  0  0  3  0  0  0  0  0  0
  182.7520  178.6520  140.7240 C   0  0  2  0  0  3  0  0  0  0  0  0
  183.8370  178.1480  139.7860 C   0  0  0  0  0  2  0  0  0  0  0  0
  181.6950  177.1620  139.0680 C   0  0  0  0  0  0  0  0  0  0  0  0
  182.0740  177.2250  137.8690 O   0  0  0  0  0  0  0  0  0  0  0  0
  180.3480  176.9770  139.3550 O   0  0  0  0  0  1  0  0  0  0  0  0
  191.5900  176.7730  138.3900 N   0  0  0  0  0  2  0  0  0  0  0  0
  192.9580  176.3810  138.3020 C   0  0  0  0  0  3  0  0  0  0  0  0
  193.5510  176.3090  137.1210 C   0  0  0  0  0  2  0  0  0  0  0  0
  1 11  1  0  0  0  0
  2 18  1  0  0  0  0
  2 16  1  0  0  0  0
  3 10  1  0  0  0  0
  4  6  1  0  0  0  0
  5  1  2  0  0  0  0
  5  9  1  0  0  0  0
  6  8  1  0  0  0  0
  8  7  2  0  0  0  0
  9  4  2  0  0  0  0
 10 12  2  0  0  0  0
 11 10  1  0  0  0  0
 11  6  2  0  0  0  0
 12  7  1  0  0  0  0
 13  2  2  0  0  0  0
 14 15  2  0  0  0  0
 14 13  1  0  0  0  0
 15 17  1  0  0  0  0
 16  3  2  0  0  0  0
 17 18  2  0  0  0  0
 18  1  1  0  0  0  0
 19 25  1  0  0  0  0
 20 24  1  0  0  0  0
 21 22  1  0  0  0  0
 22 19  2  0  0  0  0
 23 20  2  0  0  0  0
 23 22  1  0  0  0  0
 24  9  1  0  0  0  0
 24 25  2  0  0  0  0
 26 29  1  6  0  0  0
 26 27  1  0  0  0  0
 27 23  1  1  0  0  0
 28 26  1  0  0  0  0
 28 27  1  0  0  0  0
 29 31  1  0  0  0  0
 30 29  2  0  0  0  0
 32 14  1  0  0  0  0
 33 32  1  0  0  0  0
 34 33  2  0  0  0  0
M  END
>  <MODEL>
1

>  <REMARK>
 VINA RESULT:     -11.1      0.000      0.000
  Name = 
  5 active torsions:
  status: ('A' for Active; 'I' for Inactive)
    1  A    between atoms: N_3  and  C_13
    2  A    between atoms: N_3  and  C_25
    3  A    between atoms: C_7  and  C_11
    4  A    between atoms: C_18  and  C_30
    5  A    between atoms: C_26  and  C_28
                            x       y       z     vdW  Elec       q    Type
                         _______ _______ _______ _____ _____    ______ ____

>  <TORSDO>
F 5

$$$$
=
 OpenBabel11052415543D

 34 39  0  0  1  0  0  0  0  0999 V2000
  183.8410  178.2660  141.6540 C   0  0  0  0  0  0  0  0  0  0  0  0
  183.7640  177.8230  139.1020 C   0  0  0  0  0  0  0  0  0  0  0  0
  181.4070  177.7340  139.8050 C   0  0  0  0  0  3  0  0  0  0  0  0
  183.1260  178.9910  144.2880 C   0  0  0  0  0  3  0  0  0  0  0  0
  184.7520  178.1840  142.7260 C   0  0  0  0  0  3  0  0  0  0  0  0
  182.1850  179.0680  143.2660 C   0  0  0  0  0  0  0  0  0  0  0  0
  179.9190  179.5880  142.6240 C   0  0  0  0  0  3  0  0  0  0  0  0
  180.9230  179.5700  143.5820 C   0  0  0  0  0  3  0  0  0  0  0  0
  184.4070  178.5060  144.0400 C   0  0  0  0  0  0  0  0  0  0  0  0
  181.4260  178.5610  141.0120 C   0  0  0  0  0  0  0  0  0  0  0  0
  182.4940  178.6260  141.9430 C   0  0  0  0  0  0  0  0  0  0  0  0
  180.1650  179.0570  141.3630 C   0  0  0  0  0  3  0  0  0  0  0  0
  184.4650  177.7600  137.8900 C   0  0  0  0  0  3  0  0  0  0  0  0
  185.8180  178.1010  137.8090 C   0  0  0  0  0  0  0  0  0  0  0  0
  186.4860  178.5010  138.9590 C   0  0  0  0  0  3  0  0  0  0  0  0
  182.3990  177.4250  139.0380 N   0  0  0  0  0  0  0  0  0  0  0  0
  185.8070  178.5490  140.1740 C   0  0  0  0  0  3  0  0  0  0  0  0
  184.4400  178.2060  140.2850 C   0  0  0  0  0  0  0  0  0  0  0  0
  186.0960  178.8790  147.4110 C   0  0  0  0  0  3  0  0  0  0  0  0
  186.6020  177.6960  144.9380 C   0  0  0  0  0  3  0  0  0  0  0  0
  188.2420  178.0650  148.3560 C   0  0  0  0  0  1  0  0  0  0  0  0
  187.2890  178.1800  147.2130 C   0  0  0  0  0  0  0  0  0  0  0  0
  187.5610  177.5960  145.9580 C   0  0  0  0  0  0  0  0  0  0  0  0
  185.4030  178.3960  145.1330 C   0  0  0  0  0  0  0  0  0  0  0  0
  185.1620  178.9890  146.3810 C   0  0  0  0  0  3  0  0  0  0  0  0
  189.9460  177.7250  145.2970 C   0  0  2  0  0  3  0  0  0  0  0  0
  188.8160  176.7970  145.7220 C   0  0  2  0  0  3  0  0  0  0  0  0
  189.2530  176.8590  144.2670 C   0  0  0  0  0  2  0  0  0  0  0  0
  191.2600  177.1230  145.6730 C   0  0  0  0  0  0  0  0  0  0  0  0
  191.9830  176.5850  144.7940 O   0  0  0  0  0  0  0  0  0  0  0  0
  191.7110  177.1980  146.9850 O   0  0  0  0  0  1  0  0  0  0  0  0
  186.5280  178.0460  136.5690 N   0  0  0  0  0  2  0  0  0  0  0  0
  187.8630  178.5230  136.4170 C   0  0  0  0  0  3  0  0  0  0  0  0
  188.8490  177.6700  136.1880 C   0  0  0  0  0  2  0  0  0  0  0  0
  1 11  2  0  0  0  0
  1  5  1  0  0  0  0
  2 18  1  0  0  0  0
  3 10  1  0  0  0  0
  5  9  2  0  0  0  0
  6  8  1  0  0  0  0
  6  4  2  0  0  0  0
  7  8  2  0  0  0  0
  9  4  1  0  0  0  0
  9 24  1  0  0  0  0
 10 12  2  0  0  0  0
 10 11  1  0  0  0  0
 11  6  1  0  0  0  0
 12  7  1  0  0  0  0
 13  2  2  0  0  0  0
 14 13  1  0  0  0  0
 14 15  2  0  0  0  0
 15 17  1  0  0  0  0
 16  2  1  0  0  0  0
 16  3  2  0  0  0  0
 17 18  2  0  0  0  0
 18  1  1  0  0  0  0
 20 24  2  0  0  0  0
 20 23  1  0  0  0  0
 22 19  1  0  0  0  0
 22 21  1  0  0  0  0
 23 22  2  0  0  0  0
 24 25  1  0  0  0  0
 25 19  2  0  0  0  0
 26 29  1  1  0  0  0
 26 27  1  0  0  0  0
 27 23  1  6  0  0  0
 28 26  1  0  0  0  0
 28 27  1  0  0  0  0
 29 31  1  0  0  0  0
 30 29  2  0  0  0  0
 32 14  1  0  0  0  0
 33 32  1  0  0  0  0
 34 33  2  0  0  0  0
M  END
>  <MODEL>
2

>  <REMARK>
 VINA RESULT:     -10.6      4.052      7.642
  Name = 
  5 active torsions:
  status: ('A' for Active; 'I' for Inactive)
    1  A    between atoms: N_3  and  C_13
    2  A    between atoms: N_3  and  C_25
    3  A    between atoms: C_7  and  C_11
    4  A    between atoms: C_18  and  C_30
    5  A    between atoms: C_26  and  C_28
                            x       y       z     vdW  Elec       q    Type
                         _______ _______ _______ _____ _____    ______ ____

>  <TORSDO>
F 5

$$$$
=
 OpenBabel11052415543D

 34 39  0  0  1  0  0  0  0  0999 V2000
  183.6410  178.1720  141.1720 C   0  0  0  0  0  0  0  0  0  0  0  0
  183.5190  177.6700  138.6320 C   0  0  0  0  0  0  0  0  0  0  0  0
  181.1700  177.6650  139.3660 C   0  0  0  0  0  3  0  0  0  0  0  0
  182.9810  178.9790  143.7960 C   0  0  0  0  0  3  0  0  0  0  0  0
  184.5630  178.0900  142.2350 C   0  0  0  0  0  3  0  0  0  0  0  0
  182.0300  179.0590  142.7840 C   0  0  0  0  0  0  0  0  0  0  0  0
  179.7710  179.6270  142.1570 C   0  0  0  0  0  3  0  0  0  0  0  0
  180.7860  179.6030  143.1030 C   0  0  0  0  0  3  0  0  0  0  0  0
  184.2450  178.4530  143.5440 C   0  0  0  0  0  0  0  0  0  0  0  0
  181.2280  178.5190  140.5520 C   0  0  0  0  0  0  0  0  0  0  0  0
  182.3090  178.5770  141.4680 C   0  0  0  0  0  0  0  0  0  0  0  0
  179.9860  179.0590  140.9070 C   0  0  0  0  0  3  0  0  0  0  0  0
  184.2030  177.5580  137.4140 C   0  0  0  0  0  3  0  0  0  0  0  0
  185.5630  177.8590  137.3090 C   0  0  0  0  0  0  0  0  0  0  0  0
  186.2580  178.2670  138.4400 C   0  0  0  0  0  3  0  0  0  0  0  0
  182.1430  177.3090  138.5950 N   0  0  0  0  0  0  0  0  0  0  0  0
  185.5950  178.3630  139.6610 C   0  0  0  0  0  3  0  0  0  0  0  0
  184.2210  178.0620  139.7980 C   0  0  0  0  0  0  0  0  0  0  0  0
  185.9440  178.7740  146.9160 C   0  0  0  0  0  3  0  0  0  0  0  0
  186.4710  177.6870  144.4040 C   0  0  0  0  0  3  0  0  0  0  0  0
  188.1210  178.0010  147.8220 C   0  0  0  0  0  1  0  0  0  0  0  0
  187.1570  178.1210  146.6890 C   0  0  0  0  0  0  0  0  0  0  0  0
  187.4390  177.5850  145.4140 C   0  0  0  0  0  0  0  0  0  0  0  0
  185.2510  178.3410  144.6270 C   0  0  0  0  0  0  0  0  0  0  0  0
  185.0000  178.8870  145.8950 C   0  0  0  0  0  3  0  0  0  0  0  0
  189.7560  177.7810  144.5550 C   0  0  2  0  0  3  0  0  0  0  0  0
  188.7180  176.8360  145.1450 C   0  0  2  0  0  3  0  0  0  0  0  0
  189.0390  176.7920  143.6610 C   0  0  0  0  0  2  0  0  0  0  0  0
  191.1280  177.2840  144.8740 C   0  0  0  0  0  0  0  0  0  0  0  0
  191.6420  177.5240  145.9970 O   0  0  0  0  0  1  0  0  0  0  0  0
  191.8230  176.5130  143.9490 O   0  0  0  0  0  0  0  0  0  0  0  0
  186.2560  177.7530  136.0610 N   0  0  0  0  0  2  0  0  0  0  0  0
  187.1560  176.6890  135.7610 C   0  0  0  0  0  3  0  0  0  0  0  0
  186.6890  175.5320  135.3190 C   0  0  0  0  0  2  0  0  0  0  0  0
  1 11  2  0  0  0  0
  1  5  1  0  0  0  0
  2 18  1  0  0  0  0
  3 10  1  0  0  0  0
  5  9  2  0  0  0  0
  6  8  1  0  0  0  0
  6  4  2  0  0  0  0
  7  8  2  0  0  0  0
  9  4  1  0  0  0  0
  9 24  1  0  0  0  0
 10 12  2  0  0  0  0
 10 11  1  0  0  0  0
 11  6  1  0  0  0  0
 12  7  1  0  0  0  0
 13  2  2  0  0  0  0
 14 13  1  0  0  0  0
 14 15  2  0  0  0  0
 15 17  1  0  0  0  0
 16  2  1  0  0  0  0
 16  3  2  0  0  0  0
 17 18  2  0  0  0  0
 18  1  1  0  0  0  0
 20 24  2  0  0  0  0
 20 23  1  0  0  0  0
 22 19  1  0  0  0  0
 22 21  1  0  0  0  0
 23 22  2  0  0  0  0
 24 25  1  0  0  0  0
 25 19  2  0  0  0  0
 26 29  1  1  0  0  0
 26 27  1  0  0  0  0
 27 23  1  6  0  0  0
 28 26  1  0  0  0  0
 28 27  1  0  0  0  0
 29 30  1  0  0  0  0
 31 29  2  0  0  0  0
 32 14  1  0  0  0  0
 33 32  1  0  0  0  0
 34 33  2  0  0  0  0
M  END
>  <MODEL>
3

>  <REMARK>
 VINA RESULT:     -10.4      4.117      7.722
  Name = 
  5 active torsions:
  status: ('A' for Active; 'I' for Inactive)
    1  A    between atoms: N_3  and  C_13
    2  A    between atoms: N_3  and  C_25
    3  A    between atoms: C_7  and  C_11
    4  A    between atoms: C_18  and  C_30
    5  A    between atoms: C_26  and  C_28
                            x       y       z     vdW  Elec       q    Type
                         _______ _______ _______ _____ _____    ______ ____

>  <TORSDO>
F 5

$$$$
=
 OpenBabel11052415543D

 34 39  0  0  1  0  0  0  0  0999 V2000
  188.2120  177.5330  142.9830 C   0  0  0  0  0  0  0  0  0  0  0  0
  190.3800  176.6910  144.1260 C   0  0  0  0  0  0  0  0  0  0  0  0
  190.7800  176.3300  141.7240 C   0  0  0  0  0  3  0  0  0  0  0  0
  186.3790  178.5320  141.0810 C   0  0  0  0  0  3  0  0  0  0  0  0
  186.8590  177.7670  143.2990 C   0  0  0  0  0  3  0  0  0  0  0  0
  187.7000  178.2950  140.7150 C   0  0  0  0  0  0  0  0  0  0  0  0
  189.3650  178.3330  138.9700 C   0  0  0  0  0  3  0  0  0  0  0  0
  188.0840  178.6270  139.4160 C   0  0  0  0  0  3  0  0  0  0  0  0
  185.9310  178.2300  142.3640 C   0  0  0  0  0  0  0  0  0  0  0  0
  189.8930  177.3260  141.1220 C   0  0  0  0  0  0  0  0  0  0  0  0
  188.6260  177.7090  141.6320 C   0  0  0  0  0  0  0  0  0  0  0  0
  190.2440  177.6590  139.8090 C   0  0  0  0  0  3  0  0  0  0  0  0
  191.1170  176.5550  145.3090 C   0  0  0  0  0  3  0  0  0  0  0  0
  190.6680  177.0940  146.5170 C   0  0  0  0  0  0  0  0  0  0  0  0
  189.4550  177.7720  146.5480 C   0  0  0  0  0  3  0  0  0  0  0  0
  190.9490  176.0710  142.9770 N   0  0  0  0  0  0  0  0  0  0  0  0
  188.7030  177.8970  145.3820 C   0  0  0  0  0  3  0  0  0  0  0  0
  189.1320  177.3580  144.1480 C   0  0  0  0  0  0  0  0  0  0  0  0
  182.8370  178.9130  144.4430 C   0  0  0  0  0  3  0  0  0  0  0  0
  183.5030  178.4330  141.7790 C   0  0  0  0  0  3  0  0  0  0  0  0
  180.4280  179.1610  143.9040 C   0  0  0  0  0  1  0  0  0  0  0  0
  181.8310  178.8910  143.4740 C   0  0  0  0  0  0  0  0  0  0  0  0
  182.1580  178.6290  142.1270 C   0  0  0  0  0  0  0  0  0  0  0  0
  184.5160  178.4550  142.7470 C   0  0  0  0  0  0  0  0  0  0  0  0
  184.1680  178.6940  144.0840 C   0  0  0  0  0  3  0  0  0  0  0  0
  181.0400  177.2770  140.3750 C   0  0  2  0  0  3  0  0  0  0  0  0
  181.1050  178.6410  141.0500 C   0  0  2  0  0  3  0  0  0  0  0  0
  181.7120  178.4370  139.6720 C   0  0  0  0  0  2  0  0  0  0  0  0
  179.6740  177.0590  139.8140 C   0  0  0  0  0  0  0  0  0  0  0  0
  179.1960  177.8720  138.9790 O   0  0  0  0  0  0  0  0  0  0  0  0
  178.9430  175.9320  140.1720 O   0  0  0  0  0  1  0  0  0  0  0  0
  191.4280  176.9630  147.7220 N   0  0  0  0  0  0  0  0  0  0  0  0
  192.2840  175.8520  147.9810 C   0  0  0  0  0  3  0  0  0  0  0  0
  193.1790  175.9200  148.9540 C   0  0  0  0  0  1  0  0  0  0  0  0
  1  5  1  0  0  0  0
  1 18  1  0  0  0  0
  2 18  2  0  0  0  0
  2 13  1  0  0  0  0
  3 16  2  0  0  0  0
  4  9  1  0  0  0  0
  6  4  2  0  0  0  0
  6 11  1  0  0  0  0
  7  8  2  0  0  0  0
  7 12  1  0  0  0  0
  8  6  1  0  0  0  0
  9 24  1  0  0  0  0
  9  5  2  0  0  0  0
 10 11  1  0  0  0  0
 10  3  1  0  0  0  0
 11  1  2  0  0  0  0
 12 10  2  0  0  0  0
 13 14  2  0  0  0  0
 14 15  1  0  0  0  0
 14 32  1  0  0  0  0
 16  2  1  0  0  0  0
 17 15  2  0  0  0  0
 18 17  1  0  0  0  0
 20 23  2  0  0  0  0
 20 24  1  0  0  0  0
 22 21  1  0  0  0  0
 22 19  2  0  0  0  0
 23 22  1  0  0  0  0
 24 25  2  0  0  0  0
 25 19  1  0  0  0  0
 26 29  1  6  0  0  0
 26 27  1  0  0  0  0
 27 23  1  1  0  0  0
 28 26  1  0  0  0  0
 28 27  1  0  0  0  0
 29 31  1  0  0  0  0
 30 29  2  0  0  0  0
 32 33  2  0  0  0  0
 33 34  1  0  0  0  0
M  END
>  <MODEL>
4

>  <REMARK>
 VINA RESULT:      -9.9      1.768      4.753
  Name = 
  5 active torsions:
  status: ('A' for Active; 'I' for Inactive)
    1  A    between atoms: N_3  and  C_13
    2  A    between atoms: N_3  and  C_25
    3  A    between atoms: C_7  and  C_11
    4  A    between atoms: C_18  and  C_30
    5  A    between atoms: C_26  and  C_28
                            x       y       z     vdW  Elec       q    Type
                         _______ _______ _______ _____ _____    ______ ____

>  <TORSDO>
F 5

$$$$
=
 OpenBabel11052415543D

 34 39  0  0  1  0  0  0  0  0999 V2000
  188.8440  177.9500  142.3990 C   0  0  0  0  0  0  0  0  0  0  0  0
  191.3890  177.7810  141.9400 C   0  0  0  0  0  0  0  0  0  0  0  0
  191.2350  178.2180  144.3580 C   0  0  0  0  0  3  0  0  0  0  0  0
  186.3280  177.9280  143.6790 C   0  0  0  0  0  3  0  0  0  0  0  0
  187.6470  178.2130  141.7020 C   0  0  0  0  0  3  0  0  0  0  0  0
  187.4830  177.6850  144.4150 C   0  0  0  0  0  0  0  0  0  0  0  0
  188.4620  177.2060  146.5660 C   0  0  0  0  0  3  0  0  0  0  0  0
  187.3400  177.3720  145.7660 C   0  0  0  0  0  3  0  0  0  0  0  0
  186.3980  178.2390  142.3240 C   0  0  0  0  0  0  0  0  0  0  0  0
  189.9020  177.7020  144.6680 C   0  0  0  0  0  0  0  0  0  0  0  0
  188.7750  177.7750  143.8100 C   0  0  0  0  0  0  0  0  0  0  0  0
  189.7260  177.4030  146.0240 C   0  0  0  0  0  3  0  0  0  0  0  0
  192.4100  177.5010  141.0220 C   0  0  0  0  0  3  0  0  0  0  0  0
  192.1280  177.0460  139.7320 C   0  0  0  0  0  0  0  0  0  0  0  0
  190.8040  176.8790  139.3450 C   0  0  0  0  0  3  0  0  0  0  0  0
  191.8230  178.2590  143.2090 N   0  0  0  0  0  0  0  0  0  0  0  0
  189.7790  177.1730  140.2410 C   0  0  0  0  0  3  0  0  0  0  0  0
  190.0360  177.6380  141.5510 C   0  0  0  0  0  0  0  0  0  0  0  0
  184.0930  179.1810  139.4680 C   0  0  0  0  0  3  0  0  0  0  0  0
  183.9050  178.4110  142.1410 C   0  0  0  0  0  3  0  0  0  0  0  0
  181.6280  179.3280  139.2280 C   0  0  0  0  0  1  0  0  0  0  0  0
  182.8360  179.0640  140.0640 C   0  0  0  0  0  0  0  0  0  0  0  0
  182.7330  178.6940  141.4220 C   0  0  0  0  0  0  0  0  0  0  0  0
  185.1700  178.5260  141.5460 C   0  0  0  0  0  0  0  0  0  0  0  0
  185.2510  178.9180  140.2020 C   0  0  0  0  0  3  0  0  0  0  0  0
  181.0660  179.7410  142.9290 C   0  0  2  0  0  3  0  0  0  0  0  0
  181.3930  178.5160  142.0850 C   0  0  2  0  0  3  0  0  0  0  0  0
  181.5210  178.4620  143.5990 C   0  0  0  0  0  2  0  0  0  0  0  0
  179.5850  179.8870  143.0520 C   0  0  0  0  0  0  0  0  0  0  0  0
  178.9310  179.0930  143.7770 O   0  0  0  0  0  1  0  0  0  0  0  0
  178.9310  180.9280  142.4050 O   0  0  0  0  0  0  0  0  0  0  0  0
  193.1730  176.7510  138.8000 N   0  0  0  0  0  2  0  0  0  0  0  0
  192.9410  176.0910  137.5580 C   0  0  0  0  0  3  0  0  0  0  0  0
  193.0750  174.7770  137.4710 C   0  0  0  0  0  2  0  0  0  0  0  0
  1 11  1  0  0  0  0
  2 16  1  0  0  0  0
  3 10  1  0  0  0  0
  4  6  1  0  0  0  0
  5  9  1  0  0  0  0
  5  1  2  0  0  0  0
  6  8  1  0  0  0  0
  8  7  2  0  0  0  0
  9  4  2  0  0  0  0
 10 12  2  0  0  0  0
 11  6  2  0  0  0  0
 11 10  1  0  0  0  0
 12  7  1  0  0  0  0
 13  2  2  0  0  0  0
 14 13  1  0  0  0  0
 15 14  2  0  0  0  0
 15 17  1  0  0  0  0
 16  3  2  0  0  0  0
 17 18  2  0  0  0  0
 18  2  1  0  0  0  0
 18  1  1  0  0  0  0
 19 22  2  0  0  0  0
 19 25  1  0  0  0  0
 21 22  1  0  0  0  0
 22 23  1  0  0  0  0
 23 20  2  0  0  0  0
 24 20  1  0  0  0  0
 24  9  1  0  0  0  0
 25 24  2  0  0  0  0
 26 29  1  1  0  0  0
 26 28  1  0  0  0  0
 27 23  1  6  0  0  0
 27 26  1  0  0  0  0
 27 28  1  0  0  0  0
 29 30  1  0  0  0  0
 31 29  2  0  0  0  0
 32 14  1  0  0  0  0
 33 32  1  0  0  0  0
 34 33  2  0  0  0  0
M  END
>  <MODEL>
5

>  <REMARK>
 VINA RESULT:      -9.9      1.792      2.742
  Name = 
  5 active torsions:
  status: ('A' for Active; 'I' for Inactive)
    1  A    between atoms: N_3  and  C_13
    2  A    between atoms: N_3  and  C_25
    3  A    between atoms: C_7  and  C_11
    4  A    between atoms: C_18  and  C_30
    5  A    between atoms: C_26  and  C_28
                            x       y       z     vdW  Elec       q    Type
                         _______ _______ _______ _____ _____    ______ ____

>  <TORSDO>
F 5

$$$$
=
 OpenBabel11052415543D

 34 39  0  0  1  0  0  0  0  0999 V2000
  186.3270  178.3160  143.3510 C   0  0  0  0  0  0  0  0  0  0  0  0
  186.9770  178.3140  145.8600 C   0  0  0  0  0  0  0  0  0  0  0  0
  184.7460  179.3530  145.8110 C   0  0  0  0  0  3  0  0  0  0  0  0
  184.8410  178.3540  140.9510 C   0  0  0  0  0  3  0  0  0  0  0  0
  186.9460  178.2520  142.0870 C   0  0  0  0  0  3  0  0  0  0  0  0
  184.1860  178.4430  142.1740 C   0  0  0  0  0  0  0  0  0  0  0  0
  182.0910  178.6600  143.3490 C   0  0  0  0  0  3  0  0  0  0  0  0
  182.7920  178.4840  142.1650 C   0  0  0  0  0  3  0  0  0  0  0  0
  186.2310  178.3030  140.8890 C   0  0  0  0  0  0  0  0  0  0  0  0
  184.1850  178.7930  144.5810 C   0  0  0  0  0  0  0  0  0  0  0  0
  184.9180  178.5130  143.4000 C   0  0  0  0  0  0  0  0  0  0  0  0
  182.7870  178.8450  144.5370 C   0  0  0  0  0  3  0  0  0  0  0  0
  187.8900  177.9170  146.8450 C   0  0  0  0  0  3  0  0  0  0  0  0
  188.9890  177.1090  146.5410 C   0  0  0  0  0  0  0  0  0  0  0  0
  189.1880  176.7010  145.2280 C   0  0  0  0  0  3  0  0  0  0  0  0
  185.9190  179.1540  146.3110 N   0  0  0  0  0  0  0  0  0  0  0  0
  188.2990  177.1060  144.2360 C   0  0  0  0  0  3  0  0  0  0  0  0
  187.1820  177.9250  144.5150 C   0  0  0  0  0  0  0  0  0  0  0  0
  186.8770  178.2820  137.1550 C   0  0  0  0  0  3  0  0  0  0  0  0
  188.3240  178.0750  139.5300 C   0  0  0  0  0  3  0  0  0  0  0  0
  188.9270  178.1000  135.7690 C   0  0  0  0  0  1  0  0  0  0  0  0
  188.2640  178.1220  137.1060 C   0  0  0  0  0  0  0  0  0  0  0  0
  189.0000  177.9960  138.3020 C   0  0  0  0  0  0  0  0  0  0  0  0
  186.9320  178.2370  139.5850 C   0  0  0  0  0  0  0  0  0  0  0  0
  186.2160  178.3360  138.3830 C   0  0  0  0  0  3  0  0  0  0  0  0
  190.8920  176.3940  138.3000 C   0  0  2  0  0  3  0  0  0  0  0  0
  190.5000  177.8660  138.2880 C   0  0  2  0  0  3  0  0  0  0  0  0
  191.0180  177.2200  139.5630 C   0  0  0  0  0  2  0  0  0  0  0  0
  192.2310  176.2250  137.6620 C   0  0  0  0  0  0  0  0  0  0  0  0
  192.3200  175.7790  136.4880 O   0  0  0  0  0  0  0  0  0  0  0  0
  193.3820  176.6040  138.3430 O   0  0  0  0  0  1  0  0  0  0  0  0
  189.9130  176.6960  147.5510 N   0  0  0  0  0  2  0  0  0  0  0  0
  191.3280  176.7480  147.3770 C   0  0  0  0  0  3  0  0  0  0  0  0
  192.0310  175.6280  147.3370 C   0  0  0  0  0  2  0  0  0  0  0  0
  1 11  1  0  0  0  0
  1 18  1  0  0  0  0
  2 16  1  0  0  0  0
  2 13  1  0  0  0  0
  3 16  2  0  0  0  0
  4  6  1  0  0  0  0
  5  1  2  0  0  0  0
  6 11  2  0  0  0  0
  7 12  1  0  0  0  0
  8  6  1  0  0  0  0
  8  7  2  0  0  0  0
  9  4  2  0  0  0  0
  9  5  1  0  0  0  0
 10  3  1  0  0  0  0
 11 10  1  0  0  0  0
 12 10  2  0  0  0  0
 14 13  2  0  0  0  0
 14 32  1  0  0  0  0
 15 14  1  0  0  0  0
 17 18  1  0  0  0  0
 17 15  2  0  0  0  0
 18  2  2  0  0  0  0
 19 25  1  0  0  0  0
 20 24  1  0  0  0  0
 21 22  1  0  0  0  0
 22 19  2  0  0  0  0
 22 23  1  0  0  0  0
 23 20  2  0  0  0  0
 24  9  1  0  0  0  0
 25 24  2  0  0  0  0
 26 29  1  6  0  0  0
 26 28  1  0  0  0  0
 27 26  1  0  0  0  0
 27 23  1  1  0  0  0
 27 28  1  0  0  0  0
 29 31  1  0  0  0  0
 30 29  2  0  0  0  0
 33 32  1  0  0  0  0
 34 33  2  0  0  0  0
M  END
>  <MODEL>
6

>  <REMARK>
 VINA RESULT:      -9.8      3.611      7.460
  Name = 
  5 active torsions:
  status: ('A' for Active; 'I' for Inactive)
    1  A    between atoms: N_3  and  C_13
    2  A    between atoms: N_3  and  C_25
    3  A    between atoms: C_7  and  C_11
    4  A    between atoms: C_18  and  C_30
    5  A    between atoms: C_26  and  C_28
                            x       y       z     vdW  Elec       q    Type
                         _______ _______ _______ _____ _____    ______ ____

>  <TORSDO>
F 5

$$$$
=
 OpenBabel11052415543D

 34 39  0  0  1  0  0  0  0  0999 V2000
  188.5090  177.8010  144.8340 C   0  0  0  0  0  0  0  0  0  0  0  0
  189.8190  177.5710  147.0580 C   0  0  0  0  0  0  0  0  0  0  0  0
  187.7160  178.6740  147.7040 C   0  0  0  0  0  3  0  0  0  0  0  0
  186.4270  178.0840  142.9480 C   0  0  0  0  0  3  0  0  0  0  0  0
  188.7550  177.8260  143.4470 C   0  0  0  0  0  3  0  0  0  0  0  0
  186.1380  178.0880  144.3080 C   0  0  0  0  0  0  0  0  0  0  0  0
  184.4570  178.2660  146.0290 C   0  0  0  0  0  3  0  0  0  0  0  0
  184.7980  178.1700  144.6870 C   0  0  0  0  0  3  0  0  0  0  0  0
  187.7430  177.9970  142.5010 C   0  0  0  0  0  0  0  0  0  0  0  0
  186.8120  178.2350  146.6400 C   0  0  0  0  0  0  0  0  0  0  0  0
  187.1790  178.0340  145.2850 C   0  0  0  0  0  0  0  0  0  0  0  0
  185.4600  178.3310  146.9880 C   0  0  0  0  0  3  0  0  0  0  0  0
  190.9450  177.0650  147.7210 C   0  0  0  0  0  3  0  0  0  0  0  0
  191.8770  176.2550  147.0670 C   0  0  0  0  0  0  0  0  0  0  0  0
  191.6880  175.9530  145.7240 C   0  0  0  0  0  3  0  0  0  0  0  0
  188.9700  178.4000  147.8440 N   0  0  0  0  0  0  0  0  0  0  0  0
  190.5830  176.4650  145.0480 C   0  0  0  0  0  3  0  0  0  0  0  0
  189.6280  177.2900  145.6840 C   0  0  0  0  0  0  0  0  0  0  0  0
  187.3430  178.2790  138.7430 C   0  0  0  0  0  3  0  0  0  0  0  0
  189.3680  177.8170  140.6020 C   0  0  0  0  0  3  0  0  0  0  0  0
  188.9220  178.1470  136.8340 C   0  0  0  0  0  1  0  0  0  0  0  0
  188.6520  178.0760  138.3000 C   0  0  0  0  0  0  0  0  0  0  0  0
  189.6780  177.8210  139.2330 C   0  0  0  0  0  0  0  0  0  0  0  0
  188.0560  178.0210  141.0520 C   0  0  0  0  0  0  0  0  0  0  0  0
  187.0460  178.2500  140.1060 C   0  0  0  0  0  3  0  0  0  0  0  0
  191.5150  176.1810  138.9470 C   0  0  2  0  0  3  0  0  0  0  0  0
  191.1080  177.6410  138.7950 C   0  0  2  0  0  3  0  0  0  0  0  0
  191.9970  177.2090  139.9490 C   0  0  0  0  0  2  0  0  0  0  0  0
  192.6040  175.8590  137.9780 C   0  0  0  0  0  0  0  0  0  0  0  0
  192.5960  174.7630  137.3590 O   0  0  0  0  0  0  0  0  0  0  0  0
  193.6050  176.7880  137.7190 O   0  0  0  0  0  1  0  0  0  0  0  0
  193.0200  175.7320  147.7490 N   0  0  0  0  0  2  0  0  0  0  0  0
  193.1670  175.7790  149.1660 C   0  0  0  0  0  3  0  0  0  0  0  0
  193.8650  176.7530  149.7280 C   0  0  0  0  0  2  0  0  0  0  0  0
  1 11  1  0  0  0  0
  1 18  1  0  0  0  0
  2 13  1  0  0  0  0
  2 16  1  0  0  0  0
  3 16  2  0  0  0  0
  4  6  1  0  0  0  0
  5  1  2  0  0  0  0
  6  8  1  0  0  0  0
  6 11  2  0  0  0  0
  7 12  1  0  0  0  0
  8  7  2  0  0  0  0
  9  4  2  0  0  0  0
  9  5  1  0  0  0  0
 10 12  2  0  0  0  0
 10  3  1  0  0  0  0
 11 10  1  0  0  0  0
 14 13  2  0  0  0  0
 14 32  1  0  0  0  0
 15 14  1  0  0  0  0
 17 18  1  0  0  0  0
 17 15  2  0  0  0  0
 18  2  2  0  0  0  0
 19 25  1  0  0  0  0
 20 24  1  0  0  0  0
 21 22  1  0  0  0  0
 22 19  2  0  0  0  0
 22 23  1  0  0  0  0
 23 20  2  0  0  0  0
 24  9  1  0  0  0  0
 25 24  2  0  0  0  0
 26 29  1  6  0  0  0
 26 28  1  0  0  0  0
 27 26  1  0  0  0  0
 27 23  1  1  0  0  0
 27 28  1  0  0  0  0
 30 29  2  0  0  0  0
 31 29  1  0  0  0  0
 32 33  1  0  0  0  0
 33 34  2  0  0  0  0
M  END
>  <MODEL>
7

>  <REMARK>
 VINA RESULT:      -9.5      4.015      7.172
  Name = 
  5 active torsions:
  status: ('A' for Active; 'I' for Inactive)
    1  A    between atoms: N_3  and  C_13
    2  A    between atoms: N_3  and  C_25
    3  A    between atoms: C_7  and  C_11
    4  A    between atoms: C_18  and  C_30
    5  A    between atoms: C_26  and  C_28
                            x       y       z     vdW  Elec       q    Type
                         _______ _______ _______ _____ _____    ______ ____

>  <TORSDO>
F 5

$$$$
=
 OpenBabel11052415543D

 34 39  0  0  1  0  0  0  0  0999 V2000
  188.0310  177.5520  142.9990 C   0  0  0  0  0  0  0  0  0  0  0  0
  186.0520  177.8770  144.6400 C   0  0  0  0  0  0  0  0  0  0  0  0
  187.8860  177.0480  146.0570 C   0  0  0  0  0  3  0  0  0  0  0  0
  190.6300  177.2830  141.9280 C   0  0  0  0  0  3  0  0  0  0  0  0
  188.2570  177.3670  141.6200 C   0  0  0  0  0  3  0  0  0  0  0  0
  190.4570  177.4410  143.2990 C   0  0  0  0  0  0  0  0  0  0  0  0
  191.4860  177.5950  145.4750 C   0  0  0  0  0  3  0  0  0  0  0  0
  191.6000  177.5250  144.0940 C   0  0  0  0  0  3  0  0  0  0  0  0
  189.5320  177.1990  141.0760 C   0  0  0  0  0  0  0  0  0  0  0  0
  189.0630  177.4630  145.2920 C   0  0  0  0  0  0  0  0  0  0  0  0
  189.1510  177.4930  143.8770 C   0  0  0  0  0  0  0  0  0  0  0  0
  190.2290  177.5310  146.0630 C   0  0  0  0  0  3  0  0  0  0  0  0
  184.7440  178.3360  144.8390 C   0  0  0  0  0  3  0  0  0  0  0  0
  184.0340  178.9860  143.8260 C   0  0  0  0  0  0  0  0  0  0  0  0
  184.6360  179.1700  142.5870 C   0  0  0  0  0  3  0  0  0  0  0  0
  186.6430  177.2140  145.7530 N   0  0  0  0  0  0  0  0  0  0  0  0
  185.9290  178.7000  142.3700 C   0  0  0  0  0  3  0  0  0  0  0  0
  186.6680  178.0370  143.3760 C   0  0  0  0  0  0  0  0  0  0  0  0
  188.7970  176.9170  137.3700 C   0  0  0  0  0  3  0  0  0  0  0  0
  190.9820  176.7200  139.0900 C   0  0  0  0  0  3  0  0  0  0  0  0
  190.2000  176.4840  135.3700 C   0  0  0  0  0  1  0  0  0  0  0  0
  190.0620  176.6360  136.8480 C   0  0  0  0  0  0  0  0  0  0  0  0
  191.1690  176.5150  137.7140 C   0  0  0  0  0  0  0  0  0  0  0  0
  189.7140  177.0020  139.6180 C   0  0  0  0  0  0  0  0  0  0  0  0
  188.6230  177.0950  138.7430 C   0  0  0  0  0  3  0  0  0  0  0  0
  192.9150  174.7900  137.3680 C   0  0  2  0  0  3  0  0  0  0  0  0
  192.5540  176.2580  137.1820 C   0  0  2  0  0  3  0  0  0  0  0  0
  193.5080  175.8360  138.2880 C   0  0  0  0  0  2  0  0  0  0  0  0
  193.9160  174.3840  136.3390 C   0  0  0  0  0  0  0  0  0  0  0  0
  193.5350  173.8820  135.2490 O   0  0  0  0  0  0  0  0  0  0  0  0
  195.2710  174.6030  136.5590 O   0  0  0  0  0  1  0  0  0  0  0  0
  182.7020  179.4630  144.0360 N   0  0  0  0  0  2  0  0  0  0  0  0
  181.5980  179.0630  143.2270 C   0  0  0  0  0  3  0  0  0  0  0  0
  180.4620  178.6890  143.7950 C   0  0  0  0  0  2  0  0  0  0  0  0
  1 18  1  0  0  0  0
  1 11  1  0  0  0  0
  2 13  1  0  0  0  0
  2 16  1  0  0  0  0
  4  6  1  0  0  0  0
  5  1  2  0  0  0  0
  6 11  2  0  0  0  0
  6  8  1  0  0  0  0
  7 12  1  0  0  0  0
  8  7  2  0  0  0  0
  9  5  1  0  0  0  0
  9  4  2  0  0  0  0
 10  3  1  0  0  0  0
 10 12  2  0  0  0  0
 11 10  1  0  0  0  0
 14 32  1  0  0  0  0
 14 13  2  0  0  0  0
 15 14  1  0  0  0  0
 16  3  2  0  0  0  0
 17 15  2  0  0  0  0
 17 18  1  0  0  0  0
 18  2  2  0  0  0  0
 19 25  1  0  0  0  0
 20 24  1  0  0  0  0
 21 22  1  0  0  0  0
 22 19  2  0  0  0  0
 22 23  1  0  0  0  0
 23 20  2  0  0  0  0
 24  9  1  0  0  0  0
 25 24  2  0  0  0  0
 26 29  1  6  0  0  0
 26 28  1  0  0  0  0
 27 26  1  0  0  0  0
 27 23  1  1  0  0  0
 27 28  1  0  0  0  0
 29 31  1  0  0  0  0
 30 29  2  0  0  0  0
 33 34  2  0  0  0  0
 33 32  1  0  0  0  0
M  END
>  <MODEL>
8

>  <REMARK>
 VINA RESULT:      -9.4      3.978      8.307
  Name = 
  5 active torsions:
  status: ('A' for Active; 'I' for Inactive)
    1  A    between atoms: N_3  and  C_13
    2  A    between atoms: N_3  and  C_25
    3  A    between atoms: C_7  and  C_11
    4  A    between atoms: C_18  and  C_30
    5  A    between atoms: C_26  and  C_28
                            x       y       z     vdW  Elec       q    Type
                         _______ _______ _______ _____ _____    ______ ____

>  <TORSDO>
F 5

$$$$
=
 OpenBabel11052415543D

 34 39  0  0  1  0  0  0  0  0999 V2000
  185.0790  178.4620  142.4980 C   0  0  0  0  0  0  0  0  0  0  0  0
  185.2500  178.6120  145.0790 C   0  0  0  0  0  0  0  0  0  0  0  0
  183.0350  179.5530  144.5610 C   0  0  0  0  0  3  0  0  0  0  0  0
  184.0660  178.3190  139.8660 C   0  0  0  0  0  3  0  0  0  0  0  0
  185.9250  178.3620  141.3750 C   0  0  0  0  0  3  0  0  0  0  0  0
  183.1920  178.4410  140.9410 C   0  0  0  0  0  0  0  0  0  0  0  0
  180.9090  178.6270  141.6950 C   0  0  0  0  0  3  0  0  0  0  0  0
  181.8240  178.4220  140.6720 C   0  0  0  0  0  3  0  0  0  0  0  0
  185.4440  178.3230  140.0650 C   0  0  0  0  0  0  0  0  0  0  0  0
  182.7310  178.9090  143.2830 C   0  0  0  0  0  0  0  0  0  0  0  0
  183.6800  178.6020  142.2750 C   0  0  0  0  0  0  0  0  0  0  0  0
  181.3650  178.9000  142.9790 C   0  0  0  0  0  3  0  0  0  0  0  0
  185.9760  178.3030  146.2370 C   0  0  0  0  0  3  0  0  0  0  0  0
  187.1380  177.5280  146.1870 C   0  0  0  0  0  0  0  0  0  0  0  0
  187.5910  177.0640  144.9580 C   0  0  0  0  0  3  0  0  0  0  0  0
  184.1010  179.4290  145.2790 N   0  0  0  0  0  0  0  0  0  0  0  0
  186.8900  177.3820  143.7970 C   0  0  0  0  0  3  0  0  0  0  0  0
  185.7140  178.1660  143.8190 C   0  0  0  0  0  0  0  0  0  0  0  0
  186.7740  178.1360  136.5220 C   0  0  0  0  0  3  0  0  0  0  0  0
  187.7600  178.1260  139.1290 C   0  0  0  0  0  3  0  0  0  0  0  0
  189.0520  177.9800  135.5490 C   0  0  0  0  0  1  0  0  0  0  0  0
  188.1510  178.0410  136.7370 C   0  0  0  0  0  0  0  0  0  0  0  0
  188.6560  178.0150  138.0540 C   0  0  0  0  0  0  0  0  0  0  0  0
  186.3780  178.2230  138.9180 C   0  0  0  0  0  0  0  0  0  0  0  0
  185.8940  178.2230  137.6010 C   0  0  0  0  0  3  0  0  0  0  0  0
  190.6010  176.5070  138.3550 C   0  0  2  0  0  3  0  0  0  0  0  0
  190.1370  177.9570  138.3240 C   0  0  2  0  0  3  0  0  0  0  0  0
  190.4380  177.2770  139.6490 C   0  0  0  0  0  2  0  0  0  0  0  0
  192.0440  176.4330  137.9800 C   0  0  0  0  0  0  0  0  0  0  0  0
  192.3760  176.1620  136.7960 O   0  0  0  0  0  0  0  0  0  0  0  0
  193.0260  176.7080  138.9240 O   0  0  0  0  0  1  0  0  0  0  0  0
  187.8710  177.2050  147.3720 N   0  0  0  0  0  2  0  0  0  0  0  0
  188.1350  178.1530  148.4030 C   0  0  0  0  0  3  0  0  0  0  0  0
  189.3830  178.4120  148.7600 C   0  0  0  0  0  2  0  0  0  0  0  0
  1 18  1  0  0  0  0
  2 16  1  0  0  0  0
  2 13  1  0  0  0  0
  3 16  2  0  0  0  0
  4  9  2  0  0  0  0
  4  6  1  0  0  0  0
  5  1  2  0  0  0  0
  6 11  2  0  0  0  0
  7 12  1  0  0  0  0
  8  6  1  0  0  0  0
  8  7  2  0  0  0  0
  9  5  1  0  0  0  0
 10  3  1  0  0  0  0
 11  1  1  0  0  0  0
 11 10  1  0  0  0  0
 12 10  2  0  0  0  0
 14 13  2  0  0  0  0
 14 32  1  0  0  0  0
 15 14  1  0  0  0  0
 17 18  1  0  0  0  0
 17 15  2  0  0  0  0
 18  2  2  0  0  0  0
 19 22  2  0  0  0  0
 19 25  1  0  0  0  0
 21 22  1  0  0  0  0
 22 23  1  0  0  0  0
 23 20  2  0  0  0  0
 24 20  1  0  0  0  0
 24  9  1  0  0  0  0
 25 24  2  0  0  0  0
 26 29  1  6  0  0  0
 26 28  1  0  0  0  0
 27 23  1  1  0  0  0
 27 26  1  0  0  0  0
 27 28  1  0  0  0  0
 29 31  1  0  0  0  0
 30 29  2  0  0  0  0
 32 33  1  0  0  0  0
 33 34  2  0  0  0  0
M  END
>  <MODEL>
9

>  <REMARK>
 VINA RESULT:      -9.4      3.752      8.152
  Name = 
  5 active torsions:
  status: ('A' for Active; 'I' for Inactive)
    1  A    between atoms: N_3  and  C_13
    2  A    between atoms: N_3  and  C_25
    3  A    between atoms: C_7  and  C_11
    4  A    between atoms: C_18  and  C_30
    5  A    between atoms: C_26  and  C_28
                            x       y       z     vdW  Elec       q    Type
                         _______ _______ _______ _____ _____    ______ ____

>  <TORSDO>
F 5

$$$$
