=
 OpenBabel11052413363D

 28 31  0  0  1  0  0  0  0  0999 V2000
  182.5960  179.3990  138.7120 C   0  0  2  0  0  0  0  0  0  0  0  0
  183.2860  177.1810  137.9440 N   0  0  0  0  0  0  0  0  0  0  0  0
  183.2230  178.6030  137.5750 C   0  0  0  0  0  2  0  0  0  0  0  0
  184.6230  176.7200  137.6150 C   0  0  0  0  0  1  0  0  0  0  0  0
  183.1390  177.0740  139.3950 C   0  0  2  0  0  3  0  0  0  0  0  0
  183.4520  178.9860  141.1240 C   0  0  2  0  0  3  0  0  0  0  0  0
  181.9620  178.6690  141.1760 C   0  0  0  0  0  2  0  0  0  0  0  0
  182.0860  176.0250  139.7180 C   0  0  0  0  0  1  0  0  0  0  0  0
  183.3360  180.5680  138.9060 O   0  0  0  0  0  1  0  0  0  0  0  0
  182.7290  178.4480  139.8840 C   0  0  1  0  0  0  0  0  0  0  0  0
  184.1860  177.9370  141.8270 N   0  0  0  0  0  2  0  0  0  0  0  0
  184.7920  179.3650  143.8010 C   0  0  0  0  0  2  0  0  0  0  0  0
  185.3650  177.9650  144.0180 C   0  0  1  0  0  3  0  0  0  0  0  0
  185.2530  178.5490  142.6140 C   0  0  1  0  0  0  0  0  0  0  0  0
  189.0320  177.0150  144.7000 C   0  0  0  0  0  2  0  0  0  0  0  0
  186.7630  178.0690  144.6190 C   0  0  2  0  0  3  0  0  0  0  0  0
  188.0760  178.0860  146.7510 C   0  0  1  0  0  3  0  0  0  0  0  0
  187.6340  176.9280  144.0950 C   0  0  0  0  0  2  0  0  0  0  0  0
  186.6780  178.0010  146.1430 C   0  0  0  0  0  2  0  0  0  0  0  0
  187.9600  177.9710  148.5210 Cl  0  0  0  0  0  0  0  0  0  0  0  0
  188.9510  176.9530  146.2230 C   0  0  0  0  0  2  0  0  0  0  0  0
  186.7960  178.5320  140.8150 O   0  0  0  0  0  0  0  0  0  0  0  0
  186.4970  179.0010  141.9010 C   0  0  0  0  0  3  0  0  0  0  0  0
  181.1420  179.7770  138.3930 C   0  0  0  0  0  2  0  0  0  0  0  0
  180.7780  181.2240  138.7240 C   0  0  0  0  0  2  0  0  0  0  0  0
  180.4560  182.0150  137.4630 C   0  0  0  0  0  2  0  0  0  0  0  0
  181.1370  183.3750  137.4720 C   0  0  0  0  0  2  0  0  0  0  0  0
  181.0160  184.0360  136.1120 C   0  0  0  0  0  1  0  0  0  0  0  0
  1  9  1  1  0  0  0
  1 10  1  0  0  0  0
  2  5  1  0  0  0  0
  3  2  1  0  0  0  0
  3  1  1  0  0  0  0
  4  2  1  0  0  0  0
  5  8  1  6  0  0  0
  5 10  1  0  0  0  0
  6  7  1  0  0  0  0
  6 11  1  1  0  0  0
 10  6  1  0  0  0  0
 10  7  1  1  0  0  0
 11 14  1  0  0  0  0
 13 12  1  1  0  0  0
 13 16  1  0  0  0  0
 14 23  1  6  0  0  0
 14 12  1  0  0  0  0
 14 13  1  0  0  0  0
 15 21  1  0  0  0  0
 16 18  1  6  0  0  0
 16 19  1  0  0  0  0
 17 20  1  1  0  0  0
 18 15  1  0  0  0  0
 19 17  1  0  0  0  0
 21 17  1  0  0  0  0
 22 23  2  0  0  0  0
 24  1  1  0  0  0  0
 24 25  1  0  0  0  0
 26 27  1  0  0  0  0
 26 25  1  0  0  0  0
 28 27  1  0  0  0  0
M  END
>  <MODEL>
1

>  <REMARK>
 VINA RESULT:      -6.9      0.000      0.000
  Name = 
  8 active torsions:
  status: ('A' for Active; 'I' for Inactive)
    1  A    between atoms: C_1  and  C_11
    2  A    between atoms: C_6  and  C_8
    3  A    between atoms: C_6  and  C_22
    4  A    between atoms: C_8  and  C_11
    5  A    between atoms: C_9  and  C_18
    6  A    between atoms: N_10  and  C_17
    7  A    between atoms: N_10  and  C_25
    8  A    between atoms: C_20  and  C_25
                            x       y       z     vdW  Elec       q    Type
                         _______ _______ _______ _____ _____    ______ ____

>  <TORSDO>
F 8

$$$$
=
 OpenBabel11052413363D

 28 31  0  0  1  0  0  0  0  0999 V2000
  190.6200  175.8250  137.6150 C   0  0  2  0  0  0  0  0  0  0  0  0
  188.5450  176.8200  136.7860 N   0  0  0  0  0  0  0  0  0  0  0  0
  189.4110  175.6340  136.7100 C   0  0  0  0  0  2  0  0  0  0  0  0
  187.1860  176.3370  136.9580 C   0  0  0  0  0  1  0  0  0  0  0  0
  188.8920  177.5670  137.9940 C   0  0  2  0  0  3  0  0  0  0  0  0
  190.2270  176.6720  140.0340 C   0  0  2  0  0  3  0  0  0  0  0  0
  191.1510  177.7050  139.4000 C   0  0  0  0  0  2  0  0  0  0  0  0
  189.0850  179.0330  137.6400 C   0  0  0  0  0  1  0  0  0  0  0  0
  190.8450  174.6410  138.3220 O   0  0  0  0  0  1  0  0  0  0  0  0
  190.1680  176.9470  138.5270 C   0  0  1  0  0  0  0  0  0  0  0  0
  189.1650  177.3640  140.7580 N   0  0  0  0  0  2  0  0  0  0  0  0
  190.0510  178.1230  142.9810 C   0  0  0  0  0  2  0  0  0  0  0  0
  188.5260  178.0600  143.0600 C   0  0  1  0  0  3  0  0  0  0  0  0
  189.2990  177.0810  142.1840 C   0  0  1  0  0  0  0  0  0  0  0  0
  186.2800  177.4300  146.1220 C   0  0  0  0  0  2  0  0  0  0  0  0
  188.1030  177.4830  144.4070 C   0  0  2  0  0  3  0  0  0  0  0  0
  188.6770  177.3360  146.8400 C   0  0  1  0  0  3  0  0  0  0  0  0
  186.7090  177.9920  144.7700 C   0  0  0  0  0  2  0  0  0  0  0  0
  189.1040  177.8960  145.4860 C   0  0  0  0  0  2  0  0  0  0  0  0
  189.8330  177.8540  148.0860 Cl  0  0  0  0  0  0  0  0  0  0  0  0
  187.2810  177.8360  147.2010 C   0  0  0  0  0  2  0  0  0  0  0  0
  190.4730  175.2340  143.0940 O   0  0  0  0  0  0  0  0  0  0  0  0
  189.4280  175.6470  142.6180 C   0  0  0  0  0  3  0  0  0  0  0  0
  191.8780  176.1660  136.8020 C   0  0  0  0  0  2  0  0  0  0  0  0
  192.8310  174.9900  136.5880 C   0  0  0  0  0  2  0  0  0  0  0  0
  194.1260  175.1810  137.3650 C   0  0  0  0  0  2  0  0  0  0  0  0
  194.6590  173.8560  137.8890 C   0  0  0  0  0  2  0  0  0  0  0  0
  195.6580  174.0910  139.0060 C   0  0  0  0  0  1  0  0  0  0  0  0
  1  9  1  1  0  0  0
  1 10  1  0  0  0  0
  2  4  1  0  0  0  0
  2  5  1  0  0  0  0
  3  2  1  0  0  0  0
  3  1  1  0  0  0  0
  5  8  1  6  0  0  0
  5 10  1  0  0  0  0
  6 11  1  1  0  0  0
  7  6  1  0  0  0  0
 10  7  1  6  0  0  0
 10  6  1  0  0  0  0
 11 14  1  0  0  0  0
 13 12  1  1  0  0  0
 13 16  1  0  0  0  0
 14 23  1  1  0  0  0
 14 12  1  0  0  0  0
 14 13  1  0  0  0  0
 15 21  1  0  0  0  0
 16 18  1  1  0  0  0
 16 19  1  0  0  0  0
 17 21  1  0  0  0  0
 17 20  1  1  0  0  0
 18 15  1  0  0  0  0
 19 17  1  0  0  0  0
 23 22  2  0  0  0  0
 24  1  1  0  0  0  0
 25 24  1  0  0  0  0
 25 26  1  0  0  0  0
 26 27  1  0  0  0  0
 27 28  1  0  0  0  0
M  END
>  <MODEL>
2

>  <REMARK>
 VINA RESULT:      -6.5      5.310      8.164
  Name = 
  8 active torsions:
  status: ('A' for Active; 'I' for Inactive)
    1  A    between atoms: C_1  and  C_11
    2  A    between atoms: C_6  and  C_8
    3  A    between atoms: C_6  and  C_22
    4  A    between atoms: C_8  and  C_11
    5  A    between atoms: C_9  and  C_18
    6  A    between atoms: N_10  and  C_17
    7  A    between atoms: N_10  and  C_25
    8  A    between atoms: C_20  and  C_25
                            x       y       z     vdW  Elec       q    Type
                         _______ _______ _______ _____ _____    ______ ____

>  <TORSDO>
F 8

$$$$
=
 OpenBabel11052413363D

 28 31  0  0  1  0  0  0  0  0999 V2000
  188.2710  176.9840  143.7350 C   0  0  2  0  0  0  0  0  0  0  0  0
  190.5530  177.3420  144.5420 N   0  0  0  0  0  0  0  0  0  0  0  0
  189.3350  176.5380  144.7290 C   0  0  0  0  0  2  0  0  0  0  0  0
  191.6690  176.4130  144.5200 C   0  0  0  0  0  1  0  0  0  0  0  0
  190.4910  177.9730  143.2240 C   0  0  2  0  0  3  0  0  0  0  0  0
  188.9520  177.2790  141.2510 C   0  0  2  0  0  3  0  0  0  0  0  0
  188.4260  178.6440  141.6800 C   0  0  0  0  0  2  0  0  0  0  0  0
  190.8030  179.4540  143.3610 C   0  0  0  0  0  1  0  0  0  0  0  0
  187.6650  175.8510  143.1850 O   0  0  0  0  0  1  0  0  0  0  0  0
  189.0860  177.7410  142.7060 C   0  0  1  0  0  0  0  0  0  0  0  0
  190.1930  177.4610  140.5030 N   0  0  0  0  0  2  0  0  0  0  0  0
  190.4960  176.0350  138.4590 C   0  0  0  0  0  2  0  0  0  0  0  0
  189.0050  176.1050  138.7880 C   0  0  1  0  0  3  0  0  0  0  0  0
  189.9200  177.2890  139.0790 C   0  0  1  0  0  0  0  0  0  0  0  0
  186.0600  177.0980  136.5170 C   0  0  0  0  0  2  0  0  0  0  0  0
  188.2000  176.2490  137.5000 C   0  0  2  0  0  3  0  0  0  0  0  0
  187.1060  175.0060  135.6220 C   0  0  1  0  0  3  0  0  0  0  0  0
  186.8790  176.9590  137.7960 C   0  0  0  0  0  2  0  0  0  0  0  0
  187.9270  174.8700  136.9020 C   0  0  0  0  0  2  0  0  0  0  0  0
  186.7700  173.3920  134.9600 Cl  0  0  0  0  0  0  0  0  0  0  0  0
  185.7900  175.7220  135.9130 C   0  0  0  0  0  2  0  0  0  0  0  0
  189.0430  179.4060  138.4740 O   0  0  0  0  0  0  0  0  0  0  0  0
  189.8360  178.5170  138.2140 C   0  0  0  0  0  3  0  0  0  0  0  0
  187.1950  177.8430  144.4160 C   0  0  0  0  0  2  0  0  0  0  0  0
  186.9850  177.5340  145.8980 C   0  0  0  0  0  2  0  0  0  0  0  0
  185.7000  178.1650  146.4170 C   0  0  0  0  0  2  0  0  0  0  0  0
  185.1540  179.1940  145.4390 C   0  0  0  0  0  2  0  0  0  0  0  0
  183.7050  178.8900  145.1050 C   0  0  0  0  0  1  0  0  0  0  0  0
  1  9  1  6  0  0  0
  1 24  1  0  0  0  0
  1  3  1  0  0  0  0
  2  3  1  0  0  0  0
  4  2  1  0  0  0  0
  5  8  1  1  0  0  0
  5  2  1  0  0  0  0
  6 11  1  6  0  0  0
  6  7  1  0  0  0  0
  6 10  1  0  0  0  0
 10  7  1  6  0  0  0
 10  5  1  0  0  0  0
 10  1  1  0  0  0  0
 12 14  1  0  0  0  0
 13 12  1  6  0  0  0
 13 14  1  0  0  0  0
 14 23  1  6  0  0  0
 14 11  1  0  0  0  0
 15 18  1  0  0  0  0
 16 19  1  1  0  0  0
 16 18  1  0  0  0  0
 16 13  1  0  0  0  0
 17 20  1  1  0  0  0
 17 21  1  0  0  0  0
 17 19  1  0  0  0  0
 21 15  1  0  0  0  0
 23 22  2  0  0  0  0
 24 25  1  0  0  0  0
 25 26  1  0  0  0  0
 27 26  1  0  0  0  0
 28 27  1  0  0  0  0
M  END
>  <MODEL>
3

>  <REMARK>
 VINA RESULT:      -6.4      5.300      8.807
  Name = 
  8 active torsions:
  status: ('A' for Active; 'I' for Inactive)
    1  A    between atoms: C_1  and  C_11
    2  A    between atoms: C_6  and  C_8
    3  A    between atoms: C_6  and  C_22
    4  A    between atoms: C_8  and  C_11
    5  A    between atoms: C_9  and  C_18
    6  A    between atoms: N_10  and  C_17
    7  A    between atoms: N_10  and  C_25
    8  A    between atoms: C_20  and  C_25
                            x       y       z     vdW  Elec       q    Type
                         _______ _______ _______ _____ _____    ______ ____

>  <TORSDO>
F 8

$$$$
=
 OpenBabel11052413363D

 28 31  0  0  1  0  0  0  0  0999 V2000
  182.2570  177.5010  138.4210 C   0  0  2  0  0  0  0  0  0  0  0  0
  180.2660  177.1540  139.8010 N   0  0  0  0  0  0  0  0  0  0  0  0
  181.0000  176.6650  138.6250 C   0  0  0  0  0  2  0  0  0  0  0  0
  179.9130  175.9880  140.5910 C   0  0  0  0  0  1  0  0  0  0  0  0
  181.1790  177.9620  140.6100 C   0  0  2  0  0  3  0  0  0  0  0  0
  183.7720  177.9670  140.4740 C   0  0  2  0  0  3  0  0  0  0  0  0
  183.3630  179.3440  139.9650 C   0  0  0  0  0  2  0  0  0  0  0  0
  180.5090  179.2820  140.9560 C   0  0  0  0  0  1  0  0  0  0  0  0
  183.3240  176.6470  138.1290 O   0  0  0  0  0  1  0  0  0  0  0  0
  182.4240  178.1670  139.7720 C   0  0  1  0  0  0  0  0  0  0  0  0
  183.6330  177.9350  141.9260 N   0  0  0  0  0  2  0  0  0  0  0  0
  184.5670  179.6220  143.5350 C   0  0  0  0  0  2  0  0  0  0  0  0
  184.9420  178.2230  144.0220 C   0  0  1  0  0  3  0  0  0  0  0  0
  184.8260  178.5200  142.5320 C   0  0  1  0  0  0  0  0  0  0  0  0
  188.5570  176.9980  144.5220 C   0  0  0  0  0  2  0  0  0  0  0  0
  186.3760  178.2270  144.5420 C   0  0  2  0  0  3  0  0  0  0  0  0
  187.8070  178.1820  146.5970 C   0  0  1  0  0  3  0  0  0  0  0  0
  187.1240  177.0110  143.9980 C   0  0  0  0  0  2  0  0  0  0  0  0
  186.3740  178.1960  146.0700 C   0  0  0  0  0  2  0  0  0  0  0  0
  187.7840  178.1110  148.3720 Cl  0  0  0  0  0  0  0  0  0  0  0  0
  188.5590  176.9720  146.0480 C   0  0  0  0  0  2  0  0  0  0  0  0
  186.5030  179.7040  141.3490 O   0  0  0  0  0  0  0  0  0  0  0  0
  186.0740  178.6170  141.6990 C   0  0  0  0  0  3  0  0  0  0  0  0
  182.0850  178.4960  137.2650 C   0  0  0  0  0  2  0  0  0  0  0  0
  180.6360  178.7090  136.8240 C   0  0  0  0  0  2  0  0  0  0  0  0
  180.0630  179.9900  137.4150 C   0  0  0  0  0  2  0  0  0  0  0  0
  180.8690  181.2070  136.9890 C   0  0  0  0  0  2  0  0  0  0  0  0
  181.3620  181.9680  138.2050 C   0  0  0  0  0  1  0  0  0  0  0  0
  1  9  1  6  0  0  0
  1  3  1  0  0  0  0
  1 10  1  0  0  0  0
  2  4  1  0  0  0  0
  2  5  1  0  0  0  0
  3  2  1  0  0  0  0
  5  8  1  6  0  0  0
  6 11  1  1  0  0  0
  7  6  1  0  0  0  0
 10  7  1  6  0  0  0
 10  6  1  0  0  0  0
 10  5  1  0  0  0  0
 11 14  1  0  0  0  0
 13 12  1  1  0  0  0
 13 16  1  0  0  0  0
 14 23  1  6  0  0  0
 14 12  1  0  0  0  0
 14 13  1  0  0  0  0
 15 21  1  0  0  0  0
 16 18  1  6  0  0  0
 16 19  1  0  0  0  0
 17 20  1  1  0  0  0
 18 15  1  0  0  0  0
 19 17  1  0  0  0  0
 21 17  1  0  0  0  0
 22 23  2  0  0  0  0
 24  1  1  0  0  0  0
 25 24  1  0  0  0  0
 25 26  1  0  0  0  0
 27 26  1  0  0  0  0
 27 28  1  0  0  0  0
M  END
>  <MODEL>
4

>  <REMARK>
 VINA RESULT:      -6.3      1.543      2.205
  Name = 
  8 active torsions:
  status: ('A' for Active; 'I' for Inactive)
    1  A    between atoms: C_1  and  C_11
    2  A    between atoms: C_6  and  C_8
    3  A    between atoms: C_6  and  C_22
    4  A    between atoms: C_8  and  C_11
    5  A    between atoms: C_9  and  C_18
    6  A    between atoms: N_10  and  C_17
    7  A    between atoms: N_10  and  C_25
    8  A    between atoms: C_20  and  C_25
                            x       y       z     vdW  Elec       q    Type
                         _______ _______ _______ _____ _____    ______ ____

>  <TORSDO>
F 8

$$$$
=
 OpenBabel11052413363D

 28 31  0  0  1  0  0  0  0  0999 V2000
  188.3250  176.9940  143.8650 C   0  0  2  0  0  0  0  0  0  0  0  0
  190.5880  177.2870  144.7480 N   0  0  0  0  0  0  0  0  0  0  0  0
  189.3450  176.5140  144.8890 C   0  0  0  0  0  2  0  0  0  0  0  0
  191.6800  176.3300  144.7530 C   0  0  0  0  0  1  0  0  0  0  0  0
  190.5840  177.9290  143.4340 C   0  0  2  0  0  3  0  0  0  0  0  0
  189.0920  177.2900  141.4060 C   0  0  2  0  0  3  0  0  0  0  0  0
  188.5880  178.6650  141.8300 C   0  0  0  0  0  2  0  0  0  0  0  0
  190.9300  179.4010  143.5920 C   0  0  0  0  0  1  0  0  0  0  0  0
  187.7080  175.8820  143.2870 O   0  0  0  0  0  1  0  0  0  0  0  0
  189.1910  177.7370  142.8690 C   0  0  1  0  0  0  0  0  0  0  0  0
  190.3600  177.4460  140.7000 N   0  0  0  0  0  2  0  0  0  0  0  0
  191.3320  177.1220  138.4080 C   0  0  0  0  0  2  0  0  0  0  0  0
  190.3230  176.0040  138.6720 C   0  0  1  0  0  3  0  0  0  0  0  0
  190.1140  177.3940  139.2620 C   0  0  1  0  0  0  0  0  0  0  0  0
  187.1910  175.4790  136.4980 C   0  0  0  0  0  2  0  0  0  0  0  0
  189.5070  175.7390  137.4110 C   0  0  2  0  0  3  0  0  0  0  0  0
  189.0640  174.1030  135.5680 C   0  0  1  0  0  3  0  0  0  0  0  0
  188.0170  175.7550  137.7500 C   0  0  0  0  0  2  0  0  0  0  0  0
  189.8910  174.3830  136.8210 C   0  0  0  0  0  2  0  0  0  0  0  0
  189.5000  172.5080  134.9150 Cl  0  0  0  0  0  0  0  0  0  0  0  0
  187.5750  174.1270  135.9020 C   0  0  0  0  0  2  0  0  0  0  0  0
  189.3480  179.2770  138.0440 O   0  0  0  0  0  0  0  0  0  0  0  0
  189.0480  178.2860  138.6870 C   0  0  0  0  0  3  0  0  0  0  0  0
  187.2500  177.8750  144.5190 C   0  0  0  0  0  2  0  0  0  0  0  0
  186.9190  177.5010  145.9640 C   0  0  0  0  0  2  0  0  0  0  0  0
  185.7190  178.2860  146.4760 C   0  0  0  0  0  2  0  0  0  0  0  0
  185.2200  179.2770  145.4360 C   0  0  0  0  0  2  0  0  0  0  0  0
  183.7680  179.0010  145.0960 C   0  0  0  0  0  1  0  0  0  0  0  0
  1  9  1  6  0  0  0
  1 24  1  0  0  0  0
  1  3  1  0  0  0  0
  2  4  1  0  0  0  0
  2  3  1  0  0  0  0
  5  8  1  1  0  0  0
  5  2  1  0  0  0  0
  6 11  1  6  0  0  0
  6  7  1  0  0  0  0
  6 10  1  0  0  0  0
 10  7  1  6  0  0  0
 10  5  1  0  0  0  0
 10  1  1  0  0  0  0
 12 14  1  0  0  0  0
 13 12  1  6  0  0  0
 13 14  1  0  0  0  0
 14 23  1  6  0  0  0
 14 11  1  0  0  0  0
 15 18  1  0  0  0  0
 16 19  1  1  0  0  0
 16 18  1  0  0  0  0
 16 13  1  0  0  0  0
 17 20  1  1  0  0  0
 17 21  1  0  0  0  0
 17 19  1  0  0  0  0
 21 15  1  0  0  0  0
 22 23  2  0  0  0  0
 24 25  1  0  0  0  0
 25 26  1  0  0  0  0
 27 26  1  0  0  0  0
 28 27  1  0  0  0  0
M  END
>  <MODEL>
5

>  <REMARK>
 VINA RESULT:      -6.3      5.888      8.968
  Name = 
  8 active torsions:
  status: ('A' for Active; 'I' for Inactive)
    1  A    between atoms: C_1  and  C_11
    2  A    between atoms: C_6  and  C_8
    3  A    between atoms: C_6  and  C_22
    4  A    between atoms: C_8  and  C_11
    5  A    between atoms: C_9  and  C_18
    6  A    between atoms: N_10  and  C_17
    7  A    between atoms: N_10  and  C_25
    8  A    between atoms: C_20  and  C_25
                            x       y       z     vdW  Elec       q    Type
                         _______ _______ _______ _____ _____    ______ ____

>  <TORSDO>
F 8

$$$$
=
 OpenBabel11052413363D

 28 31  0  0  1  0  0  0  0  0999 V2000
  188.5730  178.4940  136.9480 C   0  0  2  0  0  0  0  0  0  0  0  0
  189.7550  176.4350  136.3580 N   0  0  0  0  0  0  0  0  0  0  0  0
  189.6220  177.8640  136.0410 C   0  0  0  0  0  2  0  0  0  0  0  0
  191.1770  176.1570  136.4540 C   0  0  0  0  0  1  0  0  0  0  0  0
  189.1800  176.2010  137.6820 C   0  0  2  0  0  3  0  0  0  0  0  0
  188.6850  177.9970  139.4900 C   0  0  2  0  0  3  0  0  0  0  0  0
  187.3090  177.5100  139.0540 C   0  0  0  0  0  2  0  0  0  0  0  0
  188.2290  175.0170  137.6150 C   0  0  0  0  0  1  0  0  0  0  0  0
  189.0540  179.7210  137.4100 O   0  0  0  0  0  1  0  0  0  0  0  0
  188.4610  177.4770  138.0660 C   0  0  1  0  0  0  0  0  0  0  0  0
  189.2970  176.9890  140.3510 N   0  0  0  0  0  2  0  0  0  0  0  0
  189.0330  178.7600  142.1100 C   0  0  0  0  0  2  0  0  0  0  0  0
  189.0710  177.3950  142.7950 C   0  0  1  0  0  3  0  0  0  0  0  0
  189.8700  177.6460  141.5210 C   0  0  1  0  0  0  0  0  0  0  0  0
  191.6790  176.3590  145.4300 C   0  0  0  0  0  2  0  0  0  0  0  0
  189.9010  177.4820  144.0720 C   0  0  2  0  0  3  0  0  0  0  0  0
  189.8040  177.5630  146.5730 C   0  0  1  0  0  3  0  0  0  0  0  0
  190.8520  176.2890  144.1500 C   0  0  0  0  0  2  0  0  0  0  0  0
  188.9790  177.4930  145.2900 C   0  0  0  0  0  2  0  0  0  0  0  0
  188.7170  177.5410  147.9780 Cl  0  0  0  0  0  0  0  0  0  0  0  0
  190.7610  176.3770  146.6500 C   0  0  0  0  0  2  0  0  0  0  0  0
  192.0680  177.5070  140.6450 O   0  0  0  0  0  0  0  0  0  0  0  0
  191.3660  177.7820  141.6040 C   0  0  0  0  0  3  0  0  0  0  0  0
  187.2530  178.7270  136.1980 C   0  0  0  0  0  2  0  0  0  0  0  0
  187.0880  177.8850  134.9330 C   0  0  0  0  0  2  0  0  0  0  0  0
  186.0880  176.7570  135.1470 C   0  0  0  0  0  2  0  0  0  0  0  0
  185.0440  177.1320  136.1890 C   0  0  0  0  0  2  0  0  0  0  0  0
  184.5760  175.8990  136.9370 C   0  0  0  0  0  1  0  0  0  0  0  0
  1  9  1  1  0  0  0
  1 10  1  0  0  0  0
  2  4  1  0  0  0  0
  2  5  1  0  0  0  0
  3  2  1  0  0  0  0
  3  1  1  0  0  0  0
  5  8  1  6  0  0  0
  5 10  1  0  0  0  0
  6 11  1  1  0  0  0
  7  6  1  0  0  0  0
 10  7  1  6  0  0  0
 10  6  1  0  0  0  0
 11 14  1  0  0  0  0
 13 12  1  1  0  0  0
 13 16  1  0  0  0  0
 14 23  1  1  0  0  0
 14 12  1  0  0  0  0
 14 13  1  0  0  0  0
 15 21  1  0  0  0  0
 16 18  1  1  0  0  0
 16 19  1  0  0  0  0
 17 21  1  0  0  0  0
 17 20  1  1  0  0  0
 18 15  1  0  0  0  0
 19 17  1  0  0  0  0
 22 23  2  0  0  0  0
 24  1  1  0  0  0  0
 25 26  1  0  0  0  0
 25 24  1  0  0  0  0
 26 27  1  0  0  0  0
 27 28  1  0  0  0  0
M  END
>  <MODEL>
6

>  <REMARK>
 VINA RESULT:      -6.1      4.474      5.640
  Name = 
  8 active torsions:
  status: ('A' for Active; 'I' for Inactive)
    1  A    between atoms: C_1  and  C_11
    2  A    between atoms: C_6  and  C_8
    3  A    between atoms: C_6  and  C_22
    4  A    between atoms: C_8  and  C_11
    5  A    between atoms: C_9  and  C_18
    6  A    between atoms: N_10  and  C_17
    7  A    between atoms: N_10  and  C_25
    8  A    between atoms: C_20  and  C_25
                            x       y       z     vdW  Elec       q    Type
                         _______ _______ _______ _____ _____    ______ ____

>  <TORSDO>
F 8

$$$$
=
 OpenBabel11052413363D

 28 31  0  0  1  0  0  0  0  0999 V2000
  182.1500  176.7960  138.9300 C   0  0  2  0  0  0  0  0  0  0  0  0
  180.0550  177.2620  140.1060 N   0  0  0  0  0  0  0  0  0  0  0  0
  180.7460  176.2940  139.2420 C   0  0  0  0  0  2  0  0  0  0  0  0
  179.4400  176.5020  141.1800 C   0  0  0  0  0  1  0  0  0  0  0  0
  181.0590  178.1330  140.7160 C   0  0  2  0  0  3  0  0  0  0  0  0
  183.6080  177.6670  140.8880 C   0  0  2  0  0  3  0  0  0  0  0  0
  183.5030  178.8410  139.9230 C   0  0  0  0  0  2  0  0  0  0  0  0
  180.6390  179.5840  140.5420 C   0  0  0  0  0  1  0  0  0  0  0  0
  183.0460  175.7310  139.0520 O   0  0  0  0  0  1  0  0  0  0  0  0
  182.3660  177.8390  140.0070 C   0  0  1  0  0  0  0  0  0  0  0  0
  183.3850  178.1470  142.2490 N   0  0  0  0  0  2  0  0  0  0  0  0
  184.4870  179.8170  143.7650 C   0  0  0  0  0  2  0  0  0  0  0  0
  184.8170  178.4110  144.2660 C   0  0  1  0  0  3  0  0  0  0  0  0
  184.6370  178.6820  142.7760 C   0  0  1  0  0  0  0  0  0  0  0  0
  188.3920  177.0220  144.5890 C   0  0  0  0  0  2  0  0  0  0  0  0
  186.2750  178.3530  144.7100 C   0  0  2  0  0  3  0  0  0  0  0  0
  187.8090  178.2570  146.6870 C   0  0  1  0  0  3  0  0  0  0  0  0
  186.9360  177.0980  144.1410 C   0  0  0  0  0  2  0  0  0  0  0  0
  186.3530  178.3340  146.2360 C   0  0  0  0  0  2  0  0  0  0  0  0
  187.8770  178.2030  148.4620 Cl  0  0  0  0  0  0  0  0  0  0  0  0
  188.4740  177.0090  146.1130 C   0  0  0  0  0  2  0  0  0  0  0  0
  186.3390  179.7530  141.5240 O   0  0  0  0  0  0  0  0  0  0  0  0
  185.8430  178.6970  141.8780 C   0  0  0  0  0  3  0  0  0  0  0  0
  182.2370  177.3600  137.5050 C   0  0  0  0  0  2  0  0  0  0  0  0
  182.9430  176.4450  136.5050 C   0  0  0  0  0  2  0  0  0  0  0  0
  184.1550  177.1310  135.8880 C   0  0  0  0  0  2  0  0  0  0  0  0
  185.2490  177.3580  136.9210 C   0  0  0  0  0  2  0  0  0  0  0  0
  186.2590  176.2270  136.8800 C   0  0  0  0  0  1  0  0  0  0  0  0
  1  9  1  1  0  0  0
  1  3  1  0  0  0  0
  1 10  1  0  0  0  0
  2  5  1  0  0  0  0
  2  4  1  0  0  0  0
  3  2  1  0  0  0  0
  5  8  1  6  0  0  0
  6 11  1  1  0  0  0
  7  6  1  0  0  0  0
 10  7  1  6  0  0  0
 10  5  1  0  0  0  0
 10  6  1  0  0  0  0
 11 14  1  0  0  0  0
 13 12  1  1  0  0  0
 13 16  1  0  0  0  0
 14 23  1  6  0  0  0
 14 12  1  0  0  0  0
 14 13  1  0  0  0  0
 15 21  1  0  0  0  0
 16 18  1  6  0  0  0
 16 19  1  0  0  0  0
 17 20  1  1  0  0  0
 18 15  1  0  0  0  0
 19 17  1  0  0  0  0
 21 17  1  0  0  0  0
 22 23  2  0  0  0  0
 24  1  1  0  0  0  0
 25 24  1  0  0  0  0
 26 25  1  0  0  0  0
 26 27  1  0  0  0  0
 28 27  1  0  0  0  0
M  END
>  <MODEL>
7

>  <REMARK>
 VINA RESULT:      -5.9      2.241      3.576
  Name = 
  8 active torsions:
  status: ('A' for Active; 'I' for Inactive)
    1  A    between atoms: C_1  and  C_11
    2  A    between atoms: C_6  and  C_8
    3  A    between atoms: C_6  and  C_22
    4  A    between atoms: C_8  and  C_11
    5  A    between atoms: C_9  and  C_18
    6  A    between atoms: N_10  and  C_17
    7  A    between atoms: N_10  and  C_25
    8  A    between atoms: C_20  and  C_25
                            x       y       z     vdW  Elec       q    Type
                         _______ _______ _______ _____ _____    ______ ____

>  <TORSDO>
F 8

$$$$
=
 OpenBabel11052413363D

 28 31  0  0  1  0  0  0  0  0999 V2000
  187.4490  175.7990  136.7680 C   0  0  2  0  0  0  0  0  0  0  0  0
  186.0450  173.8010  136.6190 N   0  0  0  0  0  0  0  0  0  0  0  0
  187.3610  174.3040  137.0420 C   0  0  0  0  0  2  0  0  0  0  0  0
  185.5450  172.9730  137.7020 C   0  0  0  0  0  1  0  0  0  0  0  0
  185.1360  174.9400  136.4930 C   0  0  2  0  0  3  0  0  0  0  0  0
  185.4730  177.3060  137.5090 C   0  0  2  0  0  3  0  0  0  0  0  0
  185.5890  177.5200  136.0050 C   0  0  0  0  0  2  0  0  0  0  0  0
  184.4200  174.8660  135.1540 C   0  0  0  0  0  1  0  0  0  0  0  0
  188.0280  176.4260  137.8740 O   0  0  0  0  0  1  0  0  0  0  0  0
  185.9930  176.1840  136.6030 C   0  0  1  0  0  0  0  0  0  0  0  0
  184.0670  177.1210  137.8560 N   0  0  0  0  0  2  0  0  0  0  0  0
  182.1930  178.5660  138.6940 C   0  0  0  0  0  2  0  0  0  0  0  0
  182.7040  177.7100  139.8520 C   0  0  1  0  0  3  0  0  0  0  0  0
  183.6570  178.1890  138.7630 C   0  0  1  0  0  0  0  0  0  0  0  0
  183.9920  178.9270  143.2690 C   0  0  0  0  0  2  0  0  0  0  0  0
  182.7540  178.5460  141.1270 C   0  0  2  0  0  3  0  0  0  0  0  0
  181.5030  179.1970  143.1970 C   0  0  1  0  0  3  0  0  0  0  0  0
  183.9390  178.1050  141.9850 C   0  0  0  0  0  2  0  0  0  0  0  0
  181.4530  178.3760  141.9110 C   0  0  0  0  0  2  0  0  0  0  0  0
  179.9970  178.9600  144.1100 Cl  0  0  0  0  0  0  0  0  0  0  0  0
  182.6910  178.7640  144.0520 C   0  0  0  0  0  2  0  0  0  0  0  0
  184.3180  180.4540  138.9820 O   0  0  0  0  0  0  0  0  0  0  0  0
  184.6420  179.2820  139.0730 C   0  0  0  0  0  3  0  0  0  0  0  0
  188.3040  176.0900  135.5260 C   0  0  0  0  0  2  0  0  0  0  0  0
  189.5260  176.9690  135.7920 C   0  0  0  0  0  2  0  0  0  0  0  0
  190.8140  176.1610  135.7210 C   0  0  0  0  0  2  0  0  0  0  0  0
  191.4450  176.0020  137.0960 C   0  0  0  0  0  2  0  0  0  0  0  0
  191.6700  174.5350  137.4100 C   0  0  0  0  0  1  0  0  0  0  0  0
  1  3  1  0  0  0  0
  1  9  1  1  0  0  0
  2  3  1  0  0  0  0
  2  4  1  0  0  0  0
  5  8  1  6  0  0  0
  5 10  1  0  0  0  0
  5  2  1  0  0  0  0
  6 11  1  6  0  0  0
  7  6  1  0  0  0  0
 10  7  1  6  0  0  0
 10  1  1  0  0  0  0
 10  6  1  0  0  0  0
 11 14  1  0  0  0  0
 12 14  1  0  0  0  0
 13 12  1  6  0  0  0
 13 16  1  0  0  0  0
 14 23  1  1  0  0  0
 14 13  1  0  0  0  0
 15 21  1  0  0  0  0
 16 19  1  1  0  0  0
 16 18  1  0  0  0  0
 17 21  1  0  0  0  0
 17 20  1  1  0  0  0
 18 15  1  0  0  0  0
 19 17  1  0  0  0  0
 22 23  2  0  0  0  0
 24 25  1  0  0  0  0
 24  1  1  0  0  0  0
 26 25  1  0  0  0  0
 26 27  1  0  0  0  0
 27 28  1  0  0  0  0
M  END
>  <MODEL>
8

>  <REMARK>
 VINA RESULT:      -5.4      3.745      7.073
  Name = 
  8 active torsions:
  status: ('A' for Active; 'I' for Inactive)
    1  A    between atoms: C_1  and  C_11
    2  A    between atoms: C_6  and  C_8
    3  A    between atoms: C_6  and  C_22
    4  A    between atoms: C_8  and  C_11
    5  A    between atoms: C_9  and  C_18
    6  A    between atoms: N_10  and  C_17
    7  A    between atoms: N_10  and  C_25
    8  A    between atoms: C_20  and  C_25
                            x       y       z     vdW  Elec       q    Type
                         _______ _______ _______ _____ _____    ______ ____

>  <TORSDO>
F 8

$$$$
=
 OpenBabel11052413363D

 28 31  0  0  1  0  0  0  0  0999 V2000
  189.9610  175.8210  137.6400 C   0  0  2  0  0  0  0  0  0  0  0  0
  187.7750  175.2690  136.6890 N   0  0  0  0  0  0  0  0  0  0  0  0
  189.1100  174.7340  136.9960 C   0  0  0  0  0  2  0  0  0  0  0  0
  186.8120  174.2900  137.1620 C   0  0  0  0  0  1  0  0  0  0  0  0
  187.5740  176.4840  137.4770 C   0  0  2  0  0  3  0  0  0  0  0  0
  188.9290  177.2120  139.5690 C   0  0  2  0  0  3  0  0  0  0  0  0
  189.3020  178.2340  138.5020 C   0  0  0  0  0  2  0  0  0  0  0  0
  187.0700  177.5940  136.5680 C   0  0  0  0  0  1  0  0  0  0  0  0
  190.6490  175.2710  138.7250 O   0  0  0  0  0  1  0  0  0  0  0  0
  188.9190  176.8250  138.0860 C   0  0  1  0  0  0  0  0  0  0  0  0
  187.5890  177.5110  140.0660 N   0  0  0  0  0  2  0  0  0  0  0  0
  186.4540  179.0120  141.7280 C   0  0  0  0  0  2  0  0  0  0  0  0
  186.8200  177.7010  142.4240 C   0  0  1  0  0  3  0  0  0  0  0  0
  187.7010  178.2610  141.3130 C   0  0  1  0  0  0  0  0  0  0  0  0
  188.7600  177.1260  145.6980 C   0  0  0  0  0  2  0  0  0  0  0  0
  187.3380  177.9920  143.8290 C   0  0  2  0  0  3  0  0  0  0  0  0
  186.6760  178.4170  146.2060 C   0  0  1  0  0  3  0  0  0  0  0  0
  188.2450  176.8520  144.2890 C   0  0  0  0  0  2  0  0  0  0  0  0
  186.1630  178.1430  144.7950 C   0  0  0  0  0  2  0  0  0  0  0  0
  185.2980  178.5560  147.3200 Cl  0  0  0  0  0  0  0  0  0  0  0  0
  187.5890  177.2840  146.6650 C   0  0  0  0  0  2  0  0  0  0  0  0
  189.9730  178.1690  141.9780 O   0  0  0  0  0  0  0  0  0  0  0  0
  189.0290  178.8730  141.6630 C   0  0  0  0  0  3  0  0  0  0  0  0
  190.9790  176.3950  136.6440 C   0  0  0  0  0  2  0  0  0  0  0  0
  192.1820  175.4910  136.3770 C   0  0  0  0  0  2  0  0  0  0  0  0
  193.4920  176.2260  136.6260 C   0  0  0  0  0  2  0  0  0  0  0  0
  194.6640  175.2600  136.7080 C   0  0  0  0  0  2  0  0  0  0  0  0
  194.3650  174.1480  137.6960 C   0  0  0  0  0  1  0  0  0  0  0  0
  1 10  1  0  0  0  0
  1  9  1  1  0  0  0
  2  3  1  0  0  0  0
  2  4  1  0  0  0  0
  2  5  1  0  0  0  0
  3  1  1  0  0  0  0
  5  8  1  6  0  0  0
  5 10  1  0  0  0  0
  6 11  1  6  0  0  0
  7  6  1  0  0  0  0
 10  7  1  6  0  0  0
 10  6  1  0  0  0  0
 11 14  1  0  0  0  0
 13 12  1  1  0  0  0
 13 16  1  0  0  0  0
 14 23  1  1  0  0  0
 14 12  1  0  0  0  0
 14 13  1  0  0  0  0
 15 21  1  0  0  0  0
 16 18  1  1  0  0  0
 16 19  1  0  0  0  0
 17 21  1  0  0  0  0
 17 20  1  1  0  0  0
 18 15  1  0  0  0  0
 19 17  1  0  0  0  0
 23 22  2  0  0  0  0
 24  1  1  0  0  0  0
 25 26  1  0  0  0  0
 25 24  1  0  0  0  0
 26 27  1  0  0  0  0
 27 28  1  0  0  0  0
M  END
>  <MODEL>
9

>  <REMARK>
 VINA RESULT:      -5.3      4.649      7.368
  Name = 
  8 active torsions:
  status: ('A' for Active; 'I' for Inactive)
    1  A    between atoms: C_1  and  C_11
    2  A    between atoms: C_6  and  C_8
    3  A    between atoms: C_6  and  C_22
    4  A    between atoms: C_8  and  C_11
    5  A    between atoms: C_9  and  C_18
    6  A    between atoms: N_10  and  C_17
    7  A    between atoms: N_10  and  C_25
    8  A    between atoms: C_20  and  C_25
                            x       y       z     vdW  Elec       q    Type
                         _______ _______ _______ _____ _____    ______ ____

>  <TORSDO>
F 8

$$$$
