=
 OpenBabel11052412553D

 31 34  0  0  1  0  0  0  0  0999 V2000
  191.3160  176.4940  146.4240 C   0  0  0  0  0  0  0  0  0  0  0  0
  188.1570  177.4340  144.5840 C   0  0  0  0  0  0  0  0  0  0  0  0
  187.0940  177.8340  145.4960 C   0  0  2  0  0  3  0  0  0  0  0  0
  186.6000  179.1640  147.5190 C   0  0  0  0  0  3  0  0  0  0  0  0
  189.5890  177.2450  144.9090 C   0  0  0  0  0  0  0  0  0  0  0  0
  192.2640  176.8490  145.5160 N   0  0  0  0  0  0  0  0  0  0  0  0
  187.2060  177.9130  146.9800 C   0  0  0  0  0  2  0  0  0  0  0  0
  189.5310  177.4930  141.6860 C   0  0  1  0  0  3  0  0  0  0  0  0
  191.7940  175.8140  147.9660 Cl  0  0  0  0  0  0  0  0  0  0  0  0
  186.1610  177.5030  143.3940 C   0  0  0  0  0  3  0  0  0  0  0  0
  185.3360  179.5410  147.3080 C   0  0  0  0  0  3  0  0  0  0  0  0
  190.2570  178.3520  142.7280 C   0  0  0  0  0  2  0  0  0  0  0  0
  187.6310  177.2530  143.3790 C   0  0  0  0  0  0  0  0  0  0  0  0
  189.9630  176.6850  146.1350 C   0  0  0  0  0  3  0  0  0  0  0  0
  184.3920  178.8570  146.4670 N   0  0  0  0  0  0  0  0  0  0  0  0
  190.5910  177.6140  143.9890 C   0  0  0  0  0  0  0  0  0  0  0  0
  191.9310  177.4040  144.3190 C   0  0  0  0  0  3  0  0  0  0  0  0
  188.3680  176.6480  142.2200 C   0  0  0  0  0  2  0  0  0  0  0  0
  185.9520  177.8830  144.8250 C   0  0  0  0  0  0  0  0  0  0  0  0
  184.6220  178.1510  145.3960 C   0  0  0  0  0  3  0  0  0  0  0  0
  189.0490  178.3740  140.5450 C   0  0  0  0  0  2  0  0  0  0  0  0
  187.7030  178.5580  138.0820 O   0  0  0  0  0  0  0  0  0  0  0  0
  190.8750  177.4510  139.2330 O   0  0  0  0  0  1  0  0  0  0  0  0
  189.6010  177.9100  139.2780 N   0  0  0  0  0  0  0  0  0  0  0  0
  188.8320  177.9950  138.0740 C   0  0  0  0  0  0  0  0  0  0  0  0
  188.8390  178.1220  135.7120 O   0  0  0  0  0  1  0  0  0  0  0  0
  189.3730  177.4230  136.7960 C   0  0  2  0  0  3  0  0  0  0  0  0
  189.0370  175.9390  136.6590 C   0  0  0  0  0  2  0  0  0  0  0  0
  190.2360  175.0780  136.9040 C   0  0  0  0  0  0  0  0  0  0  0  0
  191.5540  175.4640  136.3280 C   0  0  0  0  0  1  0  0  0  0  0  0
  190.1380  174.0560  137.5670 O   0  0  0  0  0  0  0  0  0  0  0  0
  1  9  1  0  0  0  0
  2  5  1  0  0  0  0
  2  3  1  0  0  0  0
  3  7  1  1  0  0  0
  5 14  2  0  0  0  0
  6  1  2  0  0  0  0
  7  4  1  0  0  0  0
  8 21  1  6  0  0  0
  8 18  1  0  0  0  0
  8 12  1  0  0  0  0
 10 19  2  0  0  0  0
 11  4  2  0  0  0  0
 12 16  1  0  0  0  0
 13 10  1  0  0  0  0
 13  2  2  0  0  0  0
 14  1  1  0  0  0  0
 15 11  1  0  0  0  0
 16 17  2  0  0  0  0
 16  5  1  0  0  0  0
 17  6  1  0  0  0  0
 18 13  1  0  0  0  0
 19 20  1  0  0  0  0
 19  3  1  0  0  0  0
 20 15  2  0  0  0  0
 23 24  1  0  0  0  0
 24 21  1  0  0  0  0
 25 22  2  0  0  0  0
 25 24  1  0  0  0  0
 27 26  1  6  0  0  0
 27 25  1  0  0  0  0
 28 27  1  0  0  0  0
 28 29  1  0  0  0  0
 29 31  2  0  0  0  0
 30 29  1  0  0  0  0
M  END
>  <MODEL>
1

>  <REMARK>
 VINA RESULT:      -7.8      0.000      0.000
  Name = 
  5 active torsions:
  status: ('A' for Active; 'I' for Inactive)
    1  A    between atoms: C_1  and  C_24
    2  A    between atoms: N_9  and  C_23
    3  A    between atoms: C_15  and  C_23
    4  A    between atoms: C_19  and  C_22
    5  A    between atoms: C_19  and  C_24
                            x       y       z     vdW  Elec       q    Type
                         _______ _______ _______ _____ _____    ______ ____

>  <TORSDO>
F 5

$$$$
=
 OpenBabel11052412553D

 31 34  0  0  1  0  0  0  0  0999 V2000
  185.2620  179.1120  145.8400 C   0  0  0  0  0  0  0  0  0  0  0  0
  186.6180  178.3070  142.4110 C   0  0  0  0  0  0  0  0  0  0  0  0
  187.9470  177.7140  142.4760 C   0  0  2  0  0  3  0  0  0  0  0  0
  189.3350  176.0620  143.6790 C   0  0  0  0  0  3  0  0  0  0  0  0
  185.6780  178.5170  143.5350 C   0  0  0  0  0  0  0  0  0  0  0  0
  183.9270  178.9540  145.6380 N   0  0  0  0  0  0  0  0  0  0  0  0
  188.7030  177.4120  143.7240 C   0  0  0  0  0  2  0  0  0  0  0  0
  183.8300  178.7710  140.8930 C   0  0  1  0  0  3  0  0  0  0  0  0
  185.8580  179.5690  147.4220 Cl  0  0  0  0  0  0  0  0  0  0  0  0
  187.5300  178.3190  140.2720 C   0  0  0  0  0  3  0  0  0  0  0  0
  190.1810  175.6570  142.7280 C   0  0  0  0  0  3  0  0  0  0  0  0
  183.7320  177.7990  142.0750 C   0  0  0  0  0  2  0  0  0  0  0  0
  186.3700  178.6450  141.1510 C   0  0  0  0  0  0  0  0  0  0  0  0
  186.1590  178.8990  144.7910 C   0  0  0  0  0  3  0  0  0  0  0  0
  190.5470  176.4130  141.5610 N   0  0  0  0  0  0  0  0  0  0  0  0
  184.2900  178.3490  143.3540 C   0  0  0  0  0  0  0  0  0  0  0  0
  183.4290  178.5760  144.4290 C   0  0  0  0  0  3  0  0  0  0  0  0
  185.1890  179.4610  140.7140 C   0  0  0  0  0  2  0  0  0  0  0  0
  188.4730  177.7100  141.2590 C   0  0  0  0  0  0  0  0  0  0  0  0
  189.8380  177.2880  140.9060 C   0  0  0  0  0  3  0  0  0  0  0  0
  183.4420  178.0550  139.6100 C   0  0  0  0  0  2  0  0  0  0  0  0
  181.4000  179.9300  139.1340 O   0  0  0  0  0  0  0  0  0  0  0  0
  181.6300  176.4420  139.7620 O   0  0  0  0  0  1  0  0  0  0  0  0
  182.0200  177.7320  139.6200 N   0  0  0  0  0  0  0  0  0  0  0  0
  181.0400  178.7540  139.4160 C   0  0  0  0  0  0  0  0  0  0  0  0
  178.9310  178.7890  138.3460 O   0  0  0  0  0  1  0  0  0  0  0  0
  179.5790  178.4260  139.5270 C   0  0  2  0  0  3  0  0  0  0  0  0
  178.9310  179.1490  140.7060 C   0  0  0  0  0  2  0  0  0  0  0  0
  179.5210  178.7150  142.0120 C   0  0  0  0  0  0  0  0  0  0  0  0
  180.2030  179.7120  142.8820 C   0  0  0  0  0  1  0  0  0  0  0  0
  179.4540  177.5470  142.3630 O   0  0  0  0  0  0  0  0  0  0  0  0
  1  9  1  0  0  0  0
  2  3  1  0  0  0  0
  2  5  1  0  0  0  0
  3  7  1  1  0  0  0
  4  7  1  0  0  0  0
  5 14  1  0  0  0  0
  6  1  1  0  0  0  0
  8 21  1  6  0  0  0
  8 12  1  0  0  0  0
 10 13  1  0  0  0  0
 10 19  2  0  0  0  0
 11  4  2  0  0  0  0
 12 16  1  0  0  0  0
 13  2  2  0  0  0  0
 14  1  2  0  0  0  0
 15 11  1  0  0  0  0
 16  5  2  0  0  0  0
 16 17  1  0  0  0  0
 17  6  2  0  0  0  0
 18  8  1  0  0  0  0
 18 13  1  0  0  0  0
 19  3  1  0  0  0  0
 20 19  1  0  0  0  0
 20 15  2  0  0  0  0
 21 24  1  0  0  0  0
 22 25  2  0  0  0  0
 24 23  1  0  0  0  0
 25 27  1  0  0  0  0
 25 24  1  0  0  0  0
 27 26  1  6  0  0  0
 27 28  1  0  0  0  0
 28 29  1  0  0  0  0
 29 31  2  0  0  0  0
 29 30  1  0  0  0  0
M  END
>  <MODEL>
2

>  <REMARK>
 VINA RESULT:      -7.7      4.670      7.647
  Name = 
  5 active torsions:
  status: ('A' for Active; 'I' for Inactive)
    1  A    between atoms: C_1  and  C_24
    2  A    between atoms: N_9  and  C_23
    3  A    between atoms: C_15  and  C_23
    4  A    between atoms: C_19  and  C_22
    5  A    between atoms: C_19  and  C_24
                            x       y       z     vdW  Elec       q    Type
                         _______ _______ _______ _____ _____    ______ ____

>  <TORSDO>
F 5

$$$$
=
 OpenBabel11052412553D

 31 34  0  0  1  0  0  0  0  0999 V2000
  188.8490  176.9580  147.3470 C   0  0  0  0  0  0  0  0  0  0  0  0
  187.5890  177.5800  143.8440 C   0  0  0  0  0  0  0  0  0  0  0  0
  186.2220  178.0840  143.8380 C   0  0  2  0  0  3  0  0  0  0  0  0
  184.6800  179.6720  144.9360 C   0  0  0  0  0  3  0  0  0  0  0  0
  188.4930  177.4620  145.0110 C   0  0  0  0  0  0  0  0  0  0  0  0
  190.1790  177.1990  147.1940 N   0  0  0  0  0  0  0  0  0  0  0  0
  185.3960  178.3690  145.0460 C   0  0  0  0  0  2  0  0  0  0  0  0
  190.4630  177.2620  142.4540 C   0  0  1  0  0  3  0  0  0  0  0  0
  188.2180  176.5050  148.9170 Cl  0  0  0  0  0  0  0  0  0  0  0  0
  186.7710  177.4500  141.6720 C   0  0  0  0  0  3  0  0  0  0  0  0
  183.8500  179.9940  143.9400 C   0  0  0  0  0  3  0  0  0  0  0  0
  190.4470  178.2690  143.6110 C   0  0  0  0  0  2  0  0  0  0  0  0
  187.9110  177.2250  142.6060 C   0  0  0  0  0  0  0  0  0  0  0  0
  187.9850  177.0830  146.2570 C   0  0  0  0  0  3  0  0  0  0  0  0
  183.5830  179.1850  142.7820 N   0  0  0  0  0  0  0  0  0  0  0  0
  189.8730  177.7180  144.8810 C   0  0  0  0  0  0  0  0  0  0  0  0
  190.7010  177.5780  145.9960 C   0  0  0  0  0  3  0  0  0  0  0  0
  189.1610  176.4780  142.2410 C   0  0  0  0  0  2  0  0  0  0  0  0
  185.7490  178.0200  142.6020 C   0  0  0  0  0  0  0  0  0  0  0  0
  184.3750  178.3420  142.1820 C   0  0  0  0  0  3  0  0  0  0  0  0
  190.8570  177.9680  141.1670 C   0  0  0  0  0  2  0  0  0  0  0  0
  188.9650  179.0150  139.3690 O   0  0  0  0  0  0  0  0  0  0  0  0
  190.8590  176.0290  139.7010 O   0  0  0  0  0  1  0  0  0  0  0  0
  190.3410  177.2420  140.0120 N   0  0  0  0  0  0  0  0  0  0  0  0
  189.3420  177.8270  139.1720 C   0  0  0  0  0  0  0  0  0  0  0  0
  189.4850  177.2550  136.8810 O   0  0  0  0  0  1  0  0  0  0  0  0
  188.7490  177.0320  138.0450 C   0  0  2  0  0  3  0  0  0  0  0  0
  187.2880  177.4070  137.8030 C   0  0  0  0  0  2  0  0  0  0  0  0
  187.1380  178.3020  136.6130 C   0  0  0  0  0  0  0  0  0  0  0  0
  186.7070  177.7300  135.3080 C   0  0  0  0  0  1  0  0  0  0  0  0
  187.3750  179.4970  136.7050 O   0  0  0  0  0  0  0  0  0  0  0  0
  1  9  1  0  0  0  0
  2  5  1  0  0  0  0
  3  2  1  0  0  0  0
  3  7  1  1  0  0  0
  4  7  1  0  0  0  0
  5 14  1  0  0  0  0
  6  1  1  0  0  0  0
  8 21  1  6  0  0  0
  8 12  1  0  0  0  0
 10 19  2  0  0  0  0
 10 13  1  0  0  0  0
 11  4  2  0  0  0  0
 12 16  1  0  0  0  0
 13  2  2  0  0  0  0
 14  1  2  0  0  0  0
 15 11  1  0  0  0  0
 16  5  2  0  0  0  0
 16 17  1  0  0  0  0
 17  6  2  0  0  0  0
 18  8  1  0  0  0  0
 18 13  1  0  0  0  0
 19  3  1  0  0  0  0
 20 19  1  0  0  0  0
 20 15  2  0  0  0  0
 23 24  1  0  0  0  0
 24 21  1  0  0  0  0
 25 22  2  0  0  0  0
 25 24  1  0  0  0  0
 27 26  1  6  0  0  0
 27 25  1  0  0  0  0
 28 27  1  0  0  0  0
 29 31  2  0  0  0  0
 29 28  1  0  0  0  0
 30 29  1  0  0  0  0
M  END
>  <MODEL>
3

>  <REMARK>
 VINA RESULT:      -7.4      1.915      2.688
  Name = 
  5 active torsions:
  status: ('A' for Active; 'I' for Inactive)
    1  A    between atoms: C_1  and  C_24
    2  A    between atoms: N_9  and  C_23
    3  A    between atoms: C_15  and  C_23
    4  A    between atoms: C_19  and  C_22
    5  A    between atoms: C_19  and  C_24
                            x       y       z     vdW  Elec       q    Type
                         _______ _______ _______ _____ _____    ______ ____

>  <TORSDO>
F 5

$$$$
=
 OpenBabel11052412553D

 31 34  0  0  1  0  0  0  0  0999 V2000
  191.3710  176.4230  146.3870 C   0  0  0  0  0  0  0  0  0  0  0  0
  188.2120  177.4890  144.6160 C   0  0  0  0  0  0  0  0  0  0  0  0
  187.1470  177.8170  145.5540 C   0  0  2  0  0  3  0  0  0  0  0  0
  186.6450  178.9900  147.6700 C   0  0  0  0  0  3  0  0  0  0  0  0
  189.6440  177.2800  144.9290 C   0  0  0  0  0  0  0  0  0  0  0  0
  192.3190  176.8470  145.5090 N   0  0  0  0  0  0  0  0  0  0  0  0
  187.2560  177.7840  147.0400 C   0  0  0  0  0  2  0  0  0  0  0  0
  189.5910  177.7680  141.7330 C   0  0  1  0  0  3  0  0  0  0  0  0
  191.8490  175.6310  147.8740 Cl  0  0  0  0  0  0  0  0  0  0  0  0
  186.2180  177.6410  143.4310 C   0  0  0  0  0  3  0  0  0  0  0  0
  185.3810  179.3780  147.4850 C   0  0  0  0  0  3  0  0  0  0  0  0
  190.3130  178.5490  142.8380 C   0  0  0  0  0  2  0  0  0  0  0  0
  187.6880  177.3970  143.4000 C   0  0  0  0  0  0  0  0  0  0  0  0
  190.0180  176.6310  146.1100 C   0  0  0  0  0  3  0  0  0  0  0  0
  184.4400  178.7560  146.5930 N   0  0  0  0  0  0  0  0  0  0  0  0
  190.6470  177.7200  144.0410 C   0  0  0  0  0  0  0  0  0  0  0  0
  191.9860  177.4890  144.3560 C   0  0  0  0  0  3  0  0  0  0  0  0
  188.4290  176.8820  142.2000 C   0  0  0  0  0  2  0  0  0  0  0  0
  186.0060  177.9120  144.8860 C   0  0  0  0  0  0  0  0  0  0  0  0
  184.6730  178.1330  145.4730 C   0  0  0  0  0  3  0  0  0  0  0  0
  189.1070  178.7300  140.6600 C   0  0  0  0  0  2  0  0  0  0  0  0
  190.5560  177.1000  138.8830 O   0  0  0  0  0  0  0  0  0  0  0  0
  187.1590  177.9950  139.4070 O   0  0  0  0  0  1  0  0  0  0  0  0
  188.5060  177.9950  139.5540 N   0  0  0  0  0  0  0  0  0  0  0  0
  189.3190  177.2250  138.6640 C   0  0  0  0  0  0  0  0  0  0  0  0
  189.3230  175.3240  137.2560 O   0  0  0  0  0  1  0  0  0  0  0  0
  188.7010  176.5550  137.4710 C   0  0  2  0  0  3  0  0  0  0  0  0
  188.8290  177.4150  136.2150 C   0  0  0  0  0  2  0  0  0  0  0  0
  187.6140  178.2620  136.0010 C   0  0  0  0  0  0  0  0  0  0  0  0
  186.4950  177.7490  135.1630 C   0  0  0  0  0  1  0  0  0  0  0  0
  187.5380  179.3740  136.5020 O   0  0  0  0  0  0  0  0  0  0  0  0
  1  9  1  0  0  0  0
  2  5  1  0  0  0  0
  2  3  1  0  0  0  0
  3  7  1  1  0  0  0
  5 14  2  0  0  0  0
  6  1  2  0  0  0  0
  7  4  1  0  0  0  0
  8 21  1  6  0  0  0
  8 18  1  0  0  0  0
  8 12  1  0  0  0  0
 10 19  2  0  0  0  0
 11  4  2  0  0  0  0
 12 16  1  0  0  0  0
 13 10  1  0  0  0  0
 13  2  2  0  0  0  0
 14  1  1  0  0  0  0
 15 11  1  0  0  0  0
 16 17  2  0  0  0  0
 16  5  1  0  0  0  0
 17  6  1  0  0  0  0
 18 13  1  0  0  0  0
 19 20  1  0  0  0  0
 19  3  1  0  0  0  0
 20 15  2  0  0  0  0
 23 24  1  0  0  0  0
 24 21  1  0  0  0  0
 25 22  2  0  0  0  0
 25 24  1  0  0  0  0
 27 26  1  6  0  0  0
 27 25  1  0  0  0  0
 28 27  1  0  0  0  0
 29 28  1  0  0  0  0
 29 31  2  0  0  0  0
 30 29  1  0  0  0  0
M  END
>  <MODEL>
4

>  <REMARK>
 VINA RESULT:      -7.3      0.974      2.039
  Name = 
  5 active torsions:
  status: ('A' for Active; 'I' for Inactive)
    1  A    between atoms: C_1  and  C_24
    2  A    between atoms: N_9  and  C_23
    3  A    between atoms: C_15  and  C_23
    4  A    between atoms: C_19  and  C_22
    5  A    between atoms: C_19  and  C_24
                            x       y       z     vdW  Elec       q    Type
                         _______ _______ _______ _____ _____    ______ ____

>  <TORSDO>
F 5

$$$$
=
 OpenBabel11052412553D

 31 34  0  0  1  0  0  0  0  0999 V2000
  185.3740  179.0770  145.9720 C   0  0  0  0  0  0  0  0  0  0  0  0
  186.6180  178.3090  142.4930 C   0  0  0  0  0  0  0  0  0  0  0  0
  187.9470  177.7120  142.5090 C   0  0  2  0  0  3  0  0  0  0  0  0
  189.3670  176.0410  143.6470 C   0  0  0  0  0  3  0  0  0  0  0  0
  185.7150  178.5080  143.6480 C   0  0  0  0  0  0  0  0  0  0  0  0
  184.0320  178.9250  145.8110 N   0  0  0  0  0  0  0  0  0  0  0  0
  188.7410  177.3920  143.7290 C   0  0  0  0  0  2  0  0  0  0  0  0
  183.7850  178.7990  141.0700 C   0  0  1  0  0  3  0  0  0  0  0  0
  186.0210  179.5120  147.5400 Cl  0  0  0  0  0  0  0  0  0  0  0  0
  187.4620  178.3440  140.3260 C   0  0  0  0  0  3  0  0  0  0  0  0
  190.1810  175.6460  142.6650 C   0  0  0  0  0  3  0  0  0  0  0  0
  183.7210  177.8140  142.2430 C   0  0  0  0  0  2  0  0  0  0  0  0
  186.3320  178.6630  141.2450 C   0  0  0  0  0  0  0  0  0  0  0  0
  186.2370  178.8740  144.8930 C   0  0  0  0  0  3  0  0  0  0  0  0
  190.5130  176.4150  141.4960 N   0  0  0  0  0  0  0  0  0  0  0  0
  184.3210  178.3460  143.5100 C   0  0  0  0  0  0  0  0  0  0  0  0
  183.4960  178.5620  144.6140 C   0  0  0  0  0  3  0  0  0  0  0  0
  185.1390  179.4880  140.8560 C   0  0  0  0  0  2  0  0  0  0  0  0
  188.4340  177.7210  141.2760 C   0  0  0  0  0  0  0  0  0  0  0  0
  189.7860  177.2990  140.8740 C   0  0  0  0  0  3  0  0  0  0  0  0
  183.3540  178.1000  139.7910 C   0  0  0  0  0  2  0  0  0  0  0  0
  182.6590  178.2960  137.0730 O   0  0  0  0  0  0  0  0  0  0  0  0
  181.1380  179.0080  140.2020 O   0  0  0  0  0  1  0  0  0  0  0  0
  182.0940  178.6530  139.3100 N   0  0  0  0  0  0  0  0  0  0  0  0
  181.8350  178.7630  137.9080 C   0  0  0  0  0  0  0  0  0  0  0  0
  179.9200  178.5780  136.5320 O   0  0  0  0  0  1  0  0  0  0  0  0
  180.5770  179.4240  137.4250 C   0  0  2  0  0  3  0  0  0  0  0  0
  180.8720  180.7570  136.7400 C   0  0  0  0  0  2  0  0  0  0  0  0
  180.6090  181.9150  137.6510 C   0  0  0  0  0  0  0  0  0  0  0  0
  180.9680  183.2940  137.2150 C   0  0  0  0  0  1  0  0  0  0  0  0
  180.1110  181.7360  138.7520 O   0  0  0  0  0  0  0  0  0  0  0  0
  1  9  1  0  0  0  0
  2  3  1  0  0  0  0
  2  5  1  0  0  0  0
  3  7  1  1  0  0  0
  4  7  1  0  0  0  0
  5 14  1  0  0  0  0
  6  1  1  0  0  0  0
  8 21  1  6  0  0  0
  8 12  1  0  0  0  0
 10 13  1  0  0  0  0
 10 19  2  0  0  0  0
 11  4  2  0  0  0  0
 12 16  1  0  0  0  0
 13  2  2  0  0  0  0
 14  1  2  0  0  0  0
 15 11  1  0  0  0  0
 16  5  2  0  0  0  0
 16 17  1  0  0  0  0
 17  6  2  0  0  0  0
 18  8  1  0  0  0  0
 18 13  1  0  0  0  0
 19  3  1  0  0  0  0
 20 19  1  0  0  0  0
 20 15  2  0  0  0  0
 22 25  2  0  0  0  0
 24 21  1  0  0  0  0
 24 23  1  0  0  0  0
 25 24  1  0  0  0  0
 27 26  1  6  0  0  0
 27 25  1  0  0  0  0
 28 27  1  0  0  0  0
 28 29  1  0  0  0  0
 29 31  2  0  0  0  0
 30 29  1  0  0  0  0
M  END
>  <MODEL>
5

>  <REMARK>
 VINA RESULT:      -7.3      4.981      7.363
  Name = 
  5 active torsions:
  status: ('A' for Active; 'I' for Inactive)
    1  A    between atoms: C_1  and  C_24
    2  A    between atoms: N_9  and  C_23
    3  A    between atoms: C_15  and  C_23
    4  A    between atoms: C_19  and  C_22
    5  A    between atoms: C_19  and  C_24
                            x       y       z     vdW  Elec       q    Type
                         _______ _______ _______ _____ _____    ______ ____

>  <TORSDO>
F 5

$$$$
=
 OpenBabel11052412553D

 31 34  0  0  1  0  0  0  0  0999 V2000
  193.1510  176.5560  137.3350 C   0  0  0  0  0  0  0  0  0  0  0  0
  189.4000  176.5670  137.7550 C   0  0  0  0  0  0  0  0  0  0  0  0
  188.7390  175.7270  136.7660 C   0  0  0  0  0  0  0  0  0  0  0  0
  188.8470  173.5430  135.6140 C   0  0  0  0  0  3  0  0  0  0  0  0
  190.8470  176.6140  138.0630 C   0  0  0  0  0  0  0  0  0  0  0  0
  193.5590  176.7400  138.6190 N   0  0  0  0  0  0  0  0  0  0  0  0
  189.4220  174.9150  135.7190 C   0  0  0  0  0  2  0  0  0  0  0  0
  189.4440  178.0230  140.6130 C   0  0  1  0  0  3  0  0  0  0  0  0
  194.3370  176.3830  136.0580 Cl  0  0  0  0  0  0  0  0  0  0  0  0
  187.1240  177.0410  137.7980 C   0  0  0  0  0  3  0  0  0  0  0  0
  187.5580  173.2820  135.3820 C   0  0  0  0  0  3  0  0  0  0  0  0
  190.3400  176.7800  140.5420 C   0  0  0  0  0  2  0  0  0  0  0  0
  188.4800  177.3130  138.3550 C   0  0  2  0  0  3  0  0  0  0  0  0
  191.7890  176.4930  137.0360 C   0  0  0  0  0  3  0  0  0  0  0  0
  186.5130  174.2650  135.2830 N   0  0  0  0  0  0  0  0  0  0  0  0
  191.2960  176.7930  139.3870 C   0  0  0  0  0  0  0  0  0  0  0  0
  192.6670  176.8530  139.6410 C   0  0  0  0  0  3  0  0  0  0  0  0
  188.7910  178.4450  139.2910 C   0  0  0  0  0  2  0  0  0  0  0  0
  187.4390  175.9850  136.7870 C   0  0  0  0  0  0  0  0  0  0  0  0
  186.4280  175.4220  135.8770 C   0  0  0  0  0  3  0  0  0  0  0  0
  188.3760  177.8220  141.6750 C   0  0  0  0  0  2  0  0  0  0  0  0
  187.5450  176.4180  143.9670 O   0  0  0  0  0  0  0  0  0  0  0  0
  189.9930  178.8610  143.1620 O   0  0  0  0  0  1  0  0  0  0  0  0
  188.9380  178.0260  143.0050 N   0  0  0  0  0  0  0  0  0  0  0  0
  188.4260  177.3060  144.1300 C   0  0  0  0  0  0  0  0  0  0  0  0
  190.2110  177.0300  145.6580 O   0  0  0  0  0  1  0  0  0  0  0  0
  188.9450  177.5990  145.5080 C   0  0  2  0  0  3  0  0  0  0  0  0
  188.0110  177.0530  146.5870 C   0  0  0  0  0  2  0  0  0  0  0  0
  187.3780  178.1540  147.3770 C   0  0  0  0  0  0  0  0  0  0  0  0
  186.0530  178.6940  146.9620 C   0  0  0  0  0  1  0  0  0  0  0  0
  187.9440  178.6190  148.3550 O   0  0  0  0  0  0  0  0  0  0  0  0
  1  6  1  0  0  0  0
  2  5  1  0  0  0  0
  2 13  1  0  0  0  0
  3 19  1  0  0  0  0
  3  2  2  0  0  0  0
  4  7  1  0  0  0  0
  5 16  2  0  0  0  0
  6 17  2  0  0  0  0
  7  3  1  0  0  0  0
  8 21  1  1  0  0  0
  9  1  1  0  0  0  0
 11  4  2  0  0  0  0
 12  8  1  0  0  0  0
 13 10  1  6  0  0  0
 13 18  1  0  0  0  0
 14  1  2  0  0  0  0
 14  5  1  0  0  0  0
 15 11  1  0  0  0  0
 15 20  2  0  0  0  0
 16 17  1  0  0  0  0
 16 12  1  0  0  0  0
 18  8  1  0  0  0  0
 19 10  2  0  0  0  0
 20 19  1  0  0  0  0
 21 24  1  0  0  0  0
 22 25  2  0  0  0  0
 24 23  1  0  0  0  0
 24 25  1  0  0  0  0
 25 27  1  0  0  0  0
 27 26  1  6  0  0  0
 27 28  1  0  0  0  0
 28 29  1  0  0  0  0
 29 31  2  0  0  0  0
 30 29  1  0  0  0  0
M  END
>  <MODEL>
6

>  <REMARK>
 VINA RESULT:      -7.3      3.958      8.644
  Name = 
  5 active torsions:
  status: ('A' for Active; 'I' for Inactive)
    1  A    between atoms: C_1  and  C_24
    2  A    between atoms: N_9  and  C_23
    3  A    between atoms: C_15  and  C_23
    4  A    between atoms: C_19  and  C_22
    5  A    between atoms: C_19  and  C_24
                            x       y       z     vdW  Elec       q    Type
                         _______ _______ _______ _____ _____    ______ ____

>  <TORSDO>
F 5

$$$$
=
 OpenBabel11052412553D

 31 34  0  0  1  0  0  0  0  0999 V2000
  185.4120  179.1550  146.0160 C   0  0  0  0  0  0  0  0  0  0  0  0
  186.6850  178.2930  142.5690 C   0  0  0  0  0  0  0  0  0  0  0  0
  188.0120  177.6930  142.6130 C   0  0  2  0  0  3  0  0  0  0  0  0
  189.4170  176.0490  143.8080 C   0  0  0  0  0  3  0  0  0  0  0  0
  185.7710  178.5250  143.7110 C   0  0  0  0  0  0  0  0  0  0  0  0
  184.0710  179.0030  145.8470 N   0  0  0  0  0  0  0  0  0  0  0  0
  188.7940  177.4030  143.8480 C   0  0  0  0  0  2  0  0  0  0  0  0
  183.8660  178.7530  141.1090 C   0  0  1  0  0  3  0  0  0  0  0  0
  186.0460  179.6300  147.5780 Cl  0  0  0  0  0  0  0  0  0  0  0  0
  187.5480  178.2690  140.4100 C   0  0  0  0  0  3  0  0  0  0  0  0
  190.2380  175.6260  142.8440 C   0  0  0  0  0  3  0  0  0  0  0  0
  183.7890  177.7990  142.3070 C   0  0  0  0  0  2  0  0  0  0  0  0
  186.4110  178.6150  141.3110 C   0  0  0  0  0  0  0  0  0  0  0  0
  186.2840  178.9210  144.9510 C   0  0  0  0  0  3  0  0  0  0  0  0
  190.5820  176.3630  141.6580 N   0  0  0  0  0  0  0  0  0  0  0  0
  184.3790  178.3630  143.5640 C   0  0  0  0  0  0  0  0  0  0  0  0
  183.5450  178.6100  144.6550 C   0  0  0  0  0  3  0  0  0  0  0  0
  185.2240  179.4320  140.8890 C   0  0  0  0  0  2  0  0  0  0  0  0
  188.5090  177.6690  141.3840 C   0  0  0  0  0  0  0  0  0  0  0  0
  189.8640  177.2330  141.0060 C   0  0  0  0  0  3  0  0  0  0  0  0
  183.4450  178.0210  139.8450 C   0  0  0  0  0  2  0  0  0  0  0  0
  184.4170  176.2350  137.9020 O   0  0  0  0  0  0  0  0  0  0  0  0
  184.5560  179.7300  138.5200 O   0  0  0  0  0  1  0  0  0  0  0  0
  184.2890  178.4170  138.7240 N   0  0  0  0  0  0  0  0  0  0  0  0
  184.7840  177.4390  137.8050 C   0  0  0  0  0  0  0  0  0  0  0  0
  185.1950  177.4930  135.4760 O   0  0  0  0  0  1  0  0  0  0  0  0
  185.7320  177.8450  136.7150 C   0  0  2  0  0  3  0  0  0  0  0  0
  187.0980  177.1810  136.8830 C   0  0  0  0  0  2  0  0  0  0  0  0
  188.1900  178.1950  137.0280 C   0  0  0  0  0  0  0  0  0  0  0  0
  189.5890  177.7440  137.2670 C   0  0  0  0  0  1  0  0  0  0  0  0
  187.9390  179.3880  136.9590 O   0  0  0  0  0  0  0  0  0  0  0  0
  1  9  1  0  0  0  0
  2  3  1  0  0  0  0
  2  5  1  0  0  0  0
  3  7  1  1  0  0  0
  4  7  1  0  0  0  0
  5 14  1  0  0  0  0
  6  1  1  0  0  0  0
  8 21  1  6  0  0  0
  8 12  1  0  0  0  0
 10 13  1  0  0  0  0
 10 19  2  0  0  0  0
 11  4  2  0  0  0  0
 12 16  1  0  0  0  0
 13  2  2  0  0  0  0
 14  1  2  0  0  0  0
 15 11  1  0  0  0  0
 16  5  2  0  0  0  0
 16 17  1  0  0  0  0
 17  6  2  0  0  0  0
 18  8  1  0  0  0  0
 18 13  1  0  0  0  0
 19  3  1  0  0  0  0
 20 19  1  0  0  0  0
 20 15  2  0  0  0  0
 23 24  1  0  0  0  0
 24 21  1  0  0  0  0
 25 22  2  0  0  0  0
 25 24  1  0  0  0  0
 27 26  1  6  0  0  0
 27 28  1  0  0  0  0
 27 25  1  0  0  0  0
 28 29  1  0  0  0  0
 29 30  1  0  0  0  0
 31 29  2  0  0  0  0
M  END
>  <MODEL>
7

>  <REMARK>
 VINA RESULT:      -7.3      2.813      5.412
  Name = 
  5 active torsions:
  status: ('A' for Active; 'I' for Inactive)
    1  A    between atoms: C_1  and  C_24
    2  A    between atoms: N_9  and  C_23
    3  A    between atoms: C_15  and  C_23
    4  A    between atoms: C_19  and  C_22
    5  A    between atoms: C_19  and  C_24
                            x       y       z     vdW  Elec       q    Type
                         _______ _______ _______ _____ _____    ______ ____

>  <TORSDO>
F 5

$$$$
=
 OpenBabel11052412553D

 31 34  0  0  1  0  0  0  0  0999 V2000
  185.2870  179.1490  145.9090 C   0  0  0  0  0  0  0  0  0  0  0  0
  186.6320  178.2990  142.4870 C   0  0  0  0  0  0  0  0  0  0  0  0
  187.9570  177.6970  142.5570 C   0  0  2  0  0  3  0  0  0  0  0  0
  189.3330  176.0450  143.7750 C   0  0  0  0  0  3  0  0  0  0  0  0
  185.6950  178.5280  143.6100 C   0  0  0  0  0  0  0  0  0  0  0  0
  183.9500  179.0000  145.7100 N   0  0  0  0  0  0  0  0  0  0  0  0
  188.7120  177.4000  143.8070 C   0  0  0  0  0  2  0  0  0  0  0  0
  183.8470  178.7710  140.9680 C   0  0  1  0  0  3  0  0  0  0  0  0
  185.8880  179.6160  147.4860 Cl  0  0  0  0  0  0  0  0  0  0  0  0
  187.5420  178.2830  140.3470 C   0  0  0  0  0  3  0  0  0  0  0  0
  190.1740  175.6240  142.8270 C   0  0  0  0  0  3  0  0  0  0  0  0
  183.7420  177.8110  142.1600 C   0  0  0  0  0  2  0  0  0  0  0  0
  186.3860  178.6270  141.2240 C   0  0  0  0  0  0  0  0  0  0  0  0
  186.1810  178.9180  144.8620 C   0  0  0  0  0  3  0  0  0  0  0  0
  190.5460  176.3660  141.6520 N   0  0  0  0  0  0  0  0  0  0  0  0
  184.3060  178.3690  143.4320 C   0  0  0  0  0  0  0  0  0  0  0  0
  183.4480  178.6130  144.5050 C   0  0  0  0  0  3  0  0  0  0  0  0
  185.2100  179.4480  140.7810 C   0  0  0  0  0  2  0  0  0  0  0  0
  188.4810  177.6770  141.3390 C   0  0  0  0  0  0  0  0  0  0  0  0
  189.8430  177.2400  140.9890 C   0  0  0  0  0  3  0  0  0  0  0  0
  183.4520  178.0450  139.6920 C   0  0  0  0  0  2  0  0  0  0  0  0
  182.4260  175.4360  139.4620 O   0  0  0  0  0  0  0  0  0  0  0  0
  181.1270  178.7040  139.9550 O   0  0  0  0  0  1  0  0  0  0  0  0
  182.0290  177.7230  139.7110 N   0  0  0  0  0  0  0  0  0  0  0  0
  181.5860  176.3740  139.5390 C   0  0  0  0  0  0  0  0  0  0  0  0
  179.6500  175.7130  140.7260 O   0  0  0  0  0  1  0  0  0  0  0  0
  180.1180  176.0710  139.4610 C   0  0  2  0  0  3  0  0  0  0  0  0
  179.8310  174.9400  138.4750 C   0  0  0  0  0  2  0  0  0  0  0  0
  179.6990  175.4510  137.0740 C   0  0  0  0  0  0  0  0  0  0  0  0
  179.7900  174.5020  135.9300 C   0  0  0  0  0  1  0  0  0  0  0  0
  179.5250  176.6420  136.8630 O   0  0  0  0  0  0  0  0  0  0  0  0
  1  9  1  0  0  0  0
  2  3  1  0  0  0  0
  2  5  1  0  0  0  0
  3  7  1  1  0  0  0
  4  7  1  0  0  0  0
  5 14  1  0  0  0  0
  6  1  1  0  0  0  0
  8 21  1  6  0  0  0
  8 12  1  0  0  0  0
 10 13  1  0  0  0  0
 10 19  2  0  0  0  0
 11  4  2  0  0  0  0
 12 16  1  0  0  0  0
 13  2  2  0  0  0  0
 14  1  2  0  0  0  0
 15 11  1  0  0  0  0
 16  5  2  0  0  0  0
 16 17  1  0  0  0  0
 17  6  2  0  0  0  0
 18  8  1  0  0  0  0
 18 13  1  0  0  0  0
 19  3  1  0  0  0  0
 20 19  1  0  0  0  0
 20 15  2  0  0  0  0
 21 24  1  0  0  0  0
 22 25  2  0  0  0  0
 24 23  1  0  0  0  0
 25 24  1  0  0  0  0
 27 25  1  0  0  0  0
 27 26  1  1  0  0  0
 28 27  1  0  0  0  0
 29 28  1  0  0  0  0
 30 29  1  0  0  0  0
 31 29  2  0  0  0  0
M  END
>  <MODEL>
8

>  <REMARK>
 VINA RESULT:      -7.1      4.987      7.281
  Name = 
  5 active torsions:
  status: ('A' for Active; 'I' for Inactive)
    1  A    between atoms: C_1  and  C_24
    2  A    between atoms: N_9  and  C_23
    3  A    between atoms: C_15  and  C_23
    4  A    between atoms: C_19  and  C_22
    5  A    between atoms: C_19  and  C_24
                            x       y       z     vdW  Elec       q    Type
                         _______ _______ _______ _____ _____    ______ ____

>  <TORSDO>
F 5

$$$$
=
 OpenBabel11052412553D

 31 34  0  0  1  0  0  0  0  0999 V2000
  183.1320  178.4300  141.9760 C   0  0  0  0  0  0  0  0  0  0  0  0
  186.6530  177.7080  143.1300 C   0  0  0  0  0  0  0  0  0  0  0  0
  187.5870  177.6320  142.0140 C   0  0  0  0  0  0  0  0  0  0  0  0
  188.2440  178.7090  139.8890 C   0  0  0  0  0  3  0  0  0  0  0  0
  185.2620  178.2150  143.0980 C   0  0  0  0  0  0  0  0  0  0  0  0
  182.6440  179.1220  143.0400 N   0  0  0  0  0  0  0  0  0  0  0  0
  187.2440  177.8430  140.5790 C   0  0  0  0  0  2  0  0  0  0  0  0
  186.0360  178.2120  146.2370 C   0  0  1  0  0  3  0  0  0  0  0  0
  182.1130  178.1380  140.5820 Cl  0  0  0  0  0  0  0  0  0  0  0  0
  188.6420  176.7850  143.9020 C   0  0  0  0  0  3  0  0  0  0  0  0
  189.5530  178.4530  139.8360 C   0  0  0  0  0  3  0  0  0  0  0  0
  185.6040  179.3700  145.3290 C   0  0  0  0  0  2  0  0  0  0  0  0
  187.2540  177.2330  144.2140 C   0  0  2  0  0  3  0  0  0  0  0  0
  184.4480  177.9630  141.9890 C   0  0  0  0  0  3  0  0  0  0  0  0
  190.2180  177.3630  140.4990 N   0  0  0  0  0  0  0  0  0  0  0  0
  184.7360  178.9440  144.1830 C   0  0  0  0  0  0  0  0  0  0  0  0
  183.4150  179.3900  144.1300 C   0  0  0  0  0  3  0  0  0  0  0  0
  186.5560  176.9630  145.5150 C   0  0  0  0  0  2  0  0  0  0  0  0
  188.7270  177.1130  142.4470 C   0  0  0  0  0  0  0  0  0  0  0  0
  189.8960  176.7770  141.6180 C   0  0  0  0  0  3  0  0  0  0  0  0
  187.0760  178.7040  147.2310 C   0  0  0  0  0  2  0  0  0  0  0  0
  189.7090  178.9930  146.2850 O   0  0  0  0  0  0  0  0  0  0  0  0
  187.8680  176.6020  148.1590 O   0  0  0  0  0  1  0  0  0  0  0  0
  188.1200  177.7020  147.4100 N   0  0  0  0  0  0  0  0  0  0  0  0
  189.4240  177.9030  146.8550 C   0  0  0  0  0  0  0  0  0  0  0  0
  191.1360  176.9440  148.1750 O   0  0  0  0  0  1  0  0  0  0  0  0
  190.4590  176.8220  146.9610 C   0  0  2  0  0  3  0  0  0  0  0  0
  191.4620  176.8910  145.8100 C   0  0  0  0  0  2  0  0  0  0  0  0
  192.0420  175.5460  145.5020 C   0  0  0  0  0  0  0  0  0  0  0  0
  191.9510  175.0030  144.1190 C   0  0  0  0  0  1  0  0  0  0  0  0
  192.5810  174.8900  146.3790 O   0  0  0  0  0  0  0  0  0  0  0  0
  1 14  2  0  0  0  0
  1  6  1  0  0  0  0
  2 13  1  0  0  0  0
  3 19  1  0  0  0  0
  3  2  2  0  0  0  0
  4  7  1  0  0  0  0
  5  2  1  0  0  0  0
  5 16  2  0  0  0  0
  6 17  2  0  0  0  0
  7  3  1  0  0  0  0
  8 21  1  1  0  0  0
  9  1  1  0  0  0  0
 11  4  2  0  0  0  0
 11 15  1  0  0  0  0
 12  8  1  0  0  0  0
 13 10  1  6  0  0  0
 13 18  1  0  0  0  0
 14  5  1  0  0  0  0
 15 20  2  0  0  0  0
 16 12  1  0  0  0  0
 17 16  1  0  0  0  0
 18  8  1  0  0  0  0
 19 10  2  0  0  0  0
 20 19  1  0  0  0  0
 21 24  1  0  0  0  0
 22 25  2  0  0  0  0
 24 23  1  0  0  0  0
 25 27  1  0  0  0  0
 25 24  1  0  0  0  0
 27 26  1  1  0  0  0
 28 27  1  0  0  0  0
 29 28  1  0  0  0  0
 29 31  2  0  0  0  0
 30 29  1  0  0  0  0
M  END
>  <MODEL>
9

>  <REMARK>
 VINA RESULT:      -7.0      4.470      7.781
  Name = 
  5 active torsions:
  status: ('A' for Active; 'I' for Inactive)
    1  A    between atoms: C_1  and  C_24
    2  A    between atoms: N_9  and  C_23
    3  A    between atoms: C_15  and  C_23
    4  A    between atoms: C_19  and  C_22
    5  A    between atoms: C_19  and  C_24
                            x       y       z     vdW  Elec       q    Type
                         _______ _______ _______ _____ _____    ______ ____

>  <TORSDO>
F 5

$$$$
