=
 OpenBabel11052414133D

 34 38  0  0  1  0  0  0  0  0999 V2000
  182.9490  178.9840  143.5960 C   0  0  0  0  0  0  0  0  0  0  0  0
  183.2450  178.2890  141.2300 C   0  0  0  0  0  3  0  0  0  0  0  0
  185.2340  178.6140  142.6880 N   0  0  0  0  0  0  0  0  0  0  0  0
  187.6920  178.4180  142.0870 C   0  0  2  0  0  3  0  0  0  0  0  0
  181.0130  178.6590  142.1790 C   0  0  0  0  0  3  0  0  0  0  0  0
  181.3920  177.5740  140.0150 F   0  0  0  0  0  0  0  0  0  0  0  0
  185.9770  178.9440  140.4810 O   0  0  0  0  0  0  0  0  0  0  0  0
  183.8560  179.0390  142.3870 C   0  0  2  0  0  3  0  0  0  0  0  0
  181.4960  179.0240  143.3710 C   0  0  0  0  0  3  0  0  0  0  0  0
  185.6840  178.5040  144.0540 C   0  0  0  0  0  0  0  0  0  0  0  0
  183.4220  178.8780  144.7990 N   0  0  0  0  0  0  0  0  0  0  0  0
  181.9160  178.1850  141.1050 C   0  0  0  0  0  0  0  0  0  0  0  0
  187.7400  177.5930  143.2300 O   0  0  0  0  0  0  0  0  0  0  0  0
  187.1710  178.3080  144.3040 C   0  0  2  0  0  3  0  0  0  0  0  0
  186.2570  178.6390  141.6720 C   0  0  0  0  0  0  0  0  0  0  0  0
  184.8180  178.6880  145.0560 C   0  0  0  0  0  3  0  0  0  0  0  0
  189.3400  176.9770  147.2010 C   0  0  0  0  0  0  0  0  0  0  0  0
  188.5220  177.3800  148.3940 C   0  0  0  0  0  2  0  0  0  0  0  0
  187.5270  177.6020  145.6180 C   0  0  1  0  0  3  0  0  0  0  0  0
  187.5410  178.4920  148.0290 C   0  0  0  0  0  2  0  0  0  0  0  0
  189.0410  177.5510  145.8490 C   0  0  0  0  0  2  0  0  0  0  0  0
  186.6920  178.1040  146.8160 C   0  0  0  0  0  2  0  0  0  0  0  0
  190.2650  176.1940  147.3380 O   0  0  0  0  0  0  0  0  0  0  0  0
  188.4910  177.7730  140.9650 C   0  0  0  0  0  2  0  0  0  0  0  0
  189.5670  176.8670  141.5410 C   0  0  0  0  0  2  0  0  0  0  0  0
  190.7290  177.1320  139.4680 C   0  0  0  0  0  3  0  0  0  0  0  0
  190.4360  176.3810  140.4810 N   0  0  0  0  0  0  0  0  0  0  0  0
  193.6190  177.1030  139.4580 O   0  0  0  0  0  0  0  0  0  0  0  0
  191.6030  176.6750  138.3740 C   0  0  2  0  0  3  0  0  0  0  0  0
  193.0150  176.6880  138.4340 C   0  0  0  0  0  0  0  0  0  0  0  0
  193.1500  175.7860  136.2370 C   0  0  0  0  0  3  0  0  0  0  0  0
  191.7590  175.7570  136.1370 C   0  0  0  0  0  3  0  0  0  0  0  0
  190.9890  176.2040  137.2100 C   0  0  0  0  0  3  0  0  0  0  0  0
  193.7410  176.2460  137.3720 N   0  0  0  0  0  0  0  0  0  0  0  0
  1 11  2  0  0  0  0
  3 10  1  0  0  0  0
  4 24  1  6  0  0  0
  4 13  1  0  0  0  0
  5  9  2  0  0  0  0
  6 12  1  0  0  0  0
  7 15  2  0  0  0  0
  8  2  1  6  0  0  0
  8  3  1  0  0  0  0
  8  1  1  0  0  0  0
  9  1  1  0  0  0  0
 10 14  1  0  0  0  0
 10 16  2  0  0  0  0
 11 16  1  0  0  0  0
 12  2  2  0  0  0  0
 12  5  1  0  0  0  0
 14 13  1  6  0  0  0
 14 19  1  0  0  0  0
 15  4  1  0  0  0  0
 15  3  1  0  0  0  0
 17 23  2  0  0  0  0
 17 18  1  0  0  0  0
 19 21  1  1  0  0  0
 19 22  1  0  0  0  0
 20 18  1  0  0  0  0
 21 17  1  0  0  0  0
 22 20  1  0  0  0  0
 24 25  1  0  0  0  0
 26 27  2  0  0  0  0
 27 25  1  0  0  0  0
 29 30  1  0  0  0  0
 29 26  1  6  0  0  0
 30 28  2  0  0  0  0
 31 34  2  0  0  0  0
 32 31  1  0  0  0  0
 32 33  2  0  0  0  0
 33 29  1  0  0  0  0
 34 30  1  0  0  0  0
M  END
>  <MODEL>
1

>  <REMARK>
 VINA RESULT:     -10.3      0.000      0.000
  Name = 
  5 active torsions:
  status: ('A' for Active; 'I' for Inactive)
    1  A    between atoms: C_3  and  C_13
    2  A    between atoms: C_5  and  C_18
    3  A    between atoms: C_12  and  C_28
    4  A    between atoms: N_17  and  C_29
    5  A    between atoms: C_18  and  C_29
                            x       y       z     vdW  Elec       q    Type
                         _______ _______ _______ _____ _____    ______ ____

>  <TORSDO>
F 5

$$$$
=
 OpenBabel11052414133D

 34 38  0  0  1  0  0  0  0  0999 V2000
  181.2750  178.8100  143.0610 C   0  0  0  0  0  0  0  0  0  0  0  0
  181.6260  178.0510  140.7210 C   0  0  0  0  0  3  0  0  0  0  0  0
  183.5780  178.6830  142.1290 N   0  0  0  0  0  0  0  0  0  0  0  0
  186.0330  178.7630  141.4940 C   0  0  2  0  0  3  0  0  0  0  0  0
  179.3780  178.1870  141.6940 C   0  0  0  0  0  3  0  0  0  0  0  0
  179.8610  177.0600  139.5720 F   0  0  0  0  0  0  0  0  0  0  0  0
  184.2470  179.0020  139.8980 O   0  0  0  0  0  0  0  0  0  0  0  0
  182.1540  178.9210  141.8350 C   0  0  2  0  0  3  0  0  0  0  0  0
  179.8260  178.6610  142.8600 C   0  0  0  0  0  3  0  0  0  0  0  0
  184.0540  178.6900  143.4900 C   0  0  0  0  0  0  0  0  0  0  0  0
  181.7720  178.8160  144.2590 N   0  0  0  0  0  0  0  0  0  0  0  0
  180.3190  177.7790  140.6250 C   0  0  0  0  0  0  0  0  0  0  0  0
  186.1970  178.0020  142.6710 O   0  0  0  0  0  0  0  0  0  0  0  0
  185.5570  178.6890  143.7230 C   0  0  2  0  0  3  0  0  0  0  0  0
  184.5770  178.7880  141.0960 C   0  0  0  0  0  0  0  0  0  0  0  0
  183.1840  178.8110  144.4990 C   0  0  0  0  0  3  0  0  0  0  0  0
  187.9490  177.5100  146.5080 C   0  0  0  0  0  0  0  0  0  0  0  0
  187.2850  178.0760  147.7290 C   0  0  0  0  0  2  0  0  0  0  0  0
  186.0130  178.0920  145.0600 C   0  0  1  0  0  3  0  0  0  0  0  0
  186.3310  179.2080  147.3530 C   0  0  0  0  0  2  0  0  0  0  0  0
  187.5390  177.9680  145.1410 C   0  0  0  0  0  2  0  0  0  0  0  0
  185.3390  178.7590  146.2780 C   0  0  0  0  0  2  0  0  0  0  0  0
  188.8410  176.6870  146.6300 O   0  0  0  0  0  0  0  0  0  0  0  0
  186.8920  178.1710  140.3870 C   0  0  0  0  0  2  0  0  0  0  0  0
  188.3270  178.6570  140.5200 C   0  0  0  0  0  2  0  0  0  0  0  0
  190.1500  177.9050  141.8730 C   0  0  0  0  0  3  0  0  0  0  0  0
  188.8950  178.2090  141.7810 N   0  0  0  0  0  0  0  0  0  0  0  0
  191.0530  179.5590  144.0630 O   0  0  0  0  0  0  0  0  0  0  0  0
  190.7620  177.4450  143.1310 C   0  0  1  0  0  3  0  0  0  0  0  0
  191.1830  178.3110  144.1660 C   0  0  0  0  0  0  0  0  0  0  0  0
  191.9070  176.4560  145.4670 C   0  0  0  0  0  3  0  0  0  0  0  0
  191.5040  175.5670  144.4700 C   0  0  0  0  0  3  0  0  0  0  0  0
  190.9310  176.0690  143.3020 C   0  0  0  0  0  3  0  0  0  0  0  0
  191.7390  177.7940  145.2950 N   0  0  0  0  0  0  0  0  0  0  0  0
  1 11  2  0  0  0  0
  3 10  1  0  0  0  0
  4 24  1  6  0  0  0
  4 13  1  0  0  0  0
  5  9  2  0  0  0  0
  6 12  1  0  0  0  0
  7 15  2  0  0  0  0
  8  2  1  6  0  0  0
  8  3  1  0  0  0  0
  8  1  1  0  0  0  0
  9  1  1  0  0  0  0
 10 14  1  0  0  0  0
 10 16  2  0  0  0  0
 11 16  1  0  0  0  0
 12  2  2  0  0  0  0
 12  5  1  0  0  0  0
 14 13  1  6  0  0  0
 14 19  1  0  0  0  0
 15  4  1  0  0  0  0
 15  3  1  0  0  0  0
 17 23  2  0  0  0  0
 17 18  1  0  0  0  0
 19 21  1  1  0  0  0
 19 22  1  0  0  0  0
 20 18  1  0  0  0  0
 21 17  1  0  0  0  0
 22 20  1  0  0  0  0
 24 25  1  0  0  0  0
 25 27  1  0  0  0  0
 27 26  2  0  0  0  0
 28 30  2  0  0  0  0
 29 26  1  1  0  0  0
 29 33  1  0  0  0  0
 29 30  1  0  0  0  0
 30 34  1  0  0  0  0
 32 31  1  0  0  0  0
 33 32  2  0  0  0  0
 34 31  2  0  0  0  0
M  END
>  <MODEL>
2

>  <REMARK>
 VINA RESULT:     -10.0      2.876      3.640
  Name = 
  5 active torsions:
  status: ('A' for Active; 'I' for Inactive)
    1  A    between atoms: C_3  and  C_13
    2  A    between atoms: C_5  and  C_18
    3  A    between atoms: C_12  and  C_28
    4  A    between atoms: N_17  and  C_29
    5  A    between atoms: C_18  and  C_29
                            x       y       z     vdW  Elec       q    Type
                         _______ _______ _______ _____ _____    ______ ____

>  <TORSDO>
F 5

$$$$
=
 OpenBabel11052414133D

 34 38  0  0  1  0  0  0  0  0999 V2000
  189.6570  176.6950  141.1160 C   0  0  0  0  0  0  0  0  0  0  0  0
  188.3400  178.5600  140.1360 C   0  0  0  0  0  3  0  0  0  0  0  0
  187.6770  177.5880  142.3280 N   0  0  0  0  0  0  0  0  0  0  0  0
  185.6860  178.1760  143.7880 C   0  0  2  0  0  3  0  0  0  0  0  0
  190.3070  177.6470  138.9880 C   0  0  0  0  0  3  0  0  0  0  0  0
  189.2110  179.7360  138.3250 F   0  0  0  0  0  0  0  0  0  0  0  0
  185.7240  178.5200  141.4050 O   0  0  0  0  0  0  0  0  0  0  0  0
  188.2890  177.3330  141.0130 C   0  0  0  0  0  0  0  0  0  0  0  0
  190.5230  176.7220  139.9280 C   0  0  0  0  0  2  0  0  0  0  0  0
  188.2110  176.9690  143.5150 C   0  0  0  0  0  0  0  0  0  0  0  0
  190.0780  176.1610  142.2210 N   0  0  0  0  0  0  0  0  0  0  0  0
  189.2370  178.6590  139.1470 C   0  0  0  0  0  0  0  0  0  0  0  0
  186.6610  178.2630  144.8030 O   0  0  0  0  0  0  0  0  0  0  0  0
  187.4000  177.0620  144.7980 C   0  0  2  0  0  3  0  0  0  0  0  0
  186.3540  178.1520  142.4340 C   0  0  0  0  0  0  0  0  0  0  0  0
  189.3310  176.2420  143.4400 C   0  0  0  0  0  3  0  0  0  0  0  0
  190.3630  177.4940  147.2280 C   0  0  0  0  0  0  0  0  0  0  0  0
  189.6650  177.9840  148.4630 C   0  0  0  0  0  2  0  0  0  0  0  0
  188.2120  176.9700  146.0960 C   0  0  1  0  0  3  0  0  0  0  0  0
  188.2890  178.5510  148.1210 C   0  0  0  0  0  2  0  0  0  0  0  0
  189.6470  177.4740  145.9110 C   0  0  0  0  0  2  0  0  0  0  0  0
  187.4620  177.5450  147.3170 C   0  0  0  0  0  2  0  0  0  0  0  0
  191.5250  177.1300  147.2930 O   0  0  0  0  0  0  0  0  0  0  0  0
  184.7300  179.3530  143.9030 C   0  0  0  0  0  2  0  0  0  0  0  0
  183.5480  178.9850  144.7860 C   0  0  0  0  0  2  0  0  0  0  0  0
  182.3570  179.1100  142.7170 C   0  0  0  0  0  3  0  0  0  0  0  0
  182.3470  178.8350  143.9810 N   0  0  0  0  0  0  0  0  0  0  0  0
  180.0170  180.8050  142.7400 O   0  0  0  0  0  0  0  0  0  0  0  0
  181.1600  178.9740  141.8680 C   0  0  2  0  0  3  0  0  0  0  0  0
  180.0460  179.8400  141.9310 C   0  0  0  0  0  0  0  0  0  0  0  0
  178.9530  178.6130  140.2110 C   0  0  0  0  0  3  0  0  0  0  0  0
  180.0330  177.7350  140.1180 C   0  0  0  0  0  3  0  0  0  0  0  0
  181.1360  177.9200  140.9510 C   0  0  0  0  0  3  0  0  0  0  0  0
  178.9830  179.6360  141.1060 N   0  0  0  0  0  0  0  0  0  0  0  0
  1 11  2  0  0  0  0
  2  8  2  0  0  0  0
  3 15  1  0  0  0  0
  3 10  1  0  0  0  0
  4 24  1  6  0  0  0
  4 13  1  0  0  0  0
  5 12  2  0  0  0  0
  5  9  1  0  0  0  0
  6 12  1  0  0  0  0
  7 15  2  0  0  0  0
  8  1  1  0  0  0  0
  8  3  1  0  0  0  0
  9  1  1  0  0  0  0
 11 16  1  0  0  0  0
 12  2  1  0  0  0  0
 14 10  1  6  0  0  0
 14 13  1  0  0  0  0
 14 19  1  0  0  0  0
 15  4  1  0  0  0  0
 16 10  2  0  0  0  0
 17 23  2  0  0  0  0
 17 18  1  0  0  0  0
 19 21  1  6  0  0  0
 19 22  1  0  0  0  0
 20 18  1  0  0  0  0
 21 17  1  0  0  0  0
 22 20  1  0  0  0  0
 24 25  1  0  0  0  0
 26 27  2  0  0  0  0
 27 25  1  0  0  0  0
 29 30  1  0  0  0  0
 29 26  1  1  0  0  0
 30 28  2  0  0  0  0
 31 34  2  0  0  0  0
 32 31  1  0  0  0  0
 32 33  2  0  0  0  0
 33 29  1  0  0  0  0
 34 30  1  0  0  0  0
M  END
>  <MODEL>
3

>  <REMARK>
 VINA RESULT:      -9.9      2.786      7.800
  Name = 
  5 active torsions:
  status: ('A' for Active; 'I' for Inactive)
    1  A    between atoms: C_3  and  C_13
    2  A    between atoms: C_5  and  C_18
    3  A    between atoms: C_12  and  C_28
    4  A    between atoms: N_17  and  C_29
    5  A    between atoms: C_18  and  C_29
                            x       y       z     vdW  Elec       q    Type
                         _______ _______ _______ _____ _____    ______ ____

>  <TORSDO>
F 5

$$$$
=
 OpenBabel11052414133D

 34 38  0  0  1  0  0  0  0  0999 V2000
  184.1040  178.8870  144.0280 C   0  0  0  0  0  0  0  0  0  0  0  0
  183.9050  178.3310  141.6150 C   0  0  0  0  0  3  0  0  0  0  0  0
  186.1520  178.5050  142.6690 N   0  0  0  0  0  0  0  0  0  0  0  0
  188.4360  178.2720  141.5870 C   0  0  2  0  0  3  0  0  0  0  0  0
  181.9180  178.7100  143.0030 C   0  0  0  0  0  3  0  0  0  0  0  0
  181.8230  177.7490  140.7510 F   0  0  0  0  0  0  0  0  0  0  0  0
  186.4650  178.9480  140.3810 O   0  0  0  0  0  0  0  0  0  0  0  0
  184.7610  178.9890  142.6690 C   0  0  2  0  0  3  0  0  0  0  0  0
  182.6390  178.9850  144.0950 C   0  0  0  0  0  3  0  0  0  0  0  0
  186.8540  178.2980  143.9120 C   0  0  0  0  0  0  0  0  0  0  0  0
  184.7970  178.6930  145.1070 N   0  0  0  0  0  0  0  0  0  0  0  0
  182.5750  178.2760  141.7480 C   0  0  0  0  0  0  0  0  0  0  0  0
  188.6710  177.3770  142.6510 O   0  0  0  0  0  0  0  0  0  0  0  0
  188.3510  178.0410  143.8530 C   0  0  2  0  0  3  0  0  0  0  0  0
  186.9580  178.5620  141.4750 C   0  0  0  0  0  0  0  0  0  0  0  0
  186.2080  178.4450  145.0730 C   0  0  0  0  0  3  0  0  0  0  0  0
  190.9610  176.6820  146.3470 C   0  0  0  0  0  0  0  0  0  0  0  0
  190.2370  176.8440  147.6520 C   0  0  0  0  0  2  0  0  0  0  0  0
  188.9270  177.2450  145.0310 C   0  0  1  0  0  3  0  0  0  0  0  0
  189.1020  177.8580  147.5210 C   0  0  0  0  0  2  0  0  0  0  0  0
  190.4530  177.3590  145.1100 C   0  0  0  0  0  2  0  0  0  0  0  0
  188.1760  177.5030  146.3560 C   0  0  0  0  0  2  0  0  0  0  0  0
  191.9780  176.0110  146.2980 O   0  0  0  0  0  0  0  0  0  0  0  0
  188.9730  177.6740  140.2960 C   0  0  0  0  0  2  0  0  0  0  0  0
  190.2360  176.8750  140.5740 C   0  0  0  0  0  2  0  0  0  0  0  0
  191.6350  176.3270  138.7140 C   0  0  0  0  0  3  0  0  0  0  0  0
  190.5830  176.0630  139.4200 N   0  0  0  0  0  0  0  0  0  0  0  0
  193.9280  176.7510  137.0070 O   0  0  0  0  0  0  0  0  0  0  0  0
  192.0170  175.5300  137.5360 C   0  0  2  0  0  3  0  0  0  0  0  0
  193.1560  175.7930  136.7410 C   0  0  0  0  0  0  0  0  0  0  0  0
  192.6370  173.9500  135.3290 C   0  0  0  0  0  3  0  0  0  0  0  0
  191.5030  173.6570  136.0870 C   0  0  0  0  0  3  0  0  0  0  0  0
  191.1980  174.4520  137.1910 C   0  0  0  0  0  3  0  0  0  0  0  0
  193.4300  175.0000  135.6700 N   0  0  0  0  0  0  0  0  0  0  0  0
  1  9  1  0  0  0  0
  1 11  2  0  0  0  0
  2 12  2  0  0  0  0
  3  8  1  0  0  0  0
  3 10  1  0  0  0  0
  4 24  1  6  0  0  0
  4 13  1  0  0  0  0
  5  9  2  0  0  0  0
  6 12  1  0  0  0  0
  7 15  2  0  0  0  0
  8  2  1  6  0  0  0
  8  1  1  0  0  0  0
 10 16  2  0  0  0  0
 12  5  1  0  0  0  0
 14 13  1  6  0  0  0
 14 10  1  0  0  0  0
 14 19  1  0  0  0  0
 15  4  1  0  0  0  0
 15  3  1  0  0  0  0
 16 11  1  0  0  0  0
 17 18  1  0  0  0  0
 19 21  1  1  0  0  0
 19 22  1  0  0  0  0
 20 18  1  0  0  0  0
 21 17  1  0  0  0  0
 22 20  1  0  0  0  0
 23 17  2  0  0  0  0
 24 25  1  0  0  0  0
 26 27  2  0  0  0  0
 27 25  1  0  0  0  0
 29 26  1  6  0  0  0
 30 28  2  0  0  0  0
 30 29  1  0  0  0  0
 31 34  2  0  0  0  0
 31 32  1  0  0  0  0
 32 33  2  0  0  0  0
 33 29  1  0  0  0  0
 34 30  1  0  0  0  0
M  END
>  <MODEL>
4

>  <REMARK>
 VINA RESULT:      -9.6      1.284      1.485
  Name = 
  5 active torsions:
  status: ('A' for Active; 'I' for Inactive)
    1  A    between atoms: C_3  and  C_13
    2  A    between atoms: C_5  and  C_18
    3  A    between atoms: C_12  and  C_28
    4  A    between atoms: N_17  and  C_29
    5  A    between atoms: C_18  and  C_29
                            x       y       z     vdW  Elec       q    Type
                         _______ _______ _______ _____ _____    ______ ____

>  <TORSDO>
F 5

$$$$
=
 OpenBabel11052414133D

 34 38  0  0  1  0  0  0  0  0999 V2000
  190.1640  177.4540  143.9200 C   0  0  0  0  0  0  0  0  0  0  0  0
  187.6910  177.6580  143.8150 C   0  0  0  0  0  3  0  0  0  0  0  0
  189.0370  177.7710  141.7260 N   0  0  0  0  0  0  0  0  0  0  0  0
  188.2470  178.1710  139.3480 C   0  0  2  0  0  3  0  0  0  0  0  0
  188.8530  177.3360  145.9510 C   0  0  0  0  0  3  0  0  0  0  0  0
  186.4260  177.1210  145.6940 F   0  0  0  0  0  0  0  0  0  0  0  0
  187.0450  178.9410  141.2860 O   0  0  0  0  0  0  0  0  0  0  0  0
  188.9960  178.0550  143.1700 C   0  0  2  0  0  3  0  0  0  0  0  0
  190.0630  177.3440  145.3820 C   0  0  0  0  0  3  0  0  0  0  0  0
  190.2440  177.2740  141.1130 C   0  0  0  0  0  0  0  0  0  0  0  0
  191.2190  177.0200  143.3030 N   0  0  0  0  0  0  0  0  0  0  0  0
  187.6240  177.4000  145.1270 C   0  0  0  0  0  0  0  0  0  0  0  0
  189.0200  177.0250  139.0690 O   0  0  0  0  0  0  0  0  0  0  0  0
  190.3120  177.2360  139.5940 C   0  0  2  0  0  3  0  0  0  0  0  0
  188.0310  178.2960  140.8370 C   0  0  0  0  0  0  0  0  0  0  0  0
  191.3010  176.9710  141.8740 C   0  0  0  0  0  3  0  0  0  0  0  0
  191.6340  174.5030  137.2160 C   0  0  0  0  0  0  0  0  0  0  0  0
  193.0390  174.9730  136.9760 C   0  0  0  0  0  2  0  0  0  0  0  0
  191.2670  176.1900  139.0060 C   0  0  1  0  0  3  0  0  0  0  0  0
  193.1810  176.4560  137.3110 C   0  0  0  0  0  2  0  0  0  0  0  0
  190.6270  175.4170  137.8480 C   0  0  0  0  0  2  0  0  0  0  0  0
  192.6770  176.7530  138.7260 C   0  0  0  0  0  2  0  0  0  0  0  0
  191.3050  173.3780  136.8770 O   0  0  0  0  0  0  0  0  0  0  0  0
  186.9200  178.0770  138.6100 C   0  0  0  0  0  2  0  0  0  0  0  0
  187.1520  177.6780  137.1620 C   0  0  0  0  0  2  0  0  0  0  0  0
  186.8200  175.3100  137.1340 C   0  0  0  0  0  3  0  0  0  0  0  0
  186.3800  176.4900  136.8370 N   0  0  0  0  0  0  0  0  0  0  0  0
  187.4300  173.3920  135.0610 O   0  0  0  0  0  0  0  0  0  0  0  0
  186.0690  174.0830  136.8190 C   0  0  2  0  0  3  0  0  0  0  0  0
  186.4220  173.1850  135.7870 C   0  0  0  0  0  0  0  0  0  0  0  0
  184.5670  171.7940  136.3180 C   0  0  0  0  0  3  0  0  0  0  0  0
  184.1830  172.6550  137.3460 C   0  0  0  0  0  3  0  0  0  0  0  0
  184.9400  173.8010  137.5920 C   0  0  0  0  0  3  0  0  0  0  0  0
  185.6660  172.0740  135.5690 N   0  0  0  0  0  0  0  0  0  0  0  0
  1  9  1  0  0  0  0
  2 12  2  0  0  0  0
  3  8  1  0  0  0  0
  4 24  1  6  0  0  0
  4 15  1  0  0  0  0
  8  2  1  1  0  0  0
  8  1  1  0  0  0  0
  9  5  2  0  0  0  0
 10  3  1  0  0  0  0
 10 16  2  0  0  0  0
 11  1  2  0  0  0  0
 12  6  1  0  0  0  0
 12  5  1  0  0  0  0
 13  4  1  0  0  0  0
 14 13  1  6  0  0  0
 14 10  1  0  0  0  0
 15  7  2  0  0  0  0
 15  3  1  0  0  0  0
 16 11  1  0  0  0  0
 17 21  1  0  0  0  0
 18 17  1  0  0  0  0
 18 20  1  0  0  0  0
 19 21  1  6  0  0  0
 19 14  1  0  0  0  0
 20 22  1  0  0  0  0
 22 19  1  0  0  0  0
 23 17  2  0  0  0  0
 25 24  1  0  0  0  0
 27 26  2  0  0  0  0
 27 25  1  0  0  0  0
 28 30  2  0  0  0  0
 29 26  1  6  0  0  0
 29 33  1  0  0  0  0
 30 29  1  0  0  0  0
 31 32  1  0  0  0  0
 32 33  2  0  0  0  0
 34 30  1  0  0  0  0
 34 31  2  0  0  0  0
M  END
>  <MODEL>
5

>  <REMARK>
 VINA RESULT:      -9.5      4.010      7.530
  Name = 
  5 active torsions:
  status: ('A' for Active; 'I' for Inactive)
    1  A    between atoms: C_3  and  C_13
    2  A    between atoms: C_5  and  C_18
    3  A    between atoms: C_12  and  C_28
    4  A    between atoms: N_17  and  C_29
    5  A    between atoms: C_18  and  C_29
                            x       y       z     vdW  Elec       q    Type
                         _______ _______ _______ _____ _____    ______ ____

>  <TORSDO>
F 5

$$$$
=
 OpenBabel11052414133D

 34 38  0  0  1  0  0  0  0  0999 V2000
  187.8730  178.3310  138.0520 C   0  0  0  0  0  0  0  0  0  0  0  0
  188.7250  177.4990  140.2330 C   0  0  0  0  0  3  0  0  0  0  0  0
  186.4270  178.4390  140.0720 N   0  0  0  0  0  0  0  0  0  0  0  0
  184.7210  178.7860  141.9190 C   0  0  2  0  0  3  0  0  0  0  0  0
  190.1060  177.4090  138.2070 C   0  0  0  0  0  3  0  0  0  0  0  0
  190.6820  176.2400  140.2820 F   0  0  0  0  0  0  0  0  0  0  0  0
  187.0960  178.7210  142.3090 O   0  0  0  0  0  0  0  0  0  0  0  0
  187.8050  178.4850  139.5550 C   0  0  0  0  0  0  0  0  0  0  0  0
  189.1720  177.9950  137.4510 C   0  0  0  0  0  2  0  0  0  0  0  0
  185.3050  178.5760  139.1760 C   0  0  0  0  0  0  0  0  0  0  0  0
  186.8210  178.4620  137.3050 N   0  0  0  0  0  0  0  0  0  0  0  0
  189.8340  177.0650  139.6220 C   0  0  0  0  0  0  0  0  0  0  0  0
  183.8580  178.1140  141.0290 O   0  0  0  0  0  0  0  0  0  0  0  0
  183.9250  178.7720  139.7830 C   0  0  2  0  0  3  0  0  0  0  0  0
  186.1550  178.6110  141.4770 C   0  0  0  0  0  0  0  0  0  0  0  0
  185.5120  178.6420  137.8570 C   0  0  0  0  0  3  0  0  0  0  0  0
  180.6680  176.9550  138.8010 C   0  0  0  0  0  0  0  0  0  0  0  0
  179.9270  178.0430  138.0790 C   0  0  0  0  0  2  0  0  0  0  0  0
  182.7530  178.3060  138.9100 C   0  0  1  0  0  3  0  0  0  0  0  0
  180.4800  179.4170  138.4520 C   0  0  0  0  0  2  0  0  0  0  0  0
  181.8710  177.2810  139.6320 C   0  0  0  0  0  2  0  0  0  0  0  0
  181.9960  179.4760  138.2450 C   0  0  0  0  0  2  0  0  0  0  0  0
  180.2760  175.8020  138.7260 O   0  0  0  0  0  0  0  0  0  0  0  0
  184.5140  178.2470  143.3260 C   0  0  0  0  0  2  0  0  0  0  0  0
  184.5460  179.3850  144.3340 C   0  0  0  0  0  2  0  0  0  0  0  0
  186.2160  178.0830  145.4430 C   0  0  0  0  0  3  0  0  0  0  0  0
  185.6920  179.2450  145.2160 N   0  0  0  0  0  0  0  0  0  0  0  0
  188.8160  177.0600  144.7070 O   0  0  0  0  0  0  0  0  0  0  0  0
  187.3760  177.8990  146.3320 C   0  0  2  0  0  3  0  0  0  0  0  0
  188.6240  177.3920  145.9060 C   0  0  0  0  0  0  0  0  0  0  0  0
  189.4970  177.5960  148.1090 C   0  0  0  0  0  3  0  0  0  0  0  0
  188.2810  178.1010  148.5710 C   0  0  0  0  0  3  0  0  0  0  0  0
  187.2220  178.2500  147.6760 C   0  0  0  0  0  3  0  0  0  0  0  0
  189.6400  177.2570  146.8010 N   0  0  0  0  0  0  0  0  0  0  0  0
  1  8  1  0  0  0  0
  3 15  1  0  0  0  0
  4 24  1  1  0  0  0
  5 12  2  0  0  0  0
  8  3  1  0  0  0  0
  8  2  2  0  0  0  0
  9  1  1  0  0  0  0
  9  5  1  0  0  0  0
 10  3  1  0  0  0  0
 11 16  1  0  0  0  0
 11  1  2  0  0  0  0
 12  2  1  0  0  0  0
 12  6  1  0  0  0  0
 13  4  1  0  0  0  0
 14 10  1  6  0  0  0
 14 13  1  0  0  0  0
 15  4  1  0  0  0  0
 15  7  2  0  0  0  0
 16 10  2  0  0  0  0
 17 21  1  0  0  0  0
 18 20  1  0  0  0  0
 18 17  1  0  0  0  0
 19 22  1  1  0  0  0
 19 21  1  0  0  0  0
 19 14  1  0  0  0  0
 22 20  1  0  0  0  0
 23 17  2  0  0  0  0
 24 25  1  0  0  0  0
 25 27  1  0  0  0  0
 27 26  2  0  0  0  0
 28 30  2  0  0  0  0
 29 26  1  1  0  0  0
 29 33  1  0  0  0  0
 30 29  1  0  0  0  0
 30 34  1  0  0  0  0
 31 32  1  0  0  0  0
 33 32  2  0  0  0  0
 34 31  2  0  0  0  0
M  END
>  <MODEL>
6

>  <REMARK>
 VINA RESULT:      -9.4      3.122      8.611
  Name = 
  5 active torsions:
  status: ('A' for Active; 'I' for Inactive)
    1  A    between atoms: C_3  and  C_13
    2  A    between atoms: C_5  and  C_18
    3  A    between atoms: C_12  and  C_28
    4  A    between atoms: N_17  and  C_29
    5  A    between atoms: C_18  and  C_29
                            x       y       z     vdW  Elec       q    Type
                         _______ _______ _______ _____ _____    ______ ____

>  <TORSDO>
F 5

$$$$
=
 OpenBabel11052414133D

 34 38  0  0  1  0  0  0  0  0999 V2000
  185.4110  177.7220  137.3450 C   0  0  0  0  0  0  0  0  0  0  0  0
  187.7150  176.8040  137.1970 C   0  0  0  0  0  3  0  0  0  0  0  0
  186.9940  178.0300  139.2380 N   0  0  0  0  0  0  0  0  0  0  0  0
  188.3500  178.6090  141.3040 C   0  0  2  0  0  3  0  0  0  0  0  0
  186.1100  176.5210  135.3630 C   0  0  0  0  0  3  0  0  0  0  0  0
  188.2330  175.3040  135.4940 F   0  0  0  0  0  0  0  0  0  0  0  0
  189.3340  178.2410  139.1380 O   0  0  0  0  0  0  0  0  0  0  0  0
  186.8500  177.8950  137.7780 C   0  0  0  0  0  0  0  0  0  0  0  0
  185.1550  177.2170  135.9880 C   0  0  0  0  0  2  0  0  0  0  0  0
  185.8440  178.3040  140.0640 C   0  0  0  0  0  0  0  0  0  0  0  0
  184.4230  177.9810  138.1430 N   0  0  0  0  0  0  0  0  0  0  0  0
  187.3980  176.2260  136.0320 C   0  0  0  0  0  0  0  0  0  0  0  0
  187.2510  178.0470  141.9860 O   0  0  0  0  0  0  0  0  0  0  0  0
  186.0810  178.6810  141.5180 C   0  0  2  0  0  3  0  0  0  0  0  0
  188.2860  178.2470  139.8390 C   0  0  0  0  0  0  0  0  0  0  0  0
  184.6240  178.3320  139.5170 C   0  0  0  0  0  3  0  0  0  0  0  0
  183.7120  179.0270  144.5410 C   0  0  0  0  0  0  0  0  0  0  0  0
  182.3720  178.8290  143.8930 C   0  0  0  0  0  2  0  0  0  0  0  0
  184.9250  178.3630  142.4740 C   0  0  1  0  0  3  0  0  0  0  0  0
  182.4560  179.0740  142.3870 C   0  0  0  0  0  2  0  0  0  0  0  0
  184.9290  179.2780  143.7030 C   0  0  0  0  0  2  0  0  0  0  0  0
  183.5660  178.2320  141.7520 C   0  0  0  0  0  2  0  0  0  0  0  0
  183.8060  179.0030  145.7570 O   0  0  0  0  0  0  0  0  0  0  0  0
  189.6420  178.1120  141.9330 C   0  0  0  0  0  2  0  0  0  0  0  0
  189.4530  176.7060  142.4790 C   0  0  0  0  0  2  0  0  0  0  0  0
  189.4330  177.6060  144.6940 C   0  0  0  0  0  3  0  0  0  0  0  0
  188.9510  176.7590  143.8430 N   0  0  0  0  0  0  0  0  0  0  0  0
  190.9770  177.1270  147.0900 O   0  0  0  0  0  0  0  0  0  0  0  0
  188.9530  177.6890  146.0850 C   0  0  2  0  0  3  0  0  0  0  0  0
  189.7640  177.4410  147.2150 C   0  0  0  0  0  0  0  0  0  0  0  0
  187.9310  177.8770  148.6670 C   0  0  0  0  0  3  0  0  0  0  0  0
  187.0960  178.1290  147.5780 C   0  0  0  0  0  3  0  0  0  0  0  0
  187.6140  178.0340  146.2860 C   0  0  0  0  0  3  0  0  0  0  0  0
  189.2330  177.5430  148.4640 N   0  0  0  0  0  0  0  0  0  0  0  0
  1  8  1  0  0  0  0
  1 11  2  0  0  0  0
  2  8  2  0  0  0  0
  3 15  1  0  0  0  0
  3 10  1  0  0  0  0
  4 24  1  1  0  0  0
  4 13  1  0  0  0  0
  5  9  1  0  0  0  0
  5 12  2  0  0  0  0
  6 12  1  0  0  0  0
  7 15  2  0  0  0  0
  8  3  1  0  0  0  0
  9  1  1  0  0  0  0
 11 16  1  0  0  0  0
 12  2  1  0  0  0  0
 14 10  1  6  0  0  0
 14 13  1  0  0  0  0
 14 19  1  0  0  0  0
 15  4  1  0  0  0  0
 16 10  2  0  0  0  0
 17 23  2  0  0  0  0
 18 17  1  0  0  0  0
 19 22  1  6  0  0  0
 19 21  1  0  0  0  0
 20 18  1  0  0  0  0
 21 17  1  0  0  0  0
 22 20  1  0  0  0  0
 24 25  1  0  0  0  0
 25 27  1  0  0  0  0
 27 26  2  0  0  0  0
 28 30  2  0  0  0  0
 29 26  1  6  0  0  0
 29 33  1  0  0  0  0
 29 30  1  0  0  0  0
 30 34  1  0  0  0  0
 32 31  1  0  0  0  0
 33 32  2  0  0  0  0
 34 31  2  0  0  0  0
M  END
>  <MODEL>
7

>  <REMARK>
 VINA RESULT:      -9.4      3.228      7.035
  Name = 
  5 active torsions:
  status: ('A' for Active; 'I' for Inactive)
    1  A    between atoms: C_3  and  C_13
    2  A    between atoms: C_5  and  C_18
    3  A    between atoms: C_12  and  C_28
    4  A    between atoms: N_17  and  C_29
    5  A    between atoms: C_18  and  C_29
                            x       y       z     vdW  Elec       q    Type
                         _______ _______ _______ _____ _____    ______ ____

>  <TORSDO>
F 5

$$$$
=
 OpenBabel11052414133D

 34 38  0  0  1  0  0  0  0  0999 V2000
  187.1890  177.8190  137.5940 C   0  0  0  0  0  0  0  0  0  0  0  0
  188.6850  177.3820  139.5280 C   0  0  0  0  0  3  0  0  0  0  0  0
  186.4540  178.4200  139.8930 N   0  0  0  0  0  0  0  0  0  0  0  0
  185.4190  179.2390  142.0600 C   0  0  2  0  0  3  0  0  0  0  0  0
  189.3560  176.8010  137.2410 C   0  0  0  0  0  3  0  0  0  0  0  0
  190.5590  176.0320  139.2320 F   0  0  0  0  0  0  0  0  0  0  0  0
  187.7960  179.0960  141.7020 O   0  0  0  0  0  0  0  0  0  0  0  0
  187.5980  178.2720  138.9770 C   0  0  0  0  0  0  0  0  0  0  0  0
  188.2310  177.2860  136.7050 C   0  0  0  0  0  2  0  0  0  0  0  0
  185.1070  178.4510  139.3790 C   0  0  0  0  0  0  0  0  0  0  0  0
  185.9540  177.8670  137.1990 N   0  0  0  0  0  0  0  0  0  0  0  0
  189.5450  176.7630  138.7100 C   0  0  0  0  0  0  0  0  0  0  0  0
  184.3200  178.4620  141.6420 O   0  0  0  0  0  0  0  0  0  0  0  0
  183.9890  178.8530  140.3280 C   0  0  2  0  0  3  0  0  0  0  0  0
  186.6400  178.8860  141.2440 C   0  0  0  0  0  0  0  0  0  0  0  0
  184.8860  178.2390  138.0770 C   0  0  0  0  0  3  0  0  0  0  0  0
  181.1620  176.2800  139.8180 C   0  0  0  0  0  0  0  0  0  0  0  0
  180.0050  176.9760  140.4740 C   0  0  0  0  0  2  0  0  0  0  0  0
  182.6010  178.3020  139.9770 C   0  0  1  0  0  3  0  0  0  0  0  0
  180.4950  178.0610  141.4310 C   0  0  0  0  0  2  0  0  0  0  0  0
  182.5620  176.7710  140.0340 C   0  0  0  0  0  2  0  0  0  0  0  0
  181.4600  179.0200  140.7310 C   0  0  0  0  0  2  0  0  0  0  0  0
  180.9630  175.2980  139.1230 O   0  0  0  0  0  0  0  0  0  0  0  0
  185.6680  179.0050  143.5430 C   0  0  0  0  0  2  0  0  0  0  0  0
  185.6570  177.5150  143.8470 C   0  0  0  0  0  2  0  0  0  0  0  0
  187.6640  177.8620  145.1000 C   0  0  0  0  0  3  0  0  0  0  0  0
  186.9600  177.0920  144.3330 N   0  0  0  0  0  0  0  0  0  0  0  0
  188.3370  177.1800  147.8260 O   0  0  0  0  0  0  0  0  0  0  0  0
  188.9900  177.4700  145.6100 C   0  0  2  0  0  3  0  0  0  0  0  0
  189.2520  177.1480  146.9610 C   0  0  0  0  0  0  0  0  0  0  0  0
  191.5400  176.7430  146.4550 C   0  0  0  0  0  3  0  0  0  0  0  0
  191.3250  177.0530  145.1120 C   0  0  0  0  0  3  0  0  0  0  0  0
  190.0450  177.4170  144.6950 C   0  0  0  0  0  3  0  0  0  0  0  0
  190.5100  176.7970  147.3400 N   0  0  0  0  0  0  0  0  0  0  0  0
  1  8  1  0  0  0  0
  3 15  1  0  0  0  0
  4 24  1  1  0  0  0
  5 12  2  0  0  0  0
  8  2  2  0  0  0  0
  8  3  1  0  0  0  0
  9  5  1  0  0  0  0
  9  1  1  0  0  0  0
 10  3  1  0  0  0  0
 11  1  2  0  0  0  0
 11 16  1  0  0  0  0
 12  6  1  0  0  0  0
 12  2  1  0  0  0  0
 13  4  1  0  0  0  0
 14 10  1  6  0  0  0
 14 13  1  0  0  0  0
 15  7  2  0  0  0  0
 15  4  1  0  0  0  0
 16 10  2  0  0  0  0
 17 21  1  0  0  0  0
 17 18  1  0  0  0  0
 18 20  1  0  0  0  0
 19 21  1  1  0  0  0
 19 14  1  0  0  0  0
 19 22  1  0  0  0  0
 22 20  1  0  0  0  0
 23 17  2  0  0  0  0
 24 25  1  0  0  0  0
 25 27  1  0  0  0  0
 27 26  2  0  0  0  0
 29 26  1  1  0  0  0
 29 30  1  0  0  0  0
 30 34  1  0  0  0  0
 30 28  2  0  0  0  0
 31 34  2  0  0  0  0
 32 31  1  0  0  0  0
 33 32  2  0  0  0  0
 33 29  1  0  0  0  0
M  END
>  <MODEL>
8

>  <REMARK>
 VINA RESULT:      -9.4      3.183      7.802
  Name = 
  5 active torsions:
  status: ('A' for Active; 'I' for Inactive)
    1  A    between atoms: C_3  and  C_13
    2  A    between atoms: C_5  and  C_18
    3  A    between atoms: C_12  and  C_28
    4  A    between atoms: N_17  and  C_29
    5  A    between atoms: C_18  and  C_29
                            x       y       z     vdW  Elec       q    Type
                         _______ _______ _______ _____ _____    ______ ____

>  <TORSDO>
F 5

$$$$
=
 OpenBabel11052414133D

 34 38  0  0  1  0  0  0  0  0999 V2000
  187.0950  177.5540  146.8160 C   0  0  0  0  0  0  0  0  0  0  0  0
  189.5560  177.8840  146.8930 C   0  0  0  0  0  3  0  0  0  0  0  0
  188.4200  177.5100  144.7120 N   0  0  0  0  0  0  0  0  0  0  0  0
  189.4470  177.3160  142.4000 C   0  0  2  0  0  3  0  0  0  0  0  0
  188.2000  177.9250  148.9380 C   0  0  0  0  0  3  0  0  0  0  0  0
  190.5370  178.6560  148.8580 F   0  0  0  0  0  0  0  0  0  0  0  0
  190.6420  176.7980  144.4250 O   0  0  0  0  0  0  0  0  0  0  0  0
  188.4160  177.2250  146.1570 C   0  0  2  0  0  3  0  0  0  0  0  0
  187.0640  177.6660  148.2820 C   0  0  0  0  0  3  0  0  0  0  0  0
  187.1820  177.7450  144.0100 C   0  0  0  0  0  0  0  0  0  0  0  0
  186.0190  177.7600  146.1220 N   0  0  0  0  0  0  0  0  0  0  0  0
  189.4700  178.1350  148.2050 C   0  0  0  0  0  0  0  0  0  0  0  0
  188.4690  178.2730  142.0600 O   0  0  0  0  0  0  0  0  0  0  0  0
  187.2180  177.7850  142.4900 C   0  0  2  0  0  3  0  0  0  0  0  0
  189.5760  177.2220  143.9020 C   0  0  0  0  0  0  0  0  0  0  0  0
  186.0330  177.8060  144.6900 C   0  0  0  0  0  3  0  0  0  0  0  0
  184.8720  179.1050  139.7280 C   0  0  0  0  0  0  0  0  0  0  0  0
  183.5450  179.0800  140.4290 C   0  0  0  0  0  2  0  0  0  0  0  0
  186.1070  178.6110  141.8300 C   0  0  1  0  0  3  0  0  0  0  0  0
  183.5860  178.1460  141.6370 C   0  0  0  0  0  2  0  0  0  0  0  0
  186.0520  178.3890  140.3140 C   0  0  0  0  0  2  0  0  0  0  0  0
  184.7530  178.4940  142.5640 C   0  0  0  0  0  2  0  0  0  0  0  0
  184.9860  179.6940  138.6670 O   0  0  0  0  0  0  0  0  0  0  0  0
  190.7730  177.7000  141.7610 C   0  0  0  0  0  2  0  0  0  0  0  0
  191.0830  176.7730  140.5970 C   0  0  0  0  0  2  0  0  0  0  0  0
  189.7920  177.5760  138.7510 C   0  0  0  0  0  3  0  0  0  0  0  0
  189.9460  176.7020  139.6940 N   0  0  0  0  0  0  0  0  0  0  0  0
  188.7090  179.7980  137.2550 O   0  0  0  0  0  0  0  0  0  0  0  0
  188.6520  177.5390  137.8180 C   0  0  2  0  0  3  0  0  0  0  0  0
  188.1720  178.6670  137.1160 C   0  0  0  0  0  0  0  0  0  0  0  0
  186.4870  177.3460  136.0810 C   0  0  0  0  0  3  0  0  0  0  0  0
  186.9300  176.2080  136.7550 C   0  0  0  0  0  3  0  0  0  0  0  0
  188.0150  176.3110  137.6240 C   0  0  0  0  0  3  0  0  0  0  0  0
  187.1110  178.5380  136.2740 N   0  0  0  0  0  0  0  0  0  0  0  0
  1  9  1  0  0  0  0
  2 12  2  0  0  0  0
  3  8  1  0  0  0  0
  4 24  1  6  0  0  0
  4 15  1  0  0  0  0
  8  1  1  0  0  0  0
  8  2  1  1  0  0  0
  9  5  2  0  0  0  0
 10 16  2  0  0  0  0
 10  3  1  0  0  0  0
 11  1  2  0  0  0  0
 12  6  1  0  0  0  0
 12  5  1  0  0  0  0
 13  4  1  0  0  0  0
 14 13  1  1  0  0  0
 14 10  1  0  0  0  0
 15  7  2  0  0  0  0
 15  3  1  0  0  0  0
 16 11  1  0  0  0  0
 17 21  1  0  0  0  0
 17 18  1  0  0  0  0
 18 20  1  0  0  0  0
 19 21  1  6  0  0  0
 19 14  1  0  0  0  0
 19 22  1  0  0  0  0
 20 22  1  0  0  0  0
 23 17  2  0  0  0  0
 25 24  1  0  0  0  0
 26 27  2  0  0  0  0
 27 25  1  0  0  0  0
 29 26  1  1  0  0  0
 30 28  2  0  0  0  0
 30 29  1  0  0  0  0
 31 34  2  0  0  0  0
 31 32  1  0  0  0  0
 32 33  2  0  0  0  0
 33 29  1  0  0  0  0
 34 30  1  0  0  0  0
M  END
>  <MODEL>
9

>  <REMARK>
 VINA RESULT:      -9.4      3.233      6.197
  Name = 
  5 active torsions:
  status: ('A' for Active; 'I' for Inactive)
    1  A    between atoms: C_3  and  C_13
    2  A    between atoms: C_5  and  C_18
    3  A    between atoms: C_12  and  C_28
    4  A    between atoms: N_17  and  C_29
    5  A    between atoms: C_18  and  C_29
                            x       y       z     vdW  Elec       q    Type
                         _______ _______ _______ _____ _____    ______ ____

>  <TORSDO>
F 5

$$$$
