=
 OpenBabel11052413593D

 34 38  0  0  1  0  0  0  0  0999 V2000
  189.4630  177.4450  145.7170 C   0  0  2  0  0  3  0  0  0  0  0  0
  187.2580  178.2330  146.7010 C   0  0  1  0  0  3  0  0  0  0  0  0
  187.4750  177.9070  144.2040 C   0  0  1  0  0  3  0  0  0  0  0  0
  186.0020  179.2520  141.8970 C   0  0  0  0  0  2  0  0  0  0  0  0
  187.5450  177.7060  147.9610 O   0  0  0  0  0  1  0  0  0  0  0  0
  185.3550  178.7990  145.1610 C   0  0  0  0  0  2  0  0  0  0  0  0
  187.9280  177.3900  145.5920 C   0  0  1  0  0  3  0  0  0  0  0  0
  185.3410  178.1120  142.7030 C   0  0  1  0  0  3  0  0  0  0  0  0
  188.2280  177.2340  143.0270 C   0  0  1  0  0  3  0  0  0  0  0  0
  190.1260  176.7100  144.5580 C   0  0  0  0  0  2  0  0  0  0  0  0
  185.7400  178.2840  146.5390 C   0  0  0  0  0  2  0  0  0  0  0  0
  187.4150  179.1910  141.8150 O   0  0  0  0  0  0  0  0  0  0  0  0
  187.8030  177.8450  141.6700 C   0  0  1  0  0  3  0  0  0  0  0  0
  185.9340  177.8620  144.1070 C   0  0  1  0  0  3  0  0  0  0  0  0
  189.7350  177.3660  143.2490 C   0  0  0  0  0  2  0  0  0  0  0  0
  189.5650  178.2070  138.3110 C   0  0  0  0  0  0  0  0  0  0  0  0
  190.5960  177.2730  138.4470 C   0  0  0  0  0  3  0  0  0  0  0  0
  188.7610  177.6430  140.5300 C   0  0  0  0  0  0  0  0  0  0  0  0
  190.7120  176.5260  139.6230 C   0  0  0  0  0  3  0  0  0  0  0  0
  188.6510  178.3950  139.3510 C   0  0  0  0  0  3  0  0  0  0  0  0
  189.7970  176.7130  140.6640 C   0  0  0  0  0  3  0  0  0  0  0  0
  189.4540  178.9340  137.1730 F   0  0  0  0  0  0  0  0  0  0  0  0
  191.2710  176.7430  146.7910 C   0  0  0  0  0  1  0  0  0  0  0  0
  189.8840  176.8560  146.9140 O   0  0  0  0  0  0  0  0  0  0  0  0
  183.8230  178.2440  142.6890 C   0  0  0  0  0  2  0  0  0  0  0  0
  183.3600  178.8630  141.3840 C   0  0  0  0  0  2  0  0  0  0  0  0
  182.5830  177.8350  140.5860 C   0  0  0  0  0  2  0  0  0  0  0  0
  182.1750  175.4630  139.0880 O   0  0  0  0  0  0  0  0  0  0  0  0
  183.3600  177.4320  139.3760 C   0  0  2  0  0  3  0  0  0  0  0  0
  183.0960  176.2300  138.6980 C   0  0  0  0  0  0  0  0  0  0  0  0
  184.8440  176.6810  137.1530 C   0  0  0  0  0  3  0  0  0  0  0  0
  185.1420  177.8800  137.8020 C   0  0  0  0  0  3  0  0  0  0  0  0
  184.3960  178.2530  138.9210 C   0  0  0  0  0  3  0  0  0  0  0  0
  183.8370  175.8890  137.6100 N   0  0  0  0  0  0  0  0  0  0  0  0
  1 24  1  1  0  0  0
  2  5  1  1  0  0  0
  3  7  1  0  0  0  0
  4  8  1  0  0  0  0
  6 11  1  0  0  0  0
  7  1  1  0  0  0  0
  7  2  1  0  0  0  0
  8 14  1  0  0  0  0
  9 15  1  0  0  0  0
  9  3  1  0  0  0  0
 10  1  1  0  0  0  0
 11  2  1  0  0  0  0
 12  4  1  0  0  0  0
 13 12  1  0  0  0  0
 13  9  1  0  0  0  0
 14  3  1  0  0  0  0
 14  6  1  0  0  0  0
 15 10  1  0  0  0  0
 16 17  2  0  0  0  0
 16 20  1  0  0  0  0
 17 19  1  0  0  0  0
 18 21  1  0  0  0  0
 18 13  1  0  0  0  0
 19 21  2  0  0  0  0
 20 18  2  0  0  0  0
 22 16  1  0  0  0  0
 23 24  1  0  0  0  0
 25  8  1  0  0  0  0
 26 25  1  0  0  0  0
 27 26  1  0  0  0  0
 29 27  1  0  0  0  0
 30 28  2  0  0  0  0
 30 29  1  0  0  0  0
 31 34  2  0  0  0  0
 31 32  1  0  0  0  0
 32 33  2  0  0  0  0
 33 29  1  0  0  0  0
 34 30  1  0  0  0  0
M  END
>  <MODEL>
1

>  <REMARK>
 VINA RESULT:      -9.6      0.000      0.000
  Name = 
  6 active torsions:
  status: ('A' for Active; 'I' for Inactive)
    1  A    between atoms: C_1  and  O_19
    2  A    between atoms: C_3  and  C_13
    3  A    between atoms: C_3  and  C_17
    4  A    between atoms: C_12  and  C_28
    5  A    between atoms: C_17  and  C_29
    6  A    between atoms: C_18  and  C_29
                            x       y       z     vdW  Elec       q    Type
                         _______ _______ _______ _____ _____    ______ ____

>  <TORSDO>
F 6

$$$$
=
 OpenBabel11052413593D

 34 38  0  0  1  0  0  0  0  0999 V2000
  189.1540  177.6490  145.8620 C   0  0  2  0  0  3  0  0  0  0  0  0
  186.9020  178.4110  146.7560 C   0  0  1  0  0  3  0  0  0  0  0  0
  187.2040  178.0250  144.2760 C   0  0  1  0  0  3  0  0  0  0  0  0
  185.7750  179.2750  141.8900 C   0  0  0  0  0  2  0  0  0  0  0  0
  187.1610  177.9230  148.0370 O   0  0  0  0  0  1  0  0  0  0  0  0
  185.0360  178.8910  145.1430 C   0  0  0  0  0  2  0  0  0  0  0  0
  187.6250  177.5550  145.6900 C   0  0  1  0  0  3  0  0  0  0  0  0
  185.1140  178.1420  142.7050 C   0  0  1  0  0  3  0  0  0  0  0  0
  188.0090  177.3400  143.1410 C   0  0  1  0  0  3  0  0  0  0  0  0
  189.8690  176.9000  144.7430 C   0  0  0  0  0  2  0  0  0  0  0  0
  185.3890  178.4210  146.5460 C   0  0  0  0  0  2  0  0  0  0  0  0
  187.1910  179.2450  141.8530 O   0  0  0  0  0  0  0  0  0  0  0  0
  187.6130  177.9060  141.7550 C   0  0  1  0  0  3  0  0  0  0  0  0
  185.6690  177.9420  144.1330 C   0  0  1  0  0  3  0  0  0  0  0  0
  189.5050  177.5130  143.4060 C   0  0  0  0  0  2  0  0  0  0  0  0
  189.4800  178.2340  138.4510 C   0  0  0  0  0  0  0  0  0  0  0  0
  190.5180  177.3160  138.6370 C   0  0  0  0  0  3  0  0  0  0  0  0
  188.6100  177.6970  140.6520 C   0  0  0  0  0  0  0  0  0  0  0  0
  190.6050  176.5910  139.8290 C   0  0  0  0  0  3  0  0  0  0  0  0
  188.5300  178.4270  139.4570 C   0  0  0  0  0  3  0  0  0  0  0  0
  189.6540  176.7840  140.8360 C   0  0  0  0  0  3  0  0  0  0  0  0
  189.3980  178.9390  137.2970 F   0  0  0  0  0  0  0  0  0  0  0  0
  190.8980  176.7760  146.9150 C   0  0  0  0  0  1  0  0  0  0  0  0
  189.5510  177.1020  147.0860 O   0  0  0  0  0  0  0  0  0  0  0  0
  183.5950  178.2370  142.6410 C   0  0  0  0  0  2  0  0  0  0  0  0
  183.1500  178.6130  141.2410 C   0  0  0  0  0  2  0  0  0  0  0  0
  181.6640  178.9170  141.2490 C   0  0  0  0  0  2  0  0  0  0  0  0
  179.2320  178.0990  142.4530 O   0  0  0  0  0  0  0  0  0  0  0  0
  180.8900  177.6910  140.8890 C   0  0  0  0  0  0  0  0  0  0  0  0
  179.6950  177.3570  141.5460 C   0  0  0  0  0  0  0  0  0  0  0  0
  179.4880  175.3860  140.2330 C   0  0  0  0  0  3  0  0  0  0  0  0
  180.6750  175.6800  139.5600 C   0  0  0  0  0  2  0  0  0  0  0  0
  181.3780  176.8380  139.8940 C   0  0  0  0  0  3  0  0  0  0  0  0
  179.0270  176.2220  141.2020 N   0  0  0  0  0  0  0  0  0  0  0  0
  1 24  1  1  0  0  0
  2  5  1  1  0  0  0
  3  7  1  0  0  0  0
  4  8  1  0  0  0  0
  6 11  1  0  0  0  0
  7  1  1  0  0  0  0
  7  2  1  0  0  0  0
  8 14  1  0  0  0  0
  9 15  1  0  0  0  0
  9  3  1  0  0  0  0
 10  1  1  0  0  0  0
 11  2  1  0  0  0  0
 12  4  1  0  0  0  0
 13 12  1  0  0  0  0
 13  9  1  0  0  0  0
 14  3  1  0  0  0  0
 14  6  1  0  0  0  0
 15 10  1  0  0  0  0
 16 17  2  0  0  0  0
 16 20  1  0  0  0  0
 17 19  1  0  0  0  0
 18 21  1  0  0  0  0
 18 13  1  0  0  0  0
 19 21  2  0  0  0  0
 20 18  2  0  0  0  0
 22 16  1  0  0  0  0
 23 24  1  0  0  0  0
 25  8  1  0  0  0  0
 26 27  1  0  0  0  0
 26 25  1  0  0  0  0
 29 27  1  0  0  0  0
 29 30  1  0  0  0  0
 30 28  2  0  0  0  0
 31 34  2  0  0  0  0
 32 33  1  0  0  0  0
 32 31  1  0  0  0  0
 33 29  2  0  0  0  0
 34 30  1  0  0  0  0
M  END
>  <MODEL>
2

>  <REMARK>
 VINA RESULT:      -9.6      1.857      2.283
  Name = 
  6 active torsions:
  status: ('A' for Active; 'I' for Inactive)
    1  A    between atoms: C_1  and  O_19
    2  A    between atoms: C_3  and  C_13
    3  A    between atoms: C_3  and  C_17
    4  A    between atoms: C_12  and  C_28
    5  A    between atoms: C_17  and  C_29
    6  A    between atoms: C_18  and  C_29
                            x       y       z     vdW  Elec       q    Type
                         _______ _______ _______ _____ _____    ______ ____

>  <TORSDO>
F 6

$$$$
=
 OpenBabel11052413593D

 34 38  0  0  1  0  0  0  0  0999 V2000
  190.5720  177.1510  145.9180 C   0  0  2  0  0  3  0  0  0  0  0  0
  188.3610  177.9650  146.8680 C   0  0  1  0  0  3  0  0  0  0  0  0
  188.5930  177.5750  144.3810 C   0  0  1  0  0  3  0  0  0  0  0  0
  187.1350  178.8610  142.0310 C   0  0  0  0  0  2  0  0  0  0  0  0
  188.6390  177.4700  148.1420 O   0  0  0  0  0  1  0  0  0  0  0  0
  186.4680  178.4920  145.3020 C   0  0  0  0  0  2  0  0  0  0  0  0
  189.0370  177.0930  145.7850 C   0  0  1  0  0  3  0  0  0  0  0  0
  186.4680  177.7430  142.8620 C   0  0  1  0  0  3  0  0  0  0  0  0
  189.3530  176.8710  143.2260 C   0  0  1  0  0  3  0  0  0  0  0  0
  191.2410  176.3860  144.7820 C   0  0  0  0  0  2  0  0  0  0  0  0
  186.8440  178.0120  146.6950 C   0  0  0  0  0  2  0  0  0  0  0  0
  188.5490  178.7970  141.9600 O   0  0  0  0  0  0  0  0  0  0  0  0
  188.9370  177.4480  141.8510 C   0  0  1  0  0  3  0  0  0  0  0  0
  187.0530  177.5280  144.2760 C   0  0  1  0  0  3  0  0  0  0  0  0
  190.8590  177.0080  143.4540 C   0  0  0  0  0  2  0  0  0  0  0  0
  192.1590  177.2030  139.8330 C   0  0  0  0  0  0  0  0  0  0  0  0
  191.6740  176.7240  138.6120 C   0  0  0  0  0  3  0  0  0  0  0  0
  189.9010  177.2160  140.7230 C   0  0  0  0  0  0  0  0  0  0  0  0
  190.3060  176.4870  138.4470 C   0  0  0  0  0  3  0  0  0  0  0  0
  191.2750  177.4460  140.8880 C   0  0  0  0  0  3  0  0  0  0  0  0
  189.4220  176.7310  139.5020 C   0  0  0  0  0  3  0  0  0  0  0  0
  193.4840  177.4290  139.9950 F   0  0  0  0  0  0  0  0  0  0  0  0
  192.1140  175.8340  146.8140 C   0  0  0  0  0  1  0  0  0  0  0  0
  190.9850  176.5920  147.1320 O   0  0  0  0  0  0  0  0  0  0  0  0
  184.9510  177.8740  142.8350 C   0  0  0  0  0  2  0  0  0  0  0  0
  184.5480  179.1930  142.2060 C   0  0  0  0  0  2  0  0  0  0  0  0
  183.2080  179.0340  141.5150 C   0  0  0  0  0  2  0  0  0  0  0  0
  184.4010  180.1160  139.1820 O   0  0  0  0  0  0  0  0  0  0  0  0
  183.3830  178.3120  140.2190 C   0  0  2  0  0  3  0  0  0  0  0  0
  183.9790  178.9310  139.1080 C   0  0  0  0  0  0  0  0  0  0  0  0
  183.6620  176.9670  137.8070 C   0  0  0  0  0  3  0  0  0  0  0  0
  183.0590  176.3190  138.8860 C   0  0  0  0  0  3  0  0  0  0  0  0
  182.9180  177.0000  140.0970 C   0  0  0  0  0  3  0  0  0  0  0  0
  184.1050  178.2460  137.9390 N   0  0  0  0  0  0  0  0  0  0  0  0
  1 24  1  1  0  0  0
  2  5  1  1  0  0  0
  3  7  1  0  0  0  0
  4  8  1  0  0  0  0
  6 11  1  0  0  0  0
  7  1  1  0  0  0  0
  7  2  1  0  0  0  0
  8 14  1  0  0  0  0
  9 15  1  0  0  0  0
  9  3  1  0  0  0  0
 10  1  1  0  0  0  0
 11  2  1  0  0  0  0
 12  4  1  0  0  0  0
 13 12  1  0  0  0  0
 13  9  1  0  0  0  0
 14  3  1  0  0  0  0
 14  6  1  0  0  0  0
 15 10  1  0  0  0  0
 16 22  1  0  0  0  0
 16 20  1  0  0  0  0
 17 16  2  0  0  0  0
 18 20  2  0  0  0  0
 18 13  1  0  0  0  0
 19 17  1  0  0  0  0
 19 21  2  0  0  0  0
 21 18  1  0  0  0  0
 23 24  1  0  0  0  0
 25  8  1  0  0  0  0
 26 25  1  0  0  0  0
 27 26  1  0  0  0  0
 29 27  1  0  0  0  0
 30 28  2  0  0  0  0
 30 29  1  0  0  0  0
 31 34  2  0  0  0  0
 31 32  1  0  0  0  0
 32 33  2  0  0  0  0
 33 29  1  0  0  0  0
 34 30  1  0  0  0  0
M  END
>  <MODEL>
3

>  <REMARK>
 VINA RESULT:      -9.4      1.689      2.028
  Name = 
  6 active torsions:
  status: ('A' for Active; 'I' for Inactive)
    1  A    between atoms: C_1  and  O_19
    2  A    between atoms: C_3  and  C_13
    3  A    between atoms: C_3  and  C_17
    4  A    between atoms: C_12  and  C_28
    5  A    between atoms: C_17  and  C_29
    6  A    between atoms: C_18  and  C_29
                            x       y       z     vdW  Elec       q    Type
                         _______ _______ _______ _____ _____    ______ ____

>  <TORSDO>
F 6

$$$$
=
 OpenBabel11052413593D

 34 38  0  0  1  0  0  0  0  0999 V2000
  187.5690  177.9810  145.9470 C   0  0  2  0  0  3  0  0  0  0  0  0
  185.1710  178.8160  146.0170 C   0  0  1  0  0  3  0  0  0  0  0  0
  186.2390  178.2460  143.7970 C   0  0  1  0  0  3  0  0  0  0  0  0
  185.6820  179.3200  140.9980 C   0  0  0  0  0  2  0  0  0  0  0  0
  184.9930  178.4240  147.3440 O   0  0  0  0  0  1  0  0  0  0  0  0
  183.9320  179.1820  143.8610 C   0  0  0  0  0  2  0  0  0  0  0  0
  186.1730  177.8800  145.3010 C   0  0  1  0  0  3  0  0  0  0  0  0
  184.7650  178.2530  141.6350 C   0  0  1  0  0  3  0  0  0  0  0  0
  187.3460  177.4750  143.0310 C   0  0  1  0  0  3  0  0  0  0  0  0
  188.5830  177.1480  145.1710 C   0  0  0  0  0  2  0  0  0  0  0  0
  183.8050  178.8160  145.3320 C   0  0  0  0  0  2  0  0  0  0  0  0
  187.0340  179.2820  141.4190 O   0  0  0  0  0  0  0  0  0  0  0  0
  187.4290  177.9370  141.5560 C   0  0  1  0  0  3  0  0  0  0  0  0
  184.8280  178.1570  143.1760 C   0  0  1  0  0  3  0  0  0  0  0  0
  188.6830  177.6610  143.7490 C   0  0  0  0  0  2  0  0  0  0  0  0
  191.1120  177.2330  140.8820 C   0  0  0  0  0  0  0  0  0  0  0  0
  191.0990  177.0420  139.4980 C   0  0  0  0  0  3  0  0  0  0  0  0
  188.7200  177.6430  140.8470 C   0  0  0  0  0  0  0  0  0  0  0  0
  189.8990  177.1470  138.7880 C   0  0  0  0  0  3  0  0  0  0  0  0
  189.9240  177.5300  141.5580 C   0  0  0  0  0  3  0  0  0  0  0  0
  188.7110  177.4450  139.4630 C   0  0  0  0  0  3  0  0  0  0  0  0
  192.2740  177.1280  141.5710 F   0  0  0  0  0  0  0  0  0  0  0  0
  188.8620  177.1950  147.5660 C   0  0  0  0  0  1  0  0  0  0  0  0
  187.5380  177.5250  147.2680 O   0  0  0  0  0  0  0  0  0  0  0  0
  183.3490  178.3480  141.0810 C   0  0  0  0  0  2  0  0  0  0  0  0
  183.3460  179.1220  139.7760 C   0  0  0  0  0  2  0  0  0  0  0  0
  182.7010  178.2800  138.6930 C   0  0  0  0  0  2  0  0  0  0  0  0
  182.3810  175.4850  138.3470 O   0  0  0  0  0  0  0  0  0  0  0  0
  183.7120  177.3620  138.0880 C   0  0  2  0  0  3  0  0  0  0  0  0
  183.4730  175.9830  137.9640 C   0  0  0  0  0  0  0  0  0  0  0  0
  185.6220  175.6660  137.0000 C   0  0  0  0  0  3  0  0  0  0  0  0
  185.9010  177.0290  137.1110 C   0  0  0  0  0  3  0  0  0  0  0  0
  184.9390  177.8780  137.6610 C   0  0  0  0  0  3  0  0  0  0  0  0
  184.4260  175.1760  137.4240 N   0  0  0  0  0  0  0  0  0  0  0  0
  1 24  1  1  0  0  0
  2  5  1  1  0  0  0
  3  7  1  0  0  0  0
  4 12  1  0  0  0  0
  4  8  1  0  0  0  0
  6 11  1  0  0  0  0
  7  1  1  0  0  0  0
  7  2  1  0  0  0  0
  8 14  1  0  0  0  0
  9 15  1  0  0  0  0
  9  3  1  0  0  0  0
 10  1  1  0  0  0  0
 11  2  1  0  0  0  0
 12 13  1  0  0  0  0
 13  9  1  0  0  0  0
 14  3  1  0  0  0  0
 14  6  1  0  0  0  0
 15 10  1  0  0  0  0
 16 20  1  0  0  0  0
 16 22  1  0  0  0  0
 17 16  2  0  0  0  0
 18 13  1  0  0  0  0
 18 20  2  0  0  0  0
 19 21  2  0  0  0  0
 19 17  1  0  0  0  0
 21 18  1  0  0  0  0
 24 23  1  0  0  0  0
 25  8  1  0  0  0  0
 26 25  1  0  0  0  0
 27 26  1  0  0  0  0
 29 27  1  0  0  0  0
 30 29  1  0  0  0  0
 30 28  2  0  0  0  0
 31 32  1  0  0  0  0
 31 34  2  0  0  0  0
 32 33  2  0  0  0  0
 33 29  1  0  0  0  0
 34 30  1  0  0  0  0
M  END
>  <MODEL>
4

>  <REMARK>
 VINA RESULT:      -9.4      1.466      1.932
  Name = 
  6 active torsions:
  status: ('A' for Active; 'I' for Inactive)
    1  A    between atoms: C_1  and  O_19
    2  A    between atoms: C_3  and  C_13
    3  A    between atoms: C_3  and  C_17
    4  A    between atoms: C_12  and  C_28
    5  A    between atoms: C_17  and  C_29
    6  A    between atoms: C_18  and  C_29
                            x       y       z     vdW  Elec       q    Type
                         _______ _______ _______ _____ _____    ______ ____

>  <TORSDO>
F 6

$$$$
=
 OpenBabel11052413593D

 34 38  0  0  1  0  0  0  0  0999 V2000
  188.5520  177.2200  147.3420 C   0  0  2  0  0  3  0  0  0  0  0  0
  190.8500  176.5660  146.4790 C   0  0  1  0  0  3  0  0  0  0  0  0
  189.0810  177.3680  144.8610 C   0  0  1  0  0  3  0  0  0  0  0  0
  188.6810  176.7520  141.9010 C   0  0  0  0  0  2  0  0  0  0  0  0
  191.4580  176.7750  147.7170 O   0  0  0  0  0  1  0  0  0  0  0  0
  191.2930  176.6070  144.0050 C   0  0  0  0  0  2  0  0  0  0  0  0
  189.6440  177.5170  146.2960 C   0  0  1  0  0  3  0  0  0  0  0  0
  189.7360  177.7820  142.3610 C   0  0  1  0  0  3  0  0  0  0  0  0
  187.7640  178.1560  144.6380 C   0  0  1  0  0  3  0  0  0  0  0  0
  187.3170  178.0770  147.0910 C   0  0  0  0  0  2  0  0  0  0  0  0
  191.9030  176.7660  145.3900 C   0  0  0  0  0  2  0  0  0  0  0  0
  187.5510  176.6280  142.7460 O   0  0  0  0  0  0  0  0  0  0  0  0
  187.1960  177.9060  143.2200 C   0  0  1  0  0  3  0  0  0  0  0  0
  190.1960  177.6500  143.8300 C   0  0  1  0  0  3  0  0  0  0  0  0
  186.7530  177.7680  145.7180 C   0  0  0  0  0  2  0  0  0  0  0  0
  183.5540  178.7560  143.9430 C   0  0  0  0  0  0  0  0  0  0  0  0
  183.0260  178.8000  142.6490 C   0  0  0  0  0  3  0  0  0  0  0  0
  185.7350  178.2020  143.0360 C   0  0  0  0  0  0  0  0  0  0  0  0
  183.8510  178.5480  141.5490 C   0  0  0  0  0  3  0  0  0  0  0  0
  184.9060  178.4610  144.1370 C   0  0  0  0  0  3  0  0  0  0  0  0
  185.2050  178.2520  141.7430 C   0  0  0  0  0  3  0  0  0  0  0  0
  182.7550  179.0040  145.0090 F   0  0  0  0  0  0  0  0  0  0  0  0
  188.0160  178.2510  149.2300 C   0  0  0  0  0  1  0  0  0  0  0  0
  189.0190  177.4820  148.6340 O   0  0  0  0  0  0  0  0  0  0  0  0
  190.8810  177.8730  141.3610 C   0  0  0  0  0  2  0  0  0  0  0  0
  190.8210  176.7160  140.3840 C   0  0  0  0  0  2  0  0  0  0  0  0
  190.9090  177.2470  138.9670 C   0  0  0  0  0  2  0  0  0  0  0  0
  189.0550  179.3780  138.7240 O   0  0  0  0  0  0  0  0  0  0  0  0
  189.5730  177.1600  138.3040 C   0  0  2  0  0  3  0  0  0  0  0  0
  188.7120  178.2680  138.2370 C   0  0  0  0  0  0  0  0  0  0  0  0
  187.0770  176.9670  137.1040 C   0  0  0  0  0  3  0  0  0  0  0  0
  187.9010  175.8420  137.1550 C   0  0  0  0  0  3  0  0  0  0  0  0
  189.1540  175.9420  137.7610 C   0  0  0  0  0  3  0  0  0  0  0  0
  187.4960  178.1450  137.6410 N   0  0  0  0  0  0  0  0  0  0  0  0
  1 24  1  1  0  0  0
  2  5  1  1  0  0  0
  3  7  1  0  0  0  0
  4  8  1  0  0  0  0
  4 12  1  0  0  0  0
  6 11  1  0  0  0  0
  7  2  1  0  0  0  0
  7  1  1  0  0  0  0
  8 14  1  0  0  0  0
  9  3  1  0  0  0  0
  9 15  1  0  0  0  0
 10  1  1  0  0  0  0
 11  2  1  0  0  0  0
 12 13  1  0  0  0  0
 13  9  1  0  0  0  0
 14  6  1  0  0  0  0
 14  3  1  0  0  0  0
 15 10  1  0  0  0  0
 16 20  1  0  0  0  0
 16 22  1  0  0  0  0
 17 16  2  0  0  0  0
 18 13  1  0  0  0  0
 18 20  2  0  0  0  0
 19 21  2  0  0  0  0
 19 17  1  0  0  0  0
 21 18  1  0  0  0  0
 24 23  1  0  0  0  0
 25  8  1  0  0  0  0
 26 25  1  0  0  0  0
 27 26  1  0  0  0  0
 29 27  1  0  0  0  0
 30 29  1  0  0  0  0
 30 28  2  0  0  0  0
 31 32  1  0  0  0  0
 31 34  2  0  0  0  0
 32 33  2  0  0  0  0
 33 29  1  0  0  0  0
 34 30  1  0  0  0  0
M  END
>  <MODEL>
5

>  <REMARK>
 VINA RESULT:      -9.3      2.687      5.470
  Name = 
  6 active torsions:
  status: ('A' for Active; 'I' for Inactive)
    1  A    between atoms: C_1  and  O_19
    2  A    between atoms: C_3  and  C_13
    3  A    between atoms: C_3  and  C_17
    4  A    between atoms: C_12  and  C_28
    5  A    between atoms: C_17  and  C_29
    6  A    between atoms: C_18  and  C_29
                            x       y       z     vdW  Elec       q    Type
                         _______ _______ _______ _____ _____    ______ ____

>  <TORSDO>
F 6

$$$$
=
 OpenBabel11052413593D

 34 38  0  0  1  0  0  0  0  0999 V2000
  183.3350  178.8090  140.8360 C   0  0  2  0  0  3  0  0  0  0  0  0
  182.3740  178.6920  143.1850 C   0  0  1  0  0  3  0  0  0  0  0  0
  184.8700  178.4920  142.8360 C   0  0  1  0  0  3  0  0  0  0  0  0
  186.9940  177.0730  144.5020 C   0  0  0  0  0  2  0  0  0  0  0  0
  181.2120  179.3750  142.8250 O   0  0  0  0  0  1  0  0  0  0  0  0
  183.9130  178.2530  145.1230 C   0  0  0  0  0  2  0  0  0  0  0  0
  183.5690  179.1550  142.3200 C   0  0  1  0  0  3  0  0  0  0  0  0
  186.4490  178.4550  144.9240 C   0  0  1  0  0  3  0  0  0  0  0  0
  186.0960  178.7620  141.9250 C   0  0  1  0  0  3  0  0  0  0  0  0
  184.5600  179.1610  140.0000 C   0  0  0  0  0  2  0  0  0  0  0  0
  182.6250  178.9270  144.6740 C   0  0  0  0  0  2  0  0  0  0  0  0
  186.9920  176.8240  143.1070 O   0  0  0  0  0  0  0  0  0  0  0  0
  187.3480  178.0090  142.4350 C   0  0  1  0  0  3  0  0  0  0  0  0
  185.0750  178.8360  144.3280 C   0  0  1  0  0  3  0  0  0  0  0  0
  185.7550  178.3660  140.4880 C   0  0  0  0  0  2  0  0  0  0  0  0
  189.4560  178.2500  139.2710 C   0  0  0  0  0  0  0  0  0  0  0  0
  190.5200  177.4010  139.5920 C   0  0  0  0  0  3  0  0  0  0  0  0
  188.4400  177.7920  141.4260 C   0  0  0  0  0  0  0  0  0  0  0  0
  190.5460  176.7510  140.8290 C   0  0  0  0  0  3  0  0  0  0  0  0
  188.4190  178.4480  140.1870 C   0  0  0  0  0  3  0  0  0  0  0  0
  189.5090  176.9490  141.7460 C   0  0  0  0  0  3  0  0  0  0  0  0
  189.4320  178.8830  138.0730 F   0  0  0  0  0  0  0  0  0  0  0  0
  182.5850  179.8270  139.0160 C   0  0  0  0  0  1  0  0  0  0  0  0
  182.2360  179.5110  140.3310 O   0  0  0  0  0  0  0  0  0  0  0  0
  186.5390  178.6400  146.4330 C   0  0  0  0  0  2  0  0  0  0  0  0
  187.4600  177.5970  147.0370 C   0  0  0  0  0  2  0  0  0  0  0  0
  188.7580  178.2550  147.4610 C   0  0  0  0  0  2  0  0  0  0  0  0
  189.9280  178.6020  144.9020 O   0  0  0  0  0  0  0  0  0  0  0  0
  189.9210  177.4820  146.9290 C   0  0  2  0  0  3  0  0  0  0  0  0
  190.4310  177.7150  145.6410 C   0  0  0  0  0  0  0  0  0  0  0  0
  192.0560  176.0070  145.9440 C   0  0  0  0  0  3  0  0  0  0  0  0
  191.5740  175.7410  147.2260 C   0  0  0  0  0  3  0  0  0  0  0  0
  190.4990  176.4830  147.7170 C   0  0  0  0  0  3  0  0  0  0  0  0
  191.4800  176.9780  145.1850 N   0  0  0  0  0  0  0  0  0  0  0  0
  1 24  1  6  0  0  0
  1  7  1  0  0  0  0
  2  5  1  6  0  0  0
  2 11  1  0  0  0  0
  3 14  1  0  0  0  0
  4  8  1  0  0  0  0
  7  3  1  0  0  0  0
  7  2  1  0  0  0  0
  8 25  1  0  0  0  0
  9 13  1  0  0  0  0
  9  3  1  0  0  0  0
 10 15  1  0  0  0  0
 10  1  1  0  0  0  0
 11  6  1  0  0  0  0
 12  4  1  0  0  0  0
 13 12  1  0  0  0  0
 14  8  1  0  0  0  0
 14  6  1  0  0  0  0
 15  9  1  0  0  0  0
 16 17  2  0  0  0  0
 16 20  1  0  0  0  0
 17 19  1  0  0  0  0
 18 21  1  0  0  0  0
 18 13  1  0  0  0  0
 19 21  2  0  0  0  0
 20 18  2  0  0  0  0
 22 16  1  0  0  0  0
 23 24  1  0  0  0  0
 25 26  1  0  0  0  0
 26 27  1  0  0  0  0
 28 30  2  0  0  0  0
 29 27  1  0  0  0  0
 29 33  1  0  0  0  0
 30 29  1  0  0  0  0
 31 32  1  0  0  0  0
 32 33  2  0  0  0  0
 34 30  1  0  0  0  0
 34 31  2  0  0  0  0
M  END
>  <MODEL>
6

>  <REMARK>
 VINA RESULT:      -9.3      2.596      6.801
  Name = 
  6 active torsions:
  status: ('A' for Active; 'I' for Inactive)
    1  A    between atoms: C_1  and  O_19
    2  A    between atoms: C_3  and  C_13
    3  A    between atoms: C_3  and  C_17
    4  A    between atoms: C_12  and  C_28
    5  A    between atoms: C_17  and  C_29
    6  A    between atoms: C_18  and  C_29
                            x       y       z     vdW  Elec       q    Type
                         _______ _______ _______ _____ _____    ______ ____

>  <TORSDO>
F 6

$$$$
=
 OpenBabel11052413593D

 34 38  0  0  1  0  0  0  0  0999 V2000
  189.1800  177.3950  145.9310 C   0  0  2  0  0  3  0  0  0  0  0  0
  186.9170  178.2970  146.6510 C   0  0  1  0  0  3  0  0  0  0  0  0
  187.3850  177.8880  144.2010 C   0  0  1  0  0  3  0  0  0  0  0  0
  186.2220  179.2180  141.7150 C   0  0  0  0  0  2  0  0  0  0  0  0
  187.0460  177.7970  147.9470 O   0  0  0  0  0  1  0  0  0  0  0  0
  185.2140  178.8890  144.9010 C   0  0  0  0  0  2  0  0  0  0  0  0
  187.6660  177.3960  145.6420 C   0  0  1  0  0  3  0  0  0  0  0  0
  185.4320  178.1300  142.4740 C   0  0  1  0  0  3  0  0  0  0  0  0
  188.2300  177.1510  143.1290 C   0  0  1  0  0  3  0  0  0  0  0  0
  189.9310  176.6010  144.8690 C   0  0  0  0  0  2  0  0  0  0  0  0
  185.4280  178.4010  146.3260 C   0  0  0  0  0  2  0  0  0  0  0  0
  187.6320  179.1010  141.7870 O   0  0  0  0  0  0  0  0  0  0  0  0
  187.9770  177.7370  141.7190 C   0  0  1  0  0  3  0  0  0  0  0  0
  185.8620  177.8990  143.9400 C   0  0  1  0  0  3  0  0  0  0  0  0
  189.7090  177.2320  143.5090 C   0  0  0  0  0  2  0  0  0  0  0  0
  191.3750  177.2220  140.0740 C   0  0  0  0  0  0  0  0  0  0  0  0
  190.9950  176.8990  138.7680 C   0  0  0  0  0  3  0  0  0  0  0  0
  189.0410  177.4640  140.6940 C   0  0  0  0  0  0  0  0  0  0  0  0
  189.6400  176.8540  138.4260 C   0  0  0  0  0  3  0  0  0  0  0  0
  190.4010  177.5020  141.0370 C   0  0  0  0  0  3  0  0  0  0  0  0
  188.6650  177.1340  139.3880 C   0  0  0  0  0  3  0  0  0  0  0  0
  192.6870  177.2620  140.4080 F   0  0  0  0  0  0  0  0  0  0  0  0
  190.8340  176.8960  147.3190 C   0  0  0  0  0  1  0  0  0  0  0  0
  189.4460  176.8270  147.1800 O   0  0  0  0  0  0  0  0  0  0  0  0
  183.9320  178.3190  142.2940 C   0  0  0  0  0  2  0  0  0  0  0  0
  183.5260  177.9870  140.8710 C   0  0  0  0  0  2  0  0  0  0  0  0
  182.0150  178.0110  140.7580 C   0  0  0  0  0  2  0  0  0  0  0  0
  179.7690  179.5670  141.5170 O   0  0  0  0  0  0  0  0  0  0  0  0
  181.5720  179.2730  140.0930 C   0  0  2  0  0  3  0  0  0  0  0  0
  180.4380  179.9770  140.5310 C   0  0  0  0  0  0  0  0  0  0  0  0
  180.7410  181.5940  138.8160 C   0  0  0  0  0  3  0  0  0  0  0  0
  181.8700  180.9210  138.3470 C   0  0  0  0  0  3  0  0  0  0  0  0
  182.2830  179.7530  138.9900 C   0  0  0  0  0  3  0  0  0  0  0  0
  180.0550  181.1130  139.8880 N   0  0  0  0  0  0  0  0  0  0  0  0
  1 24  1  1  0  0  0
  2  5  1  1  0  0  0
  3  7  1  0  0  0  0
  4 12  1  0  0  0  0
  4  8  1  0  0  0  0
  6 11  1  0  0  0  0
  7  1  1  0  0  0  0
  7  2  1  0  0  0  0
  8 14  1  0  0  0  0
  9 15  1  0  0  0  0
  9  3  1  0  0  0  0
 10  1  1  0  0  0  0
 11  2  1  0  0  0  0
 13 12  1  0  0  0  0
 13  9  1  0  0  0  0
 14  3  1  0  0  0  0
 14  6  1  0  0  0  0
 15 10  1  0  0  0  0
 16 22  1  0  0  0  0
 16 20  1  0  0  0  0
 17 16  2  0  0  0  0
 18 20  2  0  0  0  0
 18 13  1  0  0  0  0
 19 17  1  0  0  0  0
 19 21  2  0  0  0  0
 21 18  1  0  0  0  0
 24 23  1  0  0  0  0
 25  8  1  0  0  0  0
 26 25  1  0  0  0  0
 27 26  1  0  0  0  0
 29 30  1  0  0  0  0
 29 27  1  0  0  0  0
 30 28  2  0  0  0  0
 31 34  2  0  0  0  0
 32 31  1  0  0  0  0
 32 33  2  0  0  0  0
 33 29  1  0  0  0  0
 34 30  1  0  0  0  0
M  END
>  <MODEL>
7

>  <REMARK>
 VINA RESULT:      -9.1      2.179      2.575
  Name = 
  6 active torsions:
  status: ('A' for Active; 'I' for Inactive)
    1  A    between atoms: C_1  and  O_19
    2  A    between atoms: C_3  and  C_13
    3  A    between atoms: C_3  and  C_17
    4  A    between atoms: C_12  and  C_28
    5  A    between atoms: C_17  and  C_29
    6  A    between atoms: C_18  and  C_29
                            x       y       z     vdW  Elec       q    Type
                         _______ _______ _______ _____ _____    ______ ____

>  <TORSDO>
F 6

$$$$
=
 OpenBabel11052413593D

 34 38  0  0  1  0  0  0  0  0999 V2000
  188.4440  177.3380  147.5710 C   0  0  2  0  0  3  0  0  0  0  0  0
  190.6780  176.5980  146.6150 C   0  0  1  0  0  3  0  0  0  0  0  0
  188.8610  177.4280  145.0660 C   0  0  1  0  0  3  0  0  0  0  0  0
  188.3040  176.7750  142.1390 C   0  0  0  0  0  2  0  0  0  0  0  0
  191.3490  176.8090  147.8200 O   0  0  0  0  0  1  0  0  0  0  0  0
  191.0070  176.5850  144.1230 C   0  0  0  0  0  2  0  0  0  0  0  0
  189.4950  177.5830  146.4700 C   0  0  1  0  0  3  0  0  0  0  0  0
  189.4100  177.7800  142.5310 C   0  0  1  0  0  3  0  0  0  0  0  0
  187.5590  178.2530  144.8900 C   0  0  1  0  0  3  0  0  0  0  0  0
  187.2250  178.2290  147.3610 C   0  0  0  0  0  2  0  0  0  0  0  0
  191.6850  176.7480  145.4760 C   0  0  0  0  0  2  0  0  0  0  0  0
  187.2120  176.7000  143.0380 O   0  0  0  0  0  0  0  0  0  0  0  0
  186.9180  177.9960  143.5040 C   0  0  1  0  0  3  0  0  0  0  0  0
  189.9340  177.6580  143.9790 C   0  0  1  0  0  3  0  0  0  0  0  0
  186.5890  177.9150  146.0220 C   0  0  0  0  0  2  0  0  0  0  0  0
  183.4370  178.5490  142.0600 C   0  0  0  0  0  0  0  0  0  0  0  0
  182.7280  178.9230  143.2050 C   0  0  0  0  0  3  0  0  0  0  0  0
  185.4600  178.3340  143.3820 C   0  0  0  0  0  0  0  0  0  0  0  0
  183.3820  179.0000  144.4380 C   0  0  0  0  0  3  0  0  0  0  0  0
  184.8000  178.2520  142.1470 C   0  0  0  0  0  3  0  0  0  0  0  0
  184.7450  178.7030  144.5270 C   0  0  0  0  0  3  0  0  0  0  0  0
  182.8030  178.4710  140.8650 F   0  0  0  0  0  0  0  0  0  0  0  0
  187.9510  178.2520  149.5290 C   0  0  0  0  0  1  0  0  0  0  0  0
  188.9780  177.6070  148.8350 O   0  0  0  0  0  0  0  0  0  0  0  0
  190.5110  177.8180  141.4780 C   0  0  0  0  0  2  0  0  0  0  0  0
  190.2730  176.7500  140.4290 C   0  0  0  0  0  2  0  0  0  0  0  0
  190.7580  177.2480  139.0820 C   0  0  0  0  0  2  0  0  0  0  0  0
  193.5540  177.5050  139.4710 O   0  0  0  0  0  0  0  0  0  0  0  0
  191.7950  176.3220  138.5370 C   0  0  0  0  0  0  0  0  0  0  0  0
  193.1650  176.5310  138.7730 C   0  0  0  0  0  0  0  0  0  0  0  0
  193.7110  174.6130  137.4810 C   0  0  0  0  0  3  0  0  0  0  0  0
  192.3610  174.3740  137.2190 C   0  0  0  0  0  2  0  0  0  0  0  0
  191.4010  175.2370  137.7490 C   0  0  0  0  0  3  0  0  0  0  0  0
  194.0810  175.6760  138.2450 N   0  0  0  0  0  0  0  0  0  0  0  0
  1 24  1  1  0  0  0
  2  5  1  1  0  0  0
  3  7  1  0  0  0  0
  4  8  1  0  0  0  0
  4 12  1  0  0  0  0
  6 11  1  0  0  0  0
  7  2  1  0  0  0  0
  7  1  1  0  0  0  0
  8 14  1  0  0  0  0
  9  3  1  0  0  0  0
  9 15  1  0  0  0  0
 10  1  1  0  0  0  0
 11  2  1  0  0  0  0
 12 13  1  0  0  0  0
 13  9  1  0  0  0  0
 14  6  1  0  0  0  0
 14  3  1  0  0  0  0
 15 10  1  0  0  0  0
 16 20  2  0  0  0  0
 16 17  1  0  0  0  0
 17 19  2  0  0  0  0
 18 13  1  0  0  0  0
 18 21  2  0  0  0  0
 19 21  1  0  0  0  0
 20 18  1  0  0  0  0
 22 16  1  0  0  0  0
 24 23  1  0  0  0  0
 25  8  1  0  0  0  0
 26 25  1  0  0  0  0
 27 26  1  0  0  0  0
 29 30  1  0  0  0  0
 29 27  1  0  0  0  0
 30 28  2  0  0  0  0
 31 34  2  0  0  0  0
 32 31  1  0  0  0  0
 32 33  1  0  0  0  0
 33 29  2  0  0  0  0
 34 30  1  0  0  0  0
M  END
>  <MODEL>
8

>  <REMARK>
 VINA RESULT:      -9.1      3.131      6.411
  Name = 
  6 active torsions:
  status: ('A' for Active; 'I' for Inactive)
    1  A    between atoms: C_1  and  O_19
    2  A    between atoms: C_3  and  C_13
    3  A    between atoms: C_3  and  C_17
    4  A    between atoms: C_12  and  C_28
    5  A    between atoms: C_17  and  C_29
    6  A    between atoms: C_18  and  C_29
                            x       y       z     vdW  Elec       q    Type
                         _______ _______ _______ _____ _____    ______ ____

>  <TORSDO>
F 6

$$$$
=
 OpenBabel11052413593D

 34 38  0  0  1  0  0  0  0  0999 V2000
  187.5010  178.1840  145.8470 C   0  0  2  0  0  3  0  0  0  0  0  0
  185.0920  178.9690  146.0280 C   0  0  1  0  0  3  0  0  0  0  0  0
  186.0460  178.3520  143.7700 C   0  0  1  0  0  3  0  0  0  0  0  0
  185.3070  179.3240  140.9760 C   0  0  0  0  0  2  0  0  0  0  0  0
  184.9980  178.6160  147.3740 O   0  0  0  0  0  1  0  0  0  0  0  0
  183.7250  179.2410  143.9360 C   0  0  0  0  0  2  0  0  0  0  0  0
  186.0730  178.0330  145.2850 C   0  0  1  0  0  3  0  0  0  0  0  0
  184.4520  178.2590  141.6960 C   0  0  1  0  0  3  0  0  0  0  0  0
  187.1250  177.5810  142.9650 C   0  0  1  0  0  3  0  0  0  0  0  0
  188.4880  177.3490  145.0410 C   0  0  0  0  0  2  0  0  0  0  0  0
  183.6900  178.9190  145.4230 C   0  0  0  0  0  2  0  0  0  0  0  0
  186.6820  179.3290  141.3200 O   0  0  0  0  0  0  0  0  0  0  0  0
  187.1140  177.9970  141.4740 C   0  0  1  0  0  3  0  0  0  0  0  0
  184.6050  178.2140  143.2330 C   0  0  1  0  0  3  0  0  0  0  0  0
  188.4960  177.8180  143.6000 C   0  0  0  0  0  2  0  0  0  0  0  0
  189.7090  177.8900  138.6870 C   0  0  0  0  0  0  0  0  0  0  0  0
  190.7470  177.1930  139.3140 C   0  0  0  0  0  3  0  0  0  0  0  0
  188.3700  177.7080  140.7030 C   0  0  0  0  0  0  0  0  0  0  0  0
  190.5990  176.7570  140.6340 C   0  0  0  0  0  3  0  0  0  0  0  0
  188.5240  178.1500  139.3810 C   0  0  0  0  0  3  0  0  0  0  0  0
  189.4130  177.0160  141.3280 C   0  0  0  0  0  3  0  0  0  0  0  0
  189.8540  178.3160  137.4100 F   0  0  0  0  0  0  0  0  0  0  0  0
  188.9170  177.6620  147.4700 C   0  0  0  0  0  1  0  0  0  0  0  0
  187.5550  177.7690  147.1810 O   0  0  0  0  0  0  0  0  0  0  0  0
  183.0060  178.3070  141.2200 C   0  0  0  0  0  2  0  0  0  0  0  0
  182.8730  179.2380  140.0310 C   0  0  0  0  0  2  0  0  0  0  0  0
  181.5290  179.0190  139.3660 C   0  0  0  0  0  2  0  0  0  0  0  0
  179.6600  180.4440  140.9520 O   0  0  0  0  0  0  0  0  0  0  0  0
  180.9150  180.3330  139.0080 C   0  0  0  0  0  0  0  0  0  0  0  0
  179.9870  180.9660  139.8530 C   0  0  0  0  0  0  0  0  0  0  0  0
  179.7540  182.7550  138.3060 C   0  0  0  0  0  3  0  0  0  0  0  0
  180.6670  182.1560  137.4370 C   0  0  0  0  0  2  0  0  0  0  0  0
  181.2460  180.9370  137.7920 C   0  0  0  0  0  3  0  0  0  0  0  0
  179.4370  182.1540  139.4840 N   0  0  0  0  0  0  0  0  0  0  0  0
  1 24  1  1  0  0  0
  2  5  1  1  0  0  0
  3  7  1  0  0  0  0
  4 12  1  0  0  0  0
  4  8  1  0  0  0  0
  6 11  1  0  0  0  0
  7  1  1  0  0  0  0
  7  2  1  0  0  0  0
  8 14  1  0  0  0  0
  9 15  1  0  0  0  0
  9  3  1  0  0  0  0
 10  1  1  0  0  0  0
 11  2  1  0  0  0  0
 12 13  1  0  0  0  0
 13  9  1  0  0  0  0
 14  3  1  0  0  0  0
 14  6  1  0  0  0  0
 15 10  1  0  0  0  0
 16 17  2  0  0  0  0
 16 20  1  0  0  0  0
 17 19  1  0  0  0  0
 18 21  1  0  0  0  0
 18 13  1  0  0  0  0
 19 21  2  0  0  0  0
 20 18  2  0  0  0  0
 22 16  1  0  0  0  0
 24 23  1  0  0  0  0
 25  8  1  0  0  0  0
 26 25  1  0  0  0  0
 27 26  1  0  0  0  0
 29 27  1  0  0  0  0
 29 30  1  0  0  0  0
 30 28  2  0  0  0  0
 31 34  2  0  0  0  0
 32 33  1  0  0  0  0
 32 31  1  0  0  0  0
 33 29  2  0  0  0  0
 34 30  1  0  0  0  0
M  END
>  <MODEL>
9

>  <REMARK>
 VINA RESULT:      -9.0      2.711      3.160
  Name = 
  6 active torsions:
  status: ('A' for Active; 'I' for Inactive)
    1  A    between atoms: C_1  and  O_19
    2  A    between atoms: C_3  and  C_13
    3  A    between atoms: C_3  and  C_17
    4  A    between atoms: C_12  and  C_28
    5  A    between atoms: C_17  and  C_29
    6  A    between atoms: C_18  and  C_29
                            x       y       z     vdW  Elec       q    Type
                         _______ _______ _______ _____ _____    ______ ____

>  <TORSDO>
F 6

$$$$
