=
 OpenBabel11052413093D

 31 34  0  0  1  0  0  0  0  0999 V2000
  190.7680  177.2970  146.1180 C   0  0  2  0  0  3  0  0  0  0  0  0
  188.8380  177.5270  144.5210 C   0  0  1  0  0  3  0  0  0  0  0  0
  191.7160  177.1310  144.9390 C   0  0  0  0  0  2  0  0  0  0  0  0
  191.2910  176.5140  147.3020 C   0  0  0  0  0  1  0  0  0  0  0  0
  189.3800  176.7870  145.7460 C   0  0  0  0  0  2  0  0  0  0  0  0
  189.8160  177.4540  143.3290 C   0  0  2  0  0  3  0  0  0  0  0  0
  191.2040  177.9330  143.7490 C   0  0  0  0  0  2  0  0  0  0  0  0
  187.4590  177.0300  144.1830 C   0  0  0  0  0  0  0  0  0  0  0  0
  187.3740  176.0190  143.4370 O   0  0  0  0  0  0  0  0  0  0  0  0
  186.2230  177.7030  144.6790 C   0  0  0  0  0  0  0  0  0  0  0  0
  184.8680  178.3980  146.5850 C   0  0  0  0  0  3  0  0  0  0  0  0
  186.0060  177.7800  146.0650 C   0  0  0  0  0  3  0  0  0  0  0  0
  183.9210  178.9470  145.7250 C   0  0  0  0  0  3  0  0  0  0  0  0
  184.1090  178.8750  144.3450 C   0  0  0  0  0  3  0  0  0  0  0  0
  185.2520  178.2600  143.8050 C   0  0  0  0  0  0  0  0  0  0  0  0
  186.0760  179.3760  141.7270 C   0  0  0  0  0  1  0  0  0  0  0  0
  184.0290  177.9550  141.6530 C   0  0  0  0  0  1  0  0  0  0  0  0
  185.3820  178.1580  142.3100 C   0  0  0  0  0  3  0  0  0  0  0  0
  189.3440  178.3280  142.1790 C   0  0  0  0  0  2  0  0  0  0  0  0
  189.2190  177.5010  140.9110 C   0  0  0  0  0  2  0  0  0  0  0  0
  188.9670  178.3690  139.7710 N   0  0  0  0  0  2  0  0  0  0  0  0
  185.1560  177.2730  136.4080 C   0  0  0  0  0  0  0  0  0  0  0  0
  186.2600  178.0210  138.4490 C   0  0  0  0  0  3  0  0  0  0  0  0
  188.8450  176.9110  136.1030 C   0  0  0  0  0  3  0  0  0  0  0  0
  189.8950  177.3450  137.3570 S   0  0  0  0  0  0  0  0  0  0  0  0
  183.6820  177.0050  135.5030 Cl  0  0  0  0  0  0  0  0  0  0  0  0
  188.7300  177.8650  138.4550 C   0  0  0  0  0  0  0  0  0  0  0  0
  185.0890  177.8000  137.7100 C   0  0  0  0  0  3  0  0  0  0  0  0
  187.5590  177.1810  136.5650 C   0  0  0  0  0  0  0  0  0  0  0  0
  187.4900  177.7080  137.8660 C   0  0  0  0  0  0  0  0  0  0  0  0
  186.3950  176.9610  135.8290 C   0  0  0  0  0  3  0  0  0  0  0  0
  1  4  1  1  0  0  0
  2  8  1  6  0  0  0
  2  5  1  0  0  0  0
  3  1  1  0  0  0  0
  5  1  1  0  0  0  0
  6 19  1  6  0  0  0
  6  7  1  0  0  0  0
  6  2  1  0  0  0  0
  7  3  1  0  0  0  0
  8 10  1  0  0  0  0
  9  8  2  0  0  0  0
 10 12  1  0  0  0  0
 12 11  2  0  0  0  0
 13 11  1  0  0  0  0
 14 13  2  0  0  0  0
 15 14  1  0  0  0  0
 15 10  2  0  0  0  0
 16 18  1  0  0  0  0
 17 18  1  0  0  0  0
 18 15  1  0  0  0  0
 20 19  1  0  0  0  0
 21 20  1  0  0  0  0
 22 28  1  0  0  0  0
 24 29  2  0  0  0  0
 24 25  1  0  0  0  0
 25 27  1  0  0  0  0
 26 22  1  0  0  0  0
 27 21  1  0  0  0  0
 28 23  2  0  0  0  0
 29 30  1  0  0  0  0
 30 23  1  0  0  0  0
 30 27  2  0  0  0  0
 31 22  2  0  0  0  0
 31 29  1  0  0  0  0
M  END
>  <MODEL>
1

>  <REMARK>
 VINA RESULT:      -9.0      0.000      0.000
  Name = 
  7 active torsions:
  status: ('A' for Active; 'I' for Inactive)
    1  A    between atoms: C_4  and  C_5
    2  A    between atoms: C_4  and  C_12
    3  A    between atoms: C_9  and  N_23
    4  A    between atoms: C_15  and  C_20
    5  A    between atoms: C_15  and  N_23
    6  A    between atoms: C_20  and  C_27
    7  A    between atoms: C_30  and  C_31
                            x       y       z     vdW  Elec       q    Type
                         _______ _______ _______ _____ _____    ______ ____

>  <TORSDO>
F 7

$$$$
=
 OpenBabel11052413093D

 31 34  0  0  1  0  0  0  0  0999 V2000
  186.1120  176.6960  137.2110 C   0  0  2  0  0  3  0  0  0  0  0  0
  185.7650  178.0720  139.2870 C   0  0  1  0  0  3  0  0  0  0  0  0
  187.5770  177.1110  137.1890 C   0  0  0  0  0  2  0  0  0  0  0  0
  185.6290  176.4710  135.7950 C   0  0  0  0  0  1  0  0  0  0  0  0
  185.2730  177.7870  137.8660 C   0  0  0  0  0  2  0  0  0  0  0  0
  187.2700  178.4120  139.3140 C   0  0  2  0  0  3  0  0  0  0  0  0
  188.0740  177.3190  138.6140 C   0  0  0  0  0  2  0  0  0  0  0  0
  184.9100  179.1320  139.9280 C   0  0  0  0  0  0  0  0  0  0  0  0
  184.6840  180.1760  139.2620 O   0  0  0  0  0  0  0  0  0  0  0  0
  184.3590  178.9870  141.3070 C   0  0  0  0  0  0  0  0  0  0  0  0
  184.7580  179.0590  143.7130 C   0  0  0  0  0  3  0  0  0  0  0  0
  185.2180  179.1820  142.4020 C   0  0  0  0  0  3  0  0  0  0  0  0
  183.4260  178.7340  143.9540 C   0  0  0  0  0  3  0  0  0  0  0  0
  182.5550  178.5280  142.8850 C   0  0  0  0  0  3  0  0  0  0  0  0
  183.0020  178.6510  141.5580 C   0  0  0  0  0  0  0  0  0  0  0  0
  180.6150  178.7240  140.8220 C   0  0  0  0  0  1  0  0  0  0  0  0
  182.1180  176.9110  140.0050 C   0  0  0  0  0  1  0  0  0  0  0  0
  182.0390  178.3630  140.4390 C   0  0  0  0  0  3  0  0  0  0  0  0
  187.7790  178.5310  140.7410 C   0  0  0  0  0  2  0  0  0  0  0  0
  188.9910  177.6360  140.9410 C   0  0  0  0  0  2  0  0  0  0  0  0
  188.7720  176.7450  142.0700 N   0  0  0  0  0  2  0  0  0  0  0  0
  188.5050  177.6510  147.1830 C   0  0  0  0  0  0  0  0  0  0  0  0
  187.7920  177.3900  144.8670 C   0  0  0  0  0  3  0  0  0  0  0  0
  191.3960  176.7580  145.0220 C   0  0  0  0  0  3  0  0  0  0  0  0
  191.2270  176.5090  143.3560 S   0  0  0  0  0  0  0  0  0  0  0  0
  188.1090  178.0050  148.8510 Cl  0  0  0  0  0  0  0  0  0  0  0  0
  189.5710  176.7910  143.2550 C   0  0  0  0  0  0  0  0  0  0  0  0
  187.4930  177.6710  146.2070 C   0  0  0  0  0  3  0  0  0  0  0  0
  190.1240  177.0700  145.4970 C   0  0  0  0  0  0  0  0  0  0  0  0
  189.1110  177.0900  144.5230 C   0  0  0  0  0  0  0  0  0  0  0  0
  189.8280  177.3490  146.8300 C   0  0  0  0  0  3  0  0  0  0  0  0
  1  4  1  6  0  0  0
  1  5  1  0  0  0  0
  2  6  1  0  0  0  0
  2  8  1  6  0  0  0
  3  1  1  0  0  0  0
  3  7  1  0  0  0  0
  5  2  1  0  0  0  0
  6 19  1  1  0  0  0
  7  6  1  0  0  0  0
  8 10  1  0  0  0  0
  9  8  2  0  0  0  0
 10 15  2  0  0  0  0
 10 12  1  0  0  0  0
 11 13  1  0  0  0  0
 12 11  2  0  0  0  0
 14 13  2  0  0  0  0
 15 14  1  0  0  0  0
 17 18  1  0  0  0  0
 18 16  1  0  0  0  0
 18 15  1  0  0  0  0
 19 20  1  0  0  0  0
 20 21  1  0  0  0  0
 21 27  1  0  0  0  0
 22 26  1  0  0  0  0
 23 28  2  0  0  0  0
 24 29  2  0  0  0  0
 25 24  1  0  0  0  0
 27 25  1  0  0  0  0
 27 30  2  0  0  0  0
 28 22  1  0  0  0  0
 29 31  1  0  0  0  0
 30 23  1  0  0  0  0
 30 29  1  0  0  0  0
 31 22  2  0  0  0  0
M  END
>  <MODEL>
2

>  <REMARK>
 VINA RESULT:      -8.9      3.345      7.141
  Name = 
  7 active torsions:
  status: ('A' for Active; 'I' for Inactive)
    1  A    between atoms: C_4  and  C_5
    2  A    between atoms: C_4  and  C_12
    3  A    between atoms: C_9  and  N_23
    4  A    between atoms: C_15  and  C_20
    5  A    between atoms: C_15  and  N_23
    6  A    between atoms: C_20  and  C_27
    7  A    between atoms: C_30  and  C_31
                            x       y       z     vdW  Elec       q    Type
                         _______ _______ _______ _____ _____    ______ ____

>  <TORSDO>
F 7

$$$$
=
 OpenBabel11052413093D

 31 34  0  0  1  0  0  0  0  0999 V2000
  190.7790  177.3550  146.1630 C   0  0  2  0  0  3  0  0  0  0  0  0
  188.8580  177.5500  144.5520 C   0  0  1  0  0  3  0  0  0  0  0  0
  191.7310  177.1510  144.9930 C   0  0  0  0  0  2  0  0  0  0  0  0
  191.2930  176.6030  147.3710 C   0  0  0  0  0  1  0  0  0  0  0  0
  189.3910  176.8410  145.7990 C   0  0  0  0  0  2  0  0  0  0  0  0
  189.8410  177.4380  143.3670 C   0  0  2  0  0  3  0  0  0  0  0  0
  191.2290  177.9220  143.7790 C   0  0  0  0  0  2  0  0  0  0  0  0
  187.4770  177.0500  144.2210 C   0  0  0  0  0  0  0  0  0  0  0  0
  187.3900  176.0410  143.4730 O   0  0  0  0  0  0  0  0  0  0  0  0
  186.2440  177.7190  144.7270 C   0  0  0  0  0  0  0  0  0  0  0  0
  184.9030  178.4100  146.6450 C   0  0  0  0  0  3  0  0  0  0  0  0
  186.0380  177.7960  146.1150 C   0  0  0  0  0  3  0  0  0  0  0  0
  183.9460  178.9550  145.7930 C   0  0  0  0  0  3  0  0  0  0  0  0
  184.1230  178.8840  144.4110 C   0  0  0  0  0  3  0  0  0  0  0  0
  185.2630  178.2720  143.8620 C   0  0  0  0  0  0  0  0  0  0  0  0
  186.0530  179.3960  141.7750 C   0  0  0  0  0  1  0  0  0  0  0  0
  184.0250  177.9480  141.7210 C   0  0  0  0  0  1  0  0  0  0  0  0
  185.3810  178.1700  142.3660 C   0  0  0  0  0  3  0  0  0  0  0  0
  189.3780  178.2820  142.1900 C   0  0  0  0  0  2  0  0  0  0  0  0
  189.0950  177.3950  140.9900 C   0  0  0  0  0  2  0  0  0  0  0  0
  190.2460  177.3750  140.1010 N   0  0  0  0  0  2  0  0  0  0  0  0
  193.0630  175.7290  136.0530 C   0  0  0  0  0  0  0  0  0  0  0  0
  192.5120  176.4260  138.3230 C   0  0  0  0  0  3  0  0  0  0  0  0
  189.4510  176.5750  136.3160 C   0  0  0  0  0  3  0  0  0  0  0  0
  188.7560  177.0960  137.7680 S   0  0  0  0  0  0  0  0  0  0  0  0
  194.2510  175.1770  134.8920 Cl  0  0  0  0  0  0  0  0  0  0  0  0
  190.1460  177.0350  138.7160 C   0  0  0  0  0  0  0  0  0  0  0  0
  193.4500  175.9830  137.3800 C   0  0  0  0  0  3  0  0  0  0  0  0
  190.7990  176.3530  136.5900 C   0  0  0  0  0  0  0  0  0  0  0  0
  191.1880  176.6070  137.9170 C   0  0  0  0  0  0  0  0  0  0  0  0
  191.7310  175.9130  135.6520 C   0  0  0  0  0  3  0  0  0  0  0  0
  1  4  1  1  0  0  0
  2  8  1  6  0  0  0
  2  5  1  0  0  0  0
  3  1  1  0  0  0  0
  5  1  1  0  0  0  0
  6 19  1  6  0  0  0
  6  7  1  0  0  0  0
  6  2  1  0  0  0  0
  7  3  1  0  0  0  0
  8 10  1  0  0  0  0
  9  8  2  0  0  0  0
 10 12  1  0  0  0  0
 12 11  2  0  0  0  0
 13 11  1  0  0  0  0
 14 13  2  0  0  0  0
 15 14  1  0  0  0  0
 15 10  2  0  0  0  0
 16 18  1  0  0  0  0
 17 18  1  0  0  0  0
 18 15  1  0  0  0  0
 20 19  1  0  0  0  0
 21 20  1  0  0  0  0
 22 28  1  0  0  0  0
 24 29  2  0  0  0  0
 24 25  1  0  0  0  0
 25 27  1  0  0  0  0
 26 22  1  0  0  0  0
 27 21  1  0  0  0  0
 28 23  2  0  0  0  0
 29 30  1  0  0  0  0
 30 23  1  0  0  0  0
 30 27  2  0  0  0  0
 31 22  2  0  0  0  0
 31 29  1  0  0  0  0
M  END
>  <MODEL>
3

>  <REMARK>
 VINA RESULT:      -8.6      2.566      3.402
  Name = 
  7 active torsions:
  status: ('A' for Active; 'I' for Inactive)
    1  A    between atoms: C_4  and  C_5
    2  A    between atoms: C_4  and  C_12
    3  A    between atoms: C_9  and  N_23
    4  A    between atoms: C_15  and  C_20
    5  A    between atoms: C_15  and  N_23
    6  A    between atoms: C_20  and  C_27
    7  A    between atoms: C_30  and  C_31
                            x       y       z     vdW  Elec       q    Type
                         _______ _______ _______ _____ _____    ______ ____

>  <TORSDO>
F 7

$$$$
=
 OpenBabel11052413093D

 31 34  0  0  1  0  0  0  0  0999 V2000
  188.2440  178.6040  140.5220 C   0  0  2  0  0  3  0  0  0  0  0  0
  187.6160  177.8760  142.8460 C   0  0  1  0  0  3  0  0  0  0  0  0
  186.7710  178.6270  140.1380 C   0  0  0  0  0  2  0  0  0  0  0  0
  189.0770  178.2490  139.3100 C   0  0  0  0  0  1  0  0  0  0  0  0
  188.4790  177.5730  141.6190 C   0  0  0  0  0  2  0  0  0  0  0  0
  186.1220  177.9930  142.4800 C   0  0  2  0  0  3  0  0  0  0  0  0
  185.9280  179.0030  141.3510 C   0  0  0  0  0  2  0  0  0  0  0  0
  187.8800  176.8640  143.9290 C   0  0  0  0  0  0  0  0  0  0  0  0
  187.8390  175.6470  143.6070 O   0  0  0  0  0  0  0  0  0  0  0  0
  188.1570  177.2580  145.3400 C   0  0  0  0  0  0  0  0  0  0  0  0
  187.2760  177.9810  147.4980 C   0  0  0  0  0  3  0  0  0  0  0  0
  187.0760  177.6040  146.1700 C   0  0  0  0  0  3  0  0  0  0  0  0
  188.5650  178.0230  148.0220 C   0  0  0  0  0  3  0  0  0  0  0  0
  189.6550  177.6940  147.2170 C   0  0  0  0  0  3  0  0  0  0  0  0
  189.4710  177.3080  145.8770 C   0  0  0  0  0  0  0  0  0  0  0  0
  191.7750  176.3430  145.8430 C   0  0  0  0  0  1  0  0  0  0  0  0
  191.2100  178.2780  144.3760 C   0  0  0  0  0  1  0  0  0  0  0  0
  190.6810  177.0160  145.0340 C   0  0  0  0  0  3  0  0  0  0  0  0
  185.3000  178.4550  143.6710 C   0  0  0  0  0  2  0  0  0  0  0  0
  184.1840  179.3780  143.2120 C   0  0  0  0  0  2  0  0  0  0  0  0
  182.9040  178.6930  143.2940 N   0  0  0  0  0  2  0  0  0  0  0  0
  181.7270  177.3550  138.4090 C   0  0  0  0  0  0  0  0  0  0  0  0
  182.9730  177.5200  140.4980 C   0  0  0  0  0  3  0  0  0  0  0  0
  179.8420  179.3790  140.8950 C   0  0  0  0  0  3  0  0  0  0  0  0
  180.4440  179.6790  142.4480 S   0  0  0  0  0  0  0  0  0  0  0  0
  181.6080  176.7580  136.7680 Cl  0  0  0  0  0  0  0  0  0  0  0  0
  181.8890  178.8300  142.2950 C   0  0  0  0  0  0  0  0  0  0  0  0
  182.8610  177.0510  139.1810 C   0  0  0  0  0  3  0  0  0  0  0  0
  180.8010  178.5990  140.2530 C   0  0  0  0  0  0  0  0  0  0  0  0
  181.9360  178.2930  141.0240 C   0  0  0  0  0  0  0  0  0  0  0  0
  180.6890  178.1320  138.9440 C   0  0  0  0  0  3  0  0  0  0  0  0
  1  4  1  6  0  0  0
  1  5  1  0  0  0  0
  2  8  1  1  0  0  0
  3  1  1  0  0  0  0
  3  7  1  0  0  0  0
  5  2  1  0  0  0  0
  6  2  1  0  0  0  0
  6 19  1  1  0  0  0
  7  6  1  0  0  0  0
  8 10  1  0  0  0  0
  9  8  2  0  0  0  0
 10 15  2  0  0  0  0
 10 12  1  0  0  0  0
 11 13  1  0  0  0  0
 12 11  2  0  0  0  0
 14 13  2  0  0  0  0
 15 14  1  0  0  0  0
 17 18  1  0  0  0  0
 18 16  1  0  0  0  0
 18 15  1  0  0  0  0
 20 21  1  0  0  0  0
 20 19  1  0  0  0  0
 22 31  2  0  0  0  0
 22 28  1  0  0  0  0
 23 30  1  0  0  0  0
 24 25  1  0  0  0  0
 26 22  1  0  0  0  0
 27 25  1  0  0  0  0
 27 21  1  0  0  0  0
 28 23  2  0  0  0  0
 29 24  2  0  0  0  0
 29 30  1  0  0  0  0
 30 27  2  0  0  0  0
 31 29  1  0  0  0  0
M  END
>  <MODEL>
4

>  <REMARK>
 VINA RESULT:      -8.6      3.076      5.897
  Name = 
  7 active torsions:
  status: ('A' for Active; 'I' for Inactive)
    1  A    between atoms: C_4  and  C_5
    2  A    between atoms: C_4  and  C_12
    3  A    between atoms: C_9  and  N_23
    4  A    between atoms: C_15  and  C_20
    5  A    between atoms: C_15  and  N_23
    6  A    between atoms: C_20  and  C_27
    7  A    between atoms: C_30  and  C_31
                            x       y       z     vdW  Elec       q    Type
                         _______ _______ _______ _____ _____    ______ ____

>  <TORSDO>
F 7

$$$$
=
 OpenBabel11052413093D

 31 34  0  0  1  0  0  0  0  0999 V2000
  184.3860  178.5670  143.8480 C   0  0  2  0  0  3  0  0  0  0  0  0
  186.5720  177.4540  143.2920 C   0  0  1  0  0  3  0  0  0  0  0  0
  184.8100  179.7870  143.0420 C   0  0  0  0  0  2  0  0  0  0  0  0
  183.4860  178.9990  144.9850 C   0  0  0  0  0  1  0  0  0  0  0  0
  185.6160  177.8650  144.4140 C   0  0  0  0  0  2  0  0  0  0  0  0
  186.9550  178.6520  142.3980 C   0  0  2  0  0  3  0  0  0  0  0  0
  185.7010  179.3550  141.8840 C   0  0  0  0  0  2  0  0  0  0  0  0
  187.7670  176.7410  143.8650 C   0  0  0  0  0  0  0  0  0  0  0  0
  188.2250  175.7630  143.2160 O   0  0  0  0  0  0  0  0  0  0  0  0
  188.3890  177.1400  145.1600 C   0  0  0  0  0  0  0  0  0  0  0  0
  188.1280  177.4880  147.5610 C   0  0  0  0  0  3  0  0  0  0  0  0
  187.5990  177.1240  146.3230 C   0  0  0  0  0  3  0  0  0  0  0  0
  189.4610  177.8790  147.6600 C   0  0  0  0  0  3  0  0  0  0  0  0
  190.2630  177.9120  146.5200 C   0  0  0  0  0  3  0  0  0  0  0  0
  189.7470  177.5450  145.2650 C   0  0  0  0  0  0  0  0  0  0  0  0
  191.6830  176.5520  144.0380 C   0  0  0  0  0  1  0  0  0  0  0  0
  191.2980  179.0140  143.9780 C   0  0  0  0  0  1  0  0  0  0  0  0
  190.6360  177.6500  144.0570 C   0  0  0  0  0  3  0  0  0  0  0  0
  187.7690  178.2020  141.1960 C   0  0  0  0  0  2  0  0  0  0  0  0
  186.9190  178.2540  139.9390 C   0  0  0  0  0  2  0  0  0  0  0  0
  187.7720  178.2780  138.7610 N   0  0  0  0  0  2  0  0  0  0  0  0
  191.8490  175.2120  137.7530 C   0  0  0  0  0  0  0  0  0  0  0  0
  190.5460  177.0560  138.6720 C   0  0  0  0  0  3  0  0  0  0  0  0
  188.3050  174.9830  136.6490 C   0  0  0  0  0  3  0  0  0  0  0  0
  187.1440  176.1220  137.1190 S   0  0  0  0  0  0  0  0  0  0  0  0
  193.3810  174.3820  137.5930 Cl  0  0  0  0  0  0  0  0  0  0  0  0
  188.1500  177.0910  138.0580 C   0  0  0  0  0  0  0  0  0  0  0  0
  191.7660  176.3790  138.5320 C   0  0  0  0  0  3  0  0  0  0  0  0
  189.5000  175.3820  137.2430 C   0  0  0  0  0  0  0  0  0  0  0  0
  189.4190  176.5480  138.0230 C   0  0  0  0  0  0  0  0  0  0  0  0
  190.7120  174.7070  137.1040 C   0  0  0  0  0  3  0  0  0  0  0  0
  1  5  1  0  0  0  0
  1  4  1  1  0  0  0
  2  8  1  1  0  0  0
  2  5  1  0  0  0  0
  3  1  1  0  0  0  0
  6 19  1  6  0  0  0
  6  2  1  0  0  0  0
  7  6  1  0  0  0  0
  7  3  1  0  0  0  0
  8 10  1  0  0  0  0
  9  8  2  0  0  0  0
 10 15  2  0  0  0  0
 10 12  1  0  0  0  0
 11 13  1  0  0  0  0
 12 11  2  0  0  0  0
 14 13  2  0  0  0  0
 15 14  1  0  0  0  0
 16 18  1  0  0  0  0
 17 18  1  0  0  0  0
 18 15  1  0  0  0  0
 20 19  1  0  0  0  0
 21 20  1  0  0  0  0
 22 28  1  0  0  0  0
 24 25  1  0  0  0  0
 24 29  2  0  0  0  0
 25 27  1  0  0  0  0
 26 22  1  0  0  0  0
 27 21  1  0  0  0  0
 28 23  2  0  0  0  0
 29 30  1  0  0  0  0
 30 27  2  0  0  0  0
 30 23  1  0  0  0  0
 31 29  1  0  0  0  0
 31 22  2  0  0  0  0
M  END
>  <MODEL>
5

>  <REMARK>
 VINA RESULT:      -8.4      2.546      5.064
  Name = 
  7 active torsions:
  status: ('A' for Active; 'I' for Inactive)
    1  A    between atoms: C_4  and  C_5
    2  A    between atoms: C_4  and  C_12
    3  A    between atoms: C_9  and  N_23
    4  A    between atoms: C_15  and  C_20
    5  A    between atoms: C_15  and  N_23
    6  A    between atoms: C_20  and  C_27
    7  A    between atoms: C_30  and  C_31
                            x       y       z     vdW  Elec       q    Type
                         _______ _______ _______ _____ _____    ______ ____

>  <TORSDO>
F 7

$$$$
=
 OpenBabel11052413093D

 31 34  0  0  1  0  0  0  0  0999 V2000
  190.9540  176.0420  138.3070 C   0  0  2  0  0  3  0  0  0  0  0  0
  188.8460  177.3870  138.5760 C   0  0  1  0  0  3  0  0  0  0  0  0
  191.5590  176.7630  139.5040 C   0  0  0  0  0  2  0  0  0  0  0  0
  192.0520  175.6650  137.3360 C   0  0  0  0  0  1  0  0  0  0  0  0
  189.9480  176.9490  137.6080 C   0  0  0  0  0  2  0  0  0  0  0  0
  189.4280  178.0450  139.8450 C   0  0  2  0  0  3  0  0  0  0  0  0
  190.4610  177.1280  140.4950 C   0  0  0  0  0  2  0  0  0  0  0  0
  187.8490  178.2610  137.8640 C   0  0  0  0  0  0  0  0  0  0  0  0
  188.2780  179.3200  137.3350 O   0  0  0  0  0  0  0  0  0  0  0  0
  186.3980  177.9210  137.7930 C   0  0  0  0  0  0  0  0  0  0  0  0
  184.1380  178.3120  138.6260 C   0  0  0  0  0  3  0  0  0  0  0  0
  185.5050  178.5890  138.6490 C   0  0  0  0  0  3  0  0  0  0  0  0
  183.6370  177.3550  137.7480 C   0  0  0  0  0  3  0  0  0  0  0  0
  184.5030  176.6720  136.8950 C   0  0  0  0  0  3  0  0  0  0  0  0
  185.8830  176.9410  136.9020 C   0  0  0  0  0  0  0  0  0  0  0  0
  186.2190  176.0340  134.5990 C   0  0  0  0  0  1  0  0  0  0  0  0
  187.0400  174.7570  136.5750 C   0  0  0  0  0  1  0  0  0  0  0  0
  186.7840  176.1390  136.0040 C   0  0  0  0  0  3  0  0  0  0  0  0
  188.3370  178.3250  140.8660 C   0  0  0  0  0  2  0  0  0  0  0  0
  188.8500  178.0480  142.2690 C   0  0  0  0  0  2  0  0  0  0  0  0
  187.9240  177.1770  142.9750 N   0  0  0  0  0  2  0  0  0  0  0  0
  183.0770  178.9670  143.5560 C   0  0  0  0  0  0  0  0  0  0  0  0
  185.0720  178.0780  142.4730 C   0  0  0  0  0  3  0  0  0  0  0  0
  185.7920  178.4550  146.0450 C   0  0  0  0  0  3  0  0  0  0  0  0
  187.3090  177.8480  145.6040 S   0  0  0  0  0  0  0  0  0  0  0  0
  181.4220  179.5250  143.4410 Cl  0  0  0  0  0  0  0  0  0  0  0  0
  187.0060  177.6610  143.9590 C   0  0  0  0  0  0  0  0  0  0  0  0
  183.7460  178.5300  142.4000 C   0  0  0  0  0  3  0  0  0  0  0  0
  185.0430  178.5100  144.8710 C   0  0  0  0  0  0  0  0  0  0  0  0
  185.7100  178.0730  143.7150 C   0  0  0  0  0  0  0  0  0  0  0  0
  183.7240  178.9580  144.8000 C   0  0  0  0  0  3  0  0  0  0  0  0
  1  4  1  6  0  0  0
  1  3  1  0  0  0  0
  2  8  1  6  0  0  0
  2  6  1  0  0  0  0
  3  7  1  0  0  0  0
  5  1  1  0  0  0  0
  5  2  1  0  0  0  0
  6  7  1  0  0  0  0
  6 19  1  1  0  0  0
  9  8  2  0  0  0  0
 10  8  1  0  0  0  0
 10 12  1  0  0  0  0
 11 12  2  0  0  0  0
 13 11  1  0  0  0  0
 14 15  1  0  0  0  0
 14 13  2  0  0  0  0
 15 10  2  0  0  0  0
 16 18  1  0  0  0  0
 18 17  1  0  0  0  0
 18 15  1  0  0  0  0
 19 20  1  0  0  0  0
 20 21  1  0  0  0  0
 21 27  1  0  0  0  0
 22 31  2  0  0  0  0
 23 30  1  0  0  0  0
 25 24  1  0  0  0  0
 26 22  1  0  0  0  0
 27 25  1  0  0  0  0
 28 23  2  0  0  0  0
 28 22  1  0  0  0  0
 29 24  2  0  0  0  0
 30 27  2  0  0  0  0
 30 29  1  0  0  0  0
 31 29  1  0  0  0  0
M  END
>  <MODEL>
6

>  <REMARK>
 VINA RESULT:      -8.4      3.221      7.012
  Name = 
  7 active torsions:
  status: ('A' for Active; 'I' for Inactive)
    1  A    between atoms: C_4  and  C_5
    2  A    between atoms: C_4  and  C_12
    3  A    between atoms: C_9  and  N_23
    4  A    between atoms: C_15  and  C_20
    5  A    between atoms: C_15  and  N_23
    6  A    between atoms: C_20  and  C_27
    7  A    between atoms: C_30  and  C_31
                            x       y       z     vdW  Elec       q    Type
                         _______ _______ _______ _____ _____    ______ ____

>  <TORSDO>
F 7

$$$$
=
 OpenBabel11052413093D

 31 34  0  0  1  0  0  0  0  0999 V2000
  190.9170  177.1480  146.1830 C   0  0  2  0  0  3  0  0  0  0  0  0
  189.1550  177.1430  144.3880 C   0  0  1  0  0  3  0  0  0  0  0  0
  191.8680  176.4200  145.2420 C   0  0  0  0  0  2  0  0  0  0  0  0
  191.2120  176.7440  147.6110 C   0  0  0  0  0  1  0  0  0  0  0  0
  189.4750  176.7900  145.8430 C   0  0  0  0  0  2  0  0  0  0  0  0
  190.1540  176.4920  143.4090 C   0  0  2  0  0  3  0  0  0  0  0  0
  191.5880  176.8370  143.8040 C   0  0  0  0  0  2  0  0  0  0  0  0
  187.7210  176.8080  144.0770 C   0  0  0  0  0  0  0  0  0  0  0  0
  187.5080  175.8530  143.2850 O   0  0  0  0  0  0  0  0  0  0  0  0
  186.5790  177.5770  144.6510 C   0  0  0  0  0  0  0  0  0  0  0  0
  185.4280  178.3970  146.6390 C   0  0  0  0  0  3  0  0  0  0  0  0
  186.4740  177.6910  146.0470 C   0  0  0  0  0  3  0  0  0  0  0  0
  184.4590  179.0020  145.8420 C   0  0  0  0  0  3  0  0  0  0  0  0
  184.5350  178.8960  144.4540 C   0  0  0  0  0  3  0  0  0  0  0  0
  185.5860  178.1910  143.8410 C   0  0  0  0  0  0  0  0  0  0  0  0
  186.5700  179.0270  141.7030 C   0  0  0  0  0  1  0  0  0  0  0  0
  184.2030  178.2500  141.7670 C   0  0  0  0  0  1  0  0  0  0  0  0
  185.5940  178.0580  142.3430 C   0  0  0  0  0  3  0  0  0  0  0  0
  189.9260  176.9810  141.9880 C   0  0  0  0  0  2  0  0  0  0  0  0
  191.2230  177.5160  141.4040 C   0  0  0  0  0  2  0  0  0  0  0  0
  191.2890  177.2180  139.9810 N   0  0  0  0  0  2  0  0  0  0  0  0
  188.7530  174.6940  136.2090 C   0  0  0  0  0  0  0  0  0  0  0  0
  190.4270  175.1720  137.9160 C   0  0  0  0  0  3  0  0  0  0  0  0
  188.0690  177.9740  137.8230 C   0  0  0  0  0  3  0  0  0  0  0  0
  189.0560  178.5920  139.0510 S   0  0  0  0  0  0  0  0  0  0  0  0
  188.1210  173.6260  134.9750 Cl  0  0  0  0  0  0  0  0  0  0  0  0
  190.1540  177.3170  139.1180 C   0  0  0  0  0  0  0  0  0  0  0  0
  189.9070  174.3290  136.9230 C   0  0  0  0  0  3  0  0  0  0  0  0
  188.6210  176.7460  137.4650 C   0  0  0  0  0  0  0  0  0  0  0  0
  189.7750  176.3790  138.1790 C   0  0  0  0  0  0  0  0  0  0  0  0
  188.1030  175.9080  136.4790 C   0  0  0  0  0  3  0  0  0  0  0  0
  1  4  1  1  0  0  0
  2  8  1  6  0  0  0
  2  5  1  0  0  0  0
  3  1  1  0  0  0  0
  5  1  1  0  0  0  0
  6 19  1  6  0  0  0
  6  7  1  0  0  0  0
  6  2  1  0  0  0  0
  7  3  1  0  0  0  0
  8 10  1  0  0  0  0
  9  8  2  0  0  0  0
 10 12  1  0  0  0  0
 12 11  2  0  0  0  0
 13 11  1  0  0  0  0
 14 13  2  0  0  0  0
 15 14  1  0  0  0  0
 15 10  2  0  0  0  0
 16 18  1  0  0  0  0
 17 18  1  0  0  0  0
 18 15  1  0  0  0  0
 20 19  1  0  0  0  0
 21 20  1  0  0  0  0
 22 31  2  0  0  0  0
 22 28  1  0  0  0  0
 23 30  1  0  0  0  0
 24 25  1  0  0  0  0
 25 27  1  0  0  0  0
 26 22  1  0  0  0  0
 27 21  1  0  0  0  0
 28 23  2  0  0  0  0
 29 24  2  0  0  0  0
 29 30  1  0  0  0  0
 30 27  2  0  0  0  0
 31 29  1  0  0  0  0
M  END
>  <MODEL>
7

>  <REMARK>
 VINA RESULT:      -8.3      1.680      2.255
  Name = 
  7 active torsions:
  status: ('A' for Active; 'I' for Inactive)
    1  A    between atoms: C_4  and  C_5
    2  A    between atoms: C_4  and  C_12
    3  A    between atoms: C_9  and  N_23
    4  A    between atoms: C_15  and  C_20
    5  A    between atoms: C_15  and  N_23
    6  A    between atoms: C_20  and  C_27
    7  A    between atoms: C_30  and  C_31
                            x       y       z     vdW  Elec       q    Type
                         _______ _______ _______ _____ _____    ______ ____

>  <TORSDO>
F 7

$$$$
=
 OpenBabel11052413093D

 31 34  0  0  1  0  0  0  0  0999 V2000
  184.5740  178.4730  143.3890 C   0  0  2  0  0  3  0  0  0  0  0  0
  186.8120  177.3320  143.2680 C   0  0  1  0  0  3  0  0  0  0  0  0
  185.0500  179.5000  142.3690 C   0  0  0  0  0  2  0  0  0  0  0  0
  183.5760  179.1170  144.3260 C   0  0  0  0  0  1  0  0  0  0  0  0
  185.7590  177.9500  144.1920 C   0  0  0  0  0  2  0  0  0  0  0  0
  187.2550  178.3170  142.1660 C   0  0  2  0  0  3  0  0  0  0  0  0
  186.0400  178.8510  141.4100 C   0  0  0  0  0  2  0  0  0  0  0  0
  187.9620  176.7980  144.0780 C   0  0  0  0  0  0  0  0  0  0  0  0
  188.6990  175.9320  143.5380 O   0  0  0  0  0  0  0  0  0  0  0  0
  188.2270  177.2420  145.4780 C   0  0  0  0  0  0  0  0  0  0  0  0
  187.3280  178.0340  147.6030 C   0  0  0  0  0  3  0  0  0  0  0  0
  187.1390  177.6120  146.2870 C   0  0  0  0  0  3  0  0  0  0  0  0
  188.6130  178.1000  148.1350 C   0  0  0  0  0  3  0  0  0  0  0  0
  189.7100  177.7470  147.3500 C   0  0  0  0  0  3  0  0  0  0  0  0
  189.5370  177.3150  146.0230 C   0  0  0  0  0  0  0  0  0  0  0  0
  191.8400  176.3480  146.0360 C   0  0  0  0  0  1  0  0  0  0  0  0
  191.2910  178.2410  144.5110 C   0  0  0  0  0  1  0  0  0  0  0  0
  190.7550  176.9990  145.1990 C   0  0  0  0  0  3  0  0  0  0  0  0
  188.1730  177.6390  141.1620 C   0  0  0  0  0  2  0  0  0  0  0  0
  188.9920  178.6780  140.4160 C   0  0  0  0  0  2  0  0  0  0  0  0
  188.5910  178.7200  139.0190 N   0  0  0  0  0  2  0  0  0  0  0  0
  184.7590  176.2010  136.5680 C   0  0  0  0  0  0  0  0  0  0  0  0
  185.9050  177.9250  137.8550 C   0  0  0  0  0  3  0  0  0  0  0  0
  188.3490  175.3330  137.0010 C   0  0  0  0  0  3  0  0  0  0  0  0
  189.4160  176.3320  137.8540 S   0  0  0  0  0  0  0  0  0  0  0  0
  183.2900  175.5930  135.8370 Cl  0  0  0  0  0  0  0  0  0  0  0  0
  188.3160  177.5400  138.2590 C   0  0  0  0  0  0  0  0  0  0  0  0
  184.7380  177.4220  137.2640 C   0  0  0  0  0  3  0  0  0  0  0  0
  187.1090  175.9670  137.0430 C   0  0  0  0  0  0  0  0  0  0  0  0
  187.0860  177.1890  137.7380 C   0  0  0  0  0  0  0  0  0  0  0  0
  185.9490  175.4670  136.4540 C   0  0  0  0  0  3  0  0  0  0  0  0
  1  5  1  0  0  0  0
  1  4  1  1  0  0  0
  2  8  1  1  0  0  0
  2  5  1  0  0  0  0
  3  1  1  0  0  0  0
  6 19  1  6  0  0  0
  6  2  1  0  0  0  0
  7  6  1  0  0  0  0
  7  3  1  0  0  0  0
  8 10  1  0  0  0  0
  9  8  2  0  0  0  0
 10 15  2  0  0  0  0
 10 12  1  0  0  0  0
 11 13  1  0  0  0  0
 12 11  2  0  0  0  0
 14 13  2  0  0  0  0
 15 14  1  0  0  0  0
 17 18  1  0  0  0  0
 18 15  1  0  0  0  0
 18 16  1  0  0  0  0
 20 19  1  0  0  0  0
 21 20  1  0  0  0  0
 22 28  1  0  0  0  0
 24 29  2  0  0  0  0
 24 25  1  0  0  0  0
 25 27  1  0  0  0  0
 26 22  1  0  0  0  0
 27 21  1  0  0  0  0
 28 23  2  0  0  0  0
 29 30  1  0  0  0  0
 30 23  1  0  0  0  0
 30 27  2  0  0  0  0
 31 22  2  0  0  0  0
 31 29  1  0  0  0  0
M  END
>  <MODEL>
8

>  <REMARK>
 VINA RESULT:      -8.2      1.269      4.151
  Name = 
  7 active torsions:
  status: ('A' for Active; 'I' for Inactive)
    1  A    between atoms: C_4  and  C_5
    2  A    between atoms: C_4  and  C_12
    3  A    between atoms: C_9  and  N_23
    4  A    between atoms: C_15  and  C_20
    5  A    between atoms: C_15  and  N_23
    6  A    between atoms: C_20  and  C_27
    7  A    between atoms: C_30  and  C_31
                            x       y       z     vdW  Elec       q    Type
                         _______ _______ _______ _____ _____    ______ ____

>  <TORSDO>
F 7

$$$$
=
 OpenBabel11052413093D

 31 34  0  0  1  0  0  0  0  0999 V2000
  190.6780  175.7330  136.7320 C   0  0  2  0  0  3  0  0  0  0  0  0
  189.0490  177.1890  137.9780 C   0  0  1  0  0  3  0  0  0  0  0  0
  191.7640  176.1040  137.7330 C   0  0  0  0  0  2  0  0  0  0  0  0
  191.3030  175.4740  135.3790 C   0  0  0  0  0  1  0  0  0  0  0  0
  189.6690  176.8690  136.6150 C   0  0  0  0  0  2  0  0  0  0  0  0
  190.1270  177.4850  139.0420 C   0  0  2  0  0  3  0  0  0  0  0  0
  191.1420  176.3460  139.1020 C   0  0  0  0  0  2  0  0  0  0  0  0
  188.0380  178.2950  137.8400 C   0  0  0  0  0  0  0  0  0  0  0  0
  188.4620  179.4280  137.4910 O   0  0  0  0  0  0  0  0  0  0  0  0
  186.5870  178.0910  138.1250 C   0  0  0  0  0  0  0  0  0  0  0  0
  184.7000  178.4680  139.6230 C   0  0  0  0  0  3  0  0  0  0  0  0
  186.0480  178.6280  139.3060 C   0  0  0  0  0  3  0  0  0  0  0  0
  183.8620  177.7610  138.7640 C   0  0  0  0  0  3  0  0  0  0  0  0
  184.3750  177.2110  137.5900 C   0  0  0  0  0  3  0  0  0  0  0  0
  185.7310  177.3660  137.2530 C   0  0  0  0  0  0  0  0  0  0  0  0
  185.4150  177.0810  134.7920 C   0  0  0  0  0  1  0  0  0  0  0  0
  186.3060  175.1990  136.1620 C   0  0  0  0  0  1  0  0  0  0  0  0
  186.2480  176.7080  136.0040 C   0  0  0  0  0  3  0  0  0  0  0  0
  189.5080  177.6380  140.4210 C   0  0  0  0  0  2  0  0  0  0  0  0
  190.5620  177.4280  141.4950 C   0  0  0  0  0  2  0  0  0  0  0  0
  190.0920  176.4580  142.4720 N   0  0  0  0  0  2  0  0  0  0  0  0
  186.5770  177.8900  146.0260 C   0  0  0  0  0  0  0  0  0  0  0  0
  187.5210  177.2510  143.8710 C   0  0  0  0  0  3  0  0  0  0  0  0
  190.2250  177.2400  146.3410 C   0  0  0  0  0  3  0  0  0  0  0  0
  191.1710  176.7770  145.0160 S   0  0  0  0  0  0  0  0  0  0  0  0
  185.1910  178.3640  146.9830 Cl  0  0  0  0  0  0  0  0  0  0  0  0
  189.9480  176.7700  143.8600 C   0  0  0  0  0  0  0  0  0  0  0  0
  186.4210  177.6320  144.6530 C   0  0  0  0  0  3  0  0  0  0  0  0
  188.9280  177.3920  145.8560 C   0  0  0  0  0  0  0  0  0  0  0  0
  188.7700  177.1340  144.4830 C   0  0  0  0  0  0  0  0  0  0  0  0
  187.8350  177.7700  146.6340 C   0  0  0  0  0  3  0  0  0  0  0  0
  1  4  1  6  0  0  0
  1  3  1  0  0  0  0
  2  8  1  6  0  0  0
  2  6  1  0  0  0  0
  3  7  1  0  0  0  0
  5  1  1  0  0  0  0
  5  2  1  0  0  0  0
  6  7  1  0  0  0  0
  6 19  1  1  0  0  0
  8 10  1  0  0  0  0
  9  8  2  0  0  0  0
 10 12  1  0  0  0  0
 12 11  2  0  0  0  0
 13 11  1  0  0  0  0
 14 13  2  0  0  0  0
 15 14  1  0  0  0  0
 15 10  2  0  0  0  0
 16 18  1  0  0  0  0
 18 17  1  0  0  0  0
 18 15  1  0  0  0  0
 19 20  1  0  0  0  0
 20 21  1  0  0  0  0
 21 27  1  0  0  0  0
 22 31  2  0  0  0  0
 22 26  1  0  0  0  0
 23 30  1  0  0  0  0
 23 28  2  0  0  0  0
 25 24  1  0  0  0  0
 27 30  2  0  0  0  0
 27 25  1  0  0  0  0
 28 22  1  0  0  0  0
 29 24  2  0  0  0  0
 29 31  1  0  0  0  0
 30 29  1  0  0  0  0
M  END
>  <MODEL>
9

>  <REMARK>
 VINA RESULT:      -8.1      3.209      7.511
  Name = 
  7 active torsions:
  status: ('A' for Active; 'I' for Inactive)
    1  A    between atoms: C_4  and  C_5
    2  A    between atoms: C_4  and  C_12
    3  A    between atoms: C_9  and  N_23
    4  A    between atoms: C_15  and  C_20
    5  A    between atoms: C_15  and  N_23
    6  A    between atoms: C_20  and  C_27
    7  A    between atoms: C_30  and  C_31
                            x       y       z     vdW  Elec       q    Type
                         _______ _______ _______ _____ _____    ______ ____

>  <TORSDO>
F 7

$$$$
