=
 OpenBabel11052412413D

 25 28  0  0  1  0  0  0  0  0999 V2000
  187.2620  177.8790  145.4590 C   0  0  0  0  0  0  0  0  0  0  0  0
  188.5750  177.3820  145.2220 C   0  0  0  0  0  0  0  0  0  0  0  0
  187.7670  177.8830  147.8480 C   0  0  0  0  0  3  0  0  0  0  0  0
  186.3010  178.1570  144.4450 C   0  0  0  0  0  0  0  0  0  0  0  0
  184.1070  178.8230  143.6460 C   0  0  0  0  0  2  0  0  0  0  0  0
  189.0090  177.4070  147.5910 N   0  0  0  0  0  0  0  0  0  0  0  0
  184.6780  178.8610  146.1010 C   0  0  0  0  0  3  0  0  0  0  0  0
  185.0380  178.6190  144.7790 C   0  0  0  0  0  0  0  0  0  0  0  0
  190.7390  176.6540  146.1180 C   0  0  0  0  0  0  0  0  0  0  0  0
  191.6640  176.3960  147.2580 C   0  0  0  0  0  1  0  0  0  0  0  0
  189.0570  177.1060  143.9340 C   0  0  0  0  0  3  0  0  0  0  0  0
  184.6820  178.0290  142.4830 C   0  0  0  0  0  2  0  0  0  0  0  0
  186.8770  178.1250  146.8070 C   0  0  0  0  0  0  0  0  0  0  0  0
  185.6020  178.6150  147.1150 C   0  0  0  0  0  3  0  0  0  0  0  0
  191.1840  176.3890  144.8220 C   0  0  0  0  0  3  0  0  0  0  0  0
  186.4950  177.9500  142.6740 S   0  0  0  0  0  0  0  0  0  0  0  0
  190.3490  176.6210  143.7310 C   0  0  0  0  0  0  0  0  0  0  0  0
  189.4380  177.1510  146.3270 C   0  0  0  0  0  0  0  0  0  0  0  0
  190.8210  176.3130  142.3520 C   0  0  0  0  0  2  0  0  0  0  0  0
  190.6250  177.4690  141.4910 N   0  0  0  0  0  0  0  0  0  0  0  0
  191.8430  177.6230  140.7140 C   0  0  0  0  0  1  0  0  0  0  0  0
  189.5740  177.1190  140.5500 C   0  0  0  0  0  2  0  0  0  0  0  0
  189.5560  176.9550  138.1330 N   0  0  0  0  0  1  0  0  0  0  0  0
  189.7760  177.8630  139.2420 C   0  0  1  0  0  3  0  0  0  0  0  0
  188.8770  178.9260  139.1550 O   0  0  0  0  0  1  0  0  0  0  0  0
  1 13  1  0  0  0  0
  2  1  2  0  0  0  0
  2 18  1  0  0  0  0
  4  8  2  0  0  0  0
  4  1  1  0  0  0  0
  5  8  1  0  0  0  0
  6  3  1  0  0  0  0
  7 14  2  0  0  0  0
  8  7  1  0  0  0  0
  9 18  1  0  0  0  0
  9 10  1  0  0  0  0
 11  2  1  0  0  0  0
 12 16  1  0  0  0  0
 12  5  1  0  0  0  0
 13 14  1  0  0  0  0
 13  3  2  0  0  0  0
 15  9  2  0  0  0  0
 16  4  1  0  0  0  0
 17 11  2  0  0  0  0
 17 15  1  0  0  0  0
 18  6  2  0  0  0  0
 19 17  1  0  0  0  0
 20 19  1  0  0  0  0
 21 20  1  0  0  0  0
 22 20  1  0  0  0  0
 24 23  1  6  0  0  0
 24 22  1  0  0  0  0
 25 24  1  0  0  0  0
M  END
>  <MODEL>
1

>  <REMARK>
 VINA RESULT:      -9.9      0.000      0.000
  Name = 
  4 active torsions:
  status: ('A' for Active; 'I' for Inactive)
    1  A    between atoms: C_6  and  N_15
    2  A    between atoms: C_6  and  C_23
    3  A    between atoms: C_7  and  C_21
    4  A    between atoms: N_15  and  C_21
                            x       y       z     vdW  Elec       q    Type
                         _______ _______ _______ _____ _____    ______ ____

>  <TORSDO>
F 4

$$$$
=
 OpenBabel11052412413D

 25 28  0  0  1  0  0  0  0  0999 V2000
  187.0210  177.8660  144.7620 C   0  0  0  0  0  0  0  0  0  0  0  0
  188.1310  177.4020  144.0010 C   0  0  0  0  0  0  0  0  0  0  0  0
  188.3390  177.4980  146.7840 C   0  0  0  0  0  3  0  0  0  0  0  0
  185.7830  178.3050  144.2110 C   0  0  0  0  0  0  0  0  0  0  0  0
  183.4940  179.1050  144.3580 C   0  0  0  0  0  2  0  0  0  0  0  0
  189.3770  177.0570  146.0330 N   0  0  0  0  0  0  0  0  0  0  0  0
  184.9000  178.7590  146.4220 C   0  0  0  0  0  3  0  0  0  0  0  0
  184.7520  178.7210  145.0390 C   0  0  0  0  0  0  0  0  0  0  0  0
  190.4210  176.5260  143.9450 C   0  0  0  0  0  0  0  0  0  0  0  0
  191.6720  176.0880  144.6280 C   0  0  0  0  0  1  0  0  0  0  0  0
  188.1060  177.3230  142.6010 C   0  0  0  0  0  3  0  0  0  0  0  0
  183.5680  178.4950  142.9660 C   0  0  0  0  0  2  0  0  0  0  0  0
  187.1540  177.9050  146.1780 C   0  0  0  0  0  0  0  0  0  0  0  0
  186.1050  178.3520  146.9900 C   0  0  0  0  0  3  0  0  0  0  0  0
  190.3600  176.4600  142.5530 C   0  0  0  0  0  3  0  0  0  0  0  0
  185.3230  178.3730  142.4790 S   0  0  0  0  0  0  0  0  0  0  0  0
  189.2090  176.8650  141.8800 C   0  0  0  0  0  0  0  0  0  0  0  0
  189.3130  176.9950  144.6770 C   0  0  0  0  0  0  0  0  0  0  0  0
  189.1410  176.7690  140.3950 C   0  0  0  0  0  2  0  0  0  0  0  0
  189.9810  177.7920  139.7930 N   0  0  0  0  0  0  0  0  0  0  0  0
  190.8970  177.1090  138.8960 C   0  0  0  0  0  1  0  0  0  0  0  0
  189.1150  178.6100  138.9580 C   0  0  0  0  0  2  0  0  0  0  0  0
  186.6970  178.5250  138.8370 N   0  0  0  0  0  1  0  0  0  0  0  0
  187.9110  177.8030  138.5080 C   0  0  1  0  0  3  0  0  0  0  0  0
  187.9660  177.5950  137.1300 O   0  0  0  0  0  1  0  0  0  0  0  0
  1 13  1  0  0  0  0
  2 18  1  0  0  0  0
  2  1  1  0  0  0  0
  4  1  2  0  0  0  0
  4  8  1  0  0  0  0
  5  8  1  0  0  0  0
  6  3  2  0  0  0  0
  7 14  1  0  0  0  0
  8  7  2  0  0  0  0
  9 10  1  0  0  0  0
  9 18  2  0  0  0  0
 11  2  2  0  0  0  0
 12  5  1  0  0  0  0
 13  3  1  0  0  0  0
 13 14  2  0  0  0  0
 15  9  1  0  0  0  0
 16 12  1  0  0  0  0
 16  4  1  0  0  0  0
 17 15  2  0  0  0  0
 17 11  1  0  0  0  0
 18  6  1  0  0  0  0
 19 17  1  0  0  0  0
 20 19  1  0  0  0  0
 21 20  1  0  0  0  0
 22 20  1  0  0  0  0
 24 25  1  6  0  0  0
 24 23  1  0  0  0  0
 24 22  1  0  0  0  0
M  END
>  <MODEL>
2

>  <REMARK>
 VINA RESULT:      -9.3      1.346      1.809
  Name = 
  4 active torsions:
  status: ('A' for Active; 'I' for Inactive)
    1  A    between atoms: C_6  and  N_15
    2  A    between atoms: C_6  and  C_23
    3  A    between atoms: C_7  and  C_21
    4  A    between atoms: N_15  and  C_21
                            x       y       z     vdW  Elec       q    Type
                         _______ _______ _______ _____ _____    ______ ____

>  <TORSDO>
F 4

$$$$
=
 OpenBabel11052412413D

 25 28  0  0  1  0  0  0  0  0999 V2000
  185.9060  178.4220  144.3930 C   0  0  0  0  0  0  0  0  0  0  0  0
  187.0440  178.0680  145.1710 C   0  0  0  0  0  0  0  0  0  0  0  0
  184.6120  178.5380  146.4600 C   0  0  0  0  0  3  0  0  0  0  0  0
  185.9020  178.5690  142.9750 C   0  0  0  0  0  0  0  0  0  0  0  0
  184.8380  178.9710  140.8300 C   0  0  0  0  0  2  0  0  0  0  0  0
  185.7120  178.1960  147.1730 N   0  0  0  0  0  0  0  0  0  0  0  0
  183.5440  179.1290  142.9880 C   0  0  0  0  0  3  0  0  0  0  0  0
  184.7340  178.8970  142.3050 C   0  0  0  0  0  0  0  0  0  0  0  0
  188.0230  177.6030  147.3710 C   0  0  0  0  0  0  0  0  0  0  0  0
  187.9130  177.4760  148.8520 C   0  0  0  0  0  1  0  0  0  0  0  0
  188.3000  177.8170  144.6000 C   0  0  0  0  0  3  0  0  0  0  0  0
  186.1070  178.2180  140.4610 C   0  0  0  0  0  2  0  0  0  0  0  0
  184.6790  178.6560  145.0750 C   0  0  0  0  0  0  0  0  0  0  0  0
  183.5200  179.0100  144.3760 C   0  0  0  0  0  3  0  0  0  0  0  0
  189.2580  177.3590  146.7680 C   0  0  0  0  0  3  0  0  0  0  0  0
  187.2810  178.3440  141.8530 S   0  0  0  0  0  0  0  0  0  0  0  0
  189.4000  177.4730  145.3870 C   0  0  0  0  0  0  0  0  0  0  0  0
  186.9130  177.9590  146.5820 C   0  0  0  0  0  0  0  0  0  0  0  0
  190.7140  177.1860  144.7460 C   0  0  0  0  0  2  0  0  0  0  0  0
  190.8310  177.9290  143.5010 N   0  0  0  0  0  0  0  0  0  0  0  0
  191.5750  179.1390  143.8040 C   0  0  0  0  0  1  0  0  0  0  0  0
  191.6690  177.1370  142.6150 C   0  0  0  0  0  2  0  0  0  0  0  0
  192.4650  177.4980  140.3560 N   0  0  0  0  0  1  0  0  0  0  0  0
  191.2700  177.3750  141.1700 C   0  0  1  0  0  3  0  0  0  0  0  0
  190.5030  176.3060  140.7070 O   0  0  0  0  0  1  0  0  0  0  0  0
  1 13  1  0  0  0  0
  1  2  2  0  0  0  0
  2 18  1  0  0  0  0
  3  6  1  0  0  0  0
  4  1  1  0  0  0  0
  5  8  1  0  0  0  0
  7 14  2  0  0  0  0
  8  4  2  0  0  0  0
  8  7  1  0  0  0  0
  9 10  1  0  0  0  0
 11  2  1  0  0  0  0
 11 17  2  0  0  0  0
 12  5  1  0  0  0  0
 12 16  1  0  0  0  0
 13  3  2  0  0  0  0
 14 13  1  0  0  0  0
 15  9  2  0  0  0  0
 16  4  1  0  0  0  0
 17 15  1  0  0  0  0
 18  6  2  0  0  0  0
 18  9  1  0  0  0  0
 19 17  1  0  0  0  0
 20 21  1  0  0  0  0
 20 19  1  0  0  0  0
 22 20  1  0  0  0  0
 24 23  1  6  0  0  0
 24 22  1  0  0  0  0
 25 24  1  0  0  0  0
M  END
>  <MODEL>
3

>  <REMARK>
 VINA RESULT:      -9.3      1.707      2.816
  Name = 
  4 active torsions:
  status: ('A' for Active; 'I' for Inactive)
    1  A    between atoms: C_6  and  N_15
    2  A    between atoms: C_6  and  C_23
    3  A    between atoms: C_7  and  C_21
    4  A    between atoms: N_15  and  C_21
                            x       y       z     vdW  Elec       q    Type
                         _______ _______ _______ _____ _____    ______ ____

>  <TORSDO>
F 4

$$$$
=
 OpenBabel11052412413D

 25 28  0  0  1  0  0  0  0  0999 V2000
  186.0150  178.1200  144.5040 C   0  0  0  0  0  0  0  0  0  0  0  0
  187.3590  177.6490  144.4800 C   0  0  0  0  0  0  0  0  0  0  0  0
  186.2180  178.3790  146.9230 C   0  0  0  0  0  3  0  0  0  0  0  0
  185.1830  178.2620  143.3560 C   0  0  0  0  0  0  0  0  0  0  0  0
  183.0900  178.7680  142.2320 C   0  0  0  0  0  2  0  0  0  0  0  0
  187.4930  177.9240  146.8700 N   0  0  0  0  0  0  0  0  0  0  0  0
  183.3500  179.0700  144.7220 C   0  0  0  0  0  3  0  0  0  0  0  0
  183.8780  178.7110  143.4850 C   0  0  0  0  0  0  0  0  0  0  0  0
  189.4100  177.0890  145.7030 C   0  0  0  0  0  0  0  0  0  0  0  0
  190.1910  176.9790  146.9680 C   0  0  0  0  0  1  0  0  0  0  0  0
  188.0030  177.2630  143.2960 C   0  0  0  0  0  3  0  0  0  0  0  0
  183.8230  177.8820  141.2350 C   0  0  0  0  0  2  0  0  0  0  0  0
  185.4590  178.4860  145.7620 C   0  0  0  0  0  0  0  0  0  0  0  0
  184.1460  178.9580  145.8600 C   0  0  0  0  0  3  0  0  0  0  0  0
  190.0180  176.7120  144.5050 C   0  0  0  0  0  3  0  0  0  0  0  0
  185.6000  177.8870  141.6530 S   0  0  0  0  0  0  0  0  0  0  0  0
  189.3210  176.8060  143.3030 C   0  0  0  0  0  0  0  0  0  0  0  0
  188.0820  177.5580  145.7000 C   0  0  0  0  0  0  0  0  0  0  0  0
  189.9680  176.3780  142.0300 C   0  0  0  0  0  2  0  0  0  0  0  0
  190.4800  177.5400  141.3200 N   0  0  0  0  0  0  0  0  0  0  0  0
  191.9250  177.5130  141.4600 C   0  0  0  0  0  1  0  0  0  0  0  0
  190.1950  177.3300  139.9100 C   0  0  0  0  0  2  0  0  0  0  0  0
  189.0560  179.0590  138.6520 N   0  0  0  0  0  1  0  0  0  0  0  0
  188.8520  177.9400  139.5530 C   0  0  1  0  0  3  0  0  0  0  0  0
  188.0470  176.9860  138.9290 O   0  0  0  0  0  1  0  0  0  0  0  0
  1 13  1  0  0  0  0
  2  1  2  0  0  0  0
  2 18  1  0  0  0  0
  4  8  2  0  0  0  0
  4  1  1  0  0  0  0
  5  8  1  0  0  0  0
  6  3  1  0  0  0  0
  7 14  2  0  0  0  0
  8  7  1  0  0  0  0
  9 10  1  0  0  0  0
 11 17  2  0  0  0  0
 11  2  1  0  0  0  0
 12 16  1  0  0  0  0
 12  5  1  0  0  0  0
 13 14  1  0  0  0  0
 13  3  2  0  0  0  0
 15  9  2  0  0  0  0
 16  4  1  0  0  0  0
 17 15  1  0  0  0  0
 18  9  1  0  0  0  0
 18  6  2  0  0  0  0
 19 17  1  0  0  0  0
 20 21  1  0  0  0  0
 20 19  1  0  0  0  0
 22 20  1  0  0  0  0
 24 23  1  6  0  0  0
 24 22  1  0  0  0  0
 25 24  1  0  0  0  0
M  END
>  <MODEL>
4

>  <REMARK>
 VINA RESULT:      -9.1      1.157      1.534
  Name = 
  4 active torsions:
  status: ('A' for Active; 'I' for Inactive)
    1  A    between atoms: C_6  and  N_15
    2  A    between atoms: C_6  and  C_23
    3  A    between atoms: C_7  and  C_21
    4  A    between atoms: N_15  and  C_21
                            x       y       z     vdW  Elec       q    Type
                         _______ _______ _______ _____ _____    ______ ____

>  <TORSDO>
F 4

$$$$
=
 OpenBabel11052412413D

 25 28  0  0  1  0  0  0  0  0999 V2000
  187.0080  177.9160  144.6860 C   0  0  0  0  0  0  0  0  0  0  0  0
  188.2950  177.5550  144.1970 C   0  0  0  0  0  0  0  0  0  0  0  0
  187.8470  177.5730  146.9530 C   0  0  0  0  0  3  0  0  0  0  0  0
  185.9010  178.2850  143.8690 C   0  0  0  0  0  0  0  0  0  0  0  0
  183.5860  178.9180  143.4930 C   0  0  0  0  0  2  0  0  0  0  0  0
  189.0610  177.2310  146.4580 N   0  0  0  0  0  0  0  0  0  0  0  0
  184.5000  178.6030  145.8220 C   0  0  0  0  0  3  0  0  0  0  0  0
  184.6780  178.6010  144.4420 C   0  0  0  0  0  0  0  0  0  0  0  0
  190.5950  176.8430  144.6620 C   0  0  0  0  0  0  0  0  0  0  0  0
  191.6840  176.4710  145.6090 C   0  0  0  0  0  1  0  0  0  0  0  0
  188.6010  177.5220  142.8280 C   0  0  0  0  0  3  0  0  0  0  0  0
  184.0260  178.3610  142.1470 C   0  0  0  0  0  2  0  0  0  0  0  0
  186.8070  177.9170  146.0950 C   0  0  0  0  0  0  0  0  0  0  0  0
  185.5690  178.2620  146.6470 C   0  0  0  0  0  3  0  0  0  0  0  0
  190.8630  176.8200  143.2920 C   0  0  0  0  0  3  0  0  0  0  0  0
  185.8490  178.3780  142.0800 S   0  0  0  0  0  0  0  0  0  0  0  0
  189.8710  177.1660  142.3770 C   0  0  0  0  0  0  0  0  0  0  0  0
  189.3170  177.2100  145.1220 C   0  0  0  0  0  0  0  0  0  0  0  0
  190.1550  177.1140  140.9150 C   0  0  0  0  0  2  0  0  0  0  0  0
  188.9220  177.2860  140.1640 N   0  0  0  0  0  0  0  0  0  0  0  0
  188.8410  178.6920  139.8070 C   0  0  0  0  0  1  0  0  0  0  0  0
  189.0800  176.5500  138.9200 C   0  0  0  0  0  2  0  0  0  0  0  0
  190.8060  174.9570  138.3270 N   0  0  0  0  0  1  0  0  0  0  0  0
  190.5540  176.3570  138.6130 C   0  0  1  0  0  3  0  0  0  0  0  0
  190.9150  177.1270  137.5080 O   0  0  0  0  0  1  0  0  0  0  0  0
  1 13  1  0  0  0  0
  2  1  2  0  0  0  0
  2 18  1  0  0  0  0
  4  8  2  0  0  0  0
  4  1  1  0  0  0  0
  5  8  1  0  0  0  0
  6  3  1  0  0  0  0
  7 14  2  0  0  0  0
  8  7  1  0  0  0  0
  9 18  1  0  0  0  0
  9 10  1  0  0  0  0
 11  2  1  0  0  0  0
 12  5  1  0  0  0  0
 13 14  1  0  0  0  0
 13  3  2  0  0  0  0
 15  9  2  0  0  0  0
 16 12  1  0  0  0  0
 16  4  1  0  0  0  0
 17 11  2  0  0  0  0
 17 15  1  0  0  0  0
 18  6  2  0  0  0  0
 19 17  1  0  0  0  0
 20 19  1  0  0  0  0
 21 20  1  0  0  0  0
 22 20  1  0  0  0  0
 23 24  1  0  0  0  0
 24 25  1  6  0  0  0
 24 22  1  0  0  0  0
M  END
>  <MODEL>
5

>  <REMARK>
 VINA RESULT:      -9.1      1.288      1.572
  Name = 
  4 active torsions:
  status: ('A' for Active; 'I' for Inactive)
    1  A    between atoms: C_6  and  N_15
    2  A    between atoms: C_6  and  C_23
    3  A    between atoms: C_7  and  C_21
    4  A    between atoms: N_15  and  C_21
                            x       y       z     vdW  Elec       q    Type
                         _______ _______ _______ _____ _____    ______ ____

>  <TORSDO>
F 4

$$$$
=
 OpenBabel11052412413D

 25 28  0  0  1  0  0  0  0  0999 V2000
  186.8220  178.0210  145.1110 C   0  0  0  0  0  0  0  0  0  0  0  0
  185.7430  178.2720  144.2170 C   0  0  0  0  0  0  0  0  0  0  0  0
  185.2810  178.3910  146.9690 C   0  0  0  0  0  3  0  0  0  0  0  0
  188.1510  177.6990  144.7120 C   0  0  0  0  0  0  0  0  0  0  0  0
  190.4940  177.2160  145.1300 C   0  0  0  0  0  2  0  0  0  0  0  0
  184.2750  178.6280  146.0940 N   0  0  0  0  0  0  0  0  0  0  0  0
  188.8660  177.5550  147.0240 C   0  0  0  0  0  3  0  0  0  0  0  0
  189.1400  177.4920  145.6610 C   0  0  0  0  0  0  0  0  0  0  0  0
  183.3800  178.8380  143.8830 C   0  0  0  0  0  0  0  0  0  0  0  0
  182.0260  179.1690  144.4120 C   0  0  0  0  0  1  0  0  0  0  0  0
  185.8920  178.2310  142.8230 C   0  0  0  0  0  3  0  0  0  0  0  0
  190.4810  177.6880  143.6830 C   0  0  0  0  0  2  0  0  0  0  0  0
  186.5590  178.0880  146.5080 C   0  0  0  0  0  0  0  0  0  0  0  0
  187.5710  177.8520  147.4450 C   0  0  0  0  0  3  0  0  0  0  0  0
  183.5660  178.7900  142.5010 C   0  0  0  0  0  3  0  0  0  0  0  0
  188.7800  177.5420  143.0410 S   0  0  0  0  0  0  0  0  0  0  0  0
  184.8160  178.4800  141.9710 C   0  0  0  0  0  0  0  0  0  0  0  0
  184.4610  178.5800  144.7480 C   0  0  0  0  0  0  0  0  0  0  0  0
  185.0140  178.4550  140.4940 C   0  0  0  0  0  2  0  0  0  0  0  0
  183.7310  178.5720  139.8200 N   0  0  0  0  0  0  0  0  0  0  0  0
  183.8070  179.7530  138.9780 C   0  0  0  0  0  1  0  0  0  0  0  0
  183.6210  177.4310  138.9250 C   0  0  0  0  0  2  0  0  0  0  0  0
  181.4020  177.0170  139.8050 N   0  0  0  0  0  1  0  0  0  0  0  0
  182.6810  176.3950  139.5150 C   0  0  1  0  0  3  0  0  0  0  0  0
  182.4920  175.3530  138.6080 O   0  0  0  0  0  1  0  0  0  0  0  0
  1 13  1  0  0  0  0
  2 18  1  0  0  0  0
  2  1  1  0  0  0  0
  4  1  2  0  0  0  0
  4  8  1  0  0  0  0
  5  8  1  0  0  0  0
  6  3  2  0  0  0  0
  7 14  1  0  0  0  0
  8  7  2  0  0  0  0
  9 10  1  0  0  0  0
  9 18  2  0  0  0  0
 11  2  2  0  0  0  0
 12  5  1  0  0  0  0
 13  3  1  0  0  0  0
 13 14  2  0  0  0  0
 15  9  1  0  0  0  0
 16 12  1  0  0  0  0
 16  4  1  0  0  0  0
 17 15  2  0  0  0  0
 17 11  1  0  0  0  0
 18  6  1  0  0  0  0
 19 17  1  0  0  0  0
 20 19  1  0  0  0  0
 21 20  1  0  0  0  0
 22 24  1  0  0  0  0
 22 20  1  0  0  0  0
 24 25  1  6  0  0  0
 24 23  1  0  0  0  0
M  END
>  <MODEL>
6

>  <REMARK>
 VINA RESULT:      -8.9      3.222      5.924
  Name = 
  4 active torsions:
  status: ('A' for Active; 'I' for Inactive)
    1  A    between atoms: C_6  and  N_15
    2  A    between atoms: C_6  and  C_23
    3  A    between atoms: C_7  and  C_21
    4  A    between atoms: N_15  and  C_21
                            x       y       z     vdW  Elec       q    Type
                         _______ _______ _______ _____ _____    ______ ____

>  <TORSDO>
F 4

$$$$
=
 OpenBabel11052412413D

 25 28  0  0  1  0  0  0  0  0999 V2000
  186.8310  178.0310  143.9550 C   0  0  0  0  0  0  0  0  0  0  0  0
  187.9040  177.8250  143.0430 C   0  0  0  0  0  0  0  0  0  0  0  0
  188.3080  177.2960  145.7550 C   0  0  0  0  0  3  0  0  0  0  0  0
  185.5350  178.5030  143.5950 C   0  0  0  0  0  0  0  0  0  0  0  0
  183.2270  179.0990  144.0590 C   0  0  0  0  0  2  0  0  0  0  0  0
  189.3090  177.1060  144.8620 N   0  0  0  0  0  0  0  0  0  0  0  0
  184.7940  178.3820  145.9000 C   0  0  0  0  0  3  0  0  0  0  0  0
  184.5480  178.6520  144.5570 C   0  0  0  0  0  0  0  0  0  0  0  0
  190.2240  177.1340  142.6500 C   0  0  0  0  0  0  0  0  0  0  0  0
  191.5410  176.6330  143.1370 C   0  0  0  0  0  1  0  0  0  0  0  0
  187.7820  178.0670  141.6670 C   0  0  0  0  0  3  0  0  0  0  0  0
  183.2300  178.8290  142.5620 C   0  0  0  0  0  2  0  0  0  0  0  0
  187.0640  177.7540  145.3310 C   0  0  0  0  0  0  0  0  0  0  0  0
  186.0560  177.9350  146.2850 C   0  0  0  0  0  3  0  0  0  0  0  0
  190.0650  177.3840  141.2860 C   0  0  0  0  0  3  0  0  0  0  0  0
  184.9490  178.9340  141.9570 S   0  0  0  0  0  0  0  0  0  0  0  0
  188.8510  177.8570  140.7950 C   0  0  0  0  0  0  0  0  0  0  0  0
  189.1500  177.3510  143.5350 C   0  0  0  0  0  0  0  0  0  0  0  0
  188.6800  178.0980  139.3350 C   0  0  0  0  0  2  0  0  0  0  0  0
  188.9940  176.8880  138.5920 N   0  0  0  0  0  0  0  0  0  0  0  0
  187.7940  176.5220  137.8600 C   0  0  0  0  0  1  0  0  0  0  0  0
  189.9920  177.2510  137.5990 C   0  0  0  0  0  2  0  0  0  0  0  0
  190.9840  175.2250  138.4800 N   0  0  0  0  0  1  0  0  0  0  0  0
  191.2860  176.5020  137.8610 C   0  0  1  0  0  3  0  0  0  0  0  0
  191.9620  176.2850  136.6600 O   0  0  0  0  0  1  0  0  0  0  0  0
  1 13  1  0  0  0  0
  2 18  1  0  0  0  0
  2  1  1  0  0  0  0
  4  1  2  0  0  0  0
  4  8  1  0  0  0  0
  5  8  1  0  0  0  0
  6  3  2  0  0  0  0
  7 14  1  0  0  0  0
  8  7  2  0  0  0  0
  9 10  1  0  0  0  0
  9 18  2  0  0  0  0
 11  2  2  0  0  0  0
 12  5  1  0  0  0  0
 13  3  1  0  0  0  0
 13 14  2  0  0  0  0
 15  9  1  0  0  0  0
 16 12  1  0  0  0  0
 16  4  1  0  0  0  0
 17 15  2  0  0  0  0
 17 11  1  0  0  0  0
 18  6  1  0  0  0  0
 19 17  1  0  0  0  0
 20 19  1  0  0  0  0
 21 20  1  0  0  0  0
 22 24  1  0  0  0  0
 22 20  1  0  0  0  0
 24 25  1  6  0  0  0
 24 23  1  0  0  0  0
M  END
>  <MODEL>
7

>  <REMARK>
 VINA RESULT:      -8.8      1.920      2.850
  Name = 
  4 active torsions:
  status: ('A' for Active; 'I' for Inactive)
    1  A    between atoms: C_6  and  N_15
    2  A    between atoms: C_6  and  C_23
    3  A    between atoms: C_7  and  C_21
    4  A    between atoms: N_15  and  C_21
                            x       y       z     vdW  Elec       q    Type
                         _______ _______ _______ _____ _____    ______ ____

>  <TORSDO>
F 4

$$$$
=
 OpenBabel11052412413D

 25 28  0  0  1  0  0  0  0  0999 V2000
  186.8960  178.0620  145.0630 C   0  0  0  0  0  0  0  0  0  0  0  0
  185.9330  178.3240  144.0470 C   0  0  0  0  0  0  0  0  0  0  0  0
  185.1220  178.3300  146.7200 C   0  0  0  0  0  3  0  0  0  0  0  0
  188.2730  177.7820  144.8270 C   0  0  0  0  0  0  0  0  0  0  0  0
  190.5550  177.3310  145.5250 C   0  0  0  0  0  2  0  0  0  0  0  0
  184.2300  178.5790  145.7310 N   0  0  0  0  0  0  0  0  0  0  0  0
  188.6900  177.5660  147.2050 C   0  0  0  0  0  3  0  0  0  0  0  0
  189.1370  177.5600  145.8880 C   0  0  0  0  0  0  0  0  0  0  0  0
  183.6190  178.8540  143.4330 C   0  0  0  0  0  0  0  0  0  0  0  0
  182.2010  179.1370  143.7940 C   0  0  0  0  0  1  0  0  0  0  0  0
  186.2600  178.3390  142.6840 C   0  0  0  0  0  3  0  0  0  0  0  0
  190.7150  177.8580  144.1060 C   0  0  0  0  0  2  0  0  0  0  0  0
  186.4550  178.0700  146.4160 C   0  0  0  0  0  0  0  0  0  0  0  0
  187.3450  177.8200  147.4670 C   0  0  0  0  0  3  0  0  0  0  0  0
  183.9810  178.8620  142.0850 C   0  0  0  0  0  3  0  0  0  0  0  0
  189.1130  177.7010  143.2460 S   0  0  0  0  0  0  0  0  0  0  0  0
  185.2960  178.5980  141.7090 C   0  0  0  0  0  0  0  0  0  0  0  0
  184.5870  178.5860  144.4190 C   0  0  0  0  0  0  0  0  0  0  0  0
  185.6820  178.6330  140.2700 C   0  0  0  0  0  2  0  0  0  0  0  0
  184.5110  178.4090  139.4380 N   0  0  0  0  0  0  0  0  0  0  0  0
  183.9730  179.7180  139.1090 C   0  0  0  0  0  1  0  0  0  0  0  0
  184.9850  177.8300  138.1910 C   0  0  0  0  0  2  0  0  0  0  0  0
  187.0560  176.7290  137.5820 N   0  0  0  0  0  1  0  0  0  0  0  0
  186.4940  177.9650  138.0950 C   0  0  1  0  0  3  0  0  0  0  0  0
  186.8240  179.0130  137.2370 O   0  0  0  0  0  1  0  0  0  0  0  0
  1 13  1  0  0  0  0
  2 18  1  0  0  0  0
  2  1  1  0  0  0  0
  4  1  2  0  0  0  0
  4  8  1  0  0  0  0
  5  8  1  0  0  0  0
  6  3  2  0  0  0  0
  7 14  1  0  0  0  0
  8  7  2  0  0  0  0
  9 10  1  0  0  0  0
  9 18  2  0  0  0  0
 11  2  2  0  0  0  0
 12  5  1  0  0  0  0
 13  3  1  0  0  0  0
 13 14  2  0  0  0  0
 15  9  1  0  0  0  0
 16 12  1  0  0  0  0
 16  4  1  0  0  0  0
 17 15  2  0  0  0  0
 17 11  1  0  0  0  0
 18  6  1  0  0  0  0
 19 17  1  0  0  0  0
 20 19  1  0  0  0  0
 21 20  1  0  0  0  0
 22 20  1  0  0  0  0
 23 24  1  0  0  0  0
 24 25  1  6  0  0  0
 24 22  1  0  0  0  0
M  END
>  <MODEL>
8

>  <REMARK>
 VINA RESULT:      -8.8      2.422      5.284
  Name = 
  4 active torsions:
  status: ('A' for Active; 'I' for Inactive)
    1  A    between atoms: C_6  and  N_15
    2  A    between atoms: C_6  and  C_23
    3  A    between atoms: C_7  and  C_21
    4  A    between atoms: N_15  and  C_21
                            x       y       z     vdW  Elec       q    Type
                         _______ _______ _______ _____ _____    ______ ____

>  <TORSDO>
F 4

$$$$
=
 OpenBabel11052412413D

 25 28  0  0  1  0  0  0  0  0999 V2000
  187.4210  178.1180  142.3360 C   0  0  0  0  0  0  0  0  0  0  0  0
  186.7920  178.1060  143.6130 C   0  0  0  0  0  0  0  0  0  0  0  0
  185.3540  179.0210  141.4000 C   0  0  0  0  0  3  0  0  0  0  0  0
  188.7590  177.7000  142.0840 C   0  0  0  0  0  0  0  0  0  0  0  0
  190.6590  177.2230  140.6470 C   0  0  0  0  0  2  0  0  0  0  0  0
  184.7810  178.9940  142.6270 N   0  0  0  0  0  0  0  0  0  0  0  0
  188.5260  178.2000  139.7230 C   0  0  0  0  0  3  0  0  0  0  0  0
  189.2760  177.7300  140.7980 C   0  0  0  0  0  0  0  0  0  0  0  0
  184.8030  178.5450  144.9790 C   0  0  0  0  0  0  0  0  0  0  0  0
  183.3930  179.0050  145.1280 C   0  0  0  0  0  1  0  0  0  0  0  0
  187.4450  177.6620  144.7720 C   0  0  0  0  0  3  0  0  0  0  0  0
  190.9400  176.3960  141.8940 C   0  0  0  0  0  2  0  0  0  0  0  0
  186.6650  178.5900  141.2250 C   0  0  0  0  0  0  0  0  0  0  0  0
  187.2200  178.6320  139.9410 C   0  0  0  0  0  3  0  0  0  0  0  0
  185.4840  178.0950  146.1110 C   0  0  0  0  0  3  0  0  0  0  0  0
  189.9450  177.0660  143.2700 S   0  0  0  0  0  0  0  0  0  0  0  0
  186.8040  177.6620  146.0110 C   0  0  0  0  0  0  0  0  0  0  0  0
  185.4480  178.5550  143.7280 C   0  0  0  0  0  0  0  0  0  0  0  0
  187.5170  177.1590  147.2180 C   0  0  0  0  0  2  0  0  0  0  0  0
  188.9020  177.6030  147.1970 N   0  0  0  0  0  0  0  0  0  0  0  0
  189.1520  178.2570  148.4700 C   0  0  0  0  0  1  0  0  0  0  0  0
  189.7280  176.4070  147.1750 C   0  0  0  0  0  2  0  0  0  0  0  0
  191.9450  175.5900  147.7070 N   0  0  0  0  0  1  0  0  0  0  0  0
  191.1880  176.7770  147.3600 C   0  0  1  0  0  3  0  0  0  0  0  0
  191.6940  177.3200  146.1800 O   0  0  0  0  0  1  0  0  0  0  0  0
  1  2  2  0  0  0  0
  2 18  1  0  0  0  0
  2 11  1  0  0  0  0
  3  6  1  0  0  0  0
  4  1  1  0  0  0  0
  4 16  1  0  0  0  0
  5  8  1  0  0  0  0
  5 12  1  0  0  0  0
  6 18  2  0  0  0  0
  7 14  2  0  0  0  0
  7  8  1  0  0  0  0
  8  4  2  0  0  0  0
  9 10  1  0  0  0  0
  9 15  2  0  0  0  0
 11 17  2  0  0  0  0
 12 16  1  0  0  0  0
 13  3  2  0  0  0  0
 13  1  1  0  0  0  0
 14 13  1  0  0  0  0
 17 15  1  0  0  0  0
 17 19  1  0  0  0  0
 18  9  1  0  0  0  0
 20 19  1  0  0  0  0
 20 21  1  0  0  0  0
 22 20  1  0  0  0  0
 22 24  1  0  0  0  0
 24 25  1  6  0  0  0
 24 23  1  0  0  0  0
M  END
>  <MODEL>
9

>  <REMARK>
 VINA RESULT:      -8.8      2.752      6.396
  Name = 
  4 active torsions:
  status: ('A' for Active; 'I' for Inactive)
    1  A    between atoms: C_6  and  N_15
    2  A    between atoms: C_6  and  C_23
    3  A    between atoms: C_7  and  C_21
    4  A    between atoms: N_15  and  C_21
                            x       y       z     vdW  Elec       q    Type
                         _______ _______ _______ _____ _____    ______ ____

>  <TORSDO>
F 4

$$$$
