=
 OpenBabel11052415213D

 37 42  0  0  1  0  0  0  0  0999 V2000
  184.4100  176.6090  137.7130 C   0  0  0  0  0  0  0  0  0  0  0  0
  186.0070  173.7210  136.9990 C   0  0  2  0  0  3  0  0  0  0  0  0
  181.1570  177.2080  136.7480 C   0  0  2  0  0  3  0  0  0  0  0  0
  185.3140  176.2770  136.5080 C   0  0  2  0  0  0  0  0  0  0  0  0
  182.0130  178.9350  138.3510 C   0  0  1  0  0  3  0  0  0  0  0  0
  181.8930  173.0880  135.6880 C   0  0  0  0  0  3  0  0  0  0  0  0
  183.7890  177.8170  139.8050 C   0  0  0  0  0  2  0  0  0  0  0  0
  184.5550  175.8470  135.4180 O   0  0  0  0  0  0  0  0  0  0  0  0
  186.3790  175.2210  136.8840 C   0  0  0  0  0  2  0  0  0  0  0  0
  182.4970  175.0260  137.0280 C   0  0  0  0  0  0  0  0  0  0  0  0
  180.7730  173.7580  135.2090 C   0  0  0  0  0  3  0  0  0  0  0  0
  185.5540  177.7870  134.7190 O   0  0  0  0  0  0  0  0  0  0  0  0
  183.3190  175.6430  138.1210 C   0  0  0  0  0  2  0  0  0  0  0  0
  185.1180  173.1970  135.8870 C   0  0  0  0  0  2  0  0  0  0  0  0
  186.0590  177.4860  135.9810 C   0  0  0  0  0  2  0  0  0  0  0  0
  180.5300  175.0720  135.5960 C   0  0  0  0  0  3  0  0  0  0  0  0
  184.9290  173.4130  138.0190 C   0  0  0  0  0  2  0  0  0  0  0  0
  182.8540  179.0160  139.6260 C   0  0  0  0  0  2  0  0  0  0  0  0
  181.3780  175.7280  136.5000 C   0  0  0  0  0  0  0  0  0  0  0  0
  184.6950  177.5930  138.6120 C   0  0  0  0  0  0  0  0  0  0  0  0
  182.7760  173.7000  136.5840 C   0  0  0  0  0  0  0  0  0  0  0  0
  181.2160  177.6300  138.2180 C   0  0  1  0  0  3  0  0  0  0  0  0
  184.0260  172.8960  136.9030 C   0  0  1  0  0  3  0  0  0  0  0  0
  184.4270  176.9710  134.5940 C   0  0  0  0  0  2  0  0  0  0  0  0
  180.0030  177.6960  136.1220 O   0  0  0  0  0  1  0  0  0  0  0  0
  180.5500  180.8530  139.1190 C   0  0  0  0  0  3  0  0  0  0  0  0
  181.2250  180.1840  138.0860 C   0  0  0  0  0  0  0  0  0  0  0  0
  181.1470  180.6750  136.7780 C   0  0  0  0  0  3  0  0  0  0  0  0
  180.3350  182.3000  135.2350 F   0  0  0  0  0  0  0  0  0  0  0  0
  179.7370  182.4930  137.5350 C   0  0  0  0  0  3  0  0  0  0  0  0
  180.4060  181.8280  136.5030 C   0  0  0  0  0  0  0  0  0  0  0  0
  179.8090  182.0060  138.8430 C   0  0  0  0  0  3  0  0  0  0  0  0
  186.9740  178.2900  139.2920 C   0  0  0  0  0  1  0  0  0  0  0  0
  185.8270  178.4020  138.4610 O   0  0  0  0  0  0  0  0  0  0  0  0
  179.8740  177.6200  138.9510 C   0  0  0  0  0  2  0  0  0  0  0  0
  179.8740  177.8920  141.5700 C   0  0  0  0  0  1  0  0  0  0  0  0
  179.9330  176.5110  140.3920 S   0  0  0  0  0  0  0  0  0  0  0  0
  1 13  1  0  0  0  0
  1 20  2  0  0  0  0
  2 14  1  6  0  0  0
  2 17  1  0  0  0  0
  3 25  1  1  0  0  0
  3 22  1  0  0  0  0
  4 15  1  6  0  0  0
  4  9  1  0  0  0  0
  4  1  1  0  0  0  0
  5 27  1  1  0  0  0
  5 18  1  0  0  0  0
  6 21  1  0  0  0  0
  8  4  1  0  0  0  0
  9  2  1  0  0  0  0
 10 13  1  0  0  0  0
 11 16  1  0  0  0  0
 11  6  2  0  0  0  0
 12 15  1  0  0  0  0
 16 19  2  0  0  0  0
 18  7  1  0  0  0  0
 19  3  1  0  0  0  0
 19 10  1  0  0  0  0
 20  7  1  0  0  0  0
 21 23  1  0  0  0  0
 21 10  2  0  0  0  0
 22  5  1  0  0  0  0
 22 35  1  6  0  0  0
 23 14  1  6  0  0  0
 23 17  1  0  0  0  0
 24 12  1  0  0  0  0
 24  8  1  0  0  0  0
 27 26  2  0  0  0  0
 28 27  1  0  0  0  0
 29 31  1  0  0  0  0
 30 32  2  0  0  0  0
 31 28  2  0  0  0  0
 31 30  1  0  0  0  0
 32 26  1  0  0  0  0
 34 20  1  0  0  0  0
 34 33  1  0  0  0  0
 35 37  1  0  0  0  0
 37 36  1  0  0  0  0
M  END
>  <MODEL>
1

>  <REMARK>
 VINA RESULT:      -5.0      0.000      0.000
  Name = 
  4 active torsions:
  status: ('A' for Active; 'I' for Inactive)
    1  A    between atoms: C_6  and  C_7
    2  A    between atoms: C_14  and  C_31
    3  A    between atoms: C_14  and  S_37
    4  A    between atoms: C_29  and  O_33
                            x       y       z     vdW  Elec       q    Type
                         _______ _______ _______ _____ _____    ______ ____

>  <TORSDO>
F 4

$$$$
=
 OpenBabel11052415213D

 37 42  0  0  1  0  0  0  0  0999 V2000
  182.1610  178.6850  138.8410 C   0  0  0  0  0  0  0  0  0  0  0  0
  180.2660  181.4510  139.2440 C   0  0  2  0  0  3  0  0  0  0  0  0
  181.7700  176.5530  136.1620 C   0  0  2  0  0  3  0  0  0  0  0  0
  180.8510  178.8510  139.6380 C   0  0  2  0  0  0  0  0  0  0  0  0
  183.8370  176.0520  137.4900 C   0  0  1  0  0  3  0  0  0  0  0  0
  179.1560  179.8850  135.3250 C   0  0  0  0  0  3  0  0  0  0  0  0
  184.5990  178.2350  138.5730 C   0  0  0  0  0  2  0  0  0  0  0  0
  179.7450  178.4990  138.8600 O   0  0  0  0  0  0  0  0  0  0  0  0
  180.7040  180.2930  140.1760 C   0  0  0  0  0  2  0  0  0  0  0  0
  181.0810  179.0090  136.5240 C   0  0  0  0  0  0  0  0  0  0  0  0
  179.0650  178.7060  134.5940 C   0  0  0  0  0  3  0  0  0  0  0  0
  179.7630  176.9910  140.5860 O   0  0  0  0  0  0  0  0  0  0  0  0
  182.2550  179.2290  137.4320 C   0  0  0  0  0  2  0  0  0  0  0  0
  179.1160  181.1180  138.3130 C   0  0  0  0  0  2  0  0  0  0  0  0
  180.7670  177.9230  140.8320 C   0  0  0  0  0  2  0  0  0  0  0  0
  179.9440  177.6600  134.8500 C   0  0  0  0  0  3  0  0  0  0  0  0
  181.1750  181.6830  138.0530 C   0  0  0  0  0  2  0  0  0  0  0  0
  184.9710  176.7990  138.1940 C   0  0  0  0  0  2  0  0  0  0  0  0
  180.9560  177.7840  135.8110 C   0  0  0  0  0  0  0  0  0  0  0  0
  183.3410  178.3150  139.4130 C   0  0  0  0  0  0  0  0  0  0  0  0
  180.1420  180.0580  136.3020 C   0  0  0  0  0  0  0  0  0  0  0  0
  183.2800  176.7860  136.2640 C   0  0  1  0  0  3  0  0  0  0  0  0
  180.0250  181.3380  137.1120 C   0  0  1  0  0  3  0  0  0  0  0  0
  179.4280  177.1910  139.2440 C   0  0  0  0  0  2  0  0  0  0  0  0
  181.4770  175.4570  135.3410 O   0  0  0  0  0  1  0  0  0  0  0  0
  185.4530  174.1440  137.0960 C   0  0  0  0  0  3  0  0  0  0  0  0
  184.1370  174.5980  137.2720 C   0  0  0  0  0  0  0  0  0  0  0  0
  183.0780  173.6850  137.2230 C   0  0  0  0  0  3  0  0  0  0  0  0
  182.3010  171.4470  136.9590 F   0  0  0  0  0  0  0  0  0  0  0  0
  184.6430  171.8780  136.8320 C   0  0  0  0  0  3  0  0  0  0  0  0
  183.3300  172.3270  137.0050 C   0  0  0  0  0  0  0  0  0  0  0  0
  185.7040  172.7860  136.8770 C   0  0  0  0  0  3  0  0  0  0  0  0
  184.4200  178.5540  141.6310 C   0  0  0  0  0  1  0  0  0  0  0  0
  183.4190  178.0180  140.7780 O   0  0  0  0  0  0  0  0  0  0  0  0
  184.0600  176.5570  134.9680 C   0  0  0  0  0  2  0  0  0  0  0  0
  186.6560  176.3120  134.5940 C   0  0  0  0  0  1  0  0  0  0  0  0
  185.4900  177.6770  134.8690 S   0  0  0  0  0  0  0  0  0  0  0  0
  1 20  2  0  0  0  0
  1  4  1  0  0  0  0
  2 17  1  6  0  0  0
  2  9  1  0  0  0  0
  3 25  1  6  0  0  0
  3 22  1  0  0  0  0
  4  9  1  1  0  0  0
  4 15  1  0  0  0  0
  5 27  1  6  0  0  0
  5 18  1  0  0  0  0
  6 21  1  0  0  0  0
  7 20  1  0  0  0  0
  8 24  1  0  0  0  0
  8  4  1  0  0  0  0
 10 13  1  0  0  0  0
 11 16  1  0  0  0  0
 11  6  2  0  0  0  0
 12 15  1  0  0  0  0
 13  1  1  0  0  0  0
 14  2  1  0  0  0  0
 16 19  2  0  0  0  0
 18  7  1  0  0  0  0
 19  3  1  0  0  0  0
 19 10  1  0  0  0  0
 20 34  1  0  0  0  0
 21 10  2  0  0  0  0
 21 23  1  0  0  0  0
 22 35  1  6  0  0  0
 22  5  1  0  0  0  0
 23 17  1  1  0  0  0
 23 14  1  0  0  0  0
 24 12  1  0  0  0  0
 26 27  1  0  0  0  0
 28 27  2  0  0  0  0
 29 31  1  0  0  0  0
 30 32  1  0  0  0  0
 30 31  2  0  0  0  0
 31 28  1  0  0  0  0
 32 26  2  0  0  0  0
 34 33  1  0  0  0  0
 36 37  1  0  0  0  0
 37 35  1  0  0  0  0
M  END
>  <MODEL>
2

>  <REMARK>
 VINA RESULT:      -4.1      2.840      6.949
  Name = 
  4 active torsions:
  status: ('A' for Active; 'I' for Inactive)
    1  A    between atoms: C_6  and  C_7
    2  A    between atoms: C_14  and  C_31
    3  A    between atoms: C_14  and  S_37
    4  A    between atoms: C_29  and  O_33
                            x       y       z     vdW  Elec       q    Type
                         _______ _______ _______ _____ _____    ______ ____

>  <TORSDO>
F 4

$$$$
=
 OpenBabel11052415213D

 37 42  0  0  1  0  0  0  0  0999 V2000
  181.9190  176.1400  136.2160 C   0  0  0  0  0  0  0  0  0  0  0  0
  179.0070  174.4340  136.0950 C   0  0  2  0  0  3  0  0  0  0  0  0
  184.9200  174.6210  136.9650 C   0  0  2  0  0  3  0  0  0  0  0  0
  180.8750  175.9300  137.3330 C   0  0  2  0  0  0  0  0  0  0  0  0
  185.2160  176.9670  136.1340 C   0  0  1  0  0  3  0  0  0  0  0  0
  182.0770  171.3850  136.6620 C   0  0  0  0  0  3  0  0  0  0  0  0
  183.2480  177.4890  134.5940 C   0  0  0  0  0  2  0  0  0  0  0  0
  181.2070  174.8300  138.1270 O   0  0  0  0  0  0  0  0  0  0  0  0
  179.4530  175.7680  136.7440 C   0  0  0  0  0  2  0  0  0  0  0  0
  182.6750  173.6790  136.1210 C   0  0  0  0  0  0  0  0  0  0  0  0
  183.3370  171.1780  137.2110 C   0  0  0  0  0  3  0  0  0  0  0  0
  181.2970  176.6330  139.5380 O   0  0  0  0  0  0  0  0  0  0  0  0
  182.3840  174.9590  135.3930 C   0  0  0  0  0  2  0  0  0  0  0  0
  179.4010  173.1870  136.8640 C   0  0  0  0  0  2  0  0  0  0  0  0
  180.8190  177.0840  138.3110 C   0  0  0  0  0  2  0  0  0  0  0  0
  184.2550  172.2230  137.2610 C   0  0  0  0  0  3  0  0  0  0  0  0
  179.8540  173.9870  134.9200 C   0  0  0  0  0  2  0  0  0  0  0  0
  184.6480  177.8970  135.0590 C   0  0  0  0  0  2  0  0  0  0  0  0
  183.9460  173.4810  136.7270 C   0  0  0  0  0  0  0  0  0  0  0  0
  182.2590  177.3680  135.7350 C   0  0  0  0  0  0  0  0  0  0  0  0
  181.7160  172.6250  136.1240 C   0  0  0  0  0  0  0  0  0  0  0  0
  185.2110  175.4860  135.7360 C   0  0  1  0  0  3  0  0  0  0  0  0
  180.2630  172.7380  135.6930 C   0  0  1  0  0  3  0  0  0  0  0  0
  181.8270  175.3700  139.2600 C   0  0  0  0  0  2  0  0  0  0  0  0
  186.1020  174.2030  137.5880 O   0  0  0  0  0  1  0  0  0  0  0  0
  187.5960  177.7950  135.8900 C   0  0  0  0  0  3  0  0  0  0  0  0
  186.5090  177.4600  136.7130 C   0  0  0  0  0  0  0  0  0  0  0  0
  186.6370  177.5660  138.1020 C   0  0  0  0  0  3  0  0  0  0  0  0
  187.9540  178.1080  140.0120 F   0  0  0  0  0  0  0  0  0  0  0  0
  188.9170  178.3420  137.8440 C   0  0  0  0  0  3  0  0  0  0  0  0
  187.8370  178.0070  138.6670 C   0  0  0  0  0  0  0  0  0  0  0  0
  188.7960  178.2360  136.4550 C   0  0  0  0  0  3  0  0  0  0  0  0
  181.0960  179.5410  135.4690 C   0  0  0  0  0  1  0  0  0  0  0  0
  181.6980  178.5340  136.2700 O   0  0  0  0  0  0  0  0  0  0  0  0
  186.4120  175.0410  134.9000 C   0  0  0  0  0  2  0  0  0  0  0  0
  188.1330  173.0470  134.9180 C   0  0  0  0  0  1  0  0  0  0  0  0
  186.3570  173.2490  134.5940 S   0  0  0  0  0  0  0  0  0  0  0  0
  1  4  1  0  0  0  0
  2 17  1  6  0  0  0
  2  9  1  0  0  0  0
  2 14  1  0  0  0  0
  3 25  1  6  0  0  0
  4  9  1  6  0  0  0
  4  8  1  0  0  0  0
  4 15  1  0  0  0  0
  5 27  1  6  0  0  0
  6 11  1  0  0  0  0
  7 18  1  0  0  0  0
  7 20  1  0  0  0  0
  8 24  1  0  0  0  0
 10 21  1  0  0  0  0
 10 19  2  0  0  0  0
 11 16  2  0  0  0  0
 13 10  1  0  0  0  0
 13  1  1  0  0  0  0
 15 12  1  0  0  0  0
 18  5  1  0  0  0  0
 19  3  1  0  0  0  0
 19 16  1  0  0  0  0
 20  1  2  0  0  0  0
 20 34  1  0  0  0  0
 21  6  2  0  0  0  0
 22 35  1  1  0  0  0
 22  5  1  0  0  0  0
 22  3  1  0  0  0  0
 23 17  1  6  0  0  0
 23 21  1  0  0  0  0
 23 14  1  0  0  0  0
 24 12  1  0  0  0  0
 26 32  2  0  0  0  0
 26 27  1  0  0  0  0
 27 28  2  0  0  0  0
 28 31  1  0  0  0  0
 30 31  2  0  0  0  0
 31 29  1  0  0  0  0
 32 30  1  0  0  0  0
 33 34  1  0  0  0  0
 37 35  1  0  0  0  0
 37 36  1  0  0  0  0
M  END
>  <MODEL>
3

>  <REMARK>
 VINA RESULT:      -4.0      3.167      6.323
  Name = 
  4 active torsions:
  status: ('A' for Active; 'I' for Inactive)
    1  A    between atoms: C_6  and  C_7
    2  A    between atoms: C_14  and  C_31
    3  A    between atoms: C_14  and  S_37
    4  A    between atoms: C_29  and  O_33
                            x       y       z     vdW  Elec       q    Type
                         _______ _______ _______ _____ _____    ______ ____

>  <TORSDO>
F 4

$$$$
=
 OpenBabel11052415213D

 37 42  0  0  1  0  0  0  0  0999 V2000
  181.5750  177.9270  138.0100 C   0  0  0  0  0  0  0  0  0  0  0  0
  178.9310  176.9340  136.1590 C   0  0  2  0  0  3  0  0  0  0  0  0
  184.6780  176.4520  137.7380 C   0  0  2  0  0  3  0  0  0  0  0  0
  180.4800  176.8980  138.3630 C   0  0  2  0  0  0  0  0  0  0  0  0
  184.7310  178.5490  139.1100 C   0  0  1  0  0  3  0  0  0  0  0  0
  182.3160  174.6690  134.5940 C   0  0  0  0  0  3  0  0  0  0  0  0
  182.8440  180.0560  138.2830 C   0  0  0  0  0  2  0  0  0  0  0  0
  180.8880  175.6030  138.0370 O   0  0  0  0  0  0  0  0  0  0  0  0
  179.1450  177.2430  137.6620 C   0  0  0  0  0  2  0  0  0  0  0  0
  182.6520  176.5100  136.1470 C   0  0  0  0  0  0  0  0  0  0  0  0
  183.5440  174.1280  134.9580 C   0  0  0  0  0  3  0  0  0  0  0  0
  180.6260  175.5900  140.3130 O   0  0  0  0  0  0  0  0  0  0  0  0
  182.2560  177.8630  136.6610 C   0  0  0  0  0  2  0  0  0  0  0  0
  179.4200  175.5700  135.7130 C   0  0  0  0  0  2  0  0  0  0  0  0
  180.1940  176.8290  139.8480 C   0  0  0  0  0  2  0  0  0  0  0  0
  184.3100  174.7410  135.9430 C   0  0  0  0  0  3  0  0  0  0  0  0
  179.9210  177.6040  135.2280 C   0  0  0  0  0  2  0  0  0  0  0  0
  184.1370  179.9580  139.0980 C   0  0  0  0  0  2  0  0  0  0  0  0
  183.8840  175.9280  136.5550 C   0  0  0  0  0  0  0  0  0  0  0  0
  181.7900  179.0640  138.7290 C   0  0  0  0  0  0  0  0  0  0  0  0
  181.8410  175.8470  135.1790 C   0  0  0  0  0  0  0  0  0  0  0  0
  184.9530  177.9580  137.7120 C   0  0  1  0  0  3  0  0  0  0  0  0
  180.4260  176.2350  134.7840 C   0  0  1  0  0  3  0  0  0  0  0  0
  181.3370  175.0460  139.2400 C   0  0  0  0  0  2  0  0  0  0  0  0
  185.8500  175.7220  137.9700 O   0  0  0  0  0  1  0  0  0  0  0  0
  187.2090  178.2830  139.5590 C   0  0  0  0  0  3  0  0  0  0  0  0
  185.8980  178.4120  140.0440 C   0  0  0  0  0  0  0  0  0  0  0  0
  185.6670  178.3920  141.4240 C   0  0  0  0  0  3  0  0  0  0  0  0
  186.5060  178.2320  143.6490 F   0  0  0  0  0  0  0  0  0  0  0  0
  188.0400  178.1230  141.8270 C   0  0  0  0  0  3  0  0  0  0  0  0
  186.7350  178.2500  142.3140 C   0  0  0  0  0  0  0  0  0  0  0  0
  188.2770  178.1400  140.4500 C   0  0  0  0  0  3  0  0  0  0  0  0
  180.2340  180.5060  140.0100 C   0  0  0  0  0  1  0  0  0  0  0  0
  181.0400  179.3440  139.8770 O   0  0  0  0  0  0  0  0  0  0  0  0
  186.2650  178.3660  137.0420 C   0  0  0  0  0  2  0  0  0  0  0  0
  187.8120  177.0290  135.3820 C   0  0  0  0  0  1  0  0  0  0  0  0
  186.2470  177.9430  135.2740 S   0  0  0  0  0  0  0  0  0  0  0  0
  1  4  1  0  0  0  0
  1 20  2  0  0  0  0
  2 17  1  6  0  0  0
  2  9  1  0  0  0  0
  3 25  1  6  0  0  0
  4  9  1  6  0  0  0
  4 15  1  0  0  0  0
  5 27  1  6  0  0  0
  6 11  2  0  0  0  0
  6 21  1  0  0  0  0
  7 20  1  0  0  0  0
  7 18  1  0  0  0  0
  8  4  1  0  0  0  0
  8 24  1  0  0  0  0
 10 19  1  0  0  0  0
 10 13  1  0  0  0  0
 11 16  1  0  0  0  0
 13  1  1  0  0  0  0
 14  2  1  0  0  0  0
 15 12  1  0  0  0  0
 16 19  2  0  0  0  0
 18  5  1  0  0  0  0
 19  3  1  0  0  0  0
 20 34  1  0  0  0  0
 21 10  2  0  0  0  0
 22 35  1  1  0  0  0
 22  3  1  0  0  0  0
 22  5  1  0  0  0  0
 23 21  1  0  0  0  0
 23 17  1  1  0  0  0
 23 14  1  0  0  0  0
 24 12  1  0  0  0  0
 26 27  2  0  0  0  0
 26 32  1  0  0  0  0
 27 28  1  0  0  0  0
 28 31  2  0  0  0  0
 30 31  1  0  0  0  0
 31 29  1  0  0  0  0
 32 30  2  0  0  0  0
 34 33  1  0  0  0  0
 37 36  1  0  0  0  0
 37 35  1  0  0  0  0
M  END
>  <MODEL>
4

>  <REMARK>
 VINA RESULT:      -3.0      3.003      6.185
  Name = 
  4 active torsions:
  status: ('A' for Active; 'I' for Inactive)
    1  A    between atoms: C_6  and  C_7
    2  A    between atoms: C_14  and  C_31
    3  A    between atoms: C_14  and  S_37
    4  A    between atoms: C_29  and  O_33
                            x       y       z     vdW  Elec       q    Type
                         _______ _______ _______ _____ _____    ______ ____

>  <TORSDO>
F 4

$$$$
=
 OpenBabel11052415213D

 37 42  0  0  1  0  0  0  0  0999 V2000
  184.4680  176.6960  136.0780 C   0  0  0  0  0  0  0  0  0  0  0  0
  187.4990  176.8200  134.5960 C   0  0  2  0  0  3  0  0  0  0  0  0
  184.0140  177.4170  139.4170 C   0  0  2  0  0  3  0  0  0  0  0  0
  185.4890  175.5590  135.8710 C   0  0  2  0  0  0  0  0  0  0  0  0
  181.8440  177.2180  138.1780 C   0  0  1  0  0  3  0  0  0  0  0  0
  188.1500  178.3660  138.6240 C   0  0  0  0  0  3  0  0  0  0  0  0
  182.2880  177.8610  135.7470 C   0  0  0  0  0  2  0  0  0  0  0  0
  186.3110  175.4140  136.9910 O   0  0  0  0  0  0  0  0  0  0  0  0
  186.3370  175.7950  134.5990 C   0  0  0  0  0  2  0  0  0  0  0  0
  185.9030  178.0090  137.7680 C   0  0  0  0  0  0  0  0  0  0  0  0
  187.6760  178.2820  139.9280 C   0  0  0  0  0  3  0  0  0  0  0  0
  185.1590  173.4390  136.8390 O   0  0  0  0  0  0  0  0  0  0  0  0
  184.9310  178.0290  136.6250 C   0  0  0  0  0  2  0  0  0  0  0  0
  188.3930  176.7750  135.8210 C   0  0  0  0  0  2  0  0  0  0  0  0
  184.8360  174.2010  135.7190 C   0  0  0  0  0  2  0  0  0  0  0  0
  186.3310  178.0170  140.1630 C   0  0  0  0  0  3  0  0  0  0  0  0
  187.0920  178.2400  134.9340 C   0  0  0  0  0  2  0  0  0  0  0  0
  181.2360  177.6220  136.8340 C   0  0  0  0  0  2  0  0  0  0  0  0
  185.4270  177.8730  139.1010 C   0  0  0  0  0  0  0  0  0  0  0  0
  183.2120  176.6770  135.5510 C   0  0  0  0  0  0  0  0  0  0  0  0
  187.2920  178.2210  137.5290 C   0  0  0  0  0  0  0  0  0  0  0  0
  182.9110  178.1930  138.6930 C   0  0  1  0  0  3  0  0  0  0  0  0
  187.9800  178.1960  136.1740 C   0  0  1  0  0  3  0  0  0  0  0  0
  185.7620  174.3470  137.7130 C   0  0  0  0  0  2  0  0  0  0  0  0
  183.7650  177.3400  140.7930 O   0  0  0  0  0  1  0  0  0  0  0  0
  179.8830  177.7430  139.6900 C   0  0  0  0  0  3  0  0  0  0  0  0
  180.8140  176.8180  139.1930 C   0  0  0  0  0  0  0  0  0  0  0  0
  180.7990  175.5000  139.6640 C   0  0  0  0  0  3  0  0  0  0  0  0
  179.8490  173.8300  141.0750 F   0  0  0  0  0  0  0  0  0  0  0  0
  178.9320  176.0310  141.1140 C   0  0  0  0  0  3  0  0  0  0  0  0
  179.8590  175.1070  140.6220 C   0  0  0  0  0  0  0  0  0  0  0  0
  178.9440  177.3480  140.6480 C   0  0  0  0  0  3  0  0  0  0  0  0
  181.5560  174.8850  135.1180 C   0  0  0  0  0  1  0  0  0  0  0  0
  182.7570  175.5790  134.8120 O   0  0  0  0  0  0  0  0  0  0  0  0
  182.3620  179.4030  139.4510 C   0  0  0  0  0  2  0  0  0  0  0  0
  180.5620  181.2910  139.0950 C   0  0  0  0  0  1  0  0  0  0  0  0
  182.1410  180.8200  138.3320 S   0  0  0  0  0  0  0  0  0  0  0  0
  1 13  1  0  0  0  0
  2  9  1  1  0  0  0
  2 17  1  0  0  0  0
  2 14  1  0  0  0  0
  3 25  1  1  0  0  0
  4  9  1  6  0  0  0
  4  1  1  0  0  0  0
  4  8  1  0  0  0  0
  5 22  1  0  0  0  0
  5 27  1  1  0  0  0
  6 11  1  0  0  0  0
  7 18  1  0  0  0  0
  8 24  1  0  0  0  0
 10 19  2  0  0  0  0
 11 16  2  0  0  0  0
 12 24  1  0  0  0  0
 13 10  1  0  0  0  0
 14 23  1  0  0  0  0
 15  4  1  0  0  0  0
 15 12  1  0  0  0  0
 18  5  1  0  0  0  0
 19  3  1  0  0  0  0
 19 16  1  0  0  0  0
 20  7  1  0  0  0  0
 20  1  2  0  0  0  0
 21 10  1  0  0  0  0
 21  6  2  0  0  0  0
 22  3  1  0  0  0  0
 22 35  1  1  0  0  0
 23 17  1  6  0  0  0
 23 21  1  0  0  0  0
 26 32  1  0  0  0  0
 27 28  1  0  0  0  0
 27 26  2  0  0  0  0
 28 31  2  0  0  0  0
 31 29  1  0  0  0  0
 31 30  1  0  0  0  0
 32 30  2  0  0  0  0
 34 33  1  0  0  0  0
 34 20  1  0  0  0  0
 37 36  1  0  0  0  0
 37 35  1  0  0  0  0
M  END
>  <MODEL>
5

>  <REMARK>
 VINA RESULT:      -3.0      2.565      5.393
  Name = 
  4 active torsions:
  status: ('A' for Active; 'I' for Inactive)
    1  A    between atoms: C_6  and  C_7
    2  A    between atoms: C_14  and  C_31
    3  A    between atoms: C_14  and  S_37
    4  A    between atoms: C_29  and  O_33
                            x       y       z     vdW  Elec       q    Type
                         _______ _______ _______ _____ _____    ______ ____

>  <TORSDO>
F 4

$$$$
=
 OpenBabel11052415213D

 37 42  0  0  1  0  0  0  0  0999 V2000
  183.9240  178.1720  137.6920 C   0  0  0  0  0  0  0  0  0  0  0  0
  181.6260  180.4340  138.6950 C   0  0  2  0  0  3  0  0  0  0  0  0
  183.2520  174.7950  137.5530 C   0  0  2  0  0  3  0  0  0  0  0  0
  183.6850  178.7460  139.1040 C   0  0  2  0  0  0  0  0  0  0  0  0
  185.4270  175.3850  136.4540 C   0  0  1  0  0  3  0  0  0  0  0  0
  179.4690  176.6450  138.5050 C   0  0  0  0  0  3  0  0  0  0  0  0
  185.2310  177.7840  135.6040 C   0  0  0  0  0  2  0  0  0  0  0  0
  182.8390  177.9170  139.8450 O   0  0  0  0  0  0  0  0  0  0  0  0
  183.1170  180.1830  139.0340 C   0  0  0  0  0  2  0  0  0  0  0  0
  181.7100  176.8580  137.5850 C   0  0  0  0  0  0  0  0  0  0  0  0
  179.6410  175.2710  138.6270 C   0  0  0  0  0  3  0  0  0  0  0  0
  184.8340  177.8920  140.9720 O   0  0  0  0  0  0  0  0  0  0  0  0
  182.7500  177.6770  136.8770 C   0  0  0  0  0  2  0  0  0  0  0  0
  180.6480  179.5180  139.4050 C   0  0  0  0  0  2  0  0  0  0  0  0
  184.9500  178.8120  139.9340 C   0  0  0  0  0  2  0  0  0  0  0  0
  180.8540  174.6890  138.2740 C   0  0  0  0  0  3  0  0  0  0  0  0
  181.1800  179.8860  137.3540 C   0  0  0  0  0  2  0  0  0  0  0  0
  186.0090  176.4670  135.5430 C   0  0  0  0  0  2  0  0  0  0  0  0
  181.9030  175.4600  137.7560 C   0  0  0  0  0  0  0  0  0  0  0  0
  185.0950  178.3240  137.0130 C   0  0  0  0  0  0  0  0  0  0  0  0
  180.4870  177.4620  138.0020 C   0  0  0  0  0  0  0  0  0  0  0  0
  183.9340  175.1170  136.2200 C   0  0  1  0  0  3  0  0  0  0  0  0
  180.2030  178.9540  138.0640 C   0  0  1  0  0  3  0  0  0  0  0  0
  183.6900  177.1560  140.6550 C   0  0  0  0  0  2  0  0  0  0  0  0
  183.2170  173.4150  137.7880 O   0  0  0  0  0  1  0  0  0  0  0  0
  186.1700  173.2500  137.5930 C   0  0  0  0  0  3  0  0  0  0  0  0
  186.2830  174.1550  136.5260 C   0  0  0  0  0  0  0  0  0  0  0  0
  187.2270  173.9220  135.5200 C   0  0  0  0  0  3  0  0  0  0  0  0
  188.9590  172.5710  134.5950 F   0  0  0  0  0  0  0  0  0  0  0  0
  187.9310  171.8910  136.6360 C   0  0  0  0  0  3  0  0  0  0  0  0
  188.0480  172.7920  135.5730 C   0  0  0  0  0  0  0  0  0  0  0  0
  186.9920  172.1200  137.6460 C   0  0  0  0  0  3  0  0  0  0  0  0
  187.5300  178.7410  137.2110 C   0  0  0  0  0  1  0  0  0  0  0  0
  186.1830  178.9880  137.5910 O   0  0  0  0  0  0  0  0  0  0  0  0
  183.6260  174.1440  135.0820 C   0  0  0  0  0  2  0  0  0  0  0  0
  181.6260  172.4460  134.8520 C   0  0  0  0  0  1  0  0  0  0  0  0
  181.8700  174.2300  134.6160 S   0  0  0  0  0  0  0  0  0  0  0  0
  1  4  1  0  0  0  0
  2 17  1  6  0  0  0
  2  9  1  0  0  0  0
  2 14  1  0  0  0  0
  3 19  1  0  0  0  0
  3 25  1  6  0  0  0
  4  9  1  6  0  0  0
  4  8  1  0  0  0  0
  4 15  1  0  0  0  0
  5 27  1  6  0  0  0
  6 11  1  0  0  0  0
  7 20  1  0  0  0  0
  8 24  1  0  0  0  0
 10 19  2  0  0  0  0
 10 21  1  0  0  0  0
 13 10  1  0  0  0  0
 13  1  1  0  0  0  0
 15 12  1  0  0  0  0
 16 11  2  0  0  0  0
 18  7  1  0  0  0  0
 18  5  1  0  0  0  0
 19 16  1  0  0  0  0
 20 34  1  0  0  0  0
 20  1  2  0  0  0  0
 21 23  1  0  0  0  0
 21  6  2  0  0  0  0
 22 35  1  6  0  0  0
 22  5  1  0  0  0  0
 22  3  1  0  0  0  0
 23 17  1  6  0  0  0
 23 14  1  0  0  0  0
 24 12  1  0  0  0  0
 26 32  1  0  0  0  0
 27 26  2  0  0  0  0
 28 31  2  0  0  0  0
 28 27  1  0  0  0  0
 29 31  1  0  0  0  0
 30 32  2  0  0  0  0
 31 30  1  0  0  0  0
 33 34  1  0  0  0  0
 37 36  1  0  0  0  0
 37 35  1  0  0  0  0
M  END
>  <MODEL>
6

>  <REMARK>
 VINA RESULT:      -2.4      3.020      6.788
  Name = 
  4 active torsions:
  status: ('A' for Active; 'I' for Inactive)
    1  A    between atoms: C_6  and  C_7
    2  A    between atoms: C_14  and  C_31
    3  A    between atoms: C_14  and  S_37
    4  A    between atoms: C_29  and  O_33
                            x       y       z     vdW  Elec       q    Type
                         _______ _______ _______ _____ _____    ______ ____

>  <TORSDO>
F 4

$$$$
