=
 OpenBabel11052415383D

 34 38  0  0  1  0  0  0  0  0999 V2000
  186.9640  178.1700  144.7400 C   0  0  0  0  0  0  0  0  0  0  0  0
  189.0830  177.7730  147.7290 C   0  0  0  0  0  3  0  0  0  0  0  0
  186.8710  178.1560  147.4840 O   0  0  0  0  0  0  0  0  0  0  0  0
  185.7560  178.5510  142.5630 N   0  0  0  0  0  0  0  0  0  0  0  0
  187.0390  178.2760  143.2260 C   0  0  0  0  0  2  0  0  0  0  0  0
  184.5670  178.9660  144.6600 C   0  0  2  0  0  3  0  0  0  0  0  0
  183.7100  177.8730  144.5040 O   0  0  0  0  0  1  0  0  0  0  0  0
  184.9510  179.5230  143.3000 C   0  0  0  0  0  2  0  0  0  0  0  0
  185.7740  178.4830  146.8140 C   0  0  0  0  0  0  0  0  0  0  0  0
  185.7960  178.5550  145.4180 C   0  0  0  0  0  0  0  0  0  0  0  0
  184.7210  178.7550  147.4520 O   0  0  0  0  0  0  0  0  0  0  0  0
  190.5200  177.7560  147.3320 C   0  0  0  0  0  2  0  0  0  0  0  0
  190.8740  176.6020  146.4650 C   0  0  0  0  0  0  0  0  0  0  0  0
  190.2690  176.4170  145.2940 C   0  0  0  0  0  3  0  0  0  0  0  0
  188.0310  177.8620  146.9030 C   0  0  0  0  0  0  0  0  0  0  0  0
  189.0830  177.1360  144.7970 C   0  0  0  0  0  3  0  0  0  0  0  0
  188.0950  177.7510  145.4800 C   0  0  0  0  0  0  0  0  0  0  0  0
  192.0290  175.7620  146.8350 C   0  0  0  0  0  0  0  0  0  0  0  0
  192.7050  175.9880  148.0300 O   0  0  0  0  0  1  0  0  0  0  0  0
  192.4230  174.8420  146.0630 O   0  0  0  0  0  0  0  0  0  0  0  0
  185.9770  179.0640  141.1990 C   0  0  0  0  0  2  0  0  0  0  0  0
  183.5140  179.3730  138.3260 C   0  0  0  0  0  2  0  0  0  0  0  0
  183.8010  177.9860  140.6800 O   0  0  0  0  0  0  0  0  0  0  0  0
  180.4060  180.4040  140.1700 C   0  0  0  0  0  0  0  0  0  0  0  0
  181.2750  180.2110  139.1600 C   0  0  0  0  0  3  0  0  0  0  0  0
  182.2950  179.1100  139.2100 C   0  0  2  0  0  3  0  0  0  0  0  0
  181.5350  178.4650  141.4510 C   0  0  0  0  0  2  0  0  0  0  0  0
  182.7400  178.9040  140.6430 C   0  0  1  0  0  3  0  0  0  0  0  0
  180.5030  179.6100  141.4680 C   0  0  0  0  0  2  0  0  0  0  0  0
  184.9640  178.6020  140.1210 C   0  0  1  0  0  3  0  0  0  0  0  0
  184.7000  179.6780  139.1360 N   0  0  0  0  0  2  0  0  0  0  0  0
  179.4240  181.4990  140.0730 C   0  0  0  0  0  0  0  0  0  0  0  0
  178.9520  182.0250  141.1180 O   0  0  0  0  0  1  0  0  0  0  0  0
  179.0070  181.9670  138.8320 O   0  0  0  0  0  0  0  0  0  0  0  0
  1 10  2  0  0  0  0
  1 17  1  0  0  0  0
  4  5  1  0  0  0  0
  4  8  1  0  0  0  0
  5  1  1  0  0  0  0
  6  7  1  6  0  0  0
  6 10  1  0  0  0  0
  8  6  1  0  0  0  0
  9 11  2  0  0  0  0
  9  3  1  0  0  0  0
 10  9  1  0  0  0  0
 12  2  1  0  0  0  0
 13 18  1  0  0  0  0
 13 12  1  0  0  0  0
 14 13  2  0  0  0  0
 15  3  1  0  0  0  0
 15  2  2  0  0  0  0
 16 14  1  0  0  0  0
 16 17  2  0  0  0  0
 17 15  1  0  0  0  0
 18 19  1  0  0  0  0
 20 18  2  0  0  0  0
 21  4  1  0  0  0  0
 22 31  1  0  0  0  0
 24 29  1  0  0  0  0
 25 26  1  0  0  0  0
 25 24  2  0  0  0  0
 26 22  1  6  0  0  0
 26 28  1  0  0  0  0
 27 29  1  0  0  0  0
 28 23  1  0  0  0  0
 28 27  1  1  0  0  0
 30 23  1  0  0  0  0
 30 21  1  1  0  0  0
 31 30  1  0  0  0  0
 32 24  1  0  0  0  0
 32 33  1  0  0  0  0
 34 32  2  0  0  0  0
M  END
>  <MODEL>
1

>  <REMARK>
 VINA RESULT:      -9.2      0.000      0.000
  Name = 
  4 active torsions:
  status: ('A' for Active; 'I' for Inactive)
    1  A    between atoms: C_3  and  C_25
    2  A    between atoms: C_7  and  C_11
    3  A    between atoms: N_8  and  C_18
    4  A    between atoms: C_18  and  C_30
                            x       y       z     vdW  Elec       q    Type
                         _______ _______ _______ _____ _____    ______ ____

>  <TORSDO>
F 4

$$$$
=
 OpenBabel11052415383D

 34 38  0  0  1  0  0  0  0  0999 V2000
  189.7970  177.0470  137.8860 C   0  0  0  0  0  0  0  0  0  0  0  0
  191.6600  174.4810  136.0070 C   0  0  0  0  0  3  0  0  0  0  0  0
  189.7650  175.6170  135.5420 O   0  0  0  0  0  0  0  0  0  0  0  0
  188.6270  178.6700  139.4140 N   0  0  0  0  0  0  0  0  0  0  0  0
  189.7670  177.7620  139.2270 C   0  0  0  0  0  2  0  0  0  0  0  0
  187.4880  177.9390  137.3760 C   0  0  2  0  0  3  0  0  0  0  0  0
  187.5900  179.1870  136.7550 O   0  0  0  0  0  1  0  0  0  0  0  0
  187.3830  178.1150  138.8820 C   0  0  0  0  0  2  0  0  0  0  0  0
  188.7270  176.3930  135.8260 C   0  0  0  0  0  0  0  0  0  0  0  0
  188.6810  177.0940  137.0350 C   0  0  0  0  0  0  0  0  0  0  0  0
  187.7720  176.4680  135.0060 O   0  0  0  0  0  0  0  0  0  0  0  0
  192.7300  173.9010  136.8690 C   0  0  0  0  0  2  0  0  0  0  0  0
  193.7610  174.8930  137.2710 C   0  0  0  0  0  0  0  0  0  0  0  0
  193.4260  175.9850  137.9560 C   0  0  0  0  0  3  0  0  0  0  0  0
  190.8150  175.4650  136.3450 C   0  0  0  0  0  0  0  0  0  0  0  0
  192.0610  176.4720  138.2170 C   0  0  0  0  0  3  0  0  0  0  0  0
  190.9230  176.2720  137.5190 C   0  0  0  0  0  0  0  0  0  0  0  0
  195.1830  174.5680  137.0570 C   0  0  0  0  0  0  0  0  0  0  0  0
  196.1350  174.9320  138.0050 O   0  0  0  0  0  1  0  0  0  0  0  0
  195.5510  173.9720  136.0050 O   0  0  0  0  0  0  0  0  0  0  0  0
  188.4310  178.9670  140.8450 C   0  0  0  0  0  2  0  0  0  0  0  0
  186.1490  177.5380  143.5220 C   0  0  0  0  0  2  0  0  0  0  0  0
  188.5870  177.0130  142.3690 O   0  0  0  0  0  0  0  0  0  0  0  0
  188.4170  177.6530  146.5160 C   0  0  0  0  0  0  0  0  0  0  0  0
  187.2910  177.5820  145.7810 C   0  0  0  0  0  3  0  0  0  0  0  0
  187.3080  177.0340  144.3840 C   0  0  2  0  0  3  0  0  0  0  0  0
  189.7370  176.7140  144.5030 C   0  0  0  0  0  2  0  0  0  0  0  0
  188.6240  177.3860  143.7230 C   0  0  1  0  0  3  0  0  0  0  0  0
  189.7800  177.3130  145.9220 C   0  0  0  0  0  2  0  0  0  0  0  0
  187.6920  177.8860  141.6740 C   0  0  1  0  0  3  0  0  0  0  0  0
  186.6180  178.4840  142.5020 N   0  0  0  0  0  2  0  0  0  0  0  0
  188.3500  178.1990  147.8840 C   0  0  0  0  0  0  0  0  0  0  0  0
  187.2630  178.6500  148.3360 O   0  0  0  0  0  0  0  0  0  0  0  0
  189.4800  178.2200  148.6930 O   0  0  0  0  0  1  0  0  0  0  0  0
  1  5  1  0  0  0  0
  2 15  2  0  0  0  0
  2 12  1  0  0  0  0
  3  9  1  0  0  0  0
  3 15  1  0  0  0  0
  4 21  1  0  0  0  0
  5  4  1  0  0  0  0
  6  7  1  6  0  0  0
  6  8  1  0  0  0  0
  8  4  1  0  0  0  0
  9 10  1  0  0  0  0
 10  6  1  0  0  0  0
 10  1  2  0  0  0  0
 11  9  2  0  0  0  0
 12 13  1  0  0  0  0
 13 14  2  0  0  0  0
 14 16  1  0  0  0  0
 15 17  1  0  0  0  0
 17  1  1  0  0  0  0
 17 16  2  0  0  0  0
 18 13  1  0  0  0  0
 18 19  1  0  0  0  0
 20 18  2  0  0  0  0
 23 28  1  0  0  0  0
 24 32  1  0  0  0  0
 25 24  2  0  0  0  0
 26 22  1  6  0  0  0
 26 25  1  0  0  0  0
 27 29  1  0  0  0  0
 28 26  1  0  0  0  0
 28 27  1  1  0  0  0
 29 24  1  0  0  0  0
 30 21  1  1  0  0  0
 30 23  1  0  0  0  0
 30 31  1  0  0  0  0
 31 22  1  0  0  0  0
 32 33  2  0  0  0  0
 32 34  1  0  0  0  0
M  END
>  <MODEL>
2

>  <REMARK>
 VINA RESULT:      -9.1      5.694      9.280
  Name = 
  4 active torsions:
  status: ('A' for Active; 'I' for Inactive)
    1  A    between atoms: C_3  and  C_25
    2  A    between atoms: C_7  and  C_11
    3  A    between atoms: N_8  and  C_18
    4  A    between atoms: C_18  and  C_30
                            x       y       z     vdW  Elec       q    Type
                         _______ _______ _______ _____ _____    ______ ____

>  <TORSDO>
F 4

$$$$
=
 OpenBabel11052415383D

 34 38  0  0  1  0  0  0  0  0999 V2000
  184.2810  178.5620  142.3580 C   0  0  0  0  0  0  0  0  0  0  0  0
  184.6110  178.8170  146.0200 C   0  0  0  0  0  3  0  0  0  0  0  0
  182.8050  178.6870  144.6700 O   0  0  0  0  0  0  0  0  0  0  0  0
  184.3090  178.5390  139.8400 N   0  0  0  0  0  0  0  0  0  0  0  0
  185.1000  178.5930  141.0780 C   0  0  0  0  0  2  0  0  0  0  0  0
  182.1680  178.8030  140.9930 C   0  0  2  0  0  3  0  0  0  0  0  0
  181.7000  177.5400  140.6190 O   0  0  0  0  0  1  0  0  0  0  0  0
  183.0960  179.3510  139.9220 C   0  0  0  0  0  2  0  0  0  0  0  0
  182.1670  178.7250  143.5080 C   0  0  0  0  0  0  0  0  0  0  0  0
  182.8860  178.7180  142.3090 C   0  0  0  0  0  0  0  0  0  0  0  0
  180.9090  178.7930  143.4980 O   0  0  0  0  0  0  0  0  0  0  0  0
  186.0310  179.0950  146.3820 C   0  0  0  0  0  2  0  0  0  0  0  0
  186.9590  178.0000  145.9970 C   0  0  0  0  0  0  0  0  0  0  0  0
  187.0740  177.6180  144.7270 C   0  0  0  0  0  3  0  0  0  0  0  0
  184.1300  178.6230  144.7840 C   0  0  0  0  0  0  0  0  0  0  0  0
  186.2100  178.0270  143.6060 C   0  0  0  0  0  3  0  0  0  0  0  0
  184.9270  178.4470  143.6120 C   0  0  0  0  0  0  0  0  0  0  0  0
  187.8810  177.4590  147.0130 C   0  0  0  0  0  0  0  0  0  0  0  0
  187.6130  177.6340  148.3670 O   0  0  0  0  0  1  0  0  0  0  0  0
  188.9290  176.8460  146.6620 O   0  0  0  0  0  0  0  0  0  0  0  0
  185.1090  179.0080  138.6940 C   0  0  0  0  0  2  0  0  0  0  0  0
  185.6860  175.6910  136.9390 C   0  0  0  0  0  2  0  0  0  0  0  0
  186.3600  178.3400  136.6570 O   0  0  0  0  0  0  0  0  0  0  0  0
  189.4390  175.5040  137.0020 C   0  0  0  0  0  0  0  0  0  0  0  0
  188.1520  175.1200  136.9060 C   0  0  0  0  0  3  0  0  0  0  0  0
  187.0850  176.0750  136.4560 C   0  0  2  0  0  3  0  0  0  0  0  0
  188.7310  177.8860  136.2910 C   0  0  0  0  0  2  0  0  0  0  0  0
  187.4260  177.4700  136.9390 C   0  0  1  0  0  3  0  0  0  0  0  0
  189.8540  176.9570  136.7940 C   0  0  0  0  0  2  0  0  0  0  0  0
  185.2610  178.0170  137.5130 C   0  0  1  0  0  3  0  0  0  0  0  0
  185.2130  176.6110  137.9810 N   0  0  0  0  0  2  0  0  0  0  0  0
  190.4500  174.5290  137.4480 C   0  0  0  0  0  0  0  0  0  0  0  0
  190.3060  173.3020  137.1950 O   0  0  0  0  0  0  0  0  0  0  0  0
  191.5750  174.9480  138.1490 O   0  0  0  0  0  1  0  0  0  0  0  0
  1 17  1  0  0  0  0
  2 12  1  0  0  0  0
  3 15  1  0  0  0  0
  4  8  1  0  0  0  0
  4  5  1  0  0  0  0
  5  1  1  0  0  0  0
  6  7  1  6  0  0  0
  6 10  1  0  0  0  0
  8  6  1  0  0  0  0
  9  3  1  0  0  0  0
 10  1  2  0  0  0  0
 10  9  1  0  0  0  0
 11  9  2  0  0  0  0
 13 12  1  0  0  0  0
 13 18  1  0  0  0  0
 14 13  2  0  0  0  0
 15  2  2  0  0  0  0
 16 17  2  0  0  0  0
 16 14  1  0  0  0  0
 17 15  1  0  0  0  0
 18 19  1  0  0  0  0
 20 18  2  0  0  0  0
 21  4  1  0  0  0  0
 22 31  1  0  0  0  0
 23 28  1  0  0  0  0
 23 30  1  0  0  0  0
 24 32  1  0  0  0  0
 25 24  2  0  0  0  0
 26 25  1  1  0  0  0
 26 22  1  0  0  0  0
 26 28  1  0  0  0  0
 27 29  1  0  0  0  0
 28 27  1  6  0  0  0
 29 24  1  0  0  0  0
 30 31  1  0  0  0  0
 30 21  1  1  0  0  0
 32 34  1  0  0  0  0
 33 32  2  0  0  0  0
M  END
>  <MODEL>
3

>  <REMARK>
 VINA RESULT:      -9.1      3.758      6.659
  Name = 
  4 active torsions:
  status: ('A' for Active; 'I' for Inactive)
    1  A    between atoms: C_3  and  C_25
    2  A    between atoms: C_7  and  C_11
    3  A    between atoms: N_8  and  C_18
    4  A    between atoms: C_18  and  C_30
                            x       y       z     vdW  Elec       q    Type
                         _______ _______ _______ _____ _____    ______ ____

>  <TORSDO>
F 4

$$$$
=
 OpenBabel11052415383D

 34 38  0  0  1  0  0  0  0  0999 V2000
  186.1980  178.2390  143.9280 C   0  0  0  0  0  0  0  0  0  0  0  0
  188.8270  177.7710  146.4680 C   0  0  0  0  0  3  0  0  0  0  0  0
  186.6030  178.1210  146.6410 O   0  0  0  0  0  0  0  0  0  0  0  0
  184.6120  178.6770  142.0210 N   0  0  0  0  0  0  0  0  0  0  0  0
  185.9970  178.4020  142.4300 C   0  0  0  0  0  2  0  0  0  0  0  0
  183.8160  178.9930  144.3130 C   0  0  2  0  0  3  0  0  0  0  0  0
  182.9590  177.8900  144.2710 O   0  0  0  0  0  1  0  0  0  0  0  0
  183.9410  179.6070  142.9290 C   0  0  0  0  0  2  0  0  0  0  0  0
  185.3990  178.4530  146.1930 C   0  0  0  0  0  0  0  0  0  0  0  0
  185.1670  178.5760  144.8200 C   0  0  0  0  0  0  0  0  0  0  0  0
  184.4750  178.6800  147.0200 O   0  0  0  0  0  0  0  0  0  0  0  0
  190.1690  177.7960  145.8180 C   0  0  0  0  0  2  0  0  0  0  0  0
  190.3740  176.6820  144.8560 C   0  0  0  0  0  0  0  0  0  0  0  0
  189.5690  176.5290  143.8070 C   0  0  0  0  0  3  0  0  0  0  0  0
  187.6420  177.8710  145.8490 C   0  0  0  0  0  0  0  0  0  0  0  0
  188.3050  177.2430  143.5600 C   0  0  0  0  0  3  0  0  0  0  0  0
  187.4490  177.8140  144.4350 C   0  0  0  0  0  0  0  0  0  0  0  0
  191.5860  175.8510  144.9780 C   0  0  0  0  0  0  0  0  0  0  0  0
  192.2340  175.7320  146.2040 O   0  0  0  0  0  1  0  0  0  0  0  0
  192.0560  175.2530  143.9680 O   0  0  0  0  0  0  0  0  0  0  0  0
  184.5770  179.2450  140.6610 C   0  0  0  0  0  2  0  0  0  0  0  0
  182.2710  176.6000  139.2100 C   0  0  0  0  0  2  0  0  0  0  0  0
  184.0760  178.4850  138.3510 O   0  0  0  0  0  0  0  0  0  0  0  0
  184.7370  174.4620  137.3460 C   0  0  0  0  0  0  0  0  0  0  0  0
  183.6040  174.8420  137.9680 C   0  0  0  0  0  3  0  0  0  0  0  0
  183.2030  176.2870  138.0380 C   0  0  2  0  0  3  0  0  0  0  0  0
  185.2520  176.9470  136.8640 C   0  0  0  0  0  2  0  0  0  0  0  0
  184.4450  177.1490  138.1300 C   0  0  1  0  0  3  0  0  0  0  0  0
  185.7320  175.4840  136.8070 C   0  0  0  0  0  2  0  0  0  0  0  0
  183.5600  178.6090  139.6790 C   0  0  1  0  0  3  0  0  0  0  0  0
  182.9640  177.3750  140.2460 N   0  0  0  0  0  2  0  0  0  0  0  0
  185.0880  173.0310  137.3040 C   0  0  0  0  0  0  0  0  0  0  0  0
  184.1840  172.1560  137.2160 O   0  0  0  0  0  0  0  0  0  0  0  0
  186.4170  172.6270  137.3560 O   0  0  0  0  0  1  0  0  0  0  0  0
  1 17  1  0  0  0  0
  1 10  2  0  0  0  0
  4  5  1  0  0  0  0
  4  8  1  0  0  0  0
  5  1  1  0  0  0  0
  6  7  1  6  0  0  0
  6 10  1  0  0  0  0
  8  6  1  0  0  0  0
  9  3  1  0  0  0  0
  9 11  2  0  0  0  0
 10  9  1  0  0  0  0
 12  2  1  0  0  0  0
 13 18  1  0  0  0  0
 13 12  1  0  0  0  0
 14 13  2  0  0  0  0
 15  2  2  0  0  0  0
 15  3  1  0  0  0  0
 16 14  1  0  0  0  0
 16 17  2  0  0  0  0
 17 15  1  0  0  0  0
 18 19  1  0  0  0  0
 20 18  2  0  0  0  0
 21  4  1  0  0  0  0
 22 31  1  0  0  0  0
 23 30  1  0  0  0  0
 24 25  2  0  0  0  0
 26 25  1  1  0  0  0
 26 28  1  0  0  0  0
 26 22  1  0  0  0  0
 28 27  1  6  0  0  0
 28 23  1  0  0  0  0
 29 27  1  0  0  0  0
 29 24  1  0  0  0  0
 30 31  1  0  0  0  0
 30 21  1  1  0  0  0
 32 24  1  0  0  0  0
 32 34  1  0  0  0  0
 33 32  2  0  0  0  0
M  END
>  <MODEL>
4

>  <REMARK>
 VINA RESULT:      -9.0      2.839      4.488
  Name = 
  4 active torsions:
  status: ('A' for Active; 'I' for Inactive)
    1  A    between atoms: C_3  and  C_25
    2  A    between atoms: C_7  and  C_11
    3  A    between atoms: N_8  and  C_18
    4  A    between atoms: C_18  and  C_30
                            x       y       z     vdW  Elec       q    Type
                         _______ _______ _______ _____ _____    ______ ____

>  <TORSDO>
F 4

$$$$
=
 OpenBabel11052415383D

 34 38  0  0  1  0  0  0  0  0999 V2000
  182.6050  178.2940  141.3440 C   0  0  0  0  0  0  0  0  0  0  0  0
  181.9350  175.9970  138.5410 C   0  0  0  0  0  3  0  0  0  0  0  0
  180.5870  176.8970  140.1140 O   0  0  0  0  0  0  0  0  0  0  0  0
  183.3340  179.7440  143.2700 N   0  0  0  0  0  0  0  0  0  0  0  0
  183.7420  178.9840  142.0790 C   0  0  0  0  0  2  0  0  0  0  0  0
  181.0370  178.9020  143.2310 C   0  0  2  0  0  3  0  0  0  0  0  0
  180.4760  180.1590  142.9940 O   0  0  0  0  0  1  0  0  0  0  0  0
  182.3110  179.0470  144.0470 C   0  0  0  0  0  2  0  0  0  0  0  0
  180.3180  177.5360  141.2440 C   0  0  0  0  0  0  0  0  0  0  0  0
  181.3310  178.2140  141.9300 C   0  0  0  0  0  0  0  0  0  0  0  0
  179.1450  177.5030  141.7060 O   0  0  0  0  0  0  0  0  0  0  0  0
  183.2220  175.5430  137.9410 C   0  0  0  0  0  2  0  0  0  0  0  0
  184.0100  176.6500  137.3390 C   0  0  0  0  0  0  0  0  0  0  0  0
  184.4080  177.6840  138.0760 C   0  0  0  0  0  3  0  0  0  0  0  0
  181.7930  176.8660  139.5520 C   0  0  0  0  0  0  0  0  0  0  0  0
  183.9790  177.9970  139.4500 C   0  0  0  0  0  3  0  0  0  0  0  0
  182.8420  177.6670  140.0980 C   0  0  0  0  0  0  0  0  0  0  0  0
  184.4990  176.5040  135.9550 C   0  0  0  0  0  0  0  0  0  0  0  0
  185.6660  177.1470  135.5520 O   0  0  0  0  0  1  0  0  0  0  0  0
  183.8540  175.8080  135.1190 O   0  0  0  0  0  0  0  0  0  0  0  0
  184.4930  179.9990  144.1440 C   0  0  0  0  0  2  0  0  0  0  0  0
  186.3490  178.2530  146.9590 C   0  0  0  0  0  2  0  0  0  0  0  0
  185.4440  177.7220  144.4200 O   0  0  0  0  0  0  0  0  0  0  0  0
  189.5460  177.3160  145.2210 C   0  0  0  0  0  0  0  0  0  0  0  0
  188.6710  177.5790  146.2100 C   0  0  0  0  0  3  0  0  0  0  0  0
  187.1940  177.4020  146.0100 C   0  0  2  0  0  3  0  0  0  0  0  0
  187.5550  176.7500  143.6740 C   0  0  0  0  0  2  0  0  0  0  0  0
  186.8390  177.7340  144.5760 C   0  0  1  0  0  3  0  0  0  0  0  0
  189.0750  176.9610  143.8140 C   0  0  0  0  0  2  0  0  0  0  0  0
  184.8920  178.8500  145.1050 C   0  0  1  0  0  3  0  0  0  0  0  0
  185.6950  179.3550  146.2440 N   0  0  0  0  0  2  0  0  0  0  0  0
  190.9870  177.5040  145.4660 C   0  0  0  0  0  0  0  0  0  0  0  0
  191.6810  178.2000  144.6770 O   0  0  0  0  0  0  0  0  0  0  0  0
  191.5980  176.9210  146.5710 O   0  0  0  0  0  1  0  0  0  0  0  0
  1 10  2  0  0  0  0
  1  5  1  0  0  0  0
  2 15  2  0  0  0  0
  3  9  1  0  0  0  0
  4  8  1  0  0  0  0
  4 21  1  0  0  0  0
  5  4  1  0  0  0  0
  6  7  1  6  0  0  0
  6  8  1  0  0  0  0
  9 11  2  0  0  0  0
  9 10  1  0  0  0  0
 10  6  1  0  0  0  0
 12  2  1  0  0  0  0
 13 12  1  0  0  0  0
 13 14  2  0  0  0  0
 14 16  1  0  0  0  0
 15 17  1  0  0  0  0
 15  3  1  0  0  0  0
 16 17  2  0  0  0  0
 17  1  1  0  0  0  0
 18 13  1  0  0  0  0
 19 18  1  0  0  0  0
 20 18  2  0  0  0  0
 23 28  1  0  0  0  0
 23 30  1  0  0  0  0
 24 32  1  0  0  0  0
 24 25  2  0  0  0  0
 26 25  1  6  0  0  0
 26 22  1  0  0  0  0
 27 29  1  0  0  0  0
 28 27  1  6  0  0  0
 28 26  1  0  0  0  0
 29 24  1  0  0  0  0
 30 21  1  6  0  0  0
 30 31  1  0  0  0  0
 31 22  1  0  0  0  0
 32 34  1  0  0  0  0
 33 32  2  0  0  0  0
M  END
>  <MODEL>
5

>  <REMARK>
 VINA RESULT:      -8.9      2.648      9.235
  Name = 
  4 active torsions:
  status: ('A' for Active; 'I' for Inactive)
    1  A    between atoms: C_3  and  C_25
    2  A    between atoms: C_7  and  C_11
    3  A    between atoms: N_8  and  C_18
    4  A    between atoms: C_18  and  C_30
                            x       y       z     vdW  Elec       q    Type
                         _______ _______ _______ _____ _____    ______ ____

>  <TORSDO>
F 4

$$$$
=
 OpenBabel11052415383D

 34 38  0  0  1  0  0  0  0  0999 V2000
  188.0260  177.7740  143.1590 C   0  0  0  0  0  0  0  0  0  0  0  0
  191.6340  177.4690  142.4740 C   0  0  0  0  0  3  0  0  0  0  0  0
  190.4440  177.3490  144.3890 O   0  0  0  0  0  0  0  0  0  0  0  0
  185.5490  178.1640  143.3930 N   0  0  0  0  0  0  0  0  0  0  0  0
  186.7040  178.1080  142.4860 C   0  0  0  0  0  2  0  0  0  0  0  0
  186.9110  177.9850  145.4180 C   0  0  2  0  0  3  0  0  0  0  0  0
  186.3660  176.7540  145.7930 O   0  0  0  0  0  1  0  0  0  0  0  0
  185.8750  178.8040  144.6670 C   0  0  0  0  0  2  0  0  0  0  0  0
  189.3650  177.5000  145.1460 C   0  0  0  0  0  0  0  0  0  0  0  0
  188.1250  177.7720  144.5600 C   0  0  0  0  0  0  0  0  0  0  0  0
  189.4760  177.4210  146.3990 O   0  0  0  0  0  0  0  0  0  0  0  0
  191.9140  177.8480  141.0590 C   0  0  0  0  0  2  0  0  0  0  0  0
  191.2670  176.9460  140.0710 C   0  0  0  0  0  0  0  0  0  0  0  0
  189.9450  176.7920  140.0520 C   0  0  0  0  0  3  0  0  0  0  0  0
  190.4290  177.4230  143.0600 C   0  0  0  0  0  0  0  0  0  0  0  0
  188.9910  177.2730  141.0660 C   0  0  0  0  0  3  0  0  0  0  0  0
  189.1800  177.5330  142.3770 C   0  0  0  0  0  0  0  0  0  0  0  0
  192.0900  176.3590  138.9980 C   0  0  0  0  0  0  0  0  0  0  0  0
  193.3410  176.8920  138.7020 O   0  0  0  0  0  1  0  0  0  0  0  0
  191.6600  175.3770  138.3270 O   0  0  0  0  0  0  0  0  0  0  0  0
  184.4360  178.9030  142.7700 C   0  0  0  0  0  2  0  0  0  0  0  0
  184.0030  179.2510  139.0140 C   0  0  0  0  0  2  0  0  0  0  0  0
  182.6730  178.1930  141.1730 O   0  0  0  0  0  0  0  0  0  0  0  0
  180.7410  181.1100  138.8500 C   0  0  0  0  0  0  0  0  0  0  0  0
  181.9350  180.6100  138.4790 C   0  0  0  0  0  3  0  0  0  0  0  0
  182.4800  179.3550  139.0980 C   0  0  2  0  0  3  0  0  0  0  0  0
  180.5300  179.2000  140.5780 C   0  0  0  0  0  2  0  0  0  0  0  0
  182.0430  179.2800  140.5460 C   0  0  1  0  0  3  0  0  0  0  0  0
  179.9500  180.5090  140.0080 C   0  0  0  0  0  2  0  0  0  0  0  0
  184.0640  178.4890  141.3240 C   0  0  1  0  0  3  0  0  0  0  0  0
  184.6210  179.4400  140.3320 N   0  0  0  0  0  2  0  0  0  0  0  0
  180.2490  182.3440  138.2130 C   0  0  0  0  0  0  0  0  0  0  0  0
  180.6480  182.6690  137.0620 O   0  0  0  0  0  0  0  0  0  0  0  0
  179.3370  183.1640  138.8700 O   0  0  0  0  0  1  0  0  0  0  0  0
  1 10  2  0  0  0  0
  2 15  2  0  0  0  0
  3  9  1  0  0  0  0
  4  8  1  0  0  0  0
  5  1  1  0  0  0  0
  5  4  1  0  0  0  0
  6  7  1  6  0  0  0
  8  6  1  0  0  0  0
  9 11  2  0  0  0  0
 10  9  1  0  0  0  0
 10  6  1  0  0  0  0
 12  2  1  0  0  0  0
 13 12  1  0  0  0  0
 14 13  2  0  0  0  0
 14 16  1  0  0  0  0
 15  3  1  0  0  0  0
 16 17  2  0  0  0  0
 17 15  1  0  0  0  0
 17  1  1  0  0  0  0
 18 13  1  0  0  0  0
 19 18  1  0  0  0  0
 20 18  2  0  0  0  0
 21  4  1  0  0  0  0
 22 26  1  0  0  0  0
 22 31  1  0  0  0  0
 23 30  1  0  0  0  0
 24 29  1  0  0  0  0
 25 24  2  0  0  0  0
 26 25  1  1  0  0  0
 26 28  1  0  0  0  0
 28 27  1  6  0  0  0
 28 23  1  0  0  0  0
 29 27  1  0  0  0  0
 30 21  1  1  0  0  0
 31 30  1  0  0  0  0
 32 24  1  0  0  0  0
 32 34  1  0  0  0  0
 33 32  2  0  0  0  0
M  END
>  <MODEL>
6

>  <REMARK>
 VINA RESULT:      -8.5      3.068      4.003
  Name = 
  4 active torsions:
  status: ('A' for Active; 'I' for Inactive)
    1  A    between atoms: C_3  and  C_25
    2  A    between atoms: C_7  and  C_11
    3  A    between atoms: N_8  and  C_18
    4  A    between atoms: C_18  and  C_30
                            x       y       z     vdW  Elec       q    Type
                         _______ _______ _______ _____ _____    ______ ____

>  <TORSDO>
F 4

$$$$
=
 OpenBabel11052415383D

 34 38  0  0  1  0  0  0  0  0999 V2000
  190.0930  177.2430  140.7100 C   0  0  0  0  0  0  0  0  0  0  0  0
  189.3910  178.2580  144.1820 C   0  0  0  0  0  3  0  0  0  0  0  0
  188.1280  178.3000  142.3100 O   0  0  0  0  0  0  0  0  0  0  0  0
  190.8550  176.6190  138.3920 N   0  0  0  0  0  0  0  0  0  0  0  0
  191.2160  176.7520  139.8110 C   0  0  0  0  0  2  0  0  0  0  0  0
  188.6820  177.7090  138.6650 C   0  0  2  0  0  3  0  0  0  0  0  0
  187.9560  176.5660  138.3210 O   0  0  0  0  0  1  0  0  0  0  0  0
  190.0120  177.7210  137.9300 C   0  0  0  0  0  2  0  0  0  0  0  0
  187.9120  178.2300  141.0040 C   0  0  0  0  0  0  0  0  0  0  0  0
  188.9090  177.7490  140.1490 C   0  0  0  0  0  0  0  0  0  0  0  0
  186.8100  178.6270  140.5400 O   0  0  0  0  0  0  0  0  0  0  0  0
  190.6480  178.2250  144.9830 C   0  0  0  0  0  2  0  0  0  0  0  0
  191.2310  176.8630  145.1010 C   0  0  0  0  0  0  0  0  0  0  0  0
  191.5840  176.1750  144.0170 C   0  0  0  0  0  3  0  0  0  0  0  0
  189.2610  177.9130  142.8930 C   0  0  0  0  0  0  0  0  0  0  0  0
  191.2760  176.5230  142.6190 C   0  0  0  0  0  3  0  0  0  0  0  0
  190.2630  177.2590  142.1140 C   0  0  0  0  0  0  0  0  0  0  0  0
  191.5790  176.3510  146.4400 C   0  0  0  0  0  0  0  0  0  0  0  0
  190.9880  176.8990  147.5750 O   0  0  0  0  0  1  0  0  0  0  0  0
  192.4270  175.4230  146.5690 O   0  0  0  0  0  0  0  0  0  0  0  0
  192.0650  176.5740  137.5520 C   0  0  0  0  0  2  0  0  0  0  0  0
  191.8570  173.0730  136.0970 C   0  0  0  0  0  2  0  0  0  0  0  0
  193.3950  175.3370  135.8590 O   0  0  0  0  0  0  0  0  0  0  0  0
  195.2620  171.7430  136.9700 C   0  0  0  0  0  0  0  0  0  0  0  0
  193.9630  171.7670  136.6170 C   0  0  0  0  0  3  0  0  0  0  0  0
  193.3700  172.9510  135.9110 C   0  0  2  0  0  3  0  0  0  0  0  0
  195.5140  174.1360  136.0290 C   0  0  0  0  0  2  0  0  0  0  0  0
  194.0460  174.2160  136.3980 C   0  0  1  0  0  3  0  0  0  0  0  0
  196.1570  172.9650  136.7980 C   0  0  0  0  0  2  0  0  0  0  0  0
  192.1090  175.4630  136.4720 C   0  0  1  0  0  3  0  0  0  0  0  0
  191.5200  174.2000  136.9750 N   0  0  0  0  0  2  0  0  0  0  0  0
  195.7970  170.5560  137.6620 C   0  0  0  0  0  0  0  0  0  0  0  0
  196.9010  170.0600  137.3120 O   0  0  0  0  0  0  0  0  0  0  0  0
  195.0940  169.9720  138.7100 O   0  0  0  0  0  1  0  0  0  0  0  0
  1 17  1  0  0  0  0
  2 12  1  0  0  0  0
  3 15  1  0  0  0  0
  4  5  1  0  0  0  0
  5  1  1  0  0  0  0
  6  7  1  1  0  0  0
  6 10  1  0  0  0  0
  8  4  1  0  0  0  0
  8  6  1  0  0  0  0
  9  3  1  0  0  0  0
 10  1  2  0  0  0  0
 10  9  1  0  0  0  0
 11  9  2  0  0  0  0
 12 13  1  0  0  0  0
 13 18  1  0  0  0  0
 14 13  2  0  0  0  0
 15  2  2  0  0  0  0
 16 14  1  0  0  0  0
 17 16  2  0  0  0  0
 17 15  1  0  0  0  0
 18 20  2  0  0  0  0
 18 19  1  0  0  0  0
 21  4  1  0  0  0  0
 22 31  1  0  0  0  0
 23 28  1  0  0  0  0
 23 30  1  0  0  0  0
 24 32  1  0  0  0  0
 25 24  2  0  0  0  0
 26 22  1  1  0  0  0
 26 28  1  0  0  0  0
 26 25  1  0  0  0  0
 27 29  1  0  0  0  0
 28 27  1  6  0  0  0
 29 24  1  0  0  0  0
 30 31  1  0  0  0  0
 30 21  1  1  0  0  0
 32 34  1  0  0  0  0
 33 32  2  0  0  0  0
M  END
>  <MODEL>
7

>  <REMARK>
 VINA RESULT:      -8.3      6.977     10.388
  Name = 
  4 active torsions:
  status: ('A' for Active; 'I' for Inactive)
    1  A    between atoms: C_3  and  C_25
    2  A    between atoms: C_7  and  C_11
    3  A    between atoms: N_8  and  C_18
    4  A    between atoms: C_18  and  C_30
                            x       y       z     vdW  Elec       q    Type
                         _______ _______ _______ _____ _____    ______ ____

>  <TORSDO>
F 4

$$$$
=
 OpenBabel11052415383D

 34 38  0  0  1  0  0  0  0  0999 V2000
  190.0840  177.2880  140.7830 C   0  0  0  0  0  0  0  0  0  0  0  0
  189.3320  178.1500  144.2860 C   0  0  0  0  0  3  0  0  0  0  0  0
  188.0690  178.1920  142.4150 O   0  0  0  0  0  0  0  0  0  0  0  0
  190.8750  176.7800  138.4470 N   0  0  0  0  0  0  0  0  0  0  0  0
  191.2290  176.8820  139.8700 C   0  0  0  0  0  2  0  0  0  0  0  0
  188.6510  177.7520  138.7530 C   0  0  2  0  0  3  0  0  0  0  0  0
  187.9820  176.5860  138.3700 O   0  0  0  0  0  1  0  0  0  0  0  0
  189.9780  177.8530  138.0210 C   0  0  0  0  0  2  0  0  0  0  0  0
  187.8570  178.1560  141.1060 C   0  0  0  0  0  0  0  0  0  0  0  0
  188.8760  177.7530  140.2380 C   0  0  0  0  0  0  0  0  0  0  0  0
  186.7360  178.5130  140.6540 O   0  0  0  0  0  0  0  0  0  0  0  0
  190.5900  178.1520  145.0880 C   0  0  0  0  0  2  0  0  0  0  0  0
  191.2390  176.8180  145.1610 C   0  0  0  0  0  0  0  0  0  0  0  0
  191.6260  176.1850  144.0550 C   0  0  0  0  0  3  0  0  0  0  0  0
  189.2190  177.8430  142.9860 C   0  0  0  0  0  0  0  0  0  0  0  0
  191.3010  176.5640  142.6700 C   0  0  0  0  0  3  0  0  0  0  0  0
  190.2520  177.2650  142.1880 C   0  0  0  0  0  0  0  0  0  0  0  0
  191.6120  176.2800  146.4830 C   0  0  0  0  0  0  0  0  0  0  0  0
  191.0670  176.8260  147.6410 O   0  0  0  0  0  1  0  0  0  0  0  0
  192.4400  175.3290  146.5760 O   0  0  0  0  0  0  0  0  0  0  0  0
  192.0860  176.8220  137.6080 C   0  0  0  0  0  2  0  0  0  0  0  0
  193.6750  173.3960  137.2190 C   0  0  0  0  0  2  0  0  0  0  0  0
  193.3140  175.6990  135.7650 O   0  0  0  0  0  0  0  0  0  0  0  0
  197.2300  174.3490  136.4590 C   0  0  0  0  0  0  0  0  0  0  0  0
  196.1670  173.6100  136.8300 C   0  0  0  0  0  3  0  0  0  0  0  0
  194.7920  173.9050  136.3070 C   0  0  2  0  0  3  0  0  0  0  0  0
  195.6470  175.8350  135.0580 C   0  0  0  0  0  2  0  0  0  0  0  0
  194.6430  175.3990  136.1060 C   0  0  1  0  0  3  0  0  0  0  0  0
  197.0690  175.6020  135.6040 C   0  0  0  0  0  2  0  0  0  0  0  0
  192.4860  175.4960  136.9130 C   0  0  1  0  0  3  0  0  0  0  0  0
  192.9930  174.5060  137.8940 N   0  0  0  0  0  2  0  0  0  0  0  0
  198.5600  174.0180  137.0000 C   0  0  0  0  0  0  0  0  0  0  0  0
  199.1530  172.9680  136.6330 O   0  0  0  0  0  0  0  0  0  0  0  0
  199.1800  174.8600  137.9170 O   0  0  0  0  0  1  0  0  0  0  0  0
  1 17  1  0  0  0  0
  2 12  1  0  0  0  0
  3 15  1  0  0  0  0
  4  5  1  0  0  0  0
  5  1  1  0  0  0  0
  6  7  1  6  0  0  0
  6 10  1  0  0  0  0
  8  4  1  0  0  0  0
  8  6  1  0  0  0  0
  9  3  1  0  0  0  0
 10  1  2  0  0  0  0
 10  9  1  0  0  0  0
 11  9  2  0  0  0  0
 12 13  1  0  0  0  0
 13 18  1  0  0  0  0
 14 13  2  0  0  0  0
 15  2  2  0  0  0  0
 16 14  1  0  0  0  0
 17 16  2  0  0  0  0
 17 15  1  0  0  0  0
 18 20  2  0  0  0  0
 18 19  1  0  0  0  0
 21  4  1  0  0  0  0
 22 31  1  0  0  0  0
 23 28  1  0  0  0  0
 23 30  1  0  0  0  0
 24 25  2  0  0  0  0
 24 32  1  0  0  0  0
 26 25  1  1  0  0  0
 26 22  1  0  0  0  0
 27 29  1  0  0  0  0
 28 27  1  6  0  0  0
 28 26  1  0  0  0  0
 29 24  1  0  0  0  0
 30 21  1  1  0  0  0
 30 31  1  0  0  0  0
 32 34  1  0  0  0  0
 33 32  2  0  0  0  0
M  END
>  <MODEL>
8

>  <REMARK>
 VINA RESULT:      -8.3      7.225     10.740
  Name = 
  4 active torsions:
  status: ('A' for Active; 'I' for Inactive)
    1  A    between atoms: C_3  and  C_25
    2  A    between atoms: C_7  and  C_11
    3  A    between atoms: N_8  and  C_18
    4  A    between atoms: C_18  and  C_30
                            x       y       z     vdW  Elec       q    Type
                         _______ _______ _______ _____ _____    ______ ____

>  <TORSDO>
F 4

$$$$
=
 OpenBabel11052415383D

 34 38  0  0  1  0  0  0  0  0999 V2000
  187.3680  178.0170  140.9150 C   0  0  0  0  0  0  0  0  0  0  0  0
  188.4450  177.4240  144.3890 C   0  0  0  0  0  3  0  0  0  0  0  0
  189.6070  177.7720  142.4850 O   0  0  0  0  0  0  0  0  0  0  0  0
  186.3930  178.2590  138.6050 N   0  0  0  0  0  0  0  0  0  0  0  0
  186.1280  178.0530  140.0360 C   0  0  0  0  0  2  0  0  0  0  0  0
  188.8160  178.0140  138.8440 C   0  0  2  0  0  3  0  0  0  0  0  0
  189.0850  179.3280  138.4530 O   0  0  0  0  0  1  0  0  0  0  0  0
  187.5630  177.5110  138.1460 C   0  0  0  0  0  2  0  0  0  0  0  0
  189.7610  177.8720  141.1710 C   0  0  0  0  0  0  0  0  0  0  0  0
  188.6440  177.9440  140.3330 C   0  0  0  0  0  0  0  0  0  0  0  0
  190.9250  177.8740  140.6860 O   0  0  0  0  0  0  0  0  0  0  0  0
  187.2710  177.0380  145.2240 C   0  0  0  0  0  2  0  0  0  0  0  0
  186.2470  178.1090  145.3260 C   0  0  0  0  0  0  0  0  0  0  0  0
  185.6550  178.5940  144.2360 C   0  0  0  0  0  3  0  0  0  0  0  0
  188.4220  177.7520  143.0890 C   0  0  0  0  0  0  0  0  0  0  0  0
  186.0410  178.3330  142.8390 C   0  0  0  0  0  3  0  0  0  0  0  0
  187.2400  177.9860  142.3240 C   0  0  0  0  0  0  0  0  0  0  0  0
  185.7650  178.5080  146.6620 C   0  0  0  0  0  0  0  0  0  0  0  0
  186.6650  178.6800  147.7090 O   0  0  0  0  0  1  0  0  0  0  0  0
  184.5300  178.6790  146.8710 O   0  0  0  0  0  0  0  0  0  0  0  0
  185.2300  177.8480  137.7980 C   0  0  0  0  0  2  0  0  0  0  0  0
  182.8620  180.5500  139.0260 C   0  0  0  0  0  2  0  0  0  0  0  0
  182.7750  178.1800  137.6380 O   0  0  0  0  0  0  0  0  0  0  0  0
  180.5350  178.5250  141.1730 C   0  0  0  0  0  0  0  0  0  0  0  0
  181.1840  179.5870  140.6590 C   0  0  0  0  0  3  0  0  0  0  0  0
  181.7050  179.5750  139.2520 C   0  0  2  0  0  3  0  0  0  0  0  0
  180.9300  177.2680  138.9510 C   0  0  0  0  0  2  0  0  0  0  0  0
  182.1460  178.1710  138.8930 C   0  0  1  0  0  3  0  0  0  0  0  0
  180.4200  177.2130  140.4040 C   0  0  0  0  0  2  0  0  0  0  0  0
  184.0390  178.8390  137.7600 C   0  0  1  0  0  3  0  0  0  0  0  0
  184.1320  179.8350  138.8530 N   0  0  0  0  0  2  0  0  0  0  0  0
  180.0420  178.5860  142.5610 C   0  0  0  0  0  0  0  0  0  0  0  0
  179.5710  177.5560  143.1150 O   0  0  0  0  0  0  0  0  0  0  0  0
  180.0920  179.7770  143.2770 O   0  0  0  0  0  1  0  0  0  0  0  0
  1 17  1  0  0  0  0
  2 12  1  0  0  0  0
  3 15  1  0  0  0  0
  4  5  1  0  0  0  0
  5  1  1  0  0  0  0
  6  7  1  1  0  0  0
  6 10  1  0  0  0  0
  8  4  1  0  0  0  0
  8  6  1  0  0  0  0
  9  3  1  0  0  0  0
 10  1  2  0  0  0  0
 10  9  1  0  0  0  0
 11  9  2  0  0  0  0
 12 13  1  0  0  0  0
 13 18  1  0  0  0  0
 14 13  2  0  0  0  0
 15  2  2  0  0  0  0
 16 14  1  0  0  0  0
 17 16  2  0  0  0  0
 17 15  1  0  0  0  0
 18 20  2  0  0  0  0
 18 19  1  0  0  0  0
 21  4  1  0  0  0  0
 23 30  1  0  0  0  0
 23 28  1  0  0  0  0
 24 32  1  0  0  0  0
 25 24  2  0  0  0  0
 26 22  1  1  0  0  0
 26 25  1  0  0  0  0
 27 29  1  0  0  0  0
 28 27  1  6  0  0  0
 28 26  1  0  0  0  0
 29 24  1  0  0  0  0
 30 21  1  1  0  0  0
 30 31  1  0  0  0  0
 31 22  1  0  0  0  0
 32 33  2  0  0  0  0
 32 34  1  0  0  0  0
M  END
>  <MODEL>
9

>  <REMARK>
 VINA RESULT:      -8.2      2.639      4.889
  Name = 
  4 active torsions:
  status: ('A' for Active; 'I' for Inactive)
    1  A    between atoms: C_3  and  C_25
    2  A    between atoms: C_7  and  C_11
    3  A    between atoms: N_8  and  C_18
    4  A    between atoms: C_18  and  C_30
                            x       y       z     vdW  Elec       q    Type
                         _______ _______ _______ _____ _____    ______ ____

>  <TORSDO>
F 4

$$$$
