=
 OpenBabel11052416263D

 43 47  0  0  1  0  0  0  0  0999 V2000
  187.3490  177.9010  147.1230 C   0  0  0  0  0  0  0  0  0  0  0  0
  184.2750  178.9250  143.3060 N   0  0  0  0  0  0  0  0  0  0  0  0
  185.4560  178.6470  145.7650 C   0  0  0  0  0  0  0  0  0  0  0  0
  188.0480  177.4690  146.0660 C   0  0  0  0  0  3  0  0  0  0  0  0
  187.9280  177.7650  148.4840 C   0  0  0  0  0  1  0  0  0  0  0  0
  186.1750  178.1860  144.5500 C   0  0  0  0  0  0  0  0  0  0  0  0
  186.0160  178.5080  146.9660 C   0  0  0  0  0  3  0  0  0  0  0  0
  187.5450  177.5620  144.6480 C   0  0  0  0  0  2  0  0  0  0  0  0
  186.0690  177.9680  142.0490 C   0  0  0  0  0  2  0  0  0  0  0  0
  185.5580  178.3450  143.3780 C   0  0  0  0  0  0  0  0  0  0  0  0
  183.5840  179.3750  144.4790 C   0  0  0  0  0  3  0  0  0  0  0  0
  183.8000  178.9850  141.9410 C   0  0  1  0  0  3  0  0  0  0  0  0
  184.9600  178.4350  141.0890 C   0  0  1  0  0  3  0  0  0  0  0  0
  184.1510  179.2410  145.6430 N   0  0  0  0  0  0  0  0  0  0  0  0
  182.5830  178.0900  141.7820 C   0  0  0  0  0  2  0  0  0  0  0  0
  181.4780  178.8530  141.2250 N   0  0  0  0  0  2  0  0  0  0  0  0
  180.7970  178.2120  137.6000 C   0  0  0  0  0  3  0  0  0  0  0  0
  181.3790  180.5410  137.9090 C   0  0  0  0  0  3  0  0  0  0  0  0
  181.0170  179.4850  137.0680 C   0  0  0  0  0  0  0  0  0  0  0  0
  180.9400  177.9950  138.9740 C   0  0  0  0  0  3  0  0  0  0  0  0
  181.3050  179.0530  139.8210 C   0  0  0  0  0  0  0  0  0  0  0  0
  180.8830  179.6930  135.7370 F   0  0  0  0  0  0  0  0  0  0  0  0
  181.5240  180.3250  139.2800 C   0  0  0  0  0  3  0  0  0  0  0  0
  185.4660  179.4560  140.2530 O   0  0  0  0  0  0  0  0  0  0  0  0
  185.7220  178.9640  138.9950 N   0  0  0  0  0  0  0  0  0  0  0  0
  184.5740  178.2350  138.4570 C   0  0  0  0  0  1  0  0  0  0  0  0
  186.9090  178.1070  138.9730 C   0  0  0  0  0  2  0  0  0  0  0  0
  187.9130  178.6430  138.0120 C   0  0  0  0  0  0  0  0  0  0  0  0
  187.5470  179.0340  136.9200 O   0  0  0  0  0  0  0  0  0  0  0  0
  189.3660  178.6860  138.3680 C   0  0  0  0  0  2  0  0  0  0  0  0
  189.8930  177.3540  138.9110 C   0  0  2  0  0  3  0  0  0  0  0  0
  189.8860  177.1110  141.4250 C   0  0  0  0  0  0  0  0  0  0  0  0
  190.5110  177.5400  140.2150 N   0  0  0  0  0  2  0  0  0  0  0  0
  188.7320  176.6020  141.3950 O   0  0  0  0  0  0  0  0  0  0  0  0
  190.5830  177.2870  142.7070 C   0  0  0  0  0  0  0  0  0  0  0  0
  191.5850  176.3970  144.6970 C   0  0  0  0  0  3  0  0  0  0  0  0
  191.5180  178.7280  144.3390 C   0  0  0  0  0  3  0  0  0  0  0  0
  191.8620  177.6610  145.1040 N   0  0  0  0  0  0  0  0  0  0  0  0
  190.8830  178.5370  143.1530 N   0  0  0  0  0  0  0  0  0  0  0  0
  190.9370  176.1820  143.4830 C   0  0  0  0  0  3  0  0  0  0  0  0
  190.8820  176.6950  137.9580 C   0  0  0  0  0  2  0  0  0  0  0  0
  193.0340  175.6560  137.8880 O   0  0  0  0  0  1  0  0  0  0  0  0
  192.2660  176.5970  138.5790 C   0  0  0  0  0  2  0  0  0  0  0  0
  1  5  1  0  0  0  0
  2 10  1  0  0  0  0
  2 11  1  0  0  0  0
  3  7  2  0  0  0  0
  4  1  2  0  0  0  0
  6  8  1  0  0  0  0
  6  3  1  0  0  0  0
  7  1  1  0  0  0  0
  8  4  1  0  0  0  0
  9 10  1  0  0  0  0
 10  6  2  0  0  0  0
 11 14  2  0  0  0  0
 12 15  1  1  0  0  0
 12  2  1  0  0  0  0
 13 24  1  6  0  0  0
 13 12  1  0  0  0  0
 13  9  1  0  0  0  0
 14  3  1  0  0  0  0
 16 15  1  0  0  0  0
 17 20  1  0  0  0  0
 18 23  2  0  0  0  0
 19 17  2  0  0  0  0
 19 18  1  0  0  0  0
 20 21  2  0  0  0  0
 21 16  1  0  0  0  0
 22 19  1  0  0  0  0
 23 21  1  0  0  0  0
 25 24  1  0  0  0  0
 26 25  1  0  0  0  0
 27 25  1  0  0  0  0
 28 30  1  0  0  0  0
 28 27  1  0  0  0  0
 29 28  2  0  0  0  0
 30 31  1  0  0  0  0
 31 41  1  6  0  0  0
 31 33  1  0  0  0  0
 32 35  1  0  0  0  0
 33 32  1  0  0  0  0
 34 32  2  0  0  0  0
 35 39  2  0  0  0  0
 35 40  1  0  0  0  0
 36 38  1  0  0  0  0
 37 38  2  0  0  0  0
 39 37  1  0  0  0  0
 40 36  2  0  0  0  0
 41 43  1  0  0  0  0
 42 43  1  0  0  0  0
M  END
>  <MODEL>
1

>  <REMARK>
 VINA RESULT:      -8.6      0.000      0.000
  Name = 
  13 active torsions:
  status: ('A' for Active; 'I' for Inactive)
    1  A    between atoms: C_1  and  N_28
    2  A    between atoms: C_1  and  C_34
    3  A    between atoms: N_2  and  C_6
    4  A    between atoms: N_2  and  O_13
    5  A    between atoms: C_3  and  C_4
    6  A    between atoms: C_3  and  C_12
    7  A    between atoms: C_4  and  C_15
    8  A    between atoms: C_4  and  N_22
    9  A    between atoms: C_6  and  C_12
   10  A    between atoms: C_11  and  C_14
   11  A    between atoms: O_13  and  C_38
   12  A    between atoms: C_15  and  C_42
   13  A    between atoms: N_28  and  C_35
                            x       y       z     vdW  Elec       q    Type
                         _______ _______ _______ _____ _____    ______ ____

>  <TORSDO>
F 13

$$$$
=
 OpenBabel11052416263D

 43 47  0  0  1  0  0  0  0  0999 V2000
  193.6150  174.8990  136.4840 C   0  0  0  0  0  0  0  0  0  0  0  0
  190.7310  177.3480  139.7620 N   0  0  0  0  0  0  0  0  0  0  0  0
  192.8130  176.2220  138.3780 C   0  0  0  0  0  0  0  0  0  0  0  0
  192.3890  174.7250  135.9750 C   0  0  0  0  0  3  0  0  0  0  0  0
  194.7840  174.3020  135.7880 C   0  0  0  0  0  1  0  0  0  0  0  0
  191.4260  176.0640  137.8720 C   0  0  0  0  0  0  0  0  0  0  0  0
  193.8320  175.6720  137.7190 C   0  0  0  0  0  3  0  0  0  0  0  0
  191.1440  175.2900  136.6080 C   0  0  0  0  0  2  0  0  0  0  0  0
  189.0070  176.6110  138.2780 C   0  0  0  0  0  2  0  0  0  0  0  0
  190.4480  176.6330  138.5800 C   0  0  0  0  0  0  0  0  0  0  0  0
  192.0700  177.5050  140.2470 C   0  0  0  0  0  3  0  0  0  0  0  0
  189.5220  177.8630  140.3670 C   0  0  1  0  0  3  0  0  0  0  0  0
  188.3900  177.4630  139.4010 C   0  0  1  0  0  3  0  0  0  0  0  0
  193.0550  176.9680  139.5850 N   0  0  0  0  0  0  0  0  0  0  0  0
  189.2990  177.1980  141.7150 C   0  0  0  0  0  2  0  0  0  0  0  0
  189.6770  178.1080  142.7820 N   0  0  0  0  0  2  0  0  0  0  0  0
  191.6780  176.5680  145.5450 C   0  0  0  0  0  3  0  0  0  0  0  0
  189.5870  177.4000  146.4350 C   0  0  0  0  0  3  0  0  0  0  0  0
  190.8140  176.7590  146.6260 C   0  0  0  0  0  0  0  0  0  0  0  0
  191.3140  177.0170  144.2730 C   0  0  0  0  0  3  0  0  0  0  0  0
  190.0820  177.6590  144.0770 C   0  0  0  0  0  0  0  0  0  0  0  0
  191.1650  176.3200  147.8580 F   0  0  0  0  0  0  0  0  0  0  0  0
  189.2210  177.8460  145.1640 C   0  0  0  0  0  3  0  0  0  0  0  0
  187.8070  178.6230  138.8400 O   0  0  0  0  0  0  0  0  0  0  0  0
  187.1930  178.3230  137.6470 N   0  0  0  0  0  0  0  0  0  0  0  0
  187.8210  179.0220  136.5270 C   0  0  0  0  0  1  0  0  0  0  0  0
  185.7600  178.6220  137.6780 C   0  0  0  0  0  2  0  0  0  0  0  0
  184.9770  177.3660  137.8500 C   0  0  0  0  0  0  0  0  0  0  0  0
  185.2960  176.3710  137.2280 O   0  0  0  0  0  0  0  0  0  0  0  0
  183.7900  177.3230  138.7620 C   0  0  0  0  0  2  0  0  0  0  0  0
  183.4970  178.6690  139.4330 C   0  0  2  0  0  3  0  0  0  0  0  0
  184.6510  178.9820  141.6580 C   0  0  0  0  0  0  0  0  0  0  0  0
  183.5370  178.5390  140.8810 N   0  0  0  0  0  2  0  0  0  0  0  0
  185.6720  179.4540  141.0870 O   0  0  0  0  0  0  0  0  0  0  0  0
  184.6110  178.8640  143.1230 C   0  0  0  0  0  0  0  0  0  0  0  0
  185.6590  178.3740  145.2240 C   0  0  0  0  0  3  0  0  0  0  0  0
  183.3870  179.0040  145.1460 C   0  0  0  0  0  3  0  0  0  0  0  0
  184.4840  178.6330  145.8520 N   0  0  0  0  0  0  0  0  0  0  0  0
  183.4540  179.1160  143.7940 N   0  0  0  0  0  0  0  0  0  0  0  0
  185.7470  178.4860  143.8390 C   0  0  0  0  0  3  0  0  0  0  0  0
  182.1550  179.2470  139.0020 C   0  0  0  0  0  2  0  0  0  0  0  0
  180.5210  180.4710  140.2450 O   0  0  0  0  0  1  0  0  0  0  0  0
  181.1530  179.2290  140.1440 C   0  0  0  0  0  2  0  0  0  0  0  0
  1  7  1  0  0  0  0
  2 11  1  0  0  0  0
  2 12  1  0  0  0  0
  3 14  1  0  0  0  0
  4  1  2  0  0  0  0
  4  8  1  0  0  0  0
  5  1  1  0  0  0  0
  6  3  1  0  0  0  0
  6 10  2  0  0  0  0
  7  3  2  0  0  0  0
  8  6  1  0  0  0  0
  9 10  1  0  0  0  0
  9 13  1  0  0  0  0
 10  2  1  0  0  0  0
 12 15  1  1  0  0  0
 13 24  1  6  0  0  0
 13 12  1  0  0  0  0
 14 11  2  0  0  0  0
 15 16  1  0  0  0  0
 16 21  1  0  0  0  0
 17 19  1  0  0  0  0
 18 19  2  0  0  0  0
 19 22  1  0  0  0  0
 20 17  2  0  0  0  0
 21 20  1  0  0  0  0
 21 23  2  0  0  0  0
 23 18  1  0  0  0  0
 25 27  1  0  0  0  0
 25 24  1  0  0  0  0
 26 25  1  0  0  0  0
 27 28  1  0  0  0  0
 28 30  1  0  0  0  0
 29 28  2  0  0  0  0
 31 30  1  6  0  0  0
 31 33  1  0  0  0  0
 32 35  1  0  0  0  0
 33 32  1  0  0  0  0
 34 32  2  0  0  0  0
 35 39  2  0  0  0  0
 35 40  1  0  0  0  0
 36 38  1  0  0  0  0
 37 38  2  0  0  0  0
 39 37  1  0  0  0  0
 40 36  2  0  0  0  0
 41 31  1  0  0  0  0
 41 43  1  0  0  0  0
 43 42  1  0  0  0  0
M  END
>  <MODEL>
2

>  <REMARK>
 VINA RESULT:      -8.1      3.095      9.019
  Name = 
  13 active torsions:
  status: ('A' for Active; 'I' for Inactive)
    1  A    between atoms: C_1  and  N_28
    2  A    between atoms: C_1  and  C_34
    3  A    between atoms: N_2  and  C_6
    4  A    between atoms: N_2  and  O_13
    5  A    between atoms: C_3  and  C_4
    6  A    between atoms: C_3  and  C_12
    7  A    between atoms: C_4  and  C_15
    8  A    between atoms: C_4  and  N_22
    9  A    between atoms: C_6  and  C_12
   10  A    between atoms: C_11  and  C_14
   11  A    between atoms: O_13  and  C_38
   12  A    between atoms: C_15  and  C_42
   13  A    between atoms: N_28  and  C_35
                            x       y       z     vdW  Elec       q    Type
                         _______ _______ _______ _____ _____    ______ ____

>  <TORSDO>
F 13

$$$$
=
 OpenBabel11052416263D

 43 47  0  0  1  0  0  0  0  0999 V2000
  191.5070  176.3370  147.0540 C   0  0  0  0  0  0  0  0  0  0  0  0
  188.9350  177.1220  142.8310 N   0  0  0  0  0  0  0  0  0  0  0  0
  190.7670  176.3590  144.7230 C   0  0  2  0  0  3  0  0  0  0  0  0
  190.4470  177.0310  147.4870 C   0  0  0  0  0  3  0  0  0  0  0  0
  192.5420  175.9070  148.0280 C   0  0  0  0  0  1  0  0  0  0  0  0
  189.5690  177.1340  145.1340 C   0  0  0  0  0  0  0  0  0  0  0  0
  191.6690  175.9910  145.6320 C   0  0  0  0  0  3  0  0  0  0  0  0
  189.3460  177.5120  146.5770 C   0  0  0  0  0  3  0  0  0  0  0  0
  187.4580  178.2420  144.3410 C   0  0  0  0  0  2  0  0  0  0  0  0
  188.7070  177.4790  144.1760 C   0  0  0  0  0  0  0  0  0  0  0  0
  190.0890  176.3690  142.4360 C   0  0  0  0  0  3  0  0  0  0  0  0
  187.8800  177.6110  141.9700 C   0  0  1  0  0  3  0  0  0  0  0  0
  186.8710  178.2860  142.9180 C   0  0  1  0  0  3  0  0  0  0  0  0
  190.9550  176.0090  143.3400 N   0  0  0  0  0  0  0  0  0  0  0  0
  188.4420  178.6430  141.0070 C   0  0  0  0  0  2  0  0  0  0  0  0
  187.8540  178.4620  139.6910 N   0  0  0  0  0  2  0  0  0  0  0  0
  189.1540  178.0110  136.2100 C   0  0  0  0  0  3  0  0  0  0  0  0
  190.1970  176.3900  137.6730 C   0  0  0  0  0  3  0  0  0  0  0  0
  190.0340  176.9440  136.4000 C   0  0  0  0  0  0  0  0  0  0  0  0
  188.4340  178.5240  137.2930 C   0  0  0  0  0  3  0  0  0  0  0  0
  188.5930  177.9700  138.5720 C   0  0  0  0  0  0  0  0  0  0  0  0
  190.7280  176.4450  135.3500 F   0  0  0  0  0  0  0  0  0  0  0  0
  189.4770  176.9000  138.7550 C   0  0  0  0  0  3  0  0  0  0  0  0
  185.6470  177.5780  142.8970 O   0  0  0  0  0  0  0  0  0  0  0  0
  184.6150  178.4140  142.5420 N   0  0  0  0  0  0  0  0  0  0  0  0
  183.6490  178.5700  143.6280 C   0  0  0  0  0  1  0  0  0  0  0  0
  183.9310  177.9550  141.3310 C   0  0  0  0  0  2  0  0  0  0  0  0
  183.9620  179.0190  140.2880 C   0  0  0  0  0  0  0  0  0  0  0  0
  184.9810  179.6610  140.1180 O   0  0  0  0  0  0  0  0  0  0  0  0
  182.7480  179.3210  139.4660 C   0  0  0  0  0  2  0  0  0  0  0  0
  182.3280  178.1580  138.5620 C   0  0  2  0  0  3  0  0  0  0  0  0
  183.8620  176.3730  137.6420 C   0  0  0  0  0  0  0  0  0  0  0  0
  183.4390  177.7350  137.7220 N   0  0  0  0  0  2  0  0  0  0  0  0
  183.3080  175.4960  138.3590 O   0  0  0  0  0  0  0  0  0  0  0  0
  184.9620  176.0040  136.7390 C   0  0  0  0  0  0  0  0  0  0  0  0
  187.0520  174.9080  136.3060 C   0  0  0  0  0  3  0  0  0  0  0  0
  185.9650  176.1160  134.5960 C   0  0  0  0  0  3  0  0  0  0  0  0
  187.0060  175.3600  135.0280 N   0  0  0  0  0  0  0  0  0  0  0  0
  184.9560  176.4340  135.4480 N   0  0  0  0  0  0  0  0  0  0  0  0
  186.0250  175.2220  137.1930 C   0  0  0  0  0  3  0  0  0  0  0  0
  181.1260  178.5080  137.6940 C   0  0  0  0  0  2  0  0  0  0  0  0
  181.0240  180.0040  135.8320 O   0  0  0  0  0  1  0  0  0  0  0  0
  181.1890  179.9500  137.2190 C   0  0  0  0  0  2  0  0  0  0  0  0
  1  4  1  0  0  0  0
  1  5  1  0  0  0  0
  2 10  1  0  0  0  0
  3  6  1  0  0  0  0
  3  7  1  6  0  0  0
  6  8  1  0  0  0  0
  7  1  2  0  0  0  0
  8  4  2  0  0  0  0
 10  9  1  0  0  0  0
 10  6  2  0  0  0  0
 11  2  1  0  0  0  0
 11 14  2  0  0  0  0
 12 15  1  6  0  0  0
 12  2  1  0  0  0  0
 12 13  1  0  0  0  0
 13 24  1  1  0  0  0
 13  9  1  0  0  0  0
 14  3  1  0  0  0  0
 16 15  1  0  0  0  0
 17 19  2  0  0  0  0
 17 20  1  0  0  0  0
 18 23  2  0  0  0  0
 19 18  1  0  0  0  0
 20 21  2  0  0  0  0
 21 23  1  0  0  0  0
 21 16  1  0  0  0  0
 22 19  1  0  0  0  0
 25 24  1  0  0  0  0
 25 26  1  0  0  0  0
 27 25  1  0  0  0  0
 28 27  1  0  0  0  0
 29 28  2  0  0  0  0
 30 28  1  0  0  0  0
 31 41  1  6  0  0  0
 31 30  1  0  0  0  0
 32 33  1  0  0  0  0
 32 34  2  0  0  0  0
 33 31  1  0  0  0  0
 35 40  1  0  0  0  0
 35 32  1  0  0  0  0
 36 40  2  0  0  0  0
 37 38  2  0  0  0  0
 37 39  1  0  0  0  0
 38 36  1  0  0  0  0
 39 35  2  0  0  0  0
 42 43  1  0  0  0  0
 43 41  1  0  0  0  0
M  END
>  <MODEL>
3

>  <REMARK>
 VINA RESULT:      -7.9      3.008      7.332
  Name = 
  13 active torsions:
  status: ('A' for Active; 'I' for Inactive)
    1  A    between atoms: C_1  and  N_28
    2  A    between atoms: C_1  and  C_34
    3  A    between atoms: N_2  and  C_6
    4  A    between atoms: N_2  and  O_13
    5  A    between atoms: C_3  and  C_4
    6  A    between atoms: C_3  and  C_12
    7  A    between atoms: C_4  and  C_15
    8  A    between atoms: C_4  and  N_22
    9  A    between atoms: C_6  and  C_12
   10  A    between atoms: C_11  and  C_14
   11  A    between atoms: O_13  and  C_38
   12  A    between atoms: C_15  and  C_42
   13  A    between atoms: N_28  and  C_35
                            x       y       z     vdW  Elec       q    Type
                         _______ _______ _______ _____ _____    ______ ____

>  <TORSDO>
F 13

$$$$
=
 OpenBabel11052416263D

 43 47  0  0  1  0  0  0  0  0999 V2000
  187.7900  178.1130  147.6280 C   0  0  0  0  0  0  0  0  0  0  0  0
  185.8240  178.0390  143.0250 N   0  0  0  0  0  0  0  0  0  0  0  0
  187.4080  177.7360  145.2430 C   0  0  2  0  0  3  0  0  0  0  0  0
  186.6250  178.7490  147.8020 C   0  0  0  0  0  3  0  0  0  0  0  0
  188.6990  177.9300  148.7880 C   0  0  0  0  0  1  0  0  0  0  0  0
  186.1030  178.4340  145.3640 C   0  0  0  0  0  0  0  0  0  0  0  0
  188.1900  177.5910  146.3110 C   0  0  0  0  0  3  0  0  0  0  0  0
  185.6370  178.9850  146.6880 C   0  0  0  0  0  3  0  0  0  0  0  0
  184.0520  179.2020  144.1320 C   0  0  0  0  0  2  0  0  0  0  0  0
  185.3680  178.5540  144.2560 C   0  0  0  0  0  0  0  0  0  0  0  0
  187.0800  177.3590  142.9100 C   0  0  0  0  0  3  0  0  0  0  0  0
  184.8730  178.2940  141.9650 C   0  0  1  0  0  3  0  0  0  0  0  0
  183.6820  178.9880  142.6530 C   0  0  1  0  0  3  0  0  0  0  0  0
  187.8270  177.2180  143.9670 N   0  0  0  0  0  0  0  0  0  0  0  0
  185.4870  179.2340  140.9410 C   0  0  0  0  0  2  0  0  0  0  0  0
  185.5960  178.5620  139.6570 N   0  0  0  0  0  2  0  0  0  0  0  0
  188.1680  177.8220  137.0410 C   0  0  0  0  0  3  0  0  0  0  0  0
  189.2400  177.9570  139.2060 C   0  0  0  0  0  3  0  0  0  0  0  0
  189.3220  177.7510  137.8270 C   0  0  0  0  0  0  0  0  0  0  0  0
  186.9340  178.0960  137.6360 C   0  0  0  0  0  3  0  0  0  0  0  0
  186.8480  178.3020  139.0210 C   0  0  0  0  0  0  0  0  0  0  0  0
  190.5160  177.4810  137.2500 F   0  0  0  0  0  0  0  0  0  0  0  0
  188.0080  178.2280  139.8020 C   0  0  0  0  0  3  0  0  0  0  0  0
  182.5370  178.1630  142.5730 O   0  0  0  0  0  0  0  0  0  0  0  0
  181.3930  178.9270  142.5980 N   0  0  0  0  0  0  0  0  0  0  0  0
  180.5820  178.6450  143.7810 C   0  0  0  0  0  1  0  0  0  0  0  0
  180.5870  178.7440  141.3890 C   0  0  0  0  0  2  0  0  0  0  0  0
  180.6770  179.9530  140.5230 C   0  0  0  0  0  0  0  0  0  0  0  0
  180.0820  180.9640  140.8430 O   0  0  0  0  0  0  0  0  0  0  0  0
  181.4740  179.9290  139.2560 C   0  0  0  0  0  2  0  0  0  0  0  0
  180.8460  179.0550  138.1660 C   0  0  2  0  0  3  0  0  0  0  0  0
  182.6330  177.2920  137.8810 C   0  0  0  0  0  0  0  0  0  0  0  0
  181.8780  178.3960  137.3800 N   0  0  0  0  0  2  0  0  0  0  0  0
  182.4580  176.8930  139.0650 O   0  0  0  0  0  0  0  0  0  0  0  0
  183.6300  176.6400  137.0200 C   0  0  0  0  0  0  0  0  0  0  0  0
  184.8280  176.4640  134.9490 C   0  0  0  0  0  3  0  0  0  0  0  0
  185.2280  174.9230  136.6900 C   0  0  0  0  0  3  0  0  0  0  0  0
  185.4800  175.3790  135.4370 N   0  0  0  0  0  0  0  0  0  0  0  0
  184.3090  175.5500  137.4690 N   0  0  0  0  0  0  0  0  0  0  0  0
  183.8840  177.1210  135.7340 C   0  0  0  0  0  3  0  0  0  0  0  0
  179.9250  179.8510  137.2490 C   0  0  0  0  0  2  0  0  0  0  0  0
  180.8040  181.8710  136.3230 O   0  0  0  0  0  1  0  0  0  0  0  0
  180.7000  180.4940  136.1110 C   0  0  0  0  0  2  0  0  0  0  0  0
  1  4  1  0  0  0  0
  1  5  1  0  0  0  0
  2 10  1  0  0  0  0
  3  6  1  0  0  0  0
  3  7  1  6  0  0  0
  6  8  1  0  0  0  0
  7  1  2  0  0  0  0
  8  4  2  0  0  0  0
  9 10  1  0  0  0  0
 10  6  2  0  0  0  0
 11  2  1  0  0  0  0
 11 14  2  0  0  0  0
 12 15  1  6  0  0  0
 12 13  1  0  0  0  0
 12  2  1  0  0  0  0
 13 24  1  1  0  0  0
 13  9  1  0  0  0  0
 14  3  1  0  0  0  0
 16 15  1  0  0  0  0
 17 20  2  0  0  0  0
 17 19  1  0  0  0  0
 18 23  1  0  0  0  0
 19 18  2  0  0  0  0
 20 21  1  0  0  0  0
 21 16  1  0  0  0  0
 21 23  2  0  0  0  0
 22 19  1  0  0  0  0
 24 25  1  0  0  0  0
 25 26  1  0  0  0  0
 27 25  1  0  0  0  0
 28 29  2  0  0  0  0
 28 27  1  0  0  0  0
 30 28  1  0  0  0  0
 31 41  1  6  0  0  0
 31 30  1  0  0  0  0
 32 34  2  0  0  0  0
 33 32  1  0  0  0  0
 33 31  1  0  0  0  0
 35 39  1  0  0  0  0
 35 32  1  0  0  0  0
 36 38  2  0  0  0  0
 36 40  1  0  0  0  0
 37 39  2  0  0  0  0
 38 37  1  0  0  0  0
 40 35  2  0  0  0  0
 43 42  1  0  0  0  0
 43 41  1  0  0  0  0
M  END
>  <MODEL>
4

>  <REMARK>
 VINA RESULT:      -7.6      3.351      7.304
  Name = 
  13 active torsions:
  status: ('A' for Active; 'I' for Inactive)
    1  A    between atoms: C_1  and  N_28
    2  A    between atoms: C_1  and  C_34
    3  A    between atoms: N_2  and  C_6
    4  A    between atoms: N_2  and  O_13
    5  A    between atoms: C_3  and  C_4
    6  A    between atoms: C_3  and  C_12
    7  A    between atoms: C_4  and  C_15
    8  A    between atoms: C_4  and  N_22
    9  A    between atoms: C_6  and  C_12
   10  A    between atoms: C_11  and  C_14
   11  A    between atoms: O_13  and  C_38
   12  A    between atoms: C_15  and  C_42
   13  A    between atoms: N_28  and  C_35
                            x       y       z     vdW  Elec       q    Type
                         _______ _______ _______ _____ _____    ______ ____

>  <TORSDO>
F 13

$$$$
=
 OpenBabel11052416263D

 43 47  0  0  1  0  0  0  0  0999 V2000
  187.5940  178.0880  147.6540 C   0  0  0  0  0  0  0  0  0  0  0  0
  186.2600  177.9670  142.8310 N   0  0  0  0  0  0  0  0  0  0  0  0
  187.5320  177.6840  145.2430 C   0  0  2  0  0  3  0  0  0  0  0  0
  186.4200  178.7300  147.6640 C   0  0  0  0  0  3  0  0  0  0  0  0
  188.3400  177.9150  148.9270 C   0  0  0  0  0  1  0  0  0  0  0  0
  186.2270  178.3890  145.1810 C   0  0  0  0  0  0  0  0  0  0  0  0
  188.1640  177.5490  146.4080 C   0  0  0  0  0  3  0  0  0  0  0  0
  185.5910  178.9560  146.4250 C   0  0  0  0  0  3  0  0  0  0  0  0
  184.3620  179.1490  143.6780 C   0  0  0  0  0  2  0  0  0  0  0  0
  185.6470  178.4980  143.9840 C   0  0  0  0  0  0  0  0  0  0  0  0
  187.5170  177.2810  142.8920 C   0  0  0  0  0  3  0  0  0  0  0  0
  185.4610  178.2130  141.6500 C   0  0  1  0  0  3  0  0  0  0  0  0
  184.1920  178.9190  142.1650 C   0  0  1  0  0  3  0  0  0  0  0  0
  188.1160  177.1500  144.0400 N   0  0  0  0  0  0  0  0  0  0  0  0
  186.2110  179.1380  140.7070 C   0  0  0  0  0  2  0  0  0  0  0  0
  186.2790  178.5450  139.3820 N   0  0  0  0  0  2  0  0  0  0  0  0
  188.9490  178.0790  136.8000 C   0  0  0  0  0  3  0  0  0  0  0  0
  189.7060  177.1700  138.9120 C   0  0  0  0  0  3  0  0  0  0  0  0
  189.9310  177.4350  137.5580 C   0  0  0  0  0  0  0  0  0  0  0  0
  187.7420  178.4550  137.3960 C   0  0  0  0  0  3  0  0  0  0  0  0
  187.5130  178.1890  138.7550 C   0  0  0  0  0  0  0  0  0  0  0  0
  191.0970  177.0670  136.9790 F   0  0  0  0  0  0  0  0  0  0  0  0
  188.5000  177.5430  139.5080 C   0  0  0  0  0  3  0  0  0  0  0  0
  183.0630  178.0980  141.9420 O   0  0  0  0  0  0  0  0  0  0  0  0
  182.2300  178.6700  141.0090 N   0  0  0  0  0  0  0  0  0  0  0  0
  180.8650  178.8030  141.5150 C   0  0  0  0  0  1  0  0  0  0  0  0
  182.2220  177.9210  139.7510 C   0  0  0  0  0  2  0  0  0  0  0  0
  182.7710  178.7610  138.6500 C   0  0  0  0  0  0  0  0  0  0  0  0
  183.0750  179.9170  138.8730 O   0  0  0  0  0  0  0  0  0  0  0  0
  182.9310  178.2050  137.2690 C   0  0  0  0  0  2  0  0  0  0  0  0
  182.8740  176.6740  137.2260 C   0  0  2  0  0  3  0  0  0  0  0  0
  184.6150  174.8480  137.3470 C   0  0  0  0  0  0  0  0  0  0  0  0
  184.1740  176.1220  136.8760 N   0  0  0  0  0  2  0  0  0  0  0  0
  183.8950  174.1830  138.1410 O   0  0  0  0  0  0  0  0  0  0  0  0
  185.9210  174.3260  136.9190 C   0  0  0  0  0  0  0  0  0  0  0  0
  188.0070  174.5690  135.7600 C   0  0  0  0  0  3  0  0  0  0  0  0
  187.4920  172.5530  136.8710 C   0  0  0  0  0  3  0  0  0  0  0  0
  188.3380  173.3040  136.1220 N   0  0  0  0  0  0  0  0  0  0  0  0
  186.2950  173.0630  137.2610 N   0  0  0  0  0  0  0  0  0  0  0  0
  186.7860  175.1100  136.1530 C   0  0  0  0  0  3  0  0  0  0  0  0
  181.8160  176.1650  136.2550 C   0  0  0  0  0  2  0  0  0  0  0  0
  180.7590  175.1230  138.1300 O   0  0  0  0  0  1  0  0  0  0  0  0
  180.5100  175.8630  136.9700 C   0  0  0  0  0  2  0  0  0  0  0  0
  1  4  1  0  0  0  0
  1  5  1  0  0  0  0
  2 11  1  0  0  0  0
  2 10  1  0  0  0  0
  3  7  1  6  0  0  0
  6  3  1  0  0  0  0
  6  8  1  0  0  0  0
  7  1  2  0  0  0  0
  8  4  2  0  0  0  0
  9 10  1  0  0  0  0
 10  6  2  0  0  0  0
 11 14  2  0  0  0  0
 12 15  1  6  0  0  0
 12 13  1  0  0  0  0
 12  2  1  0  0  0  0
 13 24  1  1  0  0  0
 13  9  1  0  0  0  0
 14  3  1  0  0  0  0
 16 15  1  0  0  0  0
 17 20  2  0  0  0  0
 17 19  1  0  0  0  0
 18 23  1  0  0  0  0
 19 18  2  0  0  0  0
 20 21  1  0  0  0  0
 21 16  1  0  0  0  0
 21 23  2  0  0  0  0
 22 19  1  0  0  0  0
 25 26  1  0  0  0  0
 25 24  1  0  0  0  0
 27 25  1  0  0  0  0
 28 29  2  0  0  0  0
 28 27  1  0  0  0  0
 30 28  1  0  0  0  0
 31 41  1  6  0  0  0
 31 30  1  0  0  0  0
 32 34  2  0  0  0  0
 33 31  1  0  0  0  0
 33 32  1  0  0  0  0
 35 39  1  0  0  0  0
 35 32  1  0  0  0  0
 36 38  2  0  0  0  0
 36 40  1  0  0  0  0
 37 39  2  0  0  0  0
 38 37  1  0  0  0  0
 40 35  2  0  0  0  0
 41 43  1  0  0  0  0
 43 42  1  0  0  0  0
M  END
>  <MODEL>
5

>  <REMARK>
 VINA RESULT:      -7.6      3.301      6.655
  Name = 
  13 active torsions:
  status: ('A' for Active; 'I' for Inactive)
    1  A    between atoms: C_1  and  N_28
    2  A    between atoms: C_1  and  C_34
    3  A    between atoms: N_2  and  C_6
    4  A    between atoms: N_2  and  O_13
    5  A    between atoms: C_3  and  C_4
    6  A    between atoms: C_3  and  C_12
    7  A    between atoms: C_4  and  C_15
    8  A    between atoms: C_4  and  N_22
    9  A    between atoms: C_6  and  C_12
   10  A    between atoms: C_11  and  C_14
   11  A    between atoms: O_13  and  C_38
   12  A    between atoms: C_15  and  C_42
   13  A    between atoms: N_28  and  C_35
                            x       y       z     vdW  Elec       q    Type
                         _______ _______ _______ _____ _____    ______ ____

>  <TORSDO>
F 13

$$$$
=
 OpenBabel11052416263D

 43 47  0  0  1  0  0  0  0  0999 V2000
  191.4320  176.3680  146.9640 C   0  0  0  0  0  0  0  0  0  0  0  0
  188.9890  177.1560  142.6660 N   0  0  0  0  0  0  0  0  0  0  0  0
  190.7700  176.4020  144.6100 C   0  0  2  0  0  3  0  0  0  0  0  0
  190.3470  177.0400  147.3690 C   0  0  0  0  0  3  0  0  0  0  0  0
  192.4420  175.9430  147.9670 C   0  0  0  0  0  1  0  0  0  0  0  0
  189.5460  177.1530  144.9890 C   0  0  0  0  0  0  0  0  0  0  0  0
  191.6470  176.0390  145.5450 C   0  0  0  0  0  3  0  0  0  0  0  0
  189.2690  177.5120  146.4270 C   0  0  0  0  0  3  0  0  0  0  0  0
  187.4450  178.2370  144.1380 C   0  0  0  0  0  2  0  0  0  0  0  0
  188.7100  177.4950  144.0070 C   0  0  0  0  0  0  0  0  0  0  0  0
  190.1670  176.4260  142.3020 C   0  0  0  0  0  3  0  0  0  0  0  0
  187.9550  177.6370  141.7760 C   0  0  1  0  0  3  0  0  0  0  0  0
  186.9040  178.2860  142.6970 C   0  0  1  0  0  3  0  0  0  0  0  0
  191.0080  176.0700  143.2300 N   0  0  0  0  0  0  0  0  0  0  0  0
  188.5310  178.6890  140.8430 C   0  0  0  0  0  2  0  0  0  0  0  0
  189.1170  178.0470  139.6780 N   0  0  0  0  0  2  0  0  0  0  0  0
  186.4410  178.1460  137.0630 C   0  0  0  0  0  3  0  0  0  0  0  0
  188.5280  177.4560  136.0510 C   0  0  0  0  0  3  0  0  0  0  0  0
  187.1650  177.7460  135.9370 C   0  0  0  0  0  0  0  0  0  0  0  0
  187.0790  178.2550  138.3020 C   0  0  0  0  0  3  0  0  0  0  0  0
  188.4460  177.9640  138.4190 C   0  0  0  0  0  0  0  0  0  0  0  0
  186.5460  177.6360  134.7390 F   0  0  0  0  0  0  0  0  0  0  0  0
  189.1660  177.5630  137.2880 C   0  0  0  0  0  3  0  0  0  0  0  0
  185.6930  177.5590  142.6280 O   0  0  0  0  0  0  0  0  0  0  0  0
  184.6370  178.4060  142.3870 N   0  0  0  0  0  0  0  0  0  0  0  0
  183.8240  178.6090  143.5850 C   0  0  0  0  0  1  0  0  0  0  0  0
  183.7930  177.9300  141.2890 C   0  0  0  0  0  2  0  0  0  0  0  0
  183.8610  178.8770  140.1400 C   0  0  0  0  0  0  0  0  0  0  0  0
  184.6320  179.8160  140.1840 O   0  0  0  0  0  0  0  0  0  0  0  0
  182.9760  178.6960  138.9460 C   0  0  0  0  0  2  0  0  0  0  0  0
  181.5570  179.2320  139.1620 C   0  0  2  0  0  3  0  0  0  0  0  0
  180.9310  181.0120  137.4810 C   0  0  0  0  0  0  0  0  0  0  0  0
  181.4660  180.6240  138.7470 N   0  0  0  0  0  2  0  0  0  0  0  0
  180.5710  180.1330  136.6510 O   0  0  0  0  0  0  0  0  0  0  0  0
  180.8250  182.4380  137.1410 C   0  0  0  0  0  0  0  0  0  0  0  0
  179.7360  184.2590  136.0210 C   0  0  0  0  0  3  0  0  0  0  0  0
  181.6770  184.6420  137.3060 C   0  0  0  0  0  3  0  0  0  0  0  0
  180.6780  185.1030  136.5120 N   0  0  0  0  0  0  0  0  0  0  0  0
  181.7460  183.3210  137.6130 N   0  0  0  0  0  0  0  0  0  0  0  0
  179.7900  182.9010  136.3270 C   0  0  0  0  0  3  0  0  0  0  0  0
  181.1020  179.0910  140.6080 C   0  0  0  0  0  2  0  0  0  0  0  0
  180.2190  180.3890  142.4110 O   0  0  0  0  0  1  0  0  0  0  0  0
  180.2070  180.2480  141.0210 C   0  0  0  0  0  2  0  0  0  0  0  0
  1  4  1  0  0  0  0
  1  5  1  0  0  0  0
  2 10  1  0  0  0  0
  3  6  1  0  0  0  0
  3  7  1  6  0  0  0
  6  8  1  0  0  0  0
  7  1  2  0  0  0  0
  8  4  2  0  0  0  0
 10  9  1  0  0  0  0
 10  6  2  0  0  0  0
 11  2  1  0  0  0  0
 11 14  2  0  0  0  0
 12 15  1  6  0  0  0
 12  2  1  0  0  0  0
 12 13  1  0  0  0  0
 13 24  1  1  0  0  0
 13  9  1  0  0  0  0
 14  3  1  0  0  0  0
 16 15  1  0  0  0  0
 17 20  1  0  0  0  0
 18 23  2  0  0  0  0
 19 18  1  0  0  0  0
 19 17  2  0  0  0  0
 20 21  2  0  0  0  0
 21 16  1  0  0  0  0
 22 19  1  0  0  0  0
 23 21  1  0  0  0  0
 25 24  1  0  0  0  0
 25 26  1  0  0  0  0
 27 25  1  0  0  0  0
 28 29  2  0  0  0  0
 28 27  1  0  0  0  0
 30 28  1  0  0  0  0
 31 30  1  1  0  0  0
 31 41  1  0  0  0  0
 32 33  1  0  0  0  0
 33 31  1  0  0  0  0
 34 32  2  0  0  0  0
 35 32  1  0  0  0  0
 35 39  1  0  0  0  0
 36 40  1  0  0  0  0
 36 38  2  0  0  0  0
 37 39  2  0  0  0  0
 38 37  1  0  0  0  0
 40 35  2  0  0  0  0
 41 43  1  0  0  0  0
 43 42  1  0  0  0  0
M  END
>  <MODEL>
6

>  <REMARK>
 VINA RESULT:      -7.6      2.920      8.348
  Name = 
  13 active torsions:
  status: ('A' for Active; 'I' for Inactive)
    1  A    between atoms: C_1  and  N_28
    2  A    between atoms: C_1  and  C_34
    3  A    between atoms: N_2  and  C_6
    4  A    between atoms: N_2  and  O_13
    5  A    between atoms: C_3  and  C_4
    6  A    between atoms: C_3  and  C_12
    7  A    between atoms: C_4  and  C_15
    8  A    between atoms: C_4  and  N_22
    9  A    between atoms: C_6  and  C_12
   10  A    between atoms: C_11  and  C_14
   11  A    between atoms: O_13  and  C_38
   12  A    between atoms: C_15  and  C_42
   13  A    between atoms: N_28  and  C_35
                            x       y       z     vdW  Elec       q    Type
                         _______ _______ _______ _____ _____    ______ ____

>  <TORSDO>
F 13

$$$$
=
 OpenBabel11052416263D

 43 47  0  0  1  0  0  0  0  0999 V2000
  182.7900  178.8200  143.6230 C   0  0  0  0  0  0  0  0  0  0  0  0
  187.7020  177.8570  143.5420 N   0  0  0  0  0  0  0  0  0  0  0  0
  185.0830  178.2500  144.2530 C   0  0  0  0  0  0  0  0  0  0  0  0
  183.0920  178.9700  142.3280 C   0  0  0  0  0  3  0  0  0  0  0  0
  181.3910  179.0330  144.0740 C   0  0  0  0  0  1  0  0  0  0  0  0
  185.4880  178.4030  142.8330 C   0  0  0  0  0  0  0  0  0  0  0  0
  183.8160  178.4470  144.6120 C   0  0  0  0  0  3  0  0  0  0  0  0
  184.4810  178.7760  141.7750 C   0  0  0  0  0  2  0  0  0  0  0  0
  187.4040  178.2940  141.2110 C   0  0  0  0  0  2  0  0  0  0  0  0
  186.7730  178.1990  142.5380 C   0  0  0  0  0  0  0  0  0  0  0  0
  187.3100  177.7020  144.9120 C   0  0  0  0  0  3  0  0  0  0  0  0
  189.0320  177.6970  142.9960 C   0  0  1  0  0  3  0  0  0  0  0  0
  188.8700  177.9080  141.4790 C   0  0  1  0  0  3  0  0  0  0  0  0
  186.0640  177.8900  145.2430 N   0  0  0  0  0  0  0  0  0  0  0  0
  189.9500  178.7670  143.5630 C   0  0  0  0  0  2  0  0  0  0  0  0
  191.2170  178.1740  143.9550 N   0  0  0  0  0  2  0  0  0  0  0  0
  191.0200  176.8670  147.4570 C   0  0  0  0  0  3  0  0  0  0  0  0
  192.1860  175.2650  146.0670 C   0  0  0  0  0  3  0  0  0  0  0  0
  191.6870  175.6470  147.3150 C   0  0  0  0  0  0  0  0  0  0  0  0
  190.8540  177.7050  146.3510 C   0  0  0  0  0  3  0  0  0  0  0  0
  191.3550  177.3250  145.0970 C   0  0  0  0  0  0  0  0  0  0  0  0
  191.8510  174.8380  148.3880 F   0  0  0  0  0  0  0  0  0  0  0  0
  192.0230  176.1030  144.9620 C   0  0  0  0  0  3  0  0  0  0  0  0
  189.1690  176.7080  140.7940 O   0  0  0  0  0  0  0  0  0  0  0  0
  189.8130  176.9780  139.6090 N   0  0  0  0  0  0  0  0  0  0  0  0
  191.2550  176.7640  139.7180 C   0  0  0  0  0  1  0  0  0  0  0  0
  189.5470  178.3400  139.1400 C   0  0  0  0  0  2  0  0  0  0  0  0
  188.8200  178.3030  137.8400 C   0  0  0  0  0  0  0  0  0  0  0  0
  188.8460  179.2760  137.1120 O   0  0  0  0  0  0  0  0  0  0  0  0
  188.0430  177.0900  137.4320 C   0  0  0  0  0  2  0  0  0  0  0  0
  186.9160  177.4010  136.4420 C   0  0  2  0  0  3  0  0  0  0  0  0
  184.9750  177.9520  137.9630 C   0  0  0  0  0  0  0  0  0  0  0  0
  185.6200  177.0890  137.0250 N   0  0  0  0  0  2  0  0  0  0  0  0
  185.5550  179.0000  138.3590 O   0  0  0  0  0  0  0  0  0  0  0  0
  183.6450  177.6020  138.4800 C   0  0  0  0  0  0  0  0  0  0  0  0
  181.3780  178.1740  139.0190 C   0  0  0  0  0  3  0  0  0  0  0  0
  182.1890  175.9990  139.4410 C   0  0  0  0  0  3  0  0  0  0  0  0
  181.1850  176.9120  139.4770 N   0  0  0  0  0  0  0  0  0  0  0  0
  183.4060  176.3470  138.9480 N   0  0  0  0  0  0  0  0  0  0  0  0
  182.6190  178.5470  138.5080 C   0  0  0  0  0  3  0  0  0  0  0  0
  187.0850  176.6550  135.1240 C   0  0  0  0  0  2  0  0  0  0  0  0
  186.7640  174.3010  134.8620 O   0  0  0  0  0  1  0  0  0  0  0  0
  187.6530  175.2640  135.3460 C   0  0  0  0  0  2  0  0  0  0  0  0
  1  5  1  0  0  0  0
  1  7  1  0  0  0  0
  2 11  1  0  0  0  0
  3  7  2  0  0  0  0
  3 14  1  0  0  0  0
  4  1  2  0  0  0  0
  6  3  1  0  0  0  0
  8  4  1  0  0  0  0
  8  6  1  0  0  0  0
  9 13  1  0  0  0  0
  9 10  1  0  0  0  0
 10  6  2  0  0  0  0
 10  2  1  0  0  0  0
 11 14  2  0  0  0  0
 12  2  1  0  0  0  0
 12 15  1  1  0  0  0
 13 24  1  6  0  0  0
 13 12  1  0  0  0  0
 15 16  1  0  0  0  0
 16 21  1  0  0  0  0
 18 19  2  0  0  0  0
 19 17  1  0  0  0  0
 19 22  1  0  0  0  0
 20 17  2  0  0  0  0
 21 20  1  0  0  0  0
 23 21  2  0  0  0  0
 23 18  1  0  0  0  0
 25 26  1  0  0  0  0
 25 24  1  0  0  0  0
 27 25  1  0  0  0  0
 28 27  1  0  0  0  0
 29 28  2  0  0  0  0
 30 28  1  0  0  0  0
 31 41  1  6  0  0  0
 31 33  1  0  0  0  0
 31 30  1  0  0  0  0
 32 34  2  0  0  0  0
 32 35  1  0  0  0  0
 33 32  1  0  0  0  0
 35 40  2  0  0  0  0
 35 39  1  0  0  0  0
 36 38  2  0  0  0  0
 37 38  1  0  0  0  0
 39 37  2  0  0  0  0
 40 36  1  0  0  0  0
 41 43  1  0  0  0  0
 42 43  1  0  0  0  0
M  END
>  <MODEL>
7

>  <REMARK>
 VINA RESULT:      -7.5      3.352      8.054
  Name = 
  13 active torsions:
  status: ('A' for Active; 'I' for Inactive)
    1  A    between atoms: C_1  and  N_28
    2  A    between atoms: C_1  and  C_34
    3  A    between atoms: N_2  and  C_6
    4  A    between atoms: N_2  and  O_13
    5  A    between atoms: C_3  and  C_4
    6  A    between atoms: C_3  and  C_12
    7  A    between atoms: C_4  and  C_15
    8  A    between atoms: C_4  and  N_22
    9  A    between atoms: C_6  and  C_12
   10  A    between atoms: C_11  and  C_14
   11  A    between atoms: O_13  and  C_38
   12  A    between atoms: C_15  and  C_42
   13  A    between atoms: N_28  and  C_35
                            x       y       z     vdW  Elec       q    Type
                         _______ _______ _______ _____ _____    ______ ____

>  <TORSDO>
F 13

$$$$
=
 OpenBabel11052416263D

 43 47  0  0  1  0  0  0  0  0999 V2000
  190.3010  176.8530  137.7520 C   0  0  0  0  0  0  0  0  0  0  0  0
  186.5220  178.6280  140.5130 N   0  0  0  0  0  0  0  0  0  0  0  0
  188.9450  177.7510  139.5780 C   0  0  0  0  0  0  0  0  0  0  0  0
  189.2830  176.8520  136.8820 C   0  0  0  0  0  3  0  0  0  0  0  0
  191.6370  176.3760  137.3100 C   0  0  0  0  0  1  0  0  0  0  0  0
  187.7730  177.7730  138.6680 C   0  0  0  0  0  0  0  0  0  0  0  0
  190.1260  177.3180  139.1380 C   0  0  0  0  0  3  0  0  0  0  0  0
  187.8930  177.3160  137.2360 C   0  0  0  0  0  2  0  0  0  0  0  0
  185.3290  178.3220  138.4640 C   0  0  0  0  0  2  0  0  0  0  0  0
  186.6170  178.2110  139.1700 C   0  0  0  0  0  0  0  0  0  0  0  0
  187.6550  178.6130  141.3900 C   0  0  0  0  0  3  0  0  0  0  0  0
  185.1760  179.0480  140.8400 C   0  0  1  0  0  3  0  0  0  0  0  0
  184.3880  178.9260  139.5220 C   0  0  1  0  0  3  0  0  0  0  0  0
  188.8030  178.1950  140.9400 N   0  0  0  0  0  0  0  0  0  0  0  0
  184.5830  178.1080  141.8760 C   0  0  0  0  0  2  0  0  0  0  0  0
  184.4010  178.8110  143.1340 N   0  0  0  0  0  2  0  0  0  0  0  0
  187.0960  177.5040  145.3790 C   0  0  0  0  0  3  0  0  0  0  0  0
  185.4590  178.7000  146.7010 C   0  0  0  0  0  3  0  0  0  0  0  0
  186.6420  177.9610  146.6190 C   0  0  0  0  0  0  0  0  0  0  0  0
  186.3660  177.7860  144.2210 C   0  0  0  0  0  3  0  0  0  0  0  0
  185.1770  178.5280  144.3000 C   0  0  0  0  0  0  0  0  0  0  0  0
  187.3470  177.6830  147.7410 F   0  0  0  0  0  0  0  0  0  0  0  0
  184.7270  178.9810  145.5460 C   0  0  0  0  0  3  0  0  0  0  0  0
  183.9680  180.2070  139.0950 O   0  0  0  0  0  0  0  0  0  0  0  0
  182.6620  180.1670  138.6670 N   0  0  0  0  0  0  0  0  0  0  0  0
  182.1160  181.5090  138.4740 C   0  0  0  0  0  1  0  0  0  0  0  0
  181.8080  179.4110  139.5850 C   0  0  0  0  0  2  0  0  0  0  0  0
  180.5700  178.9650  138.8870 C   0  0  0  0  0  0  0  0  0  0  0  0
  179.4920  179.4040  139.2410 O   0  0  0  0  0  0  0  0  0  0  0  0
  180.6360  177.9690  137.7710 C   0  0  0  0  0  2  0  0  0  0  0  0
  180.6310  176.5170  138.2590 C   0  0  2  0  0  3  0  0  0  0  0  0
  182.8480  175.3060  138.2630 C   0  0  0  0  0  0  0  0  0  0  0  0
  181.6690  175.7480  137.5890 N   0  0  0  0  0  2  0  0  0  0  0  0
  183.0480  175.6290  139.4660 O   0  0  0  0  0  0  0  0  0  0  0  0
  183.8380  174.4920  137.5410 C   0  0  0  0  0  0  0  0  0  0  0  0
  185.8110  174.2860  136.1920 C   0  0  0  0  0  3  0  0  0  0  0  0
  184.6080  172.3630  136.8430 C   0  0  0  0  0  3  0  0  0  0  0  0
  185.6470  172.9390  136.1870 N   0  0  0  0  0  0  0  0  0  0  0  0
  183.7140  173.1380  137.5110 N   0  0  0  0  0  0  0  0  0  0  0  0
  184.9050  175.0950  136.8730 C   0  0  0  0  0  3  0  0  0  0  0  0
  179.2780  175.8460  138.0590 C   0  0  0  0  0  2  0  0  0  0  0  0
  179.4520  174.5720  140.0730 O   0  0  0  0  0  1  0  0  0  0  0  0
  179.2460  174.4670  138.6950 C   0  0  0  0  0  2  0  0  0  0  0  0
  1  7  1  0  0  0  0
  2 12  1  0  0  0  0
  2 11  1  0  0  0  0
  3 14  1  0  0  0  0
  4  8  1  0  0  0  0
  4  1  2  0  0  0  0
  5  1  1  0  0  0  0
  6 10  2  0  0  0  0
  6  3  1  0  0  0  0
  7  3  2  0  0  0  0
  8  6  1  0  0  0  0
  9 10  1  0  0  0  0
  9 13  1  0  0  0  0
 10  2  1  0  0  0  0
 12 15  1  1  0  0  0
 13 24  1  6  0  0  0
 13 12  1  0  0  0  0
 14 11  2  0  0  0  0
 15 16  1  0  0  0  0
 16 21  1  0  0  0  0
 17 19  1  0  0  0  0
 19 18  2  0  0  0  0
 19 22  1  0  0  0  0
 20 21  1  0  0  0  0
 20 17  2  0  0  0  0
 21 23  2  0  0  0  0
 23 18  1  0  0  0  0
 25 24  1  0  0  0  0
 25 27  1  0  0  0  0
 26 25  1  0  0  0  0
 28 29  2  0  0  0  0
 28 27  1  0  0  0  0
 30 28  1  0  0  0  0
 31 30  1  6  0  0  0
 32 34  2  0  0  0  0
 33 31  1  0  0  0  0
 33 32  1  0  0  0  0
 35 32  1  0  0  0  0
 36 40  1  0  0  0  0
 37 39  2  0  0  0  0
 38 36  2  0  0  0  0
 38 37  1  0  0  0  0
 39 35  1  0  0  0  0
 40 35  2  0  0  0  0
 41 31  1  0  0  0  0
 41 43  1  0  0  0  0
 43 42  1  0  0  0  0
M  END
>  <MODEL>
8

>  <REMARK>
 VINA RESULT:      -7.5      3.690      8.421
  Name = 
  13 active torsions:
  status: ('A' for Active; 'I' for Inactive)
    1  A    between atoms: C_1  and  N_28
    2  A    between atoms: C_1  and  C_34
    3  A    between atoms: N_2  and  C_6
    4  A    between atoms: N_2  and  O_13
    5  A    between atoms: C_3  and  C_4
    6  A    between atoms: C_3  and  C_12
    7  A    between atoms: C_4  and  C_15
    8  A    between atoms: C_4  and  N_22
    9  A    between atoms: C_6  and  C_12
   10  A    between atoms: C_11  and  C_14
   11  A    between atoms: O_13  and  C_38
   12  A    between atoms: C_15  and  C_42
   13  A    between atoms: N_28  and  C_35
                            x       y       z     vdW  Elec       q    Type
                         _______ _______ _______ _____ _____    ______ ____

>  <TORSDO>
F 13

$$$$
=
 OpenBabel11052416263D

 43 47  0  0  1  0  0  0  0  0999 V2000
  187.8470  178.0800  147.5360 C   0  0  0  0  0  0  0  0  0  0  0  0
  185.7220  178.1170  143.0030 N   0  0  0  0  0  0  0  0  0  0  0  0
  187.3890  177.7740  145.1530 C   0  0  2  0  0  3  0  0  0  0  0  0
  186.6760  178.6840  147.7710 C   0  0  0  0  0  3  0  0  0  0  0  0
  188.8010  177.8770  148.6560 C   0  0  0  0  0  1  0  0  0  0  0  0
  186.0760  178.4400  145.3430 C   0  0  0  0  0  0  0  0  0  0  0  0
  188.2120  177.6110  146.1880 C   0  0  0  0  0  3  0  0  0  0  0  0
  185.6460  178.9350  146.7010 C   0  0  0  0  0  3  0  0  0  0  0  0
  183.9670  179.2040  144.2100 C   0  0  0  0  0  2  0  0  0  0  0  0
  185.3000  178.5810  144.2660 C   0  0  0  0  0  0  0  0  0  0  0  0
  186.9870  177.4690  142.8210 C   0  0  0  0  0  3  0  0  0  0  0  0
  184.7300  178.3870  141.9860 C   0  0  1  0  0  3  0  0  0  0  0  0
  183.5500  179.0310  142.7380 C   0  0  1  0  0  3  0  0  0  0  0  0
  187.7740  177.3090  143.8470 N   0  0  0  0  0  0  0  0  0  0  0  0
  185.2880  179.3740  140.9740 C   0  0  0  0  0  2  0  0  0  0  0  0
  184.6560  179.1680  139.6820 N   0  0  0  0  0  2  0  0  0  0  0  0
  184.9700  176.7650  136.8300 C   0  0  0  0  0  3  0  0  0  0  0  0
  187.1780  177.4000  137.5920 C   0  0  0  0  0  3  0  0  0  0  0  0
  186.3610  176.6670  136.7270 C   0  0  0  0  0  0  0  0  0  0  0  0
  184.3980  177.5930  137.7990 C   0  0  0  0  0  3  0  0  0  0  0  0
  185.2160  178.3300  138.6700 C   0  0  0  0  0  0  0  0  0  0  0  0
  186.9140  175.8610  135.7910 F   0  0  0  0  0  0  0  0  0  0  0  0
  186.6080  178.2270  138.5610 C   0  0  0  0  0  3  0  0  0  0  0  0
  182.4190  178.1850  142.6700 O   0  0  0  0  0  0  0  0  0  0  0  0
  181.3880  178.8150  142.0130 N   0  0  0  0  0  0  0  0  0  0  0  0
  180.6870  179.7550  142.8860 C   0  0  0  0  0  1  0  0  0  0  0  0
  180.4350  177.8580  141.4470 C   0  0  0  0  0  2  0  0  0  0  0  0
  180.5770  177.8070  139.9640 C   0  0  0  0  0  0  0  0  0  0  0  0
  181.4860  177.1690  139.4710 O   0  0  0  0  0  0  0  0  0  0  0  0
  179.6260  178.5510  139.0790 C   0  0  0  0  0  2  0  0  0  0  0  0
  180.1100  178.6580  137.6290 C   0  0  2  0  0  3  0  0  0  0  0  0
  181.1170  180.9730  137.5310 C   0  0  0  0  0  0  0  0  0  0  0  0
  180.0900  180.0430  137.1830 N   0  0  0  0  0  2  0  0  0  0  0  0
  182.0550  180.6220  138.2980 O   0  0  0  0  0  0  0  0  0  0  0  0
  181.0630  182.3460  137.0100 C   0  0  0  0  0  0  0  0  0  0  0  0
  180.4850  183.9270  135.3000 C   0  0  0  0  0  3  0  0  0  0  0  0
  181.5410  184.6510  137.2820 C   0  0  0  0  0  3  0  0  0  0  0  0
  181.0040  184.9200  136.0650 N   0  0  0  0  0  0  0  0  0  0  0  0
  181.5690  183.3740  137.7440 N   0  0  0  0  0  0  0  0  0  0  0  0
  180.5030  182.6120  135.7590 C   0  0  0  0  0  3  0  0  0  0  0  0
  179.2860  177.7960  136.6820 C   0  0  0  0  0  2  0  0  0  0  0  0
  181.3300  176.6510  136.2110 O   0  0  0  0  0  1  0  0  0  0  0  0
  180.1610  177.1440  135.6250 C   0  0  0  0  0  2  0  0  0  0  0  0
  1  4  1  0  0  0  0
  1  5  1  0  0  0  0
  2 10  1  0  0  0  0
  3  6  1  0  0  0  0
  3  7  1  6  0  0  0
  6  8  1  0  0  0  0
  7  1  2  0  0  0  0
  8  4  2  0  0  0  0
  9 10  1  0  0  0  0
 10  6  2  0  0  0  0
 11  2  1  0  0  0  0
 11 14  2  0  0  0  0
 12 15  1  6  0  0  0
 12 13  1  0  0  0  0
 12  2  1  0  0  0  0
 13 24  1  1  0  0  0
 13  9  1  0  0  0  0
 14  3  1  0  0  0  0
 16 15  1  0  0  0  0
 17 20  1  0  0  0  0
 18 23  2  0  0  0  0
 19 17  2  0  0  0  0
 19 18  1  0  0  0  0
 20 21  2  0  0  0  0
 21 16  1  0  0  0  0
 22 19  1  0  0  0  0
 23 21  1  0  0  0  0
 25 24  1  0  0  0  0
 25 26  1  0  0  0  0
 27 25  1  0  0  0  0
 28 27  1  0  0  0  0
 29 28  2  0  0  0  0
 30 28  1  0  0  0  0
 31 41  1  6  0  0  0
 31 30  1  0  0  0  0
 32 34  2  0  0  0  0
 33 32  1  0  0  0  0
 33 31  1  0  0  0  0
 35 32  1  0  0  0  0
 35 39  1  0  0  0  0
 36 40  1  0  0  0  0
 36 38  2  0  0  0  0
 37 39  2  0  0  0  0
 38 37  1  0  0  0  0
 40 35  2  0  0  0  0
 43 42  1  0  0  0  0
 43 41  1  0  0  0  0
M  END
>  <MODEL>
9

>  <REMARK>
 VINA RESULT:      -7.4      3.421      7.909
  Name = 
  13 active torsions:
  status: ('A' for Active; 'I' for Inactive)
    1  A    between atoms: C_1  and  N_28
    2  A    between atoms: C_1  and  C_34
    3  A    between atoms: N_2  and  C_6
    4  A    between atoms: N_2  and  O_13
    5  A    between atoms: C_3  and  C_4
    6  A    between atoms: C_3  and  C_12
    7  A    between atoms: C_4  and  C_15
    8  A    between atoms: C_4  and  N_22
    9  A    between atoms: C_6  and  C_12
   10  A    between atoms: C_11  and  C_14
   11  A    between atoms: O_13  and  C_38
   12  A    between atoms: C_15  and  C_42
   13  A    between atoms: N_28  and  C_35
                            x       y       z     vdW  Elec       q    Type
                         _______ _______ _______ _____ _____    ______ ____

>  <TORSDO>
F 13

$$$$
