=
 OpenBabel11052416273D

 43 48  0  0  1  0  0  0  0  0999 V2000
  187.5120  178.0830  147.6510 C   0  0  0  0  0  0  0  0  0  0  0  0
  185.9280  178.0360  142.8910 C   0  0  0  0  0  0  0  0  0  0  0  0
  187.3160  177.6870  145.2700 C   0  0  0  0  0  0  0  0  0  0  0  0
  186.3230  178.8240  147.6330 C   0  0  0  0  0  3  0  0  0  0  0  0
  188.3780  177.8650  149.1550 Cl  0  0  0  0  0  0  0  0  0  0  0  0
  186.1120  178.4390  145.2540 C   0  0  0  0  0  0  0  0  0  0  0  0
  188.0070  177.5150  146.4720 C   0  0  0  0  0  3  0  0  0  0  0  0
  185.6210  179.0020  146.4360 C   0  0  0  0  0  3  0  0  0  0  0  0
  184.2390  179.2510  143.7800 N   0  0  0  0  0  2  0  0  0  0  0  0
  185.4530  178.5860  144.0340 C   0  0  0  0  0  0  0  0  0  0  0  0
  187.1030  177.2820  142.8710 C   0  0  0  0  0  3  0  0  0  0  0  0
  184.9710  178.3470  141.7920 C   0  0  1  0  0  3  0  0  0  0  0  0
  183.8860  179.1360  142.4190 N   0  0  0  0  0  0  0  0  0  0  0  0
  187.8030  177.1120  144.0790 C   0  0  0  0  0  3  0  0  0  0  0  0
  185.6570  179.1820  140.7240 C   0  0  0  0  0  2  0  0  0  0  0  0
  185.5330  178.5420  139.4610 O   0  0  0  0  0  0  0  0  0  0  0  0
  189.1310  178.4950  138.6280 C   0  0  0  0  0  3  0  0  0  0  0  0
  187.3610  177.5340  136.3430 C   0  0  0  0  0  3  0  0  0  0  0  0
  188.6190  177.9670  136.2770 C   0  0  0  0  0  3  0  0  0  0  0  0
  187.9920  178.2090  139.2580 C   0  0  0  0  0  3  0  0  0  0  0  0
  186.6340  178.2380  138.6570 C   0  0  0  0  0  0  0  0  0  0  0  0
  189.1820  178.9770  137.2180 C   0  0  0  0  0  2  0  0  0  0  0  0
  186.3810  177.9110  137.3810 C   0  0  0  0  0  3  0  0  0  0  0  0
  182.6770  178.3180  142.3600 C   0  0  0  0  0  2  0  0  0  0  0  0
  181.4150  179.1090  141.9880 C   0  0  1  0  0  3  0  0  0  0  0  0
  180.7630  178.4490  140.7820 C   0  0  1  0  0  3  0  0  0  0  0  0
  180.1030  178.3450  142.1410 C   0  0  0  0  0  2  0  0  0  0  0  0
  180.0410  179.4510  139.8590 C   0  0  1  0  0  3  0  0  0  0  0  0
  179.9320  180.7300  140.4270 O   0  0  0  0  0  1  0  0  0  0  0  0
  181.9570  180.1110  138.5720 O   0  0  0  0  0  1  0  0  0  0  0  0
  180.6830  179.5350  138.4600 C   0  0  1  0  0  0  0  0  0  0  0  0
  180.7650  178.1310  137.8230 C   0  0  0  0  0  2  0  0  0  0  0  0
  182.8700  176.8070  138.0700 C   0  0  0  0  0  1  0  0  0  0  0  0
  182.1150  177.7910  137.1990 C   0  0  0  0  0  2  0  0  0  0  0  0
  179.8280  180.3850  137.6210 N   0  0  0  0  0  2  0  0  0  0  0  0
  180.6260  181.1480  136.6590 C   0  0  1  0  0  3  0  0  0  0  0  0
  180.5490  180.5300  135.4090 O   0  0  0  0  0  1  0  0  0  0  0  0
  180.1050  182.5810  136.5670 C   0  0  0  0  0  3  0  0  0  0  0  0
  180.9320  184.9110  135.8490 C   0  0  0  0  0  2  0  0  0  0  0  0
  179.4670  184.6490  137.8860 C   0  0  0  0  0  2  0  0  0  0  0  0
  179.6290  185.3350  136.5220 C   0  0  0  0  0  2  0  0  0  0  0  0
  180.0890  183.2470  137.9440 C   0  0  0  0  0  2  0  0  0  0  0  0
  180.9510  183.4000  135.5750 C   0  0  0  0  0  2  0  0  0  0  0  0
  1  5  1  0  0  0  0
  2 10  1  0  0  0  0
  3  7  1  0  0  0  0
  4  1  1  0  0  0  0
  6  3  1  0  0  0  0
  6  8  1  0  0  0  0
  7  1  2  0  0  0  0
  8  4  2  0  0  0  0
  9 10  1  0  0  0  0
 10  6  2  0  0  0  0
 11  2  2  0  0  0  0
 11 14  1  0  0  0  0
 12 15  1  6  0  0  0
 12 13  1  0  0  0  0
 12  2  1  0  0  0  0
 13  9  1  0  0  0  0
 14  3  2  0  0  0  0
 16 15  1  0  0  0  0
 17 20  2  0  0  0  0
 18 23  1  0  0  0  0
 19 18  2  0  0  0  0
 19 22  1  0  0  0  0
 21 20  1  0  0  0  0
 21 16  1  0  0  0  0
 22 17  1  0  0  0  0
 23 21  2  0  0  0  0
 24 13  1  0  0  0  0
 25 27  1  0  0  0  0
 25 24  1  1  0  0  0
 26 28  1  6  0  0  0
 26 25  1  0  0  0  0
 26 27  1  0  0  0  0
 28 29  1  1  0  0  0
 31 30  1  1  0  0  0
 31 28  1  0  0  0  0
 32 31  1  0  0  0  0
 34 32  1  0  0  0  0
 34 33  1  0  0  0  0
 35 31  1  0  0  0  0
 36 37  1  6  0  0  0
 36 35  1  0  0  0  0
 38 36  1  0  0  0  0
 38 42  1  0  0  0  0
 39 41  1  0  0  0  0
 40 42  1  0  0  0  0
 41 40  1  0  0  0  0
 43 39  1  0  0  0  0
 43 38  1  0  0  0  0
M  END
>  <MODEL>
1

>  <REMARK>
 VINA RESULT:      -8.5      0.000      0.000
  Name = 
  12 active torsions:
  status: ('A' for Active; 'I' for Inactive)
    1  A    between atoms: C_1  and  O_28
    2  A    between atoms: C_1  and  C_34
    3  A    between atoms: C_2  and  C_13
    4  A    between atoms: C_4  and  C_12
    5  A    between atoms: C_4  and  C_15
    6  A    between atoms: C_4  and  N_22
    7  A    between atoms: C_6  and  C_12
    8  A    between atoms: C_11  and  C_14
    9  A    between atoms: C_13  and  N_38
   10  A    between atoms: C_14  and  N_22
   11  A    between atoms: C_15  and  C_42
   12  A    between atoms: O_28  and  C_35
                            x       y       z     vdW  Elec       q    Type
                         _______ _______ _______ _____ _____    ______ ____

>  <TORSDO>
F 12

$$$$
=
 OpenBabel11052416273D

 43 48  0  0  1  0  0  0  0  0999 V2000
  186.5510  178.2030  146.5620 C   0  0  0  0  0  0  0  0  0  0  0  0
  183.3180  178.6940  142.7580 C   0  0  0  0  0  0  0  0  0  0  0  0
  184.5730  178.6340  145.2330 C   0  0  0  0  0  0  0  0  0  0  0  0
  187.2560  177.8370  145.4070 C   0  0  0  0  0  3  0  0  0  0  0  0
  187.3510  178.1660  148.1170 Cl  0  0  0  0  0  0  0  0  0  0  0  0
  185.2880  178.2600  144.0650 C   0  0  0  0  0  0  0  0  0  0  0  0
  185.2130  178.6010  146.4750 C   0  0  0  0  0  3  0  0  0  0  0  0
  186.6270  177.8660  144.1580 C   0  0  0  0  0  3  0  0  0  0  0  0
  185.1190  178.0200  141.5640 N   0  0  0  0  0  2  0  0  0  0  0  0
  184.6130  178.3080  142.8460 C   0  0  0  0  0  0  0  0  0  0  0  0
  182.5860  179.0770  143.8840 C   0  0  0  0  0  3  0  0  0  0  0  0
  182.9220  178.6700  141.3220 C   0  0  1  0  0  3  0  0  0  0  0  0
  184.1280  178.2290  140.5820 N   0  0  0  0  0  0  0  0  0  0  0  0
  183.2270  179.0400  145.1350 C   0  0  0  0  0  3  0  0  0  0  0  0
  181.7980  177.6700  141.1070 C   0  0  0  0  0  2  0  0  0  0  0  0
  180.5750  178.3610  140.8910 O   0  0  0  0  0  0  0  0  0  0  0  0
  181.3380  180.0580  137.7010 C   0  0  0  0  0  3  0  0  0  0  0  0
  179.5700  181.7170  139.5470 C   0  0  0  0  0  3  0  0  0  0  0  0
  180.3010  182.1400  138.5170 C   0  0  0  0  0  3  0  0  0  0  0  0
  180.8720  179.1380  138.5440 C   0  0  0  0  0  3  0  0  0  0  0  0
  180.4400  179.3790  139.9450 C   0  0  0  0  0  0  0  0  0  0  0  0
  181.5690  181.4780  138.0930 C   0  0  0  0  0  2  0  0  0  0  0  0
  179.8460  180.5100  140.3530 C   0  0  0  0  0  3  0  0  0  0  0  0
  184.5650  179.3610  139.7690 C   0  0  0  0  0  2  0  0  0  0  0  0
  184.8720  178.9900  138.3110 C   0  0  1  0  0  3  0  0  0  0  0  0
  186.0500  178.0270  138.2910 C   0  0  1  0  0  3  0  0  0  0  0  0
  184.6610  177.5210  137.9580 C   0  0  0  0  0  2  0  0  0  0  0  0
  186.9320  178.1740  137.0360 C   0  0  1  0  0  3  0  0  0  0  0  0
  187.3240  179.5010  136.8010 O   0  0  0  0  0  1  0  0  0  0  0  0
  187.7580  175.9570  137.4430 O   0  0  0  0  0  1  0  0  0  0  0  0
  188.1620  177.2460  137.0650 C   0  0  1  0  0  0  0  0  0  0  0  0
  188.8520  177.2260  135.6840 C   0  0  0  0  0  2  0  0  0  0  0  0
  190.1160  175.2850  134.7450 C   0  0  0  0  0  1  0  0  0  0  0  0
  188.7440  175.9010  134.9350 C   0  0  0  0  0  2  0  0  0  0  0  0
  189.1060  177.7770  138.0570 N   0  0  0  0  0  2  0  0  0  0  0  0
  189.9810  176.7220  138.5710 C   0  0  1  0  0  3  0  0  0  0  0  0
  191.2530  176.8710  138.0140 O   0  0  0  0  0  1  0  0  0  0  0  0
  190.0630  176.8060  140.0940 C   0  0  0  0  0  3  0  0  0  0  0  0
  189.1720  178.2680  142.0150 C   0  0  0  0  0  2  0  0  0  0  0  0
  191.5410  177.4040  142.0650 C   0  0  0  0  0  2  0  0  0  0  0  0
  190.1980  177.4630  142.8070 C   0  0  0  0  0  2  0  0  0  0  0  0
  191.3960  177.4130  140.5370 C   0  0  0  0  0  2  0  0  0  0  0  0
  188.8820  177.6170  140.6550 C   0  0  0  0  0  2  0  0  0  0  0  0
  1  5  1  0  0  0  0
  2 10  2  0  0  0  0
  2 11  1  0  0  0  0
  3  7  2  0  0  0  0
  4  1  2  0  0  0  0
  6  8  2  0  0  0  0
  6  3  1  0  0  0  0
  7  1  1  0  0  0  0
  8  4  1  0  0  0  0
  9 10  1  0  0  0  0
 10  6  1  0  0  0  0
 11 14  2  0  0  0  0
 12 15  1  1  0  0  0
 12  2  1  0  0  0  0
 13 12  1  0  0  0  0
 13  9  1  0  0  0  0
 14  3  1  0  0  0  0
 16 15  1  0  0  0  0
 17 22  1  0  0  0  0
 17 20  2  0  0  0  0
 18 23  1  0  0  0  0
 19 18  2  0  0  0  0
 20 21  1  0  0  0  0
 21 23  2  0  0  0  0
 21 16  1  0  0  0  0
 22 19  1  0  0  0  0
 24 13  1  0  0  0  0
 25 24  1  1  0  0  0
 26 28  1  6  0  0  0
 26 25  1  0  0  0  0
 27 26  1  0  0  0  0
 27 25  1  0  0  0  0
 28 29  1  1  0  0  0
 28 31  1  0  0  0  0
 31 30  1  1  0  0  0
 31 35  1  0  0  0  0
 32 31  1  0  0  0  0
 33 34  1  0  0  0  0
 34 32  1  0  0  0  0
 35 36  1  0  0  0  0
 36 37  1  6  0  0  0
 36 38  1  0  0  0  0
 38 42  1  0  0  0  0
 38 43  1  0  0  0  0
 39 41  1  0  0  0  0
 40 41  1  0  0  0  0
 42 40  1  0  0  0  0
 43 39  1  0  0  0  0
M  END
>  <MODEL>
2

>  <REMARK>
 VINA RESULT:      -8.4      2.396      7.645
  Name = 
  12 active torsions:
  status: ('A' for Active; 'I' for Inactive)
    1  A    between atoms: C_1  and  O_28
    2  A    between atoms: C_1  and  C_34
    3  A    between atoms: C_2  and  C_13
    4  A    between atoms: C_4  and  C_12
    5  A    between atoms: C_4  and  C_15
    6  A    between atoms: C_4  and  N_22
    7  A    between atoms: C_6  and  C_12
    8  A    between atoms: C_11  and  C_14
    9  A    between atoms: C_13  and  N_38
   10  A    between atoms: C_14  and  N_22
   11  A    between atoms: C_15  and  C_42
   12  A    between atoms: O_28  and  C_35
                            x       y       z     vdW  Elec       q    Type
                         _______ _______ _______ _____ _____    ______ ____

>  <TORSDO>
F 12

$$$$
=
 OpenBabel11052416273D

 43 48  0  0  1  0  0  0  0  0999 V2000
  187.0520  178.0010  146.7340 C   0  0  0  0  0  0  0  0  0  0  0  0
  183.6700  178.7100  143.0970 C   0  0  0  0  0  0  0  0  0  0  0  0
  185.0320  178.5350  145.5100 C   0  0  0  0  0  0  0  0  0  0  0  0
  187.6920  177.6480  145.5380 C   0  0  0  0  0  3  0  0  0  0  0  0
  187.9190  177.8910  148.2490 Cl  0  0  0  0  0  0  0  0  0  0  0  0
  185.6810  178.1740  144.3000 C   0  0  0  0  0  0  0  0  0  0  0  0
  185.7260  178.4440  146.7200 C   0  0  0  0  0  3  0  0  0  0  0  0
  187.0090  177.7350  144.3200 C   0  0  0  0  0  3  0  0  0  0  0  0
  185.3930  178.0160  141.8040 N   0  0  0  0  0  2  0  0  0  0  0  0
  184.9540  178.2800  143.1150 C   0  0  0  0  0  0  0  0  0  0  0  0
  183.0030  179.0820  144.2660 C   0  0  0  0  0  3  0  0  0  0  0  0
  183.2100  178.7420  141.6810 C   0  0  1  0  0  3  0  0  0  0  0  0
  184.3660  178.2860  140.8750 N   0  0  0  0  0  0  0  0  0  0  0  0
  183.6980  178.9870  145.4850 C   0  0  0  0  0  3  0  0  0  0  0  0
  182.0450  177.7860  141.4890 C   0  0  0  0  0  2  0  0  0  0  0  0
  180.8420  178.5230  141.3160 O   0  0  0  0  0  0  0  0  0  0  0  0
  181.5460  179.9290  137.9750 C   0  0  0  0  0  3  0  0  0  0  0  0
  179.6120  181.6270  139.6050 C   0  0  0  0  0  3  0  0  0  0  0  0
  180.3330  181.9960  138.5470 C   0  0  0  0  0  3  0  0  0  0  0  0
  181.1330  179.0680  138.9040 C   0  0  0  0  0  3  0  0  0  0  0  0
  180.6510  179.4210  140.2640 C   0  0  0  0  0  0  0  0  0  0  0  0
  181.6580  181.3960  138.2160 C   0  0  0  0  0  2  0  0  0  0  0  0
  179.9610  180.5380  140.5390 C   0  0  0  0  0  3  0  0  0  0  0  0
  184.8040  179.4280  140.0760 C   0  0  0  0  0  2  0  0  0  0  0  0
  185.0870  179.0800  138.6070 C   0  0  1  0  0  3  0  0  0  0  0  0
  186.1760  178.0190  138.5580 C   0  0  1  0  0  3  0  0  0  0  0  0
  184.7520  177.6470  138.2050 C   0  0  0  0  0  2  0  0  0  0  0  0
  187.0750  178.1310  137.3100 C   0  0  1  0  0  3  0  0  0  0  0  0
  187.1520  179.4410  136.8130 O   0  0  0  0  0  1  0  0  0  0  0  0
  189.2110  177.6090  136.3460 O   0  0  0  0  0  1  0  0  0  0  0  0
  188.4870  177.5590  137.5460 C   0  0  1  0  0  0  0  0  0  0  0  0
  189.2080  178.3500  138.6590 C   0  0  0  0  0  2  0  0  0  0  0  0
  188.8920  178.1020  141.1260 C   0  0  0  0  0  1  0  0  0  0  0  0
  189.5670  177.5310  139.8950 C   0  0  0  0  0  2  0  0  0  0  0  0
  188.3430  176.1620  137.9770 N   0  0  0  0  0  2  0  0  0  0  0  0
  188.9570  175.2470  137.0150 C   0  0  1  0  0  3  0  0  0  0  0  0
  190.0330  174.5970  137.6240 O   0  0  0  0  0  1  0  0  0  0  0  0
  187.9300  174.2230  136.5370 C   0  0  0  0  0  3  0  0  0  0  0  0
  185.6930  173.2050  137.3020 C   0  0  0  0  0  2  0  0  0  0  0  0
  187.4490  171.7540  136.2200 C   0  0  0  0  0  2  0  0  0  0  0  0
  185.9950  172.2410  136.1580 C   0  0  0  0  0  2  0  0  0  0  0  0
  188.4200  172.7960  136.7920 C   0  0  0  0  0  2  0  0  0  0  0  0
  186.5700  174.4620  137.2180 C   0  0  0  0  0  2  0  0  0  0  0  0
  1  5  1  0  0  0  0
  2 10  2  0  0  0  0
  2 11  1  0  0  0  0
  3  7  2  0  0  0  0
  4  1  2  0  0  0  0
  6  8  2  0  0  0  0
  6  3  1  0  0  0  0
  7  1  1  0  0  0  0
  8  4  1  0  0  0  0
  9 10  1  0  0  0  0
 10  6  1  0  0  0  0
 11 14  2  0  0  0  0
 12 15  1  1  0  0  0
 12  2  1  0  0  0  0
 13 12  1  0  0  0  0
 13  9  1  0  0  0  0
 14  3  1  0  0  0  0
 16 15  1  0  0  0  0
 17 22  1  0  0  0  0
 17 20  2  0  0  0  0
 18 23  1  0  0  0  0
 19 18  2  0  0  0  0
 20 21  1  0  0  0  0
 21 23  2  0  0  0  0
 21 16  1  0  0  0  0
 22 19  1  0  0  0  0
 24 13  1  0  0  0  0
 25 24  1  1  0  0  0
 26 28  1  6  0  0  0
 26 25  1  0  0  0  0
 27 26  1  0  0  0  0
 27 25  1  0  0  0  0
 28 29  1  1  0  0  0
 28 31  1  0  0  0  0
 31 30  1  6  0  0  0
 31 35  1  0  0  0  0
 31 32  1  0  0  0  0
 32 34  1  0  0  0  0
 34 33  1  0  0  0  0
 36 37  1  1  0  0  0
 36 35  1  0  0  0  0
 38 42  1  0  0  0  0
 38 36  1  0  0  0  0
 38 43  1  0  0  0  0
 40 42  1  0  0  0  0
 41 40  1  0  0  0  0
 41 39  1  0  0  0  0
 43 39  1  0  0  0  0
M  END
>  <MODEL>
3

>  <REMARK>
 VINA RESULT:      -8.3      2.753      7.601
  Name = 
  12 active torsions:
  status: ('A' for Active; 'I' for Inactive)
    1  A    between atoms: C_1  and  O_28
    2  A    between atoms: C_1  and  C_34
    3  A    between atoms: C_2  and  C_13
    4  A    between atoms: C_4  and  C_12
    5  A    between atoms: C_4  and  C_15
    6  A    between atoms: C_4  and  N_22
    7  A    between atoms: C_6  and  C_12
    8  A    between atoms: C_11  and  C_14
    9  A    between atoms: C_13  and  N_38
   10  A    between atoms: C_14  and  N_22
   11  A    between atoms: C_15  and  C_42
   12  A    between atoms: O_28  and  C_35
                            x       y       z     vdW  Elec       q    Type
                         _______ _______ _______ _____ _____    ______ ____

>  <TORSDO>
F 12

$$$$
=
 OpenBabel11052416273D

 43 48  0  0  1  0  0  0  0  0999 V2000
  191.6570  176.2240  147.0460 C   0  0  0  0  0  0  0  0  0  0  0  0
  189.2050  177.2220  142.7850 C   0  0  0  0  0  0  0  0  0  0  0  0
  190.9490  176.2840  144.7310 C   0  0  0  0  0  0  0  0  0  0  0  0
  190.6200  177.0990  147.3940 C   0  0  0  0  0  3  0  0  0  0  0  0
  192.7490  175.6360  148.2790 Cl  0  0  0  0  0  0  0  0  0  0  0  0
  189.8990  177.1720  145.0860 C   0  0  0  0  0  0  0  0  0  0  0  0
  191.8210  175.8170  145.7180 C   0  0  0  0  0  3  0  0  0  0  0  0
  189.7390  177.5730  146.4160 C   0  0  0  0  0  3  0  0  0  0  0  0
  187.9320  178.4610  144.1870 N   0  0  0  0  0  2  0  0  0  0  0  0
  189.0510  177.6140  144.0720 C   0  0  0  0  0  0  0  0  0  0  0  0
  190.2190  176.3420  142.4010 C   0  0  0  0  0  3  0  0  0  0  0  0
  188.1170  177.8400  141.9760 C   0  0  1  0  0  3  0  0  0  0  0  0
  187.3110  178.6350  142.9320 N   0  0  0  0  0  0  0  0  0  0  0  0
  191.1010  175.8740  143.3920 C   0  0  0  0  0  3  0  0  0  0  0  0
  188.7090  178.7590  140.9210 C   0  0  0  0  0  2  0  0  0  0  0  0
  188.1460  178.4590  139.6510 O   0  0  0  0  0  0  0  0  0  0  0  0
  188.9760  178.2120  136.0610 C   0  0  0  0  0  3  0  0  0  0  0  0
  190.7180  176.4340  137.8180 C   0  0  0  0  0  3  0  0  0  0  0  0
  190.5090  176.3350  136.5050 C   0  0  0  0  0  3  0  0  0  0  0  0
  188.8000  178.7510  137.2660 C   0  0  0  0  0  3  0  0  0  0  0  0
  188.9150  178.0380  138.5640 C   0  0  0  0  0  0  0  0  0  0  0  0
  189.2390  176.7590  135.8490 C   0  0  0  0  0  2  0  0  0  0  0  0
  189.7850  177.0410  138.7880 C   0  0  0  0  0  3  0  0  0  0  0  0
  185.9990  177.9970  143.0130 C   0  0  0  0  0  2  0  0  0  0  0  0
  184.8750  178.8160  142.3620 C   0  0  1  0  0  3  0  0  0  0  0  0
  184.2400  177.9820  141.2600 C   0  0  1  0  0  3  0  0  0  0  0  0
  183.4720  178.2440  142.5380 C   0  0  0  0  0  2  0  0  0  0  0  0
  183.7170  178.8300  140.0830 C   0  0  1  0  0  3  0  0  0  0  0  0
  184.6780  179.7290  139.5940 O   0  0  0  0  0  1  0  0  0  0  0  0
  182.7090  176.7430  139.4580 O   0  0  0  0  0  1  0  0  0  0  0  0
  183.1530  177.9670  138.9370 C   0  0  1  0  0  0  0  0  0  0  0  0
  182.0060  178.7110  138.2190 C   0  0  0  0  0  2  0  0  0  0  0  0
  181.0210  180.9550  137.7320 C   0  0  0  0  0  1  0  0  0  0  0  0
  181.6910  180.0930  138.7830 C   0  0  0  0  0  2  0  0  0  0  0  0
  184.2370  177.7300  137.9740 N   0  0  0  0  0  2  0  0  0  0  0  0
  183.9100  176.6220  137.0750 C   0  0  1  0  0  3  0  0  0  0  0  0
  183.9350  177.0800  135.7560 O   0  0  0  0  0  1  0  0  0  0  0  0
  184.9190  175.4880  137.2540 C   0  0  0  0  0  3  0  0  0  0  0  0
  186.5010  174.0460  135.8240 C   0  0  0  0  0  2  0  0  0  0  0  0
  185.2010  173.0130  137.7230 C   0  0  0  0  0  2  0  0  0  0  0  0
  186.5950  173.2550  137.1260 C   0  0  0  0  0  2  0  0  0  0  0  0
  184.2070  174.1460  137.4350 C   0  0  0  0  0  2  0  0  0  0  0  0
  185.8880  175.4340  136.0590 C   0  0  0  0  0  2  0  0  0  0  0  0
  1  4  1  0  0  0  0
  1  5  1  0  0  0  0
  2 10  1  0  0  0  0
  3  6  1  0  0  0  0
  3  7  1  0  0  0  0
  6  8  1  0  0  0  0
  7  1  2  0  0  0  0
  8  4  2  0  0  0  0
 10  9  1  0  0  0  0
 10  6  2  0  0  0  0
 11  2  2  0  0  0  0
 11 14  1  0  0  0  0
 12 15  1  6  0  0  0
 12  2  1  0  0  0  0
 12 13  1  0  0  0  0
 13 24  1  0  0  0  0
 13  9  1  0  0  0  0
 14  3  2  0  0  0  0
 16 15  1  0  0  0  0
 17 20  2  0  0  0  0
 18 23  1  0  0  0  0
 19 18  2  0  0  0  0
 20 21  1  0  0  0  0
 21 23  2  0  0  0  0
 21 16  1  0  0  0  0
 22 17  1  0  0  0  0
 22 19  1  0  0  0  0
 25 27  1  0  0  0  0
 25 24  1  1  0  0  0
 26 28  1  6  0  0  0
 26 25  1  0  0  0  0
 26 27  1  0  0  0  0
 28 29  1  6  0  0  0
 31 30  1  1  0  0  0
 31 28  1  0  0  0  0
 32 34  1  0  0  0  0
 32 31  1  0  0  0  0
 33 34  1  0  0  0  0
 35 31  1  0  0  0  0
 36 37  1  6  0  0  0
 36 38  1  0  0  0  0
 36 35  1  0  0  0  0
 38 42  1  0  0  0  0
 39 43  1  0  0  0  0
 39 41  1  0  0  0  0
 41 40  1  0  0  0  0
 42 40  1  0  0  0  0
 43 38  1  0  0  0  0
M  END
>  <MODEL>
4

>  <REMARK>
 VINA RESULT:      -8.0      2.743      5.479
  Name = 
  12 active torsions:
  status: ('A' for Active; 'I' for Inactive)
    1  A    between atoms: C_1  and  O_28
    2  A    between atoms: C_1  and  C_34
    3  A    between atoms: C_2  and  C_13
    4  A    between atoms: C_4  and  C_12
    5  A    between atoms: C_4  and  C_15
    6  A    between atoms: C_4  and  N_22
    7  A    between atoms: C_6  and  C_12
    8  A    between atoms: C_11  and  C_14
    9  A    between atoms: C_13  and  N_38
   10  A    between atoms: C_14  and  N_22
   11  A    between atoms: C_15  and  C_42
   12  A    between atoms: O_28  and  C_35
                            x       y       z     vdW  Elec       q    Type
                         _______ _______ _______ _____ _____    ______ ____

>  <TORSDO>
F 12

$$$$
=
 OpenBabel11052416273D

 43 48  0  0  1  0  0  0  0  0999 V2000
  187.4540  178.0990  147.7100 C   0  0  0  0  0  0  0  0  0  0  0  0
  185.8660  178.0540  142.9520 C   0  0  0  0  0  0  0  0  0  0  0  0
  187.2550  177.7020  145.3300 C   0  0  0  0  0  0  0  0  0  0  0  0
  186.2660  178.8430  147.6930 C   0  0  0  0  0  3  0  0  0  0  0  0
  188.3200  177.8790  149.2140 Cl  0  0  0  0  0  0  0  0  0  0  0  0
  186.0530  178.4570  145.3140 C   0  0  0  0  0  0  0  0  0  0  0  0
  187.9460  177.5290  146.5320 C   0  0  0  0  0  3  0  0  0  0  0  0
  185.5640  179.0220  146.4970 C   0  0  0  0  0  3  0  0  0  0  0  0
  184.1810  179.2730  143.8420 N   0  0  0  0  0  2  0  0  0  0  0  0
  185.3940  178.6050  144.0950 C   0  0  0  0  0  0  0  0  0  0  0  0
  187.0390  177.2960  142.9310 C   0  0  0  0  0  3  0  0  0  0  0  0
  184.9100  178.3660  141.8540 C   0  0  1  0  0  3  0  0  0  0  0  0
  183.8260  179.1590  142.4810 N   0  0  0  0  0  0  0  0  0  0  0  0
  187.7400  177.1260  144.1390 C   0  0  0  0  0  3  0  0  0  0  0  0
  185.5970  179.1990  140.7840 C   0  0  0  0  0  2  0  0  0  0  0  0
  185.4650  178.5620  139.5200 O   0  0  0  0  0  0  0  0  0  0  0  0
  189.0550  178.5410  138.6540 C   0  0  0  0  0  3  0  0  0  0  0  0
  187.2690  177.5760  136.3820 C   0  0  0  0  0  3  0  0  0  0  0  0
  188.5240  178.0170  136.3060 C   0  0  0  0  0  3  0  0  0  0  0  0
  187.9240  178.2440  139.2930 C   0  0  0  0  0  3  0  0  0  0  0  0
  186.5600  178.2680  138.7060 C   0  0  0  0  0  0  0  0  0  0  0  0
  189.0900  179.0280  137.2450 C   0  0  0  0  0  2  0  0  0  0  0  0
  186.2970  177.9430  137.4310 C   0  0  0  0  0  3  0  0  0  0  0  0
  182.6160  178.3430  142.4230 C   0  0  0  0  0  2  0  0  0  0  0  0
  181.7440  178.6210  141.1890 C   0  0  1  0  0  3  0  0  0  0  0  0
  181.5270  177.3140  140.4410 C   0  0  1  0  0  3  0  0  0  0  0  0
  180.3770  177.9450  141.1970 C   0  0  0  0  0  2  0  0  0  0  0  0
  181.3950  177.5030  138.9170 C   0  0  1  0  0  3  0  0  0  0  0  0
  182.6190  177.8060  138.3000 O   0  0  0  0  0  1  0  0  0  0  0  0
  180.6800  175.2210  139.1240 O   0  0  0  0  0  1  0  0  0  0  0  0
  180.7270  176.2980  138.2270 C   0  0  1  0  0  0  0  0  0  0  0  0
  179.3110  176.6750  137.7420 C   0  0  0  0  0  2  0  0  0  0  0  0
  178.9310  178.5700  136.1580 C   0  0  0  0  0  1  0  0  0  0  0  0
  179.0570  178.1740  137.6160 C   0  0  0  0  0  2  0  0  0  0  0  0
  181.5440  175.9340  137.0620 N   0  0  0  0  0  2  0  0  0  0  0  0
  181.9950  174.5440  137.1470 C   0  0  1  0  0  3  0  0  0  0  0  0
  181.5650  173.8520  136.0130 O   0  0  0  0  0  1  0  0  0  0  0  0
  183.5190  174.4940  137.2430 C   0  0  0  0  0  3  0  0  0  0  0  0
  185.5720  174.5840  135.6930 C   0  0  0  0  0  2  0  0  0  0  0  0
  185.5270  173.0030  137.6580 C   0  0  0  0  0  2  0  0  0  0  0  0
  186.2800  174.1530  136.9750 C   0  0  0  0  0  2  0  0  0  0  0  0
  184.0070  173.0590  137.4510 C   0  0  0  0  0  2  0  0  0  0  0  0
  184.1600  175.1110  135.9870 C   0  0  0  0  0  2  0  0  0  0  0  0
  1  5  1  0  0  0  0
  2 10  1  0  0  0  0
  3  7  1  0  0  0  0
  4  1  1  0  0  0  0
  6  3  1  0  0  0  0
  6  8  1  0  0  0  0
  7  1  2  0  0  0  0
  8  4  2  0  0  0  0
  9 10  1  0  0  0  0
 10  6  2  0  0  0  0
 11  2  2  0  0  0  0
 11 14  1  0  0  0  0
 12 15  1  6  0  0  0
 12 13  1  0  0  0  0
 12  2  1  0  0  0  0
 13  9  1  0  0  0  0
 14  3  2  0  0  0  0
 16 15  1  0  0  0  0
 17 20  2  0  0  0  0
 18 23  1  0  0  0  0
 19 18  2  0  0  0  0
 19 22  1  0  0  0  0
 21 20  1  0  0  0  0
 21 16  1  0  0  0  0
 22 17  1  0  0  0  0
 23 21  2  0  0  0  0
 24 13  1  0  0  0  0
 25 27  1  0  0  0  0
 25 24  1  1  0  0  0
 26 28  1  6  0  0  0
 26 25  1  0  0  0  0
 26 27  1  0  0  0  0
 28 29  1  6  0  0  0
 31 28  1  0  0  0  0
 31 30  1  1  0  0  0
 32 31  1  0  0  0  0
 33 34  1  0  0  0  0
 34 32  1  0  0  0  0
 35 36  1  0  0  0  0
 35 31  1  0  0  0  0
 36 37  1  6  0  0  0
 36 38  1  0  0  0  0
 38 42  1  0  0  0  0
 39 43  1  0  0  0  0
 39 41  1  0  0  0  0
 41 40  1  0  0  0  0
 42 40  1  0  0  0  0
 43 38  1  0  0  0  0
M  END
>  <MODEL>
5

>  <REMARK>
 VINA RESULT:      -8.0      2.653      4.736
  Name = 
  12 active torsions:
  status: ('A' for Active; 'I' for Inactive)
    1  A    between atoms: C_1  and  O_28
    2  A    between atoms: C_1  and  C_34
    3  A    between atoms: C_2  and  C_13
    4  A    between atoms: C_4  and  C_12
    5  A    between atoms: C_4  and  C_15
    6  A    between atoms: C_4  and  N_22
    7  A    between atoms: C_6  and  C_12
    8  A    between atoms: C_11  and  C_14
    9  A    between atoms: C_13  and  N_38
   10  A    between atoms: C_14  and  N_22
   11  A    between atoms: C_15  and  C_42
   12  A    between atoms: O_28  and  C_35
                            x       y       z     vdW  Elec       q    Type
                         _______ _______ _______ _____ _____    ______ ____

>  <TORSDO>
F 12

$$$$
=
 OpenBabel11052416273D

 43 48  0  0  1  0  0  0  0  0999 V2000
  187.5140  178.1150  147.6530 C   0  0  0  0  0  0  0  0  0  0  0  0
  185.7580  178.1560  142.9540 C   0  0  0  0  0  0  0  0  0  0  0  0
  187.2400  177.7770  145.2710 C   0  0  0  0  0  0  0  0  0  0  0  0
  186.3080  178.8270  147.6990 C   0  0  0  0  0  3  0  0  0  0  0  0
  188.4390  177.8780  149.1190 Cl  0  0  0  0  0  0  0  0  0  0  0  0
  186.0190  178.5010  145.3190 C   0  0  0  0  0  0  0  0  0  0  0  0
  187.9780  177.5910  146.4430 C   0  0  0  0  0  3  0  0  0  0  0  0
  185.5580  179.0200  146.5330 C   0  0  0  0  0  3  0  0  0  0  0  0
  184.0750  179.3060  143.9360 N   0  0  0  0  0  2  0  0  0  0  0  0
  185.3130  178.6630  144.1280 C   0  0  0  0  0  0  0  0  0  0  0  0
  186.9490  177.4310  142.8710 C   0  0  0  0  0  3  0  0  0  0  0  0
  184.7550  178.4730  141.8990 C   0  0  1  0  0  3  0  0  0  0  0  0
  183.6750  179.2180  142.5860 N   0  0  0  0  0  0  0  0  0  0  0  0
  187.6960  177.2460  144.0480 C   0  0  0  0  0  3  0  0  0  0  0  0
  185.3820  179.3520  140.8300 C   0  0  0  0  0  2  0  0  0  0  0  0
  185.3010  178.7050  139.5670 O   0  0  0  0  0  0  0  0  0  0  0  0
  188.9340  178.4620  138.9530 C   0  0  0  0  0  3  0  0  0  0  0  0
  187.2570  177.7680  136.5060 C   0  0  0  0  0  3  0  0  0  0  0  0
  188.5430  178.1170  136.5450 C   0  0  0  0  0  3  0  0  0  0  0  0
  187.7410  178.2160  139.4920 C   0  0  0  0  0  3  0  0  0  0  0  0
  186.4290  178.3760  138.8130 C   0  0  0  0  0  0  0  0  0  0  0  0
  189.1080  179.0260  137.5830 C   0  0  0  0  0  2  0  0  0  0  0  0
  186.2390  178.1470  137.5050 C   0  0  0  0  0  3  0  0  0  0  0  0
  182.4850  178.3730  142.5480 C   0  0  0  0  0  2  0  0  0  0  0  0
  181.1720  179.1620  142.4400 C   0  0  1  0  0  3  0  0  0  0  0  0
  180.4800  178.7820  141.1390 C   0  0  1  0  0  3  0  0  0  0  0  0
  179.9030  178.3150  142.4590 C   0  0  0  0  0  2  0  0  0  0  0  0
  179.6660  179.9390  140.5250 C   0  0  1  0  0  3  0  0  0  0  0  0
  179.7600  181.1230  141.2710 O   0  0  0  0  0  1  0  0  0  0  0  0
  178.9310  179.8750  138.2400 O   0  0  0  0  0  1  0  0  0  0  0  0
  180.0290  180.1990  139.0490 C   0  0  1  0  0  0  0  0  0  0  0  0
  180.4450  181.6730  138.8520 C   0  0  0  0  0  2  0  0  0  0  0  0
  180.7800  183.3810  137.0590 C   0  0  0  0  0  1  0  0  0  0  0  0
  179.8260  182.3530  137.6340 C   0  0  0  0  0  2  0  0  0  0  0  0
  181.1680  179.3370  138.7060 N   0  0  0  0  0  2  0  0  0  0  0  0
  181.0420  178.8160  137.3430 C   0  0  1  0  0  3  0  0  0  0  0  0
  181.7760  179.6260  136.4740 O   0  0  0  0  0  1  0  0  0  0  0  0
  181.5580  177.3800  137.2820 C   0  0  0  0  0  3  0  0  0  0  0  0
  180.9310  175.0450  138.1660 C   0  0  0  0  0  2  0  0  0  0  0  0
  183.3440  175.7780  138.1000 C   0  0  0  0  0  2  0  0  0  0  0  0
  182.3290  174.7180  137.6480 C   0  0  0  0  0  2  0  0  0  0  0  0
  182.7440  177.1850  138.2290 C   0  0  0  0  0  2  0  0  0  0  0  0
  180.4300  176.3860  137.6090 C   0  0  0  0  0  2  0  0  0  0  0  0
  1  4  1  0  0  0  0
  1  5  1  0  0  0  0
  2 10  1  0  0  0  0
  3  6  1  0  0  0  0
  3  7  1  0  0  0  0
  6  8  1  0  0  0  0
  7  1  2  0  0  0  0
  8  4  2  0  0  0  0
  9 10  1  0  0  0  0
 10  6  2  0  0  0  0
 11  2  2  0  0  0  0
 11 14  1  0  0  0  0
 12 15  1  6  0  0  0
 12 13  1  0  0  0  0
 12  2  1  0  0  0  0
 13  9  1  0  0  0  0
 14  3  2  0  0  0  0
 16 15  1  0  0  0  0
 17 20  2  0  0  0  0
 18 19  2  0  0  0  0
 18 23  1  0  0  0  0
 19 22  1  0  0  0  0
 21 20  1  0  0  0  0
 21 16  1  0  0  0  0
 22 17  1  0  0  0  0
 23 21  2  0  0  0  0
 24 13  1  0  0  0  0
 25 27  1  0  0  0  0
 25 24  1  6  0  0  0
 26 28  1  1  0  0  0
 26 25  1  0  0  0  0
 26 27  1  0  0  0  0
 28 29  1  1  0  0  0
 31 30  1  6  0  0  0
 31 28  1  0  0  0  0
 32 31  1  0  0  0  0
 33 34  1  0  0  0  0
 34 32  1  0  0  0  0
 35 31  1  0  0  0  0
 36 37  1  6  0  0  0
 36 35  1  0  0  0  0
 38 36  1  0  0  0  0
 38 43  1  0  0  0  0
 38 42  1  0  0  0  0
 40 42  1  0  0  0  0
 41 40  1  0  0  0  0
 41 39  1  0  0  0  0
 43 39  1  0  0  0  0
M  END
>  <MODEL>
6

>  <REMARK>
 VINA RESULT:      -8.0      0.994      3.614
  Name = 
  12 active torsions:
  status: ('A' for Active; 'I' for Inactive)
    1  A    between atoms: C_1  and  O_28
    2  A    between atoms: C_1  and  C_34
    3  A    between atoms: C_2  and  C_13
    4  A    between atoms: C_4  and  C_12
    5  A    between atoms: C_4  and  C_15
    6  A    between atoms: C_4  and  N_22
    7  A    between atoms: C_6  and  C_12
    8  A    between atoms: C_11  and  C_14
    9  A    between atoms: C_13  and  N_38
   10  A    between atoms: C_14  and  N_22
   11  A    between atoms: C_15  and  C_42
   12  A    between atoms: O_28  and  C_35
                            x       y       z     vdW  Elec       q    Type
                         _______ _______ _______ _____ _____    ______ ____

>  <TORSDO>
F 12

$$$$
=
 OpenBabel11052416273D

 43 48  0  0  1  0  0  0  0  0999 V2000
  193.7990  174.4850  136.5860 C   0  0  0  0  0  0  0  0  0  0  0  0
  190.6970  177.0650  139.5660 C   0  0  0  0  0  0  0  0  0  0  0  0
  192.8950  175.9550  138.2840 C   0  0  0  0  0  0  0  0  0  0  0  0
  192.5020  174.1390  136.1840 C   0  0  0  0  0  3  0  0  0  0  0  0
  195.1780  173.7840  135.7700 Cl  0  0  0  0  0  0  0  0  0  0  0  0
  191.5820  175.6010  137.8780 C   0  0  0  0  0  0  0  0  0  0  0  0
  193.9950  175.3920  137.6320 C   0  0  0  0  0  3  0  0  0  0  0  0
  191.3920  174.6960  136.8280 C   0  0  0  0  0  3  0  0  0  0  0  0
  189.1360  176.0170  138.3070 N   0  0  0  0  0  2  0  0  0  0  0  0
  190.5110  176.1860  138.5530 C   0  0  0  0  0  0  0  0  0  0  0  0
  191.9730  177.4450  139.9860 C   0  0  0  0  0  3  0  0  0  0  0  0
  189.3590  177.5250  140.0350 C   0  0  1  0  0  3  0  0  0  0  0  0
  188.3740  176.8190  139.1830 N   0  0  0  0  0  0  0  0  0  0  0  0
  193.0820  176.8750  139.3350 C   0  0  0  0  0  3  0  0  0  0  0  0
  189.1520  177.1320  141.4880 C   0  0  0  0  0  2  0  0  0  0  0  0
  189.5390  178.2060  142.3360 O   0  0  0  0  0  0  0  0  0  0  0  0
  191.6810  177.7230  145.3050 C   0  0  0  0  0  3  0  0  0  0  0  0
  188.7070  177.4930  145.9240 C   0  0  0  0  0  3  0  0  0  0  0  0
  189.7300  177.0440  146.6490 C   0  0  0  0  0  3  0  0  0  0  0  0
  191.1290  178.3180  144.2490 C   0  0  0  0  0  3  0  0  0  0  0  0
  189.7760  178.0400  143.7020 C   0  0  0  0  0  0  0  0  0  0  0  0
  191.0240  176.6090  146.0480 C   0  0  0  0  0  2  0  0  0  0  0  0
  188.7230  177.7070  144.4630 C   0  0  0  0  0  3  0  0  0  0  0  0
  187.7130  177.8340  138.3670 C   0  0  0  0  0  2  0  0  0  0  0  0
  186.4660  177.3190  137.6330 C   0  0  1  0  0  3  0  0  0  0  0  0
  185.3440  178.3310  137.8090 C   0  0  1  0  0  3  0  0  0  0  0  0
  186.0080  178.1740  136.4570 C   0  0  0  0  0  2  0  0  0  0  0  0
  183.9450  177.6850  137.8490 C   0  0  1  0  0  3  0  0  0  0  0  0
  183.9400  176.4430  138.5040 O   0  0  0  0  0  1  0  0  0  0  0  0
  183.4590  179.8670  138.7230 O   0  0  0  0  0  1  0  0  0  0  0  0
  182.8790  178.6190  138.4560 C   0  0  1  0  0  0  0  0  0  0  0  0
  181.6810  178.7610  137.4930 C   0  0  0  0  0  2  0  0  0  0  0  0
  180.8010  180.8560  136.4520 C   0  0  0  0  0  1  0  0  0  0  0  0
  180.8320  180.0110  137.7100 C   0  0  0  0  0  2  0  0  0  0  0  0
  182.4090  178.0140  139.7090 N   0  0  0  0  0  2  0  0  0  0  0  0
  182.4310  178.9860  140.8030 C   0  0  1  0  0  3  0  0  0  0  0  0
  181.1410  179.1200  141.3220 O   0  0  0  0  0  1  0  0  0  0  0  0
  183.3890  178.5210  141.8980 C   0  0  0  0  0  3  0  0  0  0  0  0
  184.0340  179.1370  144.3130 C   0  0  0  0  0  2  0  0  0  0  0  0
  185.8080  178.4590  142.6540 C   0  0  0  0  0  2  0  0  0  0  0  0
  185.1730  178.1650  144.0200 C   0  0  0  0  0  2  0  0  0  0  0  0
  184.8130  179.0080  141.6220 C   0  0  0  0  0  2  0  0  0  0  0  0
  182.9070  179.0020  143.2790 C   0  0  0  0  0  2  0  0  0  0  0  0
  1  7  1  0  0  0  0
  2 11  1  0  0  0  0
  2 12  1  0  0  0  0
  3 14  1  0  0  0  0
  4  1  2  0  0  0  0
  4  8  1  0  0  0  0
  5  1  1  0  0  0  0
  6  3  1  0  0  0  0
  6 10  1  0  0  0  0
  7  3  2  0  0  0  0
  8  6  2  0  0  0  0
  9 10  1  0  0  0  0
  9 13  1  0  0  0  0
 10  2  2  0  0  0  0
 12 15  1  1  0  0  0
 13 12  1  0  0  0  0
 14 11  2  0  0  0  0
 15 16  1  0  0  0  0
 16 21  1  0  0  0  0
 17 22  1  0  0  0  0
 18 19  2  0  0  0  0
 20 17  2  0  0  0  0
 21 20  1  0  0  0  0
 21 23  2  0  0  0  0
 22 19  1  0  0  0  0
 23 18  1  0  0  0  0
 24 13  1  0  0  0  0
 25 26  1  0  0  0  0
 25 24  1  1  0  0  0
 26 28  1  6  0  0  0
 27 25  1  0  0  0  0
 27 26  1  0  0  0  0
 28 31  1  0  0  0  0
 28 29  1  1  0  0  0
 31 30  1  1  0  0  0
 31 35  1  0  0  0  0
 32 34  1  0  0  0  0
 32 31  1  0  0  0  0
 33 34  1  0  0  0  0
 35 36  1  0  0  0  0
 36 37  1  1  0  0  0
 36 38  1  0  0  0  0
 38 43  1  0  0  0  0
 40 41  1  0  0  0  0
 41 39  1  0  0  0  0
 42 38  1  0  0  0  0
 42 40  1  0  0  0  0
 43 39  1  0  0  0  0
M  END
>  <MODEL>
7

>  <REMARK>
 VINA RESULT:      -7.7      3.912      8.024
  Name = 
  12 active torsions:
  status: ('A' for Active; 'I' for Inactive)
    1  A    between atoms: C_1  and  O_28
    2  A    between atoms: C_1  and  C_34
    3  A    between atoms: C_2  and  C_13
    4  A    between atoms: C_4  and  C_12
    5  A    between atoms: C_4  and  C_15
    6  A    between atoms: C_4  and  N_22
    7  A    between atoms: C_6  and  C_12
    8  A    between atoms: C_11  and  C_14
    9  A    between atoms: C_13  and  N_38
   10  A    between atoms: C_14  and  N_22
   11  A    between atoms: C_15  and  C_42
   12  A    between atoms: O_28  and  C_35
                            x       y       z     vdW  Elec       q    Type
                         _______ _______ _______ _____ _____    ______ ____

>  <TORSDO>
F 12

$$$$
=
 OpenBabel11052416273D

 43 48  0  0  1  0  0  0  0  0999 V2000
  186.6830  178.2160  146.4710 C   0  0  0  0  0  0  0  0  0  0  0  0
  183.3160  178.6690  142.7800 C   0  0  0  0  0  0  0  0  0  0  0  0
  184.6540  178.6180  145.2120 C   0  0  0  0  0  0  0  0  0  0  0  0
  187.3550  177.8710  145.2920 C   0  0  0  0  0  3  0  0  0  0  0  0
  187.5350  178.1850  147.9990 Cl  0  0  0  0  0  0  0  0  0  0  0  0
  185.3360  178.2650  144.0180 C   0  0  0  0  0  0  0  0  0  0  0  0
  185.3360  178.5900  146.4310 C   0  0  0  0  0  3  0  0  0  0  0  0
  186.6840  177.8950  144.0640 C   0  0  0  0  0  3  0  0  0  0  0  0
  185.0880  178.0360  141.5230 N   0  0  0  0  0  2  0  0  0  0  0  0
  184.6200  178.3060  142.8230 C   0  0  0  0  0  0  0  0  0  0  0  0
  182.6150  179.0320  143.9320 C   0  0  0  0  0  3  0  0  0  0  0  0
  182.8730  178.6460  141.3580 C   0  0  1  0  0  3  0  0  0  0  0  0
  184.0610  178.2320  140.5760 N   0  0  0  0  0  0  0  0  0  0  0  0
  183.2980  179.0000  145.1610 C   0  0  0  0  0  3  0  0  0  0  0  0
  181.7610  177.6270  141.1740 C   0  0  0  0  0  2  0  0  0  0  0  0
  180.5350  178.2950  140.9080 O   0  0  0  0  0  0  0  0  0  0  0  0
  181.2320  179.8270  137.6210 C   0  0  0  0  0  3  0  0  0  0  0  0
  179.6590  181.6540  139.4850 C   0  0  0  0  0  3  0  0  0  0  0  0
  180.3600  181.9950  138.4040 C   0  0  0  0  0  3  0  0  0  0  0  0
  180.7570  178.9670  138.5210 C   0  0  0  0  0  3  0  0  0  0  0  0
  180.4110  179.2840  139.9300 C   0  0  0  0  0  0  0  0  0  0  0  0
  181.5640  181.2440  137.9450 C   0  0  0  0  0  2  0  0  0  0  0  0
  179.9050  180.4630  140.3220 C   0  0  0  0  0  3  0  0  0  0  0  0
  184.4500  179.3770  139.7560 C   0  0  0  0  0  2  0  0  0  0  0  0
  184.8680  178.9980  138.3280 C   0  0  1  0  0  3  0  0  0  0  0  0
  186.0560  178.0500  138.4030 C   0  0  1  0  0  3  0  0  0  0  0  0
  184.7020  177.5240  137.9740 C   0  0  0  0  0  2  0  0  0  0  0  0
  187.0260  178.1980  137.2140 C   0  0  1  0  0  3  0  0  0  0  0  0
  186.8440  179.4000  136.5130 O   0  0  0  0  0  1  0  0  0  0  0  0
  189.0820  179.3020  137.7770 O   0  0  0  0  0  1  0  0  0  0  0  0
  188.5010  178.0340  137.6310 C   0  0  1  0  0  0  0  0  0  0  0  0
  188.6010  177.2270  138.9440 C   0  0  0  0  0  2  0  0  0  0  0  0
  190.4250  177.1030  140.6470 C   0  0  0  0  0  1  0  0  0  0  0  0
  189.3010  177.9530  140.0880 C   0  0  0  0  0  2  0  0  0  0  0  0
  189.1920  177.2940  136.5680 N   0  0  0  0  0  2  0  0  0  0  0  0
  189.7170  176.0220  137.0670 C   0  0  1  0  0  3  0  0  0  0  0  0
  189.1490  174.9750  136.3380 O   0  0  0  0  0  1  0  0  0  0  0  0
  191.2380  175.9930  136.9260 C   0  0  0  0  0  3  0  0  0  0  0  0
  193.0190  175.4440  135.1510 C   0  0  0  0  0  2  0  0  0  0  0  0
  193.3590  174.7540  137.5530 C   0  0  0  0  0  2  0  0  0  0  0  0
  193.9380  175.5360  136.3660 C   0  0  0  0  0  2  0  0  0  0  0  0
  191.8250  174.7450  137.5900 C   0  0  0  0  0  2  0  0  0  0  0  0
  191.6450  176.0630  135.4430 C   0  0  0  0  0  2  0  0  0  0  0  0
  1  5  1  0  0  0  0
  2 10  2  0  0  0  0
  2 11  1  0  0  0  0
  3  7  2  0  0  0  0
  4  1  2  0  0  0  0
  6  8  2  0  0  0  0
  6  3  1  0  0  0  0
  7  1  1  0  0  0  0
  8  4  1  0  0  0  0
  9 10  1  0  0  0  0
 10  6  1  0  0  0  0
 11 14  2  0  0  0  0
 12 15  1  1  0  0  0
 12  2  1  0  0  0  0
 13 12  1  0  0  0  0
 13  9  1  0  0  0  0
 14  3  1  0  0  0  0
 16 15  1  0  0  0  0
 17 22  1  0  0  0  0
 17 20  2  0  0  0  0
 18 23  1  0  0  0  0
 19 18  2  0  0  0  0
 20 21  1  0  0  0  0
 21 23  2  0  0  0  0
 21 16  1  0  0  0  0
 22 19  1  0  0  0  0
 24 13  1  0  0  0  0
 25 26  1  0  0  0  0
 25 24  1  1  0  0  0
 26 28  1  6  0  0  0
 27 25  1  0  0  0  0
 27 26  1  0  0  0  0
 28 29  1  1  0  0  0
 28 31  1  0  0  0  0
 31 30  1  1  0  0  0
 31 32  1  0  0  0  0
 32 34  1  0  0  0  0
 34 33  1  0  0  0  0
 35 36  1  0  0  0  0
 35 31  1  0  0  0  0
 36 37  1  6  0  0  0
 38 36  1  0  0  0  0
 38 42  1  0  0  0  0
 39 43  1  0  0  0  0
 39 41  1  0  0  0  0
 40 42  1  0  0  0  0
 41 40  1  0  0  0  0
 43 38  1  0  0  0  0
M  END
>  <MODEL>
8

>  <REMARK>
 VINA RESULT:      -7.7      2.844      8.121
  Name = 
  12 active torsions:
  status: ('A' for Active; 'I' for Inactive)
    1  A    between atoms: C_1  and  O_28
    2  A    between atoms: C_1  and  C_34
    3  A    between atoms: C_2  and  C_13
    4  A    between atoms: C_4  and  C_12
    5  A    between atoms: C_4  and  C_15
    6  A    between atoms: C_4  and  N_22
    7  A    between atoms: C_6  and  C_12
    8  A    between atoms: C_11  and  C_14
    9  A    between atoms: C_13  and  N_38
   10  A    between atoms: C_14  and  N_22
   11  A    between atoms: C_15  and  C_42
   12  A    between atoms: O_28  and  C_35
                            x       y       z     vdW  Elec       q    Type
                         _______ _______ _______ _____ _____    ______ ____

>  <TORSDO>
F 12

$$$$
=
 OpenBabel11052416273D

 43 48  0  0  1  0  0  0  0  0999 V2000
  186.9230  177.9440  146.3700 C   0  0  0  0  0  0  0  0  0  0  0  0
  183.3940  178.7910  142.9070 C   0  0  0  0  0  0  0  0  0  0  0  0
  184.8580  178.5360  145.2520 C   0  0  0  0  0  0  0  0  0  0  0  0
  187.5040  177.6130  145.1390 C   0  0  0  0  0  3  0  0  0  0  0  0
  187.8540  177.7840  147.8420 Cl  0  0  0  0  0  0  0  0  0  0  0  0
  185.4480  178.1980  144.0050 C   0  0  0  0  0  0  0  0  0  0  0  0
  185.6030  178.4050  146.4260 C   0  0  0  0  0  3  0  0  0  0  0  0
  186.7690  177.7410  143.9550 C   0  0  0  0  0  3  0  0  0  0  0  0
  185.0470  178.1080  141.5210 N   0  0  0  0  0  2  0  0  0  0  0  0
  184.6710  178.3440  142.8570 C   0  0  0  0  0  0  0  0  0  0  0  0
  182.7840  179.1420  144.1130 C   0  0  0  0  0  3  0  0  0  0  0  0
  182.8720  178.8660  141.5140 C   0  0  1  0  0  3  0  0  0  0  0  0
  183.9850  178.4150  140.6460 N   0  0  0  0  0  0  0  0  0  0  0  0
  183.5310  179.0060  145.2980 C   0  0  0  0  0  3  0  0  0  0  0  0
  181.6860  177.9300  141.3500 C   0  0  0  0  0  2  0  0  0  0  0  0
  181.8530  177.1430  140.1780 O   0  0  0  0  0  0  0  0  0  0  0  0
  178.9710  174.8640  140.5550 C   0  0  0  0  0  3  0  0  0  0  0  0
  180.1250  174.8780  137.7360 C   0  0  0  0  0  3  0  0  0  0  0  0
  179.3460  173.9540  138.2960 C   0  0  0  0  0  3  0  0  0  0  0  0
  179.6730  175.9960  140.5460 C   0  0  0  0  0  3  0  0  0  0  0  0
  180.8670  176.2740  139.7070 C   0  0  0  0  0  0  0  0  0  0  0  0
  179.3530  173.6630  139.7590 C   0  0  0  0  0  2  0  0  0  0  0  0
  181.0280  175.7920  138.4650 C   0  0  0  0  0  3  0  0  0  0  0  0
  184.4030  179.5710  139.8570 C   0  0  0  0  0  2  0  0  0  0  0  0
  185.0030  179.2010  138.4920 C   0  0  1  0  0  3  0  0  0  0  0  0
  186.0030  178.0720  138.6890 C   0  0  1  0  0  3  0  0  0  0  0  0
  184.6810  177.7920  138.0040 C   0  0  0  0  0  2  0  0  0  0  0  0
  187.1770  178.1210  137.6910 C   0  0  1  0  0  3  0  0  0  0  0  0
  187.1090  179.2260  136.8280 O   0  0  0  0  0  1  0  0  0  0  0  0
  189.0530  179.3680  138.5210 O   0  0  0  0  0  1  0  0  0  0  0  0
  188.5500  178.0660  138.3900 C   0  0  1  0  0  0  0  0  0  0  0  0
  188.4220  177.3810  139.7680 C   0  0  0  0  0  2  0  0  0  0  0  0
  190.2950  177.4250  141.4220 C   0  0  0  0  0  1  0  0  0  0  0  0
  189.0600  178.1470  140.9230 C   0  0  0  0  0  2  0  0  0  0  0  0
  189.4530  177.2700  137.5490 N   0  0  0  0  0  2  0  0  0  0  0  0
  189.4510  175.8640  137.9570 C   0  0  1  0  0  3  0  0  0  0  0  0
  188.6530  175.1330  137.0750 O   0  0  0  0  0  1  0  0  0  0  0  0
  190.8770  175.3150  137.9490 C   0  0  0  0  0  3  0  0  0  0  0  0
  193.2930  176.1730  137.7220 C   0  0  0  0  0  2  0  0  0  0  0  0
  192.5960  174.0170  136.6140 C   0  0  0  0  0  2  0  0  0  0  0  0
  193.5750  174.6780  137.5940 C   0  0  0  0  0  2  0  0  0  0  0  0
  191.2070  174.6690  136.6020 C   0  0  0  0  0  2  0  0  0  0  0  0
  191.8860  176.4290  138.2820 C   0  0  0  0  0  2  0  0  0  0  0  0
  1  7  1  0  0  0  0
  1  5  1  0  0  0  0
  2 11  1  0  0  0  0
  3 14  1  0  0  0  0
  3  7  2  0  0  0  0
  4  1  2  0  0  0  0
  6  3  1  0  0  0  0
  8  6  2  0  0  0  0
  8  4  1  0  0  0  0
  9 10  1  0  0  0  0
 10  2  2  0  0  0  0
 10  6  1  0  0  0  0
 11 14  2  0  0  0  0
 12 15  1  1  0  0  0
 12  2  1  0  0  0  0
 13 12  1  0  0  0  0
 13  9  1  0  0  0  0
 16 15  1  0  0  0  0
 18 19  2  0  0  0  0
 18 23  1  0  0  0  0
 19 22  1  0  0  0  0
 20 17  2  0  0  0  0
 21 16  1  0  0  0  0
 21 20  1  0  0  0  0
 22 17  1  0  0  0  0
 23 21  2  0  0  0  0
 24 13  1  0  0  0  0
 25 26  1  0  0  0  0
 25 24  1  1  0  0  0
 26 28  1  6  0  0  0
 27 25  1  0  0  0  0
 27 26  1  0  0  0  0
 28 29  1  1  0  0  0
 28 31  1  0  0  0  0
 31 30  1  1  0  0  0
 31 32  1  0  0  0  0
 32 34  1  0  0  0  0
 34 33  1  0  0  0  0
 35 36  1  0  0  0  0
 35 31  1  0  0  0  0
 36 37  1  6  0  0  0
 38 36  1  0  0  0  0
 38 43  1  0  0  0  0
 39 43  1  0  0  0  0
 40 41  1  0  0  0  0
 41 39  1  0  0  0  0
 42 40  1  0  0  0  0
 42 38  1  0  0  0  0
M  END
>  <MODEL>
9

>  <REMARK>
 VINA RESULT:      -7.7      3.438      8.253
  Name = 
  12 active torsions:
  status: ('A' for Active; 'I' for Inactive)
    1  A    between atoms: C_1  and  O_28
    2  A    between atoms: C_1  and  C_34
    3  A    between atoms: C_2  and  C_13
    4  A    between atoms: C_4  and  C_12
    5  A    between atoms: C_4  and  C_15
    6  A    between atoms: C_4  and  N_22
    7  A    between atoms: C_6  and  C_12
    8  A    between atoms: C_11  and  C_14
    9  A    between atoms: C_13  and  N_38
   10  A    between atoms: C_14  and  N_22
   11  A    between atoms: C_15  and  C_42
   12  A    between atoms: O_28  and  C_35
                            x       y       z     vdW  Elec       q    Type
                         _______ _______ _______ _____ _____    ______ ____

>  <TORSDO>
F 12

$$$$
