=
 OpenBabel11052413383D

 27 31  0  0  1  0  0  0  0  0999 V2000
  189.6780  175.4820  142.8200 S   0  0  0  0  0  0  0  0  0  0  0  0
  188.4910  177.8440  141.7030 C   0  0  2  0  0  3  0  0  0  0  0  0
  187.6180  176.7090  144.6510 N   0  0  0  0  0  2  0  0  0  0  0  0
  185.2420  179.1650  142.2820 N   0  0  0  0  0  0  0  0  0  0  0  0
  183.3290  179.4240  144.2320 Cl  0  0  0  0  0  0  0  0  0  0  0  0
  188.1650  178.5910  140.3930 C   0  0  0  0  0  2  0  0  0  0  0  0
  185.7920  178.2900  144.4590 C   0  0  0  0  0  0  0  0  0  0  0  0
  190.6440  177.9990  146.6010 C   0  0  0  0  0  2  0  0  0  0  0  0
  185.4930  178.1250  145.9170 C   0  0  0  0  0  1  0  0  0  0  0  0
  191.6530  178.0390  145.4460 C   0  0  0  0  0  2  0  0  0  0  0  0
  187.1690  177.9040  143.9370 C   0  0  2  0  0  3  0  0  0  0  0  0
  189.2470  176.5350  141.3810 C   0  0  1  0  0  3  0  0  0  0  0  0
  184.8980  178.8830  143.6450 C   0  0  0  0  0  0  0  0  0  0  0  0
  186.2760  178.6170  141.7250 C   0  0  0  0  0  0  0  0  0  0  0  0
  190.0000  176.8660  143.9640 C   0  0  2  0  0  3  0  0  0  0  0  0
  187.1430  177.6280  142.4150 C   0  0  1  0  0  3  0  0  0  0  0  0
  189.2090  178.0050  146.0770 C   0  0  0  0  0  2  0  0  0  0  0  0
  186.8190  179.1090  140.5230 N   0  0  0  0  0  2  0  0  0  0  0  0
  191.4410  176.8680  144.4840 C   0  0  2  0  0  3  0  0  0  0  0  0
  191.7540  175.6580  145.1130 O   0  0  0  0  0  1  0  0  0  0  0  0
  189.0020  176.8280  145.1200 C   0  0  1  0  0  3  0  0  0  0  0  0
  192.7650  177.1070  138.9670 C   0  0  0  0  0  3  0  0  0  0  0  0
  190.4750  176.7610  140.5490 C   0  0  0  0  0  0  0  0  0  0  0  0
  190.5020  176.2850  139.2330 C   0  0  0  0  0  3  0  0  0  0  0  0
  191.6410  176.4620  138.4420 C   0  0  0  0  0  3  0  0  0  0  0  0
  192.7460  177.5810  140.2820 C   0  0  0  0  0  3  0  0  0  0  0  0
  191.6040  177.4120  141.0740 C   0  0  0  0  0  3  0  0  0  0  0  0
  2  6  1  6  0  0  0
  2 16  1  0  0  0  0
  3 21  1  0  0  0  0
  4 13  1  0  0  0  0
  6 18  1  0  0  0  0
  7  9  1  0  0  0  0
 10  8  1  0  0  0  0
 11  7  1  1  0  0  0
 11  3  1  0  0  0  0
 12 23  1  1  0  0  0
 12  2  1  0  0  0  0
 12  1  1  0  0  0  0
 13  5  1  0  0  0  0
 13  7  2  0  0  0  0
 14  4  2  0  0  0  0
 15  1  1  6  0  0  0
 15 19  1  0  0  0  0
 15 21  1  0  0  0  0
 16 14  1  6  0  0  0
 16 11  1  0  0  0  0
 17  8  1  0  0  0  0
 18 14  1  0  0  0  0
 19 20  1  1  0  0  0
 19 10  1  0  0  0  0
 21 17  1  6  0  0  0
 22 26  1  0  0  0  0
 23 27  1  0  0  0  0
 24 23  2  0  0  0  0
 25 22  2  0  0  0  0
 25 24  1  0  0  0  0
 26 27  2  0  0  0  0
M  END
>  <MODEL>
1

>  <REMARK>
 VINA RESULT:      -7.7      0.000      0.000
  Name = 
  1 active torsions:
  status: ('A' for Active; 'I' for Inactive)
    1  A    between atoms: C_9  and  C_15
                            x       y       z     vdW  Elec       q    Type
                         _______ _______ _______ _____ _____    ______ ____

>  <TORSDO>
F 1

$$$$
=
 OpenBabel11052413383D

 27 31  0  0  1  0  0  0  0  0999 V2000
  189.3190  178.0960  136.9300 S   0  0  0  0  0  0  0  0  0  0  0  0
  189.1680  177.0460  139.5960 C   0  0  2  0  0  3  0  0  0  0  0  0
  186.6840  178.7190  138.2640 N   0  0  0  0  0  2  0  0  0  0  0  0
  187.2980  178.2860  142.3530 N   0  0  0  0  0  0  0  0  0  0  0  0
  184.9360  179.5360  142.9770 Cl  0  0  0  0  0  0  0  0  0  0  0  0
  189.9910  176.6000  140.8230 C   0  0  0  0  0  2  0  0  0  0  0  0
  185.8040  178.7510  140.5210 C   0  0  0  0  0  0  0  0  0  0  0  0
  185.3150  175.9100  136.0590 C   0  0  0  0  0  2  0  0  0  0  0  0
  184.4730  179.1970  139.9970 C   0  0  0  0  0  1  0  0  0  0  0  0
  186.6120  175.1100  135.8860 C   0  0  0  0  0  2  0  0  0  0  0  0
  186.7830  178.0730  139.5730 C   0  0  2  0  0  3  0  0  0  0  0  0
  190.1210  177.4830  138.4610 C   0  0  1  0  0  3  0  0  0  0  0  0
  186.0810  178.8400  141.8360 C   0  0  0  0  0  0  0  0  0  0  0  0
  188.2710  177.9540  141.5650 C   0  0  0  0  0  0  0  0  0  0  0  0
  187.8980  176.9550  137.0030 C   0  0  2  0  0  3  0  0  0  0  0  0
  188.2370  178.1660  140.0960 C   0  0  1  0  0  3  0  0  0  0  0  0
  185.3900  176.8190  137.2840 C   0  0  0  0  0  2  0  0  0  0  0  0
  189.3250  177.1260  141.9960 N   0  0  0  0  0  2  0  0  0  0  0  0
  187.8260  176.0360  135.7800 C   0  0  2  0  0  3  0  0  0  0  0  0
  187.7710  176.7760  134.5940 O   0  0  0  0  0  1  0  0  0  0  0  0
  186.6020  177.7470  137.1690 C   0  0  1  0  0  3  0  0  0  0  0  0
  193.0410  174.5060  137.3950 C   0  0  0  0  0  3  0  0  0  0  0  0
  191.1240  176.4250  138.1030 C   0  0  0  0  0  0  0  0  0  0  0  0
  192.4880  176.7190  138.2080 C   0  0  0  0  0  3  0  0  0  0  0  0
  193.4450  175.7610  137.8600 C   0  0  0  0  0  3  0  0  0  0  0  0
  191.6800  174.2070  137.2840 C   0  0  0  0  0  3  0  0  0  0  0  0
  190.7200  175.1630  137.6380 C   0  0  0  0  0  3  0  0  0  0  0  0
  1 12  1  0  0  0  0
  2 16  1  0  0  0  0
  2  6  1  1  0  0  0
  6 18  1  0  0  0  0
  7 13  2  0  0  0  0
  8 17  1  0  0  0  0
  9  7  1  0  0  0  0
 10  8  1  0  0  0  0
 11  3  1  6  0  0  0
 11 16  1  0  0  0  0
 11  7  1  0  0  0  0
 12 23  1  6  0  0  0
 12  2  1  0  0  0  0
 13  4  1  0  0  0  0
 13  5  1  0  0  0  0
 14 18  1  0  0  0  0
 14  4  2  0  0  0  0
 15  1  1  6  0  0  0
 15 21  1  0  0  0  0
 16 14  1  1  0  0  0
 19 20  1  6  0  0  0
 19 10  1  0  0  0  0
 19 15  1  0  0  0  0
 21 17  1  1  0  0  0
 21  3  1  0  0  0  0
 22 25  1  0  0  0  0
 23 24  1  0  0  0  0
 25 24  2  0  0  0  0
 26 22  2  0  0  0  0
 26 27  1  0  0  0  0
 27 23  2  0  0  0  0
M  END
>  <MODEL>
2

>  <REMARK>
 VINA RESULT:      -7.3      3.652      6.046
  Name = 
  1 active torsions:
  status: ('A' for Active; 'I' for Inactive)
    1  A    between atoms: C_9  and  C_15
                            x       y       z     vdW  Elec       q    Type
                         _______ _______ _______ _____ _____    ______ ____

>  <TORSDO>
F 1

$$$$
=
 OpenBabel11052413383D

 27 31  0  0  1  0  0  0  0  0999 V2000
  190.2970  178.9980  143.3480 S   0  0  0  0  0  0  0  0  0  0  0  0
  188.1020  177.4650  144.3790 C   0  0  2  0  0  3  0  0  0  0  0  0
  187.8560  179.1540  141.5820 N   0  0  0  0  0  2  0  0  0  0  0  0
  184.6190  178.0240  143.9330 N   0  0  0  0  0  0  0  0  0  0  0  0
  182.7950  178.9470  142.1040 Cl  0  0  0  0  0  0  0  0  0  0  0  0
  187.4720  176.8670  145.6550 C   0  0  0  0  0  2  0  0  0  0  0  0
  185.4860  178.7000  141.7890 C   0  0  0  0  0  0  0  0  0  0  0  0
  189.7600  176.7020  139.3480 C   0  0  0  0  0  2  0  0  0  0  0  0
  185.2770  179.1290  140.3690 C   0  0  0  0  0  1  0  0  0  0  0  0
  190.6360  176.0520  140.4260 C   0  0  0  0  0  2  0  0  0  0  0  0
  186.8790  178.2880  142.2410 C   0  0  2  0  0  3  0  0  0  0  0  0
  189.4250  178.1780  144.7380 C   0  0  1  0  0  3  0  0  0  0  0  0
  184.4340  178.5660  142.6190 C   0  0  0  0  0  0  0  0  0  0  0  0
  185.8010  177.9200  144.4540 C   0  0  0  0  0  0  0  0  0  0  0  0
  189.8440  177.7540  142.0940 C   0  0  2  0  0  3  0  0  0  0  0  0
  187.0330  178.3970  143.7770 C   0  0  1  0  0  3  0  0  0  0  0  0
  188.5340  177.3720  139.9660 C   0  0  0  0  0  2  0  0  0  0  0  0
  186.0470  177.1130  145.5810 N   0  0  0  0  0  2  0  0  0  0  0  0
  191.0710  177.0750  141.4790 C   0  0  2  0  0  3  0  0  0  0  0  0
  191.9400  178.0140  140.9130 O   0  0  0  0  0  1  0  0  0  0  0  0
  188.9770  178.3980  141.0130 C   0  0  1  0  0  3  0  0  0  0  0  0
  192.2090  175.6860  146.8760 C   0  0  0  0  0  3  0  0  0  0  0  0
  190.3870  177.2870  145.4680 C   0  0  0  0  0  0  0  0  0  0  0  0
  190.4940  177.3970  146.8590 C   0  0  0  0  0  3  0  0  0  0  0  0
  191.3980  176.5960  147.5630 C   0  0  0  0  0  3  0  0  0  0  0  0
  192.1090  175.5740  145.4860 C   0  0  0  0  0  3  0  0  0  0  0  0
  191.2000  176.3710  144.7800 C   0  0  0  0  0  3  0  0  0  0  0  0
  1 12  1  0  0  0  0
  2 12  1  0  0  0  0
  2  6  1  1  0  0  0
  4 14  2  0  0  0  0
  5 13  1  0  0  0  0
  7 11  1  0  0  0  0
  7 13  2  0  0  0  0
  8 17  1  0  0  0  0
  8 10  1  0  0  0  0
  9  7  1  0  0  0  0
 10 19  1  0  0  0  0
 11  3  1  6  0  0  0
 11 16  1  0  0  0  0
 12 23  1  6  0  0  0
 13  4  1  0  0  0  0
 14 18  1  0  0  0  0
 15  1  1  1  0  0  0
 16  2  1  0  0  0  0
 16 14  1  1  0  0  0
 18  6  1  0  0  0  0
 19 20  1  6  0  0  0
 19 15  1  0  0  0  0
 21 17  1  6  0  0  0
 21  3  1  0  0  0  0
 21 15  1  0  0  0  0
 22 25  1  0  0  0  0
 23 24  1  0  0  0  0
 24 25  2  0  0  0  0
 26 22  2  0  0  0  0
 27 23  2  0  0  0  0
 27 26  1  0  0  0  0
M  END
>  <MODEL>
3

>  <REMARK>
 VINA RESULT:      -6.8      1.812      4.842
  Name = 
  1 active torsions:
  status: ('A' for Active; 'I' for Inactive)
    1  A    between atoms: C_9  and  C_15
                            x       y       z     vdW  Elec       q    Type
                         _______ _______ _______ _____ _____    ______ ____

>  <TORSDO>
F 1

$$$$
=
 OpenBabel11052413383D

 27 31  0  0  1  0  0  0  0  0999 V2000
  188.8440  179.0030  140.0460 S   0  0  0  0  0  0  0  0  0  0  0  0
  186.9190  177.8980  141.8640 C   0  0  2  0  0  3  0  0  0  0  0  0
  186.0550  178.9840  138.8950 N   0  0  0  0  0  2  0  0  0  0  0  0
  183.4490  178.6280  142.1150 N   0  0  0  0  0  0  0  0  0  0  0  0
  181.2640  179.2950  140.5940 Cl  0  0  0  0  0  0  0  0  0  0  0  0
  186.5980  177.6290  143.3500 C   0  0  0  0  0  2  0  0  0  0  0  0
  183.7920  178.7740  139.7340 C   0  0  0  0  0  0  0  0  0  0  0  0
  187.2950  175.9770  136.8830 C   0  0  0  0  0  2  0  0  0  0  0  0
  183.2600  178.9130  138.3410 C   0  0  0  0  0  1  0  0  0  0  0  0
  188.3850  175.4970  137.8480 C   0  0  0  0  0  2  0  0  0  0  0  0
  185.2410  178.3540  139.9350 C   0  0  2  0  0  3  0  0  0  0  0  0
  188.3090  178.5610  141.7440 C   0  0  1  0  0  3  0  0  0  0  0  0
  182.9680  178.8990  140.7920 C   0  0  0  0  0  0  0  0  0  0  0  0
  184.7180  178.5410  142.3620 C   0  0  0  0  0  0  0  0  0  0  0  0
  188.0670  177.5660  139.2350 C   0  0  2  0  0  3  0  0  0  0  0  0
  185.7640  178.7660  141.3320 C   0  0  1  0  0  3  0  0  0  0  0  0
  186.2730  176.8570  137.6010 C   0  0  0  0  0  2  0  0  0  0  0  0
  185.2050  177.9680  143.5510 N   0  0  0  0  0  2  0  0  0  0  0  0
  189.0900  176.6780  138.5210 C   0  0  2  0  0  3  0  0  0  0  0  0
  189.8240  177.4070  137.5790 O   0  0  0  0  0  1  0  0  0  0  0  0
  186.9840  178.0390  138.2670 C   0  0  1  0  0  3  0  0  0  0  0  0
  191.4720  176.3400  143.6400 C   0  0  0  0  0  3  0  0  0  0  0  0
  189.3930  177.7670  142.4130 C   0  0  0  0  0  0  0  0  0  0  0  0
  190.3320  178.4330  143.2080 C   0  0  0  0  0  3  0  0  0  0  0  0
  191.3660  177.7220  143.8250 C   0  0  0  0  0  3  0  0  0  0  0  0
  190.5390  175.6690  142.8430 C   0  0  0  0  0  3  0  0  0  0  0  0
  189.4990  176.3780  142.2310 C   0  0  0  0  0  3  0  0  0  0  0  0
  1 12  1  0  0  0  0
  2  6  1  1  0  0  0
  4 14  2  0  0  0  0
  5 13  1  0  0  0  0
  6 18  1  0  0  0  0
  7 11  1  0  0  0  0
  7 13  2  0  0  0  0
  8 17  1  0  0  0  0
  8 10  1  0  0  0  0
  9  7  1  0  0  0  0
 10 19  1  0  0  0  0
 11  3  1  6  0  0  0
 11 16  1  0  0  0  0
 12  2  1  0  0  0  0
 12 23  1  6  0  0  0
 13  4  1  0  0  0  0
 14 18  1  0  0  0  0
 15  1  1  6  0  0  0
 16  2  1  0  0  0  0
 16 14  1  1  0  0  0
 19 20  1  6  0  0  0
 19 15  1  0  0  0  0
 21 17  1  1  0  0  0
 21  3  1  0  0  0  0
 21 15  1  0  0  0  0
 22 25  1  0  0  0  0
 23 24  1  0  0  0  0
 24 25  2  0  0  0  0
 26 22  2  0  0  0  0
 27 23  2  0  0  0  0
 27 26  1  0  0  0  0
M  END
>  <MODEL>
4

>  <REMARK>
 VINA RESULT:      -6.7      2.865      5.433
  Name = 
  1 active torsions:
  status: ('A' for Active; 'I' for Inactive)
    1  A    between atoms: C_9  and  C_15
                            x       y       z     vdW  Elec       q    Type
                         _______ _______ _______ _____ _____    ______ ____

>  <TORSDO>
F 1

$$$$
=
 OpenBabel11052413383D

 27 31  0  0  1  0  0  0  0  0999 V2000
  187.4850  179.5510  141.1130 S   0  0  0  0  0  0  0  0  0  0  0  0
  188.3630  177.2260  142.5470 C   0  0  2  0  0  3  0  0  0  0  0  0
  186.3080  179.3980  143.8870 N   0  0  0  0  0  2  0  0  0  0  0  0
  188.7280  176.8050  146.0580 N   0  0  0  0  0  0  0  0  0  0  0  0
  187.6200  177.5600  148.4520 Cl  0  0  0  0  0  0  0  0  0  0  0  0
  189.4830  176.1710  142.6720 C   0  0  0  0  0  2  0  0  0  0  0  0
  186.7770  178.2170  145.9500 C   0  0  0  0  0  0  0  0  0  0  0  0
  183.1320  178.2590  142.0870 C   0  0  0  0  0  2  0  0  0  0  0  0
  185.6170  178.8990  146.6070 C   0  0  0  0  0  1  0  0  0  0  0  0
  183.7870  177.6570  140.8380 C   0  0  0  0  0  2  0  0  0  0  0  0
  186.8300  178.1440  144.4310 C   0  0  2  0  0  3  0  0  0  0  0  0
  188.6850  178.1910  141.3840 C   0  0  1  0  0  3  0  0  0  0  0  0
  187.6980  177.5730  146.6940 C   0  0  0  0  0  0  0  0  0  0  0  0
  188.9760  176.9360  144.7930 C   0  0  0  0  0  0  0  0  0  0  0  0
  186.0090  178.5780  141.5610 C   0  0  2  0  0  3  0  0  0  0  0  0
  188.2730  177.9120  143.9220 C   0  0  1  0  0  3  0  0  0  0  0  0
  184.1300  178.3560  143.2380 C   0  0  0  0  0  2  0  0  0  0  0  0
  189.7390  175.9890  144.0850 N   0  0  0  0  0  2  0  0  0  0  0  0
  185.0100  178.4710  140.4050 C   0  0  2  0  0  3  0  0  0  0  0  0
  184.6170  179.7360  139.9570 O   0  0  0  0  0  1  0  0  0  0  0  0
  185.3470  179.1770  142.8020 C   0  0  1  0  0  3  0  0  0  0  0  0
  189.4490  176.1840  137.6530 C   0  0  0  0  0  3  0  0  0  0  0  0
  188.9260  177.4790  140.0850 C   0  0  0  0  0  0  0  0  0  0  0  0
  190.1710  176.8830  139.8570 C   0  0  0  0  0  3  0  0  0  0  0  0
  190.4320  176.2320  138.6480 C   0  0  0  0  0  3  0  0  0  0  0  0
  188.2040  176.7810  137.8740 C   0  0  0  0  0  3  0  0  0  0  0  0
  187.9390  177.4270  139.0870 C   0  0  0  0  0  3  0  0  0  0  0  0
  1 12  1  0  0  0  0
  2  6  1  1  0  0  0
  2 16  1  0  0  0  0
  4 13  1  0  0  0  0
  6 18  1  0  0  0  0
  7  9  1  0  0  0  0
  7 13  2  0  0  0  0
  8 17  1  0  0  0  0
 10  8  1  0  0  0  0
 11  3  1  6  0  0  0
 11  7  1  0  0  0  0
 12 23  1  6  0  0  0
 12  2  1  0  0  0  0
 13  5  1  0  0  0  0
 14  4  2  0  0  0  0
 15  1  1  6  0  0  0
 15 21  1  0  0  0  0
 16 11  1  0  0  0  0
 16 14  1  1  0  0  0
 18 14  1  0  0  0  0
 19 20  1  1  0  0  0
 19 10  1  0  0  0  0
 19 15  1  0  0  0  0
 21 17  1  1  0  0  0
 21  3  1  0  0  0  0
 22 26  2  0  0  0  0
 22 25  1  0  0  0  0
 24 23  1  0  0  0  0
 25 24  2  0  0  0  0
 26 27  1  0  0  0  0
 27 23  2  0  0  0  0
M  END
>  <MODEL>
5

>  <REMARK>
 VINA RESULT:      -6.3      2.934      4.949
  Name = 
  1 active torsions:
  status: ('A' for Active; 'I' for Inactive)
    1  A    between atoms: C_9  and  C_15
                            x       y       z     vdW  Elec       q    Type
                         _______ _______ _______ _____ _____    ______ ____

>  <TORSDO>
F 1

$$$$
=
 OpenBabel11052413383D

 27 31  0  0  1  0  0  0  0  0999 V2000
  187.2480  176.2600  143.9520 S   0  0  0  0  0  0  0  0  0  0  0  0
  189.7070  177.7360  144.0150 C   0  0  2  0  0  3  0  0  0  0  0  0
  188.3960  176.6990  141.1970 N   0  0  0  0  0  2  0  0  0  0  0  0
  192.4200  177.6030  141.7220 N   0  0  0  0  0  0  0  0  0  0  0  0
  192.9850  177.2520  139.0600 Cl  0  0  0  0  0  0  0  0  0  0  0  0
  190.9310  178.1100  144.8790 C   0  0  0  0  0  2  0  0  0  0  0  0
  190.5370  177.3130  140.2450 C   0  0  0  0  0  0  0  0  0  0  0  0
  185.6870  179.3810  140.8890 C   0  0  0  0  0  2  0  0  0  0  0  0
  189.9570  177.2120  138.8680 C   0  0  0  0  0  1  0  0  0  0  0  0
  185.5270  179.7090  142.3790 C   0  0  0  0  0  2  0  0  0  0  0  0
  189.6020  177.4930  141.4320 C   0  0  2  0  0  3  0  0  0  0  0  0
  188.7450  176.8470  144.8350 C   0  0  1  0  0  3  0  0  0  0  0  0
  191.8720  177.3660  140.4180 C   0  0  0  0  0  0  0  0  0  0  0  0
  191.6900  177.4870  142.7860 C   0  0  0  0  0  0  0  0  0  0  0  0
  187.0180  177.7740  142.9630 C   0  0  2  0  0  3  0  0  0  0  0  0
  190.2710  177.0520  142.7560 C   0  0  1  0  0  3  0  0  0  0  0  0
  187.0310  178.7110  140.6150 C   0  0  0  0  0  2  0  0  0  0  0  0
  192.0970  178.0150  144.0260 N   0  0  0  0  0  2  0  0  0  0  0  0
  185.6730  178.4530  143.2420 C   0  0  2  0  0  3  0  0  0  0  0  0
  184.6070  177.5780  143.0120 O   0  0  0  0  0  1  0  0  0  0  0  0
  187.1690  177.4520  141.4770 C   0  0  1  0  0  3  0  0  0  0  0  0
  187.6020  178.5800  148.6060 C   0  0  0  0  0  3  0  0  0  0  0  0
  188.3370  177.4750  146.1350 C   0  0  0  0  0  0  0  0  0  0  0  0
  189.2010  177.3860  147.2330 C   0  0  0  0  0  3  0  0  0  0  0  0
  188.8380  177.9410  148.4640 C   0  0  0  0  0  3  0  0  0  0  0  0
  186.7330  178.6680  147.5140 C   0  0  0  0  0  3  0  0  0  0  0  0
  187.0970  178.1190  146.2790 C   0  0  0  0  0  3  0  0  0  0  0  0
  1 12  1  0  0  0  0
  2 12  1  0  0  0  0
  2  6  1  1  0  0  0
  3 11  1  0  0  0  0
  3 21  1  0  0  0  0
  4 14  2  0  0  0  0
  5 13  1  0  0  0  0
  7 13  2  0  0  0  0
  8 10  1  0  0  0  0
  9  7  1  0  0  0  0
 10 19  1  0  0  0  0
 11  7  1  6  0  0  0
 11 16  1  0  0  0  0
 12 23  1  1  0  0  0
 13  4  1  0  0  0  0
 14 18  1  0  0  0  0
 15 19  1  0  0  0  0
 15  1  1  1  0  0  0
 16 14  1  6  0  0  0
 16  2  1  0  0  0  0
 17  8  1  0  0  0  0
 18  6  1  0  0  0  0
 19 20  1  6  0  0  0
 21 17  1  6  0  0  0
 21 15  1  0  0  0  0
 23 27  2  0  0  0  0
 23 24  1  0  0  0  0
 24 25  2  0  0  0  0
 25 22  1  0  0  0  0
 26 22  2  0  0  0  0
 27 26  1  0  0  0  0
M  END
>  <MODEL>
6

>  <REMARK>
 VINA RESULT:      -6.0      3.316      6.821
  Name = 
  1 active torsions:
  status: ('A' for Active; 'I' for Inactive)
    1  A    between atoms: C_9  and  C_15
                            x       y       z     vdW  Elec       q    Type
                         _______ _______ _______ _____ _____    ______ ____

>  <TORSDO>
F 1

$$$$
=
 OpenBabel11052413383D

 27 31  0  0  1  0  0  0  0  0999 V2000
  187.4310  179.8330  142.0930 S   0  0  0  0  0  0  0  0  0  0  0  0
  185.3680  178.1770  140.9810 C   0  0  2  0  0  3  0  0  0  0  0  0
  188.1290  178.8220  139.3370 N   0  0  0  0  0  2  0  0  0  0  0  0
  184.5510  177.6710  137.5580 N   0  0  0  0  0  0  0  0  0  0  0  0
  185.6870  177.5030  135.0660 Cl  0  0  0  0  0  0  0  0  0  0  0  0
  183.8590  177.8520  141.0120 C   0  0  0  0  0  2  0  0  0  0  0  0
  186.9510  177.8650  137.4480 C   0  0  0  0  0  0  0  0  0  0  0  0
  190.4040  176.3780  141.2020 C   0  0  0  0  0  2  0  0  0  0  0  0
  188.2380  177.7770  136.6880 C   0  0  0  0  0  1  0  0  0  0  0  0
  189.6370  176.3290  142.5290 C   0  0  0  0  0  2  0  0  0  0  0  0
  186.9930  177.9770  138.9660 C   0  0  2  0  0  3  0  0  0  0  0  0
  185.6850  179.2770  142.0200 C   0  0  1  0  0  3  0  0  0  0  0  0
  185.7730  177.7250  136.8100 C   0  0  0  0  0  0  0  0  0  0  0  0
  184.5100  178.0340  138.8020 C   0  0  0  0  0  0  0  0  0  0  0  0
  188.1540  178.1960  141.7410 C   0  0  2  0  0  3  0  0  0  0  0  0
  185.6840  178.5800  139.5280 C   0  0  1  0  0  3  0  0  0  0  0  0
  189.5060  176.8690  140.0670 C   0  0  0  0  0  2  0  0  0  0  0  0
  183.4310  177.6940  139.6380 N   0  0  0  0  0  2  0  0  0  0  0  0
  189.0480  177.6970  142.8810 C   0  0  2  0  0  3  0  0  0  0  0  0
  190.0700  178.6100  143.1590 O   0  0  0  0  0  1  0  0  0  0  0  0
  188.9250  178.2400  140.4220 C   0  0  1  0  0  3  0  0  0  0  0  0
  184.3210  178.3380  145.9930 C   0  0  0  0  0  3  0  0  0  0  0  0
  185.2200  178.9230  143.4020 C   0  0  0  0  0  0  0  0  0  0  0  0
  183.9340  179.2990  143.8040 C   0  0  0  0  0  3  0  0  0  0  0  0
  183.4820  179.0030  145.0940 C   0  0  0  0  0  3  0  0  0  0  0  0
  185.6090  177.9630  145.5990 C   0  0  0  0  0  3  0  0  0  0  0  0
  186.0610  178.2520  144.3060 C   0  0  0  0  0  3  0  0  0  0  0  0
  2  6  1  6  0  0  0
  2 12  1  0  0  0  0
  3 21  1  0  0  0  0
  4 14  2  0  0  0  0
  5 13  1  0  0  0  0
  8 10  1  0  0  0  0
  9  7  1  0  0  0  0
 10 19  1  0  0  0  0
 11  7  1  6  0  0  0
 11  3  1  0  0  0  0
 11 16  1  0  0  0  0
 12  1  1  0  0  0  0
 12 23  1  1  0  0  0
 13  7  2  0  0  0  0
 13  4  1  0  0  0  0
 14 18  1  0  0  0  0
 15  1  1  1  0  0  0
 15 19  1  0  0  0  0
 16 14  1  6  0  0  0
 16  2  1  0  0  0  0
 17  8  1  0  0  0  0
 18  6  1  0  0  0  0
 19 20  1  6  0  0  0
 21 17  1  6  0  0  0
 21 15  1  0  0  0  0
 23 24  2  0  0  0  0
 23 27  1  0  0  0  0
 24 25  1  0  0  0  0
 25 22  2  0  0  0  0
 26 22  1  0  0  0  0
 27 26  2  0  0  0  0
M  END
>  <MODEL>
7

>  <REMARK>
 VINA RESULT:      -5.9      3.197      6.379
  Name = 
  1 active torsions:
  status: ('A' for Active; 'I' for Inactive)
    1  A    between atoms: C_9  and  C_15
                            x       y       z     vdW  Elec       q    Type
                         _______ _______ _______ _____ _____    ______ ____

>  <TORSDO>
F 1

$$$$
=
 OpenBabel11052413383D

 27 31  0  0  1  0  0  0  0  0999 V2000
  189.1060  176.2180  141.7370 S   0  0  0  0  0  0  0  0  0  0  0  0
  187.1270  178.2760  142.0330 C   0  0  2  0  0  3  0  0  0  0  0  0
  188.4310  176.7570  144.6280 N   0  0  0  0  0  2  0  0  0  0  0  0
  184.7500  178.6910  144.6430 N   0  0  0  0  0  0  0  0  0  0  0  0
  184.4170  178.3250  147.3420 Cl  0  0  0  0  0  0  0  0  0  0  0  0
  185.9550  179.0050  141.3430 C   0  0  0  0  0  2  0  0  0  0  0  0
  186.6460  177.8360  145.8610 C   0  0  0  0  0  0  0  0  0  0  0  0
  191.7640  178.6320  144.6820 C   0  0  0  0  0  2  0  0  0  0  0  0
  187.3310  177.5010  147.1500 C   0  0  0  0  0  1  0  0  0  0  0  0
  191.8350  179.0040  143.1960 C   0  0  0  0  0  2  0  0  0  0  0  0
  187.4560  177.8470  144.5730 C   0  0  2  0  0  3  0  0  0  0  0  0
  187.7250  177.2250  141.0700 C   0  0  1  0  0  3  0  0  0  0  0  0
  185.3610  178.2390  145.8590 C   0  0  0  0  0  0  0  0  0  0  0  0
  185.3000  178.4620  143.4930 C   0  0  0  0  0  0  0  0  0  0  0  0
  189.8340  177.5570  142.7400 C   0  0  2  0  0  3  0  0  0  0  0  0
  186.5500  177.6780  143.3300 C   0  0  1  0  0  3  0  0  0  0  0  0
  190.3300  178.3110  145.1010 C   0  0  0  0  0  2  0  0  0  0  0  0
  184.9080  179.1560  142.3320 N   0  0  0  0  0  2  0  0  0  0  0  0
  191.2690  177.8860  142.3170 C   0  0  2  0  0  3  0  0  0  0  0  0
  192.0880  176.7540  142.3810 O   0  0  0  0  0  1  0  0  0  0  0  0
  189.7720  177.1890  144.2220 C   0  0  1  0  0  3  0  0  0  0  0  0
  188.8560  178.8430  137.2450 C   0  0  0  0  0  3  0  0  0  0  0  0
  188.1330  177.8100  139.7500 C   0  0  0  0  0  0  0  0  0  0  0  0
  187.1890  177.8880  138.7200 C   0  0  0  0  0  3  0  0  0  0  0  0
  187.5470  178.4080  137.4720 C   0  0  0  0  0  3  0  0  0  0  0  0
  189.8050  178.7640  138.2690 C   0  0  0  0  0  3  0  0  0  0  0  0
  189.4470  178.2510  139.5210 C   0  0  0  0  0  3  0  0  0  0  0  0
  2  6  1  6  0  0  0
  2 16  1  0  0  0  0
  4 13  1  0  0  0  0
  6 18  1  0  0  0  0
  7  9  1  0  0  0  0
  8 17  1  0  0  0  0
 10  8  1  0  0  0  0
 11  3  1  1  0  0  0
 11  7  1  0  0  0  0
 12 23  1  6  0  0  0
 12  1  1  0  0  0  0
 12  2  1  0  0  0  0
 13  7  2  0  0  0  0
 13  5  1  0  0  0  0
 14  4  2  0  0  0  0
 15  1  1  6  0  0  0
 15 21  1  0  0  0  0
 16 14  1  1  0  0  0
 16 11  1  0  0  0  0
 18 14  1  0  0  0  0
 19 20  1  1  0  0  0
 19 15  1  0  0  0  0
 19 10  1  0  0  0  0
 21  3  1  0  0  0  0
 21 17  1  1  0  0  0
 22 25  2  0  0  0  0
 22 26  1  0  0  0  0
 24 23  2  0  0  0  0
 25 24  1  0  0  0  0
 26 27  2  0  0  0  0
 27 23  1  0  0  0  0
M  END
>  <MODEL>
8

>  <REMARK>
 VINA RESULT:      -5.8      1.802      2.550
  Name = 
  1 active torsions:
  status: ('A' for Active; 'I' for Inactive)
    1  A    between atoms: C_9  and  C_15
                            x       y       z     vdW  Elec       q    Type
                         _______ _______ _______ _____ _____    ______ ____

>  <TORSDO>
F 1

$$$$
=
 OpenBabel11052413383D

 27 31  0  0  1  0  0  0  0  0999 V2000
  188.7740  177.7980  136.0190 S   0  0  0  0  0  0  0  0  0  0  0  0
  188.3160  174.9660  135.9700 C   0  0  2  0  0  3  0  0  0  0  0  0
  191.2310  176.2230  136.7870 N   0  0  0  0  0  2  0  0  0  0  0  0
  190.6570  172.3630  135.3510 N   0  0  0  0  0  0  0  0  0  0  0  0
  193.2860  171.6820  135.7410 Cl  0  0  0  0  0  0  0  0  0  0  0  0
  187.4540  173.8400  135.3620 C   0  0  0  0  0  2  0  0  0  0  0  0
  192.0140  173.9410  136.5660 C   0  0  0  0  0  0  0  0  0  0  0  0
  190.3430  177.2660  140.3580 C   0  0  0  0  0  2  0  0  0  0  0  0
  193.2900  174.3100  137.2590 C   0  0  0  0  0  1  0  0  0  0  0  0
  188.8320  177.4480  140.1680 C   0  0  0  0  0  2  0  0  0  0  0  0
  190.7910  174.8280  136.7460 C   0  0  2  0  0  3  0  0  0  0  0  0
  187.8310  176.3350  135.4420 C   0  0  1  0  0  3  0  0  0  0  0  0
  191.9170  172.7780  135.8940 C   0  0  0  0  0  0  0  0  0  0  0  0
  189.6700  173.1950  135.2380 C   0  0  0  0  0  0  0  0  0  0  0  0
  189.1080  177.1470  137.6900 C   0  0  2  0  0  3  0  0  0  0  0  0
  189.7730  174.6320  135.5970 C   0  0  1  0  0  3  0  0  0  0  0  0
  190.9310  176.3770  139.2630 C   0  0  0  0  0  2  0  0  0  0  0  0
  188.3510  172.7560  135.0190 N   0  0  0  0  0  2  0  0  0  0  0  0
  188.5130  178.0320  138.7890 C   0  0  2  0  0  3  0  0  0  0  0  0
  188.9860  179.3440  138.6960 O   0  0  0  0  0  1  0  0  0  0  0  0
  190.6130  176.9700  137.8870 C   0  0  1  0  0  3  0  0  0  0  0  0
  183.6360  177.0620  136.0730 C   0  0  0  0  0  3  0  0  0  0  0  0
  186.3680  176.5660  135.6790 C   0  0  0  0  0  0  0  0  0  0  0  0
  185.5490  176.9060  134.5960 C   0  0  0  0  0  3  0  0  0  0  0  0
  184.1860  177.1480  134.7900 C   0  0  0  0  0  3  0  0  0  0  0  0
  184.4490  176.7260  137.1600 C   0  0  0  0  0  3  0  0  0  0  0  0
  185.8130  176.4760  136.9660 C   0  0  0  0  0  3  0  0  0  0  0  0
  2  6  1  6  0  0  0
  3 21  1  0  0  0  0
  4 13  1  0  0  0  0
  5 13  1  0  0  0  0
  7  9  1  0  0  0  0
 10  8  1  0  0  0  0
 11  7  1  6  0  0  0
 11  3  1  0  0  0  0
 12 23  1  1  0  0  0
 12  2  1  0  0  0  0
 12  1  1  0  0  0  0
 13  7  2  0  0  0  0
 14  4  2  0  0  0  0
 15  1  1  6  0  0  0
 15 21  1  0  0  0  0
 15 19  1  0  0  0  0
 16 14  1  1  0  0  0
 16  2  1  0  0  0  0
 16 11  1  0  0  0  0
 17  8  1  0  0  0  0
 18 14  1  0  0  0  0
 18  6  1  0  0  0  0
 19 20  1  1  0  0  0
 19 10  1  0  0  0  0
 21 17  1  1  0  0  0
 22 26  1  0  0  0  0
 23 27  1  0  0  0  0
 24 25  1  0  0  0  0
 24 23  2  0  0  0  0
 25 22  2  0  0  0  0
 27 26  2  0  0  0  0
M  END
>  <MODEL>
9

>  <REMARK>
 VINA RESULT:      -5.8      5.858      8.661
  Name = 
  1 active torsions:
  status: ('A' for Active; 'I' for Inactive)
    1  A    between atoms: C_9  and  C_15
                            x       y       z     vdW  Elec       q    Type
                         _______ _______ _______ _____ _____    ______ ____

>  <TORSDO>
F 1

$$$$
