=
 OpenBabel11052414473D

 32 34  0  0  1  0  0  0  0  0999 V2000
  185.9400  178.6590  140.5470 C   0  0  0  0  0  2  0  0  0  0  0  0
  185.7220  178.8020  139.1680 O   0  0  0  0  0  0  0  0  0  0  0  0
  186.8450  178.3060  138.4720 C   0  0  2  0  0  3  0  0  0  0  0  0
  186.5560  177.1050  137.5690 C   0  0  0  0  0  1  0  0  0  0  0  0
  188.1350  178.2330  139.3070 C   0  0  2  0  0  3  0  0  0  0  0  0
  189.0380  179.2160  138.8960 O   0  0  0  0  0  1  0  0  0  0  0  0
  188.8040  176.8540  139.3470 C   0  0  0  0  0  2  0  0  0  0  0  0
  190.1910  176.9390  139.7910 N   0  0  0  0  0  0  0  0  0  0  0  0
  190.8910  175.9020  139.1510 N   0  0  0  0  0  0  0  0  0  0  0  0
  190.6280  176.0120  137.7940 O   0  0  0  0  0  0  0  0  0  0  0  0
  191.8120  176.5170  138.2220 C   0  0  2  0  0  3  0  0  0  0  0  0
  192.8330  175.6180  137.9180 O   0  0  0  0  0  1  0  0  0  0  0  0
  190.1900  176.6250  141.2130 C   0  0  0  0  0  2  0  0  0  0  0  0
  191.2250  177.4770  141.9260 C   0  0  0  0  0  2  0  0  0  0  0  0
  191.5600  178.5670  144.1410 C   0  0  0  0  0  1  0  0  0  0  0  0
  190.5700  178.2970  143.0230 C   0  0  0  0  0  2  0  0  0  0  0  0
  184.6210  178.7610  141.3000 C   0  0  2  0  0  3  0  0  0  0  0  0
  184.7970  178.3540  142.7660 C   0  0  2  0  0  3  0  0  0  0  0  0
  184.1510  179.3580  143.7460 C   0  0  0  0  0  2  0  0  0  0  0  0
  187.7340  177.3270  146.4000 C   0  0  1  0  0  3  0  0  0  0  0  0
  186.2780  178.1080  143.0880 C   0  0  0  0  0  2  0  0  0  0  0  0
  186.3240  178.2790  147.0880 S   0  0  0  0  0  0  0  0  0  0  0  0
  185.8880  178.7880  145.4200 C   0  0  2  0  0  3  0  0  0  0  0  0
  184.3920  178.9500  145.2030 C   0  0  0  0  0  2  0  0  0  0  0  0
  187.7580  177.4160  144.9400 N   0  0  0  0  0  2  0  0  0  0  0  0
  189.0350  177.8600  146.9620 C   0  0  0  0  0  1  0  0  0  0  0  0
  186.3900  177.6820  144.5430 C   0  0  2  0  0  3  0  0  0  0  0  0
  183.5390  177.9400  140.6050 C   0  0  0  0  0  2  0  0  0  0  0  0
  182.3040  178.7490  140.3940 C   0  0  0  0  0  0  0  0  0  0  0  0
  181.3490  178.6950  141.2630 N   0  0  0  0  0  2  0  0  0  0  0  0
  181.0820  180.5000  139.0450 C   0  0  0  0  0  1  0  0  0  0  0  0
  182.2330  179.6460  139.2840 N   0  0  0  0  0  2  0  0  0  0  0  0
  2  1  1  0  0  0  0
  3  4  1  1  0  0  0
  3  2  1  0  0  0  0
  3  5  1  0  0  0  0
  5  6  1  6  0  0  0
  5  7  1  0  0  0  0
  7  8  1  0  0  0  0
  8 13  1  0  0  0  0
  9  8  1  0  0  0  0
 10 11  1  0  0  0  0
 10  9  1  0  0  0  0
 11 12  1  6  0  0  0
 11  9  1  0  0  0  0
 13 14  1  0  0  0  0
 14 16  1  0  0  0  0
 16 15  1  0  0  0  0
 17  1  1  6  0  0  0
 18 17  1  6  0  0  0
 18 21  1  0  0  0  0
 18 19  1  0  0  0  0
 19 24  1  0  0  0  0
 20 26  1  1  0  0  0
 20 22  1  0  0  0  0
 23 24  1  1  0  0  0
 23 22  1  0  0  0  0
 25 20  1  0  0  0  0
 27 21  1  6  0  0  0
 27 25  1  0  0  0  0
 27 23  1  0  0  0  0
 28 17  1  0  0  0  0
 29 28  1  0  0  0  0
 29 30  2  0  0  0  0
 31 32  1  0  0  0  0
 32 29  1  0  0  0  0
M  END
>  <MODEL>
1

>  <REMARK>
 VINA RESULT:      -6.9      0.000      0.000
  Name = 
  13 active torsions:
  status: ('A' for Active; 'I' for Inactive)
    1  A    between atoms: O_1  and  C_4
    2  A    between atoms: O_1  and  C_5
    3  A    between atoms: C_2  and  C_14
    4  A    between atoms: N_3  and  N_20
    5  A    between atoms: C_4  and  C_24
    6  A    between atoms: C_5  and  C_14
    7  A    between atoms: C_13  and  C_30
    8  A    between atoms: C_14  and  C_30
    9  A    between atoms: C_15  and  N_20
   10  A    between atoms: C_15  and  C_26
   11  A    between atoms: C_16  and  N_20
   12  A    between atoms: C_16  and  C_24
   13  A    between atoms: C_19  and  C_26
                            x       y       z     vdW  Elec       q    Type
                         _______ _______ _______ _____ _____    ______ ____

>  <TORSDO>
F 13

$$$$
=
 OpenBabel11052414473D

 32 34  0  0  1  0  0  0  0  0999 V2000
  188.9020  176.9100  144.6230 C   0  0  0  0  0  2  0  0  0  0  0  0
  187.5240  177.1420  144.4990 O   0  0  0  0  0  0  0  0  0  0  0  0
  187.1380  178.1260  145.4340 C   0  0  2  0  0  3  0  0  0  0  0  0
  187.3990  177.7550  146.8940 C   0  0  0  0  0  1  0  0  0  0  0  0
  185.7880  178.8000  145.1340 C   0  0  2  0  0  3  0  0  0  0  0  0
  185.0320  178.9190  146.3010 O   0  0  0  0  0  1  0  0  0  0  0  0
  184.9720  178.1450  144.0140 C   0  0  0  0  0  2  0  0  0  0  0  0
  184.3010  179.1370  143.1810 N   0  0  0  0  0  0  0  0  0  0  0  0
  182.9820  178.6900  142.9910 N   0  0  0  0  0  0  0  0  0  0  0  0
  182.4460  178.4580  144.2490 O   0  0  0  0  0  0  0  0  0  0  0  0
  182.1100  179.6310  143.6550 C   0  0  2  0  0  3  0  0  0  0  0  0
  180.8250  179.5270  143.1240 O   0  0  0  0  0  1  0  0  0  0  0  0
  184.9500  179.0910  141.8790 C   0  0  0  0  0  2  0  0  0  0  0  0
  183.9550  178.6310  140.8280 C   0  0  0  0  0  2  0  0  0  0  0  0
  184.1490  178.3000  138.3660 C   0  0  0  0  0  1  0  0  0  0  0  0
  184.2400  179.3060  139.4980 C   0  0  0  0  0  2  0  0  0  0  0  0
  189.6770  177.8540  143.7140 C   0  0  2  0  0  3  0  0  0  0  0  0
  189.6430  177.3650  142.2630 C   0  0  2  0  0  3  0  0  0  0  0  0
  191.0340  177.3920  141.5920 C   0  0  0  0  0  2  0  0  0  0  0  0
  187.9420  177.8610  137.8200 C   0  0  1  0  0  3  0  0  0  0  0  0
  188.5970  178.1420  141.4510 C   0  0  0  0  0  2  0  0  0  0  0  0
  189.7110  177.3920  137.6800 S   0  0  0  0  0  0  0  0  0  0  0  0
  189.9340  177.8180  139.4120 C   0  0  2  0  0  3  0  0  0  0  0  0
  190.9560  176.9490  140.1270 C   0  0  0  0  0  2  0  0  0  0  0  0
  187.6190  178.2660  139.1870 N   0  0  0  0  0  2  0  0  0  0  0  0
  187.6370  178.9970  136.8670 C   0  0  0  0  0  1  0  0  0  0  0  0
  188.5880  177.5980  140.0320 C   0  0  2  0  0  3  0  0  0  0  0  0
  191.1040  178.0400  144.2220 C   0  0  0  0  0  2  0  0  0  0  0  0
  191.5440  176.8640  145.0270 C   0  0  0  0  0  0  0  0  0  0  0  0
  191.8720  175.7670  144.4280 N   0  0  0  0  0  2  0  0  0  0  0  0
  192.1580  175.9070  147.2820 C   0  0  0  0  0  1  0  0  0  0  0  0
  191.6880  176.9950  146.4430 N   0  0  0  0  0  2  0  0  0  0  0  0
  2  1  1  0  0  0  0
  2  3  1  0  0  0  0
  3  4  1  1  0  0  0
  5  3  1  0  0  0  0
  5  6  1  1  0  0  0
  7  5  1  0  0  0  0
  8  7  1  0  0  0  0
  9  8  1  0  0  0  0
  9 11  1  0  0  0  0
  9 10  1  0  0  0  0
 11 12  1  6  0  0  0
 11 10  1  0  0  0  0
 13  8  1  0  0  0  0
 14 13  1  0  0  0  0
 15 16  1  0  0  0  0
 16 14  1  0  0  0  0
 17 28  1  1  0  0  0
 17  1  1  0  0  0  0
 18 17  1  1  0  0  0
 19 18  1  0  0  0  0
 20 26  1  6  0  0  0
 20 25  1  0  0  0  0
 21 18  1  0  0  0  0
 22 20  1  0  0  0  0
 22 23  1  0  0  0  0
 23 27  1  0  0  0  0
 23 24  1  1  0  0  0
 24 19  1  0  0  0  0
 25 27  1  0  0  0  0
 27 21  1  1  0  0  0
 28 29  1  0  0  0  0
 29 32  1  0  0  0  0
 30 29  2  0  0  0  0
 32 31  1  0  0  0  0
M  END
>  <MODEL>
2

>  <REMARK>
 VINA RESULT:      -6.9      3.593      8.670
  Name = 
  13 active torsions:
  status: ('A' for Active; 'I' for Inactive)
    1  A    between atoms: O_1  and  C_4
    2  A    between atoms: O_1  and  C_5
    3  A    between atoms: C_2  and  C_14
    4  A    between atoms: N_3  and  N_20
    5  A    between atoms: C_4  and  C_24
    6  A    between atoms: C_5  and  C_14
    7  A    between atoms: C_13  and  C_30
    8  A    between atoms: C_14  and  C_30
    9  A    between atoms: C_15  and  N_20
   10  A    between atoms: C_15  and  C_26
   11  A    between atoms: C_16  and  N_20
   12  A    between atoms: C_16  and  C_24
   13  A    between atoms: C_19  and  C_26
                            x       y       z     vdW  Elec       q    Type
                         _______ _______ _______ _____ _____    ______ ____

>  <TORSDO>
F 13

$$$$
=
 OpenBabel11052414473D

 32 34  0  0  1  0  0  0  0  0999 V2000
  189.1020  176.7530  143.2550 C   0  0  0  0  0  2  0  0  0  0  0  0
  189.7380  177.8260  142.6120 O   0  0  0  0  0  0  0  0  0  0  0  0
  190.2230  177.3890  141.3610 C   0  0  2  0  0  3  0  0  0  0  0  0
  191.7470  177.3080  141.2600 C   0  0  0  0  0  1  0  0  0  0  0  0
  189.4930  177.9880  140.1470 C   0  0  2  0  0  3  0  0  0  0  0  0
  188.3650  178.7000  140.5580 O   0  0  0  0  0  1  0  0  0  0  0  0
  189.1370  176.9830  139.0440 C   0  0  0  0  0  2  0  0  0  0  0  0
  189.3490  177.5430  137.7130 N   0  0  0  0  0  0  0  0  0  0  0  0
  188.2320  177.1920  136.9380 N   0  0  0  0  0  0  0  0  0  0  0  0
  187.1240  177.7750  137.5330 O   0  0  0  0  0  0  0  0  0  0  0  0
  187.6410  178.4190  136.4560 C   0  0  2  0  0  3  0  0  0  0  0  0
  186.8560  178.1480  135.3370 O   0  0  0  0  0  1  0  0  0  0  0  0
  190.4900  176.8380  137.1450 C   0  0  0  0  0  2  0  0  0  0  0  0
  190.6660  175.5020  137.8450 C   0  0  0  0  0  2  0  0  0  0  0  0
  193.0630  176.1780  137.8840 C   0  0  0  0  0  1  0  0  0  0  0  0
  192.0990  175.0190  137.7130 C   0  0  0  0  0  2  0  0  0  0  0  0
  188.5980  177.1860  144.6250 C   0  0  2  0  0  3  0  0  0  0  0  0
  187.3160  178.0130  144.4970 C   0  0  2  0  0  3  0  0  0  0  0  0
  186.3970  177.8840  145.7320 C   0  0  0  0  0  2  0  0  0  0  0  0
  183.2810  178.9600  142.1070 C   0  0  1  0  0  3  0  0  0  0  0  0
  186.5780  177.6760  143.1940 C   0  0  0  0  0  2  0  0  0  0  0  0
  182.9030  179.0990  143.8970 S   0  0  0  0  0  0  0  0  0  0  0  0
  184.4310  178.2260  144.2620 C   0  0  2  0  0  3  0  0  0  0  0  0
  185.1010  178.6800  145.5500 C   0  0  0  0  0  2  0  0  0  0  0  0
  184.5710  178.3020  141.8980 N   0  0  0  0  0  2  0  0  0  0  0  0
  182.1910  178.1730  141.4120 C   0  0  0  0  0  1  0  0  0  0  0  0
  185.3320  178.5430  143.1070 C   0  0  2  0  0  3  0  0  0  0  0  0
  189.6880  177.9350  145.3870 C   0  0  0  0  0  2  0  0  0  0  0  0
  190.2680  177.0840  146.4660 C   0  0  0  0  0  0  0  0  0  0  0  0
  189.5010  176.6280  147.4020 N   0  0  0  0  0  2  0  0  0  0  0  0
  192.2630  175.8410  147.3900 C   0  0  0  0  0  1  0  0  0  0  0  0
  191.6440  176.7060  146.4000 N   0  0  0  0  0  2  0  0  0  0  0  0
  2  1  1  0  0  0  0
  3  4  1  6  0  0  0
  3  2  1  0  0  0  0
  5  6  1  1  0  0  0
  5  3  1  0  0  0  0
  7  5  1  0  0  0  0
  8  7  1  0  0  0  0
  9 10  1  0  0  0  0
  9  8  1  0  0  0  0
 11 12  1  6  0  0  0
 11  9  1  0  0  0  0
 11 10  1  0  0  0  0
 13  8  1  0  0  0  0
 13 14  1  0  0  0  0
 16 14  1  0  0  0  0
 16 15  1  0  0  0  0
 17  1  1  6  0  0  0
 17 28  1  0  0  0  0
 18 17  1  1  0  0  0
 18 19  1  0  0  0  0
 20 26  1  6  0  0  0
 20 22  1  0  0  0  0
 21 18  1  0  0  0  0
 22 23  1  0  0  0  0
 23 24  1  1  0  0  0
 24 19  1  0  0  0  0
 25 20  1  0  0  0  0
 25 27  1  0  0  0  0
 27 21  1  6  0  0  0
 27 23  1  0  0  0  0
 28 29  1  0  0  0  0
 29 30  2  0  0  0  0
 32 29  1  0  0  0  0
 32 31  1  0  0  0  0
M  END
>  <MODEL>
3

>  <REMARK>
 VINA RESULT:      -6.9      2.437      6.142
  Name = 
  13 active torsions:
  status: ('A' for Active; 'I' for Inactive)
    1  A    between atoms: O_1  and  C_4
    2  A    between atoms: O_1  and  C_5
    3  A    between atoms: C_2  and  C_14
    4  A    between atoms: N_3  and  N_20
    5  A    between atoms: C_4  and  C_24
    6  A    between atoms: C_5  and  C_14
    7  A    between atoms: C_13  and  C_30
    8  A    between atoms: C_14  and  C_30
    9  A    between atoms: C_15  and  N_20
   10  A    between atoms: C_15  and  C_26
   11  A    between atoms: C_16  and  N_20
   12  A    between atoms: C_16  and  C_24
   13  A    between atoms: C_19  and  C_26
                            x       y       z     vdW  Elec       q    Type
                         _______ _______ _______ _____ _____    ______ ____

>  <TORSDO>
F 13

$$$$
=
 OpenBabel11052414473D

 32 34  0  0  1  0  0  0  0  0999 V2000
  189.1550  176.5700  143.1280 C   0  0  0  0  0  2  0  0  0  0  0  0
  189.8650  177.5690  142.4440 O   0  0  0  0  0  0  0  0  0  0  0  0
  190.6550  176.9650  141.4410 C   0  0  2  0  0  3  0  0  0  0  0  0
  192.0600  177.5520  141.2970 C   0  0  0  0  0  1  0  0  0  0  0  0
  189.9060  176.6640  140.1320 C   0  0  2  0  0  3  0  0  0  0  0  0
  190.6860  175.8600  139.2980 O   0  0  0  0  0  1  0  0  0  0  0  0
  189.3900  177.8970  139.3820 C   0  0  0  0  0  2  0  0  0  0  0  0
  188.3840  177.5440  138.3860 N   0  0  0  0  0  0  0  0  0  0  0  0
  188.7330  178.2050  137.1970 N   0  0  0  0  0  0  0  0  0  0  0  0
  190.0290  177.8220  136.8830 O   0  0  0  0  0  0  0  0  0  0  0  0
  189.0330  177.1900  136.2130 C   0  0  2  0  0  3  0  0  0  0  0  0
  188.9200  177.7340  134.9350 O   0  0  0  0  0  1  0  0  0  0  0  0
  187.1300  178.1310  138.8380 C   0  0  0  0  0  2  0  0  0  0  0  0
  186.0300  177.8190  137.8400 C   0  0  0  0  0  2  0  0  0  0  0  0
  183.6210  177.2450  138.1110 C   0  0  0  0  0  1  0  0  0  0  0  0
  184.6880  178.2940  138.3660 C   0  0  0  0  0  2  0  0  0  0  0  0
  188.7460  177.0700  144.5070 C   0  0  2  0  0  3  0  0  0  0  0  0
  187.4820  177.9310  144.4220 C   0  0  2  0  0  3  0  0  0  0  0  0
  186.5880  177.8050  145.6740 C   0  0  0  0  0  2  0  0  0  0  0  0
  183.4230  179.0210  142.1370 C   0  0  1  0  0  3  0  0  0  0  0  0
  186.7080  177.6350  143.1290 C   0  0  0  0  0  2  0  0  0  0  0  0
  183.0870  179.1390  143.9370 S   0  0  0  0  0  0  0  0  0  0  0  0
  184.6000  178.2220  144.2540 C   0  0  2  0  0  3  0  0  0  0  0  0
  185.3090  178.6360  145.5340 C   0  0  0  0  0  2  0  0  0  0  0  0
  184.6900  178.3330  141.8890 N   0  0  0  0  0  2  0  0  0  0  0  0
  182.2970  178.2740  141.4540 C   0  0  0  0  0  1  0  0  0  0  0  0
  185.4830  178.5350  143.0840 C   0  0  2  0  0  3  0  0  0  0  0  0
  189.9000  177.8120  145.1760 C   0  0  0  0  0  2  0  0  0  0  0  0
  190.4170  177.0520  146.3500 C   0  0  0  0  0  0  0  0  0  0  0  0
  189.6010  176.6910  147.2870 N   0  0  0  0  0  2  0  0  0  0  0  0
  192.3470  175.8660  147.4670 C   0  0  0  0  0  1  0  0  0  0  0  0
  191.7870  176.6490  146.3790 N   0  0  0  0  0  2  0  0  0  0  0  0
  2  1  1  0  0  0  0
  3  4  1  6  0  0  0
  3  2  1  0  0  0  0
  5  6  1  6  0  0  0
  5  3  1  0  0  0  0
  7  5  1  0  0  0  0
  8 13  1  0  0  0  0
  8  7  1  0  0  0  0
  9  8  1  0  0  0  0
 10  9  1  0  0  0  0
 11 12  1  6  0  0  0
 11 10  1  0  0  0  0
 11  9  1  0  0  0  0
 14 16  1  0  0  0  0
 14 13  1  0  0  0  0
 15 16  1  0  0  0  0
 17  1  1  6  0  0  0
 17 28  1  0  0  0  0
 18 17  1  1  0  0  0
 18 19  1  0  0  0  0
 20 26  1  6  0  0  0
 20 22  1  0  0  0  0
 21 18  1  0  0  0  0
 22 23  1  0  0  0  0
 23 24  1  1  0  0  0
 24 19  1  0  0  0  0
 25 20  1  0  0  0  0
 25 27  1  0  0  0  0
 27 21  1  6  0  0  0
 27 23  1  0  0  0  0
 28 29  1  0  0  0  0
 29 32  1  0  0  0  0
 29 30  2  0  0  0  0
 32 31  1  0  0  0  0
M  END
>  <MODEL>
4

>  <REMARK>
 VINA RESULT:      -6.9      2.366      6.340
  Name = 
  13 active torsions:
  status: ('A' for Active; 'I' for Inactive)
    1  A    between atoms: O_1  and  C_4
    2  A    between atoms: O_1  and  C_5
    3  A    between atoms: C_2  and  C_14
    4  A    between atoms: N_3  and  N_20
    5  A    between atoms: C_4  and  C_24
    6  A    between atoms: C_5  and  C_14
    7  A    between atoms: C_13  and  C_30
    8  A    between atoms: C_14  and  C_30
    9  A    between atoms: C_15  and  N_20
   10  A    between atoms: C_15  and  C_26
   11  A    between atoms: C_16  and  N_20
   12  A    between atoms: C_16  and  C_24
   13  A    between atoms: C_19  and  C_26
                            x       y       z     vdW  Elec       q    Type
                         _______ _______ _______ _____ _____    ______ ____

>  <TORSDO>
F 13

$$$$
=
 OpenBabel11052414473D

 32 34  0  0  1  0  0  0  0  0999 V2000
  188.8730  177.0040  144.3250 C   0  0  0  0  0  2  0  0  0  0  0  0
  187.5620  177.4980  144.4120 O   0  0  0  0  0  0  0  0  0  0  0  0
  187.4140  178.1920  145.6330 C   0  0  2  0  0  3  0  0  0  0  0  0
  188.2550  177.6420  146.7850 C   0  0  0  0  0  1  0  0  0  0  0  0
  185.9660  178.5830  145.9750 C   0  0  2  0  0  3  0  0  0  0  0  0
  185.2160  177.4490  146.2910 O   0  0  0  0  0  1  0  0  0  0  0  0
  185.2570  179.4340  144.9140 C   0  0  0  0  0  2  0  0  0  0  0  0
  184.3120  178.6450  144.1310 N   0  0  0  0  0  0  0  0  0  0  0  0
  184.3040  179.1830  142.8330 N   0  0  0  0  0  0  0  0  0  0  0  0
  185.6280  179.3610  142.4590 O   0  0  0  0  0  0  0  0  0  0  0  0
  185.0070  178.2540  141.9790 C   0  0  2  0  0  3  0  0  0  0  0  0
  184.6360  178.4720  140.6530 O   0  0  0  0  0  1  0  0  0  0  0  0
  182.9940  178.8970  144.6960 C   0  0  0  0  0  2  0  0  0  0  0  0
  181.9670  178.9800  143.5810 C   0  0  0  0  0  2  0  0  0  0  0  0
  179.5120  179.0450  143.1580 C   0  0  0  0  0  1  0  0  0  0  0  0
  180.6040  178.5380  144.0830 C   0  0  0  0  0  2  0  0  0  0  0  0
  189.7090  177.8940  143.4160 C   0  0  2  0  0  3  0  0  0  0  0  0
  189.6730  177.3860  141.9720 C   0  0  2  0  0  3  0  0  0  0  0  0
  191.0540  177.4460  141.2830 C   0  0  0  0  0  2  0  0  0  0  0  0
  187.9050  177.7750  137.5430 C   0  0  1  0  0  3  0  0  0  0  0  0
  188.5940  178.1210  141.1630 C   0  0  0  0  0  2  0  0  0  0  0  0
  189.6850  177.3580  137.3880 S   0  0  0  0  0  0  0  0  0  0  0  0
  189.9160  177.8120  139.1110 C   0  0  2  0  0  3  0  0  0  0  0  0
  190.9720  176.9820  139.8250 C   0  0  0  0  0  2  0  0  0  0  0  0
  187.5860  178.1890  138.9100 N   0  0  0  0  0  2  0  0  0  0  0  0
  187.5540  178.8900  136.5810 C   0  0  0  0  0  1  0  0  0  0  0  0
  188.5840  177.5600  139.7510 C   0  0  2  0  0  3  0  0  0  0  0  0
  191.1360  178.0140  143.9440 C   0  0  0  0  0  2  0  0  0  0  0  0
  191.5040  176.8270  144.7690 C   0  0  0  0  0  0  0  0  0  0  0  0
  191.7270  175.6930  144.1910 N   0  0  0  0  0  2  0  0  0  0  0  0
  192.1020  175.8790  147.0330 C   0  0  0  0  0  1  0  0  0  0  0  0
  191.6970  176.9810  146.1760 N   0  0  0  0  0  2  0  0  0  0  0  0
  1  2  1  0  0  0  0
  2  3  1  0  0  0  0
  3  5  1  0  0  0  0
  3  4  1  1  0  0  0
  5  6  1  6  0  0  0
  7  5  1  0  0  0  0
  8 13  1  0  0  0  0
  8  7  1  0  0  0  0
  9  8  1  0  0  0  0
 10  9  1  0  0  0  0
 11 12  1  6  0  0  0
 11 10  1  0  0  0  0
 11  9  1  0  0  0  0
 14 16  1  0  0  0  0
 14 13  1  0  0  0  0
 15 16  1  0  0  0  0
 17 28  1  1  0  0  0
 17  1  1  0  0  0  0
 18 17  1  1  0  0  0
 19 18  1  0  0  0  0
 20 26  1  6  0  0  0
 20 25  1  0  0  0  0
 21 18  1  0  0  0  0
 22 20  1  0  0  0  0
 22 23  1  0  0  0  0
 23 27  1  0  0  0  0
 23 24  1  1  0  0  0
 24 19  1  0  0  0  0
 25 27  1  0  0  0  0
 27 21  1  1  0  0  0
 28 29  1  0  0  0  0
 29 32  1  0  0  0  0
 30 29  2  0  0  0  0
 32 31  1  0  0  0  0
M  END
>  <MODEL>
5

>  <REMARK>
 VINA RESULT:      -6.7      3.483      8.613
  Name = 
  13 active torsions:
  status: ('A' for Active; 'I' for Inactive)
    1  A    between atoms: O_1  and  C_4
    2  A    between atoms: O_1  and  C_5
    3  A    between atoms: C_2  and  C_14
    4  A    between atoms: N_3  and  N_20
    5  A    between atoms: C_4  and  C_24
    6  A    between atoms: C_5  and  C_14
    7  A    between atoms: C_13  and  C_30
    8  A    between atoms: C_14  and  C_30
    9  A    between atoms: C_15  and  N_20
   10  A    between atoms: C_15  and  C_26
   11  A    between atoms: C_16  and  N_20
   12  A    between atoms: C_16  and  C_24
   13  A    between atoms: C_19  and  C_26
                            x       y       z     vdW  Elec       q    Type
                         _______ _______ _______ _____ _____    ______ ____

>  <TORSDO>
F 13

$$$$
=
 OpenBabel11052414473D

 32 34  0  0  1  0  0  0  0  0999 V2000
  188.9580  176.4670  143.2490 C   0  0  0  0  0  2  0  0  0  0  0  0
  190.2380  176.9010  142.8690 O   0  0  0  0  0  0  0  0  0  0  0  0
  190.1590  177.4970  141.5920 C   0  0  2  0  0  3  0  0  0  0  0  0
  188.7470  177.5750  141.0100 C   0  0  0  0  0  1  0  0  0  0  0  0
  191.2730  177.0750  140.6180 C   0  0  2  0  0  3  0  0  0  0  0  0
  192.4290  177.8230  140.8440 O   0  0  0  0  0  1  0  0  0  0  0  0
  190.8820  177.1010  139.1360 C   0  0  0  0  0  2  0  0  0  0  0  0
  191.4010  175.9410  138.4180 N   0  0  0  0  0  0  0  0  0  0  0  0
  192.3840  176.4130  137.5320 N   0  0  0  0  0  0  0  0  0  0  0  0
  193.5650  176.5160  138.2520 O   0  0  0  0  0  0  0  0  0  0  0  0
  193.4250  175.4130  137.4740 C   0  0  2  0  0  3  0  0  0  0  0  0
  194.1630  175.5790  136.3030 O   0  0  0  0  0  1  0  0  0  0  0  0
  190.3070  175.4380  137.5990 C   0  0  0  0  0  2  0  0  0  0  0  0
  189.1450  176.4140  137.6430 C   0  0  0  0  0  2  0  0  0  0  0  0
  188.0460  178.2200  136.3250 C   0  0  0  0  0  1  0  0  0  0  0  0
  188.8260  176.9200  136.2490 C   0  0  0  0  0  2  0  0  0  0  0  0
  188.6040  177.0210  144.6220 C   0  0  2  0  0  3  0  0  0  0  0  0
  187.3570  177.9080  144.5470 C   0  0  2  0  0  3  0  0  0  0  0  0
  186.5060  177.8500  145.8340 C   0  0  0  0  0  2  0  0  0  0  0  0
  183.2430  179.0020  142.3650 C   0  0  1  0  0  3  0  0  0  0  0  0
  186.5310  177.5800  143.2950 C   0  0  0  0  0  2  0  0  0  0  0  0
  182.9740  179.1970  144.1700 S   0  0  0  0  0  0  0  0  0  0  0  0
  184.4770  178.2580  144.4690 C   0  0  2  0  0  3  0  0  0  0  0  0
  185.2410  178.7050  145.7060 C   0  0  0  0  0  2  0  0  0  0  0  0
  184.4850  178.2760  142.1010 N   0  0  0  0  0  2  0  0  0  0  0  0
  182.0780  178.2550  141.7520 C   0  0  0  0  0  1  0  0  0  0  0  0
  185.3250  178.5050  143.2580 C   0  0  2  0  0  3  0  0  0  0  0  0
  189.7950  177.7590  145.2290 C   0  0  0  0  0  2  0  0  0  0  0  0
  190.3330  177.0260  146.4110 C   0  0  0  0  0  0  0  0  0  0  0  0
  189.5500  176.7530  147.4030 N   0  0  0  0  0  2  0  0  0  0  0  0
  192.2560  175.7900  147.4860 C   0  0  0  0  0  1  0  0  0  0  0  0
  191.6810  176.5520  146.3910 N   0  0  0  0  0  2  0  0  0  0  0  0
  2  1  1  0  0  0  0
  3  4  1  6  0  0  0
  3  2  1  0  0  0  0
  5  6  1  6  0  0  0
  5  3  1  0  0  0  0
  7  5  1  0  0  0  0
  8  7  1  0  0  0  0
  9 10  1  0  0  0  0
  9  8  1  0  0  0  0
 11 12  1  6  0  0  0
 11  9  1  0  0  0  0
 11 10  1  0  0  0  0
 13 14  1  0  0  0  0
 13  8  1  0  0  0  0
 16 15  1  0  0  0  0
 16 14  1  0  0  0  0
 17  1  1  6  0  0  0
 17 28  1  0  0  0  0
 18 17  1  1  0  0  0
 18 19  1  0  0  0  0
 20 26  1  1  0  0  0
 20 22  1  0  0  0  0
 21 18  1  0  0  0  0
 22 23  1  0  0  0  0
 23 24  1  1  0  0  0
 24 19  1  0  0  0  0
 25 20  1  0  0  0  0
 25 27  1  0  0  0  0
 27 21  1  6  0  0  0
 27 23  1  0  0  0  0
 28 29  1  0  0  0  0
 29 30  2  0  0  0  0
 32 29  1  0  0  0  0
 32 31  1  0  0  0  0
M  END
>  <MODEL>
6

>  <REMARK>
 VINA RESULT:      -6.6      2.478      6.066
  Name = 
  13 active torsions:
  status: ('A' for Active; 'I' for Inactive)
    1  A    between atoms: O_1  and  C_4
    2  A    between atoms: O_1  and  C_5
    3  A    between atoms: C_2  and  C_14
    4  A    between atoms: N_3  and  N_20
    5  A    between atoms: C_4  and  C_24
    6  A    between atoms: C_5  and  C_14
    7  A    between atoms: C_13  and  C_30
    8  A    between atoms: C_14  and  C_30
    9  A    between atoms: C_15  and  N_20
   10  A    between atoms: C_15  and  C_26
   11  A    between atoms: C_16  and  N_20
   12  A    between atoms: C_16  and  C_24
   13  A    between atoms: C_19  and  C_26
                            x       y       z     vdW  Elec       q    Type
                         _______ _______ _______ _____ _____    ______ ____

>  <TORSDO>
F 13

$$$$
=
 OpenBabel11052414473D

 32 34  0  0  1  0  0  0  0  0999 V2000
  190.2990  177.7170  140.3050 C   0  0  0  0  0  2  0  0  0  0  0  0
  189.3940  177.5210  141.3600 O   0  0  0  0  0  0  0  0  0  0  0  0
  190.1150  177.1960  142.5290 C   0  0  2  0  0  3  0  0  0  0  0  0
  190.1810  175.7010  142.8420 C   0  0  0  0  0  1  0  0  0  0  0  0
  189.8530  178.1300  143.7230 C   0  0  2  0  0  3  0  0  0  0  0  0
  190.8720  179.0790  143.8330 O   0  0  0  0  0  1  0  0  0  0  0  0
  189.6150  177.4200  145.0610 C   0  0  0  0  0  2  0  0  0  0  0  0
  188.3880  177.8770  145.7050 N   0  0  0  0  0  0  0  0  0  0  0  0
  188.2560  177.1480  146.8990 N   0  0  0  0  0  0  0  0  0  0  0  0
  189.4710  177.2310  147.5620 O   0  0  0  0  0  0  0  0  0  0  0  0
  188.4910  178.0660  147.9900 C   0  0  2  0  0  3  0  0  0  0  0  0
  187.9260  177.5540  149.1570 O   0  0  0  0  0  1  0  0  0  0  0  0
  187.2900  177.4650  144.8410 C   0  0  0  0  0  2  0  0  0  0  0  0
  186.0390  178.2470  145.1990 C   0  0  0  0  0  2  0  0  0  0  0  0
  183.7510  178.6920  144.3160 C   0  0  0  0  0  1  0  0  0  0  0  0
  185.2160  178.5270  143.9540 C   0  0  0  0  0  2  0  0  0  0  0  0
  189.6450  177.3570  138.9790 C   0  0  2  0  0  3  0  0  0  0  0  0
  190.6290  176.6180  138.0670 C   0  0  2  0  0  3  0  0  0  0  0  0
  190.0910  175.2520  137.5890 C   0  0  0  0  0  2  0  0  0  0  0  0
  194.9530  174.6660  137.4500 C   0  0  1  0  0  3  0  0  0  0  0  0
  192.0040  176.4910  138.7410 C   0  0  0  0  0  2  0  0  0  0  0  0
  193.7370  173.5820  136.6060 S   0  0  0  0  0  0  0  0  0  0  0  0
  192.4180  174.4010  137.5100 C   0  0  2  0  0  3  0  0  0  0  0  0
  191.1200  174.5170  136.7250 C   0  0  0  0  0  2  0  0  0  0  0  0
  194.2770  175.6180  138.3310 N   0  0  0  0  0  2  0  0  0  0  0  0
  195.9180  173.8240  138.2580 C   0  0  0  0  0  1  0  0  0  0  0  0
  192.9450  175.7770  137.7840 C   0  0  2  0  0  3  0  0  0  0  0  0
  189.0680  178.6010  138.3070 C   0  0  0  0  0  2  0  0  0  0  0  0
  187.7490  178.3060  137.6770 C   0  0  0  0  0  0  0  0  0  0  0  0
  187.6940  178.0150  136.4180 N   0  0  0  0  0  2  0  0  0  0  0  0
  185.2670  177.9270  137.9510 C   0  0  0  0  0  1  0  0  0  0  0  0
  186.5760  178.2560  138.4900 N   0  0  0  0  0  2  0  0  0  0  0  0
  1  2  1  0  0  0  0
  2  3  1  0  0  0  0
  3  4  1  1  0  0  0
  3  5  1  0  0  0  0
  5  6  1  1  0  0  0
  5  7  1  0  0  0  0
  7  8  1  0  0  0  0
  8  9  1  0  0  0  0
  9 10  1  0  0  0  0
  9 11  1  0  0  0  0
 10 11  1  0  0  0  0
 11 12  1  1  0  0  0
 13 14  1  0  0  0  0
 13  8  1  0  0  0  0
 16 15  1  0  0  0  0
 16 14  1  0  0  0  0
 17 28  1  6  0  0  0
 17  1  1  0  0  0  0
 18 21  1  0  0  0  0
 18 17  1  1  0  0  0
 19 18  1  0  0  0  0
 20 26  1  1  0  0  0
 20 25  1  0  0  0  0
 22 20  1  0  0  0  0
 22 23  1  0  0  0  0
 23 24  1  6  0  0  0
 23 27  1  0  0  0  0
 24 19  1  0  0  0  0
 27 25  1  0  0  0  0
 27 21  1  1  0  0  0
 29 28  1  0  0  0  0
 29 32  1  0  0  0  0
 30 29  2  0  0  0  0
 31 32  1  0  0  0  0
M  END
>  <MODEL>
7

>  <REMARK>
 VINA RESULT:      -6.6      4.128      8.185
  Name = 
  13 active torsions:
  status: ('A' for Active; 'I' for Inactive)
    1  A    between atoms: O_1  and  C_4
    2  A    between atoms: O_1  and  C_5
    3  A    between atoms: C_2  and  C_14
    4  A    between atoms: N_3  and  N_20
    5  A    between atoms: C_4  and  C_24
    6  A    between atoms: C_5  and  C_14
    7  A    between atoms: C_13  and  C_30
    8  A    between atoms: C_14  and  C_30
    9  A    between atoms: C_15  and  N_20
   10  A    between atoms: C_15  and  C_26
   11  A    between atoms: C_16  and  N_20
   12  A    between atoms: C_16  and  C_24
   13  A    between atoms: C_19  and  C_26
                            x       y       z     vdW  Elec       q    Type
                         _______ _______ _______ _____ _____    ______ ____

>  <TORSDO>
F 13

$$$$
=
 OpenBabel11052414473D

 32 34  0  0  1  0  0  0  0  0999 V2000
  188.1750  177.9280  141.9910 C   0  0  0  0  0  2  0  0  0  0  0  0
  189.5600  178.0050  141.7810 O   0  0  0  0  0  0  0  0  0  0  0  0
  190.2240  177.4140  142.8780 C   0  0  2  0  0  3  0  0  0  0  0  0
  190.1730  175.8860  142.9070 C   0  0  0  0  0  1  0  0  0  0  0  0
  189.9970  178.1270  144.2220 C   0  0  2  0  0  3  0  0  0  0  0  0
  191.1640  178.7720  144.6360 O   0  0  0  0  0  1  0  0  0  0  0  0
  189.4330  177.2400  145.3390 C   0  0  0  0  0  2  0  0  0  0  0  0
  190.0730  177.5120  146.6210 N   0  0  0  0  0  0  0  0  0  0  0  0
  190.6210  176.3000  147.0720 N   0  0  0  0  0  0  0  0  0  0  0  0
  191.6570  175.9750  146.2090 O   0  0  0  0  0  0  0  0  0  0  0  0
  192.0090  176.5470  147.3880 C   0  0  2  0  0  3  0  0  0  0  0  0
  192.4690  175.5610  148.2590 O   0  0  0  0  0  1  0  0  0  0  0  0
  189.0070  177.8600  147.5500 C   0  0  0  0  0  2  0  0  0  0  0  0
  187.6600  177.5610  146.9160 C   0  0  0  0  0  2  0  0  0  0  0  0
  185.3090  178.3460  146.6580 C   0  0  0  0  0  1  0  0  0  0  0  0
  186.6130  178.5430  147.4100 C   0  0  0  0  0  2  0  0  0  0  0  0
  187.4340  178.6210  140.8560 C   0  0  2  0  0  3  0  0  0  0  0  0
  186.0060  178.9820  141.2780 C   0  0  2  0  0  3  0  0  0  0  0  0
  185.5800  178.2930  142.5920 C   0  0  0  0  0  2  0  0  0  0  0  0
  181.3310  179.0270  140.2640 C   0  0  1  0  0  3  0  0  0  0  0  0
  185.0160  178.7080  140.1360 C   0  0  0  0  0  2  0  0  0  0  0  0
  181.5000  178.6430  142.0510 S   0  0  0  0  0  0  0  0  0  0  0  0
  183.2380  178.2710  141.7800 C   0  0  2  0  0  3  0  0  0  0  0  0
  184.1300  178.6330  142.9570 C   0  0  0  0  0  2  0  0  0  0  0  0
  182.6170  178.8940  139.5800 N   0  0  0  0  0  2  0  0  0  0  0  0
  180.3220  178.0910  139.6330 C   0  0  0  0  0  1  0  0  0  0  0  0
  183.6250  179.1090  140.5990 C   0  0  2  0  0  3  0  0  0  0  0  0
  187.4570  177.7630  139.5940 C   0  0  0  0  0  2  0  0  0  0  0  0
  188.7330  177.9470  138.8440 C   0  0  0  0  0  0  0  0  0  0  0  0
  189.0530  179.1210  138.4070 N   0  0  0  0  0  2  0  0  0  0  0  0
  190.9110  176.9640  138.0260 C   0  0  0  0  0  1  0  0  0  0  0  0
  189.6300  176.8450  138.7020 N   0  0  0  0  0  2  0  0  0  0  0  0
  2  1  1  0  0  0  0
  2  3  1  0  0  0  0
  3  4  1  1  0  0  0
  3  5  1  0  0  0  0
  5  6  1  1  0  0  0
  5  7  1  0  0  0  0
  7  8  1  0  0  0  0
  8  9  1  0  0  0  0
  8 13  1  0  0  0  0
  9 11  1  0  0  0  0
 10  9  1  0  0  0  0
 10 11  1  0  0  0  0
 11 12  1  1  0  0  0
 14 16  1  0  0  0  0
 14 13  1  0  0  0  0
 15 16  1  0  0  0  0
 17 28  1  6  0  0  0
 17  1  1  0  0  0  0
 18 17  1  6  0  0  0
 18 19  1  0  0  0  0
 19 24  1  0  0  0  0
 20 26  1  6  0  0  0
 20 22  1  0  0  0  0
 21 18  1  0  0  0  0
 23 22  1  0  0  0  0
 23 24  1  1  0  0  0
 25 20  1  0  0  0  0
 25 27  1  0  0  0  0
 27 21  1  6  0  0  0
 27 23  1  0  0  0  0
 29 28  1  0  0  0  0
 30 29  2  0  0  0  0
 31 32  1  0  0  0  0
 32 29  1  0  0  0  0
M  END
>  <MODEL>
8

>  <REMARK>
 VINA RESULT:      -6.6      3.327      6.703
  Name = 
  13 active torsions:
  status: ('A' for Active; 'I' for Inactive)
    1  A    between atoms: O_1  and  C_4
    2  A    between atoms: O_1  and  C_5
    3  A    between atoms: C_2  and  C_14
    4  A    between atoms: N_3  and  N_20
    5  A    between atoms: C_4  and  C_24
    6  A    between atoms: C_5  and  C_14
    7  A    between atoms: C_13  and  C_30
    8  A    between atoms: C_14  and  C_30
    9  A    between atoms: C_15  and  N_20
   10  A    between atoms: C_15  and  C_26
   11  A    between atoms: C_16  and  N_20
   12  A    between atoms: C_16  and  C_24
   13  A    between atoms: C_19  and  C_26
                            x       y       z     vdW  Elec       q    Type
                         _______ _______ _______ _____ _____    ______ ____

>  <TORSDO>
F 13

$$$$
=
 OpenBabel11052414473D

 32 34  0  0  1  0  0  0  0  0999 V2000
  185.1540  179.1000  141.3480 C   0  0  0  0  0  2  0  0  0  0  0  0
  185.1650  179.4080  139.9790 O   0  0  0  0  0  0  0  0  0  0  0  0
  184.1250  178.6970  139.3410 C   0  0  2  0  0  3  0  0  0  0  0  0
  184.5930  177.5320  138.4680 C   0  0  0  0  0  1  0  0  0  0  0  0
  183.0110  179.5810  138.7540 C   0  0  2  0  0  3  0  0  0  0  0  0
  183.3670  180.9290  138.8300 O   0  0  0  0  0  1  0  0  0  0  0  0
  181.6170  179.3450  139.3480 C   0  0  0  0  0  2  0  0  0  0  0  0
  181.6140  178.2410  140.3010 N   0  0  0  0  0  0  0  0  0  0  0  0
  180.6860  177.2960  139.8320 N   0  0  0  0  0  0  0  0  0  0  0  0
  181.1700  176.8160  138.6240 O   0  0  0  0  0  0  0  0  0  0  0  0
  181.3800  176.0340  139.7140 C   0  0  2  0  0  3  0  0  0  0  0  0
  180.4540  174.9930  139.7200 O   0  0  0  0  0  1  0  0  0  0  0  0
  181.0780  178.7710  141.5470 C   0  0  0  0  0  2  0  0  0  0  0  0
  182.1470  178.7270  142.6240 C   0  0  0  0  0  2  0  0  0  0  0  0
  180.0350  178.3110  143.8790 C   0  0  0  0  0  1  0  0  0  0  0  0
  181.5090  178.6510  143.9990 C   0  0  0  0  0  2  0  0  0  0  0  0
  186.3640  178.2470  141.7020 C   0  0  2  0  0  3  0  0  0  0  0  0
  186.3280  177.8360  143.1770 C   0  0  2  0  0  3  0  0  0  0  0  0
  185.3710  178.7090  144.0170 C   0  0  0  0  0  2  0  0  0  0  0  0
  188.6720  177.1690  147.2940 C   0  0  1  0  0  3  0  0  0  0  0  0
  187.7450  177.8030  143.7680 C   0  0  0  0  0  2  0  0  0  0  0  0
  187.0340  177.8850  147.7070 S   0  0  0  0  0  0  0  0  0  0  0  0
  186.8380  178.3640  145.9850 C   0  0  2  0  0  3  0  0  0  0  0  0
  185.3990  178.3070  145.4960 C   0  0  0  0  0  2  0  0  0  0  0  0
  188.9490  177.2950  145.8630 N   0  0  0  0  0  2  0  0  0  0  0  0
  189.7540  177.8760  148.0840 C   0  0  0  0  0  1  0  0  0  0  0  0
  187.6520  177.3650  145.2200 C   0  0  2  0  0  3  0  0  0  0  0  0
  187.6580  178.9710  141.3420 C   0  0  0  0  0  2  0  0  0  0  0  0
  188.3930  178.2500  140.2630 C   0  0  0  0  0  0  0  0  0  0  0  0
  189.1340  177.2340  140.5640 N   0  0  0  0  0  2  0  0  0  0  0  0
  188.8400  177.9430  137.7960 C   0  0  0  0  0  1  0  0  0  0  0  0
  188.1940  178.6320  138.9010 N   0  0  0  0  0  2  0  0  0  0  0  0
  1 17  1  0  0  0  0
  2  1  1  0  0  0  0
  3  4  1  6  0  0  0
  3  2  1  0  0  0  0
  5  6  1  1  0  0  0
  5  3  1  0  0  0  0
  5  7  1  0  0  0  0
  7  8  1  0  0  0  0
  8 13  1  0  0  0  0
  9  8  1  0  0  0  0
 10 11  1  0  0  0  0
 10  9  1  0  0  0  0
 11 12  1  6  0  0  0
 11  9  1  0  0  0  0
 13 14  1  0  0  0  0
 14 16  1  0  0  0  0
 15 16  1  0  0  0  0
 17 28  1  1  0  0  0
 18 17  1  6  0  0  0
 18 21  1  0  0  0  0
 18 19  1  0  0  0  0
 19 24  1  0  0  0  0
 20 22  1  0  0  0  0
 20 26  1  1  0  0  0
 23 24  1  6  0  0  0
 23 22  1  0  0  0  0
 25 20  1  0  0  0  0
 27 21  1  6  0  0  0
 27 25  1  0  0  0  0
 27 23  1  0  0  0  0
 29 30  2  0  0  0  0
 29 28  1  0  0  0  0
 31 32  1  0  0  0  0
 32 29  1  0  0  0  0
M  END
>  <MODEL>
9

>  <REMARK>
 VINA RESULT:      -6.6      2.752      6.407
  Name = 
  13 active torsions:
  status: ('A' for Active; 'I' for Inactive)
    1  A    between atoms: O_1  and  C_4
    2  A    between atoms: O_1  and  C_5
    3  A    between atoms: C_2  and  C_14
    4  A    between atoms: N_3  and  N_20
    5  A    between atoms: C_4  and  C_24
    6  A    between atoms: C_5  and  C_14
    7  A    between atoms: C_13  and  C_30
    8  A    between atoms: C_14  and  C_30
    9  A    between atoms: C_15  and  N_20
   10  A    between atoms: C_15  and  C_26
   11  A    between atoms: C_16  and  N_20
   12  A    between atoms: C_16  and  C_24
   13  A    between atoms: C_19  and  C_26
                            x       y       z     vdW  Elec       q    Type
                         _______ _______ _______ _____ _____    ______ ____

>  <TORSDO>
F 13

$$$$
