=
 OpenBabel11052415383D

 34 38  0  0  1  0  0  0  0  0999 V2000
  189.1120  177.5790  144.8490 C   0  0  0  0  0  0  0  0  0  0  0  0
  191.5860  177.8290  141.9100 C   0  0  0  0  0  2  0  0  0  0  0  0
  191.7600  177.0120  144.2610 O   0  0  0  0  0  0  0  0  0  0  0  0
  189.8180  176.8640  147.1770 C   0  0  0  0  0  0  0  0  0  0  0  0
  191.0490  176.4940  147.6830 O   0  0  0  0  0  0  0  0  0  0  0  0
  188.8040  177.0740  147.8910 O   0  0  0  0  0  0  0  0  0  0  0  0
  191.1690  176.2940  145.3420 C   0  0  2  0  0  3  0  0  0  0  0  0
  189.8800  176.9220  145.7350 C   0  0  0  0  0  0  0  0  0  0  0  0
  192.0020  176.3280  146.6310 C   0  0  0  0  0  2  0  0  0  0  0  0
  191.0280  176.9210  140.8220 C   0  0  0  0  0  2  0  0  0  0  0  0
  189.7210  177.4780  140.2610 C   0  0  2  0  0  3  0  0  0  0  0  0
  188.5700  177.3510  141.2550 C   0  0  0  0  0  2  0  0  0  0  0  0
  190.9520  177.5290  143.2330 C   0  0  0  0  0  0  0  0  0  0  0  0
  188.7360  178.3270  142.4120 C   0  0  0  0  0  2  0  0  0  0  0  0
  189.6370  177.7600  143.4700 C   0  0  0  0  0  0  0  0  0  0  0  0
  189.3750  176.7680  138.9970 C   0  0  0  0  0  0  0  0  0  0  0  0
  190.1710  175.7280  138.5300 O   0  0  0  0  0  1  0  0  0  0  0  0
  188.3520  177.1110  138.3500 O   0  0  0  0  0  0  0  0  0  0  0  0
  187.8880  178.2240  145.2160 N   0  0  0  0  0  2  0  0  0  0  0  0
  186.6330  177.5060  145.3690 C   0  0  0  0  0  2  0  0  0  0  0  0
  185.5270  178.4530  145.4050 N   0  0  0  0  0  2  0  0  0  0  0  0
  182.2640  178.9520  143.6690 C   0  0  0  0  0  3  0  0  0  0  0  0
  184.9360  178.4250  143.0080 C   0  0  0  0  0  3  0  0  0  0  0  0
  182.0390  178.7560  139.9710 C   0  0  0  0  0  0  0  0  0  0  0  0
  181.6750  178.9100  141.3190 C   0  0  0  0  0  3  0  0  0  0  0  0
  182.6320  178.8010  142.3300 C   0  0  0  0  0  0  0  0  0  0  0  0
  184.3470  178.3810  140.6590 C   0  0  0  0  0  3  0  0  0  0  0  0
  183.9780  178.5360  141.9970 C   0  0  0  0  0  0  0  0  0  0  0  0
  183.3820  178.4910  139.6540 C   0  0  0  0  0  3  0  0  0  0  0  0
  184.5640  178.5730  144.3530 C   0  0  0  0  0  0  0  0  0  0  0  0
  183.2280  178.8380  144.6760 C   0  0  0  0  0  3  0  0  0  0  0  0
  181.0500  178.8690  138.9290 N   0  0  0  0  0  0  0  0  0  0  0  0
  179.7330  178.2650  139.0710 C   0  0  0  0  0  1  0  0  0  0  0  0
  181.3310  179.5900  137.6970 C   0  0  0  0  0  1  0  0  0  0  0  0
  1 19  1  0  0  0  0
  1  8  2  0  0  0  0
  2 13  1  0  0  0  0
  3  7  1  0  0  0  0
  4  5  1  0  0  0  0
  4  6  2  0  0  0  0
  7  8  1  0  0  0  0
  7  9  1  1  0  0  0
  8  4  1  0  0  0  0
  9  5  1  0  0  0  0
 10  2  1  0  0  0  0
 11 16  1  6  0  0  0
 11 10  1  0  0  0  0
 11 12  1  0  0  0  0
 12 14  1  0  0  0  0
 13 15  2  0  0  0  0
 13  3  1  0  0  0  0
 14 15  1  0  0  0  0
 15  1  1  0  0  0  0
 17 16  1  0  0  0  0
 18 16  2  0  0  0  0
 19 20  1  0  0  0  0
 20 21  1  0  0  0  0
 22 31  1  0  0  0  0
 23 30  1  0  0  0  0
 24 25  2  0  0  0  0
 25 26  1  0  0  0  0
 26 22  2  0  0  0  0
 27 28  1  0  0  0  0
 28 26  1  0  0  0  0
 28 23  2  0  0  0  0
 29 24  1  0  0  0  0
 29 27  2  0  0  0  0
 30 31  2  0  0  0  0
 30 21  1  0  0  0  0
 32 33  1  0  0  0  0
 32 24  1  0  0  0  0
 34 32  1  0  0  0  0
M  END
>  <MODEL>
1

>  <REMARK>
 VINA RESULT:      -9.2      0.000      0.000
  Name = 
  6 active torsions:
  status: ('A' for Active; 'I' for Inactive)
    1  A    between atoms: C_1  and  N_9
    2  A    between atoms: C_3  and  C_25
    3  A    between atoms: C_7  and  N_11
    4  A    between atoms: C_8  and  N_9
    5  A    between atoms: C_8  and  N_18
    6  A    between atoms: N_18  and  C_30
                            x       y       z     vdW  Elec       q    Type
                         _______ _______ _______ _____ _____    ______ ____

>  <TORSDO>
F 6

$$$$
=
 OpenBabel11052415383D

 34 38  0  0  1  0  0  0  0  0999 V2000
  190.2100  176.2350  137.7200 C   0  0  0  0  0  0  0  0  0  0  0  0
  186.7860  176.8970  136.0900 C   0  0  0  0  0  2  0  0  0  0  0  0
  188.4010  174.9970  136.0240 O   0  0  0  0  0  0  0  0  0  0  0  0
  191.6160  174.1970  137.1740 C   0  0  0  0  0  0  0  0  0  0  0  0
  191.3920  173.1380  136.3160 O   0  0  0  0  0  0  0  0  0  0  0  0
  192.7150  174.4120  137.7460 O   0  0  0  0  0  0  0  0  0  0  0  0
  189.3100  174.1530  136.7280 C   0  0  2  0  0  3  0  0  0  0  0  0
  190.4010  174.9620  137.3340 C   0  0  0  0  0  0  0  0  0  0  0  0
  190.0500  173.1570  135.8240 C   0  0  0  0  0  2  0  0  0  0  0  0
  185.7970  177.0230  137.2410 C   0  0  0  0  0  2  0  0  0  0  0  0
  186.0710  178.2810  138.0630 C   0  0  2  0  0  3  0  0  0  0  0  0
  187.3480  178.1600  138.8900 C   0  0  0  0  0  2  0  0  0  0  0  0
  188.0600  176.2560  136.5470 C   0  0  0  0  0  0  0  0  0  0  0  0
  188.5830  178.2140  138.0020 C   0  0  0  0  0  2  0  0  0  0  0  0
  188.8940  176.8620  137.4280 C   0  0  0  0  0  0  0  0  0  0  0  0
  184.9140  178.5570  138.9610 C   0  0  0  0  0  0  0  0  0  0  0  0
  184.9460  179.6290  139.8450 O   0  0  0  0  0  1  0  0  0  0  0  0
  183.8990  177.8140  138.9150 O   0  0  0  0  0  0  0  0  0  0  0  0
  191.2570  177.0420  138.2680 N   0  0  0  0  0  2  0  0  0  0  0  0
  191.5660  177.0770  139.6890 C   0  0  0  0  0  2  0  0  0  0  0  0
  190.5670  176.3150  140.4260 N   0  0  0  0  0  2  0  0  0  0  0  0
  190.7110  177.1140  144.0670 C   0  0  0  0  0  3  0  0  0  0  0  0
  188.7840  176.8520  142.0480 C   0  0  0  0  0  3  0  0  0  0  0  0
  187.6060  177.8160  145.9730 C   0  0  0  0  0  0  0  0  0  0  0  0
  188.9640  177.6250  145.6660 C   0  0  0  0  0  3  0  0  0  0  0  0
  189.3600  177.3050  144.3650 C   0  0  0  0  0  0  0  0  0  0  0  0
  187.0390  177.3610  143.6460 C   0  0  0  0  0  3  0  0  0  0  0  0
  188.3890  177.1730  143.3480 C   0  0  0  0  0  0  0  0  0  0  0  0
  186.6510  177.6800  144.9510 C   0  0  0  0  0  3  0  0  0  0  0  0
  190.1420  176.6560  141.7490 C   0  0  0  0  0  0  0  0  0  0  0  0
  191.0990  176.7900  142.7620 C   0  0  0  0  0  3  0  0  0  0  0  0
  187.1990  178.1450  147.3160 N   0  0  0  0  0  0  0  0  0  0  0  0
  188.0340  177.8100  148.4600 C   0  0  0  0  0  1  0  0  0  0  0  0
  185.9400  178.8260  147.5760 C   0  0  0  0  0  1  0  0  0  0  0  0
  1 19  1  0  0  0  0
  2 13  1  0  0  0  0
  2 10  1  0  0  0  0
  3 13  1  0  0  0  0
  3  7  1  0  0  0  0
  4  8  1  0  0  0  0
  4  6  2  0  0  0  0
  5  4  1  0  0  0  0
  7  9  1  6  0  0  0
  7  8  1  0  0  0  0
  8  1  2  0  0  0  0
  9  5  1  0  0  0  0
 10 11  1  0  0  0  0
 11 12  1  0  0  0  0
 11 16  1  1  0  0  0
 13 15  2  0  0  0  0
 14 12  1  0  0  0  0
 15  1  1  0  0  0  0
 15 14  1  0  0  0  0
 16 17  1  0  0  0  0
 18 16  2  0  0  0  0
 19 20  1  0  0  0  0
 20 21  1  0  0  0  0
 21 30  1  0  0  0  0
 22 26  1  0  0  0  0
 23 28  1  0  0  0  0
 24 32  1  0  0  0  0
 25 24  1  0  0  0  0
 26 25  2  0  0  0  0
 27 29  1  0  0  0  0
 28 27  2  0  0  0  0
 28 26  1  0  0  0  0
 29 24  2  0  0  0  0
 30 23  2  0  0  0  0
 30 31  1  0  0  0  0
 31 22  2  0  0  0  0
 32 34  1  0  0  0  0
 32 33  1  0  0  0  0
M  END
>  <MODEL>
2

>  <REMARK>
 VINA RESULT:      -9.0      4.025      7.972
  Name = 
  6 active torsions:
  status: ('A' for Active; 'I' for Inactive)
    1  A    between atoms: C_1  and  N_9
    2  A    between atoms: C_3  and  C_25
    3  A    between atoms: C_7  and  N_11
    4  A    between atoms: C_8  and  N_9
    5  A    between atoms: C_8  and  N_18
    6  A    between atoms: N_18  and  C_30
                            x       y       z     vdW  Elec       q    Type
                         _______ _______ _______ _____ _____    ______ ____

>  <TORSDO>
F 6

$$$$
=
 OpenBabel11052415383D

 34 38  0  0  1  0  0  0  0  0999 V2000
  184.5140  178.3840  139.9950 C   0  0  0  0  0  0  0  0  0  0  0  0
  182.5750  179.1940  143.2210 C   0  0  0  0  0  2  0  0  0  0  0  0
  181.9650  178.1240  141.0520 O   0  0  0  0  0  0  0  0  0  0  0  0
  183.3910  177.4630  137.9170 C   0  0  0  0  0  0  0  0  0  0  0  0
  182.0720  177.1450  137.6580 O   0  0  0  0  0  0  0  0  0  0  0  0
  184.2870  177.4970  137.0350 O   0  0  0  0  0  0  0  0  0  0  0  0
  182.3220  177.2350  139.9960 C   0  0  2  0  0  3  0  0  0  0  0  0
  183.5690  177.6960  139.3310 C   0  0  0  0  0  0  0  0  0  0  0  0
  181.2940  177.1890  138.8560 C   0  0  0  0  0  2  0  0  0  0  0  0
  183.2400  178.3760  144.3190 C   0  0  0  0  0  2  0  0  0  0  0  0
  184.6560  178.8780  144.5960 C   0  0  2  0  0  3  0  0  0  0  0  0
  185.6180  178.5350  143.4620 C   0  0  0  0  0  2  0  0  0  0  0  0
  182.9630  178.6860  141.8670 C   0  0  0  0  0  0  0  0  0  0  0  0
  185.3320  179.3790  142.2270 C   0  0  0  0  0  2  0  0  0  0  0  0
  184.2340  178.7710  141.4030 C   0  0  0  0  0  0  0  0  0  0  0  0
  185.1550  178.2950  145.8740 C   0  0  0  0  0  0  0  0  0  0  0  0
  184.5560  178.6280  147.0830 O   0  0  0  0  0  1  0  0  0  0  0  0
  186.1240  177.4930  145.8560 O   0  0  0  0  0  0  0  0  0  0  0  0
  185.7020  178.8710  139.3630 N   0  0  0  0  0  2  0  0  0  0  0  0
  186.8350  178.0170  139.0490 C   0  0  0  0  0  2  0  0  0  0  0  0
  188.0610  178.6230  139.5480 N   0  0  0  0  0  2  0  0  0  0  0  0
  190.5910  176.5660  141.3590 C   0  0  0  0  0  3  0  0  0  0  0  0
  188.5940  178.4410  141.9520 C   0  0  0  0  0  3  0  0  0  0  0  0
  190.8720  176.7350  145.0550 C   0  0  0  0  0  0  0  0  0  0  0  0
  191.1070  176.3710  143.7190 C   0  0  0  0  0  3  0  0  0  0  0  0
  190.3540  176.9340  142.6860 C   0  0  0  0  0  0  0  0  0  0  0  0
  189.1090  178.2450  144.3100 C   0  0  0  0  0  3  0  0  0  0  0  0
  189.3480  177.8790  142.9850 C   0  0  0  0  0  0  0  0  0  0  0  0
  189.8660  177.6760  145.3380 C   0  0  0  0  0  3  0  0  0  0  0  0
  188.8300  178.0670  140.6200 C   0  0  0  0  0  0  0  0  0  0  0  0
  189.8300  177.1320  140.3310 C   0  0  0  0  0  3  0  0  0  0  0  0
  191.6490  176.1530  146.1200 N   0  0  0  0  0  0  0  0  0  0  0  0
  192.4300  174.9440  145.9080 C   0  0  0  0  0  1  0  0  0  0  0  0
  191.6810  176.7530  147.4450 C   0  0  0  0  0  1  0  0  0  0  0  0
  1 15  1  0  0  0  0
  2 10  1  0  0  0  0
  3 13  1  0  0  0  0
  4  8  1  0  0  0  0
  5  4  1  0  0  0  0
  5  9  1  0  0  0  0
  6  4  2  0  0  0  0
  7  9  1  6  0  0  0
  7  3  1  0  0  0  0
  8  1  2  0  0  0  0
  8  7  1  0  0  0  0
 10 11  1  0  0  0  0
 11 16  1  1  0  0  0
 12 11  1  0  0  0  0
 13  2  1  0  0  0  0
 14 12  1  0  0  0  0
 15 13  2  0  0  0  0
 15 14  1  0  0  0  0
 16 17  1  0  0  0  0
 18 16  2  0  0  0  0
 19  1  1  0  0  0  0
 20 19  1  0  0  0  0
 20 21  1  0  0  0  0
 21 30  1  0  0  0  0
 22 26  1  0  0  0  0
 23 28  1  0  0  0  0
 24 29  1  0  0  0  0
 24 32  1  0  0  0  0
 25 24  2  0  0  0  0
 26 28  2  0  0  0  0
 26 25  1  0  0  0  0
 27 29  2  0  0  0  0
 28 27  1  0  0  0  0
 30 23  2  0  0  0  0
 31 30  1  0  0  0  0
 31 22  2  0  0  0  0
 32 34  1  0  0  0  0
 33 32  1  0  0  0  0
M  END
>  <MODEL>
3

>  <REMARK>
 VINA RESULT:      -8.8      2.711      9.187
  Name = 
  6 active torsions:
  status: ('A' for Active; 'I' for Inactive)
    1  A    between atoms: C_1  and  N_9
    2  A    between atoms: C_3  and  C_25
    3  A    between atoms: C_7  and  N_11
    4  A    between atoms: C_8  and  N_9
    5  A    between atoms: C_8  and  N_18
    6  A    between atoms: N_18  and  C_30
                            x       y       z     vdW  Elec       q    Type
                         _______ _______ _______ _____ _____    ______ ____

>  <TORSDO>
F 6

$$$$
=
 OpenBabel11052415383D

 34 38  0  0  1  0  0  0  0  0999 V2000
  182.4190  178.8190  141.7720 C   0  0  0  0  0  0  0  0  0  0  0  0
  183.7560  177.3790  138.4620 C   0  0  0  0  0  2  0  0  0  0  0  0
  181.6060  178.4390  139.1500 O   0  0  0  0  0  0  0  0  0  0  0  0
  180.0280  179.6160  142.0520 C   0  0  0  0  0  0  0  0  0  0  0  0
  178.9700  179.6540  141.1650 O   0  0  0  0  0  0  0  0  0  0  0  0
  179.9150  179.8400  143.2850 O   0  0  0  0  0  0  0  0  0  0  0  0
  180.9390  179.4570  139.8930 C   0  0  2  0  0  3  0  0  0  0  0  0
  181.2520  179.3280  141.3410 C   0  0  0  0  0  0  0  0  0  0  0  0
  179.4080  179.3570  139.8380 C   0  0  0  0  0  2  0  0  0  0  0  0
  184.9530  178.2430  138.0890 C   0  0  0  0  0  2  0  0  0  0  0  0
  186.1010  178.0450  139.0750 C   0  0  2  0  0  3  0  0  0  0  0  0
  185.8030  178.6690  140.4360 C   0  0  0  0  0  2  0  0  0  0  0  0
  182.9120  178.0540  139.4980 C   0  0  0  0  0  0  0  0  0  0  0  0
  184.7420  177.8730  141.1830 C   0  0  0  0  0  2  0  0  0  0  0  0
  183.3620  178.2810  140.7570 C   0  0  0  0  0  0  0  0  0  0  0  0
  187.3520  178.6320  138.5150 C   0  0  0  0  0  0  0  0  0  0  0  0
  188.4960  178.7340  139.2990 O   0  0  0  0  0  1  0  0  0  0  0  0
  187.3720  179.0350  137.3240 O   0  0  0  0  0  0  0  0  0  0  0  0
  182.7220  178.6490  143.1610 N   0  0  0  0  0  2  0  0  0  0  0  0
  183.2880  179.7090  143.9790 C   0  0  0  0  0  2  0  0  0  0  0  0
  183.6450  179.1800  145.2880 N   0  0  0  0  0  2  0  0  0  0  0  0
  186.6620  178.3060  147.3000 C   0  0  0  0  0  3  0  0  0  0  0  0
  185.8350  178.2540  144.6220 C   0  0  0  0  0  3  0  0  0  0  0  0
  189.7020  176.9510  145.6600 C   0  0  0  0  0  0  0  0  0  0  0  0
  188.8180  177.4130  146.6500 C   0  0  0  0  0  3  0  0  0  0  0  0
  187.5340  177.8460  146.3110 C   0  0  0  0  0  0  0  0  0  0  0  0
  187.9900  177.3630  143.9730 C   0  0  0  0  0  3  0  0  0  0  0  0
  187.1180  177.8190  144.9620 C   0  0  0  0  0  0  0  0  0  0  0  0
  189.2740  176.9320  144.3210 C   0  0  0  0  0  3  0  0  0  0  0  0
  184.9600  178.7200  145.6160 C   0  0  0  0  0  0  0  0  0  0  0  0
  185.3780  178.7420  146.9520 C   0  0  0  0  0  3  0  0  0  0  0  0
  191.0260  176.5050  146.0110 N   0  0  0  0  0  0  0  0  0  0  0  0
  191.5250  176.6260  147.3730 C   0  0  0  0  0  1  0  0  0  0  0  0
  191.9120  175.9180  145.0180 C   0  0  0  0  0  1  0  0  0  0  0  0
  1 19  1  0  0  0  0
  2 13  1  0  0  0  0
  3 13  1  0  0  0  0
  3  7  1  0  0  0  0
  4  6  2  0  0  0  0
  5  4  1  0  0  0  0
  7  9  1  1  0  0  0
  7  8  1  0  0  0  0
  8  1  2  0  0  0  0
  8  4  1  0  0  0  0
  9  5  1  0  0  0  0
 10  2  1  0  0  0  0
 10 11  1  0  0  0  0
 11 16  1  6  0  0  0
 11 12  1  0  0  0  0
 12 14  1  0  0  0  0
 13 15  2  0  0  0  0
 15 14  1  0  0  0  0
 15  1  1  0  0  0  0
 16 17  1  0  0  0  0
 18 16  2  0  0  0  0
 19 20  1  0  0  0  0
 20 21  1  0  0  0  0
 21 30  1  0  0  0  0
 23 28  2  0  0  0  0
 23 30  1  0  0  0  0
 24 32  1  0  0  0  0
 24 25  2  0  0  0  0
 26 25  1  0  0  0  0
 26 22  2  0  0  0  0
 27 29  2  0  0  0  0
 27 28  1  0  0  0  0
 28 26  1  0  0  0  0
 29 24  1  0  0  0  0
 30 31  2  0  0  0  0
 31 22  1  0  0  0  0
 32 33  1  0  0  0  0
 34 32  1  0  0  0  0
M  END
>  <MODEL>
4

>  <REMARK>
 VINA RESULT:      -8.8      3.208      8.333
  Name = 
  6 active torsions:
  status: ('A' for Active; 'I' for Inactive)
    1  A    between atoms: C_1  and  N_9
    2  A    between atoms: C_3  and  C_25
    3  A    between atoms: C_7  and  N_11
    4  A    between atoms: C_8  and  N_9
    5  A    between atoms: C_8  and  N_18
    6  A    between atoms: N_18  and  C_30
                            x       y       z     vdW  Elec       q    Type
                         _______ _______ _______ _____ _____    ______ ____

>  <TORSDO>
F 6

$$$$
=
 OpenBabel11052415383D

 34 38  0  0  1  0  0  0  0  0999 V2000
  189.4070  176.9460  144.9740 C   0  0  0  0  0  0  0  0  0  0  0  0
  185.6190  177.4800  145.4070 C   0  0  0  0  0  2  0  0  0  0  0  0
  187.5940  177.7680  146.9030 O   0  0  0  0  0  0  0  0  0  0  0  0
  191.0490  177.1690  146.8920 C   0  0  0  0  0  0  0  0  0  0  0  0
  190.8590  177.4830  148.2240 O   0  0  0  0  0  0  0  0  0  0  0  0
  192.1400  176.7540  146.4220 O   0  0  0  0  0  0  0  0  0  0  0  0
  188.9450  178.1980  147.0590 C   0  0  2  0  0  3  0  0  0  0  0  0
  189.8390  177.4320  146.1500 C   0  0  0  0  0  0  0  0  0  0  0  0
  189.5200  177.9250  148.4560 C   0  0  0  0  0  2  0  0  0  0  0  0
  185.2400  178.5740  144.4180 C   0  0  0  0  0  2  0  0  0  0  0  0
  185.3880  178.0860  142.9790 C   0  0  2  0  0  3  0  0  0  0  0  0
  186.8510  177.9300  142.5730 C   0  0  0  0  0  2  0  0  0  0  0  0
  187.1000  177.4470  145.6270 C   0  0  0  0  0  0  0  0  0  0  0  0
  187.4870  176.7330  143.2680 C   0  0  0  0  0  2  0  0  0  0  0  0
  187.9660  177.1010  144.6430 C   0  0  0  0  0  0  0  0  0  0  0  0
  184.7080  179.0370  142.0530 C   0  0  0  0  0  0  0  0  0  0  0  0
  185.4230  179.6720  141.0440 O   0  0  0  0  0  0  0  0  0  0  0  0
  183.4780  179.2630  142.1860 O   0  0  0  0  0  1  0  0  0  0  0  0
  190.2400  176.1720  144.1050 N   0  0  0  0  0  2  0  0  0  0  0  0
  191.4170  176.7180  143.4490 C   0  0  0  0  0  2  0  0  0  0  0  0
  191.0220  177.7810  142.5360 N   0  0  0  0  0  2  0  0  0  0  0  0
  191.2200  176.7410  138.9600 C   0  0  0  0  0  3  0  0  0  0  0  0
  189.3570  177.8830  140.7150 C   0  0  0  0  0  3  0  0  0  0  0  0
  188.3170  177.1940  136.6940 C   0  0  0  0  0  0  0  0  0  0  0  0
  189.5970  176.8530  137.1650 C   0  0  0  0  0  3  0  0  0  0  0  0
  189.9460  177.0790  138.4980 C   0  0  0  0  0  0  0  0  0  0  0  0
  187.7360  177.9960  138.9210 C   0  0  0  0  0  3  0  0  0  0  0  0
  189.0080  177.6550  139.3820 C   0  0  0  0  0  0  0  0  0  0  0  0
  187.3940  177.7670  137.5850 C   0  0  0  0  0  3  0  0  0  0  0  0
  190.6390  177.5460  141.1770 C   0  0  0  0  0  0  0  0  0  0  0  0
  191.5640  176.9740  140.2960 C   0  0  0  0  0  3  0  0  0  0  0  0
  187.9580  176.9600  135.3180 N   0  0  0  0  0  0  0  0  0  0  0  0
  187.0970  177.8840  134.5960 C   0  0  0  0  0  1  0  0  0  0  0  0
  188.4450  175.7920  134.6000 C   0  0  0  0  0  1  0  0  0  0  0  0
  1  8  2  0  0  0  0
  2 13  1  0  0  0  0
  3  7  1  0  0  0  0
  4  5  1  0  0  0  0
  5  9  1  0  0  0  0
  6  4  2  0  0  0  0
  7  9  1  1  0  0  0
  8  4  1  0  0  0  0
  8  7  1  0  0  0  0
 10  2  1  0  0  0  0
 11 16  1  6  0  0  0
 11 10  1  0  0  0  0
 12 11  1  0  0  0  0
 12 14  1  0  0  0  0
 13  3  1  0  0  0  0
 14 15  1  0  0  0  0
 15  1  1  0  0  0  0
 15 13  2  0  0  0  0
 16 18  1  0  0  0  0
 17 16  2  0  0  0  0
 19  1  1  0  0  0  0
 20 19  1  0  0  0  0
 21 20  1  0  0  0  0
 22 31  1  0  0  0  0
 23 30  1  0  0  0  0
 24 25  2  0  0  0  0
 24 29  1  0  0  0  0
 25 26  1  0  0  0  0
 26 22  2  0  0  0  0
 26 28  1  0  0  0  0
 27 28  1  0  0  0  0
 28 23  2  0  0  0  0
 29 27  2  0  0  0  0
 30 21  1  0  0  0  0
 31 30  2  0  0  0  0
 32 24  1  0  0  0  0
 33 32  1  0  0  0  0
 34 32  1  0  0  0  0
M  END
>  <MODEL>
5

>  <REMARK>
 VINA RESULT:      -8.7      3.044      5.911
  Name = 
  6 active torsions:
  status: ('A' for Active; 'I' for Inactive)
    1  A    between atoms: C_1  and  N_9
    2  A    between atoms: C_3  and  C_25
    3  A    between atoms: C_7  and  N_11
    4  A    between atoms: C_8  and  N_9
    5  A    between atoms: C_8  and  N_18
    6  A    between atoms: N_18  and  C_30
                            x       y       z     vdW  Elec       q    Type
                         _______ _______ _______ _____ _____    ______ ____

>  <TORSDO>
F 6

$$$$
=
 OpenBabel11052415383D

 34 38  0  0  1  0  0  0  0  0999 V2000
  185.6380  177.9240  138.2180 C   0  0  0  0  0  0  0  0  0  0  0  0
  182.5040  179.3430  139.9460 C   0  0  0  0  0  2  0  0  0  0  0  0
  182.8900  178.0210  137.8660 O   0  0  0  0  0  0  0  0  0  0  0  0
  185.5590  176.8020  135.9450 C   0  0  0  0  0  0  0  0  0  0  0  0
  184.5060  176.5550  135.0870 O   0  0  0  0  0  0  0  0  0  0  0  0
  186.7670  176.6380  135.6350 O   0  0  0  0  0  0  0  0  0  0  0  0
  183.5890  176.9620  137.2140 C   0  0  2  0  0  3  0  0  0  0  0  0
  185.0530  177.2230  137.2310 C   0  0  0  0  0  0  0  0  0  0  0  0
  183.2560  176.8330  135.7210 C   0  0  0  0  0  2  0  0  0  0  0  0
  182.4240  178.6430  141.2960 C   0  0  0  0  0  2  0  0  0  0  0  0
  183.5770  179.0670  142.2020 C   0  0  2  0  0  3  0  0  0  0  0  0
  184.9120  178.4890  141.7420 C   0  0  0  0  0  2  0  0  0  0  0  0
  183.4290  178.6150  139.0200 C   0  0  0  0  0  0  0  0  0  0  0  0
  185.3890  179.1640  140.4630 C   0  0  0  0  0  2  0  0  0  0  0  0
  184.7620  178.5320  139.2540 C   0  0  0  0  0  0  0  0  0  0  0  0
  183.2990  178.6380  143.6030 C   0  0  0  0  0  0  0  0  0  0  0  0
  184.3400  178.2740  144.4490 O   0  0  0  0  0  1  0  0  0  0  0  0
  182.1130  178.6080  144.0210 O   0  0  0  0  0  0  0  0  0  0  0  0
  187.0380  178.2190  138.2300 N   0  0  0  0  0  2  0  0  0  0  0  0
  188.0500  177.2310  138.5680 C   0  0  0  0  0  2  0  0  0  0  0  0
  189.1680  177.8820  139.2360 N   0  0  0  0  0  2  0  0  0  0  0  0
  191.0790  177.2360  142.3730 C   0  0  0  0  0  3  0  0  0  0  0  0
  188.4510  177.8260  141.5980 C   0  0  0  0  0  3  0  0  0  0  0  0
  189.3730  177.2710  145.6680 C   0  0  0  0  0  0  0  0  0  0  0  0
  190.3770  177.1630  144.6910 C   0  0  0  0  0  3  0  0  0  0  0  0
  190.0770  177.3470  143.3390 C   0  0  0  0  0  0  0  0  0  0  0  0
  187.7500  177.7510  143.9140 C   0  0  0  0  0  3  0  0  0  0  0  0
  188.7520  177.6440  142.9490 C   0  0  0  0  0  0  0  0  0  0  0  0
  188.0590  177.5660  145.2640 C   0  0  0  0  0  3  0  0  0  0  0  0
  189.4580  177.7100  140.6270 C   0  0  0  0  0  0  0  0  0  0  0  0
  190.7690  177.4180  141.0210 C   0  0  0  0  0  3  0  0  0  0  0  0
  189.6850  177.0810  147.0620 N   0  0  0  0  0  0  0  0  0  0  0  0
  188.6620  177.2150  148.0880 C   0  0  0  0  0  1  0  0  0  0  0  0
  191.0340  176.7480  147.4940 C   0  0  0  0  0  1  0  0  0  0  0  0
  1 19  1  0  0  0  0
  1 15  1  0  0  0  0
  2 10  1  0  0  0  0
  3 13  1  0  0  0  0
  4  8  1  0  0  0  0
  5  9  1  0  0  0  0
  5  4  1  0  0  0  0
  6  4  2  0  0  0  0
  7  9  1  6  0  0  0
  7  8  1  0  0  0  0
  7  3  1  0  0  0  0
  8  1  2  0  0  0  0
 10 11  1  0  0  0  0
 11 16  1  1  0  0  0
 12 11  1  0  0  0  0
 13 15  2  0  0  0  0
 13  2  1  0  0  0  0
 14 12  1  0  0  0  0
 15 14  1  0  0  0  0
 16 18  2  0  0  0  0
 16 17  1  0  0  0  0
 19 20  1  0  0  0  0
 20 21  1  0  0  0  0
 21 30  1  0  0  0  0
 22 26  1  0  0  0  0
 23 28  1  0  0  0  0
 24 32  1  0  0  0  0
 25 24  2  0  0  0  0
 26 25  1  0  0  0  0
 27 29  2  0  0  0  0
 28 26  2  0  0  0  0
 28 27  1  0  0  0  0
 29 24  1  0  0  0  0
 30 31  1  0  0  0  0
 30 23  2  0  0  0  0
 31 22  2  0  0  0  0
 32 34  1  0  0  0  0
 32 33  1  0  0  0  0
M  END
>  <MODEL>
6

>  <REMARK>
 VINA RESULT:      -8.5      3.114      9.173
  Name = 
  6 active torsions:
  status: ('A' for Active; 'I' for Inactive)
    1  A    between atoms: C_1  and  N_9
    2  A    between atoms: C_3  and  C_25
    3  A    between atoms: C_7  and  N_11
    4  A    between atoms: C_8  and  N_9
    5  A    between atoms: C_8  and  N_18
    6  A    between atoms: N_18  and  C_30
                            x       y       z     vdW  Elec       q    Type
                         _______ _______ _______ _____ _____    ______ ____

>  <TORSDO>
F 6

$$$$
=
 OpenBabel11052415383D

 34 38  0  0  1  0  0  0  0  0999 V2000
  181.1370  179.0970  139.6070 C   0  0  0  0  0  0  0  0  0  0  0  0
  182.2170  177.6940  136.1890 C   0  0  0  0  0  2  0  0  0  0  0  0
  181.2220  179.8530  136.9420 O   0  0  0  0  0  0  0  0  0  0  0  0
  179.9450  181.3210  139.8590 C   0  0  0  0  0  0  0  0  0  0  0  0
  179.5520  182.2560  138.9220 O   0  0  0  0  0  0  0  0  0  0  0  0
  179.5990  181.3560  141.0690 O   0  0  0  0  0  0  0  0  0  0  0  0
  181.1860  180.8990  137.9100 C   0  0  2  0  0  3  0  0  0  0  0  0
  180.8250  180.3540  139.2460 C   0  0  0  0  0  0  0  0  0  0  0  0
  180.1020  181.9520  137.6390 C   0  0  0  0  0  2  0  0  0  0  0  0
  183.7180  177.4640  136.2920 C   0  0  0  0  0  2  0  0  0  0  0  0
  184.0340  176.3400  137.2760 C   0  0  2  0  0  3  0  0  0  0  0  0
  183.7820  176.7560  138.7230 C   0  0  0  0  0  2  0  0  0  0  0  0
  181.7370  178.5920  137.2870 C   0  0  0  0  0  0  0  0  0  0  0  0
  182.2910  176.8730  139.0070 C   0  0  0  0  0  2  0  0  0  0  0  0
  181.7670  178.2160  138.5890 C   0  0  0  0  0  0  0  0  0  0  0  0
  185.4540  175.9140  137.1150 C   0  0  0  0  0  0  0  0  0  0  0  0
  186.4670  176.8600  137.0130 O   0  0  0  0  0  0  0  0  0  0  0  0
  185.7360  174.6890  137.0740 O   0  0  0  0  0  1  0  0  0  0  0  0
  180.7640  178.5420  140.8720 N   0  0  0  0  0  2  0  0  0  0  0  0
  181.4400  178.8810  142.1130 C   0  0  0  0  0  2  0  0  0  0  0  0
  182.8820  178.7830  141.9300 N   0  0  0  0  0  2  0  0  0  0  0  0
  184.2870  178.8700  145.3830 C   0  0  0  0  0  3  0  0  0  0  0  0
  185.0910  178.1140  142.8060 C   0  0  0  0  0  3  0  0  0  0  0  0
  187.7540  177.7240  146.0440 C   0  0  0  0  0  0  0  0  0  0  0  0
  186.4590  178.2320  146.2460 C   0  0  0  0  0  3  0  0  0  0  0  0
  185.5720  178.3620  145.1760 C   0  0  0  0  0  0  0  0  0  0  0  0
  187.2620  177.4780  143.6690 C   0  0  0  0  0  3  0  0  0  0  0  0
  185.9770  177.9820  143.8780 C   0  0  0  0  0  0  0  0  0  0  0  0
  188.1440  177.3500  144.7460 C   0  0  0  0  0  3  0  0  0  0  0  0
  183.8010  178.6280  143.0150 C   0  0  0  0  0  0  0  0  0  0  0  0
  183.4060  179.0020  144.3050 C   0  0  0  0  0  3  0  0  0  0  0  0
  188.6680  177.5900  147.1500 N   0  0  0  0  0  0  0  0  0  0  0  0
  190.0100  177.0610  146.9580 C   0  0  0  0  0  1  0  0  0  0  0  0
  188.2830  177.9780  148.4980 C   0  0  0  0  0  1  0  0  0  0  0  0
  1 19  1  0  0  0  0
  2 10  1  0  0  0  0
  2 13  1  0  0  0  0
  3 13  1  0  0  0  0
  3  7  1  0  0  0  0
  4  6  2  0  0  0  0
  5  4  1  0  0  0  0
  7  9  1  6  0  0  0
  7  8  1  0  0  0  0
  8  1  2  0  0  0  0
  8  4  1  0  0  0  0
  9  5  1  0  0  0  0
 10 11  1  0  0  0  0
 11 16  1  1  0  0  0
 11 12  1  0  0  0  0
 12 14  1  0  0  0  0
 13 15  2  0  0  0  0
 15 14  1  0  0  0  0
 15  1  1  0  0  0  0
 17 16  2  0  0  0  0
 18 16  1  0  0  0  0
 19 20  1  0  0  0  0
 21 20  1  0  0  0  0
 21 30  1  0  0  0  0
 23 30  2  0  0  0  0
 23 28  1  0  0  0  0
 24 25  1  0  0  0  0
 24 32  1  0  0  0  0
 26 22  1  0  0  0  0
 26 25  2  0  0  0  0
 27 28  2  0  0  0  0
 27 29  1  0  0  0  0
 28 26  1  0  0  0  0
 29 24  2  0  0  0  0
 30 31  1  0  0  0  0
 31 22  2  0  0  0  0
 32 34  1  0  0  0  0
 33 32  1  0  0  0  0
M  END
>  <MODEL>
7

>  <REMARK>
 VINA RESULT:      -8.4      3.929      9.057
  Name = 
  6 active torsions:
  status: ('A' for Active; 'I' for Inactive)
    1  A    between atoms: C_1  and  N_9
    2  A    between atoms: C_3  and  C_25
    3  A    between atoms: C_7  and  N_11
    4  A    between atoms: C_8  and  N_9
    5  A    between atoms: C_8  and  N_18
    6  A    between atoms: N_18  and  C_30
                            x       y       z     vdW  Elec       q    Type
                         _______ _______ _______ _____ _____    ______ ____

>  <TORSDO>
F 6

$$$$
=
 OpenBabel11052415383D

 34 38  0  0  1  0  0  0  0  0999 V2000
  186.8270  177.6370  137.4870 C   0  0  0  0  0  0  0  0  0  0  0  0
  183.0950  177.4410  138.4120 C   0  0  0  0  0  2  0  0  0  0  0  0
  184.6220  176.0170  137.0470 O   0  0  0  0  0  0  0  0  0  0  0  0
  187.9180  176.0360  135.8510 C   0  0  0  0  0  0  0  0  0  0  0  0
  187.4030  174.9750  135.1330 O   0  0  0  0  0  0  0  0  0  0  0  0
  189.0680  176.5120  135.6670 O   0  0  0  0  0  0  0  0  0  0  0  0
  185.9060  175.4170  136.8930 C   0  0  2  0  0  3  0  0  0  0  0  0
  186.9620  176.4630  136.8460 C   0  0  0  0  0  0  0  0  0  0  0  0
  186.0780  174.6620  135.5670 C   0  0  0  0  0  2  0  0  0  0  0  0
  183.0530  177.2870  139.9260 C   0  0  0  0  0  2  0  0  0  0  0  0
  183.5450  178.5540  140.6210 C   0  0  2  0  0  3  0  0  0  0  0  0
  185.0520  178.7430  140.4680 C   0  0  0  0  0  2  0  0  0  0  0  0
  184.4620  177.1360  137.8820 C   0  0  0  0  0  0  0  0  0  0  0  0
  185.4140  179.1300  139.0410 C   0  0  0  0  0  2  0  0  0  0  0  0
  185.5350  177.9150  138.1680 C   0  0  0  0  0  0  0  0  0  0  0  0
  183.1880  178.5060  142.0670 C   0  0  0  0  0  0  0  0  0  0  0  0
  184.1620  178.2570  143.0270 O   0  0  0  0  0  1  0  0  0  0  0  0
  181.9960  178.6960  142.4210 O   0  0  0  0  0  0  0  0  0  0  0  0
  187.8140  178.6710  137.4210 N   0  0  0  0  0  2  0  0  0  0  0  0
  188.9560  178.7310  138.3190 C   0  0  0  0  0  2  0  0  0  0  0  0
  189.0810  177.4710  139.0380 N   0  0  0  0  0  2  0  0  0  0  0  0
  190.9910  177.1030  142.2210 C   0  0  0  0  0  3  0  0  0  0  0  0
  188.3430  177.5100  141.3940 C   0  0  0  0  0  3  0  0  0  0  0  0
  189.2520  177.2320  145.4960 C   0  0  0  0  0  0  0  0  0  0  0  0
  190.2700  177.1230  144.5340 C   0  0  0  0  0  3  0  0  0  0  0  0
  189.9740  177.2150  143.1720 C   0  0  0  0  0  0  0  0  0  0  0  0
  187.6240  177.5280  143.7060 C   0  0  0  0  0  3  0  0  0  0  0  0
  188.6400  177.4200  142.7560 C   0  0  0  0  0  0  0  0  0  0  0  0
  187.9280  177.4350  145.0670 C   0  0  0  0  0  3  0  0  0  0  0  0
  189.3650  177.3930  140.4390 C   0  0  0  0  0  0  0  0  0  0  0  0
  190.6850  177.1920  140.8580 C   0  0  0  0  0  3  0  0  0  0  0  0
  189.5590  177.1370  146.9010 N   0  0  0  0  0  0  0  0  0  0  0  0
  190.8850  176.7490  147.3570 C   0  0  0  0  0  1  0  0  0  0  0  0
  188.5550  177.4250  147.9130 C   0  0  0  0  0  1  0  0  0  0  0  0
  1 15  1  0  0  0  0
  2 10  1  0  0  0  0
  3 13  1  0  0  0  0
  4  8  1  0  0  0  0
  5  9  1  0  0  0  0
  5  4  1  0  0  0  0
  6  4  2  0  0  0  0
  7  9  1  6  0  0  0
  7  3  1  0  0  0  0
  8  7  1  0  0  0  0
  8  1  2  0  0  0  0
 10 11  1  0  0  0  0
 11 16  1  1  0  0  0
 12 11  1  0  0  0  0
 13 15  2  0  0  0  0
 13  2  1  0  0  0  0
 14 12  1  0  0  0  0
 15 14  1  0  0  0  0
 16 18  2  0  0  0  0
 16 17  1  0  0  0  0
 19  1  1  0  0  0  0
 19 20  1  0  0  0  0
 20 21  1  0  0  0  0
 21 30  1  0  0  0  0
 22 26  1  0  0  0  0
 23 28  1  0  0  0  0
 24 32  1  0  0  0  0
 25 24  2  0  0  0  0
 26 25  1  0  0  0  0
 27 29  2  0  0  0  0
 28 26  2  0  0  0  0
 28 27  1  0  0  0  0
 29 24  1  0  0  0  0
 30 31  1  0  0  0  0
 30 23  2  0  0  0  0
 31 22  2  0  0  0  0
 32 33  1  0  0  0  0
 32 34  1  0  0  0  0
M  END
>  <MODEL>
8

>  <REMARK>
 VINA RESULT:      -8.4      3.235      8.884
  Name = 
  6 active torsions:
  status: ('A' for Active; 'I' for Inactive)
    1  A    between atoms: C_1  and  N_9
    2  A    between atoms: C_3  and  C_25
    3  A    between atoms: C_7  and  N_11
    4  A    between atoms: C_8  and  N_9
    5  A    between atoms: C_8  and  N_18
    6  A    between atoms: N_18  and  C_30
                            x       y       z     vdW  Elec       q    Type
                         _______ _______ _______ _____ _____    ______ ____

>  <TORSDO>
F 6

$$$$
=
 OpenBabel11052415383D

 34 38  0  0  1  0  0  0  0  0999 V2000
  187.6580  177.9890  144.1240 C   0  0  0  0  0  0  0  0  0  0  0  0
  189.3990  178.1230  147.5550 C   0  0  0  0  0  2  0  0  0  0  0  0
  187.0160  178.1240  146.8170 O   0  0  0  0  0  0  0  0  0  0  0  0
  185.1500  178.2390  143.8510 C   0  0  0  0  0  0  0  0  0  0  0  0
  184.1460  178.4330  144.7800 O   0  0  0  0  0  0  0  0  0  0  0  0
  184.9770  178.3240  142.6080 O   0  0  0  0  0  0  0  0  0  0  0  0
  186.0190  177.6070  145.9390 C   0  0  2  0  0  3  0  0  0  0  0  0
  186.3790  177.8900  144.5250 C   0  0  0  0  0  0  0  0  0  0  0  0
  184.6450  178.2710  146.1090 C   0  0  0  0  0  2  0  0  0  0  0  0
  190.1620  176.8120  147.6830 C   0  0  0  0  0  2  0  0  0  0  0  0
  191.3120  176.7470  146.6810 C   0  0  2  0  0  3  0  0  0  0  0  0
  190.8160  176.5670  145.2490 C   0  0  0  0  0  2  0  0  0  0  0  0
  188.3750  178.0420  146.4660 C   0  0  0  0  0  0  0  0  0  0  0  0
  190.1580  177.8390  144.7330 C   0  0  0  0  0  2  0  0  0  0  0  0
  188.7210  177.9130  145.1610 C   0  0  0  0  0  0  0  0  0  0  0  0
  192.2300  175.6290  147.0400 C   0  0  0  0  0  0  0  0  0  0  0  0
  192.4580  174.5880  146.1480 O   0  0  0  0  0  0  0  0  0  0  0  0
  192.8040  175.6300  148.1600 O   0  0  0  0  0  1  0  0  0  0  0  0
  188.0240  178.3020  142.7760 N   0  0  0  0  0  2  0  0  0  0  0  0
  188.3040  177.2820  141.7790 C   0  0  0  0  0  2  0  0  0  0  0  0
  188.3990  177.8960  140.4620 N   0  0  0  0  0  2  0  0  0  0  0  0
  189.4390  176.4750  137.1740 C   0  0  0  0  0  3  0  0  0  0  0  0
  190.6220  177.2740  139.5860 C   0  0  0  0  0  3  0  0  0  0  0  0
  193.0060  175.7270  136.4800 C   0  0  0  0  0  0  0  0  0  0  0  0
  191.6150  175.8470  136.3160 C   0  0  0  0  0  3  0  0  0  0  0  0
  190.8200  176.3600  137.3430 C   0  0  0  0  0  0  0  0  0  0  0  0
  192.7970  176.6450  138.7280 C   0  0  0  0  0  3  0  0  0  0  0  0
  191.4170  176.7630  138.5580 C   0  0  0  0  0  0  0  0  0  0  0  0
  193.5860  176.1310  137.6950 C   0  0  0  0  0  3  0  0  0  0  0  0
  189.2330  177.3850  139.4170 C   0  0  0  0  0  0  0  0  0  0  0  0
  188.6480  176.9860  138.2100 C   0  0  0  0  0  3  0  0  0  0  0  0
  193.8250  175.1970  135.4190 N   0  0  0  0  0  0  0  0  0  0  0  0
  195.1260  175.7720  135.1120 C   0  0  0  0  0  1  0  0  0  0  0  0
  193.3810  174.0680  134.6160 C   0  0  0  0  0  1  0  0  0  0  0  0
  1  8  2  0  0  0  0
  1 15  1  0  0  0  0
  2 10  1  0  0  0  0
  4  8  1  0  0  0  0
  4  5  1  0  0  0  0
  5  9  1  0  0  0  0
  6  4  2  0  0  0  0
  7  9  1  1  0  0  0
  7  3  1  0  0  0  0
  8  7  1  0  0  0  0
 11 16  1  1  0  0  0
 11 10  1  0  0  0  0
 12 11  1  0  0  0  0
 13  3  1  0  0  0  0
 13  2  1  0  0  0  0
 14 15  1  0  0  0  0
 14 12  1  0  0  0  0
 15 13  2  0  0  0  0
 16 18  1  0  0  0  0
 17 16  2  0  0  0  0
 19  1  1  0  0  0  0
 20 19  1  0  0  0  0
 21 20  1  0  0  0  0
 22 26  2  0  0  0  0
 22 31  1  0  0  0  0
 24 29  1  0  0  0  0
 25 24  2  0  0  0  0
 25 26  1  0  0  0  0
 26 28  1  0  0  0  0
 28 27  1  0  0  0  0
 28 23  2  0  0  0  0
 29 27  2  0  0  0  0
 30 23  1  0  0  0  0
 30 21  1  0  0  0  0
 31 30  2  0  0  0  0
 32 24  1  0  0  0  0
 33 32  1  0  0  0  0
 34 32  1  0  0  0  0
M  END
>  <MODEL>
9

>  <REMARK>
 VINA RESULT:      -8.3      3.574      8.223
  Name = 
  6 active torsions:
  status: ('A' for Active; 'I' for Inactive)
    1  A    between atoms: C_1  and  N_9
    2  A    between atoms: C_3  and  C_25
    3  A    between atoms: C_7  and  N_11
    4  A    between atoms: C_8  and  N_9
    5  A    between atoms: C_8  and  N_18
    6  A    between atoms: N_18  and  C_30
                            x       y       z     vdW  Elec       q    Type
                         _______ _______ _______ _____ _____    ______ ____

>  <TORSDO>
F 6

$$$$
