=
 OpenBabel11052415363D

 37 39  0  0  1  0  0  0  0  0999 V2000
  191.0710  176.3320  136.7960 C   0  0  0  0  0  2  0  0  0  0  0  0
  192.6570  173.0940  135.8570 C   0  0  0  0  0  2  0  0  0  0  0  0
  188.5200  176.5560  137.2260 C   0  0  2  0  0  0  0  0  0  0  0  0
  191.2280  175.0080  137.5260 C   0  0  2  0  0  3  0  0  0  0  0  0
  189.9630  177.1100  137.4890 C   0  0  1  0  0  3  0  0  0  0  0  0
  191.2560  173.5620  135.4950 C   0  0  0  0  0  2  0  0  0  0  0  0
  187.9890  175.9720  138.3840 O   0  0  0  0  0  1  0  0  0  0  0  0
  190.3330  177.5930  138.9240 C   0  0  2  0  0  3  0  0  0  0  0  0
  188.1840  173.1510  136.7700 C   0  0  0  0  0  2  0  0  0  0  0  0
  188.5030  175.4850  136.1010 C   0  0  0  0  0  2  0  0  0  0  0  0
  191.8420  177.8560  139.1250 C   0  0  0  0  0  2  0  0  0  0  0  0
  189.0450  174.1400  136.5470 C   0  0  0  0  0  0  0  0  0  0  0  0
  192.7070  174.7090  137.8410 C   0  0  1  0  0  3  0  0  0  0  0  0
  193.4780  174.1670  136.6000 C   0  0  1  0  0  3  0  0  0  0  0  0
  193.3850  175.9770  138.4080 C   0  0  0  0  0  2  0  0  0  0  0  0
  192.6240  176.6120  139.5710 C   0  0  0  0  0  2  0  0  0  0  0  0
  190.5170  173.8800  136.7820 C   0  0  2  0  0  3  0  0  0  0  0  0
  186.2660  177.7090  137.5350 C   0  0  0  0  0  1  0  0  0  0  0  0
  187.6170  177.7430  136.8330 C   0  0  0  0  0  3  0  0  0  0  0  0
  187.4020  177.8570  135.3290 C   0  0  0  0  0  1  0  0  0  0  0  0
  194.8590  173.5410  136.9270 C   0  0  2  0  0  3  0  0  0  0  0  0
  194.9170  172.7900  138.2480 C   0  0  0  0  0  2  0  0  0  0  0  0
  195.8100  173.4250  139.1110 O   0  0  0  0  0  1  0  0  0  0  0  0
  195.9410  174.6160  136.9760 C   0  0  0  0  0  2  0  0  0  0  0  0
  198.1540  174.0980  136.4210 C   0  0  0  0  0  1  0  0  0  0  0  0
  197.0240  175.7850  135.2770 C   0  0  0  0  0  1  0  0  0  0  0  0
  196.8630  174.4650  135.8620 N   0  0  0  0  0  0  0  0  0  0  0  0
  189.8390  176.7440  139.9260 O   0  0  0  0  0  0  0  0  0  0  0  0
  188.1470  178.1430  140.9190 C   0  0  0  0  0  1  0  0  0  0  0  0
  189.5550  177.5650  141.0250 C   0  0  1  0  0  3  0  0  0  0  0  0
  189.7710  176.7980  142.3350 C   0  0  1  0  0  3  0  0  0  0  0  0
  190.3350  175.5460  142.0730 O   0  0  0  0  0  1  0  0  0  0  0  0
  190.6130  177.5560  143.3690 C   0  0  2  0  0  0  0  0  0  0  0  0
  189.7930  178.0200  145.0110 P   0  0  0  0  0  2  0  0  0  0  0  0
  191.5230  178.5060  142.9000 O   0  0  0  0  0  1  0  0  0  0  0  0
  191.1270  176.7720  144.4570 C   0  0  0  0  0  1  0  0  0  0  0  0
  188.5800  176.7760  145.0290 O   0  0  0  0  0  1  0  0  0  0  0  0
  2 14  1  0  0  0  0
  3  5  1  0  0  0  0
  3  7  1  1  0  0  0
  4  1  1  6  0  0  0
  4 13  1  0  0  0  0
  5  1  1  1  0  0  0
  5  8  1  0  0  0  0
  6  2  1  0  0  0  0
  8 11  1  0  0  0  0
  8 28  1  1  0  0  0
 10 12  1  0  0  0  0
 10  3  1  0  0  0  0
 11 16  1  0  0  0  0
 12  9  2  0  0  0  0
 12 17  1  0  0  0  0
 13 15  1  6  0  0  0
 14 21  1  1  0  0  0
 14 13  1  0  0  0  0
 15 16  1  0  0  0  0
 17  6  1  6  0  0  0
 17  4  1  0  0  0  0
 19  3  1  0  0  0  0
 19 18  1  0  0  0  0
 20 19  1  0  0  0  0
 21 24  1  1  0  0  0
 21 22  1  0  0  0  0
 22 23  1  0  0  0  0
 26 27  1  0  0  0  0
 27 25  1  0  0  0  0
 27 24  1  0  0  0  0
 28 30  1  0  0  0  0
 30 29  1  6  0  0  0
 30 31  1  0  0  0  0
 31 32  1  6  0  0  0
 31 33  1  0  0  0  0
 33 36  1  1  0  0  0
 33 34  1  0  0  0  0
 34 37  1  0  0  0  0
 35 33  1  0  0  0  0
M  END
>  <MODEL>
1

>  <REMARK>
 VINA RESULT:      -5.6      0.000      0.000
  Name = 
  9 active torsions:
  status: ('A' for Active; 'I' for Inactive)
    1  A    between atoms: C_1  and  C_5
    2  A    between atoms: C_1  and  C_23
    3  A    between atoms: C_2  and  C_6
    4  A    between atoms: C_6  and  C_8
    5  A    between atoms: C_6  and  C_31
    6  A    between atoms: C_8  and  N_19
    7  A    between atoms: C_9  and  C_30
    8  A    between atoms: C_20  and  O_25
    9  A    between atoms: C_23  and  O_25
                            x       y       z     vdW  Elec       q    Type
                         _______ _______ _______ _____ _____    ______ ____

>  <TORSDO>
F 9

$$$$
=
 OpenBabel11052415363D

 37 39  0  0  1  0  0  0  0  0999 V2000
  188.9650  178.6320  140.2650 C   0  0  0  0  0  2  0  0  0  0  0  0
  186.7890  178.4300  143.2820 C   0  0  0  0  0  2  0  0  0  0  0  0
  190.9950  177.0520  139.9070 C   0  0  2  0  0  0  0  0  0  0  0  0
  188.0320  177.5560  140.7960 C   0  0  2  0  0  3  0  0  0  0  0  0
  189.9030  177.9740  139.2640 C   0  0  1  0  0  3  0  0  0  0  0  0
  188.2780  178.1300  143.2100 C   0  0  0  0  0  2  0  0  0  0  0  0
  190.7430  175.7030  139.6230 O   0  0  0  0  0  1  0  0  0  0  0  0
  189.1990  177.5040  137.9550 C   0  0  2  0  0  3  0  0  0  0  0  0
  190.1550  175.3820  142.8090 C   0  0  0  0  0  2  0  0  0  0  0  0
  191.0540  177.2100  141.4520 C   0  0  0  0  0  2  0  0  0  0  0  0
  187.9650  178.3520  137.5700 C   0  0  0  0  0  2  0  0  0  0  0  0
  189.9090  176.5220  142.1690 C   0  0  0  0  0  0  0  0  0  0  0  0
  186.5620  178.0190  140.7670 C   0  0  1  0  0  3  0  0  0  0  0  0
  186.2170  178.9670  141.9550 C   0  0  1  0  0  3  0  0  0  0  0  0
  186.2550  178.6920  139.4110 C   0  0  0  0  0  2  0  0  0  0  0  0
  186.6590  177.8480  138.2010 C   0  0  0  0  0  2  0  0  0  0  0  0
  188.4920  177.0530  142.1620 C   0  0  2  0  0  3  0  0  0  0  0  0
  192.7680  176.4800  138.1670 C   0  0  0  0  0  1  0  0  0  0  0  0
  192.3580  177.4240  139.2890 C   0  0  0  0  0  3  0  0  0  0  0  0
  193.4780  177.5020  140.3190 C   0  0  0  0  0  1  0  0  0  0  0  0
  184.6990  179.1970  142.1710 C   0  0  2  0  0  3  0  0  0  0  0  0
  184.3080  179.5460  143.5980 C   0  0  0  0  0  2  0  0  0  0  0  0
  183.3830  178.6170  144.0740 O   0  0  0  0  0  1  0  0  0  0  0  0
  183.9030  177.9530  141.7820 C   0  0  0  0  0  2  0  0  0  0  0  0
  181.7140  178.5170  141.1800 C   0  0  0  0  0  1  0  0  0  0  0  0
  182.9260  176.9950  139.8970 C   0  0  0  0  0  1  0  0  0  0  0  0
  183.0370  178.2340  140.6480 N   0  0  0  0  0  0  0  0  0  0  0  0
  188.8770  176.1390  137.9710 O   0  0  0  0  0  0  0  0  0  0  0  0
  190.0290  176.3760  135.8670 C   0  0  0  0  0  1  0  0  0  0  0  0
  188.8830  175.7230  136.6330 C   0  0  1  0  0  3  0  0  0  0  0  0
  188.9270  174.1920  136.5520 C   0  0  1  0  0  3  0  0  0  0  0  0
  189.8590  173.6860  137.4610 O   0  0  0  0  0  1  0  0  0  0  0  0
  187.5640  173.5180  136.7550 C   0  0  2  0  0  0  0  0  0  0  0  0
  187.0050  172.2420  135.4730 P   0  0  0  0  0  2  0  0  0  0  0  0
  186.5250  174.2920  137.2760 O   0  0  0  0  0  1  0  0  0  0  0  0
  187.5950  172.1850  137.2870 C   0  0  0  0  0  1  0  0  0  0  0  0
  188.5790  171.7740  134.9040 O   0  0  0  0  0  1  0  0  0  0  0  0
  3  7  1  6  0  0  0
  3 10  1  0  0  0  0
  4  1  1  1  0  0  0
  4 17  1  0  0  0  0
  5  3  1  0  0  0  0
  5  1  1  1  0  0  0
  6  2  1  0  0  0  0
  8 28  1  1  0  0  0
  8  5  1  0  0  0  0
 10 12  1  0  0  0  0
 11  8  1  0  0  0  0
 11 16  1  0  0  0  0
 12  9  2  0  0  0  0
 13 15  1  6  0  0  0
 13  4  1  0  0  0  0
 13 14  1  0  0  0  0
 14 21  1  1  0  0  0
 14  2  1  0  0  0  0
 16 15  1  0  0  0  0
 17 12  1  0  0  0  0
 17  6  1  1  0  0  0
 18 19  1  0  0  0  0
 19  3  1  0  0  0  0
 19 20  1  0  0  0  0
 21 24  1  1  0  0  0
 21 22  1  0  0  0  0
 22 23  1  0  0  0  0
 26 27  1  0  0  0  0
 27 25  1  0  0  0  0
 27 24  1  0  0  0  0
 30 29  1  6  0  0  0
 30 28  1  0  0  0  0
 31 30  1  0  0  0  0
 31 33  1  0  0  0  0
 31 32  1  1  0  0  0
 33 35  1  0  0  0  0
 33 36  1  1  0  0  0
 34 33  1  0  0  0  0
 37 34  1  0  0  0  0
M  END
>  <MODEL>
2

>  <REMARK>
 VINA RESULT:      -5.5      4.131      8.965
  Name = 
  9 active torsions:
  status: ('A' for Active; 'I' for Inactive)
    1  A    between atoms: C_1  and  C_5
    2  A    between atoms: C_1  and  C_23
    3  A    between atoms: C_2  and  C_6
    4  A    between atoms: C_6  and  C_8
    5  A    between atoms: C_6  and  C_31
    6  A    between atoms: C_8  and  N_19
    7  A    between atoms: C_9  and  C_30
    8  A    between atoms: C_20  and  O_25
    9  A    between atoms: C_23  and  O_25
                            x       y       z     vdW  Elec       q    Type
                         _______ _______ _______ _____ _____    ______ ____

>  <TORSDO>
F 9

$$$$
=
 OpenBabel11052415363D

 37 39  0  0  1  0  0  0  0  0999 V2000
  183.7760  177.5010  141.0150 C   0  0  0  0  0  2  0  0  0  0  0  0
  186.6500  178.1830  143.2850 C   0  0  0  0  0  2  0  0  0  0  0  0
  181.3760  178.3540  141.5180 C   0  0  2  0  0  0  0  0  0  0  0  0
  184.4790  178.7800  141.4370 C   0  0  2  0  0  3  0  0  0  0  0  0
  182.4200  177.8870  140.4460 C   0  0  1  0  0  3  0  0  0  0  0  0
  185.1970  177.9860  143.6880 C   0  0  0  0  0  2  0  0  0  0  0  0
  181.1240  179.7280  141.4080 O   0  0  0  0  0  1  0  0  0  0  0  0
  182.5000  178.6540  139.0910 C   0  0  2  0  0  3  0  0  0  0  0  0
  182.5850  179.9930  144.3050 C   0  0  0  0  0  2  0  0  0  0  0  0
  181.8640  178.0740  142.9660 C   0  0  0  0  0  2  0  0  0  0  0  0
  183.7330  178.2850  138.2360 C   0  0  0  0  0  2  0  0  0  0  0  0
  182.9290  179.0450  143.4370 C   0  0  0  0  0  0  0  0  0  0  0  0
  185.9300  178.8250  140.9160 C   0  0  1  0  0  3  0  0  0  0  0  0
  186.8950  177.9590  141.7800 C   0  0  1  0  0  3  0  0  0  0  0  0
  185.9650  178.3890  139.4340 C   0  0  0  0  0  2  0  0  0  0  0  0
  184.9690  179.1400  138.5490 C   0  0  0  0  0  2  0  0  0  0  0  0
  184.3580  179.0070  142.9420 C   0  0  2  0  0  3  0  0  0  0  0  0
  180.2180  176.4600  140.2630 C   0  0  0  0  0  1  0  0  0  0  0  0
  180.0540  177.6030  141.2550 C   0  0  0  0  0  3  0  0  0  0  0  0
  178.9310  178.5210  140.7880 C   0  0  0  0  0  1  0  0  0  0  0  0
  188.4010  178.2220  141.5170 C   0  0  2  0  0  3  0  0  0  0  0  0
  188.9670  177.4990  140.3050 C   0  0  0  0  0  2  0  0  0  0  0  0
  189.4220  178.4310  139.3720 O   0  0  0  0  0  1  0  0  0  0  0  0
  189.2410  177.8010  142.7200 C   0  0  0  0  0  2  0  0  0  0  0  0
  191.5200  177.2910  142.5820 C   0  0  0  0  0  1  0  0  0  0  0  0
  190.7940  179.0580  143.9170 C   0  0  0  0  0  1  0  0  0  0  0  0
  190.5690  178.3890  142.6470 N   0  0  0  0  0  0  0  0  0  0  0  0
  182.4020  180.0440  139.2470 O   0  0  0  0  0  0  0  0  0  0  0  0
  180.3860  179.7280  137.9660 C   0  0  0  0  0  1  0  0  0  0  0  0
  181.6840  180.5110  138.1390 C   0  0  1  0  0  3  0  0  0  0  0  0
  181.4410  182.0200  138.2570 C   0  0  1  0  0  3  0  0  0  0  0  0
  182.6320  182.6770  138.5780 O   0  0  0  0  0  1  0  0  0  0  0  0
  180.8050  182.6480  137.0100 C   0  0  2  0  0  0  0  0  0  0  0  0
  179.0470  183.3330  137.1630 P   0  0  0  0  0  2  0  0  0  0  0  0
  181.0830  182.0650  135.7720 O   0  0  0  0  0  1  0  0  0  0  0  0
  180.7910  184.0830  136.9680 C   0  0  0  0  0  1  0  0  0  0  0  0
  179.0600  183.6430  138.8720 O   0  0  0  0  0  1  0  0  0  0  0  0
  2  6  1  0  0  0  0
  3  7  1  6  0  0  0
  3 10  1  0  0  0  0
  4  1  1  1  0  0  0
  4 17  1  0  0  0  0
  5  1  1  1  0  0  0
  5  3  1  0  0  0  0
  8 28  1  1  0  0  0
  8  5  1  0  0  0  0
 10 12  1  0  0  0  0
 11 16  1  0  0  0  0
 11  8  1  0  0  0  0
 12  9  2  0  0  0  0
 13 15  1  6  0  0  0
 13  4  1  0  0  0  0
 13 14  1  0  0  0  0
 14 21  1  6  0  0  0
 14  2  1  0  0  0  0
 16 15  1  0  0  0  0
 17 12  1  0  0  0  0
 17  6  1  1  0  0  0
 18 19  1  0  0  0  0
 19  3  1  0  0  0  0
 20 19  1  0  0  0  0
 21 22  1  6  0  0  0
 21 24  1  0  0  0  0
 23 22  1  0  0  0  0
 25 27  1  0  0  0  0
 27 24  1  0  0  0  0
 27 26  1  0  0  0  0
 30 29  1  1  0  0  0
 30 31  1  0  0  0  0
 30 28  1  0  0  0  0
 31 32  1  6  0  0  0
 33 36  1  6  0  0  0
 33 34  1  0  0  0  0
 33 31  1  0  0  0  0
 34 37  1  0  0  0  0
 35 33  1  0  0  0  0
M  END
>  <MODEL>
3

>  <REMARK>
 VINA RESULT:      -5.4      6.245      9.977
  Name = 
  9 active torsions:
  status: ('A' for Active; 'I' for Inactive)
    1  A    between atoms: C_1  and  C_5
    2  A    between atoms: C_1  and  C_23
    3  A    between atoms: C_2  and  C_6
    4  A    between atoms: C_6  and  C_8
    5  A    between atoms: C_6  and  C_31
    6  A    between atoms: C_8  and  N_19
    7  A    between atoms: C_9  and  C_30
    8  A    between atoms: C_20  and  O_25
    9  A    between atoms: C_23  and  O_25
                            x       y       z     vdW  Elec       q    Type
                         _______ _______ _______ _____ _____    ______ ____

>  <TORSDO>
F 9

$$$$
=
 OpenBabel11052415363D

 37 39  0  0  1  0  0  0  0  0999 V2000
  188.8280  178.6220  141.4680 C   0  0  0  0  0  2  0  0  0  0  0  0
  187.3340  177.9460  144.8130 C   0  0  0  0  0  2  0  0  0  0  0  0
  190.6340  177.0810  140.4150 C   0  0  2  0  0  0  0  0  0  0  0  0
  187.9640  177.4930  142.0050 C   0  0  2  0  0  3  0  0  0  0  0  0
  189.4890  178.1280  140.1900 C   0  0  1  0  0  3  0  0  0  0  0  0
  188.7520  177.6260  144.3660 C   0  0  0  0  0  2  0  0  0  0  0  0
  190.2440  175.8100  139.9730 O   0  0  0  0  0  1  0  0  0  0  0  0
  188.4950  177.9140  139.0080 C   0  0  2  0  0  3  0  0  0  0  0  0
  190.3260  174.9470  143.1110 C   0  0  0  0  0  2  0  0  0  0  0  0
  191.0290  176.9640  141.9130 C   0  0  0  0  0  2  0  0  0  0  0  0
  187.2640  178.8450  139.0500 C   0  0  0  0  0  2  0  0  0  0  0  0
  190.0210  176.1880  142.7390 C   0  0  0  0  0  0  0  0  0  0  0  0
  186.5530  177.9890  142.3770 C   0  0  1  0  0  3  0  0  0  0  0  0
  186.5280  178.7210  143.7520 C   0  0  1  0  0  3  0  0  0  0  0  0
  186.0080  178.8980  141.2520 C   0  0  0  0  0  2  0  0  0  0  0  0
  186.0920  178.2710  139.8600 C   0  0  0  0  0  2  0  0  0  0  0  0
  188.6720  176.7460  143.1330 C   0  0  2  0  0  3  0  0  0  0  0  0
  192.0810  176.6400  138.3630 C   0  0  0  0  0  1  0  0  0  0  0  0
  191.8550  177.5230  139.5830 C   0  0  0  0  0  3  0  0  0  0  0  0
  193.1390  177.5940  140.4010 C   0  0  0  0  0  1  0  0  0  0  0  0
  185.1070  178.9470  144.3320 C   0  0  2  0  0  3  0  0  0  0  0  0
  184.9340  178.5020  145.7760 C   0  0  0  0  0  2  0  0  0  0  0  0
  185.3240  179.5290  146.6340 O   0  0  0  0  0  1  0  0  0  0  0  0
  184.0620  178.2000  143.5060 C   0  0  0  0  0  2  0  0  0  0  0  0
  181.8520  178.7720  144.0170 C   0  0  0  0  0  1  0  0  0  0  0  0
  182.5620  178.7100  141.7980 C   0  0  0  0  0  1  0  0  0  0  0  0
  182.9690  179.0870  143.1420 N   0  0  0  0  0  0  0  0  0  0  0  0
  188.1010  176.5750  138.8670 O   0  0  0  0  0  0  0  0  0  0  0  0
  189.0150  176.9910  136.6760 C   0  0  0  0  0  1  0  0  0  0  0  0
  187.8860  176.3760  137.4970 C   0  0  1  0  0  3  0  0  0  0  0  0
  187.6960  174.8830  137.1990 C   0  0  1  0  0  3  0  0  0  0  0  0
  186.3470  174.5360  137.3100 O   0  0  0  0  0  1  0  0  0  0  0  0
  188.2480  174.4460  135.8360 C   0  0  2  0  0  0  0  0  0  0  0  0
  190.0820  173.9870  135.7290 P   0  0  0  0  0  2  0  0  0  0  0  0
  187.7550  175.0850  134.6970 O   0  0  0  0  0  1  0  0  0  0  0  0
  188.4310  173.0330  135.6560 C   0  0  0  0  0  1  0  0  0  0  0  0
  190.3120  173.5420  137.3930 O   0  0  0  0  0  1  0  0  0  0  0  0
  3  7  1  6  0  0  0
  3 10  1  0  0  0  0
  4  1  1  1  0  0  0
  4 13  1  0  0  0  0
  4 17  1  0  0  0  0
  5  3  1  0  0  0  0
  5  1  1  1  0  0  0
  6  2  1  0  0  0  0
  8 28  1  1  0  0  0
  8 11  1  0  0  0  0
  8  5  1  0  0  0  0
 10 12  1  0  0  0  0
 11 16  1  0  0  0  0
 12  9  2  0  0  0  0
 12 17  1  0  0  0  0
 13 15  1  6  0  0  0
 13 14  1  0  0  0  0
 14 21  1  1  0  0  0
 14  2  1  0  0  0  0
 16 15  1  0  0  0  0
 17  6  1  1  0  0  0
 18 19  1  0  0  0  0
 19 20  1  0  0  0  0
 19  3  1  0  0  0  0
 21 24  1  6  0  0  0
 21 22  1  0  0  0  0
 22 23  1  0  0  0  0
 26 27  1  0  0  0  0
 27 24  1  0  0  0  0
 27 25  1  0  0  0  0
 30 29  1  6  0  0  0
 30 28  1  0  0  0  0
 31 32  1  6  0  0  0
 31 30  1  0  0  0  0
 33 36  1  6  0  0  0
 33 31  1  0  0  0  0
 34 33  1  0  0  0  0
 34 37  1  0  0  0  0
 35 33  1  0  0  0  0
M  END
>  <MODEL>
4

>  <REMARK>
 VINA RESULT:      -5.1      4.294      9.249
  Name = 
  9 active torsions:
  status: ('A' for Active; 'I' for Inactive)
    1  A    between atoms: C_1  and  C_5
    2  A    between atoms: C_1  and  C_23
    3  A    between atoms: C_2  and  C_6
    4  A    between atoms: C_6  and  C_8
    5  A    between atoms: C_6  and  C_31
    6  A    between atoms: C_8  and  N_19
    7  A    between atoms: C_9  and  C_30
    8  A    between atoms: C_20  and  O_25
    9  A    between atoms: C_23  and  O_25
                            x       y       z     vdW  Elec       q    Type
                         _______ _______ _______ _____ _____    ______ ____

>  <TORSDO>
F 9

$$$$
=
 OpenBabel11052415363D

 37 39  0  0  1  0  0  0  0  0999 V2000
  183.5380  177.3690  136.4090 C   0  0  0  0  0  2  0  0  0  0  0  0
  186.9950  176.1000  136.9720 C   0  0  0  0  0  2  0  0  0  0  0  0
  181.4670  175.8030  136.4050 C   0  0  2  0  0  0  0  0  0  0  0  0
  184.2170  176.7130  137.6000 C   0  0  2  0  0  3  0  0  0  0  0  0
  182.0360  177.2490  136.6120 C   0  0  1  0  0  3  0  0  0  0  0  0
  185.8530  175.3630  136.2900 C   0  0  0  0  0  2  0  0  0  0  0  0
  181.0540  175.2480  137.6240 O   0  0  0  0  0  1  0  0  0  0  0  0
  181.4880  178.1110  137.7900 C   0  0  2  0  0  3  0  0  0  0  0  0
  183.5170  173.1550  137.2400 C   0  0  0  0  0  2  0  0  0  0  0  0
  182.5190  174.8470  135.7790 C   0  0  0  0  0  2  0  0  0  0  0  0
  182.3060  179.3940  138.0590 C   0  0  0  0  0  2  0  0  0  0  0  0
  183.5800  174.3960  136.7650 C   0  0  0  0  0  0  0  0  0  0  0  0
  185.3250  177.6130  138.1830 C   0  0  1  0  0  3  0  0  0  0  0  0
  186.6380  177.5520  137.3450 C   0  0  1  0  0  3  0  0  0  0  0  0
  184.8080  179.0640  138.3040 C   0  0  0  0  0  2  0  0  0  0  0  0
  183.4710  179.1800  139.0360 C   0  0  0  0  0  2  0  0  0  0  0  0
  184.6860  175.3010  137.2590 C   0  0  2  0  0  3  0  0  0  0  0  0
  180.0980  177.2740  134.8350 C   0  0  0  0  0  1  0  0  0  0  0  0
  180.2340  175.9030  135.4840 C   0  0  0  0  0  3  0  0  0  0  0  0
  178.9320  175.5460  136.1890 C   0  0  0  0  0  1  0  0  0  0  0  0
  187.8770  178.1610  138.0520 C   0  0  2  0  0  3  0  0  0  0  0  0
  188.8310  178.9020  137.1290 C   0  0  0  0  0  2  0  0  0  0  0  0
  189.1320  180.1520  137.6700 O   0  0  0  0  0  1  0  0  0  0  0  0
  188.6880  177.0730  138.7520 C   0  0  0  0  0  2  0  0  0  0  0  0
  190.5480  176.6400  140.1040 C   0  0  0  0  0  1  0  0  0  0  0  0
  188.7600  177.8820  140.9360 C   0  0  0  0  0  1  0  0  0  0  0  0
  189.5710  177.6560  139.7510 N   0  0  0  0  0  0  0  0  0  0  0  0
  181.3210  177.3730  138.9710 O   0  0  0  0  0  0  0  0  0  0  0  0
  178.9540  177.4540  139.4190 C   0  0  0  0  0  1  0  0  0  0  0  0
  180.3330  178.0380  139.7090 C   0  0  1  0  0  3  0  0  0  0  0  0
  180.6740  178.0100  141.2040 C   0  0  1  0  0  3  0  0  0  0  0  0
  182.0060  177.6300  141.3880 O   0  0  0  0  0  1  0  0  0  0  0  0
  180.3910  179.3300  141.9320 C   0  0  2  0  0  0  0  0  0  0  0  0
  179.3180  179.2690  143.4910 P   0  0  0  0  0  2  0  0  0  0  0  0
  180.2010  180.4760  141.1560 O   0  0  0  0  0  1  0  0  0  0  0  0
  181.1650  179.5730  143.1160 C   0  0  0  0  0  1  0  0  0  0  0  0
  179.6370  177.6200  143.9330 O   0  0  0  0  0  1  0  0  0  0  0  0
  2 14  1  0  0  0  0
  3  5  1  0  0  0  0
  3  7  1  1  0  0  0
  4  1  1  6  0  0  0
  4 13  1  0  0  0  0
  5  1  1  1  0  0  0
  5  8  1  0  0  0  0
  6  2  1  0  0  0  0
  8 11  1  0  0  0  0
  8 28  1  1  0  0  0
 10  3  1  0  0  0  0
 10 12  1  0  0  0  0
 11 16  1  0  0  0  0
 12  9  2  0  0  0  0
 12 17  1  0  0  0  0
 13 15  1  6  0  0  0
 14 21  1  1  0  0  0
 14 13  1  0  0  0  0
 15 16  1  0  0  0  0
 17  6  1  6  0  0  0
 17  4  1  0  0  0  0
 18 19  1  0  0  0  0
 19 20  1  0  0  0  0
 19  3  1  0  0  0  0
 21 22  1  6  0  0  0
 21 24  1  0  0  0  0
 22 23  1  0  0  0  0
 24 27  1  0  0  0  0
 27 25  1  0  0  0  0
 27 26  1  0  0  0  0
 28 30  1  0  0  0  0
 30 29  1  1  0  0  0
 30 31  1  0  0  0  0
 31 32  1  6  0  0  0
 31 33  1  0  0  0  0
 33 36  1  1  0  0  0
 33 34  1  0  0  0  0
 34 37  1  0  0  0  0
 35 33  1  0  0  0  0
M  END
>  <MODEL>
5

>  <REMARK>
 VINA RESULT:      -4.9      5.556      8.456
  Name = 
  9 active torsions:
  status: ('A' for Active; 'I' for Inactive)
    1  A    between atoms: C_1  and  C_5
    2  A    between atoms: C_1  and  C_23
    3  A    between atoms: C_2  and  C_6
    4  A    between atoms: C_6  and  C_8
    5  A    between atoms: C_6  and  C_31
    6  A    between atoms: C_8  and  N_19
    7  A    between atoms: C_9  and  C_30
    8  A    between atoms: C_20  and  O_25
    9  A    between atoms: C_23  and  O_25
                            x       y       z     vdW  Elec       q    Type
                         _______ _______ _______ _____ _____    ______ ____

>  <TORSDO>
F 9

$$$$
=
 OpenBabel11052415363D

 37 39  0  0  1  0  0  0  0  0999 V2000
  183.8090  175.5370  135.4170 C   0  0  0  0  0  2  0  0  0  0  0  0
  187.2840  174.2530  135.8100 C   0  0  0  0  0  2  0  0  0  0  0  0
  181.7220  174.0830  135.9440 C   0  0  2  0  0  0  0  0  0  0  0  0
  184.6130  175.0840  136.6250 C   0  0  2  0  0  3  0  0  0  0  0  0
  182.3400  175.5180  135.8100 C   0  0  1  0  0  3  0  0  0  0  0  0
  186.0540  173.4500  135.4140 C   0  0  0  0  0  2  0  0  0  0  0  0
  181.4480  173.7790  137.2830 O   0  0  0  0  0  1  0  0  0  0  0  0
  181.9530  176.6030  136.8600 C   0  0  2  0  0  3  0  0  0  0  0  0
  183.8070  171.5520  137.0200 C   0  0  0  0  0  2  0  0  0  0  0  0
  182.6740  172.9870  135.3920 C   0  0  0  0  0  2  0  0  0  0  0  0
  182.8220  177.8790  136.7890 C   0  0  0  0  0  2  0  0  0  0  0  0
  183.8360  172.6810  136.3170 C   0  0  0  0  0  0  0  0  0  0  0  0
  185.8000  176.0300  136.9000 C   0  0  1  0  0  3  0  0  0  0  0  0
  187.0010  175.7620  135.9440 C   0  0  1  0  0  3  0  0  0  0  0  0
  185.3280  177.4980  136.8040 C   0  0  0  0  0  2  0  0  0  0  0  0
  184.0910  177.8020  137.6500 C   0  0  0  0  0  2  0  0  0  0  0  0
  185.0110  173.6150  136.5030 C   0  0  2  0  0  3  0  0  0  0  0  0
  179.8590  175.4600  134.8780 C   0  0  0  0  0  1  0  0  0  0  0  0
  180.3900  174.0620  135.1660 C   0  0  0  0  0  3  0  0  0  0  0  0
  179.3090  173.2430  135.8590 C   0  0  0  0  0  1  0  0  0  0  0  0
  188.3280  176.4390  136.3780 C   0  0  2  0  0  3  0  0  0  0  0  0
  189.5740  175.8700  135.7190 C   0  0  0  0  0  2  0  0  0  0  0  0
  190.1970  176.8590  134.9580 O   0  0  0  0  0  1  0  0  0  0  0  0
  188.5260  176.3210  137.8870 C   0  0  0  0  0  2  0  0  0  0  0  0
  190.2290  177.0550  139.3130 C   0  0  0  0  0  1  0  0  0  0  0  0
  188.1990  178.1960  139.2300 C   0  0  0  0  0  1  0  0  0  0  0  0
  189.1830  177.5080  138.4110 N   0  0  0  0  0  0  0  0  0  0  0  0
  181.9140  176.1020  138.1700 O   0  0  0  0  0  0  0  0  0  0  0  0
  179.5930  176.0880  138.8170 C   0  0  0  0  0  1  0  0  0  0  0  0
  180.9230  176.8340  138.8370 C   0  0  1  0  0  3  0  0  0  0  0  0
  181.3790  177.1740  140.2610 C   0  0  1  0  0  3  0  0  0  0  0  0
  182.7120  176.7960  140.4450 O   0  0  0  0  0  1  0  0  0  0  0  0
  181.1850  178.6470  140.6420 C   0  0  2  0  0  0  0  0  0  0  0  0
  179.6190  179.1160  141.5960 P   0  0  0  0  0  2  0  0  0  0  0  0
  181.6080  179.6180  139.7320 O   0  0  0  0  0  1  0  0  0  0  0  0
  181.4780  178.9870  142.0060 C   0  0  0  0  0  1  0  0  0  0  0  0
  179.3100  177.5680  142.3210 O   0  0  0  0  0  1  0  0  0  0  0  0
  2 14  1  0  0  0  0
  3  7  1  1  0  0  0
  4  1  1  6  0  0  0
  4 13  1  0  0  0  0
  5  1  1  1  0  0  0
  5  3  1  0  0  0  0
  5  8  1  0  0  0  0
  6  2  1  0  0  0  0
  8 28  1  1  0  0  0
 10  3  1  0  0  0  0
 10 12  1  0  0  0  0
 11  8  1  0  0  0  0
 11 16  1  0  0  0  0
 12 17  1  0  0  0  0
 12  9  2  0  0  0  0
 13 15  1  6  0  0  0
 14 21  1  1  0  0  0
 14 13  1  0  0  0  0
 15 16  1  0  0  0  0
 17  6  1  6  0  0  0
 17  4  1  0  0  0  0
 18 19  1  0  0  0  0
 19 20  1  0  0  0  0
 19  3  1  0  0  0  0
 21 22  1  6  0  0  0
 21 24  1  0  0  0  0
 23 22  1  0  0  0  0
 24 27  1  0  0  0  0
 27 26  1  0  0  0  0
 27 25  1  0  0  0  0
 28 30  1  0  0  0  0
 30 29  1  1  0  0  0
 30 31  1  0  0  0  0
 31 32  1  6  0  0  0
 31 33  1  0  0  0  0
 33 34  1  0  0  0  0
 33 36  1  1  0  0  0
 34 37  1  0  0  0  0
 35 33  1  0  0  0  0
M  END
>  <MODEL>
6

>  <REMARK>
 VINA RESULT:      -4.4      5.391      8.079
  Name = 
  9 active torsions:
  status: ('A' for Active; 'I' for Inactive)
    1  A    between atoms: C_1  and  C_5
    2  A    between atoms: C_1  and  C_23
    3  A    between atoms: C_2  and  C_6
    4  A    between atoms: C_6  and  C_8
    5  A    between atoms: C_6  and  C_31
    6  A    between atoms: C_8  and  N_19
    7  A    between atoms: C_9  and  C_30
    8  A    between atoms: C_20  and  O_25
    9  A    between atoms: C_23  and  O_25
                            x       y       z     vdW  Elec       q    Type
                         _______ _______ _______ _____ _____    ______ ____

>  <TORSDO>
F 9

$$$$
=
 OpenBabel11052415363D

 37 39  0  0  1  0  0  0  0  0999 V2000
  188.6870  178.3860  138.7070 C   0  0  0  0  0  2  0  0  0  0  0  0
  190.8850  177.4130  141.5520 C   0  0  0  0  0  2  0  0  0  0  0  0
  188.5020  176.9620  136.5430 C   0  0  2  0  0  0  0  0  0  0  0  0
  188.6780  177.2050  139.6630 C   0  0  2  0  0  3  0  0  0  0  0  0
  187.8390  178.0100  137.5020 C   0  0  1  0  0  3  0  0  0  0  0  0
  191.1360  177.1510  140.0750 C   0  0  0  0  0  2  0  0  0  0  0  0
  187.8440  175.7270  136.6170 O   0  0  0  0  0  1  0  0  0  0  0  0
  186.3170  177.8810  137.8170 C   0  0  2  0  0  3  0  0  0  0  0  0
  190.5880  174.6070  137.9640 C   0  0  0  0  0  2  0  0  0  0  0  0
  189.9990  176.7250  136.8870 C   0  0  0  0  0  2  0  0  0  0  0  0
  185.8390  178.7900  138.9720 C   0  0  0  0  0  2  0  0  0  0  0  0
  190.2010  175.8700  138.1230 C   0  0  0  0  0  0  0  0  0  0  0  0
  188.3770  177.6500  141.1080 C   0  0  1  0  0  3  0  0  0  0  0  0
  189.6260  178.2640  141.8090 C   0  0  1  0  0  3  0  0  0  0  0  0
  187.1930  178.6420  141.1110 C   0  0  0  0  0  2  0  0  0  0  0  0
  185.9640  178.1340  140.3550 C   0  0  0  0  0  2  0  0  0  0  0  0
  189.9530  176.3750  139.5270 C   0  0  2  0  0  3  0  0  0  0  0  0
  189.6560  178.1330  134.5940 C   0  0  0  0  0  1  0  0  0  0  0  0
  188.3720  177.4880  135.0990 C   0  0  0  0  0  3  0  0  0  0  0  0
  187.2130  178.4600  134.9210 C   0  0  0  0  0  1  0  0  0  0  0  0
  189.4850  178.4220  143.3460 C   0  0  2  0  0  3  0  0  0  0  0  0
  190.7940  178.3280  144.1140 C   0  0  0  0  0  2  0  0  0  0  0  0
  191.3420  179.6020  144.2670 O   0  0  0  0  0  1  0  0  0  0  0  0
  188.5550  177.3530  143.9150 C   0  0  0  0  0  2  0  0  0  0  0  0
  188.2920  177.1540  146.2310 C   0  0  0  0  0  1  0  0  0  0  0  0
  186.4330  177.4860  144.8660 C   0  0  0  0  0  1  0  0  0  0  0  0
  187.8210  177.8720  145.0580 N   0  0  0  0  0  0  0  0  0  0  0  0
  185.9170  176.5540  138.0320 O   0  0  0  0  0  0  0  0  0  0  0  0
  184.5350  176.6990  136.0630 C   0  0  0  0  0  1  0  0  0  0  0  0
  184.5980  176.4660  137.5700 C   0  0  1  0  0  3  0  0  0  0  0  0
  183.9780  175.1240  137.9770 C   0  0  1  0  0  3  0  0  0  0  0  0
  182.7730  175.3330  138.6520 O   0  0  0  0  0  1  0  0  0  0  0  0
  183.7720  174.1520  136.8080 C   0  0  2  0  0  0  0  0  0  0  0  0
  185.2270  173.0480  136.3070 P   0  0  0  0  0  2  0  0  0  0  0  0
  182.9870  174.5800  135.7350 O   0  0  0  0  0  1  0  0  0  0  0  0
  183.5420  172.7810  137.1640 C   0  0  0  0  0  1  0  0  0  0  0  0
  186.0520  173.0360  137.8360 O   0  0  0  0  0  1  0  0  0  0  0  0
  2 14  1  0  0  0  0
  3  7  1  1  0  0  0
  3 10  1  0  0  0  0
  3  5  1  0  0  0  0
  4  1  1  6  0  0  0
  4 13  1  0  0  0  0
  5  8  1  0  0  0  0
  5  1  1  1  0  0  0
  6  2  1  0  0  0  0
  8 28  1  1  0  0  0
  8 11  1  0  0  0  0
  9 12  2  0  0  0  0
 10 12  1  0  0  0  0
 11 16  1  0  0  0  0
 12 17  1  0  0  0  0
 13 15  1  6  0  0  0
 13 14  1  0  0  0  0
 14 21  1  1  0  0  0
 16 15  1  0  0  0  0
 17  4  1  0  0  0  0
 17  6  1  6  0  0  0
 18 19  1  0  0  0  0
 19  3  1  0  0  0  0
 20 19  1  0  0  0  0
 21 24  1  1  0  0  0
 21 22  1  0  0  0  0
 22 23  1  0  0  0  0
 24 27  1  0  0  0  0
 26 27  1  0  0  0  0
 27 25  1  0  0  0  0
 30 29  1  6  0  0  0
 30 31  1  0  0  0  0
 30 28  1  0  0  0  0
 31 32  1  6  0  0  0
 33 36  1  1  0  0  0
 33 31  1  0  0  0  0
 34 33  1  0  0  0  0
 34 37  1  0  0  0  0
 35 33  1  0  0  0  0
M  END
>  <MODEL>
7

>  <REMARK>
 VINA RESULT:      -4.2      4.340      7.670
  Name = 
  9 active torsions:
  status: ('A' for Active; 'I' for Inactive)
    1  A    between atoms: C_1  and  C_5
    2  A    between atoms: C_1  and  C_23
    3  A    between atoms: C_2  and  C_6
    4  A    between atoms: C_6  and  C_8
    5  A    between atoms: C_6  and  C_31
    6  A    between atoms: C_8  and  N_19
    7  A    between atoms: C_9  and  C_30
    8  A    between atoms: C_20  and  O_25
    9  A    between atoms: C_23  and  O_25
                            x       y       z     vdW  Elec       q    Type
                         _______ _______ _______ _____ _____    ______ ____

>  <TORSDO>
F 9

$$$$
=
 OpenBabel11052415363D

 37 39  0  0  1  0  0  0  0  0999 V2000
  185.6110  178.9610  139.2330 C   0  0  0  0  0  2  0  0  0  0  0  0
  183.4780  179.1060  142.2840 C   0  0  0  0  0  2  0  0  0  0  0  0
  188.0370  178.0350  139.2770 C   0  0  2  0  0  0  0  0  0  0  0  0
  185.0270  177.8890  140.1380 C   0  0  2  0  0  3  0  0  0  0  0  0
  186.7440  178.3280  138.4400 C   0  0  1  0  0  3  0  0  0  0  0  0
  184.9900  179.2580  142.2200 C   0  0  0  0  0  2  0  0  0  0  0  0
  188.2160  176.6570  139.4560 O   0  0  0  0  0  1  0  0  0  0  0  0
  186.2690  177.2720  137.3960 C   0  0  2  0  0  3  0  0  0  0  0  0
  187.6240  177.2230  142.6060 C   0  0  0  0  0  2  0  0  0  0  0  0
  187.9820  178.6940  140.6820 C   0  0  0  0  0  2  0  0  0  0  0  0
  184.8540  177.5390  136.8370 C   0  0  0  0  0  2  0  0  0  0  0  0
  187.0710  177.9660  141.6510 C   0  0  0  0  0  0  0  0  0  0  0  0
  183.4880  177.8550  140.0520 C   0  0  1  0  0  3  0  0  0  0  0  0
  182.8250  178.9870  140.8930 C   0  0  1  0  0  3  0  0  0  0  0  0
  183.0470  177.9280  138.5730 C   0  0  0  0  0  2  0  0  0  0  0  0
  183.7370  176.9000  137.6750 C   0  0  0  0  0  2  0  0  0  0  0  0
  185.5620  178.0160  141.5620 C   0  0  2  0  0  3  0  0  0  0  0  0
  188.8460  179.2180  137.1670 C   0  0  0  0  0  1  0  0  0  0  0  0
  189.2470  178.5770  138.4890 C   0  0  0  0  0  3  0  0  0  0  0  0
  190.3140  177.5190  138.2340 C   0  0  0  0  0  1  0  0  0  0  0  0
  181.3000  178.8090  141.1170 C   0  0  2  0  0  3  0  0  0  0  0  0
  180.7960  179.3040  142.4630 C   0  0  0  0  0  2  0  0  0  0  0  0
  180.1290  180.5180  142.2980 O   0  0  0  0  0  1  0  0  0  0  0  0
  180.9060  177.3380  141.0050 C   0  0  0  0  0  2  0  0  0  0  0  0
  179.2190  175.7910  140.5260 C   0  0  0  0  0  1  0  0  0  0  0  0
  179.3390  177.7950  139.3430 C   0  0  0  0  0  1  0  0  0  0  0  0
  179.4980  177.2110  140.6640 N   0  0  0  0  0  0  0  0  0  0  0  0
  186.3760  175.9550  137.8680 O   0  0  0  0  0  0  0  0  0  0  0  0
  188.1330  175.1870  136.4100 C   0  0  0  0  0  1  0  0  0  0  0  0
  186.6460  175.1610  136.7470 C   0  0  1  0  0  3  0  0  0  0  0  0
  186.1240  173.7350  136.9650 C   0  0  1  0  0  3  0  0  0  0  0  0
  185.0580  173.7440  137.8690 O   0  0  0  0  0  1  0  0  0  0  0  0
  185.7200  173.0160  135.6720 C   0  0  2  0  0  0  0  0  0  0  0  0
  186.9730  171.8330  134.8870 P   0  0  0  0  0  2  0  0  0  0  0  0
  184.9480  173.7210  134.7460 O   0  0  0  0  0  1  0  0  0  0  0  0
  185.3160  171.6450  135.8150 C   0  0  0  0  0  1  0  0  0  0  0  0
  187.8680  171.4490  136.3260 O   0  0  0  0  0  1  0  0  0  0  0  0
  3  7  1  1  0  0  0
  3 10  1  0  0  0  0
  4  1  1  6  0  0  0
  4 17  1  0  0  0  0
  5  1  1  1  0  0  0
  5  3  1  0  0  0  0
  6  2  1  0  0  0  0
  8 28  1  1  0  0  0
  8  5  1  0  0  0  0
 10 12  1  0  0  0  0
 11  8  1  0  0  0  0
 11 16  1  0  0  0  0
 12  9  2  0  0  0  0
 13 15  1  6  0  0  0
 13  4  1  0  0  0  0
 13 14  1  0  0  0  0
 14 21  1  1  0  0  0
 14  2  1  0  0  0  0
 16 15  1  0  0  0  0
 17 12  1  0  0  0  0
 17  6  1  6  0  0  0
 18 19  1  0  0  0  0
 19  3  1  0  0  0  0
 20 19  1  0  0  0  0
 21 24  1  1  0  0  0
 21 22  1  0  0  0  0
 23 22  1  0  0  0  0
 25 27  1  0  0  0  0
 26 27  1  0  0  0  0
 27 24  1  0  0  0  0
 30 29  1  1  0  0  0
 30 31  1  0  0  0  0
 30 28  1  0  0  0  0
 31 32  1  1  0  0  0
 33 36  1  1  0  0  0
 33 31  1  0  0  0  0
 34 33  1  0  0  0  0
 34 37  1  0  0  0  0
 35 33  1  0  0  0  0
M  END
>  <MODEL>
8

>  <REMARK>
 VINA RESULT:      -4.1      5.344     10.440
  Name = 
  9 active torsions:
  status: ('A' for Active; 'I' for Inactive)
    1  A    between atoms: C_1  and  C_5
    2  A    between atoms: C_1  and  C_23
    3  A    between atoms: C_2  and  C_6
    4  A    between atoms: C_6  and  C_8
    5  A    between atoms: C_6  and  C_31
    6  A    between atoms: C_8  and  N_19
    7  A    between atoms: C_9  and  C_30
    8  A    between atoms: C_20  and  O_25
    9  A    between atoms: C_23  and  O_25
                            x       y       z     vdW  Elec       q    Type
                         _______ _______ _______ _____ _____    ______ ____

>  <TORSDO>
F 9

$$$$
=
 OpenBabel11052415363D

 37 39  0  0  1  0  0  0  0  0999 V2000
  187.9580  179.0470  140.5700 C   0  0  0  0  0  2  0  0  0  0  0  0
  184.4270  178.6850  141.7030 C   0  0  0  0  0  2  0  0  0  0  0  0
  189.9110  177.7340  141.6670 C   0  0  2  0  0  0  0  0  0  0  0  0
  186.9830  177.8810  140.5590 C   0  0  2  0  0  3  0  0  0  0  0  0
  189.3580  178.4790  140.4030 C   0  0  1  0  0  3  0  0  0  0  0  0
  185.6770  178.5790  142.5640 C   0  0  0  0  0  2  0  0  0  0  0  0
  189.9900  176.3530  141.4410 O   0  0  0  0  0  1  0  0  0  0  0  0
  189.6270  177.8680  138.9940 C   0  0  2  0  0  3  0  0  0  0  0  0
  187.6280  176.0860  143.6640 C   0  0  0  0  0  2  0  0  0  0  0  0
  189.0130  177.9610  142.9150 C   0  0  0  0  0  2  0  0  0  0  0  0
  188.8120  178.5300  137.8600 C   0  0  0  0  0  2  0  0  0  0  0  0
  187.7280  177.1580  142.8820 C   0  0  0  0  0  0  0  0  0  0  0  0
  185.7960  178.1470  139.6100 C   0  0  1  0  0  3  0  0  0  0  0  0
  184.7310  179.0880  140.2470 C   0  0  1  0  0  3  0  0  0  0  0  0
  186.3170  178.7180  138.2730 C   0  0  0  0  0  2  0  0  0  0  0  0
  187.4350  177.8860  137.6430 C   0  0  0  0  0  2  0  0  0  0  0  0
  186.5650  177.4980  141.9760 C   0  0  2  0  0  3  0  0  0  0  0  0
  192.4020  177.4690  141.1930 C   0  0  0  0  0  1  0  0  0  0  0  0
  191.3360  178.2560  141.9430 C   0  0  0  0  0  3  0  0  0  0  0  0
  191.6810  178.2890  143.4270 C   0  0  0  0  0  1  0  0  0  0  0  0
  183.3760  179.1260  139.4910 C   0  0  2  0  0  3  0  0  0  0  0  0
  182.9750  180.5010  138.9800 C   0  0  0  0  0  2  0  0  0  0  0  0
  181.5910  180.6500  139.0700 O   0  0  0  0  0  1  0  0  0  0  0  0
  182.2430  178.6340  140.3880 C   0  0  0  0  0  2  0  0  0  0  0  0
  180.3230  177.3090  140.5500 C   0  0  0  0  0  1  0  0  0  0  0  0
  182.3230  176.3840  139.7920 C   0  0  0  0  0  1  0  0  0  0  0  0
  181.4930  177.5760  139.7310 N   0  0  0  0  0  0  0  0  0  0  0  0
  189.4720  176.4740  138.9670 O   0  0  0  0  0  0  0  0  0  0  0  0
  191.6350  175.6270  138.3280 C   0  0  0  0  0  1  0  0  0  0  0  0
  190.2300  176.0190  137.8810 C   0  0  1  0  0  3  0  0  0  0  0  0
  189.5050  174.8720  137.1670 C   0  0  1  0  0  3  0  0  0  0  0  0
  188.1830  174.7870  137.6090 O   0  0  0  0  0  1  0  0  0  0  0  0
  189.5510  174.9630  135.6370 C   0  0  2  0  0  0  0  0  0  0  0  0
  191.0110  174.1510  134.7450 P   0  0  0  0  0  2  0  0  0  0  0  0
  189.1060  176.1440  135.0400 O   0  0  0  0  0  1  0  0  0  0  0  0
  189.1470  173.7830  134.9250 C   0  0  0  0  0  1  0  0  0  0  0  0
  191.4020  172.9700  135.9580 O   0  0  0  0  0  1  0  0  0  0  0  0
  2  6  1  0  0  0  0
  3  7  1  6  0  0  0
  3 19  1  0  0  0  0
  3 10  1  0  0  0  0
  4  1  1  1  0  0  0
  4 17  1  0  0  0  0
  5  1  1  1  0  0  0
  5  3  1  0  0  0  0
  8 28  1  1  0  0  0
  8  5  1  0  0  0  0
 11  8  1  0  0  0  0
 12 10  1  0  0  0  0
 12  9  2  0  0  0  0
 13 15  1  6  0  0  0
 13 14  1  0  0  0  0
 13  4  1  0  0  0  0
 14 21  1  6  0  0  0
 14  2  1  0  0  0  0
 16 11  1  0  0  0  0
 16 15  1  0  0  0  0
 17  6  1  1  0  0  0
 17 12  1  0  0  0  0
 18 19  1  0  0  0  0
 19 20  1  0  0  0  0
 21 22  1  1  0  0  0
 21 24  1  0  0  0  0
 22 23  1  0  0  0  0
 27 26  1  0  0  0  0
 27 24  1  0  0  0  0
 27 25  1  0  0  0  0
 30 29  1  1  0  0  0
 30 28  1  0  0  0  0
 31 32  1  1  0  0  0
 31 30  1  0  0  0  0
 33 36  1  6  0  0  0
 33 31  1  0  0  0  0
 34 33  1  0  0  0  0
 34 37  1  0  0  0  0
 35 33  1  0  0  0  0
M  END
>  <MODEL>
9

>  <REMARK>
 VINA RESULT:      -4.1      4.352      9.407
  Name = 
  9 active torsions:
  status: ('A' for Active; 'I' for Inactive)
    1  A    between atoms: C_1  and  C_5
    2  A    between atoms: C_1  and  C_23
    3  A    between atoms: C_2  and  C_6
    4  A    between atoms: C_6  and  C_8
    5  A    between atoms: C_6  and  C_31
    6  A    between atoms: C_8  and  N_19
    7  A    between atoms: C_9  and  C_30
    8  A    between atoms: C_20  and  O_25
    9  A    between atoms: C_23  and  O_25
                            x       y       z     vdW  Elec       q    Type
                         _______ _______ _______ _____ _____    ______ ____

>  <TORSDO>
F 9

$$$$
