=
 OpenBabel11052413313D

 28 32  0  0  1  0  0  0  0  0999 V2000
  191.0870  177.9070  144.0630 N   0  0  0  0  0  0  0  0  0  0  0  0
  185.6610  178.1370  143.1240 C   0  0  0  0  0  2  0  0  0  0  0  0
  189.4010  178.0880  148.0710 C   0  0  0  0  0  1  0  0  0  0  0  0
  184.9440  178.5920  145.4870 C   0  0  0  0  0  0  0  0  0  0  0  0
  187.3100  177.8340  145.0040 C   0  0  1  0  0  3  0  0  0  0  0  0
  183.3590  178.9030  143.6510 C   0  0  0  0  0  0  0  0  0  0  0  0
  186.0980  178.6420  144.5060 C   0  0  1  0  0  3  0  0  0  0  0  0
  186.4040  177.6160  147.2040 C   0  0  0  0  0  2  0  0  0  0  0  0
  183.6830  178.7640  145.0790 C   0  0  0  0  0  3  0  0  0  0  0  0
  189.7020  176.8800  145.8720 C   0  0  2  0  0  3  0  0  0  0  0  0
  188.5340  178.1880  144.1280 C   0  0  0  0  0  2  0  0  0  0  0  0
  185.2220  178.5370  146.9500 C   0  0  0  0  0  2  0  0  0  0  0  0
  191.7590  175.8420  145.2400 C   0  0  0  0  0  2  0  0  0  0  0  0
  188.7120  177.2860  146.9730 C   0  0  2  0  0  3  0  0  0  0  0  0
  191.0050  176.4340  146.3570 N   0  0  0  0  0  2  0  0  0  0  0  0
  182.1610  179.0490  143.2930 O   0  0  0  0  0  0  0  0  0  0  0  0
  184.4520  178.9240  142.6270 C   0  0  0  0  0  2  0  0  0  0  0  0
  187.5700  178.0700  146.4490 N   0  0  1  0  0  0  0  0  0  0  0  0
  191.4580  176.5040  143.8790 C   0  0  0  0  0  2  0  0  0  0  0  0
  189.8580  178.0340  144.8890 C   0  0  2  0  0  3  0  0  0  0  0  0
  190.9540  178.5210  142.7450 C   0  0  0  0  0  2  0  0  0  0  0  0
  190.8330  177.4500  141.6730 C   0  0  1  0  0  3  0  0  0  0  0  0
  189.9670  177.2770  139.4100 C   0  0  0  0  0  0  0  0  0  0  0  0
  189.5950  177.6720  140.8270 C   0  0  0  0  0  2  0  0  0  0  0  0
  191.9980  177.5410  140.7160 C   0  0  0  0  0  2  0  0  0  0  0  0
  191.4670  177.0370  139.3920 C   0  0  0  0  0  2  0  0  0  0  0  0
  189.2370  176.0100  139.0140 C   0  0  0  0  0  1  0  0  0  0  0  0
  189.6090  178.3960  138.4530 C   0  0  0  0  0  1  0  0  0  0  0  0
  1 20  1  0  0  0  0
  4 12  1  0  0  0  0
  5 11  1  6  0  0  0
  5 18  1  0  0  0  0
  6  9  1  0  0  0  0
  7  2  1  6  0  0  0
  7  5  1  0  0  0  0
  7  4  1  0  0  0  0
  9  4  2  0  0  0  0
 10 15  1  1  0  0  0
 10 14  1  0  0  0  0
 12  8  1  0  0  0  0
 13 15  1  0  0  0  0
 14  3  1  1  0  0  0
 16  6  2  0  0  0  0
 17  2  1  0  0  0  0
 17  6  1  0  0  0  0
 18 14  1  0  0  0  0
 18  8  1  1  0  0  0
 19  1  1  0  0  0  0
 19 13  1  0  0  0  0
 20 11  1  6  0  0  0
 20 10  1  0  0  0  0
 21  1  1  0  0  0  0
 22 21  1  1  0  0  0
 23 24  1  0  0  0  0
 24 22  1  0  0  0  0
 25 22  1  0  0  0  0
 26 23  1  0  0  0  0
 26 25  1  0  0  0  0
 27 23  1  0  0  0  0
 28 23  1  0  0  0  0
M  END
>  <MODEL>
1

>  <REMARK>
 VINA RESULT:      -9.4      0.000      0.000
  Name = 
  2 active torsions:
  status: ('A' for Active; 'I' for Inactive)
    1  A    between atoms: N_1  and  C_2
    2  A    between atoms: C_2  and  C_3
                            x       y       z     vdW  Elec       q    Type
                         _______ _______ _______ _____ _____    ______ ____

>  <TORSDO>
F 2

$$$$
=
 OpenBabel11052413313D

 28 32  0  0  1  0  0  0  0  0999 V2000
  189.8850  177.7920  141.8620 N   0  0  0  0  0  0  0  0  0  0  0  0
  184.4150  178.1680  142.4200 C   0  0  0  0  0  2  0  0  0  0  0  0
  189.3510  178.0530  146.1720 C   0  0  0  0  0  1  0  0  0  0  0  0
  184.3750  178.6630  144.8810 C   0  0  0  0  0  0  0  0  0  0  0  0
  186.5030  177.8340  143.7890 C   0  0  1  0  0  3  0  0  0  0  0  0
  182.3610  179.0030  143.5370 C   0  0  0  0  0  0  0  0  0  0  0  0
  185.2220  178.6720  143.6240 C   0  0  1  0  0  3  0  0  0  0  0  0
  186.2200  177.6590  146.1550 C   0  0  0  0  0  2  0  0  0  0  0  0
  183.0550  178.8670  144.8270 C   0  0  0  0  0  3  0  0  0  0  0  0
  189.0160  176.8200  143.9930 C   0  0  2  0  0  3  0  0  0  0  0  0
  187.4520  178.1460  142.6090 C   0  0  0  0  0  2  0  0  0  0  0  0
  185.0370  178.6120  146.2160 C   0  0  0  0  0  2  0  0  0  0  0  0
  190.7990  175.7190  142.8450 C   0  0  0  0  0  2  0  0  0  0  0  0
  188.3710  177.2630  145.3150 C   0  0  2  0  0  3  0  0  0  0  0  0
  190.3900  176.3420  144.1150 N   0  0  0  0  0  2  0  0  0  0  0  0
  181.1150  179.1800  143.5130 O   0  0  0  0  0  0  0  0  0  0  0  0
  183.1360  178.9850  142.2560 C   0  0  0  0  0  2  0  0  0  0  0  0
  187.1490  178.0750  145.1060 N   0  0  1  0  0  0  0  0  0  0  0  0
  190.1570  176.3780  141.6050 C   0  0  0  0  0  2  0  0  0  0  0  0
  188.9290  177.9610  142.9870 C   0  0  2  0  0  3  0  0  0  0  0  0
  189.4160  178.4000  140.6190 C   0  0  0  0  0  2  0  0  0  0  0  0
  189.2410  177.3380  139.5460 C   0  0  1  0  0  3  0  0  0  0  0  0
  188.1560  177.1470  137.3810 C   0  0  0  0  0  0  0  0  0  0  0  0
  187.9120  177.5030  138.8360 C   0  0  0  0  0  2  0  0  0  0  0  0
  190.2940  177.5030  138.4760 C   0  0  0  0  0  2  0  0  0  0  0  0
  189.6560  176.9880  137.2050 C   0  0  0  0  0  2  0  0  0  0  0  0
  187.4560  175.8470  137.0390 C   0  0  0  0  0  1  0  0  0  0  0  0
  187.6420  178.2570  136.4860 C   0  0  0  0  0  1  0  0  0  0  0  0
  1 20  1  0  0  0  0
  4 12  1  0  0  0  0
  5 11  1  6  0  0  0
  5 18  1  0  0  0  0
  6  9  1  0  0  0  0
  7  2  1  6  0  0  0
  7  5  1  0  0  0  0
  7  4  1  0  0  0  0
  8 12  1  0  0  0  0
  9  4  2  0  0  0  0
 10 15  1  1  0  0  0
 10 14  1  0  0  0  0
 13 15  1  0  0  0  0
 14  3  1  6  0  0  0
 16  6  2  0  0  0  0
 17  2  1  0  0  0  0
 17  6  1  0  0  0  0
 18 14  1  0  0  0  0
 18  8  1  1  0  0  0
 19  1  1  0  0  0  0
 19 13  1  0  0  0  0
 20 11  1  6  0  0  0
 20 10  1  0  0  0  0
 21  1  1  0  0  0  0
 22 21  1  1  0  0  0
 23 24  1  0  0  0  0
 24 22  1  0  0  0  0
 25 22  1  0  0  0  0
 26 23  1  0  0  0  0
 26 25  1  0  0  0  0
 27 23  1  0  0  0  0
 28 23  1  0  0  0  0
M  END
>  <MODEL>
2

>  <REMARK>
 VINA RESULT:      -9.4      1.509      2.048
  Name = 
  2 active torsions:
  status: ('A' for Active; 'I' for Inactive)
    1  A    between atoms: N_1  and  C_2
    2  A    between atoms: C_2  and  C_3
                            x       y       z     vdW  Elec       q    Type
                         _______ _______ _______ _____ _____    ______ ____

>  <TORSDO>
F 2

$$$$
=
 OpenBabel11052413313D

 28 32  0  0  1  0  0  0  0  0999 V2000
  187.4310  178.4800  139.6700 N   0  0  0  0  0  0  0  0  0  0  0  0
  187.2600  177.2130  145.0310 C   0  0  0  0  0  2  0  0  0  0  0  0
  191.6130  177.7830  140.6510 C   0  0  0  0  0  1  0  0  0  0  0  0
  189.7360  177.2140  145.4420 C   0  0  0  0  0  0  0  0  0  0  0  0
  188.8450  177.2250  143.0730 C   0  0  1  0  0  3  0  0  0  0  0  0
  188.1870  177.2230  147.3340 C   0  0  0  0  0  0  0  0  0  0  0  0
  188.6270  177.6890  144.5250 C   0  0  1  0  0  3  0  0  0  0  0  0
  191.0930  176.5450  143.5070 C   0  0  0  0  0  2  0  0  0  0  0  0
  189.5270  177.0500  146.7520 C   0  0  0  0  0  3  0  0  0  0  0  0
  189.2480  176.9290  140.4020 C   0  0  2  0  0  3  0  0  0  0  0  0
  187.8710  178.0000  142.1550 C   0  0  0  0  0  2  0  0  0  0  0  0
  191.1280  177.1030  144.9200 C   0  0  0  0  0  2  0  0  0  0  0  0
  188.2120  176.5980  138.2750 C   0  0  0  0  0  2  0  0  0  0  0  0
  190.5160  176.9240  141.2690 C   0  0  2  0  0  3  0  0  0  0  0  0
  189.4900  176.8370  138.9650 N   0  0  0  0  0  2  0  0  0  0  0  0
  188.0140  177.0480  148.5680 O   0  0  0  0  0  0  0  0  0  0  0  0
  187.0400  177.6570  146.4740 C   0  0  0  0  0  2  0  0  0  0  0  0
  190.2610  177.3880  142.6510 N   0  0  1  0  0  0  0  0  0  0  0  0
  187.0070  177.2700  138.9660 C   0  0  0  0  0  2  0  0  0  0  0  0
  188.4220  178.1660  140.7320 C   0  0  2  0  0  3  0  0  0  0  0  0
  186.2390  179.1520  140.1820 C   0  0  0  0  0  2  0  0  0  0  0  0
  184.9870  178.5320  139.5860 C   0  0  1  0  0  3  0  0  0  0  0  0
  182.6890  178.1380  140.2680 C   0  0  0  0  0  0  0  0  0  0  0  0
  184.1340  177.8950  140.6650 C   0  0  0  0  0  2  0  0  0  0  0  0
  184.1220  179.6050  138.9670 C   0  0  0  0  0  2  0  0  0  0  0  0
  182.7040  179.0920  139.0870 C   0  0  0  0  0  2  0  0  0  0  0  0
  182.0330  176.8320  139.8670 C   0  0  0  0  0  1  0  0  0  0  0  0
  181.9340  178.7560  141.4270 C   0  0  0  0  0  1  0  0  0  0  0  0
  1 21  1  0  0  0  0
  1 20  1  0  0  0  0
  2 17  1  0  0  0  0
  4  9  2  0  0  0  0
  5 11  1  6  0  0  0
  5  7  1  0  0  0  0
  6 16  2  0  0  0  0
  7  2  1  1  0  0  0
  7  4  1  0  0  0  0
  8 12  1  0  0  0  0
  9  6  1  0  0  0  0
 10 15  1  6  0  0  0
 10 20  1  0  0  0  0
 10 14  1  0  0  0  0
 12  4  1  0  0  0  0
 13 15  1  0  0  0  0
 13 19  1  0  0  0  0
 14  3  1  6  0  0  0
 14 18  1  0  0  0  0
 17  6  1  0  0  0  0
 18  5  1  0  0  0  0
 18  8  1  1  0  0  0
 19  1  1  0  0  0  0
 20 11  1  1  0  0  0
 22 21  1  1  0  0  0
 22 24  1  0  0  0  0
 23 24  1  0  0  0  0
 23 28  1  0  0  0  0
 25 26  1  0  0  0  0
 25 22  1  0  0  0  0
 26 23  1  0  0  0  0
 27 23  1  0  0  0  0
M  END
>  <MODEL>
3

>  <REMARK>
 VINA RESULT:      -8.3      2.944      6.226
  Name = 
  2 active torsions:
  status: ('A' for Active; 'I' for Inactive)
    1  A    between atoms: N_1  and  C_2
    2  A    between atoms: C_2  and  C_3
                            x       y       z     vdW  Elec       q    Type
                         _______ _______ _______ _____ _____    ______ ____

>  <TORSDO>
F 2

$$$$
=
 OpenBabel11052413313D

 28 32  0  0  1  0  0  0  0  0999 V2000
  188.7730  177.6100  138.2320 N   0  0  0  0  0  0  0  0  0  0  0  0
  186.3600  177.4860  143.1850 C   0  0  0  0  0  2  0  0  0  0  0  0
  192.1530  177.5840  140.9720 C   0  0  0  0  0  1  0  0  0  0  0  0
  188.4300  177.8370  144.5610 C   0  0  0  0  0  0  0  0  0  0  0  0
  188.6240  177.2560  142.1050 C   0  0  1  0  0  3  0  0  0  0  0  0
  186.2260  178.0790  145.5920 C   0  0  0  0  0  0  0  0  0  0  0  0
  187.8100  177.9880  143.1870 C   0  0  1  0  0  3  0  0  0  0  0  0
  190.4830  176.9260  143.5690 C   0  0  0  0  0  2  0  0  0  0  0  0
  187.6880  177.9310  145.6680 C   0  0  0  0  0  3  0  0  0  0  0  0
  190.1220  176.4500  139.9860 C   0  0  2  0  0  3  0  0  0  0  0  0
  188.1250  177.7130  140.7150 C   0  0  0  0  0  2  0  0  0  0  0  0
  189.9130  177.7690  144.6970 C   0  0  0  0  0  2  0  0  0  0  0  0
  190.0860  175.5710  137.7640 C   0  0  0  0  0  2  0  0  0  0  0  0
  190.9050  176.7620  141.2700 C   0  0  2  0  0  3  0  0  0  0  0  0
  190.9500  176.0850  138.8400 N   0  0  0  0  0  2  0  0  0  0  0  0
  185.5490  178.1500  146.6500 O   0  0  0  0  0  0  0  0  0  0  0  0
  185.5470  178.1980  144.2620 C   0  0  0  0  0  2  0  0  0  0  0  0
  190.0850  177.4770  142.2750 N   0  0  1  0  0  0  0  0  0  0  0  0
  188.6960  176.2410  137.7220 C   0  0  0  0  0  2  0  0  0  0  0  0
  189.2240  177.6330  139.6470 C   0  0  2  0  0  3  0  0  0  0  0  0
  187.4710  178.2430  138.0370 C   0  0  0  0  0  2  0  0  0  0  0  0
  186.4730  177.2400  137.4830 C   0  0  1  0  0  3  0  0  0  0  0  0
  184.0600  177.0380  137.2940 C   0  0  0  0  0  0  0  0  0  0  0  0
  185.1880  177.2590  138.2850 C   0  0  0  0  0  2  0  0  0  0  0  0
  186.0790  177.6240  136.0770 C   0  0  0  0  0  2  0  0  0  0  0  0
  184.6670  177.1070  135.9040 C   0  0  0  0  0  2  0  0  0  0  0  0
  183.4330  175.6760  137.5150 C   0  0  0  0  0  1  0  0  0  0  0  0
  183.0110  178.1180  137.4580 C   0  0  0  0  0  1  0  0  0  0  0  0
  1 20  1  0  0  0  0
  2 17  1  0  0  0  0
  4 12  1  0  0  0  0
  4  9  2  0  0  0  0
  5 11  1  6  0  0  0
  5 18  1  0  0  0  0
  5  7  1  0  0  0  0
  6  9  1  0  0  0  0
  6 16  2  0  0  0  0
  7  2  1  1  0  0  0
  7  4  1  0  0  0  0
  8 12  1  0  0  0  0
 10 15  1  6  0  0  0
 10 14  1  0  0  0  0
 13 15  1  0  0  0  0
 14  3  1  6  0  0  0
 14 18  1  0  0  0  0
 17  6  1  0  0  0  0
 18  8  1  1  0  0  0
 19 13  1  0  0  0  0
 19  1  1  0  0  0  0
 20 10  1  0  0  0  0
 20 11  1  1  0  0  0
 21  1  1  0  0  0  0
 22 21  1  1  0  0  0
 22 24  1  0  0  0  0
 23 28  1  0  0  0  0
 23 27  1  0  0  0  0
 23 24  1  0  0  0  0
 25 22  1  0  0  0  0
 26 25  1  0  0  0  0
 26 23  1  0  0  0  0
M  END
>  <MODEL>
4

>  <REMARK>
 VINA RESULT:      -8.1      3.263      5.585
  Name = 
  2 active torsions:
  status: ('A' for Active; 'I' for Inactive)
    1  A    between atoms: N_1  and  C_2
    2  A    between atoms: C_2  and  C_3
                            x       y       z     vdW  Elec       q    Type
                         _______ _______ _______ _____ _____    ______ ____

>  <TORSDO>
F 2

$$$$
=
 OpenBabel11052413313D

 28 32  0  0  1  0  0  0  0  0999 V2000
  185.4750  178.8350  138.9570 N   0  0  0  0  0  0  0  0  0  0  0  0
  187.3360  177.2220  143.8870 C   0  0  0  0  0  2  0  0  0  0  0  0
  189.7550  178.4080  138.3010 C   0  0  0  0  0  1  0  0  0  0  0  0
  189.7880  177.3920  143.3780 C   0  0  0  0  0  0  0  0  0  0  0  0
  188.0950  177.4830  141.4990 C   0  0  1  0  0  3  0  0  0  0  0  0
  189.0390  177.1610  145.6930 C   0  0  0  0  0  0  0  0  0  0  0  0
  188.3990  177.8360  142.9660 C   0  0  1  0  0  3  0  0  0  0  0  0
  190.3770  176.9550  141.0330 C   0  0  0  0  0  2  0  0  0  0  0  0
  190.0800  177.1300  144.6550 C   0  0  0  0  0  3  0  0  0  0  0  0
  187.5090  177.3880  138.8470 C   0  0  2  0  0  3  0  0  0  0  0  0
  186.8160  178.2350  141.0650 C   0  0  0  0  0  2  0  0  0  0  0  0
  190.8980  177.4250  142.3820 C   0  0  0  0  0  2  0  0  0  0  0  0
  185.7860  177.1110  137.2150 C   0  0  0  0  0  2  0  0  0  0  0  0
  189.0050  177.4280  139.1950 C   0  0  2  0  0  3  0  0  0  0  0  0
  187.2140  177.4060  137.4170 N   0  0  0  0  0  2  0  0  0  0  0  0
  189.3370  176.8950  146.8870 O   0  0  0  0  0  0  0  0  0  0  0  0
  187.6370  177.5570  145.3450 C   0  0  0  0  0  2  0  0  0  0  0  0
  189.2490  177.7830  140.6120 N   0  0  1  0  0  0  0  0  0  0  0  0
  184.8850  177.6410  138.3500 C   0  0  0  0  0  2  0  0  0  0  0  0
  186.8000  178.5330  139.5590 C   0  0  2  0  0  3  0  0  0  0  0  0
  184.5200  179.3770  139.9200 C   0  0  0  0  0  2  0  0  0  0  0  0
  183.1370  178.7950  139.6780 C   0  0  1  0  0  3  0  0  0  0  0  0
  181.0220  178.6610  140.8650 C   0  0  0  0  0  0  0  0  0  0  0  0
  182.5030  178.3510  140.9810 C   0  0  0  0  0  2  0  0  0  0  0  0
  182.2190  179.8570  139.1210 C   0  0  0  0  0  2  0  0  0  0  0  0
  180.8340  179.4740  139.5960 C   0  0  0  0  0  2  0  0  0  0  0  0
  180.2270  177.3740  140.7750 C   0  0  0  0  0  1  0  0  0  0  0  0
  180.5680  179.4620  142.0680 C   0  0  0  0  0  1  0  0  0  0  0  0
  1 20  1  0  0  0  0
  1 21  1  0  0  0  0
  2 17  1  0  0  0  0
  4  9  2  0  0  0  0
  5 11  1  6  0  0  0
  5  7  1  0  0  0  0
  6 16  2  0  0  0  0
  7  4  1  0  0  0  0
  7  2  1  1  0  0  0
  8 12  1  0  0  0  0
  9  6  1  0  0  0  0
 10 15  1  6  0  0  0
 10 14  1  0  0  0  0
 10 20  1  0  0  0  0
 12  4  1  0  0  0  0
 13 15  1  0  0  0  0
 13 19  1  0  0  0  0
 14  3  1  6  0  0  0
 14 18  1  0  0  0  0
 17  6  1  0  0  0  0
 18  8  1  1  0  0  0
 18  5  1  0  0  0  0
 19  1  1  0  0  0  0
 20 11  1  1  0  0  0
 22 21  1  1  0  0  0
 22 24  1  0  0  0  0
 23 24  1  0  0  0  0
 23 28  1  0  0  0  0
 25 26  1  0  0  0  0
 25 22  1  0  0  0  0
 26 23  1  0  0  0  0
 27 23  1  0  0  0  0
M  END
>  <MODEL>
5

>  <REMARK>
 VINA RESULT:      -7.9      3.688      7.602
  Name = 
  2 active torsions:
  status: ('A' for Active; 'I' for Inactive)
    1  A    between atoms: N_1  and  C_2
    2  A    between atoms: C_2  and  C_3
                            x       y       z     vdW  Elec       q    Type
                         _______ _______ _______ _____ _____    ______ ____

>  <TORSDO>
F 2

$$$$
=
 OpenBabel11052413313D

 28 32  0  0  1  0  0  0  0  0999 V2000
  182.4950  177.7600  139.3690 N   0  0  0  0  0  0  0  0  0  0  0  0
  186.7760  178.1370  142.8190 C   0  0  0  0  0  2  0  0  0  0  0  0
  180.6090  178.6820  143.1800 C   0  0  0  0  0  1  0  0  0  0  0  0
  185.4590  178.3030  144.9500 C   0  0  0  0  0  0  0  0  0  0  0  0
  184.2990  178.5850  142.7180 C   0  0  1  0  0  3  0  0  0  0  0  0
  187.8600  177.8480  145.0340 C   0  0  0  0  0  0  0  0  0  0  0  0
  185.4240  177.8780  143.4960 C   0  0  1  0  0  3  0  0  0  0  0  0
  183.2720  179.3960  144.7160 C   0  0  0  0  0  2  0  0  0  0  0  0
  186.5880  178.2360  145.6620 C   0  0  0  0  0  3  0  0  0  0  0  0
  182.1270  179.3380  141.2700 C   0  0  2  0  0  3  0  0  0  0  0  0
  184.1210  177.8780  141.3550 C   0  0  0  0  0  2  0  0  0  0  0  0
  184.1860  178.6260  145.6550 C   0  0  0  0  0  2  0  0  0  0  0  0
  181.3010  179.9050  139.1010 C   0  0  0  0  0  2  0  0  0  0  0  0
  181.9350  179.3250  142.7940 C   0  0  2  0  0  3  0  0  0  0  0  0
  180.9290  179.6800  140.5070 N   0  0  0  0  0  2  0  0  0  0  0  0
  188.9120  177.8070  145.7240 O   0  0  0  0  0  0  0  0  0  0  0  0
  187.8990  177.4500  143.5900 C   0  0  0  0  0  2  0  0  0  0  0  0
  183.0340  178.6250  143.4980 N   0  0  1  0  0  0  0  0  0  0  0  0
  182.4750  179.0210  138.6280 C   0  0  0  0  0  2  0  0  0  0  0  0
  182.6850  177.9930  140.8240 C   0  0  2  0  0  3  0  0  0  0  0  0
  183.5290  176.9060  138.7880 C   0  0  0  0  0  2  0  0  0  0  0  0
  184.3030  177.6650  137.7230 C   0  0  1  0  0  3  0  0  0  0  0  0
  186.5560  177.6700  136.8150 C   0  0  0  0  0  0  0  0  0  0  0  0
  185.7650  177.7890  138.1050 C   0  0  0  0  0  2  0  0  0  0  0  0
  184.2880  176.8930  136.4240 C   0  0  0  0  0  2  0  0  0  0  0  0
  185.5790  177.2630  135.7270 C   0  0  0  0  0  2  0  0  0  0  0  0
  187.1890  179.0030  136.4690 C   0  0  0  0  0  1  0  0  0  0  0  0
  187.6330  176.6160  136.9680 C   0  0  0  0  0  1  0  0  0  0  0  0
  1 20  1  0  0  0  0
  2 17  1  0  0  0  0
  4 12  1  0  0  0  0
  4  9  2  0  0  0  0
  5 11  1  6  0  0  0
  5  7  1  0  0  0  0
  5 18  1  0  0  0  0
  6  9  1  0  0  0  0
  6 16  2  0  0  0  0
  7  2  1  6  0  0  0
  7  4  1  0  0  0  0
  8 12  1  0  0  0  0
 10 15  1  6  0  0  0
 10 14  1  0  0  0  0
 13 15  1  0  0  0  0
 14  3  1  6  0  0  0
 14 18  1  0  0  0  0
 17  6  1  0  0  0  0
 18  8  1  1  0  0  0
 19 13  1  0  0  0  0
 19  1  1  0  0  0  0
 20 10  1  0  0  0  0
 20 11  1  6  0  0  0
 21  1  1  0  0  0  0
 22 24  1  0  0  0  0
 22 21  1  1  0  0  0
 23 28  1  0  0  0  0
 23 24  1  0  0  0  0
 25 22  1  0  0  0  0
 26 25  1  0  0  0  0
 26 23  1  0  0  0  0
 27 23  1  0  0  0  0
M  END
>  <MODEL>
6

>  <REMARK>
 VINA RESULT:      -7.9      4.078      6.989
  Name = 
  2 active torsions:
  status: ('A' for Active; 'I' for Inactive)
    1  A    between atoms: N_1  and  C_2
    2  A    between atoms: C_2  and  C_3
                            x       y       z     vdW  Elec       q    Type
                         _______ _______ _______ _____ _____    ______ ____

>  <TORSDO>
F 2

$$$$
=
 OpenBabel11052413313D

 28 32  0  0  1  0  0  0  0  0999 V2000
  187.2800  177.2230  146.7910 N   0  0  0  0  0  0  0  0  0  0  0  0
  188.5050  178.3280  141.5330 C   0  0  0  0  0  2  0  0  0  0  0  0
  191.4640  176.0640  146.4910 C   0  0  0  0  0  1  0  0  0  0  0  0
  190.7820  177.2710  141.5030 C   0  0  0  0  0  0  0  0  0  0  0  0
  189.6080  177.6890  143.7060 C   0  0  1  0  0  3  0  0  0  0  0  0
  189.6930  177.8770  139.4000 C   0  0  0  0  0  0  0  0  0  0  0  0
  189.4470  177.3290  142.2180 C   0  0  1  0  0  3  0  0  0  0  0  0
  191.9710  177.3440  143.6510 C   0  0  0  0  0  2  0  0  0  0  0  0
  190.8700  177.4790  140.1860 C   0  0  0  0  0  3  0  0  0  0  0  0
  189.6720  177.8430  146.4180 C   0  0  2  0  0  3  0  0  0  0  0  0
  188.2670  177.4180  144.4270 C   0  0  0  0  0  2  0  0  0  0  0  0
  191.9900  176.7930  142.2350 C   0  0  0  0  0  2  0  0  0  0  0  0
  188.5500  178.6280  148.3770 C   0  0  0  0  0  2  0  0  0  0  0  0
  190.9430  177.2930  145.7560 C   0  0  2  0  0  3  0  0  0  0  0  0
  189.7000  177.8550  147.8780 N   0  0  0  0  0  2  0  0  0  0  0  0
  189.8060  178.0820  138.1630 O   0  0  0  0  0  0  0  0  0  0  0  0
  188.3490  177.9870  140.0540 C   0  0  0  0  0  2  0  0  0  0  0  0
  190.7380  176.9510  144.3300 N   0  0  1  0  0  0  0  0  0  0  0  0
  187.3000  178.5140  147.4800 C   0  0  0  0  0  2  0  0  0  0  0  0
  188.4650  177.0660  145.9080 C   0  0  2  0  0  3  0  0  0  0  0  0
  186.0140  177.1080  146.0730 C   0  0  0  0  0  2  0  0  0  0  0  0
  185.8030  178.3170  145.1770 C   0  0  1  0  0  3  0  0  0  0  0  0
  184.6350  178.8270  143.1090 C   0  0  0  0  0  0  0  0  0  0  0  0
  185.6620  177.8960  143.7280 C   0  0  0  0  0  2  0  0  0  0  0  0
  184.5040  179.0020  145.5280 C   0  0  0  0  0  2  0  0  0  0  0  0
  184.0280  179.6380  144.2400 C   0  0  0  0  0  2  0  0  0  0  0  0
  185.3060  179.7530  142.1140 C   0  0  0  0  0  1  0  0  0  0  0  0
  183.5600  178.0180  142.4130 C   0  0  0  0  0  1  0  0  0  0  0  0
  1 19  1  0  0  0  0
  4  7  1  0  0  0  0
  4 12  1  0  0  0  0
  5 18  1  0  0  0  0
  5 11  1  1  0  0  0
  6 17  1  0  0  0  0
  6  9  1  0  0  0  0
  7  2  1  6  0  0  0
  7  5  1  0  0  0  0
  9  4  2  0  0  0  0
 10 15  1  1  0  0  0
 12  8  1  0  0  0  0
 14 10  1  0  0  0  0
 14  3  1  1  0  0  0
 15 13  1  0  0  0  0
 16  6  2  0  0  0  0
 17  2  1  0  0  0  0
 18  8  1  6  0  0  0
 18 14  1  0  0  0  0
 19 13  1  0  0  0  0
 20 11  1  6  0  0  0
 20 10  1  0  0  0  0
 20  1  1  0  0  0  0
 21  1  1  0  0  0  0
 22 25  1  0  0  0  0
 22 21  1  1  0  0  0
 23 24  1  0  0  0  0
 23 26  1  0  0  0  0
 24 22  1  0  0  0  0
 26 25  1  0  0  0  0
 27 23  1  0  0  0  0
 28 23  1  0  0  0  0
M  END
>  <MODEL>
7

>  <REMARK>
 VINA RESULT:      -7.8      2.105      5.915
  Name = 
  2 active torsions:
  status: ('A' for Active; 'I' for Inactive)
    1  A    between atoms: N_1  and  C_2
    2  A    between atoms: C_2  and  C_3
                            x       y       z     vdW  Elec       q    Type
                         _______ _______ _______ _____ _____    ______ ____

>  <TORSDO>
F 2

$$$$
=
 OpenBabel11052413313D

 28 32  0  0  1  0  0  0  0  0999 V2000
  182.2290  177.8870  139.6380 N   0  0  0  0  0  0  0  0  0  0  0  0
  186.7830  178.1900  142.7260 C   0  0  0  0  0  2  0  0  0  0  0  0
  180.6640  178.6280  143.6290 C   0  0  0  0  0  1  0  0  0  0  0  0
  185.6510  178.2520  144.9660 C   0  0  0  0  0  0  0  0  0  0  0  0
  184.3020  178.6050  142.8540 C   0  0  1  0  0  3  0  0  0  0  0  0
  188.0550  177.8290  144.8280 C   0  0  0  0  0  0  0  0  0  0  0  0
  185.4970  177.8840  143.5040 C   0  0  1  0  0  3  0  0  0  0  0  0
  183.4390  179.3200  144.9630 C   0  0  0  0  0  2  0  0  0  0  0  0
  186.8370  178.1740  145.5770 C   0  0  0  0  0  3  0  0  0  0  0  0
  182.0060  179.3830  141.6260 C   0  0  2  0  0  3  0  0  0  0  0  0
  184.0160  177.9500  141.4830 C   0  0  0  0  0  2  0  0  0  0  0  0
  184.4380  178.5270  145.7890 C   0  0  0  0  0  2  0  0  0  0  0  0
  180.9920  180.0230  139.5600 C   0  0  0  0  0  2  0  0  0  0  0  0
  181.9450  179.3060  143.1590 C   0  0  2  0  0  3  0  0  0  0  0  0
  180.7430  179.7370  140.9820 N   0  0  0  0  0  2  0  0  0  0  0  0
  189.1620  177.7770  145.4240 O   0  0  0  0  0  0  0  0  0  0  0  0
  187.9760  177.4900  143.3710 C   0  0  0  0  0  2  0  0  0  0  0  0
  183.1070  178.5950  143.7380 N   0  0  1  0  0  0  0  0  0  0  0  0
  182.1310  179.1770  138.9540 C   0  0  0  0  0  2  0  0  0  0  0  0
  182.5390  178.0650  141.0800 C   0  0  2  0  0  3  0  0  0  0  0  0
  183.2190  177.0730  138.9370 C   0  0  0  0  0  2  0  0  0  0  0  0
  182.6230  175.7270  138.5580 C   0  0  1  0  0  3  0  0  0  0  0  0
  180.4440  174.8470  137.9430 C   0  0  0  0  0  0  0  0  0  0  0  0
  181.1820  175.6280  139.0160 C   0  0  0  0  0  2  0  0  0  0  0  0
  182.5820  175.5840  137.0550 C   0  0  0  0  0  2  0  0  0  0  0  0
  181.3990  174.6840  136.7740 C   0  0  0  0  0  2  0  0  0  0  0  0
  180.0420  173.4860  138.4750 C   0  0  0  0  0  1  0  0  0  0  0  0
  179.2120  175.6120  137.5060 C   0  0  0  0  0  1  0  0  0  0  0  0
  1 20  1  0  0  0  0
  2 17  1  0  0  0  0
  4  9  2  0  0  0  0
  4 12  1  0  0  0  0
  5 11  1  6  0  0  0
  5  7  1  0  0  0  0
  5 18  1  0  0  0  0
  6 16  2  0  0  0  0
  6  9  1  0  0  0  0
  7  2  1  6  0  0  0
  7  4  1  0  0  0  0
  8 12  1  0  0  0  0
 10 15  1  6  0  0  0
 10 14  1  0  0  0  0
 13 15  1  0  0  0  0
 14  3  1  6  0  0  0
 14 18  1  0  0  0  0
 17  6  1  0  0  0  0
 18  8  1  1  0  0  0
 19 13  1  0  0  0  0
 19  1  1  0  0  0  0
 20 11  1  6  0  0  0
 20 10  1  0  0  0  0
 21  1  1  0  0  0  0
 22 21  1  6  0  0  0
 22 24  1  0  0  0  0
 23 27  1  0  0  0  0
 23 24  1  0  0  0  0
 25 22  1  0  0  0  0
 26 25  1  0  0  0  0
 26 23  1  0  0  0  0
 28 23  1  0  0  0  0
M  END
>  <MODEL>
8

>  <REMARK>
 VINA RESULT:      -7.7      4.947      8.014
  Name = 
  2 active torsions:
  status: ('A' for Active; 'I' for Inactive)
    1  A    between atoms: N_1  and  C_2
    2  A    between atoms: C_2  and  C_3
                            x       y       z     vdW  Elec       q    Type
                         _______ _______ _______ _____ _____    ______ ____

>  <TORSDO>
F 2

$$$$
=
 OpenBabel11052413313D

 28 32  0  0  1  0  0  0  0  0999 V2000
  188.1590  178.2780  142.2030 N   0  0  0  0  0  0  0  0  0  0  0  0
  183.0460  177.9990  140.1650 C   0  0  0  0  0  2  0  0  0  0  0  0
  185.6800  179.3650  145.6110 C   0  0  0  0  0  1  0  0  0  0  0  0
  181.8560  178.9910  142.1410 C   0  0  0  0  0  0  0  0  0  0  0  0
  184.2690  178.2550  142.3530 C   0  0  1  0  0  3  0  0  0  0  0  0
  180.6870  178.7570  140.0070 C   0  0  0  0  0  0  0  0  0  0  0  0
  183.1890  178.8520  141.4320 C   0  0  1  0  0  3  0  0  0  0  0  0
  182.9260  178.5450  144.3070 C   0  0  0  0  0  2  0  0  0  0  0  0
  180.7070  178.9940  141.4580 C   0  0  0  0  0  3  0  0  0  0  0  0
  186.4260  177.6660  143.8960 C   0  0  2  0  0  3  0  0  0  0  0  0
  185.6490  178.4400  141.6800 C   0  0  0  0  0  2  0  0  0  0  0  0
  181.8250  179.3150  143.5960 C   0  0  0  0  0  2  0  0  0  0  0  0
  188.5660  176.6060  143.9750 C   0  0  0  0  0  2  0  0  0  0  0  0
  185.2300  178.2840  144.6370 C   0  0  2  0  0  3  0  0  0  0  0  0
  187.5990  177.4200  144.7310 N   0  0  0  0  0  2  0  0  0  0  0  0
  179.5900  178.7500  139.3900 O   0  0  0  0  0  0  0  0  0  0  0  0
  181.9680  178.5770  139.2520 C   0  0  0  0  0  2  0  0  0  0  0  0
  184.2240  178.8550  143.7120 N   0  0  1  0  0  0  0  0  0  0  0  0
  188.5560  176.8930  142.4590 C   0  0  0  0  0  2  0  0  0  0  0  0
  186.7860  178.5450  142.7060 C   0  0  2  0  0  3  0  0  0  0  0  0
  188.3040  178.5380  140.7730 C   0  0  0  0  0  2  0  0  0  0  0  0
  188.9280  177.3390  140.0790 C   0  0  1  0  0  3  0  0  0  0  0  0
  189.4340  176.6550  137.8040 C   0  0  0  0  0  0  0  0  0  0  0  0
  188.3120  177.1280  138.7100 C   0  0  0  0  0  2  0  0  0  0  0  0
  190.3960  177.5910  139.8280 C   0  0  0  0  0  2  0  0  0  0  0  0
  190.7290  176.7980  138.5830 C   0  0  0  0  0  2  0  0  0  0  0  0
  189.2190  175.2030  137.4250 C   0  0  0  0  0  1  0  0  0  0  0  0
  189.4810  177.5100  136.5540 C   0  0  0  0  0  1  0  0  0  0  0  0
  1 19  1  0  0  0  0
  1 20  1  0  0  0  0
  4 12  1  0  0  0  0
  5 11  1  6  0  0  0
  5 18  1  0  0  0  0
  6  9  1  0  0  0  0
  7  2  1  6  0  0  0
  7  4  1  0  0  0  0
  7  5  1  0  0  0  0
  9  4  2  0  0  0  0
 10 14  1  0  0  0  0
 10 15  1  1  0  0  0
 12  8  1  0  0  0  0
 13 15  1  0  0  0  0
 14  3  1  1  0  0  0
 16  6  2  0  0  0  0
 17  6  1  0  0  0  0
 17  2  1  0  0  0  0
 18  8  1  1  0  0  0
 18 14  1  0  0  0  0
 19 13  1  0  0  0  0
 20 11  1  6  0  0  0
 20 10  1  0  0  0  0
 21  1  1  0  0  0  0
 22 21  1  6  0  0  0
 23 26  1  0  0  0  0
 23 24  1  0  0  0  0
 24 22  1  0  0  0  0
 25 22  1  0  0  0  0
 26 25  1  0  0  0  0
 27 23  1  0  0  0  0
 28 23  1  0  0  0  0
M  END
>  <MODEL>
9

>  <REMARK>
 VINA RESULT:      -7.7      2.376      3.735
  Name = 
  2 active torsions:
  status: ('A' for Active; 'I' for Inactive)
    1  A    between atoms: N_1  and  C_2
    2  A    between atoms: C_2  and  C_3
                            x       y       z     vdW  Elec       q    Type
                         _______ _______ _______ _____ _____    ______ ____

>  <TORSDO>
F 2

$$$$
