=
 OpenBabel11052413263D

 28 30  0  0  1  0  0  0  0  0999 V2000
  188.1710  177.9520  139.7130 C   0  0  1  0  0  3  0  0  0  0  0  0
  184.8860  179.4050  140.2180 N   0  0  0  0  0  0  0  0  0  0  0  0
  186.7640  178.4630  139.6550 C   0  0  0  0  0  0  0  0  0  0  0  0
  184.7260  178.9990  138.8290 C   0  0  0  0  0  3  0  0  0  0  0  0
  186.1660  179.0390  140.6390 N   0  0  0  0  0  0  0  0  0  0  0  0
  185.9760  178.3990  138.5180 O   0  0  0  0  0  0  0  0  0  0  0  0
  189.0110  179.6680  138.2680 O   0  0  0  0  0  0  0  0  0  0  0  0
  189.8190  177.5380  137.8200 N   0  0  0  0  0  2  0  0  0  0  0  0
  188.9960  178.4420  138.5600 C   0  0  0  0  0  0  0  0  0  0  0  0
  189.8900  176.1130  138.1170 C   0  0  2  0  0  3  0  0  0  0  0  0
  191.0020  173.6380  137.2240 N   0  0  0  0  0  0  0  0  0  0  0  0
  191.3490  175.7300  138.4370 C   0  0  0  0  0  2  0  0  0  0  0  0
  187.7480  175.3030  137.0730 C   0  0  0  0  0  1  0  0  0  0  0  0
  189.2600  175.2960  136.9730 C   0  0  2  0  0  3  0  0  0  0  0  0
  189.7580  173.8790  136.9980 C   0  0  0  0  0  3  0  0  0  0  0  0
  191.9350  174.7210  137.4450 C   0  0  0  0  0  2  0  0  0  0  0  0
  188.8500  178.2760  141.0390 C   0  0  0  0  0  2  0  0  0  0  0  0
  189.0390  177.0200  141.8810 C   0  0  0  0  0  2  0  0  0  0  0  0
  187.1950  177.2000  143.5350 C   0  0  0  0  0  3  0  0  0  0  0  0
  189.4640  177.5300  144.3500 C   0  0  0  0  0  0  0  0  0  0  0  0
  187.5690  177.7650  145.8530 C   0  0  0  0  0  0  0  0  0  0  0  0
  188.5730  177.2390  143.2870 C   0  0  0  0  0  0  0  0  0  0  0  0
  188.9450  177.7970  145.6210 C   0  0  0  0  0  3  0  0  0  0  0  0
  186.9430  178.1090  147.4500 Cl  0  0  0  0  0  0  0  0  0  0  0  0
  186.6940  177.4580  144.8120 C   0  0  0  0  0  3  0  0  0  0  0  0
  190.8570  177.5650  144.2050 O   0  0  0  0  0  0  0  0  0  0  0  0
  191.7570  175.6130  143.9720 C   0  0  0  0  0  1  0  0  0  0  0  0
  191.6770  176.7090  144.8300 O   0  0  0  0  0  0  0  0  0  0  0  0
  1 17  1  1  0  0  0
  2  5  1  0  0  0  0
  3  1  1  0  0  0  0
  3  5  2  0  0  0  0
  4  2  2  0  0  0  0
  6  4  1  0  0  0  0
  6  3  1  0  0  0  0
  7  9  2  0  0  0  0
  8  9  1  0  0  0  0
  9  1  1  0  0  0  0
 10  8  1  6  0  0  0
 10 12  1  0  0  0  0
 11 16  1  0  0  0  0
 14 15  1  0  0  0  0
 14 13  1  1  0  0  0
 14 10  1  0  0  0  0
 15 11  2  0  0  0  0
 16 12  1  0  0  0  0
 17 18  1  0  0  0  0
 18 22  1  0  0  0  0
 19 25  1  0  0  0  0
 20 23  2  0  0  0  0
 21 24  1  0  0  0  0
 22 19  2  0  0  0  0
 22 20  1  0  0  0  0
 23 21  1  0  0  0  0
 25 21  2  0  0  0  0
 26 20  1  0  0  0  0
 26 28  1  0  0  0  0
 27 28  1  0  0  0  0
M  END
>  <MODEL>
1

>  <REMARK>
 VINA RESULT:      -7.6      0.000      0.000
  Name = 
  8 active torsions:
  status: ('A' for Active; 'I' for Inactive)
    1  A    between atoms: N_2  and  C_3
    2  A    between atoms: C_9  and  O_14
    3  A    between atoms: C_10  and  C_13
    4  A    between atoms: C_10  and  C_17
    5  A    between atoms: O_14  and  O_25
    6  A    between atoms: C_16  and  C_27
    7  A    between atoms: C_17  and  C_27
    8  A    between atoms: C_26  and  C_27
                            x       y       z     vdW  Elec       q    Type
                         _______ _______ _______ _____ _____    ______ ____

>  <TORSDO>
F 8

$$$$
=
 OpenBabel11052413263D

 28 30  0  0  1  0  0  0  0  0999 V2000
  188.4840  177.9820  142.4090 C   0  0  1  0  0  3  0  0  0  0  0  0
  187.9690  178.2770  138.8310 N   0  0  0  0  0  0  0  0  0  0  0  0
  188.4720  177.9010  140.9140 C   0  0  0  0  0  0  0  0  0  0  0  0
  189.0530  177.3060  138.8090 C   0  0  0  0  0  3  0  0  0  0  0  0
  187.6820  178.5860  140.1620 N   0  0  0  0  0  0  0  0  0  0  0  0
  189.3400  177.1050  140.1860 O   0  0  0  0  0  0  0  0  0  0  0  0
  188.4410  175.6410  142.9120 O   0  0  0  0  0  0  0  0  0  0  0  0
  186.7120  176.8690  143.8560 N   0  0  0  0  0  2  0  0  0  0  0  0
  187.8840  176.7630  143.0440 C   0  0  0  0  0  0  0  0  0  0  0  0
  186.0290  178.1340  144.0930 C   0  0  2  0  0  3  0  0  0  0  0  0
  183.7840  179.3160  145.4060 N   0  0  0  0  0  0  0  0  0  0  0  0
  186.0630  178.4580  145.6000 C   0  0  0  0  0  2  0  0  0  0  0  0
  184.6590  178.3350  141.9920 C   0  0  0  0  0  1  0  0  0  0  0  0
  184.6130  178.0990  143.4880 C   0  0  2  0  0  3  0  0  0  0  0  0
  183.7360  179.1340  144.1320 C   0  0  0  0  0  3  0  0  0  0  0  0
  184.6690  178.5240  146.2310 C   0  0  0  0  0  2  0  0  0  0  0  0
  189.8790  178.2480  142.9630 C   0  0  0  0  0  2  0  0  0  0  0  0
  189.8110  178.7970  144.3830 C   0  0  0  0  0  2  0  0  0  0  0  0
  191.5200  177.0710  144.9030 C   0  0  0  0  0  3  0  0  0  0  0  0
  189.9860  177.6980  146.6850 C   0  0  0  0  0  0  0  0  0  0  0  0
  191.6470  175.9610  147.0440 C   0  0  0  0  0  0  0  0  0  0  0  0
  190.4520  177.8560  145.3560 C   0  0  0  0  0  0  0  0  0  0  0  0
  190.5900  176.7430  147.5110 C   0  0  0  0  0  3  0  0  0  0  0  0
  192.3810  174.7680  148.0930 Cl  0  0  0  0  0  0  0  0  0  0  0  0
  192.1180  176.1300  145.7420 C   0  0  0  0  0  3  0  0  0  0  0  0
  188.9440  178.4550  147.2350 O   0  0  0  0  0  0  0  0  0  0  0  0
  187.6580  177.9660  148.9020 C   0  0  0  0  0  1  0  0  0  0  0  0
  188.8110  178.6660  148.5520 O   0  0  0  0  0  0  0  0  0  0  0  0
  1 17  1  1  0  0  0
  1  9  1  0  0  0  0
  2  5  1  0  0  0  0
  3  1  1  0  0  0  0
  4  2  2  0  0  0  0
  4  6  1  0  0  0  0
  5  3  2  0  0  0  0
  6  3  1  0  0  0  0
  7  9  2  0  0  0  0
  9  8  1  0  0  0  0
 10  8  1  1  0  0  0
 10 12  1  0  0  0  0
 11 16  1  0  0  0  0
 12 16  1  0  0  0  0
 14 13  1  6  0  0  0
 14 10  1  0  0  0  0
 14 15  1  0  0  0  0
 15 11  2  0  0  0  0
 17 18  1  0  0  0  0
 18 22  1  0  0  0  0
 19 22  2  0  0  0  0
 19 25  1  0  0  0  0
 20 26  1  0  0  0  0
 20 23  2  0  0  0  0
 21 23  1  0  0  0  0
 21 24  1  0  0  0  0
 22 20  1  0  0  0  0
 25 21  2  0  0  0  0
 26 28  1  0  0  0  0
 28 27  1  0  0  0  0
M  END
>  <MODEL>
2

>  <REMARK>
 VINA RESULT:      -7.4      2.905      6.204
  Name = 
  8 active torsions:
  status: ('A' for Active; 'I' for Inactive)
    1  A    between atoms: N_2  and  C_3
    2  A    between atoms: C_9  and  O_14
    3  A    between atoms: C_10  and  C_13
    4  A    between atoms: C_10  and  C_17
    5  A    between atoms: O_14  and  O_25
    6  A    between atoms: C_16  and  C_27
    7  A    between atoms: C_17  and  C_27
    8  A    between atoms: C_26  and  C_27
                            x       y       z     vdW  Elec       q    Type
                         _______ _______ _______ _____ _____    ______ ____

>  <TORSDO>
F 8

$$$$
=
 OpenBabel11052413263D

 28 30  0  0  1  0  0  0  0  0999 V2000
  188.1370  177.8910  139.8340 C   0  0  1  0  0  3  0  0  0  0  0  0
  184.9090  179.4770  140.3050 N   0  0  0  0  0  0  0  0  0  0  0  0
  186.7500  178.4530  139.7640 C   0  0  0  0  0  0  0  0  0  0  0  0
  184.7340  179.0470  138.9250 C   0  0  0  0  0  3  0  0  0  0  0  0
  186.1750  179.0720  140.7350 N   0  0  0  0  0  0  0  0  0  0  0  0
  185.9600  178.3940  138.6280 O   0  0  0  0  0  0  0  0  0  0  0  0
  189.0600  179.6720  138.5260 O   0  0  0  0  0  0  0  0  0  0  0  0
  189.8690  177.5610  138.0000 N   0  0  0  0  0  2  0  0  0  0  0  0
  189.0200  178.4320  138.7500 C   0  0  0  0  0  0  0  0  0  0  0  0
  189.9130  176.1210  138.2210 C   0  0  2  0  0  3  0  0  0  0  0  0
  190.9630  173.6740  137.1880 N   0  0  0  0  0  0  0  0  0  0  0  0
  191.3670  175.6920  138.5040 C   0  0  0  0  0  2  0  0  0  0  0  0
  187.7430  175.4110  137.1630 C   0  0  0  0  0  1  0  0  0  0  0  0
  189.2540  175.3790  137.0440 C   0  0  2  0  0  3  0  0  0  0  0  0
  189.7220  173.9520  136.9900 C   0  0  0  0  0  3  0  0  0  0  0  0
  191.9210  174.7240  137.4540 C   0  0  0  0  0  2  0  0  0  0  0  0
  188.7760  178.0950  141.2020 C   0  0  0  0  0  2  0  0  0  0  0  0
  188.6600  176.8370  142.0560 C   0  0  0  0  0  2  0  0  0  0  0  0
  190.0220  176.9600  144.1300 C   0  0  0  0  0  3  0  0  0  0  0  0
  187.6820  177.6120  144.2880 C   0  0  0  0  0  0  0  0  0  0  0  0
  189.0970  177.6080  146.2640 C   0  0  0  0  0  0  0  0  0  0  0  0
  188.7800  177.1620  143.5130 C   0  0  0  0  0  0  0  0  0  0  0  0
  187.8570  177.8210  145.6610 C   0  0  0  0  0  3  0  0  0  0  0  0
  189.2880  177.8700  147.9840 Cl  0  0  0  0  0  0  0  0  0  0  0  0
  190.1820  177.1850  145.4980 C   0  0  0  0  0  3  0  0  0  0  0  0
  186.4120  177.8670  143.7560 O   0  0  0  0  0  0  0  0  0  0  0  0
  184.3130  178.3820  143.7060 C   0  0  0  0  0  1  0  0  0  0  0  0
  185.5120  178.6530  144.3620 O   0  0  0  0  0  0  0  0  0  0  0  0
  1 17  1  1  0  0  0
  2  5  1  0  0  0  0
  3  1  1  0  0  0  0
  3  5  2  0  0  0  0
  4  2  2  0  0  0  0
  6  4  1  0  0  0  0
  6  3  1  0  0  0  0
  7  9  2  0  0  0  0
  8  9  1  0  0  0  0
  9  1  1  0  0  0  0
 10  8  1  6  0  0  0
 10 12  1  0  0  0  0
 11 16  1  0  0  0  0
 14 13  1  1  0  0  0
 14 10  1  0  0  0  0
 15 14  1  0  0  0  0
 15 11  2  0  0  0  0
 16 12  1  0  0  0  0
 17 18  1  0  0  0  0
 18 22  1  0  0  0  0
 19 25  1  0  0  0  0
 20 23  2  0  0  0  0
 21 24  1  0  0  0  0
 22 19  2  0  0  0  0
 22 20  1  0  0  0  0
 23 21  1  0  0  0  0
 25 21  2  0  0  0  0
 26 20  1  0  0  0  0
 26 28  1  0  0  0  0
 27 28  1  0  0  0  0
M  END
>  <MODEL>
3

>  <REMARK>
 VINA RESULT:      -7.3      1.561      2.388
  Name = 
  8 active torsions:
  status: ('A' for Active; 'I' for Inactive)
    1  A    between atoms: N_2  and  C_3
    2  A    between atoms: C_9  and  O_14
    3  A    between atoms: C_10  and  C_13
    4  A    between atoms: C_10  and  C_17
    5  A    between atoms: O_14  and  O_25
    6  A    between atoms: C_16  and  C_27
    7  A    between atoms: C_17  and  C_27
    8  A    between atoms: C_26  and  C_27
                            x       y       z     vdW  Elec       q    Type
                         _______ _______ _______ _____ _____    ______ ____

>  <TORSDO>
F 8

$$$$
=
 OpenBabel11052413263D

 28 30  0  0  1  0  0  0  0  0999 V2000
  189.0670  176.9060  142.9150 C   0  0  1  0  0  3  0  0  0  0  0  0
  188.9080  177.2000  139.3030 N   0  0  0  0  0  0  0  0  0  0  0  0
  189.2470  176.8830  141.4290 C   0  0  0  0  0  0  0  0  0  0  0  0
  190.1990  176.5360  139.4050 C   0  0  0  0  0  3  0  0  0  0  0  0
  188.4000  177.3750  140.5930 N   0  0  0  0  0  0  0  0  0  0  0  0
  190.3680  176.3610  140.8050 O   0  0  0  0  0  0  0  0  0  0  0  0
  189.4790  179.2650  142.9470 O   0  0  0  0  0  0  0  0  0  0  0  0
  190.2570  178.1180  144.8090 N   0  0  0  0  0  2  0  0  0  0  0  0
  189.6200  178.1570  143.5300 C   0  0  0  0  0  0  0  0  0  0  0  0
  190.4260  176.8860  145.5690 C   0  0  2  0  0  3  0  0  0  0  0  0
  191.9380  175.6750  147.6680 N   0  0  0  0  0  0  0  0  0  0  0  0
  190.0890  177.1480  147.0500 C   0  0  0  0  0  2  0  0  0  0  0  0
  191.8980  175.5660  144.0110 C   0  0  0  0  0  1  0  0  0  0  0  0
  191.8310  176.3020  145.3350 C   0  0  2  0  0  3  0  0  0  0  0  0
  192.2070  175.3660  146.4480 C   0  0  0  0  0  3  0  0  0  0  0  0
  191.2820  176.9250  147.9840 C   0  0  0  0  0  2  0  0  0  0  0  0
  187.6130  176.7010  143.3250 C   0  0  0  0  0  2  0  0  0  0  0  0
  187.1520  177.7940  144.2820 C   0  0  0  0  0  2  0  0  0  0  0  0
  185.2760  178.2440  142.7170 C   0  0  0  0  0  3  0  0  0  0  0  0
  184.8160  178.4380  145.1000 C   0  0  0  0  0  0  0  0  0  0  0  0
  183.0870  178.9350  143.4660 C   0  0  0  0  0  0  0  0  0  0  0  0
  185.7170  178.1490  144.0440 C   0  0  0  0  0  0  0  0  0  0  0  0
  183.5100  178.8350  144.7920 C   0  0  0  0  0  3  0  0  0  0  0  0
  181.4510  179.4410  143.1070 Cl  0  0  0  0  0  0  0  0  0  0  0  0
  183.9670  178.6310  142.4280 C   0  0  0  0  0  3  0  0  0  0  0  0
  185.1570  178.3440  146.4550 O   0  0  0  0  0  0  0  0  0  0  0  0
  186.8140  178.7310  147.7880 C   0  0  0  0  0  1  0  0  0  0  0  0
  185.7490  179.3410  147.1280 O   0  0  0  0  0  0  0  0  0  0  0  0
  1 17  1  6  0  0  0
  1  9  1  0  0  0  0
  2  4  2  0  0  0  0
  2  5  1  0  0  0  0
  3  1  1  0  0  0  0
  4  6  1  0  0  0  0
  5  3  2  0  0  0  0
  6  3  1  0  0  0  0
  7  9  2  0  0  0  0
  9  8  1  0  0  0  0
 10  8  1  6  0  0  0
 10 12  1  0  0  0  0
 11 16  1  0  0  0  0
 12 16  1  0  0  0  0
 14 13  1  6  0  0  0
 14 10  1  0  0  0  0
 14 15  1  0  0  0  0
 15 11  2  0  0  0  0
 17 18  1  0  0  0  0
 19 22  1  0  0  0  0
 20 26  1  0  0  0  0
 21 23  2  0  0  0  0
 22 18  1  0  0  0  0
 22 20  2  0  0  0  0
 23 20  1  0  0  0  0
 24 21  1  0  0  0  0
 25 19  2  0  0  0  0
 25 21  1  0  0  0  0
 26 28  1  0  0  0  0
 28 27  1  0  0  0  0
M  END
>  <MODEL>
4

>  <REMARK>
 VINA RESULT:      -7.2      3.675      6.369
  Name = 
  8 active torsions:
  status: ('A' for Active; 'I' for Inactive)
    1  A    between atoms: N_2  and  C_3
    2  A    between atoms: C_9  and  O_14
    3  A    between atoms: C_10  and  C_13
    4  A    between atoms: C_10  and  C_17
    5  A    between atoms: O_14  and  O_25
    6  A    between atoms: C_16  and  C_27
    7  A    between atoms: C_17  and  C_27
    8  A    between atoms: C_26  and  C_27
                            x       y       z     vdW  Elec       q    Type
                         _______ _______ _______ _____ _____    ______ ____

>  <TORSDO>
F 8

$$$$
=
 OpenBabel11052413263D

 28 30  0  0  1  0  0  0  0  0999 V2000
  184.1480  177.8840  140.3170 C   0  0  1  0  0  3  0  0  0  0  0  0
  181.1950  175.9590  139.4600 N   0  0  0  0  0  0  0  0  0  0  0  0
  182.7870  177.3010  140.0910 C   0  0  0  0  0  0  0  0  0  0  0  0
  180.5430  177.0300  140.1990 C   0  0  0  0  0  3  0  0  0  0  0  0
  182.5700  176.2070  139.4480 N   0  0  0  0  0  0  0  0  0  0  0  0
  181.6240  177.8660  140.5880 O   0  0  0  0  0  0  0  0  0  0  0  0
  183.7170  180.0830  139.4710 O   0  0  0  0  0  0  0  0  0  0  0  0
  185.5250  179.0030  138.4940 N   0  0  0  0  0  2  0  0  0  0  0  0
  184.4240  179.0410  139.4050 C   0  0  0  0  0  0  0  0  0  0  0  0
  186.4150  177.8550  138.3810 C   0  0  2  0  0  3  0  0  0  0  0  0
  188.7570  176.8910  137.0610 N   0  0  0  0  0  0  0  0  0  0  0  0
  187.8250  178.2510  138.8630 C   0  0  0  0  0  2  0  0  0  0  0  0
  185.1420  176.4270  136.7460 C   0  0  0  0  0  1  0  0  0  0  0  0
  186.3740  177.2850  136.9510 C   0  0  2  0  0  3  0  0  0  0  0  0
  187.6050  176.4710  136.6700 C   0  0  0  0  0  3  0  0  0  0  0  0
  188.8850  178.1490  137.7620 C   0  0  0  0  0  2  0  0  0  0  0  0
  184.3750  178.2770  141.7720 C   0  0  0  0  0  2  0  0  0  0  0  0
  185.8490  178.5600  142.0410 C   0  0  0  0  0  2  0  0  0  0  0  0
  185.3450  178.8550  144.4560 C   0  0  0  0  0  3  0  0  0  0  0  0
  187.3530  177.6070  143.8760 C   0  0  0  0  0  0  0  0  0  0  0  0
  186.7970  178.0350  146.2030 C   0  0  0  0  0  0  0  0  0  0  0  0
  186.1910  178.3140  143.4780 C   0  0  0  0  0  0  0  0  0  0  0  0
  187.6430  177.4840  145.2390 C   0  0  0  0  0  3  0  0  0  0  0  0
  187.1850  177.8740  147.9010 Cl  0  0  0  0  0  0  0  0  0  0  0  0
  185.6430  178.7140  145.8120 C   0  0  0  0  0  3  0  0  0  0  0  0
  188.2420  177.0090  142.9740 O   0  0  0  0  0  0  0  0  0  0  0  0
  190.1510  176.0040  142.8470 C   0  0  0  0  0  1  0  0  0  0  0  0
  188.8140  175.8180  143.1940 O   0  0  0  0  0  0  0  0  0  0  0  0
  1 17  1  1  0  0  0
  2  4  2  0  0  0  0
  3  1  1  0  0  0  0
  3  6  1  0  0  0  0
  4  6  1  0  0  0  0
  5  2  1  0  0  0  0
  5  3  2  0  0  0  0
  8  9  1  0  0  0  0
  9  7  2  0  0  0  0
  9  1  1  0  0  0  0
 10  8  1  6  0  0  0
 10 12  1  0  0  0  0
 11 16  1  0  0  0  0
 14 13  1  1  0  0  0
 14 10  1  0  0  0  0
 15 14  1  0  0  0  0
 15 11  2  0  0  0  0
 16 12  1  0  0  0  0
 17 18  1  0  0  0  0
 18 22  1  0  0  0  0
 19 25  1  0  0  0  0
 20 23  2  0  0  0  0
 21 24  1  0  0  0  0
 22 20  1  0  0  0  0
 22 19  2  0  0  0  0
 23 21  1  0  0  0  0
 25 21  2  0  0  0  0
 26 28  1  0  0  0  0
 26 20  1  0  0  0  0
 27 28  1  0  0  0  0
M  END
>  <MODEL>
5

>  <REMARK>
 VINA RESULT:      -6.8      2.552      3.720
  Name = 
  8 active torsions:
  status: ('A' for Active; 'I' for Inactive)
    1  A    between atoms: N_2  and  C_3
    2  A    between atoms: C_9  and  O_14
    3  A    between atoms: C_10  and  C_13
    4  A    between atoms: C_10  and  C_17
    5  A    between atoms: O_14  and  O_25
    6  A    between atoms: C_16  and  C_27
    7  A    between atoms: C_17  and  C_27
    8  A    between atoms: C_26  and  C_27
                            x       y       z     vdW  Elec       q    Type
                         _______ _______ _______ _____ _____    ______ ____

>  <TORSDO>
F 8

$$$$
=
 OpenBabel11052413263D

 28 30  0  0  1  0  0  0  0  0999 V2000
  184.5370  178.4790  140.4270 C   0  0  1  0  0  3  0  0  0  0  0  0
  181.0330  177.5670  140.6550 N   0  0  0  0  0  0  0  0  0  0  0  0
  183.0800  178.2990  140.7280 C   0  0  0  0  0  0  0  0  0  0  0  0
  181.0750  178.5210  141.7530 C   0  0  0  0  0  3  0  0  0  0  0  0
  182.3080  177.4930  140.0870 N   0  0  0  0  0  0  0  0  0  0  0  0
  182.4270  178.9580  141.7560 O   0  0  0  0  0  0  0  0  0  0  0  0
  184.1690  180.4220  139.0760 O   0  0  0  0  0  0  0  0  0  0  0  0
  185.6870  178.9010  138.1980 N   0  0  0  0  0  2  0  0  0  0  0  0
  184.7600  179.3160  139.2030 C   0  0  0  0  0  0  0  0  0  0  0  0
  186.4410  177.6570  138.2860 C   0  0  2  0  0  3  0  0  0  0  0  0
  188.4710  176.1100  137.0030 N   0  0  0  0  0  0  0  0  0  0  0  0
  187.9360  177.9770  138.4850 C   0  0  0  0  0  2  0  0  0  0  0  0
  184.8200  176.0450  137.2340 C   0  0  0  0  0  1  0  0  0  0  0  0
  186.1430  176.7640  137.0670 C   0  0  2  0  0  3  0  0  0  0  0  0
  187.2400  175.7560  136.8690 C   0  0  0  0  0  3  0  0  0  0  0  0
  188.8140  177.4750  137.3350 C   0  0  0  0  0  2  0  0  0  0  0  0
  185.3070  179.0440  141.6150 C   0  0  0  0  0  2  0  0  0  0  0  0
  185.4910  177.9910  142.7020 C   0  0  0  0  0  2  0  0  0  0  0  0
  187.9040  178.1210  142.1240 C   0  0  0  0  0  3  0  0  0  0  0  0
  187.3320  177.4790  144.4010 C   0  0  0  0  0  0  0  0  0  0  0  0
  189.6540  177.5590  143.6900 C   0  0  0  0  0  0  0  0  0  0  0  0
  186.9300  177.8750  143.1010 C   0  0  0  0  0  0  0  0  0  0  0  0
  188.6950  177.3200  144.6750 C   0  0  0  0  0  3  0  0  0  0  0  0
  191.3520  177.3460  144.0540 Cl  0  0  0  0  0  0  0  0  0  0  0  0
  189.2600  177.9680  142.4160 C   0  0  0  0  0  3  0  0  0  0  0  0
  186.4340  177.2370  145.4490 O   0  0  0  0  0  0  0  0  0  0  0  0
  185.6450  178.8700  146.6260 C   0  0  0  0  0  1  0  0  0  0  0  0
  186.5490  177.8100  146.6550 O   0  0  0  0  0  0  0  0  0  0  0  0
  1  3  1  0  0  0  0
  1 17  1  1  0  0  0
  2  4  2  0  0  0  0
  3  6  1  0  0  0  0
  4  6  1  0  0  0  0
  5  2  1  0  0  0  0
  5  3  2  0  0  0  0
  7  9  2  0  0  0  0
  8  9  1  0  0  0  0
  9  1  1  0  0  0  0
 10  8  1  6  0  0  0
 10 12  1  0  0  0  0
 11 16  1  0  0  0  0
 14 13  1  1  0  0  0
 14 10  1  0  0  0  0
 15 11  2  0  0  0  0
 15 14  1  0  0  0  0
 16 12  1  0  0  0  0
 17 18  1  0  0  0  0
 18 22  1  0  0  0  0
 19 25  2  0  0  0  0
 19 22  1  0  0  0  0
 20 23  1  0  0  0  0
 20 26  1  0  0  0  0
 21 24  1  0  0  0  0
 21 23  2  0  0  0  0
 22 20  2  0  0  0  0
 25 21  1  0  0  0  0
 26 28  1  0  0  0  0
 27 28  1  0  0  0  0
M  END
>  <MODEL>
6

>  <REMARK>
 VINA RESULT:      -6.7      2.812      4.076
  Name = 
  8 active torsions:
  status: ('A' for Active; 'I' for Inactive)
    1  A    between atoms: N_2  and  C_3
    2  A    between atoms: C_9  and  O_14
    3  A    between atoms: C_10  and  C_13
    4  A    between atoms: C_10  and  C_17
    5  A    between atoms: O_14  and  O_25
    6  A    between atoms: C_16  and  C_27
    7  A    between atoms: C_17  and  C_27
    8  A    between atoms: C_26  and  C_27
                            x       y       z     vdW  Elec       q    Type
                         _______ _______ _______ _____ _____    ______ ____

>  <TORSDO>
F 8

$$$$
=
 OpenBabel11052413263D

 28 30  0  0  1  0  0  0  0  0999 V2000
  183.8640  178.4240  140.9160 C   0  0  1  0  0  3  0  0  0  0  0  0
  186.8780  178.6260  138.9060 N   0  0  0  0  0  0  0  0  0  0  0  0
  184.9300  178.4840  139.8650 C   0  0  0  0  0  0  0  0  0  0  0  0
  185.9200  178.4210  137.8300 C   0  0  0  0  0  3  0  0  0  0  0  0
  186.1820  178.6480  140.1180 N   0  0  0  0  0  0  0  0  0  0  0  0
  184.6760  178.3310  138.5120 O   0  0  0  0  0  0  0  0  0  0  0  0
  182.8680  176.5330  139.8360 O   0  0  0  0  0  0  0  0  0  0  0  0
  181.3600  177.9850  140.8380 N   0  0  0  0  0  2  0  0  0  0  0  0
  182.6890  177.6010  140.4790 C   0  0  0  0  0  0  0  0  0  0  0  0
  181.0680  179.1830  141.6140 C   0  0  2  0  0  3  0  0  0  0  0  0
  179.0440  180.4770  143.1610 N   0  0  0  0  0  0  0  0  0  0  0  0
  180.8110  178.7920  143.0830 C   0  0  0  0  0  2  0  0  0  0  0  0
  180.4210  180.7870  139.7850 C   0  0  0  0  0  1  0  0  0  0  0  0
  179.9190  179.9750  140.9620 C   0  0  2  0  0  3  0  0  0  0  0  0
  179.2730  180.8910  141.9630 C   0  0  0  0  0  3  0  0  0  0  0  0
  179.3940  179.1300  143.5550 C   0  0  0  0  0  2  0  0  0  0  0  0
  184.4000  177.9320  142.2550 C   0  0  0  0  0  2  0  0  0  0  0  0
  184.9040  179.0920  143.1050 C   0  0  0  0  0  2  0  0  0  0  0  0
  185.2080  179.0240  145.5700 C   0  0  0  0  0  3  0  0  0  0  0  0
  186.7870  177.7640  144.2120 C   0  0  0  0  0  0  0  0  0  0  0  0
  187.0300  177.8450  146.6290 C   0  0  0  0  0  0  0  0  0  0  0  0
  185.6450  178.5970  144.3090 C   0  0  0  0  0  0  0  0  0  0  0  0
  187.4700  177.4050  145.3790 C   0  0  0  0  0  3  0  0  0  0  0  0
  187.9060  177.3880  148.0740 Cl  0  0  0  0  0  0  0  0  0  0  0  0
  185.8950  178.6480  146.7250 C   0  0  0  0  0  3  0  0  0  0  0  0
  187.2820  177.2660  143.0000 O   0  0  0  0  0  0  0  0  0  0  0  0
  189.0530  178.2500  142.2460 C   0  0  0  0  0  1  0  0  0  0  0  0
  188.5860  177.0500  142.7780 O   0  0  0  0  0  0  0  0  0  0  0  0
  1 17  1  1  0  0  0
  2  5  1  0  0  0  0
  3  5  2  0  0  0  0
  3  1  1  0  0  0  0
  4  6  1  0  0  0  0
  4  2  2  0  0  0  0
  6  3  1  0  0  0  0
  7  9  2  0  0  0  0
  9  8  1  0  0  0  0
  9  1  1  0  0  0  0
 10  8  1  6  0  0  0
 10 12  1  0  0  0  0
 11 16  1  0  0  0  0
 12 16  1  0  0  0  0
 14 13  1  6  0  0  0
 14 10  1  0  0  0  0
 14 15  1  0  0  0  0
 15 11  2  0  0  0  0
 17 18  1  0  0  0  0
 18 22  1  0  0  0  0
 19 25  1  0  0  0  0
 20 22  1  0  0  0  0
 20 23  2  0  0  0  0
 21 25  2  0  0  0  0
 21 24  1  0  0  0  0
 22 19  2  0  0  0  0
 23 21  1  0  0  0  0
 26 20  1  0  0  0  0
 27 28  1  0  0  0  0
 28 26  1  0  0  0  0
M  END
>  <MODEL>
7

>  <REMARK>
 VINA RESULT:      -6.7      3.563      7.124
  Name = 
  8 active torsions:
  status: ('A' for Active; 'I' for Inactive)
    1  A    between atoms: N_2  and  C_3
    2  A    between atoms: C_9  and  O_14
    3  A    between atoms: C_10  and  C_13
    4  A    between atoms: C_10  and  C_17
    5  A    between atoms: O_14  and  O_25
    6  A    between atoms: C_16  and  C_27
    7  A    between atoms: C_17  and  C_27
    8  A    between atoms: C_26  and  C_27
                            x       y       z     vdW  Elec       q    Type
                         _______ _______ _______ _____ _____    ______ ____

>  <TORSDO>
F 8

$$$$
=
 OpenBabel11052413263D

 28 30  0  0  1  0  0  0  0  0999 V2000
  190.6890  176.7610  140.0620 C   0  0  1  0  0  3  0  0  0  0  0  0
  188.1970  178.8480  138.4510 N   0  0  0  0  0  0  0  0  0  0  0  0
  189.5110  177.3800  139.3740 C   0  0  0  0  0  0  0  0  0  0  0  0
  187.5310  177.5640  138.2940 C   0  0  0  0  0  3  0  0  0  0  0  0
  189.4050  178.6380  139.1210 N   0  0  0  0  0  0  0  0  0  0  0  0
  188.4310  176.6510  138.9060 O   0  0  0  0  0  0  0  0  0  0  0  0
  192.8110  177.8630  139.9320 O   0  0  0  0  0  0  0  0  0  0  0  0
  192.3110  176.5010  138.1200 N   0  0  0  0  0  2  0  0  0  0  0  0
  191.9800  177.0950  139.3770 C   0  0  0  0  0  0  0  0  0  0  0  0
  191.4260  175.5730  137.4290 C   0  0  2  0  0  3  0  0  0  0  0  0
  191.2990  173.6960  135.2790 N   0  0  0  0  0  0  0  0  0  0  0  0
  191.9660  174.1370  137.5870 C   0  0  0  0  0  2  0  0  0  0  0  0
  190.2150  177.1390  135.8760 C   0  0  0  0  0  1  0  0  0  0  0  0
  191.2250  176.0130  135.9670 C   0  0  2  0  0  3  0  0  0  0  0  0
  190.7650  174.8580  135.1250 C   0  0  0  0  0  3  0  0  0  0  0  0
  192.3480  173.4900  136.2530 C   0  0  0  0  0  2  0  0  0  0  0  0
  190.7520  177.1240  141.5400 C   0  0  0  0  0  2  0  0  0  0  0  0
  190.1920  176.0010  142.4060 C   0  0  0  0  0  2  0  0  0  0  0  0
  187.9560  176.6540  143.2700 C   0  0  0  0  0  3  0  0  0  0  0  0
  189.8670  176.9980  144.7380 C   0  0  0  0  0  0  0  0  0  0  0  0
  187.6390  177.6750  145.4360 C   0  0  0  0  0  0  0  0  0  0  0  0
  189.3330  176.5460  143.5060 C   0  0  0  0  0  0  0  0  0  0  0  0
  189.0080  177.5650  145.6860 C   0  0  0  0  0  3  0  0  0  0  0  0
  186.5860  178.3940  146.6340 Cl  0  0  0  0  0  0  0  0  0  0  0  0
  187.1110  177.2120  144.2310 C   0  0  0  0  0  3  0  0  0  0  0  0
  191.2240  176.9080  145.0740 O   0  0  0  0  0  0  0  0  0  0  0  0
  192.0560  175.8750  146.7800 C   0  0  0  0  0  1  0  0  0  0  0  0
  191.6850  177.1330  146.3120 O   0  0  0  0  0  0  0  0  0  0  0  0
  1 17  1  1  0  0  0
  2  5  1  0  0  0  0
  3  1  1  0  0  0  0
  4  2  2  0  0  0  0
  4  6  1  0  0  0  0
  5  3  2  0  0  0  0
  6  3  1  0  0  0  0
  8  9  1  0  0  0  0
  9  7  2  0  0  0  0
  9  1  1  0  0  0  0
 10 12  1  0  0  0  0
 10  8  1  6  0  0  0
 11 16  1  0  0  0  0
 14 13  1  1  0  0  0
 14 10  1  0  0  0  0
 15 11  2  0  0  0  0
 15 14  1  0  0  0  0
 16 12  1  0  0  0  0
 17 18  1  0  0  0  0
 18 22  1  0  0  0  0
 19 22  2  0  0  0  0
 19 25  1  0  0  0  0
 20 26  1  0  0  0  0
 20 23  2  0  0  0  0
 21 23  1  0  0  0  0
 21 24  1  0  0  0  0
 22 20  1  0  0  0  0
 25 21  2  0  0  0  0
 26 28  1  0  0  0  0
 28 27  1  0  0  0  0
M  END
>  <MODEL>
8

>  <REMARK>
 VINA RESULT:      -6.6      1.940      2.406
  Name = 
  8 active torsions:
  status: ('A' for Active; 'I' for Inactive)
    1  A    between atoms: N_2  and  C_3
    2  A    between atoms: C_9  and  O_14
    3  A    between atoms: C_10  and  C_13
    4  A    between atoms: C_10  and  C_17
    5  A    between atoms: O_14  and  O_25
    6  A    between atoms: C_16  and  C_27
    7  A    between atoms: C_17  and  C_27
    8  A    between atoms: C_26  and  C_27
                            x       y       z     vdW  Elec       q    Type
                         _______ _______ _______ _____ _____    ______ ____

>  <TORSDO>
F 8

$$$$
=
 OpenBabel11052413263D

 28 30  0  0  1  0  0  0  0  0999 V2000
  189.1060  177.0840  142.6210 C   0  0  1  0  0  3  0  0  0  0  0  0
  190.6340  176.2850  139.4300 N   0  0  0  0  0  0  0  0  0  0  0  0
  189.5380  176.9290  141.1960 C   0  0  0  0  0  0  0  0  0  0  0  0
  189.5450  177.1180  138.9410 C   0  0  0  0  0  3  0  0  0  0  0  0
  190.5480  176.2230  140.8230 N   0  0  0  0  0  0  0  0  0  0  0  0
  188.8660  177.5020  140.1290 O   0  0  0  0  0  0  0  0  0  0  0  0
  190.1750  179.2260  142.5740 O   0  0  0  0  0  0  0  0  0  0  0  0
  189.8070  178.3710  144.7010 N   0  0  0  0  0  2  0  0  0  0  0  0
  189.7410  178.2740  143.2760 C   0  0  0  0  0  0  0  0  0  0  0  0
  189.2930  177.3340  145.5860 C   0  0  2  0  0  3  0  0  0  0  0  0
  188.3200  176.8490  148.2280 N   0  0  0  0  0  0  0  0  0  0  0  0
  187.8400  177.6680  145.9770 C   0  0  0  0  0  2  0  0  0  0  0  0
  191.4380  176.2960  146.3960 C   0  0  0  0  0  1  0  0  0  0  0  0
  190.2390  177.1370  146.7850 C   0  0  2  0  0  3  0  0  0  0  0  0
  189.5170  176.4820  147.9280 C   0  0  0  0  0  3  0  0  0  0  0  0
  187.6610  177.8980  147.4810 C   0  0  0  0  0  2  0  0  0  0  0  0
  187.5890  177.1350  142.7640 C   0  0  0  0  0  2  0  0  0  0  0  0
  187.0600  178.5410  142.5030 C   0  0  0  0  0  2  0  0  0  0  0  0
  185.2130  178.6050  144.1630 C   0  0  0  0  0  3  0  0  0  0  0  0
  184.6040  178.6930  141.8080 C   0  0  0  0  0  0  0  0  0  0  0  0
  182.8840  178.6630  143.5260 C   0  0  0  0  0  0  0  0  0  0  0  0
  185.5980  178.6320  142.8160 C   0  0  0  0  0  0  0  0  0  0  0  0
  183.2550  178.7000  142.1800 C   0  0  0  0  0  3  0  0  0  0  0  0
  181.1910  178.6660  143.9660 Cl  0  0  0  0  0  0  0  0  0  0  0  0
  183.8630  178.6240  144.5180 C   0  0  0  0  0  3  0  0  0  0  0  0
  184.8920  178.7500  140.4380 O   0  0  0  0  0  0  0  0  0  0  0  0
  184.1440  179.0390  138.4310 C   0  0  0  0  0  1  0  0  0  0  0  0
  184.4040  179.7010  139.6300 O   0  0  0  0  0  0  0  0  0  0  0  0
  1 17  1  6  0  0  0
  1  9  1  0  0  0  0
  2  5  1  0  0  0  0
  3  1  1  0  0  0  0
  4  2  2  0  0  0  0
  4  6  1  0  0  0  0
  5  3  2  0  0  0  0
  6  3  1  0  0  0  0
  7  9  2  0  0  0  0
  9  8  1  0  0  0  0
 10  8  1  6  0  0  0
 10 12  1  0  0  0  0
 10 14  1  0  0  0  0
 12 16  1  0  0  0  0
 14 13  1  6  0  0  0
 14 15  1  0  0  0  0
 15 11  2  0  0  0  0
 16 11  1  0  0  0  0
 18 17  1  0  0  0  0
 18 22  1  0  0  0  0
 19 25  1  0  0  0  0
 20 23  2  0  0  0  0
 20 22  1  0  0  0  0
 21 24  1  0  0  0  0
 21 25  2  0  0  0  0
 22 19  2  0  0  0  0
 23 21  1  0  0  0  0
 26 20  1  0  0  0  0
 27 28  1  0  0  0  0
 28 26  1  0  0  0  0
M  END
>  <MODEL>
9

>  <REMARK>
 VINA RESULT:      -6.5      3.113      7.018
  Name = 
  8 active torsions:
  status: ('A' for Active; 'I' for Inactive)
    1  A    between atoms: N_2  and  C_3
    2  A    between atoms: C_9  and  O_14
    3  A    between atoms: C_10  and  C_13
    4  A    between atoms: C_10  and  C_17
    5  A    between atoms: O_14  and  O_25
    6  A    between atoms: C_16  and  C_27
    7  A    between atoms: C_17  and  C_27
    8  A    between atoms: C_26  and  C_27
                            x       y       z     vdW  Elec       q    Type
                         _______ _______ _______ _____ _____    ______ ____

>  <TORSDO>
F 8

$$$$
