=
 OpenBabel11052413423D

 27 32  0  0  1  0  0  0  0  0999 V2000
  187.6050  178.5940  136.5640 C   0  0  1  0  0  3  0  0  0  0  0  0
  187.2620  177.9760  139.0490 C   0  0  0  0  0  0  0  0  0  0  0  0
  189.2890  176.7030  138.2340 C   0  0  0  0  0  2  0  0  0  0  0  0
  188.8020  178.1900  143.0360 C   0  0  0  0  0  2  0  0  0  0  0  0
  189.7160  176.6410  144.5580 O   0  0  0  0  0  0  0  0  0  0  0  0
  186.5490  178.5900  140.0820 C   0  0  0  0  0  3  0  0  0  0  0  0
  190.3810  176.9080  140.9820 C   0  0  0  0  0  2  0  0  0  0  0  0
  190.5860  175.4570  135.8980 C   0  0  0  0  0  1  0  0  0  0  0  0
  190.3580  176.1920  142.3340 C   0  0  0  0  0  2  0  0  0  0  0  0
  189.9180  177.5040  134.5940 C   0  0  0  0  0  2  0  0  0  0  0  0
  188.5220  177.4100  139.3270 C   0  0  0  0  0  0  0  0  0  0  0  0
  186.6840  177.9880  137.6570 C   0  0  2  0  0  3  0  0  0  0  0  0
  189.6260  176.9810  143.3910 C   0  0  0  0  0  0  0  0  0  0  0  0
  188.2700  178.0910  141.6390 C   0  0  0  0  0  0  0  0  0  0  0  0
  189.0520  178.8310  136.9930 C   0  0  0  0  0  2  0  0  0  0  0  0
  189.0290  177.4640  140.6340 C   0  0  0  0  0  0  0  0  0  0  0  0
  189.7880  176.7510  135.8980 C   0  0  1  0  0  0  0  0  0  0  0  0
  187.0610  178.6360  141.3390 N   0  0  0  0  0  0  0  0  0  0  0  0
  188.5900  176.8250  134.9460 C   0  0  1  0  0  3  0  0  0  0  0  0
  187.5520  177.9320  135.1880 C   0  0  0  0  0  2  0  0  0  0  0  0
  189.7860  177.5620  137.1380 N   0  0  2  0  0  0  0  0  0  0  0  0
  184.4690  174.4500  136.6010 C   0  0  0  0  0  3  0  0  0  0  0  0
  185.9270  176.7380  137.3010 C   0  0  0  0  0  0  0  0  0  0  0  0
  186.5640  175.4920  137.2190 C   0  0  0  0  0  3  0  0  0  0  0  0
  185.8370  174.3510  136.8700 C   0  0  0  0  0  3  0  0  0  0  0  0
  183.8300  175.6900  136.6790 C   0  0  0  0  0  3  0  0  0  0  0  0
  184.5570  176.8320  137.0280 C   0  0  0  0  0  3  0  0  0  0  0  0
  1 20  1  6  0  0  0
  1 15  1  0  0  0  0
  1 12  1  0  0  0  0
  2 11  2  0  0  0  0
  2  6  1  0  0  0  0
  3 11  1  0  0  0  0
  4 13  1  0  0  0  0
  6 18  2  0  0  0  0
  7  9  1  0  0  0  0
  9 13  1  0  0  0  0
 10 17  1  0  0  0  0
 11 16  1  0  0  0  0
 12 23  1  6  0  0  0
 12  2  1  0  0  0  0
 13  5  2  0  0  0  0
 14  4  1  0  0  0  0
 16  7  1  0  0  0  0
 16 14  2  0  0  0  0
 17  8  1  1  0  0  0
 17 21  1  0  0  0  0
 18 14  1  0  0  0  0
 19 10  1  6  0  0  0
 19 20  1  0  0  0  0
 19 17  1  0  0  0  0
 21 15  1  6  0  0  0
 21  3  1  0  0  0  0
 22 26  2  0  0  0  0
 22 25  1  0  0  0  0
 24 23  1  0  0  0  0
 25 24  2  0  0  0  0
 26 27  1  0  0  0  0
 27 23  2  0  0  0  0
M  END
>  <MODEL>
1

>  <REMARK>
 VINA RESULT:      -6.8      0.000      0.000
  Name = 
  1 active torsions:
  status: ('A' for Active; 'I' for Inactive)
    1  A    between atoms: C_9  and  C_15
                            x       y       z     vdW  Elec       q    Type
                         _______ _______ _______ _____ _____    ______ ____

>  <TORSDO>
F 1

$$$$
=
 OpenBabel11052413423D

 27 32  0  0  1  0  0  0  0  0999 V2000
  181.0750  177.1180  139.8540 C   0  0  1  0  0  3  0  0  0  0  0  0
  180.8370  179.6890  139.9490 C   0  0  0  0  0  0  0  0  0  0  0  0
  181.9000  179.1160  137.7280 C   0  0  0  0  0  2  0  0  0  0  0  0
  178.9470  183.1700  138.3280 C   0  0  0  0  0  2  0  0  0  0  0  0
  179.6590  185.0050  137.0330 O   0  0  0  0  0  0  0  0  0  0  0  0
  180.0490  180.5330  140.7360 C   0  0  0  0  0  3  0  0  0  0  0  0
  180.5400  181.4930  136.5940 C   0  0  0  0  0  2  0  0  0  0  0  0
  183.6120  177.1970  136.2870 C   0  0  0  0  0  1  0  0  0  0  0  0
  180.7260  183.0000  136.4010 C   0  0  0  0  0  2  0  0  0  0  0  0
  182.3210  175.3710  137.4430 C   0  0  0  0  0  2  0  0  0  0  0  0
  181.0170  179.9920  138.5850 C   0  0  0  0  0  0  0  0  0  0  0  0
  181.4250  178.4490  140.5730 C   0  0  2  0  0  3  0  0  0  0  0  0
  179.7740  183.8100  137.2440 C   0  0  0  0  0  0  0  0  0  0  0  0
  179.6300  181.9570  138.8830 C   0  0  0  0  0  0  0  0  0  0  0  0
  180.4300  177.2730  138.4790 C   0  0  0  0  0  2  0  0  0  0  0  0
  180.4110  181.1390  138.0480 C   0  0  0  0  0  0  0  0  0  0  0  0
  182.5790  176.8570  137.3500 C   0  0  1  0  0  0  0  0  0  0  0  0
  179.4680  181.6340  140.1940 N   0  0  0  0  0  0  0  0  0  0  0  0
  183.0750  176.0800  138.5730 C   0  0  1  0  0  3  0  0  0  0  0  0
  182.1750  176.0580  139.8180 C   0  0  0  0  0  2  0  0  0  0  0  0
  181.4020  177.7470  137.4780 N   0  0  2  0  0  0  0  0  0  0  0  0
  185.4640  178.8950  141.9960 C   0  0  0  0  0  3  0  0  0  0  0  0
  182.8400  178.6200  141.0510 C   0  0  0  0  0  0  0  0  0  0  0  0
  183.8820  178.9300  140.1650 C   0  0  0  0  0  3  0  0  0  0  0  0
  185.1900  179.0680  140.6370 C   0  0  0  0  0  3  0  0  0  0  0  0
  184.4300  178.5830  142.8830 C   0  0  0  0  0  3  0  0  0  0  0  0
  183.1210  178.4450  142.4110 C   0  0  0  0  0  3  0  0  0  0  0  0
  1 15  1  6  0  0  0
  1 12  1  0  0  0  0
  2 12  1  0  0  0  0
  2  6  1  0  0  0  0
  3 11  1  0  0  0  0
  4 14  1  0  0  0  0
  5 13  2  0  0  0  0
  7 16  1  0  0  0  0
  9  7  1  0  0  0  0
  9 13  1  0  0  0  0
 11  2  2  0  0  0  0
 12 23  1  6  0  0  0
 13  4  1  0  0  0  0
 14 18  1  0  0  0  0
 16 11  1  0  0  0  0
 16 14  2  0  0  0  0
 17  8  1  6  0  0  0
 17 10  1  0  0  0  0
 17 21  1  0  0  0  0
 17 19  1  0  0  0  0
 18  6  2  0  0  0  0
 19 10  1  6  0  0  0
 19 20  1  0  0  0  0
 20  1  1  0  0  0  0
 21  3  1  1  0  0  0
 21 15  1  0  0  0  0
 22 26  1  0  0  0  0
 23 27  1  0  0  0  0
 24 25  1  0  0  0  0
 24 23  2  0  0  0  0
 25 22  2  0  0  0  0
 27 26  2  0  0  0  0
M  END
>  <MODEL>
2

>  <REMARK>
 VINA RESULT:      -6.5      5.871      8.773
  Name = 
  1 active torsions:
  status: ('A' for Active; 'I' for Inactive)
    1  A    between atoms: C_9  and  C_15
                            x       y       z     vdW  Elec       q    Type
                         _______ _______ _______ _____ _____    ______ ____

>  <TORSDO>
F 1

$$$$
=
 OpenBabel11052413423D

 27 32  0  0  1  0  0  0  0  0999 V2000
  187.9060  178.3720  136.3900 C   0  0  1  0  0  3  0  0  0  0  0  0
  186.3010  178.2520  138.4120 C   0  0  0  0  0  0  0  0  0  0  0  0
  188.4230  177.0410  139.0660 C   0  0  0  0  0  2  0  0  0  0  0  0
  185.5420  179.4350  142.4540 C   0  0  0  0  0  2  0  0  0  0  0  0
  185.4880  178.3300  144.5340 O   0  0  0  0  0  0  0  0  0  0  0  0
  185.1710  178.9940  138.7610 C   0  0  0  0  0  3  0  0  0  0  0  0
  187.9260  177.9140  141.8540 C   0  0  0  0  0  2  0  0  0  0  0  0
  190.7140  175.4700  138.0800 C   0  0  0  0  0  1  0  0  0  0  0  0
  187.1840  177.4950  143.1250 C   0  0  0  0  0  2  0  0  0  0  0  0
  190.8780  177.1280  136.1930 C   0  0  0  0  0  2  0  0  0  0  0  0
  187.2170  177.8800  139.4160 C   0  0  0  0  0  0  0  0  0  0  0  0
  186.5340  177.9190  136.9600 C   0  0  2  0  0  3  0  0  0  0  0  0
  186.0290  178.4110  143.4450 C   0  0  0  0  0  0  0  0  0  0  0  0
  185.8140  178.9970  141.0470 C   0  0  0  0  0  0  0  0  0  0  0  0
  188.9220  178.8320  137.4330 C   0  0  0  0  0  2  0  0  0  0  0  0
  186.9690  178.2530  140.7460 C   0  0  0  0  0  0  0  0  0  0  0  0
  190.0670  176.6520  137.3770 C   0  0  1  0  0  0  0  0  0  0  0  0
  184.9530  179.3480  140.0540 N   0  0  0  0  0  0  0  0  0  0  0  0
  189.5440  176.4100  135.9570 C   0  0  1  0  0  3  0  0  0  0  0  0
  188.5600  177.4370  135.3740 C   0  0  0  0  0  2  0  0  0  0  0  0
  189.4400  177.6980  138.2180 N   0  0  2  0  0  0  0  0  0  0  0  0
  185.1130  174.0390  135.7500 C   0  0  0  0  0  3  0  0  0  0  0  0
  186.0420  176.5550  136.5610 C   0  0  0  0  0  0  0  0  0  0  0  0
  186.4770  175.3960  137.2190 C   0  0  0  0  0  3  0  0  0  0  0  0
  186.0130  174.1410  136.8140 C   0  0  0  0  0  3  0  0  0  0  0  0
  184.6790  175.1910  135.0890 C   0  0  0  0  0  3  0  0  0  0  0  0
  185.1430  176.4460  135.4930 C   0  0  0  0  0  3  0  0  0  0  0  0
  1 20  1  1  0  0  0
  1 12  1  0  0  0  0
  1 15  1  0  0  0  0
  2  6  2  0  0  0  0
  2 11  1  0  0  0  0
  3 11  1  0  0  0  0
  4 13  1  0  0  0  0
  6 18  1  0  0  0  0
  7  9  1  0  0  0  0
  9 13  1  0  0  0  0
 10 17  1  0  0  0  0
 11 16  2  0  0  0  0
 12 23  1  1  0  0  0
 12  2  1  0  0  0  0
 13  5  2  0  0  0  0
 14  4  1  0  0  0  0
 16 14  1  0  0  0  0
 16  7  1  0  0  0  0
 17  8  1  1  0  0  0
 17 21  1  0  0  0  0
 18 14  2  0  0  0  0
 19 20  1  1  0  0  0
 19 10  1  0  0  0  0
 19 17  1  0  0  0  0
 21 15  1  6  0  0  0
 21  3  1  0  0  0  0
 22 25  1  0  0  0  0
 23 24  1  0  0  0  0
 25 24  2  0  0  0  0
 26 27  1  0  0  0  0
 26 22  2  0  0  0  0
 27 23  2  0  0  0  0
M  END
>  <MODEL>
3

>  <REMARK>
 VINA RESULT:      -6.2      1.662      2.112
  Name = 
  1 active torsions:
  status: ('A' for Active; 'I' for Inactive)
    1  A    between atoms: C_9  and  C_15
                            x       y       z     vdW  Elec       q    Type
                         _______ _______ _______ _____ _____    ______ ____

>  <TORSDO>
F 1

$$$$
=
 OpenBabel11052413423D

 27 32  0  0  1  0  0  0  0  0999 V2000
  188.8590  176.8920  135.6330 C   0  0  1  0  0  3  0  0  0  0  0  0
  187.9120  177.1700  138.0210 C   0  0  0  0  0  0  0  0  0  0  0  0
  189.9800  175.7260  138.1990 C   0  0  0  0  0  2  0  0  0  0  0  0
  188.5050  178.7810  141.9410 C   0  0  0  0  0  2  0  0  0  0  0  0
  188.9370  177.8710  144.0720 O   0  0  0  0  0  0  0  0  0  0  0  0
  187.0240  178.0930  138.5800 C   0  0  0  0  0  3  0  0  0  0  0  0
  190.4220  176.8900  140.8890 C   0  0  0  0  0  2  0  0  0  0  0  0
  191.6900  173.7680  136.8100 C   0  0  0  0  0  1  0  0  0  0  0  0
  190.0410  176.6880  142.3570 C   0  0  0  0  0  2  0  0  0  0  0  0
  191.4820  175.2230  134.7670 C   0  0  0  0  0  2  0  0  0  0  0  0
  189.0320  176.7560  138.7680 C   0  0  0  0  0  0  0  0  0  0  0  0
  187.6720  176.6890  136.6130 C   0  0  2  0  0  3  0  0  0  0  0  0
  189.1410  177.7830  142.8730 C   0  0  0  0  0  0  0  0  0  0  0  0
  188.3030  178.1930  140.5770 C   0  0  0  0  0  0  0  0  0  0  0  0
  190.1810  177.2860  136.2890 C   0  0  0  0  0  2  0  0  0  0  0  0
  189.2280  177.2690  140.0590 C   0  0  0  0  0  0  0  0  0  0  0  0
  191.0040  174.9680  136.1780 C   0  0  1  0  0  0  0  0  0  0  0  0
  187.2360  178.5810  139.8300 N   0  0  0  0  0  0  0  0  0  0  0  0
  190.0650  174.6870  135.0010 C   0  0  1  0  0  3  0  0  0  0  0  0
  189.0780  175.7930  134.5950 C   0  0  0  0  0  2  0  0  0  0  0  0
  190.7730  176.1590  137.0290 N   0  0  2  0  0  0  0  0  0  0  0  0
  185.5310  172.9650  136.3220 C   0  0  0  0  0  3  0  0  0  0  0  0
  186.9330  175.3810  136.5340 C   0  0  0  0  0  0  0  0  0  0  0  0
  187.3810  174.2420  137.2170 C   0  0  0  0  0  3  0  0  0  0  0  0
  186.6820  173.0370  137.1120 C   0  0  0  0  0  3  0  0  0  0  0  0
  185.0810  174.0960  135.6370 C   0  0  0  0  0  3  0  0  0  0  0  0
  185.7810  175.3020  135.7420 C   0  0  0  0  0  3  0  0  0  0  0  0
  1 20  1  1  0  0  0
  1 15  1  0  0  0  0
  1 12  1  0  0  0  0
  2  6  2  0  0  0  0
  2 11  1  0  0  0  0
  3 11  1  0  0  0  0
  4 13  1  0  0  0  0
  6 18  1  0  0  0  0
  7  9  1  0  0  0  0
  9 13  1  0  0  0  0
 10 19  1  0  0  0  0
 10 17  1  0  0  0  0
 11 16  2  0  0  0  0
 12 23  1  1  0  0  0
 12  2  1  0  0  0  0
 13  5  2  0  0  0  0
 14  4  1  0  0  0  0
 16 14  1  0  0  0  0
 16  7  1  0  0  0  0
 17  8  1  1  0  0  0
 17 21  1  0  0  0  0
 18 14  2  0  0  0  0
 19 20  1  1  0  0  0
 19 17  1  0  0  0  0
 21 15  1  6  0  0  0
 21  3  1  0  0  0  0
 22 25  1  0  0  0  0
 23 24  1  0  0  0  0
 25 24  2  0  0  0  0
 26 27  1  0  0  0  0
 26 22  2  0  0  0  0
 27 23  2  0  0  0  0
M  END
>  <MODEL>
4

>  <REMARK>
 VINA RESULT:      -6.1      1.344      1.789
  Name = 
  1 active torsions:
  status: ('A' for Active; 'I' for Inactive)
    1  A    between atoms: C_9  and  C_15
                            x       y       z     vdW  Elec       q    Type
                         _______ _______ _______ _____ _____    ______ ____

>  <TORSDO>
F 1

$$$$
=
 OpenBabel11052413423D

 27 32  0  0  1  0  0  0  0  0999 V2000
  181.6840  179.2010  139.2970 C   0  0  1  0  0  3  0  0  0  0  0  0
  182.2890  178.5520  141.7240 C   0  0  0  0  0  0  0  0  0  0  0  0
  184.1810  177.7620  140.2440 C   0  0  0  0  0  2  0  0  0  0  0  0
  184.9250  179.1610  145.0400 C   0  0  0  0  0  2  0  0  0  0  0  0
  186.5900  177.8780  146.1060 O   0  0  0  0  0  0  0  0  0  0  0  0
  181.8230  179.0020  142.9620 C   0  0  0  0  0  3  0  0  0  0  0  0
  186.0130  178.2440  142.5230 C   0  0  0  0  0  2  0  0  0  0  0  0
  184.9120  176.8130  137.5500 C   0  0  0  0  0  1  0  0  0  0  0  0
  186.5770  177.5590  143.7700 C   0  0  0  0  0  2  0  0  0  0  0  0
  183.4340  178.6390  136.6440 C   0  0  0  0  0  2  0  0  0  0  0  0
  183.6640  178.2900  141.5610 C   0  0  0  0  0  0  0  0  0  0  0  0
  181.3130  178.4150  140.5840 C   0  0  2  0  0  3  0  0  0  0  0  0
  186.0630  178.1740  145.0470 C   0  0  0  0  0  0  0  0  0  0  0  0
  184.0140  178.9260  143.8740 C   0  0  0  0  0  0  0  0  0  0  0  0
  183.1030  179.7650  139.2690 C   0  0  0  0  0  2  0  0  0  0  0  0
  184.5330  178.4750  142.6470 C   0  0  0  0  0  0  0  0  0  0  0  0
  183.8910  177.8930  137.8760 C   0  0  1  0  0  0  0  0  0  0  0  0
  182.6830  179.1780  143.9980 N   0  0  0  0  0  0  0  0  0  0  0  0
  182.4690  177.6810  137.3500 C   0  0  1  0  0  3  0  0  0  0  0  0
  181.3450  178.5260  137.9690 C   0  0  0  0  0  2  0  0  0  0  0  0
  184.1050  178.6970  139.1010 N   0  0  2  0  0  0  0  0  0  0  0  0
  179.7060  174.4540  140.0730 C   0  0  0  0  0  3  0  0  0  0  0  0
  180.7750  177.0220  140.4060 C   0  0  0  0  0  0  0  0  0  0  0  0
  181.5450  176.0070  139.8230 C   0  0  0  0  0  3  0  0  0  0  0  0
  181.0120  174.7250  139.6570 C   0  0  0  0  0  3  0  0  0  0  0  0
  178.9330  175.4630  140.6530 C   0  0  0  0  0  3  0  0  0  0  0  0
  179.4660  176.7450  140.8190 C   0  0  0  0  0  3  0  0  0  0  0  0
  1 20  1  6  0  0  0
  1 12  1  0  0  0  0
  2  6  1  0  0  0  0
  3 11  1  0  0  0  0
  4 13  1  0  0  0  0
  6 18  2  0  0  0  0
  7 16  1  0  0  0  0
  7  9  1  0  0  0  0
  9 13  1  0  0  0  0
 10 17  1  0  0  0  0
 11  2  2  0  0  0  0
 11 16  1  0  0  0  0
 12 23  1  6  0  0  0
 12  2  1  0  0  0  0
 13  5  2  0  0  0  0
 14 18  1  0  0  0  0
 14  4  1  0  0  0  0
 15  1  1  0  0  0  0
 16 14  2  0  0  0  0
 17  8  1  6  0  0  0
 17 21  1  0  0  0  0
 19 10  1  6  0  0  0
 19 17  1  0  0  0  0
 19 20  1  0  0  0  0
 21 15  1  1  0  0  0
 21  3  1  0  0  0  0
 22 26  1  0  0  0  0
 23 27  1  0  0  0  0
 24 23  2  0  0  0  0
 25 24  1  0  0  0  0
 25 22  2  0  0  0  0
 26 27  2  0  0  0  0
M  END
>  <MODEL>
5

>  <REMARK>
 VINA RESULT:      -6.0      4.072      5.709
  Name = 
  1 active torsions:
  status: ('A' for Active; 'I' for Inactive)
    1  A    between atoms: C_9  and  C_15
                            x       y       z     vdW  Elec       q    Type
                         _______ _______ _______ _____ _____    ______ ____

>  <TORSDO>
F 1

$$$$
=
 OpenBabel11052413423D

 27 32  0  0  1  0  0  0  0  0999 V2000
  189.2750  178.5470  138.5030 C   0  0  1  0  0  3  0  0  0  0  0  0
  191.3380  177.1240  139.1320 C   0  0  0  0  0  0  0  0  0  0  0  0
  189.7440  175.6190  137.8720 C   0  0  0  0  0  2  0  0  0  0  0  0
  194.7480  174.9520  137.7310 C   0  0  0  0  0  2  0  0  0  0  0  0
  195.3540  172.6770  137.6330 O   0  0  0  0  0  0  0  0  0  0  0  0
  192.6370  177.4670  139.5140 C   0  0  0  0  0  3  0  0  0  0  0  0
  192.1120  174.1550  136.8540 C   0  0  0  0  0  2  0  0  0  0  0  0
  186.9170  175.0870  137.2260 C   0  0  0  0  0  1  0  0  0  0  0  0
  193.0560  173.0070  137.2180 C   0  0  0  0  0  2  0  0  0  0  0  0
  186.6590  177.5680  136.8850 C   0  0  0  0  0  2  0  0  0  0  0  0
  191.1430  176.0320  138.2630 C   0  0  0  0  0  0  0  0  0  0  0  0
  190.1880  177.9680  139.6180 C   0  0  2  0  0  3  0  0  0  0  0  0
  194.4490  173.4880  137.5400 C   0  0  0  0  0  0  0  0  0  0  0  0
  193.5420  175.6900  138.2260 C   0  0  0  0  0  0  0  0  0  0  0  0
  189.4990  177.9600  137.1110 C   0  0  0  0  0  2  0  0  0  0  0  0
  192.2550  175.3060  137.8090 C   0  0  0  0  0  0  0  0  0  0  0  0
  187.5660  176.4560  137.3620 C   0  0  1  0  0  0  0  0  0  0  0  0
  193.6990  176.7540  139.0590 N   0  0  0  0  0  0  0  0  0  0  0  0
  186.9470  177.4150  138.3830 C   0  0  1  0  0  3  0  0  0  0  0  0
  187.7830  178.6280  138.8220 C   0  0  0  0  0  2  0  0  0  0  0  0
  189.0020  176.5760  137.0240 N   0  0  2  0  0  0  0  0  0  0  0  0
  188.3130  176.3980  143.1610 C   0  0  0  0  0  3  0  0  0  0  0  0
  189.5110  177.4270  140.8470 C   0  0  0  0  0  0  0  0  0  0  0  0
  188.3020  177.9610  141.3140 C   0  0  0  0  0  3  0  0  0  0  0  0
  187.7040  177.4470  142.4680 C   0  0  0  0  0  3  0  0  0  0  0  0
  189.5200  175.8640  142.7010 C   0  0  0  0  0  3  0  0  0  0  0  0
  190.1180  176.3780  141.5470 C   0  0  0  0  0  3  0  0  0  0  0  0
  1 15  1  6  0  0  0
  1 20  1  0  0  0  0
  1 12  1  0  0  0  0
  2  6  1  0  0  0  0
  2 12  1  0  0  0  0
  3 11  1  0  0  0  0
  4 14  1  0  0  0  0
  7  9  1  0  0  0  0
  7 16  1  0  0  0  0
  9 13  1  0  0  0  0
 10 17  1  0  0  0  0
 11  2  2  0  0  0  0
 12 23  1  1  0  0  0
 13  5  2  0  0  0  0
 13  4  1  0  0  0  0
 14 18  1  0  0  0  0
 16 14  2  0  0  0  0
 16 11  1  0  0  0  0
 17  8  1  6  0  0  0
 17 19  1  0  0  0  0
 18  6  2  0  0  0  0
 19 10  1  6  0  0  0
 19 20  1  0  0  0  0
 21 15  1  1  0  0  0
 21 17  1  0  0  0  0
 21  3  1  0  0  0  0
 23 24  2  0  0  0  0
 23 27  1  0  0  0  0
 24 25  1  0  0  0  0
 25 22  2  0  0  0  0
 26 22  1  0  0  0  0
 27 26  2  0  0  0  0
M  END
>  <MODEL>
6

>  <REMARK>
 VINA RESULT:      -5.6      2.932      5.674
  Name = 
  1 active torsions:
  status: ('A' for Active; 'I' for Inactive)
    1  A    between atoms: C_9  and  C_15
                            x       y       z     vdW  Elec       q    Type
                         _______ _______ _______ _____ _____    ______ ____

>  <TORSDO>
F 1

$$$$
=
 OpenBabel11052413423D

 27 32  0  0  1  0  0  0  0  0999 V2000
  180.7830  179.6540  139.6420 C   0  0  1  0  0  3  0  0  0  0  0  0
  182.9210  178.5250  140.5540 C   0  0  0  0  0  0  0  0  0  0  0  0
  183.0730  178.4890  138.0310 C   0  0  0  0  0  2  0  0  0  0  0  0
  187.1750  178.7230  140.9670 C   0  0  0  0  0  2  0  0  0  0  0  0
  188.9970  177.5280  140.0700 O   0  0  0  0  0  0  0  0  0  0  0  0
  183.5380  178.5520  141.8070 C   0  0  0  0  0  3  0  0  0  0  0  0
  186.0160  178.6890  138.3200 C   0  0  0  0  0  2  0  0  0  0  0  0
  181.5390  178.4060  135.5150 C   0  0  0  0  0  1  0  0  0  0  0  0
  187.2620  177.8190  138.5010 C   0  0  0  0  0  2  0  0  0  0  0  0
  179.9980  180.1100  136.5450 C   0  0  0  0  0  2  0  0  0  0  0  0
  183.7190  178.5610  139.3940 C   0  0  0  0  0  0  0  0  0  0  0  0
  181.4150  178.5120  140.4840 C   0  0  2  0  0  3  0  0  0  0  0  0
  187.8860  177.9860  139.8640 C   0  0  0  0  0  0  0  0  0  0  0  0
  185.6880  178.6360  140.8040 C   0  0  0  0  0  0  0  0  0  0  0  0
  181.7670  180.4500  138.7870 C   0  0  0  0  0  2  0  0  0  0  0  0
  185.1160  178.6130  139.5210 C   0  0  0  0  0  0  0  0  0  0  0  0
  181.1570  179.1670  136.7750 C   0  0  1  0  0  0  0  0  0  0  0  0
  184.8910  178.6080  141.9060 N   0  0  0  0  0  0  0  0  0  0  0  0
  179.7910  178.8470  137.3880 C   0  0  1  0  0  3  0  0  0  0  0  0
  179.5360  179.2920  138.8370 C   0  0  0  0  0  2  0  0  0  0  0  0
  182.2520  179.6560  137.6440 N   0  0  2  0  0  0  0  0  0  0  0  0
  179.6570  174.6050  140.0650 C   0  0  0  0  0  3  0  0  0  0  0  0
  180.8230  177.1380  140.3310 C   0  0  0  0  0  0  0  0  0  0  0  0
  181.3690  176.1990  139.4450 C   0  0  0  0  0  3  0  0  0  0  0  0
  180.7870  174.9350  139.3130 C   0  0  0  0  0  3  0  0  0  0  0  0
  179.1070  175.5390  140.9480 C   0  0  0  0  0  3  0  0  0  0  0  0
  179.6890  176.8030  141.0800 C   0  0  0  0  0  3  0  0  0  0  0  0
  1 15  1  6  0  0  0
  1 12  1  0  0  0  0
  2  6  1  0  0  0  0
  3 11  1  0  0  0  0
  6 18  2  0  0  0  0
  7  9  1  0  0  0  0
  7 16  1  0  0  0  0
  9 13  1  0  0  0  0
 10 17  1  0  0  0  0
 11 16  1  0  0  0  0
 11  2  2  0  0  0  0
 12 23  1  6  0  0  0
 12  2  1  0  0  0  0
 13  5  2  0  0  0  0
 13  4  1  0  0  0  0
 14  4  1  0  0  0  0
 14 18  1  0  0  0  0
 16 14  2  0  0  0  0
 17  8  1  6  0  0  0
 17 19  1  0  0  0  0
 17 21  1  0  0  0  0
 19 10  1  6  0  0  0
 19 20  1  0  0  0  0
 20  1  1  0  0  0  0
 21  3  1  1  0  0  0
 21 15  1  0  0  0  0
 22 26  1  0  0  0  0
 23 27  1  0  0  0  0
 24 23  2  0  0  0  0
 25 24  1  0  0  0  0
 25 22  2  0  0  0  0
 26 27  2  0  0  0  0
M  END
>  <MODEL>
7

>  <REMARK>
 VINA RESULT:      -5.5      4.203      6.407
  Name = 
  1 active torsions:
  status: ('A' for Active; 'I' for Inactive)
    1  A    between atoms: C_9  and  C_15
                            x       y       z     vdW  Elec       q    Type
                         _______ _______ _______ _____ _____    ______ ____

>  <TORSDO>
F 1

$$$$
=
 OpenBabel11052413423D

 27 32  0  0  1  0  0  0  0  0999 V2000
  182.3470  176.4130  137.4070 C   0  0  1  0  0  3  0  0  0  0  0  0
  183.3420  178.3190  138.8410 C   0  0  0  0  0  0  0  0  0  0  0  0
  181.4980  177.2450  140.1970 C   0  0  0  0  0  2  0  0  0  0  0  0
  185.5330  179.3790  142.3610 C   0  0  0  0  0  2  0  0  0  0  0  0
  185.0080  180.4450  144.3960 O   0  0  0  0  0  0  0  0  0  0  0  0
  184.5520  179.0130  138.7730 C   0  0  0  0  0  3  0  0  0  0  0  0
  183.0480  177.9260  142.6300 C   0  0  0  0  0  2  0  0  0  0  0  0
  178.9310  175.8020  140.0760 C   0  0  0  0  0  1  0  0  0  0  0  0
  183.2570  179.0590  143.6370 C   0  0  0  0  0  2  0  0  0  0  0  0
  179.9340  174.4290  138.2200 C   0  0  0  0  0  2  0  0  0  0  0  0
  182.8270  177.9580  140.1010 C   0  0  0  0  0  0  0  0  0  0  0  0
  182.6540  177.9280  137.5580 C   0  0  2  0  0  3  0  0  0  0  0  0
  184.6240  179.6860  143.5220 C   0  0  0  0  0  0  0  0  0  0  0  0
  184.7440  179.0150  141.1400 C   0  0  0  0  0  0  0  0  0  0  0  0
  182.5270  175.5850  138.6780 C   0  0  0  0  0  2  0  0  0  0  0  0
  183.5320  178.3130  141.2610 C   0  0  0  0  0  0  0  0  0  0  0  0
  180.1060  175.6260  139.1270 C   0  0  1  0  0  0  0  0  0  0  0  0
  185.2210  179.3420  139.9090 N   0  0  0  0  0  0  0  0  0  0  0  0
  179.8290  175.8420  137.6360 C   0  0  1  0  0  3  0  0  0  0  0  0
  181.0360  176.0530  136.7090 C   0  0  0  0  0  2  0  0  0  0  0  0
  181.4660  175.8680  139.6600 N   0  0  2  0  0  0  0  0  0  0  0  0
  179.5910  180.6550  136.2460 C   0  0  0  0  0  3  0  0  0  0  0  0
  181.5850  178.8920  137.1220 C   0  0  0  0  0  0  0  0  0  0  0  0
  180.7170  179.4920  138.0450 C   0  0  0  0  0  3  0  0  0  0  0  0
  179.7230  180.3720  137.6080 C   0  0  0  0  0  3  0  0  0  0  0  0
  180.4520  180.0570  135.3220 C   0  0  0  0  0  3  0  0  0  0  0  0
  181.4460  179.1770  135.7590 C   0  0  0  0  0  3  0  0  0  0  0  0
  1 20  1  1  0  0  0
  1 12  1  0  0  0  0
  1 15  1  0  0  0  0
  2 11  1  0  0  0  0
  4 13  1  0  0  0  0
  6  2  2  0  0  0  0
  6 18  1  0  0  0  0
  7  9  1  0  0  0  0
 10 17  1  0  0  0  0
 11  3  1  0  0  0  0
 11 16  2  0  0  0  0
 12 23  1  1  0  0  0
 12  2  1  0  0  0  0
 13  9  1  0  0  0  0
 13  5  2  0  0  0  0
 14 16  1  0  0  0  0
 14  4  1  0  0  0  0
 16  7  1  0  0  0  0
 17 21  1  0  0  0  0
 17  8  1  1  0  0  0
 18 14  2  0  0  0  0
 19 20  1  6  0  0  0
 19 10  1  0  0  0  0
 19 17  1  0  0  0  0
 21 15  1  6  0  0  0
 21  3  1  0  0  0  0
 22 25  1  0  0  0  0
 23 24  1  0  0  0  0
 25 24  2  0  0  0  0
 26 27  1  0  0  0  0
 26 22  2  0  0  0  0
 27 23  2  0  0  0  0
M  END
>  <MODEL>
8

>  <REMARK>
 VINA RESULT:      -5.4      4.613      7.013
  Name = 
  1 active torsions:
  status: ('A' for Active; 'I' for Inactive)
    1  A    between atoms: C_9  and  C_15
                            x       y       z     vdW  Elec       q    Type
                         _______ _______ _______ _____ _____    ______ ____

>  <TORSDO>
F 1

$$$$
=
 OpenBabel11052413423D

 27 32  0  0  1  0  0  0  0  0999 V2000
  186.7590  177.0180  134.9290 C   0  0  1  0  0  3  0  0  0  0  0  0
  184.6370  176.9500  136.4020 C   0  0  0  0  0  0  0  0  0  0  0  0
  186.6130  177.2680  137.9480 C   0  0  0  0  0  2  0  0  0  0  0  0
  182.0330  179.1030  139.0280 C   0  0  0  0  0  2  0  0  0  0  0  0
  181.5500  179.0250  141.3330 O   0  0  0  0  0  0  0  0  0  0  0  0
  183.2830  177.1310  136.1110 C   0  0  0  0  0  3  0  0  0  0  0  0
  184.8210  178.8110  139.7350 C   0  0  0  0  0  2  0  0  0  0  0  0
  189.4870  176.7410  138.3420 C   0  0  0  0  0  1  0  0  0  0  0  0
  183.8300  178.6260  140.8860 C   0  0  0  0  0  2  0  0  0  0  0  0
  189.8070  177.3820  135.9290 C   0  0  0  0  0  2  0  0  0  0  0  0
  185.1610  177.4890  137.5930 C   0  0  0  0  0  0  0  0  0  0  0  0
  185.5080  176.2310  135.4040 C   0  0  2  0  0  3  0  0  0  0  0  0
  182.4090  178.9190  140.4750 C   0  0  0  0  0  0  0  0  0  0  0  0
  182.9550  178.3370  138.1290 C   0  0  0  0  0  0  0  0  0  0  0  0
  187.0800  178.2740  135.7360 C   0  0  0  0  0  2  0  0  0  0  0  0
  184.3120  178.1860  138.4670 C   0  0  0  0  0  0  0  0  0  0  0  0
  188.8090  177.0850  137.0250 C   0  0  1  0  0  0  0  0  0  0  0  0
  182.4800  177.8130  136.9680 N   0  0  0  0  0  0  0  0  0  0  0  0
  188.9860  176.0890  135.8760 C   0  0  1  0  0  3  0  0  0  0  0  0
  188.0240  176.1980  134.6820 C   0  0  0  0  0  2  0  0  0  0  0  0
  187.5990  177.9380  137.0740 N   0  0  2  0  0  0  0  0  0  0  0  0
  186.0450  172.0290  136.1740 C   0  0  0  0  0  3  0  0  0  0  0  0
  185.6890  174.7670  135.6970 C   0  0  0  0  0  0  0  0  0  0  0  0
  186.0180  174.3100  136.9810 C   0  0  0  0  0  3  0  0  0  0  0  0
  186.1950  172.9450  137.2190 C   0  0  0  0  0  3  0  0  0  0  0  0
  185.7200  172.4790  134.8910 C   0  0  0  0  0  3  0  0  0  0  0  0
  185.5430  173.8450  134.6530 C   0  0  0  0  0  3  0  0  0  0  0  0
  1 20  1  1  0  0  0
  1 12  1  0  0  0  0
  1 15  1  0  0  0  0
  2 11  1  0  0  0  0
  4 13  1  0  0  0  0
  6  2  2  0  0  0  0
  6 18  1  0  0  0  0
  7  9  1  0  0  0  0
 10 17  1  0  0  0  0
 11  3  1  0  0  0  0
 11 16  2  0  0  0  0
 12 23  1  1  0  0  0
 12  2  1  0  0  0  0
 13  9  1  0  0  0  0
 13  5  2  0  0  0  0
 14 16  1  0  0  0  0
 14  4  1  0  0  0  0
 16  7  1  0  0  0  0
 17 21  1  0  0  0  0
 17  8  1  1  0  0  0
 18 14  2  0  0  0  0
 19 20  1  6  0  0  0
 19 10  1  0  0  0  0
 19 17  1  0  0  0  0
 21 15  1  6  0  0  0
 21  3  1  0  0  0  0
 22 25  1  0  0  0  0
 23 24  1  0  0  0  0
 24 25  2  0  0  0  0
 26 22  2  0  0  0  0
 27 26  1  0  0  0  0
 27 23  2  0  0  0  0
M  END
>  <MODEL>
9

>  <REMARK>
 VINA RESULT:      -5.4      2.912      4.581
  Name = 
  1 active torsions:
  status: ('A' for Active; 'I' for Inactive)
    1  A    between atoms: C_9  and  C_15
                            x       y       z     vdW  Elec       q    Type
                         _______ _______ _______ _____ _____    ______ ____

>  <TORSDO>
F 1

$$$$
