=
 OpenBabel11052413323D

 28 32  0  0  1  0  0  0  0  0999 V2000
  190.8240  176.6030  144.4630 C   0  0  1  0  0  3  0  0  0  0  0  0
  185.6920  177.4520  143.5050 C   0  0  0  0  0  3  0  0  0  0  0  0
  188.9010  178.2220  148.6480 O   0  0  0  0  0  0  0  0  0  0  0  0
  185.2210  178.9390  145.3590 C   0  0  0  0  0  0  0  0  0  0  0  0
  187.2270  177.3850  145.5080 C   0  0  1  0  0  3  0  0  0  0  0  0
  183.8320  178.9950  143.3750 C   0  0  0  0  0  0  0  0  0  0  0  0
  186.0240  177.9410  144.7770 C   0  0  0  0  0  0  0  0  0  0  0  0
  186.3690  178.6360  147.5530 C   0  0  0  0  0  2  0  0  0  0  0  0
  184.1390  179.4730  144.6510 C   0  0  0  0  0  3  0  0  0  0  0  0
  189.8240  177.2090  146.7070 C   0  0  0  0  0  0  0  0  0  0  0  0
  188.4670  177.4700  144.6070 C   0  0  0  0  0  2  0  0  0  0  0  0
  185.4970  179.4010  146.6790 N   0  0  0  0  0  2  0  0  0  0  0  0
  191.9640  176.0490  146.5980 C   0  0  0  0  0  3  0  0  0  0  0  0
  188.7360  177.8590  147.4500 C   0  0  0  0  0  0  0  0  0  0  0  0
  190.9140  176.7620  147.3380 C   0  0  0  0  0  3  0  0  0  0  0  0
  182.7570  179.5260  142.6760 O   0  0  0  0  0  1  0  0  0  0  0  0
  184.6020  177.9780  142.8060 C   0  0  0  0  0  3  0  0  0  0  0  0
  187.4800  178.0740  146.7880 N   0  0  0  0  0  0  0  0  0  0  0  0
  191.9140  175.9410  145.2690 C   0  0  0  0  0  3  0  0  0  0  0  0
  189.6700  176.9910  145.2900 N   0  0  0  0  0  0  0  0  0  0  0  0
  191.3760  177.7940  143.6640 C   0  0  0  0  0  2  0  0  0  0  0  0
  191.2360  177.6310  142.1820 C   0  0  0  0  0  0  0  0  0  0  0  0
  190.9790  177.2750  139.4180 C   0  0  0  0  0  0  0  0  0  0  0  0
  189.9660  177.5240  141.6040 C   0  0  0  0  0  3  0  0  0  0  0  0
  192.3770  177.5620  141.3750 C   0  0  0  0  0  3  0  0  0  0  0  0
  192.2480  177.3840  139.9940 C   0  0  0  0  0  3  0  0  0  0  0  0
  190.8550  177.1020  138.0810 F   0  0  0  0  0  0  0  0  0  0  0  0
  189.8370  177.3460  140.2230 C   0  0  0  0  0  3  0  0  0  0  0  0
  1 21  1  1  0  0  0
  1 19  1  0  0  0  0
  1 20  1  0  0  0  0
  2  7  1  0  0  0  0
  4 12  1  0  0  0  0
  5 11  1  6  0  0  0
  5 18  1  0  0  0  0
  6  9  2  0  0  0  0
  7  4  2  0  0  0  0
  7  5  1  0  0  0  0
  9  4  1  0  0  0  0
 10 15  2  0  0  0  0
 10 14  1  0  0  0  0
 11 20  1  0  0  0  0
 12  8  1  0  0  0  0
 13 15  1  0  0  0  0
 14  3  2  0  0  0  0
 16  6  1  0  0  0  0
 17  6  1  0  0  0  0
 17  2  2  0  0  0  0
 18 14  1  0  0  0  0
 18  8  1  0  0  0  0
 19 13  2  0  0  0  0
 20 10  1  0  0  0  0
 22 21  1  0  0  0  0
 23 26  2  0  0  0  0
 23 28  1  0  0  0  0
 24 22  1  0  0  0  0
 25 22  2  0  0  0  0
 26 25  1  0  0  0  0
 27 23  1  0  0  0  0
 28 24  2  0  0  0  0
M  END
>  <MODEL>
1

>  <REMARK>
 VINA RESULT:     -10.2      0.000      0.000
  Name = 
  2 active torsions:
  status: ('A' for Active; 'I' for Inactive)
    1  A    between atoms: C_1  and  C_2
    2  A    between atoms: C_2  and  C_3
                            x       y       z     vdW  Elec       q    Type
                         _______ _______ _______ _____ _____    ______ ____

>  <TORSDO>
F 2

$$$$
=
 OpenBabel11052413323D

 28 32  0  0  1  0  0  0  0  0999 V2000
  189.4470  178.0030  142.8800 C   0  0  1  0  0  3  0  0  0  0  0  0
  185.8930  178.5710  139.0050 C   0  0  0  0  0  3  0  0  0  0  0  0
  191.5460  176.2600  138.8320 O   0  0  0  0  0  0  0  0  0  0  0  0
  186.8110  176.9700  137.4350 C   0  0  0  0  0  0  0  0  0  0  0  0
  188.3310  177.9540  139.2200 C   0  0  1  0  0  3  0  0  0  0  0  0
  184.4650  177.5610  137.3330 C   0  0  0  0  0  0  0  0  0  0  0  0
  186.9860  177.8240  138.5400 C   0  0  0  0  0  0  0  0  0  0  0  0
  189.2780  176.6420  137.2540 C   0  0  0  0  0  2  0  0  0  0  0  0
  185.5500  176.8290  136.8470 C   0  0  0  0  0  3  0  0  0  0  0  0
  190.6560  177.3120  140.7680 C   0  0  0  0  0  0  0  0  0  0  0  0
  188.1750  177.7160  140.7290 C   0  0  0  0  0  2  0  0  0  0  0  0
  187.9230  176.2550  136.9020 N   0  0  0  0  0  2  0  0  0  0  0  0
  191.9250  177.9260  142.7540 C   0  0  0  0  0  3  0  0  0  0  0  0
  190.5650  176.8340  139.3810 C   0  0  0  0  0  0  0  0  0  0  0  0
  191.8350  177.3790  141.3930 C   0  0  0  0  0  3  0  0  0  0  0  0
  183.2140  177.4200  136.7460 O   0  0  0  0  0  1  0  0  0  0  0  0
  184.6370  178.4390  138.4060 C   0  0  0  0  0  3  0  0  0  0  0  0
  189.3390  177.0330  138.6600 N   0  0  0  0  0  0  0  0  0  0  0  0
  190.8260  178.2490  143.4380 C   0  0  0  0  0  3  0  0  0  0  0  0
  189.4610  177.7790  141.4250 N   0  0  0  0  0  0  0  0  0  0  0  0
  188.7490  176.8540  143.6240 C   0  0  0  0  0  2  0  0  0  0  0  0
  187.7400  177.3230  144.6270 C   0  0  0  0  0  0  0  0  0  0  0  0
  185.8750  178.2460  146.4980 C   0  0  0  0  0  0  0  0  0  0  0  0
  186.4660  177.7220  144.2080 C   0  0  0  0  0  3  0  0  0  0  0  0
  188.0790  177.3840  145.9830 C   0  0  0  0  0  3  0  0  0  0  0  0
  187.1470  177.8450  146.9180 C   0  0  0  0  0  3  0  0  0  0  0  0
  184.9730  178.6940  147.4030 F   0  0  0  0  0  0  0  0  0  0  0  0
  185.5340  178.1830  145.1430 C   0  0  0  0  0  3  0  0  0  0  0  0
  1 19  1  0  0  0  0
  1 21  1  1  0  0  0
  3 14  2  0  0  0  0
  4  7  2  0  0  0  0
  5 11  1  1  0  0  0
  6 17  1  0  0  0  0
  7  2  1  0  0  0  0
  7  5  1  0  0  0  0
  8 18  1  0  0  0  0
  9  6  2  0  0  0  0
  9  4  1  0  0  0  0
 10 15  2  0  0  0  0
 10 20  1  0  0  0  0
 11 20  1  0  0  0  0
 12  8  1  0  0  0  0
 12  4  1  0  0  0  0
 13 19  2  0  0  0  0
 14 10  1  0  0  0  0
 15 13  1  0  0  0  0
 16  6  1  0  0  0  0
 17  2  2  0  0  0  0
 18  5  1  0  0  0  0
 18 14  1  0  0  0  0
 20  1  1  0  0  0  0
 21 22  1  0  0  0  0
 22 25  1  0  0  0  0
 23 26  1  0  0  0  0
 23 27  1  0  0  0  0
 24 22  2  0  0  0  0
 24 28  1  0  0  0  0
 25 26  2  0  0  0  0
 28 23  2  0  0  0  0
M  END
>  <MODEL>
2

>  <REMARK>
 VINA RESULT:      -9.5      4.439      6.966
  Name = 
  2 active torsions:
  status: ('A' for Active; 'I' for Inactive)
    1  A    between atoms: C_1  and  C_2
    2  A    between atoms: C_2  and  C_3
                            x       y       z     vdW  Elec       q    Type
                         _______ _______ _______ _____ _____    ______ ____

>  <TORSDO>
F 2

$$$$
=
 OpenBabel11052413323D

 28 32  0  0  1  0  0  0  0  0999 V2000
  189.2040  178.1380  143.0880 C   0  0  1  0  0  3  0  0  0  0  0  0
  185.7050  178.6880  139.1600 C   0  0  0  0  0  3  0  0  0  0  0  0
  191.3300  176.3020  139.0960 O   0  0  0  0  0  0  0  0  0  0  0  0
  186.6220  177.0490  137.6280 C   0  0  0  0  0  0  0  0  0  0  0  0
  188.1320  178.0430  139.4160 C   0  0  1  0  0  3  0  0  0  0  0  0
  184.2850  177.6680  137.4870 C   0  0  0  0  0  0  0  0  0  0  0  0
  186.7940  177.9190  138.7210 C   0  0  0  0  0  0  0  0  0  0  0  0
  189.0860  176.6870  137.4830 C   0  0  0  0  0  2  0  0  0  0  0  0
  185.3670  176.9140  137.0270 C   0  0  0  0  0  3  0  0  0  0  0  0
  190.4300  177.3970  141.0030 C   0  0  0  0  0  0  0  0  0  0  0  0
  187.9550  177.8320  140.9260 C   0  0  0  0  0  2  0  0  0  0  0  0
  187.7310  176.3110  137.1210 N   0  0  0  0  0  2  0  0  0  0  0  0
  191.6820  178.0280  142.9950 C   0  0  0  0  0  3  0  0  0  0  0  0
  190.3490  176.8980  139.6230 C   0  0  0  0  0  0  0  0  0  0  0  0
  191.6010  177.4600  141.6420 C   0  0  0  0  0  3  0  0  0  0  0  0
  183.0400  177.5320  136.8870 O   0  0  0  0  0  1  0  0  0  0  0  0
  184.4550  178.5610  138.5470 C   0  0  0  0  0  3  0  0  0  0  0  0
  189.1350  177.1010  138.8840 N   0  0  0  0  0  0  0  0  0  0  0  0
  190.5790  178.3760  143.6600 C   0  0  0  0  0  3  0  0  0  0  0  0
  189.2330  177.8900  141.6370 N   0  0  0  0  0  0  0  0  0  0  0  0
  188.4810  177.0110  143.8420 C   0  0  0  0  0  2  0  0  0  0  0  0
  188.3210  177.2840  145.3060 C   0  0  0  0  0  0  0  0  0  0  0  0
  188.0440  177.8390  148.0350 C   0  0  0  0  0  0  0  0  0  0  0  0
  187.1430  177.8670  145.7860 C   0  0  0  0  0  3  0  0  0  0  0  0
  189.3580  176.9770  146.1930 C   0  0  0  0  0  3  0  0  0  0  0  0
  189.2200  177.2540  147.5560 C   0  0  0  0  0  3  0  0  0  0  0  0
  187.9100  178.1080  149.3550 F   0  0  0  0  0  0  0  0  0  0  0  0
  187.0040  178.1440  147.1500 C   0  0  0  0  0  3  0  0  0  0  0  0
  1 19  1  0  0  0  0
  1 21  1  1  0  0  0
  3 14  2  0  0  0  0
  4  7  2  0  0  0  0
  5 11  1  1  0  0  0
  6 17  1  0  0  0  0
  7  2  1  0  0  0  0
  7  5  1  0  0  0  0
  8 18  1  0  0  0  0
  9  6  2  0  0  0  0
  9  4  1  0  0  0  0
 10 20  1  0  0  0  0
 10 15  2  0  0  0  0
 11 20  1  0  0  0  0
 12  8  1  0  0  0  0
 12  4  1  0  0  0  0
 13 19  2  0  0  0  0
 14 10  1  0  0  0  0
 15 13  1  0  0  0  0
 16  6  1  0  0  0  0
 17  2  2  0  0  0  0
 18  5  1  0  0  0  0
 18 14  1  0  0  0  0
 20  1  1  0  0  0  0
 21 22  1  0  0  0  0
 22 24  2  0  0  0  0
 22 25  1  0  0  0  0
 23 27  1  0  0  0  0
 24 28  1  0  0  0  0
 25 26  2  0  0  0  0
 26 23  1  0  0  0  0
 28 23  2  0  0  0  0
M  END
>  <MODEL>
3

>  <REMARK>
 VINA RESULT:      -9.4      4.415      6.886
  Name = 
  2 active torsions:
  status: ('A' for Active; 'I' for Inactive)
    1  A    between atoms: C_1  and  C_2
    2  A    between atoms: C_2  and  C_3
                            x       y       z     vdW  Elec       q    Type
                         _______ _______ _______ _____ _____    ______ ____

>  <TORSDO>
F 2

$$$$
=
 OpenBabel11052413323D

 28 32  0  0  1  0  0  0  0  0999 V2000
  187.1570  178.5260  146.4450 C   0  0  1  0  0  3  0  0  0  0  0  0
  188.8740  178.7570  141.4480 C   0  0  0  0  0  3  0  0  0  0  0  0
  191.3510  176.0320  146.3240 O   0  0  0  0  0  0  0  0  0  0  0  0
  190.3930  176.8700  141.5010 C   0  0  0  0  0  0  0  0  0  0  0  0
  189.7570  178.0000  143.6880 C   0  0  1  0  0  3  0  0  0  0  0  0
  189.4520  177.6110  139.3960 C   0  0  0  0  0  0  0  0  0  0  0  0
  189.6730  177.8680  142.1830 C   0  0  0  0  0  0  0  0  0  0  0  0
  191.6810  176.3350  143.5700 C   0  0  0  0  0  2  0  0  0  0  0  0
  190.2680  176.7340  140.1150 C   0  0  0  0  0  3  0  0  0  0  0  0
  189.4370  177.4310  146.4790 C   0  0  0  0  0  0  0  0  0  0  0  0
  188.3450  178.0080  144.2890 C   0  0  0  0  0  2  0  0  0  0  0  0
  191.2650  176.0010  142.2190 N   0  0  0  0  0  2  0  0  0  0  0  0
  188.4450  178.2470  148.5490 C   0  0  0  0  0  3  0  0  0  0  0  0
  190.5040  176.7550  145.7280 C   0  0  0  0  0  0  0  0  0  0  0  0
  189.4780  177.5060  147.8120 C   0  0  0  0  0  3  0  0  0  0  0  0
  189.3310  177.4750  138.0200 O   0  0  0  0  0  1  0  0  0  0  0  0
  188.7620  178.6280  140.0610 C   0  0  0  0  0  3  0  0  0  0  0  0
  190.5670  176.9320  144.3050 N   0  0  0  0  0  0  0  0  0  0  0  0
  187.3820  178.7520  147.9190 C   0  0  0  0  0  3  0  0  0  0  0  0
  188.3760  178.0810  145.7510 N   0  0  0  0  0  0  0  0  0  0  0  0
  185.9850  177.5600  146.2090 C   0  0  0  0  0  2  0  0  0  0  0  0
  185.0200  178.0410  145.1700 C   0  0  0  0  0  0  0  0  0  0  0  0
  183.1970  178.8920  143.2240 C   0  0  0  0  0  0  0  0  0  0  0  0
  183.8090  178.6280  145.5530 C   0  0  0  0  0  3  0  0  0  0  0  0
  185.3180  177.8820  143.8110 C   0  0  0  0  0  3  0  0  0  0  0  0
  184.4070  178.3080  142.8400 C   0  0  0  0  0  3  0  0  0  0  0  0
  182.3140  179.3030  142.2830 F   0  0  0  0  0  0  0  0  0  0  0  0
  182.8980  179.0530  144.5810 C   0  0  0  0  0  3  0  0  0  0  0  0
  1 21  1  1  0  0  0
  1 19  1  0  0  0  0
  2  7  1  0  0  0  0
  4  7  2  0  0  0  0
  4 12  1  0  0  0  0
  5 11  1  1  0  0  0
  5 18  1  0  0  0  0
  6 17  1  0  0  0  0
  6  9  2  0  0  0  0
  7  5  1  0  0  0  0
  8 18  1  0  0  0  0
  9  4  1  0  0  0  0
 10 15  2  0  0  0  0
 11 20  1  0  0  0  0
 12  8  1  0  0  0  0
 14  3  2  0  0  0  0
 14 10  1  0  0  0  0
 15 13  1  0  0  0  0
 16  6  1  0  0  0  0
 17  2  2  0  0  0  0
 18 14  1  0  0  0  0
 19 13  2  0  0  0  0
 20  1  1  0  0  0  0
 20 10  1  0  0  0  0
 22 24  1  0  0  0  0
 22 21  1  0  0  0  0
 23 28  1  0  0  0  0
 25 22  2  0  0  0  0
 26 23  2  0  0  0  0
 26 25  1  0  0  0  0
 27 23  1  0  0  0  0
 28 24  2  0  0  0  0
M  END
>  <MODEL>
4

>  <REMARK>
 VINA RESULT:      -9.1      2.869      6.117
  Name = 
  2 active torsions:
  status: ('A' for Active; 'I' for Inactive)
    1  A    between atoms: C_1  and  C_2
    2  A    between atoms: C_2  and  C_3
                            x       y       z     vdW  Elec       q    Type
                         _______ _______ _______ _____ _____    ______ ____

>  <TORSDO>
F 2

$$$$
=
 OpenBabel11052413323D

 28 32  0  0  1  0  0  0  0  0999 V2000
  189.3450  177.8350  142.4540 C   0  0  1  0  0  3  0  0  0  0  0  0
  185.0170  179.1450  139.7110 C   0  0  0  0  0  3  0  0  0  0  0  0
  190.0910  176.2670  137.8920 O   0  0  0  0  0  0  0  0  0  0  0  0
  185.2880  177.6100  137.8550 C   0  0  0  0  0  0  0  0  0  0  0  0
  187.3280  178.2520  139.2290 C   0  0  1  0  0  3  0  0  0  0  0  0
  183.0900  178.4560  138.4200 C   0  0  0  0  0  0  0  0  0  0  0  0
  185.8490  178.3320  138.9250 C   0  0  0  0  0  0  0  0  0  0  0  0
  187.5620  177.0380  137.0030 C   0  0  0  0  0  2  0  0  0  0  0  0
  183.9110  177.6610  137.6170 C   0  0  0  0  0  3  0  0  0  0  0  0
  189.8720  177.2210  140.0570 C   0  0  0  0  0  0  0  0  0  0  0  0
  187.5370  177.8910  140.7060 C   0  0  0  0  0  2  0  0  0  0  0  0
  186.1240  176.8330  137.0010 N   0  0  0  0  0  2  0  0  0  0  0  0
  191.6770  177.5040  141.6680 C   0  0  0  0  0  3  0  0  0  0  0  0
  189.3660  176.8880  138.7170 C   0  0  0  0  0  0  0  0  0  0  0  0
  191.1700  177.1020  140.3480 C   0  0  0  0  0  3  0  0  0  0  0  0
  181.7230  178.5060  138.1790 O   0  0  0  0  0  1  0  0  0  0  0  0
  183.6440  179.2060  139.4600 C   0  0  0  0  0  3  0  0  0  0  0  0
  188.0320  177.2860  138.3640 N   0  0  0  0  0  0  0  0  0  0  0  0
  190.8410  177.8780  142.6390 C   0  0  0  0  0  3  0  0  0  0  0  0
  188.9560  177.7490  141.0370 N   0  0  0  0  0  0  0  0  0  0  0  0
  188.7200  176.7020  143.2840 C   0  0  0  0  0  2  0  0  0  0  0  0
  188.3200  177.1280  144.6620 C   0  0  0  0  0  0  0  0  0  0  0  0
  187.5570  177.8760  147.2490 C   0  0  0  0  0  0  0  0  0  0  0  0
  189.2610  177.1290  145.6980 C   0  0  0  0  0  3  0  0  0  0  0  0
  186.9970  177.5040  144.9230 C   0  0  0  0  0  3  0  0  0  0  0  0
  186.6160  177.8780  146.2150 C   0  0  0  0  0  3  0  0  0  0  0  0
  187.1880  178.2370  148.5010 F   0  0  0  0  0  0  0  0  0  0  0  0
  188.8800  177.5030  146.9900 C   0  0  0  0  0  3  0  0  0  0  0  0
  1 19  1  0  0  0  0
  1 21  1  1  0  0  0
  3 14  2  0  0  0  0
  4  7  1  0  0  0  0
  5 11  1  1  0  0  0
  6 17  2  0  0  0  0
  7  5  1  0  0  0  0
  7  2  2  0  0  0  0
  8 18  1  0  0  0  0
  9  4  2  0  0  0  0
  9  6  1  0  0  0  0
 10 15  2  0  0  0  0
 10 20  1  0  0  0  0
 11 20  1  0  0  0  0
 12  8  1  0  0  0  0
 12  4  1  0  0  0  0
 13 19  2  0  0  0  0
 14 10  1  0  0  0  0
 15 13  1  0  0  0  0
 16  6  1  0  0  0  0
 17  2  1  0  0  0  0
 18 14  1  0  0  0  0
 18  5  1  0  0  0  0
 20  1  1  0  0  0  0
 21 22  1  0  0  0  0
 22 25  2  0  0  0  0
 22 24  1  0  0  0  0
 23 27  1  0  0  0  0
 24 28  2  0  0  0  0
 25 26  1  0  0  0  0
 26 23  2  0  0  0  0
 28 23  1  0  0  0  0
M  END
>  <MODEL>
5

>  <REMARK>
 VINA RESULT:      -9.1      4.402      6.871
  Name = 
  2 active torsions:
  status: ('A' for Active; 'I' for Inactive)
    1  A    between atoms: C_1  and  C_2
    2  A    between atoms: C_2  and  C_3
                            x       y       z     vdW  Elec       q    Type
                         _______ _______ _______ _____ _____    ______ ____

>  <TORSDO>
F 2

$$$$
=
 OpenBabel11052413323D

 28 32  0  0  1  0  0  0  0  0999 V2000
  185.0020  179.0630  142.9830 C   0  0  1  0  0  3  0  0  0  0  0  0
  188.9000  178.5810  139.4420 C   0  0  0  0  0  3  0  0  0  0  0  0
  188.6200  176.6940  145.2460 O   0  0  0  0  0  0  0  0  0  0  0  0
  190.1170  176.7660  140.4890 C   0  0  0  0  0  0  0  0  0  0  0  0
  188.5730  178.1960  141.9140 C   0  0  1  0  0  3  0  0  0  0  0  0
  190.3290  177.1540  138.1080 C   0  0  0  0  0  0  0  0  0  0  0  0
  189.2080  177.8360  140.5900 C   0  0  0  0  0  0  0  0  0  0  0  0
  190.2360  176.5860  142.9750 C   0  0  0  0  0  2  0  0  0  0  0  0
  190.6600  176.4190  139.2480 C   0  0  0  0  0  3  0  0  0  0  0  0
  186.9350  178.0490  144.2620 C   0  0  0  0  0  0  0  0  0  0  0  0
  187.0470  178.2570  141.7590 C   0  0  0  0  0  2  0  0  0  0  0  0
  190.4980  176.0390  141.6550 N   0  0  0  0  0  2  0  0  0  0  0  0
  185.1170  179.1410  145.4620 C   0  0  0  0  0  3  0  0  0  0  0  0
  188.1960  177.2950  144.2200 C   0  0  0  0  0  0  0  0  0  0  0  0
  186.3390  178.3250  145.4260 C   0  0  0  0  0  3  0  0  0  0  0  0
  190.8710  176.8080  136.8780 O   0  0  0  0  0  1  0  0  0  0  0  0
  189.4570  178.2410  138.2060 C   0  0  0  0  0  3  0  0  0  0  0  0
  188.9380  177.2560  142.9920 N   0  0  0  0  0  0  0  0  0  0  0  0
  184.5090  179.5160  144.3350 C   0  0  0  0  0  3  0  0  0  0  0  0
  186.3810  178.5510  143.0290 N   0  0  0  0  0  0  0  0  0  0  0  0
  184.0380  178.0410  142.3590 C   0  0  0  0  0  2  0  0  0  0  0  0
  183.2530  178.5920  141.2100 C   0  0  0  0  0  0  0  0  0  0  0  0
  181.7840  179.6660  139.0830 C   0  0  0  0  0  0  0  0  0  0  0  0
  183.9120  179.0520  140.0640 C   0  0  0  0  0  3  0  0  0  0  0  0
  181.8580  178.6670  141.2880 C   0  0  0  0  0  3  0  0  0  0  0  0
  181.1240  179.2040  140.2260 C   0  0  0  0  0  3  0  0  0  0  0  0
  181.0740  180.1870  138.0540 F   0  0  0  0  0  0  0  0  0  0  0  0
  183.1780  179.5890  139.0020 C   0  0  0  0  0  3  0  0  0  0  0  0
  1 21  1  1  0  0  0
  1 20  1  0  0  0  0
  1 19  1  0  0  0  0
  2  7  1  0  0  0  0
  4  7  2  0  0  0  0
  4 12  1  0  0  0  0
  5 11  1  6  0  0  0
  5 18  1  0  0  0  0
  6 17  1  0  0  0  0
  6  9  2  0  0  0  0
  7  5  1  0  0  0  0
  8 18  1  0  0  0  0
  9  4  1  0  0  0  0
 10 15  2  0  0  0  0
 11 20  1  0  0  0  0
 12  8  1  0  0  0  0
 14 10  1  0  0  0  0
 14  3  2  0  0  0  0
 15 13  1  0  0  0  0
 16  6  1  0  0  0  0
 17  2  2  0  0  0  0
 18 14  1  0  0  0  0
 19 13  2  0  0  0  0
 20 10  1  0  0  0  0
 22 25  1  0  0  0  0
 22 21  1  0  0  0  0
 23 26  1  0  0  0  0
 24 22  2  0  0  0  0
 26 25  2  0  0  0  0
 27 23  1  0  0  0  0
 28 23  2  0  0  0  0
 28 24  1  0  0  0  0
M  END
>  <MODEL>
6

>  <REMARK>
 VINA RESULT:      -9.0      3.635      7.223
  Name = 
  2 active torsions:
  status: ('A' for Active; 'I' for Inactive)
    1  A    between atoms: C_1  and  C_2
    2  A    between atoms: C_2  and  C_3
                            x       y       z     vdW  Elec       q    Type
                         _______ _______ _______ _____ _____    ______ ____

>  <TORSDO>
F 2

$$$$
=
 OpenBabel11052413323D

 28 32  0  0  1  0  0  0  0  0999 V2000
  189.8600  177.7920  142.1970 C   0  0  1  0  0  3  0  0  0  0  0  0
  184.9580  179.4670  143.2640 C   0  0  0  0  0  3  0  0  0  0  0  0
  187.3870  177.5470  137.9960 O   0  0  0  0  0  0  0  0  0  0  0  0
  183.8230  178.5020  141.3530 C   0  0  0  0  0  0  0  0  0  0  0  0
  186.3310  178.9030  141.2220 C   0  0  1  0  0  3  0  0  0  0  0  0
  182.5850  179.0070  143.3720 C   0  0  0  0  0  0  0  0  0  0  0  0
  185.0110  178.9530  141.9590 C   0  0  0  0  0  0  0  0  0  0  0  0
  184.9710  178.3410  139.1430 C   0  0  0  0  0  2  0  0  0  0  0  0
  182.6200  178.5150  142.0650 C   0  0  0  0  0  3  0  0  0  0  0  0
  188.6880  177.8750  139.9570 C   0  0  0  0  0  0  0  0  0  0  0  0
  187.3770  178.1780  142.0800 C   0  0  0  0  0  2  0  0  0  0  0  0
  183.8400  178.0410  140.0040 N   0  0  0  0  0  2  0  0  0  0  0  0
  191.1220  177.8510  140.0600 C   0  0  0  0  0  3  0  0  0  0  0  0
  187.4190  177.8740  139.2150 C   0  0  0  0  0  0  0  0  0  0  0  0
  189.8570  177.7770  139.3160 C   0  0  0  0  0  3  0  0  0  0  0  0
  181.3880  179.0200  144.0760 O   0  0  0  0  0  1  0  0  0  0  0  0
  183.7510  179.4920  143.9680 C   0  0  0  0  0  3  0  0  0  0  0  0
  186.2170  178.2530  139.9020 N   0  0  0  0  0  0  0  0  0  0  0  0
  191.1330  177.8930  141.3930 C   0  0  0  0  0  3  0  0  0  0  0  0
  188.6600  178.0570  141.3860 N   0  0  0  0  0  0  0  0  0  0  0  0
  189.7700  176.4380  142.9190 C   0  0  0  0  0  2  0  0  0  0  0  0
  190.2950  176.4770  144.3210 C   0  0  0  0  0  0  0  0  0  0  0  0
  191.3000  176.5920  146.9300 C   0  0  0  0  0  0  0  0  0  0  0  0
  189.5390  177.0710  145.3380 C   0  0  0  0  0  3  0  0  0  0  0  0
  191.5530  175.9390  144.6120 C   0  0  0  0  0  3  0  0  0  0  0  0
  192.0550  175.9970  145.9160 C   0  0  0  0  0  3  0  0  0  0  0  0
  191.7870  176.6490  148.1930 F   0  0  0  0  0  0  0  0  0  0  0  0
  190.0410  177.1290  146.6410 C   0  0  0  0  0  3  0  0  0  0  0  0
  1 21  1  6  0  0  0
  2 17  1  0  0  0  0
  3 14  2  0  0  0  0
  4  7  1  0  0  0  0
  4  9  2  0  0  0  0
  5  7  1  0  0  0  0
  5 11  1  1  0  0  0
  6 17  2  0  0  0  0
  6 16  1  0  0  0  0
  7  2  2  0  0  0  0
  8 18  1  0  0  0  0
  8 12  1  0  0  0  0
  9  6  1  0  0  0  0
 10 20  1  0  0  0  0
 12  4  1  0  0  0  0
 13 19  2  0  0  0  0
 14 18  1  0  0  0  0
 14 10  1  0  0  0  0
 15 10  2  0  0  0  0
 15 13  1  0  0  0  0
 18  5  1  0  0  0  0
 19  1  1  0  0  0  0
 20 11  1  0  0  0  0
 20  1  1  0  0  0  0
 21 22  1  0  0  0  0
 22 25  2  0  0  0  0
 22 24  1  0  0  0  0
 23 27  1  0  0  0  0
 24 28  2  0  0  0  0
 25 26  1  0  0  0  0
 26 23  2  0  0  0  0
 28 23  1  0  0  0  0
M  END
>  <MODEL>
7

>  <REMARK>
 VINA RESULT:      -8.9      3.427      5.739
  Name = 
  2 active torsions:
  status: ('A' for Active; 'I' for Inactive)
    1  A    between atoms: C_1  and  C_2
    2  A    between atoms: C_2  and  C_3
                            x       y       z     vdW  Elec       q    Type
                         _______ _______ _______ _____ _____    ______ ____

>  <TORSDO>
F 2

$$$$
=
 OpenBabel11052413323D

 28 32  0  0  1  0  0  0  0  0999 V2000
  190.0930  176.5860  142.7280 C   0  0  1  0  0  3  0  0  0  0  0  0
  184.9130  177.6230  142.9840 C   0  0  0  0  0  3  0  0  0  0  0  0
  189.2220  178.0810  147.2920 O   0  0  0  0  0  0  0  0  0  0  0  0
  184.9260  179.0440  144.9470 C   0  0  0  0  0  0  0  0  0  0  0  0
  186.8550  177.4270  144.5850 C   0  0  1  0  0  3  0  0  0  0  0  0
  183.1310  179.2230  143.3310 C   0  0  0  0  0  0  0  0  0  0  0  0
  185.5410  178.0480  144.1650 C   0  0  0  0  0  0  0  0  0  0  0  0
  186.5260  178.6150  146.8130 C   0  0  0  0  0  2  0  0  0  0  0  0
  183.7350  179.6380  144.5200 C   0  0  0  0  0  3  0  0  0  0  0  0
  189.6470  177.1250  145.1590 C   0  0  0  0  0  0  0  0  0  0  0  0
  187.8630  177.5140  143.4310 C   0  0  0  0  0  2  0  0  0  0  0  0
  185.5100  179.4410  146.1850 N   0  0  0  0  0  2  0  0  0  0  0  0
  191.6620  175.9090  144.5300 C   0  0  0  0  0  3  0  0  0  0  0  0
  188.7780  177.7750  146.1510 C   0  0  0  0  0  0  0  0  0  0  0  0
  190.8330  176.6210  145.5120 C   0  0  0  0  0  3  0  0  0  0  0  0
  181.9470  179.8140  142.9110 O   0  0  0  0  0  1  0  0  0  0  0  0
  183.7150  178.2090  142.5680 C   0  0  0  0  0  3  0  0  0  0  0  0
  187.4140  178.0540  145.7980 N   0  0  0  0  0  0  0  0  0  0  0  0
  191.3100  175.8590  143.2440 C   0  0  0  0  0  3  0  0  0  0  0  0
  189.1700  176.9720  143.8070 N   0  0  0  0  0  0  0  0  0  0  0  0
  190.4960  177.7930  141.8670 C   0  0  0  0  0  2  0  0  0  0  0  0
  190.8230  177.4300  140.4520 C   0  0  0  0  0  0  0  0  0  0  0  0
  191.4380  176.8000  137.7950 C   0  0  0  0  0  0  0  0  0  0  0  0
  192.1430  177.1440  140.0870 C   0  0  0  0  0  3  0  0  0  0  0  0
  189.8110  177.3970  139.4860 C   0  0  0  0  0  3  0  0  0  0  0  0
  190.1180  177.0830  138.1590 C   0  0  0  0  0  3  0  0  0  0  0  0
  191.7360  176.4960  136.5090 F   0  0  0  0  0  0  0  0  0  0  0  0
  192.4510  176.8290  138.7590 C   0  0  0  0  0  3  0  0  0  0  0  0
  1 21  1  1  0  0  0
  1 19  1  0  0  0  0
  1 20  1  0  0  0  0
  2  7  1  0  0  0  0
  4 12  1  0  0  0  0
  5 11  1  6  0  0  0
  5 18  1  0  0  0  0
  6  9  2  0  0  0  0
  7  5  1  0  0  0  0
  7  4  2  0  0  0  0
  9  4  1  0  0  0  0
 10 15  2  0  0  0  0
 10 14  1  0  0  0  0
 11 20  1  0  0  0  0
 12  8  1  0  0  0  0
 13 15  1  0  0  0  0
 14  3  2  0  0  0  0
 16  6  1  0  0  0  0
 17  2  2  0  0  0  0
 17  6  1  0  0  0  0
 18 14  1  0  0  0  0
 18  8  1  0  0  0  0
 19 13  2  0  0  0  0
 20 10  1  0  0  0  0
 22 21  1  0  0  0  0
 23 26  2  0  0  0  0
 23 28  1  0  0  0  0
 24 22  1  0  0  0  0
 25 22  2  0  0  0  0
 26 25  1  0  0  0  0
 27 23  1  0  0  0  0
 28 24  2  0  0  0  0
M  END
>  <MODEL>
8

>  <REMARK>
 VINA RESULT:      -8.8      1.134      1.707
  Name = 
  2 active torsions:
  status: ('A' for Active; 'I' for Inactive)
    1  A    between atoms: C_1  and  C_2
    2  A    between atoms: C_2  and  C_3
                            x       y       z     vdW  Elec       q    Type
                         _______ _______ _______ _____ _____    ______ ____

>  <TORSDO>
F 2

$$$$
=
 OpenBabel11052413323D

 28 32  0  0  1  0  0  0  0  0999 V2000
  188.4830  176.8350  138.2990 C   0  0  1  0  0  3  0  0  0  0  0  0
  187.7100  176.6310  143.5270 C   0  0  0  0  0  3  0  0  0  0  0  0
  192.8460  177.5800  140.3560 O   0  0  0  0  0  0  0  0  0  0  0  0
  189.7160  177.7920  144.2330 C   0  0  0  0  0  0  0  0  0  0  0  0
  189.6670  176.7070  141.9350 C   0  0  1  0  0  3  0  0  0  0  0  0
  187.7740  177.7340  145.6790 C   0  0  0  0  0  0  0  0  0  0  0  0
  189.0200  177.0550  143.2570 C   0  0  0  0  0  0  0  0  0  0  0  0
  191.8460  177.5350  142.9600 C   0  0  0  0  0  2  0  0  0  0  0  0
  189.0870  178.1430  145.4320 C   0  0  0  0  0  3  0  0  0  0  0  0
  190.7950  176.9870  139.3140 C   0  0  0  0  0  0  0  0  0  0  0  0
  188.7580  177.1470  140.7800 C   0  0  0  0  0  2  0  0  0  0  0  0
  191.0710  178.1730  144.0100 N   0  0  0  0  0  2  0  0  0  0  0  0
  190.5280  176.3390  136.9810 C   0  0  0  0  0  3  0  0  0  0  0  0
  191.6200  177.3090  140.4870 C   0  0  0  0  0  0  0  0  0  0  0  0
  191.3570  176.7300  138.1300 C   0  0  0  0  0  3  0  0  0  0  0  0
  187.1530  178.0830  146.8710 O   0  0  0  0  0  1  0  0  0  0  0  0
  187.0890  176.9710  144.7320 C   0  0  0  0  0  3  0  0  0  0  0  0
  191.0070  177.3070  141.7860 N   0  0  0  0  0  0  0  0  0  0  0  0
  189.1960  176.3520  137.0600 C   0  0  0  0  0  3  0  0  0  0  0  0
  189.3660  176.8790  139.4750 N   0  0  0  0  0  0  0  0  0  0  0  0
  187.8010  178.1900  138.0490 C   0  0  0  0  0  2  0  0  0  0  0  0
  186.3090  178.0970  137.9660 C   0  0  0  0  0  0  0  0  0  0  0  0
  183.5220  177.8770  137.8310 C   0  0  0  0  0  0  0  0  0  0  0  0
  185.5150  178.6030  139.0020 C   0  0  0  0  0  3  0  0  0  0  0  0
  185.7060  177.4840  136.8620 C   0  0  0  0  0  3  0  0  0  0  0  0
  184.3140  177.3740  136.7950 C   0  0  0  0  0  3  0  0  0  0  0  0
  182.1740  177.7700  137.7670 F   0  0  0  0  0  0  0  0  0  0  0  0
  184.1230  178.4930  138.9350 C   0  0  0  0  0  3  0  0  0  0  0  0
  1 21  1  6  0  0  0
  1 20  1  0  0  0  0
  2 17  1  0  0  0  0
  3 14  2  0  0  0  0
  4  9  2  0  0  0  0
  5 11  1  6  0  0  0
  5  7  1  0  0  0  0
  6 16  1  0  0  0  0
  7  2  2  0  0  0  0
  7  4  1  0  0  0  0
  8 12  1  0  0  0  0
  9  6  1  0  0  0  0
 10 20  1  0  0  0  0
 10 14  1  0  0  0  0
 12  4  1  0  0  0  0
 13 19  2  0  0  0  0
 13 15  1  0  0  0  0
 14 18  1  0  0  0  0
 15 10  2  0  0  0  0
 17  6  2  0  0  0  0
 18  5  1  0  0  0  0
 18  8  1  0  0  0  0
 19  1  1  0  0  0  0
 20 11  1  0  0  0  0
 22 21  1  0  0  0  0
 22 24  1  0  0  0  0
 23 28  1  0  0  0  0
 25 22  2  0  0  0  0
 26 25  1  0  0  0  0
 26 23  2  0  0  0  0
 27 23  1  0  0  0  0
 28 24  2  0  0  0  0
M  END
>  <MODEL>
9

>  <REMARK>
 VINA RESULT:      -8.7      3.815      6.695
  Name = 
  2 active torsions:
  status: ('A' for Active; 'I' for Inactive)
    1  A    between atoms: C_1  and  C_2
    2  A    between atoms: C_2  and  C_3
                            x       y       z     vdW  Elec       q    Type
                         _______ _______ _______ _____ _____    ______ ____

>  <TORSDO>
F 2

$$$$
