=
 OpenBabel11052413063D

 31 35  0  0  1  0  0  0  0  0999 V2000
  185.1660  179.0880  143.2200 C   0  0  0  0  0  0  0  0  0  0  0  0
  188.4990  177.2160  143.6450 C   0  0  1  0  0  3  0  0  0  0  0  0
  188.7880  177.3730  145.1340 C   0  0  0  0  0  0  0  0  0  0  0  0
  189.2690  176.5550  138.4910 O   0  0  0  0  0  0  0  0  0  0  0  0
  190.3820  176.4260  139.0690 C   0  0  0  0  0  0  0  0  0  0  0  0
  187.9980  177.3970  147.4390 C   0  0  0  0  0  0  0  0  0  0  0  0
  187.3210  177.9730  143.0560 C   0  0  0  0  0  0  0  0  0  0  0  0
  185.0890  179.1590  141.8270 C   0  0  0  0  0  3  0  0  0  0  0  0
  187.7390  177.3630  146.0680 C   0  0  0  0  0  3  0  0  0  0  0  0
  189.4540  177.1960  141.3270 C   0  0  0  0  0  0  0  0  0  0  0  0
  183.8700  179.7340  144.2030 Cl  0  0  0  0  0  0  0  0  0  0  0  0
  191.3000  177.2640  144.6850 C   0  0  0  0  0  2  0  0  0  0  0  0
  186.9700  177.4140  148.3220 F   0  0  0  0  0  0  0  0  0  0  0  0
  188.2960  177.5320  140.8330 N   0  0  0  0  0  0  0  0  0  0  0  0
  189.7450  177.4730  142.7820 C   0  0  2  0  0  3  0  0  0  0  0  0
  190.5010  176.7180  140.4690 N   0  0  0  0  0  2  0  0  0  0  0  0
  186.2690  178.4880  143.8300 C   0  0  0  0  0  3  0  0  0  0  0  0
  189.3130  177.4040  147.9000 C   0  0  0  0  0  3  0  0  0  0  0  0
  187.2340  178.0500  141.6490 C   0  0  0  0  0  0  0  0  0  0  0  0
  186.1200  178.6380  141.0430 C   0  0  0  0  0  3  0  0  0  0  0  0
  190.9270  176.6860  143.3250 C   0  0  0  0  0  2  0  0  0  0  0  0
  190.1210  177.3190  145.6150 C   0  0  0  0  0  0  0  0  0  0  0  0
  190.3700  177.3620  146.9910 C   0  0  0  0  0  3  0  0  0  0  0  0
  193.9170  175.2350  136.9810 C   0  0  0  0  0  0  0  0  0  0  0  0
  192.7740  176.6850  138.4700 C   0  0  0  0  0  3  0  0  0  0  0  0
  190.3750  174.0000  137.2130 C   0  0  0  0  0  1  0  0  0  0  0  0
  195.1690  174.8580  136.2760 C   0  0  0  0  0  1  0  0  0  0  0  0
  193.9020  176.3110  137.8090 N   0  0  0  0  0  0  0  0  0  0  0  0
  191.5830  174.8420  137.4570 C   0  0  0  0  0  0  0  0  0  0  0  0
  191.5780  175.9660  138.3180 C   0  0  0  0  0  0  0  0  0  0  0  0
  192.7580  174.4840  136.7920 C   0  0  0  0  0  3  0  0  0  0  0  0
  1 17  1  0  0  0  0
  1 11  1  0  0  0  0
  2  7  1  6  0  0  0
  2  3  1  0  0  0  0
  3 22  2  0  0  0  0
  3  9  1  0  0  0  0
  4  5  2  0  0  0  0
  5 16  1  0  0  0  0
  6 18  1  0  0  0  0
  6 13  1  0  0  0  0
  7 17  2  0  0  0  0
  8  1  2  0  0  0  0
  9  6  2  0  0  0  0
 10 15  1  0  0  0  0
 12 22  1  0  0  0  0
 14 10  2  0  0  0  0
 14 19  1  0  0  0  0
 15 21  1  1  0  0  0
 15  2  1  0  0  0  0
 16 10  1  0  0  0  0
 19  7  1  0  0  0  0
 20 19  2  0  0  0  0
 20  8  1  0  0  0  0
 21 12  1  0  0  0  0
 22 23  1  0  0  0  0
 23 18  2  0  0  0  0
 24 28  1  0  0  0  0
 26 29  1  0  0  0  0
 27 24  1  0  0  0  0
 28 25  2  0  0  0  0
 29 30  2  0  0  0  0
 30 25  1  0  0  0  0
 30  5  1  0  0  0  0
 31 24  2  0  0  0  0
 31 29  1  0  0  0  0
M  END
>  <MODEL>
1

>  <REMARK>
 VINA RESULT:     -11.3      0.000      0.000
  Name = 
  1 active torsions:
  status: ('A' for Active; 'I' for Inactive)
    1  A    between atoms: C_9  and  C_22
                            x       y       z     vdW  Elec       q    Type
                         _______ _______ _______ _____ _____    ______ ____

>  <TORSDO>
F 1

$$$$
=
 OpenBabel11052413063D

 31 35  0  0  1  0  0  0  0  0999 V2000
  186.8400  178.1490  146.9770 C   0  0  0  0  0  0  0  0  0  0  0  0
  187.4170  177.5290  143.2250 C   0  0  1  0  0  3  0  0  0  0  0  0
  188.9330  177.3930  143.1330 C   0  0  0  0  0  0  0  0  0  0  0  0
  182.4390  178.5130  141.8670 O   0  0  0  0  0  0  0  0  0  0  0  0
  183.1550  178.6420  140.8370 C   0  0  0  0  0  0  0  0  0  0  0  0
  191.0290  176.5520  144.0480 C   0  0  0  0  0  0  0  0  0  0  0  0
  186.8100  177.9450  144.5540 C   0  0  0  0  0  0  0  0  0  0  0  0
  185.4990  178.5390  146.9680 C   0  0  0  0  0  3  0  0  0  0  0  0
  189.6570  176.7780  144.1680 C   0  0  0  0  0  3  0  0  0  0  0  0
  185.3370  178.4350  142.1590 C   0  0  0  0  0  0  0  0  0  0  0  0
  187.7060  178.0260  148.4930 Cl  0  0  0  0  0  0  0  0  0  0  0  0
  188.8950  178.2940  140.7430 C   0  0  0  0  0  2  0  0  0  0  0  0
  191.7130  175.9810  145.0690 F   0  0  0  0  0  0  0  0  0  0  0  0
  184.7380  178.4560  143.3170 N   0  0  0  0  0  0  0  0  0  0  0  0
  186.8450  178.4180  142.1090 C   0  0  2  0  0  3  0  0  0  0  0  0
  184.5850  178.5920  140.9470 N   0  0  0  0  0  2  0  0  0  0  0  0
  187.4880  177.8420  145.7790 C   0  0  0  0  0  3  0  0  0  0  0  0
  191.6940  176.9050  142.8740 C   0  0  0  0  0  3  0  0  0  0  0  0
  185.4550  178.3410  144.5550 C   0  0  0  0  0  0  0  0  0  0  0  0
  184.8070  178.6320  145.7590 C   0  0  0  0  0  3  0  0  0  0  0  0
  187.4030  177.9870  140.7620 C   0  0  0  0  0  2  0  0  0  0  0  0
  189.6070  177.6920  141.9220 C   0  0  0  0  0  0  0  0  0  0  0  0
  190.9840  177.4700  141.8150 C   0  0  0  0  0  3  0  0  0  0  0  0
  181.3610  179.3840  137.0290 C   0  0  0  0  0  0  0  0  0  0  0  0
  182.1750  180.1410  139.1230 C   0  0  0  0  0  3  0  0  0  0  0  0
  182.6220  176.3630  138.8750 C   0  0  0  0  0  1  0  0  0  0  0  0
  180.7360  179.6880  135.7160 C   0  0  0  0  0  1  0  0  0  0  0  0
  181.6040  180.3840  137.9140 N   0  0  0  0  0  0  0  0  0  0  0  0
  182.2850  177.7880  138.5860 C   0  0  0  0  0  0  0  0  0  0  0  0
  182.5340  178.8390  139.5020 C   0  0  0  0  0  0  0  0  0  0  0  0
  181.6970  178.0700  137.3520 C   0  0  0  0  0  3  0  0  0  0  0  0
  1 11  1  0  0  0  0
  2  3  1  1  0  0  0
  2  7  1  0  0  0  0
  3  9  1  0  0  0  0
  5 16  1  0  0  0  0
  5  4  2  0  0  0  0
  6  9  2  0  0  0  0
  6 13  1  0  0  0  0
  7 19  2  0  0  0  0
  7 17  1  0  0  0  0
  8  1  1  0  0  0  0
 10 14  2  0  0  0  0
 12 21  1  0  0  0  0
 12 22  1  0  0  0  0
 14 19  1  0  0  0  0
 15 21  1  6  0  0  0
 15 10  1  0  0  0  0
 15  2  1  0  0  0  0
 16 10  1  0  0  0  0
 17  1  2  0  0  0  0
 18  6  1  0  0  0  0
 19 20  1  0  0  0  0
 20  8  2  0  0  0  0
 22  3  2  0  0  0  0
 23 22  1  0  0  0  0
 23 18  2  0  0  0  0
 24 31  2  0  0  0  0
 24 28  1  0  0  0  0
 25 30  1  0  0  0  0
 27 24  1  0  0  0  0
 28 25  2  0  0  0  0
 29 26  1  0  0  0  0
 29 30  2  0  0  0  0
 30  5  1  0  0  0  0
 31 29  1  0  0  0  0
M  END
>  <MODEL>
2

>  <REMARK>
 VINA RESULT:     -11.3      4.205      7.208
  Name = 
  1 active torsions:
  status: ('A' for Active; 'I' for Inactive)
    1  A    between atoms: C_9  and  C_22
                            x       y       z     vdW  Elec       q    Type
                         _______ _______ _______ _____ _____    ______ ____

>  <TORSDO>
F 1

$$$$
=
 OpenBabel11052413063D

 31 35  0  0  1  0  0  0  0  0999 V2000
  191.7000  175.7620  146.3630 C   0  0  0  0  0  0  0  0  0  0  0  0
  188.8240  177.6160  144.6060 C   0  0  1  0  0  3  0  0  0  0  0  0
  187.8370  177.8640  145.7420 C   0  0  0  0  0  0  0  0  0  0  0  0
  190.7170  176.8400  139.7690 O   0  0  0  0  0  0  0  0  0  0  0  0
  189.4880  177.1000  139.6670 C   0  0  0  0  0  0  0  0  0  0  0  0
  187.4090  178.4800  148.0610 C   0  0  0  0  0  0  0  0  0  0  0  0
  190.0410  176.7500  144.8850 C   0  0  0  0  0  0  0  0  0  0  0  0
  192.4300  175.3180  145.2580 C   0  0  0  0  0  3  0  0  0  0  0  0
  188.2990  178.1460  147.0380 C   0  0  0  0  0  3  0  0  0  0  0  0
  189.1140  176.9890  142.1970 C   0  0  0  0  0  0  0  0  0  0  0  0
  192.2740  175.4310  147.9820 Cl  0  0  0  0  0  0  0  0  0  0  0  0
  185.8850  177.8000  144.0960 C   0  0  0  0  0  2  0  0  0  0  0  0
  187.8750  178.7230  149.3100 F   0  0  0  0  0  0  0  0  0  0  0  0
  190.3170  176.5530  142.4420 N   0  0  0  0  0  0  0  0  0  0  0  0
  188.1270  177.1120  143.3320 C   0  0  2  0  0  3  0  0  0  0  0  0
  188.6750  177.1960  140.8460 N   0  0  0  0  0  2  0  0  0  0  0  0
  190.5190  176.4840  146.1780 C   0  0  0  0  0  3  0  0  0  0  0  0
  186.0440  178.5730  147.7940 C   0  0  0  0  0  3  0  0  0  0  0  0
  190.7850  176.2970  143.7750 C   0  0  0  0  0  0  0  0  0  0  0  0
  191.9740  175.5870  143.9650 C   0  0  0  0  0  3  0  0  0  0  0  0
  186.9330  177.9940  143.0060 C   0  0  0  0  0  2  0  0  0  0  0  0
  186.4540  178.0210  145.4690 C   0  0  0  0  0  0  0  0  0  0  0  0
  185.5700  178.3480  146.5020 C   0  0  0  0  0  3  0  0  0  0  0  0
  187.6470  177.8840  135.8900 C   0  0  0  0  0  0  0  0  0  0  0  0
  188.2110  178.5350  138.0990 C   0  0  0  0  0  3  0  0  0  0  0  0
  189.5590  175.0330  137.4190 C   0  0  0  0  0  1  0  0  0  0  0  0
  186.9930  178.2000  134.5940 C   0  0  0  0  0  1  0  0  0  0  0  0
  187.6240  178.7900  136.9000 N   0  0  0  0  0  0  0  0  0  0  0  0
  188.8960  176.3640  137.2880 C   0  0  0  0  0  0  0  0  0  0  0  0
  188.8660  177.3170  138.3350 C   0  0  0  0  0  0  0  0  0  0  0  0
  188.2820  176.6560  136.0680 C   0  0  0  0  0  3  0  0  0  0  0  0
  1 11  1  0  0  0  0
  2  7  1  1  0  0  0
  2  3  1  0  0  0  0
  3  9  1  0  0  0  0
  5  4  2  0  0  0  0
  5 16  1  0  0  0  0
  6 13  1  0  0  0  0
  7 17  2  0  0  0  0
  8  1  2  0  0  0  0
  9  6  2  0  0  0  0
 10 14  2  0  0  0  0
 10 15  1  0  0  0  0
 12 22  1  0  0  0  0
 14 19  1  0  0  0  0
 15 21  1  6  0  0  0
 15  2  1  0  0  0  0
 16 10  1  0  0  0  0
 17  1  1  0  0  0  0
 18  6  1  0  0  0  0
 19 20  2  0  0  0  0
 19  7  1  0  0  0  0
 20  8  1  0  0  0  0
 21 12  1  0  0  0  0
 22  3  2  0  0  0  0
 22 23  1  0  0  0  0
 23 18  2  0  0  0  0
 24 31  2  0  0  0  0
 24 28  1  0  0  0  0
 25 30  1  0  0  0  0
 27 24  1  0  0  0  0
 28 25  2  0  0  0  0
 29 26  1  0  0  0  0
 29 30  2  0  0  0  0
 30  5  1  0  0  0  0
 31 29  1  0  0  0  0
M  END
>  <MODEL>
3

>  <REMARK>
 VINA RESULT:     -10.6      2.924      4.864
  Name = 
  1 active torsions:
  status: ('A' for Active; 'I' for Inactive)
    1  A    between atoms: C_9  and  C_22
                            x       y       z     vdW  Elec       q    Type
                         _______ _______ _______ _____ _____    ______ ____

>  <TORSDO>
F 1

$$$$
=
 OpenBabel11052413063D

 31 35  0  0  1  0  0  0  0  0999 V2000
  187.6830  178.1450  147.4040 C   0  0  0  0  0  0  0  0  0  0  0  0
  187.2030  177.5850  143.6290 C   0  0  1  0  0  3  0  0  0  0  0  0
  188.6340  177.4340  143.1240 C   0  0  0  0  0  0  0  0  0  0  0  0
  182.0600  178.6500  143.6970 O   0  0  0  0  0  0  0  0  0  0  0  0
  182.4690  178.7890  142.5130 C   0  0  0  0  0  0  0  0  0  0  0  0
  190.8870  176.5530  143.4190 C   0  0  0  0  0  0  0  0  0  0  0  0
  186.9890  177.9850  145.0790 C   0  0  0  0  0  0  0  0  0  0  0  0
  186.3970  178.5500  147.7670 C   0  0  0  0  0  3  0  0  0  0  0  0
  189.6030  176.7920  143.9130 C   0  0  0  0  0  3  0  0  0  0  0  0
  184.9260  178.5340  143.1850 C   0  0  0  0  0  0  0  0  0  0  0  0
  188.9280  177.9850  148.6230 Cl  0  0  0  0  0  0  0  0  0  0  0  0
  187.9590  178.3770  140.8490 C   0  0  0  0  0  2  0  0  0  0  0  0
  191.8140  175.9560  144.2060 F   0  0  0  0  0  0  0  0  0  0  0  0
  184.6660  178.5410  144.4620 N   0  0  0  0  0  0  0  0  0  0  0  0
  186.3620  178.5000  142.7240 C   0  0  2  0  0  3  0  0  0  0  0  0
  183.8740  178.7210  142.2270 N   0  0  0  0  0  2  0  0  0  0  0  0
  187.9740  177.8520  146.0700 C   0  0  0  0  0  3  0  0  0  0  0  0
  191.2110  176.9190  142.1130 C   0  0  0  0  0  3  0  0  0  0  0  0
  185.6920  178.3950  145.4560 C   0  0  0  0  0  0  0  0  0  0  0  0
  185.4020  178.6730  146.7950 C   0  0  0  0  0  3  0  0  0  0  0  0
  186.5240  178.0880  141.2700 C   0  0  0  0  0  2  0  0  0  0  0  0
  188.9570  177.7470  141.7790 C   0  0  0  0  0  0  0  0  0  0  0  0
  190.2480  177.5110  141.2960 C   0  0  0  0  0  3  0  0  0  0  0  0
  179.8200  179.3560  139.2070 C   0  0  0  0  0  0  0  0  0  0  0  0
  181.8290  178.5060  140.1350 C   0  0  0  0  0  3  0  0  0  0  0  0
  179.8420  180.3140  142.8410 C   0  0  0  0  0  1  0  0  0  0  0  0
  178.9310  179.5300  138.0300 C   0  0  0  0  0  1  0  0  0  0  0  0
  180.9920  178.6830  139.0790 N   0  0  0  0  0  0  0  0  0  0  0  0
  180.2910  179.7220  141.5460 C   0  0  0  0  0  0  0  0  0  0  0  0
  181.5110  179.0170  141.4010 C   0  0  0  0  0  0  0  0  0  0  0  0
  179.4510  179.8870  140.4420 C   0  0  0  0  0  3  0  0  0  0  0  0
  1  8  1  0  0  0  0
  1 11  1  0  0  0  0
  2  3  1  6  0  0  0
  2  7  1  0  0  0  0
  3  9  1  0  0  0  0
  5  4  2  0  0  0  0
  6  9  2  0  0  0  0
  6 13  1  0  0  0  0
  7 19  2  0  0  0  0
  7 17  1  0  0  0  0
 10 14  2  0  0  0  0
 12 21  1  0  0  0  0
 12 22  1  0  0  0  0
 14 19  1  0  0  0  0
 15 21  1  6  0  0  0
 15 10  1  0  0  0  0
 15  2  1  0  0  0  0
 16  5  1  0  0  0  0
 16 10  1  0  0  0  0
 17  1  2  0  0  0  0
 18  6  1  0  0  0  0
 19 20  1  0  0  0  0
 20  8  2  0  0  0  0
 22  3  2  0  0  0  0
 23 22  1  0  0  0  0
 23 18  2  0  0  0  0
 24 31  1  0  0  0  0
 25 30  2  0  0  0  0
 27 24  1  0  0  0  0
 28 24  2  0  0  0  0
 28 25  1  0  0  0  0
 29 26  1  0  0  0  0
 30 29  1  0  0  0  0
 30  5  1  0  0  0  0
 31 29  2  0  0  0  0
M  END
>  <MODEL>
4

>  <REMARK>
 VINA RESULT:     -10.5      4.450      8.374
  Name = 
  1 active torsions:
  status: ('A' for Active; 'I' for Inactive)
    1  A    between atoms: C_9  and  C_22
                            x       y       z     vdW  Elec       q    Type
                         _______ _______ _______ _____ _____    ______ ____

>  <TORSDO>
F 1

$$$$
=
 OpenBabel11052413063D

 31 35  0  0  1  0  0  0  0  0999 V2000
  190.6490  176.2450  143.2900 C   0  0  0  0  0  0  0  0  0  0  0  0
  187.5620  178.2150  144.4650 C   0  0  1  0  0  3  0  0  0  0  0  0
  187.6350  178.0850  145.9830 C   0  0  0  0  0  0  0  0  0  0  0  0
  185.5950  178.8340  139.6340 O   0  0  0  0  0  0  0  0  0  0  0  0
  184.6560  179.0010  140.4590 C   0  0  0  0  0  0  0  0  0  0  0  0
  188.9530  178.0660  148.0310 C   0  0  0  0  0  0  0  0  0  0  0  0
  188.5460  177.4170  143.6250 C   0  0  0  0  0  0  0  0  0  0  0  0
  190.3880  176.1550  141.9200 C   0  0  0  0  0  3  0  0  0  0  0  0
  188.8770  178.0760  146.6380 C   0  0  0  0  0  3  0  0  0  0  0  0
  186.0800  178.2340  142.4430 C   0  0  0  0  0  0  0  0  0  0  0  0
  192.1260  175.5740  143.9450 Cl  0  0  0  0  0  0  0  0  0  0  0  0
  185.0910  178.2590  146.1460 C   0  0  0  0  0  2  0  0  0  0  0  0
  190.1620  178.0310  148.6420 F   0  0  0  0  0  0  0  0  0  0  0  0
  187.0770  177.8590  141.6930 N   0  0  0  0  0  0  0  0  0  0  0  0
  186.1390  177.9830  143.9300 C   0  0  2  0  0  3  0  0  0  0  0  0
  184.8690  178.7300  141.8520 N   0  0  0  0  0  2  0  0  0  0  0  0
  189.7390  176.8830  144.1350 C   0  0  0  0  0  3  0  0  0  0  0  0
  187.7870  178.1010  148.7940 C   0  0  0  0  0  3  0  0  0  0  0  0
  188.2910  177.3210  142.2400 C   0  0  0  0  0  0  0  0  0  0  0  0
  189.2120  176.6950  141.3960 C   0  0  0  0  0  3  0  0  0  0  0  0
  185.1410  178.8090  144.7260 C   0  0  0  0  0  2  0  0  0  0  0  0
  186.4580  178.1820  146.7670 C   0  0  0  0  0  0  0  0  0  0  0  0
  186.5440  178.1620  148.1640 C   0  0  0  0  0  3  0  0  0  0  0  0
  180.9090  180.4710  139.0210 C   0  0  0  0  0  0  0  0  0  0  0  0
  183.2620  180.2510  138.8340 C   0  0  0  0  0  3  0  0  0  0  0  0
  182.0560  178.4170  141.9520 C   0  0  0  0  0  1  0  0  0  0  0  0
  179.6290  181.0020  138.4850 C   0  0  0  0  0  1  0  0  0  0  0  0
  182.0740  180.7220  138.3710 N   0  0  0  0  0  0  0  0  0  0  0  0
  182.1170  179.2180  140.6940 C   0  0  0  0  0  0  0  0  0  0  0  0
  183.3270  179.4850  140.0080 C   0  0  0  0  0  0  0  0  0  0  0  0
  180.9120  179.7150  140.1930 C   0  0  0  0  0  3  0  0  0  0  0  0
  1 11  1  0  0  0  0
  1 17  1  0  0  0  0
  2  7  1  6  0  0  0
  2  3  1  0  0  0  0
  3  9  2  0  0  0  0
  3 22  1  0  0  0  0
  4  5  2  0  0  0  0
  5 16  1  0  0  0  0
  6 13  1  0  0  0  0
  6 18  2  0  0  0  0
  7 17  2  0  0  0  0
  8  1  2  0  0  0  0
  9  6  1  0  0  0  0
 10 15  1  0  0  0  0
 12 22  1  0  0  0  0
 14 19  1  0  0  0  0
 14 10  2  0  0  0  0
 15  2  1  0  0  0  0
 15 21  1  1  0  0  0
 16 10  1  0  0  0  0
 19  7  1  0  0  0  0
 20  8  1  0  0  0  0
 20 19  2  0  0  0  0
 21 12  1  0  0  0  0
 22 23  2  0  0  0  0
 23 18  1  0  0  0  0
 24 31  1  0  0  0  0
 25 30  2  0  0  0  0
 27 24  1  0  0  0  0
 28 25  1  0  0  0  0
 28 24  2  0  0  0  0
 29 26  1  0  0  0  0
 30  5  1  0  0  0  0
 30 29  1  0  0  0  0
 31 29  2  0  0  0  0
M  END
>  <MODEL>
5

>  <REMARK>
 VINA RESULT:      -9.9      3.772      7.407
  Name = 
  1 active torsions:
  status: ('A' for Active; 'I' for Inactive)
    1  A    between atoms: C_9  and  C_22
                            x       y       z     vdW  Elec       q    Type
                         _______ _______ _______ _____ _____    ______ ____

>  <TORSDO>
F 1

$$$$
=
 OpenBabel11052413063D

 31 35  0  0  1  0  0  0  0  0999 V2000
  191.3680  177.2850  140.1790 C   0  0  0  0  0  0  0  0  0  0  0  0
  188.3680  178.2660  142.3780 C   0  0  1  0  0  3  0  0  0  0  0  0
  188.8120  177.8320  143.7710 C   0  0  0  0  0  0  0  0  0  0  0  0
  185.2560  179.4810  138.3250 O   0  0  0  0  0  0  0  0  0  0  0  0
  184.5210  179.2670  139.3270 C   0  0  0  0  0  0  0  0  0  0  0  0
  190.5590  177.6510  145.4600 C   0  0  0  0  0  0  0  0  0  0  0  0
  189.2420  177.8910  141.1930 C   0  0  0  0  0  0  0  0  0  0  0  0
  190.8120  177.4380  138.9070 C   0  0  0  0  0  3  0  0  0  0  0  0
  190.1580  177.9430  144.1560 C   0  0  0  0  0  3  0  0  0  0  0  0
  186.4710  178.4070  140.7450 C   0  0  0  0  0  0  0  0  0  0  0  0
  193.0440  176.8140  140.3520 Cl  0  0  0  0  0  0  0  0  0  0  0  0
  186.3830  177.4300  144.4500 C   0  0  0  0  0  2  0  0  0  0  0  0
  191.8670  177.7400  145.8030 F   0  0  0  0  0  0  0  0  0  0  0  0
  187.3120  178.4190  139.7500 N   0  0  0  0  0  0  0  0  0  0  0  0
  186.9150  177.8610  142.0800 C   0  0  2  0  0  3  0  0  0  0  0  0
  185.0930  178.7540  140.5390 N   0  0  0  0  0  2  0  0  0  0  0  0
  190.5910  177.5220  141.3150 C   0  0  0  0  0  3  0  0  0  0  0  0
  189.6120  177.2770  146.4130 C   0  0  0  0  0  3  0  0  0  0  0  0
  188.6900  178.0430  139.9030 C   0  0  0  0  0  0  0  0  0  0  0  0
  189.4750  177.8190  138.7690 C   0  0  0  0  0  3  0  0  0  0  0  0
  186.0120  178.2700  143.2340 C   0  0  0  0  0  2  0  0  0  0  0  0
  187.8510  177.5100  144.7620 C   0  0  0  0  0  0  0  0  0  0  0  0
  188.2620  177.2100  146.0650 C   0  0  0  0  0  3  0  0  0  0  0  0
  180.3640  180.2360  139.1120 C   0  0  0  0  0  0  0  0  0  0  0  0
  182.6470  180.8140  138.8380 C   0  0  0  0  0  3  0  0  0  0  0  0
  182.3850  177.2300  140.1130 C   0  0  0  0  0  1  0  0  0  0  0  0
  178.9310  180.6160  139.0210 C   0  0  0  0  0  1  0  0  0  0  0  0
  181.3260  181.1290  138.7670 N   0  0  0  0  0  0  0  0  0  0  0  0
  182.0670  178.6080  139.6350 C   0  0  0  0  0  0  0  0  0  0  0  0
  183.0640  179.5470  139.2730 C   0  0  0  0  0  0  0  0  0  0  0  0
  180.7190  178.9610  139.5520 C   0  0  0  0  0  3  0  0  0  0  0  0
  1 11  1  0  0  0  0
  1 17  1  0  0  0  0
  2  7  1  6  0  0  0
  2  3  1  0  0  0  0
  3  9  2  0  0  0  0
  3 22  1  0  0  0  0
  4  5  2  0  0  0  0
  5 16  1  0  0  0  0
  6 13  1  0  0  0  0
  6 18  2  0  0  0  0
  7 17  2  0  0  0  0
  8  1  2  0  0  0  0
  9  6  1  0  0  0  0
 10 15  1  0  0  0  0
 12 22  1  0  0  0  0
 14 19  1  0  0  0  0
 14 10  2  0  0  0  0
 15  2  1  0  0  0  0
 15 21  1  1  0  0  0
 16 10  1  0  0  0  0
 19  7  1  0  0  0  0
 20  8  1  0  0  0  0
 20 19  2  0  0  0  0
 21 12  1  0  0  0  0
 22 23  2  0  0  0  0
 23 18  1  0  0  0  0
 24 31  1  0  0  0  0
 25 30  2  0  0  0  0
 27 24  1  0  0  0  0
 28 25  1  0  0  0  0
 28 24  2  0  0  0  0
 29 26  1  0  0  0  0
 30  5  1  0  0  0  0
 30 29  1  0  0  0  0
 31 29  2  0  0  0  0
M  END
>  <MODEL>
6

>  <REMARK>
 VINA RESULT:      -9.8      3.726      7.560
  Name = 
  1 active torsions:
  status: ('A' for Active; 'I' for Inactive)
    1  A    between atoms: C_9  and  C_22
                            x       y       z     vdW  Elec       q    Type
                         _______ _______ _______ _____ _____    ______ ____

>  <TORSDO>
F 1

$$$$
=
 OpenBabel11052413063D

 31 35  0  0  1  0  0  0  0  0999 V2000
  190.2150  176.8930  142.4290 C   0  0  0  0  0  0  0  0  0  0  0  0
  186.8860  178.5270  143.4490 C   0  0  1  0  0  3  0  0  0  0  0  0
  186.8370  178.2830  144.9540 C   0  0  0  0  0  0  0  0  0  0  0  0
  185.3060  179.3780  138.5130 O   0  0  0  0  0  0  0  0  0  0  0  0
  184.2880  179.4090  139.2560 C   0  0  0  0  0  0  0  0  0  0  0  0
  187.9680  178.2010  147.1100 C   0  0  0  0  0  0  0  0  0  0  0  0
  188.0020  177.8750  142.6500 C   0  0  0  0  0  0  0  0  0  0  0  0
  190.0840  176.8920  141.0380 C   0  0  0  0  0  3  0  0  0  0  0  0
  188.0130  178.3160  145.7200 C   0  0  0  0  0  3  0  0  0  0  0  0
  185.5900  178.5950  141.3050 C   0  0  0  0  0  0  0  0  0  0  0  0
  191.6790  176.2850  143.1700 Cl  0  0  0  0  0  0  0  0  0  0  0  0
  184.2830  178.2530  144.8900 C   0  0  0  0  0  2  0  0  0  0  0  0
  189.1180  178.2080  147.8270 F   0  0  0  0  0  0  0  0  0  0  0  0
  186.6770  178.3560  140.6250 N   0  0  0  0  0  0  0  0  0  0  0  0
  185.5400  178.2320  142.7680 C   0  0  2  0  0  3  0  0  0  0  0  0
  184.4000  179.0440  140.6400 N   0  0  0  0  0  2  0  0  0  0  0  0
  189.1860  177.3920  143.2290 C   0  0  0  0  0  3  0  0  0  0  0  0
  186.7400  178.0880  147.7610 C   0  0  0  0  0  3  0  0  0  0  0  0
  187.8780  177.8700  141.2440 C   0  0  0  0  0  0  0  0  0  0  0  0
  188.9170  177.3830  140.4460 C   0  0  0  0  0  3  0  0  0  0  0  0
  184.4120  178.9160  143.5250 C   0  0  0  0  0  2  0  0  0  0  0  0
  185.5910  178.2290  145.6300 C   0  0  0  0  0  0  0  0  0  0  0  0
  185.5560  178.1060  147.0230 C   0  0  0  0  0  3  0  0  0  0  0  0
  180.5320  180.7790  137.7440 C   0  0  0  0  0  0  0  0  0  0  0  0
  182.6540  181.1940  138.7190 C   0  0  0  0  0  3  0  0  0  0  0  0
  182.2230  177.4470  138.1520 C   0  0  0  0  0  1  0  0  0  0  0  0
  179.2400  181.3000  137.2290 C   0  0  0  0  0  1  0  0  0  0  0  0
  181.4610  181.6360  138.2390 N   0  0  0  0  0  0  0  0  0  0  0  0
  182.0060  178.9230  138.2040 C   0  0  0  0  0  0  0  0  0  0  0  0
  182.9680  179.8260  138.7190 C   0  0  0  0  0  0  0  0  0  0  0  0
  180.7900  179.4090  137.7190 C   0  0  0  0  0  3  0  0  0  0  0  0
  1 11  1  0  0  0  0
  1 17  1  0  0  0  0
  2  7  1  6  0  0  0
  2  3  1  0  0  0  0
  3 22  2  0  0  0  0
  3  9  1  0  0  0  0
  4  5  2  0  0  0  0
  5 16  1  0  0  0  0
  6 18  1  0  0  0  0
  6 13  1  0  0  0  0
  7 17  2  0  0  0  0
  8  1  2  0  0  0  0
  9  6  2  0  0  0  0
 10 15  1  0  0  0  0
 12 22  1  0  0  0  0
 14 19  1  0  0  0  0
 14 10  2  0  0  0  0
 15  2  1  0  0  0  0
 15 21  1  1  0  0  0
 16 10  1  0  0  0  0
 19  7  1  0  0  0  0
 20  8  1  0  0  0  0
 20 19  2  0  0  0  0
 21 12  1  0  0  0  0
 22 23  1  0  0  0  0
 23 18  2  0  0  0  0
 24 28  1  0  0  0  0
 26 29  1  0  0  0  0
 27 24  1  0  0  0  0
 28 25  2  0  0  0  0
 29 30  2  0  0  0  0
 30 25  1  0  0  0  0
 30  5  1  0  0  0  0
 31 24  2  0  0  0  0
 31 29  1  0  0  0  0
M  END
>  <MODEL>
7

>  <REMARK>
 VINA RESULT:      -9.6      3.789      7.475
  Name = 
  1 active torsions:
  status: ('A' for Active; 'I' for Inactive)
    1  A    between atoms: C_9  and  C_22
                            x       y       z     vdW  Elec       q    Type
                         _______ _______ _______ _____ _____    ______ ____

>  <TORSDO>
F 1

$$$$
=
 OpenBabel11052413063D

 31 35  0  0  1  0  0  0  0  0999 V2000
  185.7790  178.6900  140.2190 C   0  0  0  0  0  0  0  0  0  0  0  0
  189.0310  177.1890  141.6220 C   0  0  1  0  0  3  0  0  0  0  0  0
  188.9430  177.5200  143.1080 C   0  0  0  0  0  0  0  0  0  0  0  0
  191.0570  176.0910  136.9020 O   0  0  0  0  0  0  0  0  0  0  0  0
  192.0050  176.1250  137.7320 C   0  0  0  0  0  0  0  0  0  0  0  0
  187.6240  177.7010  145.1490 C   0  0  0  0  0  0  0  0  0  0  0  0
  187.9800  177.7700  140.6910 C   0  0  0  0  0  0  0  0  0  0  0  0
  186.0330  178.6130  138.8480 C   0  0  0  0  0  3  0  0  0  0  0  0
  187.7040  177.5060  143.7690 C   0  0  0  0  0  3  0  0  0  0  0  0
  190.5130  177.0270  139.6070 C   0  0  0  0  0  0  0  0  0  0  0  0
  184.2450  179.3070  140.7920 Cl  0  0  0  0  0  0  0  0  0  0  0  0
  191.4910  177.6020  143.2670 C   0  0  0  0  0  2  0  0  0  0  0  0
  186.4160  177.7100  145.7620 F   0  0  0  0  0  0  0  0  0  0  0  0
  189.4870  177.2020  138.8220 N   0  0  0  0  0  0  0  0  0  0  0  0
  190.4280  177.4740  141.0450 C   0  0  2  0  0  3  0  0  0  0  0  0
  191.7650  176.5660  139.0770 N   0  0  0  0  0  2  0  0  0  0  0  0
  186.7410  178.2590  141.1350 C   0  0  0  0  0  3  0  0  0  0  0  0
  188.7870  177.8780  145.8970 C   0  0  0  0  0  3  0  0  0  0  0  0
  188.2280  177.6970  139.3040 C   0  0  0  0  0  0  0  0  0  0  0  0
  187.2550  178.1150  138.3910 C   0  0  0  0  0  3  0  0  0  0  0  0
  191.4950  176.8590  141.9370 C   0  0  0  0  0  2  0  0  0  0  0  0
  190.1220  177.6400  143.8860 C   0  0  0  0  0  0  0  0  0  0  0  0
  190.0320  177.8440  145.2670 C   0  0  0  0  0  3  0  0  0  0  0  0
  195.9800  174.8840  136.7670 C   0  0  0  0  0  0  0  0  0  0  0  0
  194.2510  175.2740  138.3430 C   0  0  0  0  0  3  0  0  0  0  0  0
  193.0100  176.1570  134.8470 C   0  0  0  0  0  1  0  0  0  0  0  0
  197.3690  174.4440  136.4790 C   0  0  0  0  0  1  0  0  0  0  0  0
  195.5170  174.8780  138.0430 N   0  0  0  0  0  0  0  0  0  0  0  0
  193.8470  175.7170  136.0030 C   0  0  0  0  0  0  0  0  0  0  0  0
  193.3740  175.7060  137.3370 C   0  0  0  0  0  0  0  0  0  0  0  0
  195.1520  175.3050  135.7270 C   0  0  0  0  0  3  0  0  0  0  0  0
  1 11  1  0  0  0  0
  1 17  1  0  0  0  0
  2  7  1  6  0  0  0
  2  3  1  0  0  0  0
  3  9  2  0  0  0  0
  3 22  1  0  0  0  0
  4  5  2  0  0  0  0
  5 16  1  0  0  0  0
  6 13  1  0  0  0  0
  6 18  2  0  0  0  0
  7 17  2  0  0  0  0
  8  1  2  0  0  0  0
  9  6  1  0  0  0  0
 10 15  1  0  0  0  0
 12 22  1  0  0  0  0
 14 19  1  0  0  0  0
 14 10  2  0  0  0  0
 15  2  1  0  0  0  0
 15 21  1  1  0  0  0
 16 10  1  0  0  0  0
 19  7  1  0  0  0  0
 20  8  1  0  0  0  0
 20 19  2  0  0  0  0
 21 12  1  0  0  0  0
 22 23  2  0  0  0  0
 23 18  1  0  0  0  0
 24 28  1  0  0  0  0
 26 29  1  0  0  0  0
 27 24  1  0  0  0  0
 28 25  2  0  0  0  0
 29 30  2  0  0  0  0
 30  5  1  0  0  0  0
 30 25  1  0  0  0  0
 31 29  1  0  0  0  0
 31 24  2  0  0  0  0
M  END
>  <MODEL>
8

>  <REMARK>
 VINA RESULT:      -8.8      1.685      2.440
  Name = 
  1 active torsions:
  status: ('A' for Active; 'I' for Inactive)
    1  A    between atoms: C_9  and  C_22
                            x       y       z     vdW  Elec       q    Type
                         _______ _______ _______ _____ _____    ______ ____

>  <TORSDO>
F 1

$$$$
=
 OpenBabel11052413063D

 31 35  0  0  1  0  0  0  0  0999 V2000
  183.7640  179.0560  138.5400 C   0  0  0  0  0  0  0  0  0  0  0  0
  183.7740  178.1500  142.2780 C   0  0  1  0  0  3  0  0  0  0  0  0
  182.3730  178.5520  142.7280 C   0  0  0  0  0  0  0  0  0  0  0  0
  188.9160  177.0900  142.4400 O   0  0  0  0  0  0  0  0  0  0  0  0
  188.5290  177.3160  143.6180 C   0  0  0  0  0  0  0  0  0  0  0  0
  179.9760  178.6530  142.3030 C   0  0  0  0  0  0  0  0  0  0  0  0
  184.2080  178.5090  140.8670 C   0  0  0  0  0  0  0  0  0  0  0  0
  185.1240  178.9370  138.2450 C   0  0  0  0  0  3  0  0  0  0  0  0
  181.2750  178.3900  141.8670 C   0  0  0  0  0  3  0  0  0  0  0  0
  186.2120  178.0920  142.8570 C   0  0  0  0  0  0  0  0  0  0  0  0
  182.6270  179.4690  137.2760 Cl  0  0  0  0  0  0  0  0  0  0  0  0
  183.2370  179.0260  145.0840 C   0  0  0  0  0  2  0  0  0  0  0  0
  178.9340  178.5160  141.4480 F   0  0  0  0  0  0  0  0  0  0  0  0
  186.5240  178.0640  141.5920 N   0  0  0  0  0  0  0  0  0  0  0  0
  184.8550  178.6070  143.2710 C   0  0  2  0  0  3  0  0  0  0  0  0
  187.1970  177.7950  143.8570 N   0  0  0  0  0  2  0  0  0  0  0  0
  183.3080  178.8310  139.8410 C   0  0  0  0  0  3  0  0  0  0  0  0
  179.7490  179.0470  143.6220 C   0  0  0  0  0  3  0  0  0  0  0  0
  185.5810  178.3920  140.5600 C   0  0  0  0  0  0  0  0  0  0  0  0
  186.0310  178.6030  139.2540 C   0  0  0  0  0  3  0  0  0  0  0  0
  184.4630  178.2140  144.6860 C   0  0  0  0  0  2  0  0  0  0  0  0
  182.1250  178.8940  144.0810 C   0  0  0  0  0  0  0  0  0  0  0  0
  180.8200  179.1640  144.5070 C   0  0  0  0  0  3  0  0  0  0  0  0
  191.2690  176.6140  146.8240 C   0  0  0  0  0  0  0  0  0  0  0  0
  190.7580  176.6950  144.5100 C   0  0  0  0  0  3  0  0  0  0  0  0
  187.6680  177.6470  146.5300 C   0  0  0  0  0  1  0  0  0  0  0  0
  192.2550  176.3590  147.9050 C   0  0  0  0  0  1  0  0  0  0  0  0
  191.6340  176.4700  145.5240 N   0  0  0  0  0  0  0  0  0  0  0  0
  189.0450  177.2380  146.1240 C   0  0  0  0  0  0  0  0  0  0  0  0
  189.4360  177.0850  144.7720 C   0  0  0  0  0  0  0  0  0  0  0  0
  189.9680  176.9990  147.1440 C   0  0  0  0  0  3  0  0  0  0  0  0
  1 17  1  0  0  0  0
  2  7  1  6  0  0  0
  2  3  1  0  0  0  0
  2 15  1  0  0  0  0
  3 22  1  0  0  0  0
  4  5  2  0  0  0  0
  5 16  1  0  0  0  0
  5 30  1  0  0  0  0
  6 18  2  0  0  0  0
  8  1  2  0  0  0  0
  8 20  1  0  0  0  0
  9  6  1  0  0  0  0
  9  3  2  0  0  0  0
 10 15  1  0  0  0  0
 10 16  1  0  0  0  0
 11  1  1  0  0  0  0
 13  6  1  0  0  0  0
 14 10  2  0  0  0  0
 15 21  1  1  0  0  0
 17  7  2  0  0  0  0
 18 23  1  0  0  0  0
 19  7  1  0  0  0  0
 19 14  1  0  0  0  0
 20 19  2  0  0  0  0
 21 12  1  0  0  0  0
 22 23  2  0  0  0  0
 22 12  1  0  0  0  0
 24 31  1  0  0  0  0
 24 27  1  0  0  0  0
 25 30  2  0  0  0  0
 25 28  1  0  0  0  0
 28 24  2  0  0  0  0
 29 26  1  0  0  0  0
 29 31  2  0  0  0  0
 30 29  1  0  0  0  0
M  END
>  <MODEL>
9

>  <REMARK>
 VINA RESULT:      -8.7      4.793      7.398
  Name = 
  1 active torsions:
  status: ('A' for Active; 'I' for Inactive)
    1  A    between atoms: C_9  and  C_22
                            x       y       z     vdW  Elec       q    Type
                         _______ _______ _______ _____ _____    ______ ____

>  <TORSDO>
F 1

$$$$
