=
 OpenBabel11052414383D

 32 37  0  0  1  0  0  0  0  0999 V2000
  186.4610  178.3900  143.5210 C   0  0  0  0  0  0  0  0  0  0  0  0
  186.5270  178.8600  141.2020 N   0  0  0  0  0  0  0  0  0  0  0  0
  185.6180  178.0390  144.7270 C   0  0  0  0  0  2  0  0  0  0  0  0
  185.8500  178.8180  142.4180 C   0  0  0  0  0  0  0  0  0  0  0  0
  185.5340  178.8300  140.2040 C   0  0  0  0  0  0  0  0  0  0  0  0
  189.8310  177.4970  137.9120 C   0  0  0  0  0  3  0  0  0  0  0  0
  187.8110  178.2970  141.0160 C   0  0  0  0  0  0  0  0  0  0  0  0
  187.5390  177.9850  137.2790 C   0  0  0  0  0  3  0  0  0  0  0  0
  187.2080  178.2090  138.6180 C   0  0  0  0  0  0  0  0  0  0  0  0
  184.4420  178.9040  142.2610 N   0  0  0  0  0  0  0  0  0  0  0  0
  185.8370  178.5090  138.9790 N   0  0  0  0  0  0  0  0  0  0  0  0
  183.5370  178.5290  143.3460 C   0  0  0  0  0  2  0  0  0  0  0  0
  188.4840  177.8940  142.1050 C   0  0  0  0  0  3  0  0  0  0  0  0
  187.8660  178.0200  143.4150 N   0  0  0  0  0  0  0  0  0  0  0  0
  188.2120  178.0660  139.6170 C   0  0  0  0  0  0  0  0  0  0  0  0
  184.1470  178.8880  140.8130 C   0  0  2  0  0  3  0  0  0  0  0  0
  184.2400  178.7310  144.6980 C   0  0  0  0  0  2  0  0  0  0  0  0
  188.8470  177.6360  136.9270 C   0  0  0  0  0  3  0  0  0  0  0  0
  189.5160  177.7080  139.2570 C   0  0  0  0  0  3  0  0  0  0  0  0
  190.6570  176.7970  145.6200 C   0  0  0  0  0  0  0  0  0  0  0  0
  191.9720  176.3540  145.5360 O   0  0  0  0  0  1  0  0  0  0  0  0
  188.0090  177.6680  145.8340 C   0  0  0  0  0  3  0  0  0  0  0  0
  190.0370  176.8610  146.8700 C   0  0  0  0  0  3  0  0  0  0  0  0
  188.6180  177.6220  144.5730 C   0  0  0  0  0  0  0  0  0  0  0  0
  189.9520  177.1720  144.4640 C   0  0  0  0  0  0  0  0  0  0  0  0
  190.6110  177.0440  143.1270 C   0  0  0  0  0  1  0  0  0  0  0  0
  188.7110  177.2920  146.9810 C   0  0  0  0  0  0  0  0  0  0  0  0
  188.2580  178.3120  149.0780 O   0  0  0  0  0  0  0  0  0  0  0  0
  188.0440  177.3590  148.2830 C   0  0  0  0  0  3  0  0  0  0  0  0
  183.3580  177.6340  140.4530 C   0  0  0  0  0  2  0  0  0  0  0  0
  181.9700  177.9760  140.1950 N   0  0  0  0  0  2  0  0  0  0  0  0
  181.9820  179.1910  139.4030 C   0  0  0  0  0  1  0  0  0  0  0  0
  1  3  1  0  0  0  0
  2  4  1  0  0  0  0
  4  1  2  0  0  0  0
  5 16  1  0  0  0  0
  5  2  1  0  0  0  0
  6 19  1  0  0  0  0
  7  2  1  0  0  0  0
  7 13  2  0  0  0  0
  8  9  2  0  0  0  0
  9 11  1  0  0  0  0
  9 15  1  0  0  0  0
 10  4  1  0  0  0  0
 10 12  1  0  0  0  0
 11  5  2  0  0  0  0
 12 17  1  0  0  0  0
 13 14  1  0  0  0  0
 14  1  1  0  0  0  0
 14 24  1  0  0  0  0
 15  7  1  0  0  0  0
 16 30  1  1  0  0  0
 16 10  1  0  0  0  0
 17  3  1  0  0  0  0
 18  8  1  0  0  0  0
 18  6  2  0  0  0  0
 19 15  2  0  0  0  0
 20 23  1  0  0  0  0
 21 20  1  0  0  0  0
 22 27  1  0  0  0  0
 23 27  2  0  0  0  0
 24 22  2  0  0  0  0
 25 24  1  0  0  0  0
 25 20  2  0  0  0  0
 26 25  1  0  0  0  0
 27 29  1  0  0  0  0
 29 28  2  0  0  0  0
 31 30  1  0  0  0  0
 32 31  1  0  0  0  0
M  END
>  <MODEL>
1

>  <REMARK>
 VINA RESULT:     -10.2      0.000      0.000
  Name = 
  4 active torsions:
  status: ('A' for Active; 'I' for Inactive)
    1  A    between atoms: N_13  and  C_18
    2  A    between atoms: C_15  and  C_26
    3  A    between atoms: C_18  and  C_29
    4  A    between atoms: C_20  and  N_27
                            x       y       z     vdW  Elec       q    Type
                         _______ _______ _______ _____ _____    ______ ____

>  <TORSDO>
F 4

$$$$
=
 OpenBabel11052414383D

 32 37  0  0  1  0  0  0  0  0999 V2000
  185.5450  178.6090  139.5470 C   0  0  0  0  0  0  0  0  0  0  0  0
  186.4690  178.8550  141.7120 N   0  0  0  0  0  0  0  0  0  0  0  0
  185.7170  178.0800  138.1410 C   0  0  0  0  0  2  0  0  0  0  0  0
  186.6130  178.6740  140.3390 C   0  0  0  0  0  0  0  0  0  0  0  0
  187.6520  178.3630  142.2950 C   0  0  0  0  0  0  0  0  0  0  0  0
  184.2520  178.5340  146.0230 C   0  0  0  0  0  3  0  0  0  0  0  0
  185.2170  178.8000  142.3690 C   0  0  0  0  0  0  0  0  0  0  0  0
  186.6210  178.0670  145.7790 C   0  0  0  0  0  3  0  0  0  0  0  0
  186.5280  178.2720  144.4000 C   0  0  0  0  0  0  0  0  0  0  0  0
  187.9070  178.2110  139.9840 N   0  0  0  0  0  0  0  0  0  0  0  0
  187.6930  178.0690  143.5630 N   0  0  0  0  0  0  0  0  0  0  0  0
  188.1640  177.6250  138.6690 C   0  0  0  0  0  2  0  0  0  0  0  0
  184.1100  178.7800  141.6100 C   0  0  0  0  0  3  0  0  0  0  0  0
  184.2350  178.7850  140.1610 N   0  0  0  0  0  0  0  0  0  0  0  0
  185.2670  178.6090  143.8290 C   0  0  0  0  0  0  0  0  0  0  0  0
  188.6530  177.9520  141.2330 C   0  0  2  0  0  3  0  0  0  0  0  0
  187.1720  178.1990  137.6450 C   0  0  0  0  0  2  0  0  0  0  0  0
  185.4880  178.2030  146.5880 C   0  0  0  0  0  3  0  0  0  0  0  0
  184.1380  178.7340  144.6440 C   0  0  0  0  0  3  0  0  0  0  0  0
  181.1330  177.6890  138.3390 C   0  0  0  0  0  0  0  0  0  0  0  0
  180.3900  176.5420  138.0840 O   0  0  0  0  0  1  0  0  0  0  0  0
  182.6040  180.0190  138.8160 C   0  0  0  0  0  3  0  0  0  0  0  0
  180.7080  178.9090  137.8090 C   0  0  0  0  0  3  0  0  0  0  0  0
  183.0390  178.8060  139.3660 C   0  0  0  0  0  0  0  0  0  0  0  0
  182.3020  177.6270  139.1170 C   0  0  0  0  0  0  0  0  0  0  0  0
  182.7740  176.3040  139.6300 C   0  0  0  0  0  1  0  0  0  0  0  0
  181.4430  180.0760  138.0410 C   0  0  0  0  0  0  0  0  0  0  0  0
  181.4260  182.4510  137.9720 O   0  0  0  0  0  0  0  0  0  0  0  0
  181.0160  181.3630  137.4870 C   0  0  0  0  0  3  0  0  0  0  0  0
  188.9740  176.4670  141.3530 C   0  0  0  0  0  2  0  0  0  0  0  0
  190.3880  176.2840  141.6290 N   0  0  0  0  0  2  0  0  0  0  0  0
  190.4940  175.8970  143.0230 C   0  0  0  0  0  1  0  0  0  0  0  0
  1 14  1  0  0  0  0
  1  4  2  0  0  0  0
  2  5  1  0  0  0  0
  2  7  1  0  0  0  0
  3  1  1  0  0  0  0
  4  2  1  0  0  0  0
  5 11  2  0  0  0  0
  6 18  1  0  0  0  0
  7 15  1  0  0  0  0
  8 18  2  0  0  0  0
  9  8  1  0  0  0  0
 10  4  1  0  0  0  0
 10 16  1  0  0  0  0
 11  9  1  0  0  0  0
 12 10  1  0  0  0  0
 13  7  2  0  0  0  0
 14 13  1  0  0  0  0
 15  9  2  0  0  0  0
 15 19  1  0  0  0  0
 16 30  1  1  0  0  0
 16  5  1  0  0  0  0
 17  3  1  0  0  0  0
 17 12  1  0  0  0  0
 19  6  2  0  0  0  0
 20 25  1  0  0  0  0
 21 20  1  0  0  0  0
 22 24  1  0  0  0  0
 23 27  1  0  0  0  0
 23 20  2  0  0  0  0
 24 14  1  0  0  0  0
 25 24  2  0  0  0  0
 25 26  1  0  0  0  0
 27 22  2  0  0  0  0
 29 28  2  0  0  0  0
 29 27  1  0  0  0  0
 30 31  1  0  0  0  0
 31 32  1  0  0  0  0
M  END
>  <MODEL>
2

>  <REMARK>
 VINA RESULT:      -9.9      3.799      8.325
  Name = 
  4 active torsions:
  status: ('A' for Active; 'I' for Inactive)
    1  A    between atoms: N_13  and  C_18
    2  A    between atoms: C_15  and  C_26
    3  A    between atoms: C_18  and  C_29
    4  A    between atoms: C_20  and  N_27
                            x       y       z     vdW  Elec       q    Type
                         _______ _______ _______ _____ _____    ______ ____

>  <TORSDO>
F 4

$$$$
=
 OpenBabel11052414383D

 32 37  0  0  1  0  0  0  0  0999 V2000
  186.2380  178.3760  141.9410 C   0  0  0  0  0  0  0  0  0  0  0  0
  187.4030  178.4290  139.8810 N   0  0  0  0  0  0  0  0  0  0  0  0
  184.9090  178.2320  142.6500 C   0  0  0  0  0  2  0  0  0  0  0  0
  186.2390  178.5940  140.6270 C   0  0  0  0  0  0  0  0  0  0  0  0
  186.9860  178.2080  138.5550 C   0  0  0  0  0  0  0  0  0  0  0  0
  191.7510  176.5550  138.7940 C   0  0  0  0  0  3  0  0  0  0  0  0
  188.5840  177.8610  140.4130 C   0  0  0  0  0  0  0  0  0  0  0  0
  190.0540  176.8890  137.0920 C   0  0  0  0  0  3  0  0  0  0  0  0
  189.1570  177.3410  138.0630 C   0  0  0  0  0  0  0  0  0  0  0  0
  185.0740  178.6300  139.8170 N   0  0  0  0  0  0  0  0  0  0  0  0
  187.7990  177.6810  137.6850 N   0  0  0  0  0  0  0  0  0  0  0  0
  183.7460  178.4390  140.3970 C   0  0  0  0  0  2  0  0  0  0  0  0
  188.6460  177.6670  141.7400 C   0  0  0  0  0  3  0  0  0  0  0  0
  187.5020  178.0140  142.5680 N   0  0  0  0  0  0  0  0  0  0  0  0
  189.5710  177.3930  139.4250 C   0  0  0  0  0  0  0  0  0  0  0  0
  185.4830  178.3530  138.4250 C   0  0  2  0  0  3  0  0  0  0  0  0
  183.7530  178.8870  141.8670 C   0  0  0  0  0  2  0  0  0  0  0  0
  191.3480  176.5030  137.4560 C   0  0  0  0  0  3  0  0  0  0  0  0
  190.8640  176.9960  139.7810 C   0  0  0  0  0  3  0  0  0  0  0  0
  188.8410  177.1870  145.9840 C   0  0  0  0  0  0  0  0  0  0  0  0
  189.9910  176.7000  146.5930 O   0  0  0  0  0  1  0  0  0  0  0  0
  186.5020  178.1560  144.7980 C   0  0  0  0  0  3  0  0  0  0  0  0
  187.7390  177.5200  146.7740 C   0  0  0  0  0  3  0  0  0  0  0  0
  187.6020  177.8380  143.9900 C   0  0  0  0  0  0  0  0  0  0  0  0
  188.7790  177.3380  144.5880 C   0  0  0  0  0  0  0  0  0  0  0  0
  189.9480  176.9240  143.7510 C   0  0  0  0  0  1  0  0  0  0  0  0
  186.5650  178.0010  146.1850 C   0  0  0  0  0  0  0  0  0  0  0  0
  184.3330  178.7640  146.4680 O   0  0  0  0  0  0  0  0  0  0  0  0
  185.3980  178.3500  146.9980 C   0  0  0  0  0  3  0  0  0  0  0  0
  184.8650  177.0430  137.9470 C   0  0  0  0  0  2  0  0  0  0  0  0
  184.0300  177.2830  136.7820 N   0  0  0  0  0  2  0  0  0  0  0  0
  184.8250  176.9320  135.6210 C   0  0  0  0  0  1  0  0  0  0  0  0
  1 14  1  0  0  0  0
  1  3  1  0  0  0  0
  2  7  1  0  0  0  0
  2  4  1  0  0  0  0
  4  1  2  0  0  0  0
  5  2  1  0  0  0  0
  6 19  1  0  0  0  0
  7 13  2  0  0  0  0
  8 18  1  0  0  0  0
  8  9  2  0  0  0  0
  9 15  1  0  0  0  0
 10 12  1  0  0  0  0
 10  4  1  0  0  0  0
 11  9  1  0  0  0  0
 11  5  2  0  0  0  0
 12 17  1  0  0  0  0
 13 14  1  0  0  0  0
 14 24  1  0  0  0  0
 15 19  2  0  0  0  0
 15  7  1  0  0  0  0
 16 30  1  1  0  0  0
 16  5  1  0  0  0  0
 16 10  1  0  0  0  0
 17  3  1  0  0  0  0
 18  6  2  0  0  0  0
 20 21  1  0  0  0  0
 20 23  1  0  0  0  0
 22 27  1  0  0  0  0
 24 25  1  0  0  0  0
 24 22  2  0  0  0  0
 25 20  2  0  0  0  0
 26 25  1  0  0  0  0
 27 23  2  0  0  0  0
 27 29  1  0  0  0  0
 28 29  2  0  0  0  0
 31 30  1  0  0  0  0
 32 31  1  0  0  0  0
M  END
>  <MODEL>
3

>  <REMARK>
 VINA RESULT:      -9.6      1.775      2.508
  Name = 
  4 active torsions:
  status: ('A' for Active; 'I' for Inactive)
    1  A    between atoms: N_13  and  C_18
    2  A    between atoms: C_15  and  C_26
    3  A    between atoms: C_18  and  C_29
    4  A    between atoms: C_20  and  N_27
                            x       y       z     vdW  Elec       q    Type
                         _______ _______ _______ _____ _____    ______ ____

>  <TORSDO>
F 4

$$$$
=
 OpenBabel11052414383D

 32 37  0  0  1  0  0  0  0  0999 V2000
  185.4080  178.3410  139.3890 C   0  0  0  0  0  0  0  0  0  0  0  0
  186.8180  178.7010  141.2550 N   0  0  0  0  0  0  0  0  0  0  0  0
  185.2850  177.8770  137.9540 C   0  0  0  0  0  2  0  0  0  0  0  0
  186.6220  178.5740  139.8820 C   0  0  0  0  0  0  0  0  0  0  0  0
  188.1760  178.4080  141.4820 C   0  0  0  0  0  0  0  0  0  0  0  0
  185.8980  177.9240  145.9610 C   0  0  0  0  0  3  0  0  0  0  0  0
  185.8100  178.4200  142.2060 C   0  0  0  0  0  0  0  0  0  0  0  0
  188.1610  177.8740  145.0880 C   0  0  0  0  0  3  0  0  0  0  0  0
  187.6760  178.0860  143.7950 C   0  0  0  0  0  0  0  0  0  0  0  0
  187.8330  178.3460  139.1780 N   0  0  0  0  0  0  0  0  0  0  0  0
  188.5970  178.1010  142.6750 N   0  0  0  0  0  0  0  0  0  0  0  0
  187.8250  177.8370  137.8070 C   0  0  0  0  0  2  0  0  0  0  0  0
  184.5590  178.2250  141.7570 C   0  0  0  0  0  3  0  0  0  0  0  0
  184.2960  178.2790  140.3280 N   0  0  0  0  0  0  0  0  0  0  0  0
  186.2730  178.2130  143.5890 C   0  0  0  0  0  0  0  0  0  0  0  0
  188.9140  178.1950  140.1740 C   0  0  2  0  0  3  0  0  0  0  0  0
  186.5200  178.2520  137.1100 C   0  0  0  0  0  2  0  0  0  0  0  0
  187.2760  177.7990  146.1670 C   0  0  0  0  0  3  0  0  0  0  0  0
  185.3940  178.1280  144.6730 C   0  0  0  0  0  3  0  0  0  0  0  0
  180.9250  178.9580  138.8050 C   0  0  0  0  0  0  0  0  0  0  0  0
  180.2170  179.9810  138.1850 O   0  0  0  0  0  1  0  0  0  0  0  0
  182.3060  176.8770  140.0600 C   0  0  0  0  0  3  0  0  0  0  0  0
  180.3090  177.7190  138.9930 C   0  0  0  0  0  3  0  0  0  0  0  0
  182.9450  178.1100  139.8700 C   0  0  0  0  0  0  0  0  0  0  0  0
  182.2430  179.1650  139.2460 C   0  0  0  0  0  0  0  0  0  0  0  0
  182.8680  180.5140  139.0880 C   0  0  0  0  0  1  0  0  0  0  0  0
  180.9950  176.6760  139.6240 C   0  0  0  0  0  0  0  0  0  0  0  0
  179.2830  175.2660  140.4760 O   0  0  0  0  0  0  0  0  0  0  0  0
  180.3630  175.3720  139.8350 C   0  0  0  0  0  3  0  0  0  0  0  0
  189.4890  176.7840  140.1150 C   0  0  0  0  0  2  0  0  0  0  0  0
  190.8440  176.8210  139.5930 N   0  0  0  0  0  2  0  0  0  0  0  0
  191.6530  177.5030  140.5850 C   0  0  0  0  0  1  0  0  0  0  0  0
  1  4  2  0  0  0  0
  1 14  1  0  0  0  0
  2  5  1  0  0  0  0
  2  7  1  0  0  0  0
  3  1  1  0  0  0  0
  4  2  1  0  0  0  0
  5 11  2  0  0  0  0
  6 18  1  0  0  0  0
  7 15  1  0  0  0  0
  8 18  2  0  0  0  0
  9  8  1  0  0  0  0
 10  4  1  0  0  0  0
 10 16  1  0  0  0  0
 11  9  1  0  0  0  0
 12 10  1  0  0  0  0
 13  7  2  0  0  0  0
 14 13  1  0  0  0  0
 15  9  2  0  0  0  0
 15 19  1  0  0  0  0
 16 30  1  1  0  0  0
 16  5  1  0  0  0  0
 17 12  1  0  0  0  0
 17  3  1  0  0  0  0
 19  6  2  0  0  0  0
 20 23  2  0  0  0  0
 20 25  1  0  0  0  0
 21 20  1  0  0  0  0
 23 27  1  0  0  0  0
 24 22  1  0  0  0  0
 24 14  1  0  0  0  0
 25 24  2  0  0  0  0
 26 25  1  0  0  0  0
 27 29  1  0  0  0  0
 27 22  2  0  0  0  0
 29 28  2  0  0  0  0
 31 30  1  0  0  0  0
 31 32  1  0  0  0  0
M  END
>  <MODEL>
4

>  <REMARK>
 VINA RESULT:      -9.4      3.714      8.029
  Name = 
  4 active torsions:
  status: ('A' for Active; 'I' for Inactive)
    1  A    between atoms: N_13  and  C_18
    2  A    between atoms: C_15  and  C_26
    3  A    between atoms: C_18  and  C_29
    4  A    between atoms: C_20  and  N_27
                            x       y       z     vdW  Elec       q    Type
                         _______ _______ _______ _____ _____    ______ ____

>  <TORSDO>
F 4

$$$$
=
 OpenBabel11052414383D

 32 37  0  0  1  0  0  0  0  0999 V2000
  185.0000  178.4760  139.7640 C   0  0  0  0  0  0  0  0  0  0  0  0
  186.6600  178.6730  141.4400 N   0  0  0  0  0  0  0  0  0  0  0  0
  184.6680  178.0980  138.3370 C   0  0  0  0  0  2  0  0  0  0  0  0
  186.2780  178.6310  140.1010 C   0  0  0  0  0  0  0  0  0  0  0  0
  188.0210  178.3140  141.4670 C   0  0  0  0  0  0  0  0  0  0  0  0
  186.3330  177.6690  146.1820 C   0  0  0  0  0  3  0  0  0  0  0  0
  185.7740  178.3790  142.5020 C   0  0  0  0  0  0  0  0  0  0  0  0
  188.4570  177.5780  145.0110 C   0  0  0  0  0  3  0  0  0  0  0  0
  187.8160  177.8820  143.8070 C   0  0  0  0  0  0  0  0  0  0  0  0
  187.3740  178.3950  139.2300 N   0  0  0  0  0  0  0  0  0  0  0  0
  188.5810  177.9230  142.5760 N   0  0  0  0  0  0  0  0  0  0  0  0
  187.1610  177.9660  137.8490 C   0  0  0  0  0  2  0  0  0  0  0  0
  184.4670  178.2600  142.2160 C   0  0  0  0  0  3  0  0  0  0  0  0
  184.0210  178.4050  140.8400 N   0  0  0  0  0  0  0  0  0  0  0  0
  186.4050  178.0760  143.7980 C   0  0  0  0  0  0  0  0  0  0  0  0
  188.5690  178.1450  140.0630 C   0  0  2  0  0  3  0  0  0  0  0  0
  185.7960  178.4710  137.3550 C   0  0  0  0  0  2  0  0  0  0  0  0
  187.7190  177.4770  146.1940 C   0  0  0  0  0  3  0  0  0  0  0  0
  185.6740  177.9650  144.9850 C   0  0  0  0  0  3  0  0  0  0  0  0
  180.6510  177.0670  139.8390 C   0  0  0  0  0  0  0  0  0  0  0  0
  180.0560  175.8950  139.3860 O   0  0  0  0  0  1  0  0  0  0  0  0
  181.8080  179.4490  140.7350 C   0  0  0  0  0  3  0  0  0  0  0  0
  179.8610  178.2030  140.0320 C   0  0  0  0  0  3  0  0  0  0  0  0
  182.6140  178.3160  140.5590 C   0  0  0  0  0  0  0  0  0  0  0  0
  182.0320  177.1160  140.0960 C   0  0  0  0  0  0  0  0  0  0  0  0
  182.8720  175.9080  139.8310 C   0  0  0  0  0  1  0  0  0  0  0  0
  180.4370  179.3980  140.4760 C   0  0  0  0  0  0  0  0  0  0  0  0
  179.6790  181.2520  141.7530 O   0  0  0  0  0  0  0  0  0  0  0  0
  179.6250  180.6000  140.6770 C   0  0  0  0  0  3  0  0  0  0  0  0
  189.0640  176.7180  139.8550 C   0  0  0  0  0  2  0  0  0  0  0  0
  190.5110  176.7060  139.7380 N   0  0  0  0  0  2  0  0  0  0  0  0
  190.8140  176.7200  138.3200 C   0  0  0  0  0  1  0  0  0  0  0  0
  1  4  2  0  0  0  0
  1 14  1  0  0  0  0
  2  5  1  0  0  0  0
  2  7  1  0  0  0  0
  3  1  1  0  0  0  0
  4  2  1  0  0  0  0
  5 11  2  0  0  0  0
  6 18  1  0  0  0  0
  7 15  1  0  0  0  0
  8 18  2  0  0  0  0
  9  8  1  0  0  0  0
 10 16  1  0  0  0  0
 10  4  1  0  0  0  0
 11  9  1  0  0  0  0
 12 10  1  0  0  0  0
 13  7  2  0  0  0  0
 14 13  1  0  0  0  0
 15  9  2  0  0  0  0
 15 19  1  0  0  0  0
 16 30  1  1  0  0  0
 16  5  1  0  0  0  0
 17 12  1  0  0  0  0
 17  3  1  0  0  0  0
 19  6  2  0  0  0  0
 20 23  2  0  0  0  0
 20 25  1  0  0  0  0
 21 20  1  0  0  0  0
 23 27  1  0  0  0  0
 24 22  1  0  0  0  0
 24 14  1  0  0  0  0
 25 24  2  0  0  0  0
 26 25  1  0  0  0  0
 27 29  1  0  0  0  0
 27 22  2  0  0  0  0
 29 28  2  0  0  0  0
 31 30  1  0  0  0  0
 32 31  1  0  0  0  0
M  END
>  <MODEL>
5

>  <REMARK>
 VINA RESULT:      -9.1      3.473      7.754
  Name = 
  4 active torsions:
  status: ('A' for Active; 'I' for Inactive)
    1  A    between atoms: N_13  and  C_18
    2  A    between atoms: C_15  and  C_26
    3  A    between atoms: C_18  and  C_29
    4  A    between atoms: C_20  and  N_27
                            x       y       z     vdW  Elec       q    Type
                         _______ _______ _______ _____ _____    ______ ____

>  <TORSDO>
F 4

$$$$
=
 OpenBabel11052414383D

 32 37  0  0  1  0  0  0  0  0999 V2000
  185.3690  178.5380  140.4780 C   0  0  0  0  0  0  0  0  0  0  0  0
  187.2890  178.5890  141.8610 N   0  0  0  0  0  0  0  0  0  0  0  0
  184.7890  178.2410  139.1130 C   0  0  0  0  0  2  0  0  0  0  0  0
  186.6910  178.6260  140.6040 C   0  0  0  0  0  0  0  0  0  0  0  0
  188.6180  178.1750  141.6460 C   0  0  0  0  0  0  0  0  0  0  0  0
  187.7010  177.3760  146.5470 C   0  0  0  0  0  3  0  0  0  0  0  0
  186.5770  178.2810  143.0430 C   0  0  0  0  0  0  0  0  0  0  0  0
  189.5960  177.2560  145.0360 C   0  0  0  0  0  3  0  0  0  0  0  0
  188.7810  177.6420  143.9690 C   0  0  0  0  0  0  0  0  0  0  0  0
  187.6160  178.3880  139.5540 N   0  0  0  0  0  0  0  0  0  0  0  0
  189.3330  177.7110  142.6310 N   0  0  0  0  0  0  0  0  0  0  0  0
  187.1590  178.0330  138.2110 C   0  0  0  0  0  2  0  0  0  0  0  0
  185.2370  178.2280  142.9740 C   0  0  0  0  0  3  0  0  0  0  0  0
  184.5770  178.4550  141.6980 N   0  0  0  0  0  0  0  0  0  0  0  0
  187.3990  177.8920  144.2030 C   0  0  0  0  0  0  0  0  0  0  0  0
  188.9180  178.0520  140.1660 C   0  0  2  0  0  3  0  0  0  0  0  0
  185.7560  178.6150  137.9720 C   0  0  0  0  0  2  0  0  0  0  0  0
  189.0590  177.1290  146.3210 C   0  0  0  0  0  3  0  0  0  0  0  0
  186.8680  177.7540  145.4900 C   0  0  0  0  0  3  0  0  0  0  0  0
  180.9630  178.8960  142.6400 C   0  0  0  0  0  0  0  0  0  0  0  0
  180.1790  179.3780  143.6820 O   0  0  0  0  0  1  0  0  0  0  0  0
  182.5000  177.9030  140.5260 C   0  0  0  0  0  3  0  0  0  0  0  0
  180.3410  178.3730  141.5040 C   0  0  0  0  0  3  0  0  0  0  0  0
  183.1420  178.4350  141.6530 C   0  0  0  0  0  0  0  0  0  0  0  0
  182.3650  178.9270  142.7250 C   0  0  0  0  0  0  0  0  0  0  0  0
  183.0150  179.4380  143.9710 C   0  0  0  0  0  1  0  0  0  0  0  0
  181.1060  177.8710  140.4470 C   0  0  0  0  0  0  0  0  0  0  0  0
  180.8410  176.2090  138.7690 O   0  0  0  0  0  0  0  0  0  0  0  0
  180.4700  177.3130  139.2510 C   0  0  0  0  0  3  0  0  0  0  0  0
  189.3050  176.6180  139.8210 C   0  0  0  0  0  2  0  0  0  0  0  0
  190.7310  176.5370  139.5590 N   0  0  0  0  0  2  0  0  0  0  0  0
  190.9060  176.7580  138.1370 C   0  0  0  0  0  1  0  0  0  0  0  0
  1  4  2  0  0  0  0
  1 14  1  0  0  0  0
  2  7  1  0  0  0  0
  3  1  1  0  0  0  0
  4  2  1  0  0  0  0
  5  2  1  0  0  0  0
  5 11  2  0  0  0  0
  7 15  1  0  0  0  0
  8 18  2  0  0  0  0
  9 15  2  0  0  0  0
  9  8  1  0  0  0  0
 10 16  1  0  0  0  0
 10  4  1  0  0  0  0
 11  9  1  0  0  0  0
 12 10  1  0  0  0  0
 13  7  2  0  0  0  0
 14 13  1  0  0  0  0
 15 19  1  0  0  0  0
 16 30  1  1  0  0  0
 16  5  1  0  0  0  0
 17 12  1  0  0  0  0
 17  3  1  0  0  0  0
 18  6  1  0  0  0  0
 19  6  2  0  0  0  0
 20 25  1  0  0  0  0
 20 21  1  0  0  0  0
 22 24  1  0  0  0  0
 23 20  2  0  0  0  0
 24 14  1  0  0  0  0
 24 25  2  0  0  0  0
 25 26  1  0  0  0  0
 27 22  2  0  0  0  0
 27 23  1  0  0  0  0
 28 29  2  0  0  0  0
 29 27  1  0  0  0  0
 31 30  1  0  0  0  0
 32 31  1  0  0  0  0
M  END
>  <MODEL>
6

>  <REMARK>
 VINA RESULT:      -8.9      3.272      7.491
  Name = 
  4 active torsions:
  status: ('A' for Active; 'I' for Inactive)
    1  A    between atoms: N_13  and  C_18
    2  A    between atoms: C_15  and  C_26
    3  A    between atoms: C_18  and  C_29
    4  A    between atoms: C_20  and  N_27
                            x       y       z     vdW  Elec       q    Type
                         _______ _______ _______ _____ _____    ______ ____

>  <TORSDO>
F 4

$$$$
=
 OpenBabel11052414383D

 32 37  0  0  1  0  0  0  0  0999 V2000
  187.9080  177.6090  141.1880 C   0  0  0  0  0  0  0  0  0  0  0  0
  187.3270  177.3080  143.4630 N   0  0  0  0  0  0  0  0  0  0  0  0
  187.5720  178.2530  139.8610 C   0  0  0  0  0  2  0  0  0  0  0  0
  186.9830  177.6010  142.1450 C   0  0  0  0  0  0  0  0  0  0  0  0
  186.3190  177.8790  144.2630 C   0  0  0  0  0  0  0  0  0  0  0  0
  190.2390  177.0850  147.3450 C   0  0  0  0  0  3  0  0  0  0  0  0
  188.6670  177.1840  143.8990 C   0  0  0  0  0  0  0  0  0  0  0  0
  187.9320  177.8150  147.5320 C   0  0  0  0  0  3  0  0  0  0  0  0
  187.7740  177.7000  146.1480 C   0  0  0  0  0  0  0  0  0  0  0  0
  185.7110  178.2210  142.0400 N   0  0  0  0  0  0  0  0  0  0  0  0
  186.5200  178.0850  145.5330 N   0  0  0  0  0  0  0  0  0  0  0  0
  185.3130  178.9240  140.8210 C   0  0  0  0  0  2  0  0  0  0  0  0
  189.6310  177.1410  142.9650 C   0  0  0  0  0  3  0  0  0  0  0  0
  189.2710  177.2530  141.5610 N   0  0  0  0  0  0  0  0  0  0  0  0
  188.8770  177.2740  145.3540 C   0  0  0  0  0  0  0  0  0  0  0  0
  185.2130  178.4670  143.4090 C   0  0  2  0  0  3  0  0  0  0  0  0
  186.0510  178.3230  139.6140 C   0  0  0  0  0  2  0  0  0  0  0  0
  189.1570  177.5030  148.1280 C   0  0  0  0  0  3  0  0  0  0  0  0
  190.1020  176.9730  145.9590 C   0  0  0  0  0  3  0  0  0  0  0  0
  192.6520  177.3060  139.9140 C   0  0  0  0  0  0  0  0  0  0  0  0
  193.9870  177.5420  140.2180 O   0  0  0  0  0  1  0  0  0  0  0  0
  189.9760  176.8380  139.2530 C   0  0  0  0  0  3  0  0  0  0  0  0
  192.3000  176.9690  138.6050 C   0  0  0  0  0  3  0  0  0  0  0  0
  190.3110  177.1630  140.5740 C   0  0  0  0  0  0  0  0  0  0  0  0
  191.6620  177.4110  140.9050 C   0  0  0  0  0  0  0  0  0  0  0  0
  192.0480  177.8280  142.2890 C   0  0  0  0  0  1  0  0  0  0  0  0
  190.9620  176.7380  138.2690 C   0  0  0  0  0  0  0  0  0  0  0  0
  189.5570  176.9000  136.3590 O   0  0  0  0  0  0  0  0  0  0  0  0
  190.5740  176.3890  136.9000 C   0  0  0  0  0  3  0  0  0  0  0  0
  185.0910  179.9660  143.6610 C   0  0  0  0  0  2  0  0  0  0  0  0
  183.8410  180.2560  144.3430 N   0  0  0  0  0  2  0  0  0  0  0  0
  182.9510  179.1430  144.0710 C   0  0  0  0  0  1  0  0  0  0  0  0
  1 14  1  0  0  0  0
  1  4  2  0  0  0  0
  2  7  1  0  0  0  0
  2  5  1  0  0  0  0
  3  1  1  0  0  0  0
  4  2  1  0  0  0  0
  5 11  2  0  0  0  0
  6 18  1  0  0  0  0
  7 15  1  0  0  0  0
  8 18  2  0  0  0  0
  9  8  1  0  0  0  0
 10  4  1  0  0  0  0
 10 16  1  0  0  0  0
 11  9  1  0  0  0  0
 12 10  1  0  0  0  0
 13  7  2  0  0  0  0
 14 13  1  0  0  0  0
 15 19  1  0  0  0  0
 15  9  2  0  0  0  0
 16 30  1  1  0  0  0
 16  5  1  0  0  0  0
 17  3  1  0  0  0  0
 17 12  1  0  0  0  0
 19  6  2  0  0  0  0
 20 21  1  0  0  0  0
 20 25  1  0  0  0  0
 22 24  1  0  0  0  0
 23 20  2  0  0  0  0
 24 25  2  0  0  0  0
 24 14  1  0  0  0  0
 25 26  1  0  0  0  0
 27 23  1  0  0  0  0
 27 22  2  0  0  0  0
 28 29  2  0  0  0  0
 29 27  1  0  0  0  0
 30 31  1  0  0  0  0
 32 31  1  0  0  0  0
M  END
>  <MODEL>
7

>  <REMARK>
 VINA RESULT:      -8.9      2.676      6.409
  Name = 
  4 active torsions:
  status: ('A' for Active; 'I' for Inactive)
    1  A    between atoms: N_13  and  C_18
    2  A    between atoms: C_15  and  C_26
    3  A    between atoms: C_18  and  C_29
    4  A    between atoms: C_20  and  N_27
                            x       y       z     vdW  Elec       q    Type
                         _______ _______ _______ _____ _____    ______ ____

>  <TORSDO>
F 4

$$$$
=
 OpenBabel11052414383D

 32 37  0  0  1  0  0  0  0  0999 V2000
  185.1530  178.4470  140.2860 C   0  0  0  0  0  0  0  0  0  0  0  0
  187.4660  178.4100  139.7850 N   0  0  0  0  0  0  0  0  0  0  0  0
  183.7490  178.0940  139.8490 C   0  0  0  0  0  2  0  0  0  0  0  0
  186.1320  178.3990  139.3860 C   0  0  0  0  0  0  0  0  0  0  0  0
  188.1930  177.8340  138.7270 C   0  0  0  0  0  0  0  0  0  0  0  0
  191.2140  177.5870  142.7650 C   0  0  0  0  0  3  0  0  0  0  0  0
  187.8650  178.2910  141.1370 C   0  0  0  0  0  0  0  0  0  0  0  0
  191.3590  177.1220  140.3880 C   0  0  0  0  0  3  0  0  0  0  0  0
  190.0240  177.4980  140.2240 C   0  0  0  0  0  0  0  0  0  0  0  0
  185.9700  177.9670  138.0440 N   0  0  0  0  0  0  0  0  0  0  0  0
  189.4000  177.3840  138.9200 N   0  0  0  0  0  0  0  0  0  0  0  0
  184.6640  177.5450  137.5400 C   0  0  0  0  0  2  0  0  0  0  0  0
  186.9170  178.3800  142.0830 C   0  0  0  0  0  3  0  0  0  0  0  0
  185.5290  178.5630  141.6890 N   0  0  0  0  0  0  0  0  0  0  0  0
  189.2740  177.9200  141.3580 C   0  0  0  0  0  0  0  0  0  0  0  0
  187.2940  177.5450  137.5410 C   0  0  2  0  0  3  0  0  0  0  0  0
  183.5510  178.2540  138.3280 C   0  0  0  0  0  2  0  0  0  0  0  0
  191.9530  177.1720  141.6530 C   0  0  0  0  0  3  0  0  0  0  0  0
  189.8740  177.9580  142.6210 C   0  0  0  0  0  3  0  0  0  0  0  0
  183.8670  178.7280  145.0590 C   0  0  0  0  0  0  0  0  0  0  0  0
  184.1740  178.6220  146.4100 O   0  0  0  0  0  1  0  0  0  0  0  0
  183.2010  178.9350  142.3510 C   0  0  0  0  0  3  0  0  0  0  0  0
  182.5460  178.9760  144.6770 C   0  0  0  0  0  3  0  0  0  0  0  0
  184.5340  178.6980  142.7160 C   0  0  0  0  0  0  0  0  0  0  0  0
  184.8680  178.5830  144.0830 C   0  0  0  0  0  0  0  0  0  0  0  0
  186.2660  178.2620  144.5070 C   0  0  0  0  0  1  0  0  0  0  0  0
  182.2090  179.0750  143.3230 C   0  0  0  0  0  0  0  0  0  0  0  0
  180.3800  180.5010  142.8060 O   0  0  0  0  0  0  0  0  0  0  0  0
  180.8280  179.3280  142.9040 C   0  0  0  0  0  3  0  0  0  0  0  0
  187.2870  176.0520  137.2330 C   0  0  0  0  0  2  0  0  0  0  0  0
  188.0340  175.7910  136.0160 N   0  0  0  0  0  2  0  0  0  0  0  0
  188.4910  174.4170  136.0930 C   0  0  0  0  0  1  0  0  0  0  0  0
  1 14  1  0  0  0  0
  2  7  1  0  0  0  0
  3  1  1  0  0  0  0
  4  2  1  0  0  0  0
  4  1  2  0  0  0  0
  5 11  2  0  0  0  0
  5  2  1  0  0  0  0
  7 15  1  0  0  0  0
  7 13  2  0  0  0  0
  8 18  1  0  0  0  0
  9  8  2  0  0  0  0
  9 15  1  0  0  0  0
 10  4  1  0  0  0  0
 11  9  1  0  0  0  0
 12 10  1  0  0  0  0
 12 17  1  0  0  0  0
 14 13  1  0  0  0  0
 14 24  1  0  0  0  0
 15 19  2  0  0  0  0
 16 30  1  1  0  0  0
 16 10  1  0  0  0  0
 16  5  1  0  0  0  0
 17  3  1  0  0  0  0
 18  6  2  0  0  0  0
 19  6  1  0  0  0  0
 20 21  1  0  0  0  0
 22 24  2  0  0  0  0
 22 27  1  0  0  0  0
 23 20  1  0  0  0  0
 24 25  1  0  0  0  0
 25 26  1  0  0  0  0
 25 20  2  0  0  0  0
 27 23  2  0  0  0  0
 28 29  2  0  0  0  0
 29 27  1  0  0  0  0
 31 32  1  0  0  0  0
 31 30  1  0  0  0  0
M  END
>  <MODEL>
8

>  <REMARK>
 VINA RESULT:      -8.8      2.706      5.651
  Name = 
  4 active torsions:
  status: ('A' for Active; 'I' for Inactive)
    1  A    between atoms: N_13  and  C_18
    2  A    between atoms: C_15  and  C_26
    3  A    between atoms: C_18  and  C_29
    4  A    between atoms: C_20  and  N_27
                            x       y       z     vdW  Elec       q    Type
                         _______ _______ _______ _____ _____    ______ ____

>  <TORSDO>
F 4

$$$$
=
 OpenBabel11052414383D

 32 37  0  0  1  0  0  0  0  0999 V2000
  186.4090  178.4030  140.4120 C   0  0  0  0  0  0  0  0  0  0  0  0
  188.6590  178.1650  141.1040 N   0  0  0  0  0  0  0  0  0  0  0  0
  185.3860  178.2130  139.3140 C   0  0  0  0  0  2  0  0  0  0  0  0
  187.7000  178.3060  140.1050 C   0  0  0  0  0  0  0  0  0  0  0  0
  189.7790  177.5760  140.4870 C   0  0  0  0  0  0  0  0  0  0  0  0
  190.3860  176.8280  145.4440 C   0  0  0  0  0  3  0  0  0  0  0  0
  188.3300  177.9390  142.4610 C   0  0  0  0  0  0  0  0  0  0  0  0
  191.6600  176.4730  143.4090 C   0  0  0  0  0  3  0  0  0  0  0  0
  190.6060  176.9860  142.6490 C   0  0  0  0  0  0  0  0  0  0  0  0
  188.1970  177.9600  138.8210 N   0  0  0  0  0  0  0  0  0  0  0  0
  190.7030  177.0010  141.2030 N   0  0  0  0  0  0  0  0  0  0  0  0
  187.2890  177.6950  137.7060 C   0  0  0  0  0  2  0  0  0  0  0  0
  187.0450  178.0720  142.8260 C   0  0  0  0  0  3  0  0  0  0  0  0
  186.0480  178.4100  141.8230 N   0  0  0  0  0  0  0  0  0  0  0  0
  189.4200  177.4210  143.3060 C   0  0  0  0  0  0  0  0  0  0  0  0
  189.5680  177.4370  138.9920 C   0  0  2  0  0  3  0  0  0  0  0  0
  185.9770  178.4690  137.9130 C   0  0  0  0  0  2  0  0  0  0  0  0
  191.5520  176.4000  144.8020 C   0  0  0  0  0  3  0  0  0  0  0  0
  189.3170  177.3360  144.6990 C   0  0  0  0  0  3  0  0  0  0  0  0
  183.0100  178.9960  143.9630 C   0  0  0  0  0  0  0  0  0  0  0  0
  182.6630  179.2250  145.2890 O   0  0  0  0  0  1  0  0  0  0  0  0
  183.6620  178.5220  141.2860 C   0  0  0  0  0  3  0  0  0  0  0  0
  182.0050  178.9370  142.9950 C   0  0  0  0  0  3  0  0  0  0  0  0
  184.6850  178.5900  142.2410 C   0  0  0  0  0  0  0  0  0  0  0  0
  184.3550  178.8180  143.5950 C   0  0  0  0  0  0  0  0  0  0  0  0
  185.4140  178.8280  144.6510 C   0  0  0  0  0  1  0  0  0  0  0  0
  182.3260  178.6950  141.6550 C   0  0  0  0  0  0  0  0  0  0  0  0
  180.1720  179.1940  140.7860 O   0  0  0  0  0  0  0  0  0  0  0  0
  181.2840  178.6240  140.6280 C   0  0  0  0  0  3  0  0  0  0  0  0
  189.6240  175.9690  138.5830 C   0  0  0  0  0  2  0  0  0  0  0  0
  191.0020  175.5680  138.3570 N   0  0  0  0  0  2  0  0  0  0  0  0
  191.5520  176.4960  137.3870 C   0  0  0  0  0  1  0  0  0  0  0  0
  1 14  1  0  0  0  0
  2  7  1  0  0  0  0
  3  1  1  0  0  0  0
  4  1  2  0  0  0  0
  4  2  1  0  0  0  0
  5  2  1  0  0  0  0
  5 11  2  0  0  0  0
  7 13  2  0  0  0  0
  7 15  1  0  0  0  0
  8 18  2  0  0  0  0
  9 15  2  0  0  0  0
  9  8  1  0  0  0  0
 10 16  1  0  0  0  0
 10  4  1  0  0  0  0
 11  9  1  0  0  0  0
 12 17  1  0  0  0  0
 12 10  1  0  0  0  0
 14 24  1  0  0  0  0
 14 13  1  0  0  0  0
 15 19  1  0  0  0  0
 16 30  1  1  0  0  0
 16  5  1  0  0  0  0
 17  3  1  0  0  0  0
 18  6  1  0  0  0  0
 19  6  2  0  0  0  0
 20 21  1  0  0  0  0
 22 27  2  0  0  0  0
 22 24  1  0  0  0  0
 23 20  2  0  0  0  0
 24 25  2  0  0  0  0
 25 20  1  0  0  0  0
 25 26  1  0  0  0  0
 27 23  1  0  0  0  0
 29 28  2  0  0  0  0
 29 27  1  0  0  0  0
 31 30  1  0  0  0  0
 32 31  1  0  0  0  0
M  END
>  <MODEL>
9

>  <REMARK>
 VINA RESULT:      -8.8      2.939      6.748
  Name = 
  4 active torsions:
  status: ('A' for Active; 'I' for Inactive)
    1  A    between atoms: N_13  and  C_18
    2  A    between atoms: C_15  and  C_26
    3  A    between atoms: C_18  and  C_29
    4  A    between atoms: C_20  and  N_27
                            x       y       z     vdW  Elec       q    Type
                         _______ _______ _______ _____ _____    ______ ____

>  <TORSDO>
F 4

$$$$
