=
 OpenBabel11052414573D

 55 61  0  0  1  0  0  0  0  0999 V2000
  188.6790  177.7690  138.5060 N   0  0  0  0  0  0  0  0  0  0  0  0
  188.9560  176.3970  138.1070 C   0  0  0  0  0  2  0  0  0  0  0  0
  189.9630  176.3760  136.9610 C   0  0  0  0  0  2  0  0  0  0  0  0
  190.5580  174.2080  137.7970 O   0  0  0  0  0  1  0  0  0  0  0  0
  190.4660  174.9680  136.6260 C   0  0  0  0  0  0  0  0  0  0  0  0
  189.5230  174.3620  135.7900 O   0  0  0  0  0  1  0  0  0  0  0  0
  194.8830  174.1140  135.1220 O   0  0  0  0  0  1  0  0  0  0  0  0
  191.8610  175.0200  135.9380 C   0  0  1  0  0  0  0  0  0  0  0  0
  191.8180  172.6350  135.9890 O   0  0  0  0  0  1  0  0  0  0  0  0
  192.5700  173.7400  135.5750 C   0  0  1  0  0  0  0  0  0  0  0  0
  193.9810  173.6080  136.0680 C   0  0  2  0  0  0  0  0  0  0  0  0
  192.0420  176.0260  134.7940 C   0  0  0  0  0  1  0  0  0  0  0  0
  193.0720  174.6090  136.8040 C   0  0  2  0  0  0  0  0  0  0  0  0
  193.9150  175.8770  136.9740 C   0  0  0  0  0  0  0  0  0  0  0  0
  193.5430  176.7890  137.7610 O   0  0  0  0  0  1  0  0  0  0  0  0
  195.1950  175.9620  136.4300 O   0  0  0  0  0  0  0  0  0  0  0  0
  194.4520  172.3620  136.8440 C   0  0  1  0  0  3  0  0  0  0  0  0
  194.6860  171.2720  135.9980 O   0  0  0  0  0  1  0  0  0  0  0  0
  195.6960  172.6680  137.6650 C   0  0  0  0  0  2  0  0  0  0  0  0
  195.3360  173.0100  138.9670 O   0  0  0  0  0  1  0  0  0  0  0  0
  187.2760  177.8440  138.8940 C   0  0  0  0  0  2  0  0  0  0  0  0
  186.4110  177.9230  137.6480 C   0  0  0  0  0  2  0  0  0  0  0  0
  184.9560  177.7100  138.0060 C   0  0  0  0  0  2  0  0  0  0  0  0
  184.8290  179.8770  138.9900 O   0  0  0  0  0  0  0  0  0  0  0  0
  184.0520  178.1110  140.3180 N   0  0  0  0  0  2  0  0  0  0  0  0
  184.5920  178.6430  139.1060 C   0  0  0  0  0  0  0  0  0  0  0  0
  187.1560  178.0870  143.1090 C   0  0  0  0  0  3  0  0  0  0  0  0
  181.3360  178.5670  141.0890 C   0  0  0  0  0  3  0  0  0  0  0  0
  185.2020  178.4380  146.3700 C   0  0  0  0  0  2  0  0  0  0  0  0
  180.0190  178.4310  141.5350 C   0  0  0  0  0  3  0  0  0  0  0  0
  182.0970  178.7950  143.3790 C   0  0  0  0  0  0  0  0  0  0  0  0
  180.7740  178.6710  143.8200 C   0  0  0  0  0  3  0  0  0  0  0  0
  179.7380  178.4810  142.9010 C   0  0  0  0  0  3  0  0  0  0  0  0
  182.3900  178.7360  142.0020 C   0  0  0  0  0  0  0  0  0  0  0  0
  186.1700  178.3560  142.1660 C   0  0  0  0  0  3  0  0  0  0  0  0
  187.6210  178.1560  146.8650 C   0  0  1  0  0  3  0  0  0  0  0  0
  184.5330  178.6460  143.9370 C   0  0  0  0  0  0  0  0  0  0  0  0
  186.8500  178.0880  144.4690 C   0  0  0  0  0  0  0  0  0  0  0  0
  183.1620  179.0830  144.3880 C   0  0  0  0  0  2  0  0  0  0  0  0
  187.9400  177.7170  145.4370 C   0  0  0  0  0  2  0  0  0  0  0  0
  183.8090  178.9290  141.5050 C   0  0  1  0  0  3  0  0  0  0  0  0
  186.2160  177.7010  147.2410 C   0  0  0  0  0  2  0  0  0  0  0  0
  184.8490  178.6160  142.5610 C   0  0  0  0  0  0  0  0  0  0  0  0
  185.5260  178.3540  144.8960 C   0  0  0  0  0  0  0  0  0  0  0  0
  188.6270  177.6070  147.8230 C   0  0  0  0  0  0  0  0  0  0  0  0
  189.5590  176.8600  147.4230 O   0  0  0  0  0  0  0  0  0  0  0  0
  188.5250  177.9170  149.1730 O   0  0  0  0  0  1  0  0  0  0  0  0
  189.4700  178.0140  139.7010 C   0  0  0  0  0  2  0  0  0  0  0  0
  189.8040  176.6950  140.3780 C   0  0  0  0  0  2  0  0  0  0  0  0
  191.4590  177.3220  144.2840 C   0  0  0  0  0  3  0  0  0  0  0  0
  190.2490  176.9260  141.7810 C   0  0  0  0  0  0  0  0  0  0  0  0
  190.6700  178.1010  142.1500 N   0  0  0  0  0  0  0  0  0  0  0  0
  191.3470  175.9140  143.7710 C   0  0  0  0  0  2  0  0  0  0  0  0
  191.1680  178.3440  143.4760 C   0  0  0  0  0  3  0  0  0  0  0  0
  190.1950  175.7950  142.7720 C   0  0  0  0  0  2  0  0  0  0  0  0
  1 21  1  0  0  0  0
  1 48  1  0  0  0  0
  2  1  1  0  0  0  0
  3  2  1  0  0  0  0
  5  3  1  0  0  0  0
  5  4  1  0  0  0  0
  6  5  1  0  0  0  0
  8 12  1  6  0  0  0
  8  5  1  0  0  0  0
  8 13  1  0  0  0  0
 10  8  1  0  0  0  0
 10  9  1  1  0  0  0
 10 11  1  0  0  0  0
 10 13  1  0  0  0  0
 11  7  1  6  0  0  0
 11 13  1  0  0  0  0
 11 17  1  0  0  0  0
 13 14  1  6  0  0  0
 14 15  1  0  0  0  0
 16 14  2  0  0  0  0
 17 18  1  6  0  0  0
 17 19  1  0  0  0  0
 19 20  1  0  0  0  0
 22 23  1  0  0  0  0
 22 21  1  0  0  0  0
 23 26  1  0  0  0  0
 24 26  2  0  0  0  0
 26 25  1  0  0  0  0
 27 38  1  0  0  0  0
 28 30  2  0  0  0  0
 28 34  1  0  0  0  0
 29 42  1  0  0  0  0
 30 33  1  0  0  0  0
 31 32  1  0  0  0  0
 31 39  1  0  0  0  0
 33 32  2  0  0  0  0
 34 31  2  0  0  0  0
 35 43  1  0  0  0  0
 35 27  2  0  0  0  0
 36 42  1  0  0  0  0
 36 45  1  1  0  0  0
 37 39  1  0  0  0  0
 37 44  1  0  0  0  0
 38 44  2  0  0  0  0
 38 40  1  0  0  0  0
 40 36  1  0  0  0  0
 41 25  1  6  0  0  0
 41 34  1  0  0  0  0
 41 43  1  0  0  0  0
 43 37  2  0  0  0  0
 44 29  1  0  0  0  0
 45 47  1  0  0  0  0
 46 45  2  0  0  0  0
 48 49  1  0  0  0  0
 49 51  1  0  0  0  0
 51 52  2  0  0  0  0
 51 55  1  0  0  0  0
 52 54  1  0  0  0  0
 53 50  1  0  0  0  0
 54 50  2  0  0  0  0
 55 53  1  0  0  0  0
M  END
>  <MODEL>
1

>  <REMARK>
 VINA RESULT:     -10.0      0.000      0.000
  Name = 
  16 active torsions:
  status: ('A' for Active; 'I' for Inactive)
    1  A    between atoms: C_1  and  C_53
    2  A    between atoms: C_4  and  C_35
    3  A    between atoms: C_4  and  C_37
    4  A    between atoms: C_6  and  C_20
    5  A    between atoms: C_8  and  C_22
    6  A    between atoms: C_8  and  N_43
    7  A    between atoms: C_10  and  C_32
    8  A    between atoms: C_11  and  C_29
    9  A    between atoms: N_19  and  C_45
   10  A    between atoms: C_20  and  C_22
   11  A    between atoms: C_27  and  C_54
   12  A    between atoms: C_29  and  C_38
   13  A    between atoms: C_35  and  N_43
   14  A    between atoms: C_37  and  C_40
   15  A    between atoms: N_43  and  C_51
   16  A    between atoms: C_51  and  C_54
                            x       y       z     vdW  Elec       q    Type
                         _______ _______ _______ _____ _____    ______ ____

>  <TORSDO>
F 16

$$$$
=
 OpenBabel11052414573D

 55 61  0  0  1  0  0  0  0  0999 V2000
  190.0550  176.9190  139.0410 N   0  0  0  0  0  0  0  0  0  0  0  0
  191.3740  177.0140  138.4310 C   0  0  0  0  0  2  0  0  0  0  0  0
  191.6450  175.7830  137.5710 C   0  0  0  0  0  2  0  0  0  0  0  0
  192.8000  176.0050  135.4810 O   0  0  0  0  0  1  0  0  0  0  0  0
  192.9990  175.8350  136.8550 C   0  0  0  0  0  0  0  0  0  0  0  0
  193.6960  176.9480  137.3340 O   0  0  0  0  0  1  0  0  0  0  0  0
  196.2430  172.6030  138.0940 O   0  0  0  0  0  1  0  0  0  0  0  0
  193.8100  174.5280  137.0970 C   0  0  1  0  0  0  0  0  0  0  0  0
  194.6740  175.5970  139.0490 O   0  0  0  0  0  1  0  0  0  0  0  0
  194.6960  174.4080  138.3110 C   0  0  1  0  0  0  0  0  0  0  0  0
  196.1160  173.9990  138.0500 C   0  0  2  0  0  0  0  0  0  0  0  0
  193.0770  173.1980  136.8870 C   0  0  0  0  0  1  0  0  0  0  0  0
  195.3360  174.6140  136.8740 C   0  0  2  0  0  0  0  0  0  0  0  0
  195.6340  173.7140  135.6710 C   0  0  0  0  0  0  0  0  0  0  0  0
  196.0670  174.2100  134.5950 O   0  0  0  0  0  0  0  0  0  0  0  0
  195.6300  172.3260  135.7990 O   0  0  0  0  0  1  0  0  0  0  0  0
  197.3040  174.7980  138.6190 C   0  0  1  0  0  3  0  0  0  0  0  0
  197.3720  174.7200  140.0150 O   0  0  0  0  0  1  0  0  0  0  0  0
  198.6170  174.3390  138.0010 C   0  0  0  0  0  2  0  0  0  0  0  0
  198.8010  174.9520  136.7620 O   0  0  0  0  0  1  0  0  0  0  0  0
  190.2410  176.6060  140.4530 C   0  0  0  0  0  2  0  0  0  0  0  0
  191.0710  177.6970  141.1060 C   0  0  0  0  0  2  0  0  0  0  0  0
  191.6950  177.1850  142.3860 C   0  0  0  0  0  2  0  0  0  0  0  0
  190.5020  175.3600  143.3490 O   0  0  0  0  0  0  0  0  0  0  0  0
  189.6940  177.4950  143.8770 N   0  0  0  0  0  2  0  0  0  0  0  0
  190.6240  176.6120  143.2450 C   0  0  0  0  0  0  0  0  0  0  0  0
  186.0810  177.8950  141.8250 C   0  0  0  0  0  3  0  0  0  0  0  0
  189.8140  177.5110  146.7340 C   0  0  0  0  0  3  0  0  0  0  0  0
  183.6740  178.5470  144.7150 C   0  0  0  0  0  2  0  0  0  0  0  0
  189.8770  177.8810  148.0800 C   0  0  0  0  0  3  0  0  0  0  0  0
  187.4050  177.7770  146.7650 C   0  0  0  0  0  0  0  0  0  0  0  0
  187.4720  178.1350  148.1160 C   0  0  0  0  0  3  0  0  0  0  0  0
  188.7060  178.1960  148.7710 C   0  0  0  0  0  3  0  0  0  0  0  0
  188.5840  177.4670  146.0570 C   0  0  0  0  0  0  0  0  0  0  0  0
  187.2290  177.5010  142.5050 C   0  0  0  0  0  3  0  0  0  0  0  0
  182.4550  178.7010  142.5550 C   0  0  1  0  0  3  0  0  0  0  0  0
  186.0960  177.8170  144.6310 C   0  0  0  0  0  0  0  0  0  0  0  0
  184.9330  178.2560  142.5290 C   0  0  0  0  0  0  0  0  0  0  0  0
  186.0590  177.6410  146.1270 C   0  0  0  0  0  2  0  0  0  0  0  0
  183.7480  178.7430  141.7420 C   0  0  0  0  0  2  0  0  0  0  0  0
  188.5220  177.0200  144.6100 C   0  0  1  0  0  3  0  0  0  0  0  0
  182.6760  179.3700  143.9060 C   0  0  0  0  0  2  0  0  0  0  0  0
  187.2610  177.4770  143.9070 C   0  0  0  0  0  0  0  0  0  0  0  0
  184.9360  178.2350  143.9450 C   0  0  0  0  0  0  0  0  0  0  0  0
  181.3420  179.3650  141.8130 C   0  0  0  0  0  0  0  0  0  0  0  0
  181.4750  179.6840  140.6000 O   0  0  0  0  0  0  0  0  0  0  0  0
  180.1520  179.6440  142.4710 O   0  0  0  0  0  1  0  0  0  0  0  0
  189.4730  178.2500  138.9670 C   0  0  0  0  0  2  0  0  0  0  0  0
  188.9740  178.5160  137.5560 C   0  0  0  0  0  2  0  0  0  0  0  0
  184.9110  177.1440  137.4920 C   0  0  0  0  0  3  0  0  0  0  0  0
  187.5420  178.1270  137.4270 C   0  0  0  0  0  0  0  0  0  0  0  0
  186.6500  178.6340  138.2290 N   0  0  0  0  0  0  0  0  0  0  0  0
  185.9660  176.2920  136.8460 C   0  0  0  0  0  2  0  0  0  0  0  0
  185.2710  178.2330  138.1770 C   0  0  0  0  0  3  0  0  0  0  0  0
  187.1310  177.1530  136.3560 C   0  0  0  0  0  2  0  0  0  0  0  0
  1 21  1  0  0  0  0
  2  1  1  0  0  0  0
  3  2  1  0  0  0  0
  4  5  1  0  0  0  0
  5  8  1  0  0  0  0
  5  6  1  0  0  0  0
  5  3  1  0  0  0  0
  8 12  1  6  0  0  0
  8 10  1  0  0  0  0
 10  9  1  1  0  0  0
 11  7  1  6  0  0  0
 11 10  1  0  0  0  0
 11 17  1  0  0  0  0
 13 14  1  1  0  0  0
 13  8  1  0  0  0  0
 13 11  1  0  0  0  0
 13 10  1  0  0  0  0
 14 16  1  0  0  0  0
 15 14  2  0  0  0  0
 17 18  1  1  0  0  0
 19 17  1  0  0  0  0
 20 19  1  0  0  0  0
 21 22  1  0  0  0  0
 22 23  1  0  0  0  0
 23 26  1  0  0  0  0
 26 24  2  0  0  0  0
 26 25  1  0  0  0  0
 27 35  2  0  0  0  0
 27 38  1  0  0  0  0
 28 30  1  0  0  0  0
 30 33  2  0  0  0  0
 31 32  2  0  0  0  0
 32 33  1  0  0  0  0
 34 28  2  0  0  0  0
 34 31  1  0  0  0  0
 35 43  1  0  0  0  0
 36 45  1  6  0  0  0
 36 42  1  0  0  0  0
 37 39  1  0  0  0  0
 38 44  2  0  0  0  0
 39 31  1  0  0  0  0
 40 38  1  0  0  0  0
 40 36  1  0  0  0  0
 41 25  1  6  0  0  0
 41 34  1  0  0  0  0
 42 29  1  0  0  0  0
 43 41  1  0  0  0  0
 43 37  2  0  0  0  0
 44 37  1  0  0  0  0
 44 29  1  0  0  0  0
 45 47  1  0  0  0  0
 46 45  2  0  0  0  0
 48  1  1  0  0  0  0
 49 48  1  0  0  0  0
 50 54  2  0  0  0  0
 51 49  1  0  0  0  0
 51 52  2  0  0  0  0
 53 50  1  0  0  0  0
 54 52  1  0  0  0  0
 55 53  1  0  0  0  0
 55 51  1  0  0  0  0
M  END
>  <MODEL>
2

>  <REMARK>
 VINA RESULT:      -9.4      1.967      5.954
  Name = 
  16 active torsions:
  status: ('A' for Active; 'I' for Inactive)
    1  A    between atoms: C_1  and  C_53
    2  A    between atoms: C_4  and  C_35
    3  A    between atoms: C_4  and  C_37
    4  A    between atoms: C_6  and  C_20
    5  A    between atoms: C_8  and  C_22
    6  A    between atoms: C_8  and  N_43
    7  A    between atoms: C_10  and  C_32
    8  A    between atoms: C_11  and  C_29
    9  A    between atoms: N_19  and  C_45
   10  A    between atoms: C_20  and  C_22
   11  A    between atoms: C_27  and  C_54
   12  A    between atoms: C_29  and  C_38
   13  A    between atoms: C_35  and  N_43
   14  A    between atoms: C_37  and  C_40
   15  A    between atoms: N_43  and  C_51
   16  A    between atoms: C_51  and  C_54
                            x       y       z     vdW  Elec       q    Type
                         _______ _______ _______ _____ _____    ______ ____

>  <TORSDO>
F 16

$$$$
=
 OpenBabel11052414573D

 55 61  0  0  1  0  0  0  0  0999 V2000
  191.0970  177.1710  138.3460 N   0  0  0  0  0  0  0  0  0  0  0  0
  190.0480  177.1830  137.3370 C   0  0  0  0  0  2  0  0  0  0  0  0
  188.6880  176.9580  137.9910 C   0  0  0  0  0  2  0  0  0  0  0  0
  187.3040  178.6070  139.0480 O   0  0  0  0  0  1  0  0  0  0  0  0
  187.7260  178.1360  137.8010 C   0  0  0  0  0  0  0  0  0  0  0  0
  188.4260  179.1650  137.1630 O   0  0  0  0  0  1  0  0  0  0  0  0
  183.3820  176.9670  136.2960 O   0  0  0  0  0  1  0  0  0  0  0  0
  186.4820  177.7140  136.9650 C   0  0  1  0  0  0  0  0  0  0  0  0
  185.1960  179.0410  138.4750 O   0  0  0  0  0  1  0  0  0  0  0  0
  185.1170  178.2370  137.3310 C   0  0  1  0  0  0  0  0  0  0  0  0
  184.0430  177.2050  137.5100 C   0  0  2  0  0  0  0  0  0  0  0  0
  186.6250  177.7300  135.4390 C   0  0  0  0  0  1  0  0  0  0  0  0
  185.5010  176.7290  137.6400 C   0  0  2  0  0  0  0  0  0  0  0  0
  185.5830  175.4340  136.8270 C   0  0  0  0  0  0  0  0  0  0  0  0
  185.5210  175.4670  135.5670 O   0  0  0  0  0  0  0  0  0  0  0  0
  185.9270  174.2290  137.4360 O   0  0  0  0  0  1  0  0  0  0  0  0
  183.1610  177.1670  138.7730 C   0  0  1  0  0  3  0  0  0  0  0  0
  182.0660  178.0340  138.6770 O   0  0  0  0  0  1  0  0  0  0  0  0
  182.6880  175.7500  139.0660 C   0  0  0  0  0  2  0  0  0  0  0  0
  181.3780  175.7740  139.5420 O   0  0  0  0  0  1  0  0  0  0  0  0
  190.4540  177.1810  139.6550 C   0  0  0  0  0  2  0  0  0  0  0  0
  191.4710  176.8080  140.7190 C   0  0  0  0  0  2  0  0  0  0  0  0
  191.2730  177.6610  141.9540 C   0  0  0  0  0  2  0  0  0  0  0  0
  190.2080  175.7300  142.8600 O   0  0  0  0  0  0  0  0  0  0  0  0
  189.3890  177.7900  143.6150 N   0  0  0  0  0  2  0  0  0  0  0  0
  190.2890  176.9900  142.8450 C   0  0  0  0  0  0  0  0  0  0  0  0
  185.6150  178.2220  141.8810 C   0  0  0  0  0  3  0  0  0  0  0  0
  189.7330  177.5970  146.4470 C   0  0  0  0  0  3  0  0  0  0  0  0
  183.4270  178.5750  144.9890 C   0  0  0  0  0  2  0  0  0  0  0  0
  189.8920  177.8670  147.8080 C   0  0  0  0  0  3  0  0  0  0  0  0
  187.3270  177.7780  146.6820 C   0  0  0  0  0  0  0  0  0  0  0  0
  187.4910  178.0360  148.0480 C   0  0  0  0  0  3  0  0  0  0  0  0
  188.7700  178.0890  148.6090 C   0  0  0  0  0  3  0  0  0  0  0  0
  188.4550  177.5630  145.8640 C   0  0  0  0  0  0  0  0  0  0  0  0
  186.8240  177.8170  142.4390 C   0  0  0  0  0  3  0  0  0  0  0  0
  182.0380  178.8490  142.9470 C   0  0  1  0  0  3  0  0  0  0  0  0
  185.8540  177.9340  144.6640 C   0  0  0  0  0  0  0  0  0  0  0  0
  184.5180  178.4910  142.6970 C   0  0  0  0  0  0  0  0  0  0  0  0
  185.9400  177.6460  146.1410 C   0  0  0  0  0  2  0  0  0  0  0  0
  183.2610  178.9960  142.0430 C   0  0  0  0  0  2  0  0  0  0  0  0
  188.2920  177.2230  144.3960 C   0  0  1  0  0  3  0  0  0  0  0  0
  182.3460  179.4220  144.3250 C   0  0  0  0  0  2  0  0  0  0  0  0
  186.9670  177.6890  143.8290 C   0  0  0  0  0  0  0  0  0  0  0  0
  184.6330  178.3640  144.1030 C   0  0  0  0  0  0  0  0  0  0  0  0
  180.8520  179.5290  142.3450 C   0  0  0  0  0  0  0  0  0  0  0  0
  180.3500  180.5500  142.8870 O   0  0  0  0  0  1  0  0  0  0  0  0
  180.2900  179.0230  141.1810 O   0  0  0  0  0  0  0  0  0  0  0  0
  191.7800  175.8940  138.2110 C   0  0  0  0  0  2  0  0  0  0  0  0
  193.1170  176.0950  137.5160 C   0  0  0  0  0  2  0  0  0  0  0  0
  196.0630  173.0600  138.2220 C   0  0  0  0  0  3  0  0  0  0  0  0
  194.0530  174.9870  137.8550 C   0  0  0  0  0  0  0  0  0  0  0  0
  195.0520  175.1980  138.6640 N   0  0  0  0  0  0  0  0  0  0  0  0
  195.1690  172.9260  137.0220 C   0  0  0  0  0  2  0  0  0  0  0  0
  196.0130  174.1710  138.9620 C   0  0  0  0  0  3  0  0  0  0  0  0
  193.8290  173.6200  137.2680 C   0  0  0  0  0  2  0  0  0  0  0  0
  1 21  1  0  0  0  0
  2  3  1  0  0  0  0
  2  1  1  0  0  0  0
  5  3  1  0  0  0  0
  5  4  1  0  0  0  0
  6  5  1  0  0  0  0
  8 12  1  6  0  0  0
  8 10  1  0  0  0  0
  8 13  1  0  0  0  0
  8  5  1  0  0  0  0
 10 11  1  0  0  0  0
 10 13  1  0  0  0  0
 10  9  1  1  0  0  0
 11  7  1  6  0  0  0
 11 13  1  0  0  0  0
 11 17  1  0  0  0  0
 13 14  1  6  0  0  0
 14 16  1  0  0  0  0
 15 14  2  0  0  0  0
 17 18  1  6  0  0  0
 17 19  1  0  0  0  0
 19 20  1  0  0  0  0
 21 22  1  0  0  0  0
 22 23  1  0  0  0  0
 23 26  1  0  0  0  0
 26 24  2  0  0  0  0
 26 25  1  0  0  0  0
 27 35  2  0  0  0  0
 27 38  1  0  0  0  0
 28 30  1  0  0  0  0
 30 33  2  0  0  0  0
 31 32  2  0  0  0  0
 32 33  1  0  0  0  0
 34 28  2  0  0  0  0
 34 31  1  0  0  0  0
 35 43  1  0  0  0  0
 36 45  1  6  0  0  0
 36 42  1  0  0  0  0
 37 39  1  0  0  0  0
 38 44  2  0  0  0  0
 39 31  1  0  0  0  0
 40 38  1  0  0  0  0
 40 36  1  0  0  0  0
 41 25  1  6  0  0  0
 41 34  1  0  0  0  0
 42 29  1  0  0  0  0
 43 41  1  0  0  0  0
 43 37  2  0  0  0  0
 44 37  1  0  0  0  0
 44 29  1  0  0  0  0
 45 46  1  0  0  0  0
 47 45  2  0  0  0  0
 48  1  1  0  0  0  0
 49 51  1  0  0  0  0
 49 48  1  0  0  0  0
 50 54  2  0  0  0  0
 51 52  2  0  0  0  0
 52 54  1  0  0  0  0
 53 55  1  0  0  0  0
 53 50  1  0  0  0  0
 55 51  1  0  0  0  0
M  END
>  <MODEL>
3

>  <REMARK>
 VINA RESULT:      -9.4      3.201      7.716
  Name = 
  16 active torsions:
  status: ('A' for Active; 'I' for Inactive)
    1  A    between atoms: C_1  and  C_53
    2  A    between atoms: C_4  and  C_35
    3  A    between atoms: C_4  and  C_37
    4  A    between atoms: C_6  and  C_20
    5  A    between atoms: C_8  and  C_22
    6  A    between atoms: C_8  and  N_43
    7  A    between atoms: C_10  and  C_32
    8  A    between atoms: C_11  and  C_29
    9  A    between atoms: N_19  and  C_45
   10  A    between atoms: C_20  and  C_22
   11  A    between atoms: C_27  and  C_54
   12  A    between atoms: C_29  and  C_38
   13  A    between atoms: C_35  and  N_43
   14  A    between atoms: C_37  and  C_40
   15  A    between atoms: N_43  and  C_51
   16  A    between atoms: C_51  and  C_54
                            x       y       z     vdW  Elec       q    Type
                         _______ _______ _______ _____ _____    ______ ____

>  <TORSDO>
F 16

$$$$
=
 OpenBabel11052414573D

 55 61  0  0  1  0  0  0  0  0999 V2000
  191.7820  176.6660  138.1640 N   0  0  0  0  0  0  0  0  0  0  0  0
  190.9460  175.4850  138.3110 C   0  0  0  0  0  2  0  0  0  0  0  0
  189.7540  175.5630  137.3620 C   0  0  0  0  0  2  0  0  0  0  0  0
  190.5840  174.9650  135.1930 O   0  0  0  0  0  1  0  0  0  0  0  0
  189.7950  174.5060  136.2530 C   0  0  0  0  0  0  0  0  0  0  0  0
  190.3990  173.3580  136.7760 O   0  0  0  0  0  1  0  0  0  0  0  0
  185.2370  174.6700  134.9520 O   0  0  0  0  0  1  0  0  0  0  0  0
  188.3650  174.1890  135.7290 C   0  0  1  0  0  0  0  0  0  0  0  0
  188.2370  176.4890  135.1060 O   0  0  0  0  0  1  0  0  0  0  0  0
  187.5420  175.2750  135.0840 C   0  0  1  0  0  0  0  0  0  0  0  0
  186.1610  175.4700  135.6380 C   0  0  2  0  0  0  0  0  0  0  0  0
  188.1820  172.8910  134.9320 C   0  0  0  0  0  1  0  0  0  0  0  0
  187.1880  174.7680  136.5450 C   0  0  2  0  0  0  0  0  0  0  0  0
  186.4530  173.5600  137.1340 C   0  0  0  0  0  0  0  0  0  0  0  0
  187.1010  172.6080  137.6490 O   0  0  0  0  0  1  0  0  0  0  0  0
  185.0690  173.5770  137.2990 O   0  0  0  0  0  0  0  0  0  0  0  0
  185.6540  176.8590  136.0710 C   0  0  1  0  0  3  0  0  0  0  0  0
  184.9820  177.5210  135.0360 O   0  0  0  0  0  1  0  0  0  0  0  0
  184.7600  176.7560  137.2980 C   0  0  0  0  0  2  0  0  0  0  0  0
  184.8720  177.9130  138.0680 O   0  0  0  0  0  1  0  0  0  0  0  0
  192.1400  177.1260  139.5010 C   0  0  0  0  0  2  0  0  0  0  0  0
  190.9040  177.1220  140.3830 C   0  0  0  0  0  2  0  0  0  0  0  0
  191.2820  177.4400  141.8140 C   0  0  0  0  0  2  0  0  0  0  0  0
  190.1540  175.5490  142.7270 O   0  0  0  0  0  0  0  0  0  0  0  0
  189.4460  177.6360  143.5220 N   0  0  0  0  0  2  0  0  0  0  0  0
  190.2900  176.8040  142.7230 C   0  0  0  0  0  0  0  0  0  0  0  0
  185.6670  178.1150  141.8130 C   0  0  0  0  0  3  0  0  0  0  0  0
  189.8120  177.4940  146.3540 C   0  0  0  0  0  3  0  0  0  0  0  0
  183.5160  178.5820  144.9310 C   0  0  0  0  0  2  0  0  0  0  0  0
  189.9880  177.7890  147.7090 C   0  0  0  0  0  3  0  0  0  0  0  0
  187.4130  177.7340  146.6060 C   0  0  0  0  0  0  0  0  0  0  0  0
  187.5950  178.0170  147.9650 C   0  0  0  0  0  3  0  0  0  0  0  0
  188.8800  178.0530  148.5140 C   0  0  0  0  0  3  0  0  0  0  0  0
  188.5280  177.4770  145.7840 C   0  0  0  0  0  0  0  0  0  0  0  0
  186.8720  177.6960  142.3680 C   0  0  0  0  0  3  0  0  0  0  0  0
  182.1150  178.8450  142.8960 C   0  0  1  0  0  3  0  0  0  0  0  0
  185.9250  177.8810  144.5980 C   0  0  0  0  0  0  0  0  0  0  0  0
  184.5830  178.4260  142.6320 C   0  0  0  0  0  0  0  0  0  0  0  0
  186.0180  177.6220  146.0800 C   0  0  0  0  0  2  0  0  0  0  0  0
  183.3320  178.9450  141.9780 C   0  0  0  0  0  2  0  0  0  0  0  0
  188.3440  177.1100  144.3250 C   0  0  1  0  0  3  0  0  0  0  0  0
  182.4470  179.4400  144.2580 C   0  0  0  0  0  2  0  0  0  0  0  0
  187.0250  177.5940  143.7590 C   0  0  0  0  0  0  0  0  0  0  0  0
  184.7080  178.3260  144.0390 C   0  0  0  0  0  0  0  0  0  0  0  0
  180.9390  179.5390  142.2900 C   0  0  0  0  0  0  0  0  0  0  0  0
  180.4170  180.5370  142.8550 O   0  0  0  0  0  1  0  0  0  0  0  0
  180.4080  179.0700  141.0960 O   0  0  0  0  0  0  0  0  0  0  0  0
  193.0080  176.2220  137.5190 C   0  0  0  0  0  2  0  0  0  0  0  0
  193.4230  174.8700  138.0780 C   0  0  0  0  0  2  0  0  0  0  0  0
  197.6540  174.5900  137.4380 C   0  0  0  0  0  3  0  0  0  0  0  0
  194.8760  174.6350  137.8490 C   0  0  0  0  0  0  0  0  0  0  0  0
  195.7080  174.6510  138.8510 N   0  0  0  0  0  0  0  0  0  0  0  0
  196.7750  174.9510  136.2740 C   0  0  0  0  0  2  0  0  0  0  0  0
  197.1240  174.4930  138.6600 C   0  0  0  0  0  3  0  0  0  0  0  0
  195.3740  174.3670  136.4550 C   0  0  0  0  0  2  0  0  0  0  0  0
  1  2  1  0  0  0  0
  1 21  1  0  0  0  0
  3  2  1  0  0  0  0
  4  5  1  0  0  0  0
  5  6  1  0  0  0  0
  5  3  1  0  0  0  0
  8 12  1  6  0  0  0
  8  5  1  0  0  0  0
  8 13  1  0  0  0  0
 10  9  1  1  0  0  0
 10 11  1  0  0  0  0
 10  8  1  0  0  0  0
 10 13  1  0  0  0  0
 11  7  1  6  0  0  0
 11 17  1  0  0  0  0
 11 13  1  0  0  0  0
 13 14  1  6  0  0  0
 14 16  2  0  0  0  0
 14 15  1  0  0  0  0
 17 18  1  6  0  0  0
 17 19  1  0  0  0  0
 19 20  1  0  0  0  0
 21 22  1  0  0  0  0
 22 23  1  0  0  0  0
 23 26  1  0  0  0  0
 26 24  2  0  0  0  0
 26 25  1  0  0  0  0
 27 35  2  0  0  0  0
 27 38  1  0  0  0  0
 28 30  1  0  0  0  0
 30 33  2  0  0  0  0
 31 32  2  0  0  0  0
 32 33  1  0  0  0  0
 34 28  2  0  0  0  0
 34 31  1  0  0  0  0
 35 43  1  0  0  0  0
 36 45  1  6  0  0  0
 36 42  1  0  0  0  0
 37 39  1  0  0  0  0
 38 44  2  0  0  0  0
 39 31  1  0  0  0  0
 40 38  1  0  0  0  0
 40 36  1  0  0  0  0
 41 25  1  6  0  0  0
 41 34  1  0  0  0  0
 42 29  1  0  0  0  0
 43 41  1  0  0  0  0
 43 37  2  0  0  0  0
 44 37  1  0  0  0  0
 44 29  1  0  0  0  0
 45 46  1  0  0  0  0
 47 45  2  0  0  0  0
 48 49  1  0  0  0  0
 48  1  1  0  0  0  0
 50 54  2  0  0  0  0
 51 49  1  0  0  0  0
 51 52  2  0  0  0  0
 53 55  1  0  0  0  0
 53 50  1  0  0  0  0
 54 52  1  0  0  0  0
 55 51  1  0  0  0  0
M  END
>  <MODEL>
4

>  <REMARK>
 VINA RESULT:      -8.8      2.593      7.129
  Name = 
  16 active torsions:
  status: ('A' for Active; 'I' for Inactive)
    1  A    between atoms: C_1  and  C_53
    2  A    between atoms: C_4  and  C_35
    3  A    between atoms: C_4  and  C_37
    4  A    between atoms: C_6  and  C_20
    5  A    between atoms: C_8  and  C_22
    6  A    between atoms: C_8  and  N_43
    7  A    between atoms: C_10  and  C_32
    8  A    between atoms: C_11  and  C_29
    9  A    between atoms: N_19  and  C_45
   10  A    between atoms: C_20  and  C_22
   11  A    between atoms: C_27  and  C_54
   12  A    between atoms: C_29  and  C_38
   13  A    between atoms: C_35  and  N_43
   14  A    between atoms: C_37  and  C_40
   15  A    between atoms: N_43  and  C_51
   16  A    between atoms: C_51  and  C_54
                            x       y       z     vdW  Elec       q    Type
                         _______ _______ _______ _____ _____    ______ ____

>  <TORSDO>
F 16

$$$$
=
 OpenBabel11052414573D

 55 61  0  0  1  0  0  0  0  0999 V2000
  186.8380  175.9920  136.4060 N   0  0  0  0  0  0  0  0  0  0  0  0
  186.2350  174.6770  136.5620 C   0  0  0  0  0  2  0  0  0  0  0  0
  184.8530  174.6530  135.9160 C   0  0  0  0  0  2  0  0  0  0  0  0
  183.9600  172.4330  136.0700 O   0  0  0  0  0  1  0  0  0  0  0  0
  183.8720  173.7140  136.6250 C   0  0  0  0  0  0  0  0  0  0  0  0
  184.2500  173.6320  137.9680 O   0  0  0  0  0  1  0  0  0  0  0  0
  179.5030  175.3910  137.4030 O   0  0  0  0  0  1  0  0  0  0  0  0
  182.4090  174.2300  136.4940 C   0  0  1  0  0  0  0  0  0  0  0  0
  182.8620  175.5740  138.4130 O   0  0  0  0  0  1  0  0  0  0  0  0
  181.8860  175.2620  137.4600 C   0  0  1  0  0  0  0  0  0  0  0  0
  180.5950  174.9230  138.1470 C   0  0  2  0  0  0  0  0  0  0  0  0
  181.9110  174.5750  135.0850 C   0  0  0  0  0  1  0  0  0  0  0  0
  181.4110  173.7520  137.5710 C   0  0  2  0  0  0  0  0  0  0  0  0
  180.3960  172.8690  136.8390 C   0  0  0  0  0  0  0  0  0  0  0  0
  180.2380  172.9780  135.5920 O   0  0  0  0  0  0  0  0  0  0  0  0
  179.7800  171.8000  137.4880 O   0  0  0  0  0  1  0  0  0  0  0  0
  180.4490  175.0110  139.6790 C   0  0  1  0  0  3  0  0  0  0  0  0
  180.2980  176.3310  140.1200 O   0  0  0  0  0  1  0  0  0  0  0  0
  179.2880  174.1560  140.1660 C   0  0  0  0  0  2  0  0  0  0  0  0
  178.9500  174.5100  141.4720 O   0  0  0  0  0  1  0  0  0  0  0  0
  186.8040  176.6530  137.7050 C   0  0  0  0  0  2  0  0  0  0  0  0
  186.2560  178.0600  137.5410 C   0  0  0  0  0  2  0  0  0  0  0  0
  184.8040  178.1090  137.9660 C   0  0  0  0  0  2  0  0  0  0  0  0
  184.5380  180.1570  139.1570 O   0  0  0  0  0  0  0  0  0  0  0  0
  184.8650  178.2490  140.4760 N   0  0  0  0  0  2  0  0  0  0  0  0
  184.6990  178.9060  139.2180 C   0  0  0  0  0  0  0  0  0  0  0  0
  188.4420  177.7530  142.5710 C   0  0  0  0  0  3  0  0  0  0  0  0
  182.4030  178.8220  141.8130 C   0  0  0  0  0  3  0  0  0  0  0  0
  187.2030  177.9410  146.1760 C   0  0  0  0  0  2  0  0  0  0  0  0
  181.1920  178.7380  142.5060 C   0  0  0  0  0  3  0  0  0  0  0  0
  183.6150  178.7860  143.9120 C   0  0  0  0  0  0  0  0  0  0  0  0
  182.3990  178.7150  144.6010 C   0  0  0  0  0  3  0  0  0  0  0  0
  181.1900  178.6820  143.9000 C   0  0  0  0  0  3  0  0  0  0  0  0
  183.6270  178.8330  142.5040 C   0  0  0  0  0  0  0  0  0  0  0  0
  187.3170  178.1750  141.8690 C   0  0  0  0  0  3  0  0  0  0  0  0
  189.6380  177.4470  146.1490 C   0  0  1  0  0  3  0  0  0  0  0  0
  186.0910  178.4160  143.9530 C   0  0  0  0  0  0  0  0  0  0  0  0
  188.4100  177.6520  143.9610 C   0  0  0  0  0  0  0  0  0  0  0  0
  184.8780  178.9050  144.7030 C   0  0  0  0  0  2  0  0  0  0  0  0
  189.6320  177.1190  144.6570 C   0  0  0  0  0  2  0  0  0  0  0  0
  184.9320  178.9700  141.7460 C   0  0  1  0  0  3  0  0  0  0  0  0
  188.3000  177.0590  146.7660 C   0  0  0  0  0  2  0  0  0  0  0  0
  186.1270  178.4900  142.5430 C   0  0  0  0  0  0  0  0  0  0  0  0
  187.2240  177.9700  144.6650 C   0  0  0  0  0  0  0  0  0  0  0  0
  190.7610  176.7440  146.8390 C   0  0  0  0  0  0  0  0  0  0  0  0
  191.9540  177.1160  146.6740 O   0  0  0  0  0  0  0  0  0  0  0  0
  190.4870  175.6610  147.6640 O   0  0  0  0  0  1  0  0  0  0  0  0
  188.2360  175.7640  136.0760 C   0  0  0  0  0  2  0  0  0  0  0  0
  188.9290  175.0540  137.2280 C   0  0  0  0  0  2  0  0  0  0  0  0
  192.7500  176.6350  138.3640 C   0  0  0  0  0  3  0  0  0  0  0  0
  190.2260  175.7140  137.5440 C   0  0  0  0  0  0  0  0  0  0  0  0
  191.3120  175.3580  136.9190 N   0  0  0  0  0  0  0  0  0  0  0  0
  191.6050  176.7630  139.3280 C   0  0  0  0  0  2  0  0  0  0  0  0
  192.5910  175.9260  137.2430 C   0  0  0  0  0  3  0  0  0  0  0  0
  190.2720  176.8030  138.5810 C   0  0  0  0  0  2  0  0  0  0  0  0
  1  2  1  0  0  0  0
  1 21  1  0  0  0  0
  3  2  1  0  0  0  0
  3  5  1  0  0  0  0
  4  5  1  0  0  0  0
  5  6  1  0  0  0  0
  8 12  1  6  0  0  0
  8  5  1  0  0  0  0
  8 10  1  0  0  0  0
  8 13  1  0  0  0  0
 10 13  1  0  0  0  0
 10 11  1  0  0  0  0
 10  9  1  1  0  0  0
 11  7  1  6  0  0  0
 11 17  1  0  0  0  0
 13 14  1  6  0  0  0
 13 11  1  0  0  0  0
 14 16  1  0  0  0  0
 15 14  2  0  0  0  0
 17 18  1  6  0  0  0
 17 19  1  0  0  0  0
 19 20  1  0  0  0  0
 22 21  1  0  0  0  0
 22 23  1  0  0  0  0
 23 26  1  0  0  0  0
 24 26  2  0  0  0  0
 26 25  1  0  0  0  0
 27 38  1  0  0  0  0
 28 34  2  0  0  0  0
 28 30  1  0  0  0  0
 29 42  1  0  0  0  0
 30 33  2  0  0  0  0
 31 32  2  0  0  0  0
 31 39  1  0  0  0  0
 33 32  1  0  0  0  0
 34 31  1  0  0  0  0
 35 43  1  0  0  0  0
 35 27  2  0  0  0  0
 36 42  1  0  0  0  0
 36 45  1  1  0  0  0
 37 44  1  0  0  0  0
 37 39  1  0  0  0  0
 38 40  1  0  0  0  0
 38 44  2  0  0  0  0
 40 36  1  0  0  0  0
 41 25  1  6  0  0  0
 41 34  1  0  0  0  0
 41 43  1  0  0  0  0
 43 37  2  0  0  0  0
 44 29  1  0  0  0  0
 45 47  1  0  0  0  0
 46 45  2  0  0  0  0
 48  1  1  0  0  0  0
 48 49  1  0  0  0  0
 49 51  1  0  0  0  0
 50 53  1  0  0  0  0
 51 55  1  0  0  0  0
 52 54  1  0  0  0  0
 52 51  2  0  0  0  0
 54 50  2  0  0  0  0
 55 53  1  0  0  0  0
M  END
>  <MODEL>
5

>  <REMARK>
 VINA RESULT:      -8.4      3.925      7.516
  Name = 
  16 active torsions:
  status: ('A' for Active; 'I' for Inactive)
    1  A    between atoms: C_1  and  C_53
    2  A    between atoms: C_4  and  C_35
    3  A    between atoms: C_4  and  C_37
    4  A    between atoms: C_6  and  C_20
    5  A    between atoms: C_8  and  C_22
    6  A    between atoms: C_8  and  N_43
    7  A    between atoms: C_10  and  C_32
    8  A    between atoms: C_11  and  C_29
    9  A    between atoms: N_19  and  C_45
   10  A    between atoms: C_20  and  C_22
   11  A    between atoms: C_27  and  C_54
   12  A    between atoms: C_29  and  C_38
   13  A    between atoms: C_35  and  N_43
   14  A    between atoms: C_37  and  C_40
   15  A    between atoms: N_43  and  C_51
   16  A    between atoms: C_51  and  C_54
                            x       y       z     vdW  Elec       q    Type
                         _______ _______ _______ _____ _____    ______ ____

>  <TORSDO>
F 16

$$$$
=
 OpenBabel11052414573D

 55 61  0  0  1  0  0  0  0  0999 V2000
  186.9330  175.9690  136.3140 N   0  0  0  0  0  0  0  0  0  0  0  0
  186.0910  174.7820  136.3180 C   0  0  0  0  0  2  0  0  0  0  0  0
  184.6710  175.1430  135.8950 C   0  0  0  0  0  2  0  0  0  0  0  0
  183.6030  173.2220  136.8530 O   0  0  0  0  0  1  0  0  0  0  0  0
  183.6020  174.6200  136.8610 C   0  0  0  0  0  0  0  0  0  0  0  0
  183.9410  175.0470  138.1480 O   0  0  0  0  0  1  0  0  0  0  0  0
  179.7570  177.2410  135.9380 O   0  0  0  0  0  1  0  0  0  0  0  0
  182.1880  175.1350  136.4620 C   0  0  1  0  0  0  0  0  0  0  0  0
  183.2660  177.1620  135.8110 O   0  0  0  0  0  1  0  0  0  0  0  0
  182.0290  176.5110  135.8680 C   0  0  1  0  0  0  0  0  0  0  0  0
  181.0180  177.4000  136.5310 C   0  0  2  0  0  0  0  0  0  0  0  0
  181.2750  174.1620  135.7080 C   0  0  0  0  0  1  0  0  0  0  0  0
  181.5750  176.2310  137.3620 C   0  0  2  0  0  0  0  0  0  0  0  0
  180.3570  175.5890  138.0330 C   0  0  0  0  0  0  0  0  0  0  0  0
  180.4840  174.5310  138.7080 O   0  0  0  0  0  1  0  0  0  0  0  0
  179.1350  176.2570  138.0840 O   0  0  0  0  0  0  0  0  0  0  0  0
  181.3720  178.8310  136.9790 C   0  0  1  0  0  3  0  0  0  0  0  0
  181.0250  179.7860  136.0160 O   0  0  0  0  0  1  0  0  0  0  0  0
  180.7160  179.1650  138.3110 C   0  0  0  0  0  2  0  0  0  0  0  0
  179.4820  179.7760  138.0950 O   0  0  0  0  0  1  0  0  0  0  0  0
  186.9550  176.5020  137.6710 C   0  0  0  0  0  2  0  0  0  0  0  0
  186.6130  177.9810  137.6380 C   0  0  0  0  0  2  0  0  0  0  0  0
  185.1620  178.1910  138.0180 C   0  0  0  0  0  2  0  0  0  0  0  0
  184.8220  180.1570  139.3230 O   0  0  0  0  0  0  0  0  0  0  0  0
  185.4620  178.2440  140.5130 N   0  0  0  0  0  2  0  0  0  0  0  0
  185.1080  178.9270  139.3090 C   0  0  0  0  0  0  0  0  0  0  0  0
  189.0970  177.6070  142.4670 C   0  0  0  0  0  3  0  0  0  0  0  0
  183.0590  178.8220  141.9520 C   0  0  0  0  0  3  0  0  0  0  0  0
  187.9830  177.6990  146.1170 C   0  0  0  0  0  2  0  0  0  0  0  0
  181.8710  178.7390  142.6820 C   0  0  0  0  0  3  0  0  0  0  0  0
  184.3400  178.6910  144.0060 C   0  0  0  0  0  0  0  0  0  0  0  0
  183.1460  178.6220  144.7330 C   0  0  0  0  0  3  0  0  0  0  0  0
  181.9140  178.6370  144.0730 C   0  0  0  0  0  3  0  0  0  0  0  0
  184.3050  178.7850  142.6000 C   0  0  0  0  0  0  0  0  0  0  0  0
  187.9580  178.0750  141.8190 C   0  0  0  0  0  3  0  0  0  0  0  0
  190.4050  177.1570  145.9900 C   0  0  1  0  0  3  0  0  0  0  0  0
  186.8070  178.2710  143.9500 C   0  0  0  0  0  0  0  0  0  0  0  0
  189.1090  177.4600  143.8530 C   0  0  0  0  0  0  0  0  0  0  0  0
  185.6310  178.7590  144.7570 C   0  0  0  0  0  2  0  0  0  0  0  0
  190.3420  176.8790  144.4900 C   0  0  0  0  0  2  0  0  0  0  0  0
  185.5870  178.9210  141.8030 C   0  0  1  0  0  3  0  0  0  0  0  0
  189.0800  176.7760  146.6400 C   0  0  0  0  0  2  0  0  0  0  0  0
  186.7980  178.3910  142.5420 C   0  0  0  0  0  0  0  0  0  0  0  0
  187.9540  177.7780  144.6080 C   0  0  0  0  0  0  0  0  0  0  0  0
  191.5350  176.4100  146.6190 C   0  0  0  0  0  0  0  0  0  0  0  0
  191.9470  176.7110  147.7710 O   0  0  0  0  0  1  0  0  0  0  0  0
  192.1450  175.3780  145.9190 O   0  0  0  0  0  0  0  0  0  0  0  0
  188.2800  175.5150  136.0080 C   0  0  0  0  0  2  0  0  0  0  0  0
  188.9930  175.1150  137.2900 C   0  0  0  0  0  2  0  0  0  0  0  0
  193.0730  176.4030  137.5820 C   0  0  0  0  0  3  0  0  0  0  0  0
  190.3740  175.6730  137.3150 C   0  0  0  0  0  0  0  0  0  0  0  0
  191.2840  175.2050  136.5090 N   0  0  0  0  0  0  0  0  0  0  0  0
  192.1550  176.6610  138.7430 C   0  0  0  0  0  2  0  0  0  0  0  0
  192.6420  175.6730  136.5500 C   0  0  0  0  0  3  0  0  0  0  0  0
  190.7070  176.7880  138.2680 C   0  0  0  0  0  2  0  0  0  0  0  0
  1  2  1  0  0  0  0
  1 21  1  0  0  0  0
  3  2  1  0  0  0  0
  3  5  1  0  0  0  0
  4  5  1  0  0  0  0
  5  6  1  0  0  0  0
  8 12  1  6  0  0  0
  8  5  1  0  0  0  0
  8 13  1  0  0  0  0
 10  9  1  1  0  0  0
 10  8  1  0  0  0  0
 10 11  1  0  0  0  0
 10 13  1  0  0  0  0
 11  7  1  6  0  0  0
 11 17  1  0  0  0  0
 11 13  1  0  0  0  0
 13 14  1  6  0  0  0
 14 16  2  0  0  0  0
 14 15  1  0  0  0  0
 17 18  1  6  0  0  0
 17 19  1  0  0  0  0
 20 19  1  0  0  0  0
 22 21  1  0  0  0  0
 22 23  1  0  0  0  0
 23 26  1  0  0  0  0
 26 24  2  0  0  0  0
 26 25  1  0  0  0  0
 27 38  1  0  0  0  0
 28 34  2  0  0  0  0
 28 30  1  0  0  0  0
 29 42  1  0  0  0  0
 30 33  2  0  0  0  0
 31 32  2  0  0  0  0
 31 39  1  0  0  0  0
 33 32  1  0  0  0  0
 34 31  1  0  0  0  0
 35 27  2  0  0  0  0
 35 43  1  0  0  0  0
 36 45  1  1  0  0  0
 36 42  1  0  0  0  0
 37 44  1  0  0  0  0
 37 39  1  0  0  0  0
 38 40  1  0  0  0  0
 38 44  2  0  0  0  0
 40 36  1  0  0  0  0
 41 25  1  6  0  0  0
 41 43  1  0  0  0  0
 41 34  1  0  0  0  0
 43 37  2  0  0  0  0
 44 29  1  0  0  0  0
 45 46  1  0  0  0  0
 47 45  2  0  0  0  0
 48  1  1  0  0  0  0
 48 49  1  0  0  0  0
 49 51  1  0  0  0  0
 50 53  1  0  0  0  0
 51 55  1  0  0  0  0
 52 54  1  0  0  0  0
 52 51  2  0  0  0  0
 54 50  2  0  0  0  0
 55 53  1  0  0  0  0
M  END
>  <MODEL>
6

>  <REMARK>
 VINA RESULT:      -7.8      3.835      7.676
  Name = 
  16 active torsions:
  status: ('A' for Active; 'I' for Inactive)
    1  A    between atoms: C_1  and  C_53
    2  A    between atoms: C_4  and  C_35
    3  A    between atoms: C_4  and  C_37
    4  A    between atoms: C_6  and  C_20
    5  A    between atoms: C_8  and  C_22
    6  A    between atoms: C_8  and  N_43
    7  A    between atoms: C_10  and  C_32
    8  A    between atoms: C_11  and  C_29
    9  A    between atoms: N_19  and  C_45
   10  A    between atoms: C_20  and  C_22
   11  A    between atoms: C_27  and  C_54
   12  A    between atoms: C_29  and  C_38
   13  A    between atoms: C_35  and  N_43
   14  A    between atoms: C_37  and  C_40
   15  A    between atoms: N_43  and  C_51
   16  A    between atoms: C_51  and  C_54
                            x       y       z     vdW  Elec       q    Type
                         _______ _______ _______ _____ _____    ______ ____

>  <TORSDO>
F 16

$$$$
=
 OpenBabel11052414573D

 55 61  0  0  1  0  0  0  0  0999 V2000
  188.2010  177.9420  138.2750 N   0  0  0  0  0  0  0  0  0  0  0  0
  188.5150  177.5200  136.9180 C   0  0  0  0  0  2  0  0  0  0  0  0
  189.9990  177.1850  136.8030 C   0  0  0  0  0  2  0  0  0  0  0  0
  189.0860  175.4880  135.3760 O   0  0  0  0  0  1  0  0  0  0  0  0
  190.2880  176.0630  135.8000 C   0  0  0  0  0  0  0  0  0  0  0  0
  190.9120  176.6330  134.6860 O   0  0  0  0  0  1  0  0  0  0  0  0
  193.8480  173.5690  137.6990 O   0  0  0  0  0  1  0  0  0  0  0  0
  191.1880  174.9630  136.4350 C   0  0  1  0  0  0  0  0  0  0  0  0
  192.3540  176.7420  137.5160 O   0  0  0  0  0  1  0  0  0  0  0  0
  192.2900  175.3500  137.3870 C   0  0  1  0  0  0  0  0  0  0  0  0
  193.6530  174.8070  137.0710 C   0  0  2  0  0  0  0  0  0  0  0  0
  190.4880  173.7090  136.9730 C   0  0  0  0  0  1  0  0  0  0  0  0
  192.6390  174.8750  135.9140 C   0  0  2  0  0  0  0  0  0  0  0  0
  192.7460  173.5260  135.1970 C   0  0  0  0  0  0  0  0  0  0  0  0
  193.8170  173.1940  134.6190 O   0  0  0  0  0  0  0  0  0  0  0  0
  191.7500  172.5610  135.3390 O   0  0  0  0  0  1  0  0  0  0  0  0
  194.8900  175.7230  136.9960 C   0  0  1  0  0  3  0  0  0  0  0  0
  196.0780  175.0250  137.2380 O   0  0  0  0  0  1  0  0  0  0  0  0
  194.9620  176.4340  135.6520 C   0  0  0  0  0  2  0  0  0  0  0  0
  196.2830  176.7640  135.3570 O   0  0  0  0  0  1  0  0  0  0  0  0
  186.8890  177.4040  138.6150 C   0  0  0  0  0  2  0  0  0  0  0  0
  185.9410  177.6090  137.4460 C   0  0  0  0  0  2  0  0  0  0  0  0
  184.5080  177.4140  137.8940 C   0  0  0  0  0  2  0  0  0  0  0  0
  184.5660  179.6220  138.7890 O   0  0  0  0  0  0  0  0  0  0  0  0
  183.5310  178.0070  140.1330 N   0  0  0  0  0  2  0  0  0  0  0  0
  184.1900  178.4260  138.9360 C   0  0  0  0  0  0  0  0  0  0  0  0
  186.6400  178.0400  142.9200 C   0  0  0  0  0  3  0  0  0  0  0  0
  180.8330  178.5870  140.8800 C   0  0  0  0  0  3  0  0  0  0  0  0
  184.7050  178.6280  146.1570 C   0  0  0  0  0  2  0  0  0  0  0  0
  179.5130  178.5160  141.3340 C   0  0  0  0  0  3  0  0  0  0  0  0
  181.6050  178.9160  143.1540 C   0  0  0  0  0  0  0  0  0  0  0  0
  180.2810  178.8570  143.6020 C   0  0  0  0  0  3  0  0  0  0  0  0
  179.2370  178.6480  142.6950 C   0  0  0  0  0  3  0  0  0  0  0  0
  181.8940  178.7730  141.7820 C   0  0  0  0  0  0  0  0  0  0  0  0
  185.6600  178.2870  141.9630 C   0  0  0  0  0  3  0  0  0  0  0  0
  187.1160  178.3000  146.6660 C   0  0  1  0  0  3  0  0  0  0  0  0
  184.0370  178.7230  143.7180 C   0  0  0  0  0  0  0  0  0  0  0  0
  186.3370  178.1250  144.2780 C   0  0  0  0  0  0  0  0  0  0  0  0
  182.6810  179.2260  144.1450 C   0  0  0  0  0  2  0  0  0  0  0  0
  187.4180  177.7740  145.2640 C   0  0  0  0  0  2  0  0  0  0  0  0
  183.3170  178.8950  141.2740 C   0  0  1  0  0  3  0  0  0  0  0  0
  185.6990  177.9090  147.0670 C   0  0  0  0  0  2  0  0  0  0  0  0
  184.3490  178.6090  142.3450 C   0  0  0  0  0  0  0  0  0  0  0  0
  185.0230  178.4540  144.6900 C   0  0  0  0  0  0  0  0  0  0  0  0
  188.1070  177.7740  147.6520 C   0  0  0  0  0  0  0  0  0  0  0  0
  187.7480  177.4440  148.8140 O   0  0  0  0  0  1  0  0  0  0  0  0
  189.4410  177.6600  147.2860 O   0  0  0  0  0  0  0  0  0  0  0  0
  189.1710  177.2910  139.1410 C   0  0  0  0  0  2  0  0  0  0  0  0
  189.4960  178.1930  140.3210 C   0  0  0  0  0  2  0  0  0  0  0  0
  191.2640  176.2470  143.7080 C   0  0  0  0  0  3  0  0  0  0  0  0
  190.1440  177.4120  141.4120 C   0  0  0  0  0  0  0  0  0  0  0  0
  189.4180  176.7160  142.2390 N   0  0  0  0  0  0  0  0  0  0  0  0
  192.0420  177.3290  143.0170 C   0  0  0  0  0  2  0  0  0  0  0  0
  190.0020  176.0040  143.3420 C   0  0  0  0  0  3  0  0  0  0  0  0
  191.6420  177.4250  141.5440 C   0  0  0  0  0  2  0  0  0  0  0  0
  1 21  1  0  0  0  0
  1 48  1  0  0  0  0
  2  1  1  0  0  0  0
  3  2  1  0  0  0  0
  4  5  1  0  0  0  0
  5  8  1  0  0  0  0
  5  3  1  0  0  0  0
  6  5  1  0  0  0  0
  8 12  1  1  0  0  0
  8 10  1  0  0  0  0
 10  9  1  1  0  0  0
 11 10  1  0  0  0  0
 11  7  1  1  0  0  0
 13 14  1  1  0  0  0
 13  8  1  0  0  0  0
 13 11  1  0  0  0  0
 13 10  1  0  0  0  0
 14 16  1  0  0  0  0
 15 14  2  0  0  0  0
 17 11  1  0  0  0  0
 17 18  1  6  0  0  0
 19 17  1  0  0  0  0
 20 19  1  0  0  0  0
 22 23  1  0  0  0  0
 22 21  1  0  0  0  0
 23 26  1  0  0  0  0
 24 26  2  0  0  0  0
 26 25  1  0  0  0  0
 27 38  1  0  0  0  0
 28 30  2  0  0  0  0
 28 34  1  0  0  0  0
 29 42  1  0  0  0  0
 30 33  1  0  0  0  0
 31 32  1  0  0  0  0
 31 39  1  0  0  0  0
 33 32  2  0  0  0  0
 34 31  2  0  0  0  0
 35 43  1  0  0  0  0
 35 27  2  0  0  0  0
 36 42  1  0  0  0  0
 36 45  1  1  0  0  0
 37 39  1  0  0  0  0
 37 44  1  0  0  0  0
 38 44  2  0  0  0  0
 38 40  1  0  0  0  0
 40 36  1  0  0  0  0
 41 25  1  6  0  0  0
 41 34  1  0  0  0  0
 41 43  1  0  0  0  0
 43 37  2  0  0  0  0
 44 29  1  0  0  0  0
 45 46  1  0  0  0  0
 47 45  2  0  0  0  0
 48 49  1  0  0  0  0
 49 51  1  0  0  0  0
 51 55  1  0  0  0  0
 51 52  2  0  0  0  0
 52 54  1  0  0  0  0
 53 50  1  0  0  0  0
 54 50  2  0  0  0  0
 55 53  1  0  0  0  0
M  END
>  <MODEL>
7

>  <REMARK>
 VINA RESULT:      -7.8      1.163      2.132
  Name = 
  16 active torsions:
  status: ('A' for Active; 'I' for Inactive)
    1  A    between atoms: C_1  and  C_53
    2  A    between atoms: C_4  and  C_35
    3  A    between atoms: C_4  and  C_37
    4  A    between atoms: C_6  and  C_20
    5  A    between atoms: C_8  and  C_22
    6  A    between atoms: C_8  and  N_43
    7  A    between atoms: C_10  and  C_32
    8  A    between atoms: C_11  and  C_29
    9  A    between atoms: N_19  and  C_45
   10  A    between atoms: C_20  and  C_22
   11  A    between atoms: C_27  and  C_54
   12  A    between atoms: C_29  and  C_38
   13  A    between atoms: C_35  and  N_43
   14  A    between atoms: C_37  and  C_40
   15  A    between atoms: N_43  and  C_51
   16  A    between atoms: C_51  and  C_54
                            x       y       z     vdW  Elec       q    Type
                         _______ _______ _______ _____ _____    ______ ____

>  <TORSDO>
F 16

$$$$
=
 OpenBabel11052414573D

 55 61  0  0  1  0  0  0  0  0999 V2000
  189.7450  177.8590  138.8140 N   0  0  0  0  0  0  0  0  0  0  0  0
  190.5850  177.5180  137.6750 C   0  0  0  0  0  2  0  0  0  0  0  0
  191.7130  176.5890  138.1140 C   0  0  0  0  0  2  0  0  0  0  0  0
  192.0650  176.4850  135.7440 O   0  0  0  0  0  1  0  0  0  0  0  0
  192.6740  176.2270  136.9770 C   0  0  0  0  0  0  0  0  0  0  0  0
  193.7980  177.0520  137.0850 O   0  0  0  0  0  1  0  0  0  0  0  0
  194.9920  172.1080  137.3760 O   0  0  0  0  0  1  0  0  0  0  0  0
  193.0810  174.7260  137.0440 C   0  0  1  0  0  0  0  0  0  0  0  0
  194.7860  175.4040  138.5710 O   0  0  0  0  0  1  0  0  0  0  0  0
  194.2160  174.2940  137.9370 C   0  0  1  0  0  0  0  0  0  0  0  0
  195.2900  173.4750  137.2840 C   0  0  2  0  0  0  0  0  0  0  0  0
  191.9490  173.6970  137.1500 C   0  0  0  0  0  1  0  0  0  0  0  0
  194.4140  174.3430  136.3640 C   0  0  2  0  0  0  0  0  0  0  0  0
  194.0380  173.4380  135.1860 C   0  0  0  0  0  0  0  0  0  0  0  0
  192.9320  173.5860  134.5970 O   0  0  0  0  0  0  0  0  0  0  0  0
  194.9770  172.5810  134.6160 O   0  0  0  0  0  1  0  0  0  0  0  0
  196.7800  173.8460  137.4160 C   0  0  1  0  0  3  0  0  0  0  0  0
  197.5860  172.7230  137.6340 O   0  0  0  0  0  1  0  0  0  0  0  0
  197.2620  174.6100  136.1910 C   0  0  0  0  0  2  0  0  0  0  0  0
  198.0740  175.6740  136.5810 O   0  0  0  0  0  1  0  0  0  0  0  0
  188.4980  177.1140  138.6850 C   0  0  0  0  0  2  0  0  0  0  0  0
  188.1450  176.9740  137.2150 C   0  0  0  0  0  2  0  0  0  0  0  0
  186.6610  176.7200  137.0550 C   0  0  0  0  0  2  0  0  0  0  0  0
  186.3430  179.0120  137.6290 O   0  0  0  0  0  0  0  0  0  0  0  0
  184.7550  177.5190  138.4880 N   0  0  0  0  0  2  0  0  0  0  0  0
  185.9130  177.8270  137.7080 C   0  0  0  0  0  0  0  0  0  0  0  0
  186.5120  178.3430  142.1850 C   0  0  0  0  0  3  0  0  0  0  0  0
  181.9460  177.8300  138.0520 C   0  0  0  0  0  3  0  0  0  0  0  0
  183.4260  179.1010  144.3010 C   0  0  0  0  0  2  0  0  0  0  0  0
  180.5630  177.6460  137.9820 C   0  0  0  0  0  3  0  0  0  0  0  0
  181.7410  178.5640  140.3530 C   0  0  0  0  0  0  0  0  0  0  0  0
  180.3540  178.3900  140.2730 C   0  0  0  0  0  3  0  0  0  0  0  0
  179.7670  177.9240  139.0940 C   0  0  0  0  0  3  0  0  0  0  0  0
  182.5530  178.2770  139.2380 C   0  0  0  0  0  0  0  0  0  0  0  0
  185.9710  178.3260  140.9030 C   0  0  0  0  0  3  0  0  0  0  0  0
  185.4610  179.1690  145.7260 C   0  0  1  0  0  3  0  0  0  0  0  0
  183.7630  178.7750  141.8130 C   0  0  0  0  0  0  0  0  0  0  0  0
  185.6960  178.5700  143.2920 C   0  0  0  0  0  0  0  0  0  0  0  0
  182.3170  179.1460  141.6040 C   0  0  0  0  0  2  0  0  0  0  0  0
  186.3250  178.5030  144.6560 C   0  0  0  0  0  2  0  0  0  0  0  0
  184.0480  178.5170  139.2890 C   0  0  1  0  0  3  0  0  0  0  0  0
  184.0320  178.6510  145.6280 C   0  0  0  0  0  2  0  0  0  0  0  0
  184.5960  178.5190  140.7010 C   0  0  0  0  0  0  0  0  0  0  0  0
  184.3060  178.7740  143.1160 C   0  0  0  0  0  0  0  0  0  0  0  0
  186.0210  178.9180  147.0880 C   0  0  0  0  0  0  0  0  0  0  0  0
  185.8030  179.7230  148.0330 O   0  0  0  0  0  1  0  0  0  0  0  0
  186.7990  177.7900  147.3110 O   0  0  0  0  0  0  0  0  0  0  0  0
  190.4290  177.3520  139.9930 C   0  0  0  0  0  2  0  0  0  0  0  0
  189.4100  176.9550  141.0490 C   0  0  0  0  0  2  0  0  0  0  0  0
  190.9440  177.5600  145.0080 C   0  0  0  0  0  3  0  0  0  0  0  0
  190.0080  177.0430  142.4110 C   0  0  0  0  0  0  0  0  0  0  0  0
  189.2980  176.7370  143.4590 N   0  0  0  0  0  0  0  0  0  0  0  0
  191.6150  178.2650  143.8630 C   0  0  0  0  0  2  0  0  0  0  0  0
  189.8200  176.8720  144.7910 C   0  0  0  0  0  3  0  0  0  0  0  0
  191.4400  177.4750  142.5660 C   0  0  0  0  0  2  0  0  0  0  0  0
  1 48  1  0  0  0  0
  2  3  1  0  0  0  0
  2  1  1  0  0  0  0
  4  5  1  0  0  0  0
  5  8  1  0  0  0  0
  5  6  1  0  0  0  0
  5  3  1  0  0  0  0
  8 12  1  6  0  0  0
  8 10  1  0  0  0  0
 10  9  1  1  0  0  0
 11  7  1  6  0  0  0
 11 17  1  0  0  0  0
 11 10  1  0  0  0  0
 13 14  1  1  0  0  0
 13  8  1  0  0  0  0
 13 11  1  0  0  0  0
 13 10  1  0  0  0  0
 15 14  2  0  0  0  0
 16 14  1  0  0  0  0
 17 18  1  6  0  0  0
 19 20  1  0  0  0  0
 19 17  1  0  0  0  0
 21  1  1  0  0  0  0
 22 21  1  0  0  0  0
 23 22  1  0  0  0  0
 23 26  1  0  0  0  0
 24 26  2  0  0  0  0
 26 25  1  0  0  0  0
 27 38  1  0  0  0  0
 28 34  1  0  0  0  0
 29 42  1  0  0  0  0
 30 28  2  0  0  0  0
 30 33  1  0  0  0  0
 31 39  1  0  0  0  0
 32 31  1  0  0  0  0
 33 32  2  0  0  0  0
 34 41  1  0  0  0  0
 34 31  2  0  0  0  0
 35 27  2  0  0  0  0
 36 45  1  1  0  0  0
 37 44  1  0  0  0  0
 38 40  1  0  0  0  0
 39 37  1  0  0  0  0
 40 36  1  0  0  0  0
 41 25  1  6  0  0  0
 41 43  1  0  0  0  0
 42 36  1  0  0  0  0
 43 35  1  0  0  0  0
 43 37  2  0  0  0  0
 44 38  2  0  0  0  0
 44 29  1  0  0  0  0
 45 47  2  0  0  0  0
 45 46  1  0  0  0  0
 48 49  1  0  0  0  0
 49 51  1  0  0  0  0
 51 55  1  0  0  0  0
 51 52  2  0  0  0  0
 52 54  1  0  0  0  0
 53 50  1  0  0  0  0
 54 50  2  0  0  0  0
 55 53  1  0  0  0  0
M  END
>  <MODEL>
8

>  <REMARK>
 VINA RESULT:      -7.4      1.671      2.781
  Name = 
  16 active torsions:
  status: ('A' for Active; 'I' for Inactive)
    1  A    between atoms: C_1  and  C_53
    2  A    between atoms: C_4  and  C_35
    3  A    between atoms: C_4  and  C_37
    4  A    between atoms: C_6  and  C_20
    5  A    between atoms: C_8  and  C_22
    6  A    between atoms: C_8  and  N_43
    7  A    between atoms: C_10  and  C_32
    8  A    between atoms: C_11  and  C_29
    9  A    between atoms: N_19  and  C_45
   10  A    between atoms: C_20  and  C_22
   11  A    between atoms: C_27  and  C_54
   12  A    between atoms: C_29  and  C_38
   13  A    between atoms: C_35  and  N_43
   14  A    between atoms: C_37  and  C_40
   15  A    between atoms: N_43  and  C_51
   16  A    between atoms: C_51  and  C_54
                            x       y       z     vdW  Elec       q    Type
                         _______ _______ _______ _____ _____    ______ ____

>  <TORSDO>
F 16

$$$$
=
 OpenBabel11052414573D

 55 61  0  0  1  0  0  0  0  0999 V2000
  190.2020  176.3670  137.3240 N   0  0  0  0  0  0  0  0  0  0  0  0
  191.2890  176.8130  136.4640 C   0  0  0  0  0  2  0  0  0  0  0  0
  192.0430  175.6110  135.9040 C   0  0  0  0  0  2  0  0  0  0  0  0
  194.1100  176.0100  134.7560 O   0  0  0  0  0  1  0  0  0  0  0  0
  193.5650  175.7480  136.0170 C   0  0  0  0  0  0  0  0  0  0  0  0
  193.8380  176.8430  136.8430 O   0  0  0  0  0  1  0  0  0  0  0  0
  196.4630  172.1760  137.1750 O   0  0  0  0  0  1  0  0  0  0  0  0
  194.2030  174.4500  136.5920 C   0  0  1  0  0  0  0  0  0  0  0  0
  196.2780  175.6300  136.5670 O   0  0  0  0  0  1  0  0  0  0  0  0
  195.6770  174.4130  136.9100 C   0  0  1  0  0  0  0  0  0  0  0  0
  196.4500  173.2770  136.3080 C   0  0  2  0  0  0  0  0  0  0  0  0
  193.4390  173.7280  137.7080 C   0  0  0  0  0  1  0  0  0  0  0  0
  195.1160  173.6500  135.6370 C   0  0  2  0  0  0  0  0  0  0  0  0
  194.3990  172.3200  135.3880 C   0  0  0  0  0  0  0  0  0  0  0  0
  193.3670  172.2780  134.6630 O   0  0  0  0  0  0  0  0  0  0  0  0
  194.9750  171.1130  135.7810 O   0  0  0  0  0  1  0  0  0  0  0  0
  197.7470  173.5170  135.5090 C   0  0  1  0  0  3  0  0  0  0  0  0
  198.8400  173.7740  136.3440 O   0  0  0  0  0  1  0  0  0  0  0  0
  198.0490  172.3390  134.5940 C   0  0  0  0  0  2  0  0  0  0  0  0
  198.4090  171.2260  135.3510 O   0  0  0  0  0  1  0  0  0  0  0  0
  190.6920  176.3750  138.6970 C   0  0  0  0  0  2  0  0  0  0  0  0
  190.1240  177.5800  139.4270 C   0  0  0  0  0  2  0  0  0  0  0  0
  190.8330  177.7720  140.7510 C   0  0  0  0  0  2  0  0  0  0  0  0
  190.3070  175.9510  142.1970 O   0  0  0  0  0  0  0  0  0  0  0  0
  188.8980  177.8150  142.3560 N   0  0  0  0  0  2  0  0  0  0  0  0
  190.0290  177.1240  141.8220 C   0  0  0  0  0  0  0  0  0  0  0  0
  184.8690  178.3480  141.3990 C   0  0  0  0  0  3  0  0  0  0  0  0
  189.7700  177.4490  145.0550 C   0  0  0  0  0  3  0  0  0  0  0  0
  183.3120  178.5070  144.8810 C   0  0  0  0  0  2  0  0  0  0  0  0
  190.1860  177.6360  146.3760 C   0  0  0  0  0  3  0  0  0  0  0  0
  187.4540  177.6130  145.7520 C   0  0  0  0  0  0  0  0  0  0  0  0
  187.8760  177.7870  147.0750 C   0  0  0  0  0  3  0  0  0  0  0  0
  189.2390  177.8070  147.3860 C   0  0  0  0  0  3  0  0  0  0  0  0
  188.4040  177.4490  144.7240 C   0  0  0  0  0  0  0  0  0  0  0  0
  186.1580  177.9110  141.6920 C   0  0  0  0  0  3  0  0  0  0  0  0
  181.5650  178.9040  143.1600 C   0  0  1  0  0  3  0  0  0  0  0  0
  185.6270  177.8910  144.0630 C   0  0  0  0  0  0  0  0  0  0  0  0
  183.9490  178.5650  142.4230 C   0  0  0  0  0  0  0  0  0  0  0  0
  185.9880  177.5120  145.4770 C   0  0  0  0  0  2  0  0  0  0  0  0
  182.5960  179.1080  142.0510 C   0  0  0  0  0  2  0  0  0  0  0  0
  187.9630  177.2000  143.2960 C   0  0  1  0  0  3  0  0  0  0  0  0
  182.1340  179.3920  144.4860 C   0  0  0  0  0  2  0  0  0  0  0  0
  186.5600  177.6990  143.0200 C   0  0  0  0  0  0  0  0  0  0  0  0
  184.3260  178.3520  143.7710 C   0  0  0  0  0  0  0  0  0  0  0  0
  180.2940  179.6190  142.8360 C   0  0  0  0  0  0  0  0  0  0  0  0
  180.2470  180.8780  142.8210 O   0  0  0  0  0  1  0  0  0  0  0  0
  179.1480  178.8850  142.5590 O   0  0  0  0  0  0  0  0  0  0  0  0
  189.1640  177.3810  137.2300 C   0  0  0  0  0  2  0  0  0  0  0  0
  188.1570  176.9890  136.1600 C   0  0  0  0  0  2  0  0  0  0  0  0
  185.0440  174.3170  137.4100 C   0  0  0  0  0  3  0  0  0  0  0  0
  187.1310  176.0660  136.7220 C   0  0  0  0  0  0  0  0  0  0  0  0
  187.2420  174.7800  136.5480 N   0  0  0  0  0  0  0  0  0  0  0  0
  184.7230  175.7790  137.2750 C   0  0  0  0  0  2  0  0  0  0  0  0
  186.2390  173.8650  137.0180 C   0  0  0  0  0  3  0  0  0  0  0  0
  185.9740  176.6290  137.5010 C   0  0  0  0  0  2  0  0  0  0  0  0
  1 21  1  0  0  0  0
  2  1  1  0  0  0  0
  3  5  1  0  0  0  0
  3  2  1  0  0  0  0
  4  5  1  0  0  0  0
  5  8  1  0  0  0  0
  5  6  1  0  0  0  0
  8 10  1  0  0  0  0
  8 12  1  1  0  0  0
 10  9  1  6  0  0  0
 11 10  1  0  0  0  0
 11  7  1  1  0  0  0
 13 14  1  1  0  0  0
 13 11  1  0  0  0  0
 13  8  1  0  0  0  0
 13 10  1  0  0  0  0
 14 16  1  0  0  0  0
 15 14  2  0  0  0  0
 17 11  1  0  0  0  0
 17 18  1  1  0  0  0
 19 20  1  0  0  0  0
 19 17  1  0  0  0  0
 21 22  1  0  0  0  0
 22 23  1  0  0  0  0
 23 26  1  0  0  0  0
 26 24  2  0  0  0  0
 26 25  1  0  0  0  0
 27 35  2  0  0  0  0
 27 38  1  0  0  0  0
 28 30  1  0  0  0  0
 30 33  2  0  0  0  0
 31 32  2  0  0  0  0
 32 33  1  0  0  0  0
 34 28  2  0  0  0  0
 34 31  1  0  0  0  0
 35 43  1  0  0  0  0
 36 45  1  6  0  0  0
 36 42  1  0  0  0  0
 37 39  1  0  0  0  0
 38 44  2  0  0  0  0
 39 31  1  0  0  0  0
 40 38  1  0  0  0  0
 40 36  1  0  0  0  0
 41 25  1  6  0  0  0
 41 34  1  0  0  0  0
 42 29  1  0  0  0  0
 43 41  1  0  0  0  0
 43 37  2  0  0  0  0
 44 37  1  0  0  0  0
 44 29  1  0  0  0  0
 46 45  1  0  0  0  0
 47 45  2  0  0  0  0
 48  1  1  0  0  0  0
 49 51  1  0  0  0  0
 49 48  1  0  0  0  0
 51 55  1  0  0  0  0
 52 51  2  0  0  0  0
 52 54  1  0  0  0  0
 53 50  1  0  0  0  0
 53 55  1  0  0  0  0
 54 50  2  0  0  0  0
M  END
>  <MODEL>
9

>  <REMARK>
 VINA RESULT:      -7.3      2.300      5.969
  Name = 
  16 active torsions:
  status: ('A' for Active; 'I' for Inactive)
    1  A    between atoms: C_1  and  C_53
    2  A    between atoms: C_4  and  C_35
    3  A    between atoms: C_4  and  C_37
    4  A    between atoms: C_6  and  C_20
    5  A    between atoms: C_8  and  C_22
    6  A    between atoms: C_8  and  N_43
    7  A    between atoms: C_10  and  C_32
    8  A    between atoms: C_11  and  C_29
    9  A    between atoms: N_19  and  C_45
   10  A    between atoms: C_20  and  C_22
   11  A    between atoms: C_27  and  C_54
   12  A    between atoms: C_29  and  C_38
   13  A    between atoms: C_35  and  N_43
   14  A    between atoms: C_37  and  C_40
   15  A    between atoms: N_43  and  C_51
   16  A    between atoms: C_51  and  C_54
                            x       y       z     vdW  Elec       q    Type
                         _______ _______ _______ _____ _____    ______ ____

>  <TORSDO>
F 16

$$$$
