=
 OpenBabel11052416433D

 43 47  0  0  1  0  0  0  0  0999 V2000
  190.0060  177.3610  141.6430 N   0  0  0  0  0  0  0  0  0  0  0  0
  191.8700  175.8800  146.2060 C   0  0  0  0  0  0  0  0  0  0  0  0
  191.2810  177.7500  144.8240 C   0  0  0  0  0  0  0  0  0  0  0  0
  191.9990  175.0840  145.0500 C   0  0  0  0  0  3  0  0  0  0  0  0
  192.1200  175.2870  147.5450 C   0  0  0  0  0  1  0  0  0  0  0  0
  191.3790  176.9740  143.7040 C   0  0  0  0  0  0  0  0  0  0  0  0
  191.5110  177.2330  146.0970 C   0  0  0  0  0  3  0  0  0  0  0  0
  191.7600  175.6330  143.7800 C   0  0  0  0  0  3  0  0  0  0  0  0
  191.1260  177.8160  142.4950 C   0  0  2  0  0  3  0  0  0  0  0  0
  190.8430  179.2110  143.0980 C   0  0  0  0  0  2  0  0  0  0  0  0
  190.9650  179.0530  144.5120 O   0  0  0  0  0  0  0  0  0  0  0  0
  188.7140  177.8770  142.1230 C   0  0  1  0  0  3  0  0  0  0  0  0
  187.9400  178.3230  141.0450 O   0  0  0  0  0  1  0  0  0  0  0  0
  187.9350  176.7940  142.8660 C   0  0  0  0  0  2  0  0  0  0  0  0
  187.1070  177.9270  146.3840 C   0  0  0  0  0  0  0  0  0  0  0  0
  185.8500  178.5160  146.1950 C   0  0  0  0  0  0  0  0  0  0  0  0
  185.1710  179.0800  147.2680 O   0  0  0  0  0  1  0  0  0  0  0  0
  185.9510  177.9710  143.8360 C   0  0  0  0  0  3  0  0  0  0  0  0
  187.7830  177.3610  145.2990 C   0  0  0  0  0  3  0  0  0  0  0  0
  187.2040  177.3790  144.0250 C   0  0  0  0  0  0  0  0  0  0  0  0
  187.6750  177.9050  147.6150 F   0  0  0  0  0  0  0  0  0  0  0  0
  185.2740  178.5370  144.9200 C   0  0  0  0  0  3  0  0  0  0  0  0
  190.2360  177.6040  140.2020 C   0  0  0  0  0  2  0  0  0  0  0  0
  189.8230  176.4350  139.2980 C   0  0  0  0  0  2  0  0  0  0  0  0
  189.1110  176.8970  138.0280 C   0  0  2  0  0  3  0  0  0  0  0  0
  189.1620  178.4070  137.8800 C   0  0  0  0  0  1  0  0  0  0  0  0
  187.6670  176.4100  137.9830 C   0  0  0  0  0  2  0  0  0  0  0  0
  185.7250  177.5370  136.7610 N   0  0  0  0  0  2  0  0  0  0  0  0
  186.9570  176.8080  136.7210 C   0  0  0  0  0  0  0  0  0  0  0  0
  187.4500  176.5170  135.5990 O   0  0  0  0  0  0  0  0  0  0  0  0
  184.8640  177.7180  137.8950 C   0  0  0  0  0  0  0  0  0  0  0  0
  182.9700  177.0860  139.3910 N   0  0  0  0  0  2  0  0  0  0  0  0
  184.9870  178.8540  138.5890 C   0  0  0  0  0  3  0  0  0  0  0  0
  184.1700  179.1410  139.8120 C   0  0  0  0  0  2  0  0  0  0  0  0
  183.9210  176.6190  138.3720 C   0  0  1  0  0  3  0  0  0  0  0  0
  183.6780  177.8380  140.4200 C   0  0  0  0  0  2  0  0  0  0  0  0
  183.1370  176.0500  137.1940 C   0  0  0  0  0  2  0  0  0  0  0  0
  183.2960  174.5680  137.1140 C   0  0  0  0  0  0  0  0  0  0  0  0
  183.5630  171.8100  136.9840 C   0  0  0  0  0  3  0  0  0  0  0  0
  182.4020  172.4440  136.5370 C   0  0  0  0  0  3  0  0  0  0  0  0
  184.6030  172.5820  137.5050 C   0  0  0  0  0  3  0  0  0  0  0  0
  182.2920  173.7970  136.6110 N   0  0  0  0  0  0  0  0  0  0  0  0
  184.4720  173.9710  137.5720 C   0  0  0  0  0  3  0  0  0  0  0  0
  1 12  1  0  0  0  0
  2  5  1  0  0  0  0
  3  7  2  0  0  0  0
  4  2  2  0  0  0  0
  6  8  2  0  0  0  0
  6  3  1  0  0  0  0
  7  2  1  0  0  0  0
  8  4  1  0  0  0  0
  9  1  1  1  0  0  0
  9 10  1  0  0  0  0
  9  6  1  0  0  0  0
 10 11  1  0  0  0  0
 11  3  1  0  0  0  0
 12 13  1  6  0  0  0
 12 14  1  0  0  0  0
 14 20  1  0  0  0  0
 15 21  1  0  0  0  0
 16 15  1  0  0  0  0
 16 17  1  0  0  0  0
 18 20  2  0  0  0  0
 18 22  1  0  0  0  0
 19 15  2  0  0  0  0
 20 19  1  0  0  0  0
 22 16  2  0  0  0  0
 23  1  1  0  0  0  0
 24 23  1  0  0  0  0
 25 26  1  1  0  0  0
 25 24  1  0  0  0  0
 27 25  1  0  0  0  0
 28 31  1  0  0  0  0
 29 28  1  0  0  0  0
 29 27  1  0  0  0  0
 30 29  2  0  0  0  0
 31 35  1  0  0  0  0
 31 33  2  0  0  0  0
 32 36  1  0  0  0  0
 33 34  1  0  0  0  0
 34 36  1  0  0  0  0
 35 37  1  6  0  0  0
 35 32  1  0  0  0  0
 38 37  1  0  0  0  0
 38 43  1  0  0  0  0
 39 41  1  0  0  0  0
 40 42  1  0  0  0  0
 40 39  2  0  0  0  0
 41 43  2  0  0  0  0
 42 38  2  0  0  0  0
M  END
>  <MODEL>
1

>  <REMARK>
 VINA RESULT:      -8.6      0.000      0.000
  Name = 
  12 active torsions:
  status: ('A' for Active; 'I' for Inactive)
    1  A    between atoms: C_1  and  C_34
    2  A    between atoms: C_1  and  C_35
    3  A    between atoms: C_2  and  C_6
    4  A    between atoms: C_2  and  C_13
    5  A    between atoms: N_3  and  C_4
    6  A    between atoms: C_6  and  C_12
    7  A    between atoms: N_8  and  C_27
    8  A    between atoms: N_8  and  C_30
    9  A    between atoms: N_8  and  C_34
   10  A    between atoms: C_11  and  C_14
   11  A    between atoms: C_13  and  C_27
   12  A    between atoms: C_14  and  C_41
                            x       y       z     vdW  Elec       q    Type
                         _______ _______ _______ _____ _____    ______ ____

>  <TORSDO>
F 12

$$$$
=
 OpenBabel11052416433D

 43 47  0  0  1  0  0  0  0  0999 V2000
  190.1830  177.3100  141.6940 N   0  0  0  0  0  0  0  0  0  0  0  0
  191.9090  175.8750  146.3260 C   0  0  0  0  0  0  0  0  0  0  0  0
  191.2870  177.7270  144.9350 C   0  0  0  0  0  0  0  0  0  0  0  0
  192.1340  175.1010  145.1700 C   0  0  0  0  0  3  0  0  0  0  0  0
  192.1280  175.2800  147.6690 C   0  0  0  0  0  1  0  0  0  0  0  0
  191.4780  176.9710  143.8140 C   0  0  0  0  0  0  0  0  0  0  0  0
  191.4850  177.2090  146.2130 C   0  0  0  0  0  3  0  0  0  0  0  0
  191.9250  175.6520  143.8950 C   0  0  0  0  0  3  0  0  0  0  0  0
  191.2370  177.8130  142.6020 C   0  0  2  0  0  3  0  0  0  0  0  0
  190.8520  179.1840  143.2050 C   0  0  0  0  0  2  0  0  0  0  0  0
  190.9160  179.0160  144.6210 O   0  0  0  0  0  0  0  0  0  0  0  0
  188.8490  177.7890  142.0920 C   0  0  1  0  0  3  0  0  0  0  0  0
  188.1000  178.1290  140.9600 O   0  0  0  0  0  1  0  0  0  0  0  0
  188.0930  176.7160  142.8720 C   0  0  0  0  0  2  0  0  0  0  0  0
  187.1470  177.9300  146.3330 C   0  0  0  0  0  0  0  0  0  0  0  0
  185.9000  178.5180  146.0870 C   0  0  0  0  0  0  0  0  0  0  0  0
  185.1860  179.1080  147.1230 O   0  0  0  0  0  1  0  0  0  0  0  0
  186.0800  177.9200  143.7460 C   0  0  0  0  0  3  0  0  0  0  0  0
  187.8590  177.3380  145.2850 C   0  0  0  0  0  3  0  0  0  0  0  0
  187.3240  177.3290  143.9920 C   0  0  0  0  0  0  0  0  0  0  0  0
  187.6720  177.9340  147.5830 F   0  0  0  0  0  0  0  0  0  0  0  0
  185.3680  178.5120  144.7930 C   0  0  0  0  0  3  0  0  0  0  0  0
  190.4880  177.5420  140.2660 C   0  0  0  0  0  2  0  0  0  0  0  0
  190.6630  176.2550  139.4480 C   0  0  0  0  0  2  0  0  0  0  0  0
  191.3820  176.4950  138.1210 C   0  0  2  0  0  3  0  0  0  0  0  0
  190.4020  176.5650  136.9640 C   0  0  0  0  0  1  0  0  0  0  0  0
  192.4410  175.4320  137.8540 C   0  0  0  0  0  2  0  0  0  0  0  0
  194.2980  175.1110  136.1260 N   0  0  0  0  0  2  0  0  0  0  0  0
  193.5990  175.9520  137.0510 C   0  0  0  0  0  0  0  0  0  0  0  0
  193.9620  177.1520  137.1700 O   0  0  0  0  0  0  0  0  0  0  0  0
  194.2390  173.6800  136.0440 C   0  0  0  0  0  0  0  0  0  0  0  0
  195.0790  171.3750  136.4980 N   0  0  0  0  0  2  0  0  0  0  0  0
  193.2980  173.1440  135.2600 C   0  0  0  0  0  3  0  0  0  0  0  0
  193.1150  171.6640  135.1220 C   0  0  0  0  0  2  0  0  0  0  0  0
  195.1310  172.7880  136.9010 C   0  0  1  0  0  3  0  0  0  0  0  0
  193.6920  170.9580  136.3370 C   0  0  0  0  0  2  0  0  0  0  0  0
  196.5780  173.2650  136.8300 C   0  0  0  0  0  2  0  0  0  0  0  0
  196.9550  174.0120  138.0660 C   0  0  0  0  0  0  0  0  0  0  0  0
  197.6800  175.3750  140.3700 C   0  0  0  0  0  3  0  0  0  0  0  0
  198.5960  175.1680  139.3360 C   0  0  0  0  0  3  0  0  0  0  0  0
  196.3800  174.8850  140.2370 C   0  0  0  0  0  3  0  0  0  0  0  0
  198.2190  174.4960  138.2160 N   0  0  0  0  0  0  0  0  0  0  0  0
  196.0110  174.1980  139.0780 C   0  0  0  0  0  3  0  0  0  0  0  0
  1 12  1  0  0  0  0
  2  5  1  0  0  0  0
  3  7  2  0  0  0  0
  4  2  2  0  0  0  0
  6  8  2  0  0  0  0
  6  3  1  0  0  0  0
  7  2  1  0  0  0  0
  8  4  1  0  0  0  0
  9  1  1  1  0  0  0
  9 10  1  0  0  0  0
  9  6  1  0  0  0  0
 10 11  1  0  0  0  0
 11  3  1  0  0  0  0
 12 13  1  6  0  0  0
 12 14  1  0  0  0  0
 14 20  1  0  0  0  0
 15 21  1  0  0  0  0
 16 15  1  0  0  0  0
 16 17  1  0  0  0  0
 18 20  2  0  0  0  0
 18 22  1  0  0  0  0
 19 15  2  0  0  0  0
 20 19  1  0  0  0  0
 22 16  2  0  0  0  0
 23  1  1  0  0  0  0
 24 23  1  0  0  0  0
 25 26  1  6  0  0  0
 25 24  1  0  0  0  0
 27 25  1  0  0  0  0
 28 29  1  0  0  0  0
 29 30  2  0  0  0  0
 29 27  1  0  0  0  0
 31 28  1  0  0  0  0
 31 35  1  0  0  0  0
 32 35  1  0  0  0  0
 33 31  2  0  0  0  0
 34 33  1  0  0  0  0
 34 36  1  0  0  0  0
 35 37  1  6  0  0  0
 36 32  1  0  0  0  0
 37 38  1  0  0  0  0
 38 42  2  0  0  0  0
 38 43  1  0  0  0  0
 40 39  2  0  0  0  0
 41 39  1  0  0  0  0
 42 40  1  0  0  0  0
 43 41  2  0  0  0  0
M  END
>  <MODEL>
2

>  <REMARK>
 VINA RESULT:      -8.5      4.449      7.625
  Name = 
  12 active torsions:
  status: ('A' for Active; 'I' for Inactive)
    1  A    between atoms: C_1  and  C_34
    2  A    between atoms: C_1  and  C_35
    3  A    between atoms: C_2  and  C_6
    4  A    between atoms: C_2  and  C_13
    5  A    between atoms: N_3  and  C_4
    6  A    between atoms: C_6  and  C_12
    7  A    between atoms: N_8  and  C_27
    8  A    between atoms: N_8  and  C_30
    9  A    between atoms: N_8  and  C_34
   10  A    between atoms: C_11  and  C_14
   11  A    between atoms: C_13  and  C_27
   12  A    between atoms: C_14  and  C_41
                            x       y       z     vdW  Elec       q    Type
                         _______ _______ _______ _____ _____    ______ ____

>  <TORSDO>
F 12

$$$$
=
 OpenBabel11052416433D

 43 47  0  0  1  0  0  0  0  0999 V2000
  190.1500  177.3770  141.7070 N   0  0  0  0  0  0  0  0  0  0  0  0
  191.8800  175.8260  146.2990 C   0  0  0  0  0  0  0  0  0  0  0  0
  191.3050  177.7160  144.9390 C   0  0  0  0  0  0  0  0  0  0  0  0
  192.0650  175.0590  145.1320 C   0  0  0  0  0  3  0  0  0  0  0  0
  192.0940  175.2070  147.6330 C   0  0  0  0  0  1  0  0  0  0  0  0
  191.4570  176.9680  143.8060 C   0  0  0  0  0  0  0  0  0  0  0  0
  191.5000  177.1740  146.2080 C   0  0  0  0  0  3  0  0  0  0  0  0
  191.8600  175.6320  143.8660 C   0  0  0  0  0  3  0  0  0  0  0  0
  191.2310  177.8320  142.6080 C   0  0  2  0  0  3  0  0  0  0  0  0
  190.9000  179.2080  143.2320 C   0  0  0  0  0  2  0  0  0  0  0  0
  190.9750  179.0200  144.6450 O   0  0  0  0  0  0  0  0  0  0  0  0
  188.8380  177.8960  142.1260 C   0  0  1  0  0  3  0  0  0  0  0  0
  188.1200  178.3500  141.0140 O   0  0  0  0  0  1  0  0  0  0  0  0
  188.0200  176.8130  142.8260 C   0  0  0  0  0  2  0  0  0  0  0  0
  187.1530  177.9270  146.3410 C   0  0  0  0  0  0  0  0  0  0  0  0
  185.8920  178.5030  146.1440 C   0  0  0  0  0  0  0  0  0  0  0  0
  185.1990  179.0570  147.2130 O   0  0  0  0  0  1  0  0  0  0  0  0
  186.0160  177.9660  143.7840 C   0  0  0  0  0  3  0  0  0  0  0  0
  187.8440  177.3710  145.2590 C   0  0  0  0  0  3  0  0  0  0  0  0
  187.2740  177.3870  143.9810 C   0  0  0  0  0  0  0  0  0  0  0  0
  187.7120  177.9070  147.5760 F   0  0  0  0  0  0  0  0  0  0  0  0
  185.3250  178.5220  144.8650 C   0  0  0  0  0  3  0  0  0  0  0  0
  190.4460  177.6160  140.2780 C   0  0  0  0  0  2  0  0  0  0  0  0
  190.6400  176.3330  139.4570 C   0  0  0  0  0  2  0  0  0  0  0  0
  190.1760  176.4850  138.0100 C   0  0  2  0  0  3  0  0  0  0  0  0
  189.4050  177.7780  137.8060 C   0  0  0  0  0  1  0  0  0  0  0  0
  189.3390  175.2940  137.5590 C   0  0  0  0  0  2  0  0  0  0  0  0
  187.5810  175.2790  135.7020 N   0  0  0  0  0  2  0  0  0  0  0  0
  188.9510  175.3690  136.1100 C   0  0  0  0  0  0  0  0  0  0  0  0
  189.8350  175.5320  135.2270 O   0  0  0  0  0  0  0  0  0  0  0  0
  186.4730  174.8190  136.4900 C   0  0  0  0  0  0  0  0  0  0  0  0
  184.3840  175.1380  137.8150 N   0  0  0  0  0  2  0  0  0  0  0  0
  186.4650  173.5320  136.8530 C   0  0  0  0  0  3  0  0  0  0  0  0
  185.3460  172.9280  137.6450 C   0  0  0  0  0  2  0  0  0  0  0  0
  185.2870  175.7210  136.8120 C   0  0  1  0  0  3  0  0  0  0  0  0
  184.0840  173.7550  137.4660 C   0  0  0  0  0  2  0  0  0  0  0  0
  185.7740  177.0740  137.3180 C   0  0  0  0  0  2  0  0  0  0  0  0
  184.6520  177.8590  137.9080 C   0  0  0  0  0  0  0  0  0  0  0  0
  182.5620  179.3380  138.9770 C   0  0  0  0  0  3  0  0  0  0  0  0
  182.3930  178.5870  137.8120 C   0  0  0  0  0  3  0  0  0  0  0  0
  183.8070  179.3420  139.6090 C   0  0  0  0  0  3  0  0  0  0  0  0
  183.4310  177.8710  137.3050 N   0  0  0  0  0  0  0  0  0  0  0  0
  184.8610  178.5980  139.0750 C   0  0  0  0  0  3  0  0  0  0  0  0
  1 12  1  0  0  0  0
  2  5  1  0  0  0  0
  3  7  2  0  0  0  0
  4  2  2  0  0  0  0
  6  8  2  0  0  0  0
  6  3  1  0  0  0  0
  7  2  1  0  0  0  0
  8  4  1  0  0  0  0
  9  1  1  1  0  0  0
  9 10  1  0  0  0  0
  9  6  1  0  0  0  0
 10 11  1  0  0  0  0
 11  3  1  0  0  0  0
 12 13  1  6  0  0  0
 12 14  1  0  0  0  0
 14 20  1  0  0  0  0
 15 21  1  0  0  0  0
 16 15  1  0  0  0  0
 16 17  1  0  0  0  0
 18 20  2  0  0  0  0
 18 22  1  0  0  0  0
 19 15  2  0  0  0  0
 20 19  1  0  0  0  0
 22 16  2  0  0  0  0
 23  1  1  0  0  0  0
 24 23  1  0  0  0  0
 25 26  1  1  0  0  0
 25 24  1  0  0  0  0
 27 25  1  0  0  0  0
 28 29  1  0  0  0  0
 28 31  1  0  0  0  0
 29 27  1  0  0  0  0
 30 29  2  0  0  0  0
 31 35  1  0  0  0  0
 31 33  2  0  0  0  0
 33 34  1  0  0  0  0
 35 37  1  1  0  0  0
 35 32  1  0  0  0  0
 36 34  1  0  0  0  0
 36 32  1  0  0  0  0
 37 38  1  0  0  0  0
 38 43  1  0  0  0  0
 39 41  1  0  0  0  0
 40 39  2  0  0  0  0
 42 40  1  0  0  0  0
 42 38  2  0  0  0  0
 43 41  2  0  0  0  0
M  END
>  <MODEL>
3

>  <REMARK>
 VINA RESULT:      -8.4      1.246      2.954
  Name = 
  12 active torsions:
  status: ('A' for Active; 'I' for Inactive)
    1  A    between atoms: C_1  and  C_34
    2  A    between atoms: C_1  and  C_35
    3  A    between atoms: C_2  and  C_6
    4  A    between atoms: C_2  and  C_13
    5  A    between atoms: N_3  and  C_4
    6  A    between atoms: C_6  and  C_12
    7  A    between atoms: N_8  and  C_27
    8  A    between atoms: N_8  and  C_30
    9  A    between atoms: N_8  and  C_34
   10  A    between atoms: C_11  and  C_14
   11  A    between atoms: C_13  and  C_27
   12  A    between atoms: C_14  and  C_41
                            x       y       z     vdW  Elec       q    Type
                         _______ _______ _______ _____ _____    ______ ____

>  <TORSDO>
F 12

$$$$
=
 OpenBabel11052416433D

 43 47  0  0  1  0  0  0  0  0999 V2000
  190.2250  177.6360  141.5520 N   0  0  0  0  0  0  0  0  0  0  0  0
  185.5180  178.6150  143.3910 C   0  0  0  0  0  0  0  0  0  0  0  0
  187.3450  177.0610  143.3610 C   0  0  0  0  0  0  0  0  0  0  0  0
  185.9700  179.1480  142.1670 C   0  0  0  0  0  3  0  0  0  0  0  0
  184.3040  179.1740  144.0380 C   0  0  0  0  0  1  0  0  0  0  0  0
  187.8010  177.5940  142.1880 C   0  0  0  0  0  0  0  0  0  0  0  0
  186.2080  177.5540  143.9980 C   0  0  0  0  0  3  0  0  0  0  0  0
  187.1200  178.6310  141.5490 C   0  0  0  0  0  3  0  0  0  0  0  0
  188.9990  176.8280  141.7290 C   0  0  2  0  0  3  0  0  0  0  0  0
  189.1810  175.7700  142.8420 C   0  0  0  0  0  2  0  0  0  0  0  0
  188.1250  176.0040  143.7740 O   0  0  0  0  0  0  0  0  0  0  0  0
  191.3220  177.1570  142.4090 C   0  0  1  0  0  3  0  0  0  0  0  0
  192.4680  176.9230  141.6400 O   0  0  0  0  0  1  0  0  0  0  0  0
  191.6590  178.1810  143.4890 C   0  0  0  0  0  2  0  0  0  0  0  0
  190.8000  176.5890  146.8170 C   0  0  0  0  0  0  0  0  0  0  0  0
  189.6280  177.2770  147.1580 C   0  0  0  0  0  0  0  0  0  0  0  0
  188.9690  176.9930  148.3470 O   0  0  0  0  0  1  0  0  0  0  0  0
  189.7770  178.5470  145.0990 C   0  0  0  0  0  3  0  0  0  0  0  0
  191.4580  176.8810  145.6190 C   0  0  0  0  0  3  0  0  0  0  0  0
  190.9450  177.8570  144.7570 C   0  0  0  0  0  0  0  0  0  0  0  0
  191.3040  175.6410  147.6460 F   0  0  0  0  0  0  0  0  0  0  0  0
  189.1190  178.2560  146.2980 C   0  0  0  0  0  3  0  0  0  0  0  0
  190.6150  177.7970  140.1350 C   0  0  0  0  0  2  0  0  0  0  0  0
  189.9960  176.7540  139.1940 C   0  0  0  0  0  2  0  0  0  0  0  0
  189.1220  177.3840  138.1110 C   0  0  2  0  0  3  0  0  0  0  0  0
  189.0440  178.8920  138.2670 C   0  0  0  0  0  1  0  0  0  0  0  0
  187.7220  176.7810  138.0960 C   0  0  0  0  0  2  0  0  0  0  0  0
  185.7370  177.4480  136.6290 N   0  0  0  0  0  2  0  0  0  0  0  0
  187.0520  176.8960  136.7560 C   0  0  0  0  0  0  0  0  0  0  0  0
  187.6530  176.5210  135.7150 O   0  0  0  0  0  0  0  0  0  0  0  0
  184.7860  177.6670  137.6810 C   0  0  0  0  0  0  0  0  0  0  0  0
  182.7900  177.0720  139.0540 N   0  0  0  0  0  2  0  0  0  0  0  0
  184.8360  178.8380  138.3250 C   0  0  0  0  0  3  0  0  0  0  0  0
  183.9200  179.1670  139.4640 C   0  0  0  0  0  2  0  0  0  0  0  0
  183.8260  176.5740  138.1370 C   0  0  1  0  0  3  0  0  0  0  0  0
  183.4020  177.8860  140.0960 C   0  0  0  0  0  2  0  0  0  0  0  0
  183.1470  175.9320  136.9320 C   0  0  0  0  0  2  0  0  0  0  0  0
  183.5160  174.4920  136.8160 C   0  0  0  0  0  0  0  0  0  0  0  0
  184.1720  171.8040  136.6090 C   0  0  0  0  0  3  0  0  0  0  0  0
  183.1370  172.3540  135.8500 C   0  0  0  0  0  3  0  0  0  0  0  0
  184.8840  172.6240  137.4860 C   0  0  0  0  0  3  0  0  0  0  0  0
  182.8320  173.6740  135.9680 N   0  0  0  0  0  0  0  0  0  0  0  0
  184.5570  173.9780  137.5920 C   0  0  0  0  0  3  0  0  0  0  0  0
  1 12  1  0  0  0  0
  2  7  1  0  0  0  0
  2  5  1  0  0  0  0
  3 11  1  0  0  0  0
  3  7  2  0  0  0  0
  4  2  2  0  0  0  0
  6  3  1  0  0  0  0
  8  4  1  0  0  0  0
  8  6  2  0  0  0  0
  9  1  1  1  0  0  0
  9  6  1  0  0  0  0
  9 10  1  0  0  0  0
 10 11  1  0  0  0  0
 12 13  1  6  0  0  0
 12 14  1  0  0  0  0
 14 20  1  0  0  0  0
 15 16  1  0  0  0  0
 15 21  1  0  0  0  0
 16 17  1  0  0  0  0
 18 22  1  0  0  0  0
 19 15  2  0  0  0  0
 20 18  2  0  0  0  0
 20 19  1  0  0  0  0
 22 16  2  0  0  0  0
 23  1  1  0  0  0  0
 24 23  1  0  0  0  0
 25 26  1  1  0  0  0
 25 24  1  0  0  0  0
 27 25  1  0  0  0  0
 28 29  1  0  0  0  0
 28 31  1  0  0  0  0
 29 27  1  0  0  0  0
 30 29  2  0  0  0  0
 31 35  1  0  0  0  0
 31 33  2  0  0  0  0
 32 36  1  0  0  0  0
 33 34  1  0  0  0  0
 34 36  1  0  0  0  0
 35 37  1  6  0  0  0
 35 32  1  0  0  0  0
 38 37  1  0  0  0  0
 38 43  1  0  0  0  0
 39 41  1  0  0  0  0
 40 42  1  0  0  0  0
 40 39  2  0  0  0  0
 41 43  2  0  0  0  0
 42 38  2  0  0  0  0
M  END
>  <MODEL>
4

>  <REMARK>
 VINA RESULT:      -8.3      1.578      3.509
  Name = 
  12 active torsions:
  status: ('A' for Active; 'I' for Inactive)
    1  A    between atoms: C_1  and  C_34
    2  A    between atoms: C_1  and  C_35
    3  A    between atoms: C_2  and  C_6
    4  A    between atoms: C_2  and  C_13
    5  A    between atoms: N_3  and  C_4
    6  A    between atoms: C_6  and  C_12
    7  A    between atoms: N_8  and  C_27
    8  A    between atoms: N_8  and  C_30
    9  A    between atoms: N_8  and  C_34
   10  A    between atoms: C_11  and  C_14
   11  A    between atoms: C_13  and  C_27
   12  A    between atoms: C_14  and  C_41
                            x       y       z     vdW  Elec       q    Type
                         _______ _______ _______ _____ _____    ______ ____

>  <TORSDO>
F 12

$$$$
=
 OpenBabel11052416433D

 43 47  0  0  1  0  0  0  0  0999 V2000
  188.4760  177.6300  141.2160 N   0  0  0  0  0  0  0  0  0  0  0  0
  187.1800  176.4030  136.3890 C   0  0  0  0  0  0  0  0  0  0  0  0
  188.9670  176.5360  137.9820 C   0  0  0  0  0  0  0  0  0  0  0  0
  186.4580  177.3520  137.1400 C   0  0  0  0  0  3  0  0  0  0  0  0
  186.5920  175.8420  135.1450 C   0  0  0  0  0  1  0  0  0  0  0  0
  188.2590  177.4360  138.7270 C   0  0  0  0  0  0  0  0  0  0  0  0
  188.4540  175.9890  136.8080 C   0  0  0  0  0  3  0  0  0  0  0  0
  187.0010  177.8850  138.3200 C   0  0  0  0  0  3  0  0  0  0  0  0
  189.0860  177.8760  139.8920 C   0  0  2  0  0  3  0  0  0  0  0  0
  190.3910  177.0640  139.7150 C   0  0  0  0  0  2  0  0  0  0  0  0
  190.2070  176.2910  138.5290 O   0  0  0  0  0  0  0  0  0  0  0  0
  189.4980  177.4260  142.2560 C   0  0  1  0  0  3  0  0  0  0  0  0
  189.6910  178.6070  142.9820 O   0  0  0  0  0  1  0  0  0  0  0  0
  189.0810  176.3210  143.2240 C   0  0  0  0  0  2  0  0  0  0  0  0
  187.7960  177.8070  146.4630 C   0  0  0  0  0  0  0  0  0  0  0  0
  188.9490  177.7730  147.2580 C   0  0  0  0  0  0  0  0  0  0  0  0
  188.9120  178.2360  148.5670 O   0  0  0  0  0  1  0  0  0  0  0  0
  190.1890  176.8000  145.4170 C   0  0  0  0  0  3  0  0  0  0  0  0
  187.8420  177.3390  145.1460 C   0  0  0  0  0  3  0  0  0  0  0  0
  189.0390  176.8390  144.6210 C   0  0  0  0  0  0  0  0  0  0  0  0
  186.6330  178.2900  146.9630 F   0  0  0  0  0  0  0  0  0  0  0  0
  190.1440  177.2690  146.7330 C   0  0  0  0  0  3  0  0  0  0  0  0
  187.4580  178.6380  141.5840 C   0  0  0  0  0  2  0  0  0  0  0  0
  186.2580  178.0630  142.3480 C   0  0  0  0  0  2  0  0  0  0  0  0
  185.0140  178.9440  142.2380 C   0  0  2  0  0  3  0  0  0  0  0  0
  184.4470  179.2780  143.6060 C   0  0  0  0  0  1  0  0  0  0  0  0
  183.9440  178.3000  141.3650 C   0  0  0  0  0  2  0  0  0  0  0  0
  182.6840  178.6990  139.1760 N   0  0  0  0  0  2  0  0  0  0  0  0
  183.8030  178.9700  140.0280 C   0  0  0  0  0  0  0  0  0  0  0  0
  184.6680  179.8000  139.6420 O   0  0  0  0  0  0  0  0  0  0  0  0
  181.7580  177.6080  139.2860 C   0  0  0  0  0  0  0  0  0  0  0  0
  180.9230  175.3180  138.7530 N   0  0  0  0  0  2  0  0  0  0  0  0
  180.6290  177.8220  139.9700 C   0  0  0  0  0  3  0  0  0  0  0  0
  179.6040  176.7510  140.1840 C   0  0  0  0  0  2  0  0  0  0  0  0
  182.0850  176.2190  138.7490 C   0  0  1  0  0  3  0  0  0  0  0  0
  180.2520  175.3830  140.0450 C   0  0  0  0  0  2  0  0  0  0  0  0
  182.6250  176.3170  137.3270 C   0  0  0  0  0  2  0  0  0  0  0  0
  183.3580  175.0740  136.9470 C   0  0  0  0  0  0  0  0  0  0  0  0
  184.6920  172.7480  136.2370 C   0  0  0  0  0  3  0  0  0  0  0  0
  183.8010  173.3660  135.3570 C   0  0  0  0  0  3  0  0  0  0  0  0
  184.9100  173.3140  137.4940 C   0  0  0  0  0  3  0  0  0  0  0  0
  183.1580  174.5050  135.7260 N   0  0  0  0  0  0  0  0  0  0  0  0
  184.2410  174.4850  137.8550 C   0  0  0  0  0  3  0  0  0  0  0  0
  1 23  1  0  0  0  0
  1 12  1  0  0  0  0
  2  7  2  0  0  0  0
  2  4  1  0  0  0  0
  3 11  1  0  0  0  0
  3  6  2  0  0  0  0
  4  8  2  0  0  0  0
  5  2  1  0  0  0  0
  6  9  1  0  0  0  0
  7  3  1  0  0  0  0
  8  6  1  0  0  0  0
  9  1  1  1  0  0  0
 10  9  1  0  0  0  0
 11 10  1  0  0  0  0
 12 13  1  1  0  0  0
 12 14  1  0  0  0  0
 14 20  1  0  0  0  0
 15 21  1  0  0  0  0
 15 16  1  0  0  0  0
 16 17  1  0  0  0  0
 18 22  1  0  0  0  0
 19 15  2  0  0  0  0
 20 19  1  0  0  0  0
 20 18  2  0  0  0  0
 22 16  2  0  0  0  0
 23 24  1  0  0  0  0
 25 24  1  0  0  0  0
 25 26  1  1  0  0  0
 27 25  1  0  0  0  0
 28 31  1  0  0  0  0
 28 29  1  0  0  0  0
 29 27  1  0  0  0  0
 30 29  2  0  0  0  0
 31 33  2  0  0  0  0
 32 36  1  0  0  0  0
 33 34  1  0  0  0  0
 35 37  1  6  0  0  0
 35 32  1  0  0  0  0
 35 31  1  0  0  0  0
 36 34  1  0  0  0  0
 38 37  1  0  0  0  0
 38 43  1  0  0  0  0
 39 41  1  0  0  0  0
 40 42  1  0  0  0  0
 40 39  2  0  0  0  0
 41 43  2  0  0  0  0
 42 38  2  0  0  0  0
M  END
>  <MODEL>
5

>  <REMARK>
 VINA RESULT:      -8.3      1.982      5.167
  Name = 
  12 active torsions:
  status: ('A' for Active; 'I' for Inactive)
    1  A    between atoms: C_1  and  C_34
    2  A    between atoms: C_1  and  C_35
    3  A    between atoms: C_2  and  C_6
    4  A    between atoms: C_2  and  C_13
    5  A    between atoms: N_3  and  C_4
    6  A    between atoms: C_6  and  C_12
    7  A    between atoms: N_8  and  C_27
    8  A    between atoms: N_8  and  C_30
    9  A    between atoms: N_8  and  C_34
   10  A    between atoms: C_11  and  C_14
   11  A    between atoms: C_13  and  C_27
   12  A    between atoms: C_14  and  C_41
                            x       y       z     vdW  Elec       q    Type
                         _______ _______ _______ _____ _____    ______ ____

>  <TORSDO>
F 12

$$$$
=
 OpenBabel11052416433D

 43 47  0  0  1  0  0  0  0  0999 V2000
  188.3490  177.1130  141.5270 N   0  0  0  0  0  0  0  0  0  0  0  0
  188.1220  177.7050  146.6350 C   0  0  0  0  0  0  0  0  0  0  0  0
  189.5130  177.1090  144.7730 C   0  0  0  0  0  0  0  0  0  0  0  0
  186.9830  177.3930  145.8660 C   0  0  0  0  0  3  0  0  0  0  0  0
  187.9640  178.1860  148.0310 C   0  0  0  0  0  1  0  0  0  0  0  0
  188.4100  176.8310  144.0170 C   0  0  0  0  0  0  0  0  0  0  0  0
  189.4080  177.5580  146.0880 C   0  0  0  0  0  3  0  0  0  0  0  0
  187.1220  176.9430  144.5430 C   0  0  0  0  0  3  0  0  0  0  0  0
  188.8420  176.3260  142.6780 C   0  0  2  0  0  3  0  0  0  0  0  0
  190.3850  176.3750  142.7720 C   0  0  0  0  0  2  0  0  0  0  0  0
  190.6780  176.8620  144.0810 O   0  0  0  0  0  0  0  0  0  0  0  0
  187.7070  178.3650  141.9590 C   0  0  1  0  0  3  0  0  0  0  0  0
  188.6450  179.4040  141.9860 O   0  0  0  0  0  1  0  0  0  0  0  0
  186.5750  178.7550  141.0120 C   0  0  0  0  0  2  0  0  0  0  0  0
  184.0100  179.1690  143.7680 C   0  0  0  0  0  0  0  0  0  0  0  0
  182.8240  178.8630  143.0890 C   0  0  0  0  0  0  0  0  0  0  0  0
  181.6050  178.9010  143.7540 O   0  0  0  0  0  1  0  0  0  0  0  0
  184.0880  178.4770  141.0570 C   0  0  0  0  0  3  0  0  0  0  0  0
  185.2330  179.1280  143.0910 C   0  0  0  0  0  3  0  0  0  0  0  0
  185.2730  178.7780  141.7370 C   0  0  0  0  0  0  0  0  0  0  0  0
  183.9800  179.5090  145.0800 F   0  0  0  0  0  0  0  0  0  0  0  0
  182.8650  178.5170  141.7330 C   0  0  0  0  0  3  0  0  0  0  0  0
  189.3710  177.3090  140.4760 C   0  0  0  0  0  2  0  0  0  0  0  0
  189.0720  176.5640  139.1680 C   0  0  0  0  0  2  0  0  0  0  0  0
  188.7190  177.5090  138.0210 C   0  0  2  0  0  3  0  0  0  0  0  0
  189.1240  178.9390  138.3330 C   0  0  0  0  0  1  0  0  0  0  0  0
  187.2360  177.4440  137.6740 C   0  0  0  0  0  2  0  0  0  0  0  0
  186.2370  176.3220  135.6040 N   0  0  0  0  0  2  0  0  0  0  0  0
  186.9860  177.3910  136.1930 C   0  0  0  0  0  0  0  0  0  0  0  0
  187.4230  178.3060  135.4460 O   0  0  0  0  0  0  0  0  0  0  0  0
  185.9020  175.0650  136.2100 C   0  0  0  0  0  0  0  0  0  0  0  0
  186.4160  172.7610  137.0150 N   0  0  0  0  0  2  0  0  0  0  0  0
  184.6130  174.8360  136.4840 C   0  0  0  0  0  3  0  0  0  0  0  0
  184.1460  173.5770  137.1490 C   0  0  0  0  0  2  0  0  0  0  0  0
  186.9730  174.0680  136.6370 C   0  0  1  0  0  3  0  0  0  0  0  0
  185.2920  172.9470  137.9240 C   0  0  0  0  0  2  0  0  0  0  0  0
  187.9810  173.8640  135.5120 C   0  0  0  0  0  2  0  0  0  0  0  0
  189.3190  174.4060  135.8880 C   0  0  0  0  0  0  0  0  0  0  0  0
  191.8170  175.4100  136.5570 C   0  0  0  0  0  3  0  0  0  0  0  0
  191.0480  176.0010  135.5530 C   0  0  0  0  0  3  0  0  0  0  0  0
  191.3160  174.2960  137.2320 C   0  0  0  0  0  3  0  0  0  0  0  0
  189.8260  175.4920  135.2410 N   0  0  0  0  0  0  0  0  0  0  0  0
  190.0590  173.7870  136.8990 C   0  0  0  0  0  3  0  0  0  0  0  0
  1 12  1  0  0  0  0
  2  5  1  0  0  0  0
  3  7  2  0  0  0  0
  4  2  2  0  0  0  0
  6  8  2  0  0  0  0
  6  3  1  0  0  0  0
  7  2  1  0  0  0  0
  8  4  1  0  0  0  0
  9  1  1  6  0  0  0
  9 10  1  0  0  0  0
  9  6  1  0  0  0  0
 10 11  1  0  0  0  0
 11  3  1  0  0  0  0
 12 13  1  6  0  0  0
 14 20  1  0  0  0  0
 14 12  1  0  0  0  0
 15 21  1  0  0  0  0
 16 17  1  0  0  0  0
 16 15  2  0  0  0  0
 18 22  2  0  0  0  0
 18 20  1  0  0  0  0
 19 15  1  0  0  0  0
 20 19  2  0  0  0  0
 22 16  1  0  0  0  0
 23  1  1  0  0  0  0
 24 23  1  0  0  0  0
 25 26  1  1  0  0  0
 25 24  1  0  0  0  0
 27 25  1  0  0  0  0
 28 29  1  0  0  0  0
 28 31  1  0  0  0  0
 29 27  1  0  0  0  0
 30 29  2  0  0  0  0
 31 33  2  0  0  0  0
 31 35  1  0  0  0  0
 32 36  1  0  0  0  0
 33 34  1  0  0  0  0
 34 36  1  0  0  0  0
 35 37  1  6  0  0  0
 35 32  1  0  0  0  0
 37 38  1  0  0  0  0
 38 43  1  0  0  0  0
 39 41  1  0  0  0  0
 40 39  2  0  0  0  0
 42 40  1  0  0  0  0
 42 38  2  0  0  0  0
 43 41  2  0  0  0  0
M  END
>  <MODEL>
6

>  <REMARK>
 VINA RESULT:      -8.3      2.368      4.414
  Name = 
  12 active torsions:
  status: ('A' for Active; 'I' for Inactive)
    1  A    between atoms: C_1  and  C_34
    2  A    between atoms: C_1  and  C_35
    3  A    between atoms: C_2  and  C_6
    4  A    between atoms: C_2  and  C_13
    5  A    between atoms: N_3  and  C_4
    6  A    between atoms: C_6  and  C_12
    7  A    between atoms: N_8  and  C_27
    8  A    between atoms: N_8  and  C_30
    9  A    between atoms: N_8  and  C_34
   10  A    between atoms: C_11  and  C_14
   11  A    between atoms: C_13  and  C_27
   12  A    between atoms: C_14  and  C_41
                            x       y       z     vdW  Elec       q    Type
                         _______ _______ _______ _____ _____    ______ ____

>  <TORSDO>
F 12

$$$$
=
 OpenBabel11052416433D

 43 47  0  0  1  0  0  0  0  0999 V2000
  190.2720  177.6410  141.5830 N   0  0  0  0  0  0  0  0  0  0  0  0
  185.4850  178.6220  143.1980 C   0  0  0  0  0  0  0  0  0  0  0  0
  187.3130  177.0710  143.2600 C   0  0  0  0  0  0  0  0  0  0  0  0
  185.9910  179.1490  141.9940 C   0  0  0  0  0  3  0  0  0  0  0  0
  184.2410  179.1820  143.7860 C   0  0  0  0  0  1  0  0  0  0  0  0
  187.8210  177.5980  142.1070 C   0  0  0  0  0  0  0  0  0  0  0  0
  186.1470  177.5640  143.8420 C   0  0  0  0  0  3  0  0  0  0  0  0
  187.1690  178.6310  141.4320 C   0  0  0  0  0  3  0  0  0  0  0  0
  189.0410  176.8310  141.7080 C   0  0  2  0  0  3  0  0  0  0  0  0
  189.1720  175.7790  142.8340 C   0  0  0  0  0  2  0  0  0  0  0  0
  188.0740  176.0170  143.7150 O   0  0  0  0  0  0  0  0  0  0  0  0
  191.3220  177.1800  142.5060 C   0  0  1  0  0  3  0  0  0  0  0  0
  192.5110  176.9430  141.8060 O   0  0  0  0  0  1  0  0  0  0  0  0
  191.5930  178.2210  143.5890 C   0  0  0  0  0  2  0  0  0  0  0  0
  190.6760  176.5980  146.8860 C   0  0  0  0  0  0  0  0  0  0  0  0
  189.4880  177.2690  147.2030 C   0  0  0  0  0  0  0  0  0  0  0  0
  188.8040  176.9690  148.3740 O   0  0  0  0  0  1  0  0  0  0  0  0
  189.6690  178.5530  145.1550 C   0  0  0  0  0  3  0  0  0  0  0  0
  191.3590  176.9060  145.7050 C   0  0  0  0  0  3  0  0  0  0  0  0
  190.8530  177.8800  144.8370 C   0  0  0  0  0  0  0  0  0  0  0  0
  191.1720  175.6520  147.7210 F   0  0  0  0  0  0  0  0  0  0  0  0
  188.9860  178.2460  146.3360 C   0  0  0  0  0  3  0  0  0  0  0  0
  190.7370  177.7780  140.1860 C   0  0  0  0  0  2  0  0  0  0  0  0
  190.2150  176.6860  139.2430 C   0  0  0  0  0  2  0  0  0  0  0  0
  189.4490  177.2560  138.0500 C   0  0  2  0  0  3  0  0  0  0  0  0
  189.0560  178.7040  138.2820 C   0  0  0  0  0  1  0  0  0  0  0  0
  188.2180  176.4200  137.7200 C   0  0  0  0  0  2  0  0  0  0  0  0
  186.4320  176.2710  135.8960 N   0  0  0  0  0  2  0  0  0  0  0  0
  187.7730  176.5760  136.2940 C   0  0  0  0  0  0  0  0  0  0  0  0
  188.5800  176.9970  135.4220 O   0  0  0  0  0  0  0  0  0  0  0  0
  185.4570  175.5270  136.6430 C   0  0  0  0  0  0  0  0  0  0  0  0
  183.4750  175.3100  138.1420 N   0  0  0  0  0  2  0  0  0  0  0  0
  185.6220  174.2030  136.7270 C   0  0  0  0  0  3  0  0  0  0  0  0
  184.6520  173.3180  137.4480 C   0  0  0  0  0  2  0  0  0  0  0  0
  184.2140  176.1910  137.2250 C   0  0  1  0  0  3  0  0  0  0  0  0
  183.2960  173.9990  137.5310 C   0  0  0  0  0  2  0  0  0  0  0  0
  184.5960  177.4650  137.9710 C   0  0  0  0  0  2  0  0  0  0  0  0
  183.4100  178.0610  138.6520 C   0  0  0  0  0  0  0  0  0  0  0  0
  181.2120  179.2000  139.9040 C   0  0  0  0  0  3  0  0  0  0  0  0
  181.3200  179.1810  138.5110 C   0  0  0  0  0  3  0  0  0  0  0  0
  182.2320  178.6370  140.6730 C   0  0  0  0  0  3  0  0  0  0  0  0
  182.4060  178.6180  137.9190 N   0  0  0  0  0  0  0  0  0  0  0  0
  183.3400  178.0620  140.0470 C   0  0  0  0  0  3  0  0  0  0  0  0
  1 12  1  0  0  0  0
  2  5  1  0  0  0  0
  2  7  1  0  0  0  0
  3 11  1  0  0  0  0
  3  7  2  0  0  0  0
  4  2  2  0  0  0  0
  6  3  1  0  0  0  0
  8  4  1  0  0  0  0
  8  6  2  0  0  0  0
  9  1  1  1  0  0  0
  9  6  1  0  0  0  0
  9 10  1  0  0  0  0
 10 11  1  0  0  0  0
 12 13  1  6  0  0  0
 12 14  1  0  0  0  0
 14 20  1  0  0  0  0
 15 16  1  0  0  0  0
 15 21  1  0  0  0  0
 16 17  1  0  0  0  0
 18 22  1  0  0  0  0
 19 15  2  0  0  0  0
 20 18  2  0  0  0  0
 20 19  1  0  0  0  0
 22 16  2  0  0  0  0
 23  1  1  0  0  0  0
 24 23  1  0  0  0  0
 25 26  1  1  0  0  0
 25 24  1  0  0  0  0
 27 25  1  0  0  0  0
 28 29  1  0  0  0  0
 28 31  1  0  0  0  0
 29 27  1  0  0  0  0
 30 29  2  0  0  0  0
 31 33  2  0  0  0  0
 31 35  1  0  0  0  0
 33 34  1  0  0  0  0
 34 36  1  0  0  0  0
 35 37  1  1  0  0  0
 35 32  1  0  0  0  0
 36 32  1  0  0  0  0
 37 38  1  0  0  0  0
 38 43  1  0  0  0  0
 39 41  1  0  0  0  0
 40 39  2  0  0  0  0
 42 40  1  0  0  0  0
 42 38  2  0  0  0  0
 43 41  2  0  0  0  0
M  END
>  <MODEL>
7

>  <REMARK>
 VINA RESULT:      -8.3      1.837      4.509
  Name = 
  12 active torsions:
  status: ('A' for Active; 'I' for Inactive)
    1  A    between atoms: C_1  and  C_34
    2  A    between atoms: C_1  and  C_35
    3  A    between atoms: C_2  and  C_6
    4  A    between atoms: C_2  and  C_13
    5  A    between atoms: N_3  and  C_4
    6  A    between atoms: C_6  and  C_12
    7  A    between atoms: N_8  and  C_27
    8  A    between atoms: N_8  and  C_30
    9  A    between atoms: N_8  and  C_34
   10  A    between atoms: C_11  and  C_14
   11  A    between atoms: C_13  and  C_27
   12  A    between atoms: C_14  and  C_41
                            x       y       z     vdW  Elec       q    Type
                         _______ _______ _______ _____ _____    ______ ____

>  <TORSDO>
F 12

$$$$
=
 OpenBabel11052416433D

 43 47  0  0  1  0  0  0  0  0999 V2000
  183.6810  179.2850  140.5480 N   0  0  0  0  0  0  0  0  0  0  0  0
  181.0460  175.6440  138.0410 C   0  0  0  0  0  0  0  0  0  0  0  0
  180.9250  177.7840  139.1170 C   0  0  0  0  0  0  0  0  0  0  0  0
  182.2060  175.3500  138.7860 C   0  0  0  0  0  3  0  0  0  0  0  0
  180.5120  174.6450  137.0790 C   0  0  0  0  0  1  0  0  0  0  0  0
  182.0650  177.5130  139.8200 C   0  0  0  0  0  0  0  0  0  0  0  0
  180.3890  176.8730  138.2090 C   0  0  0  0  0  3  0  0  0  0  0  0
  182.7230  176.2880  139.6930 C   0  0  0  0  0  3  0  0  0  0  0  0
  182.3590  178.6510  140.7440 C   0  0  2  0  0  3  0  0  0  0  0  0
  181.2110  179.6430  140.4460 C   0  0  0  0  0  2  0  0  0  0  0  0
  180.4050  179.0150  139.4500 O   0  0  0  0  0  0  0  0  0  0  0  0
  184.6580  178.8240  141.5480 C   0  0  1  0  0  3  0  0  0  0  0  0
  185.6600  179.7860  141.7230 O   0  0  0  0  0  1  0  0  0  0  0  0
  183.9850  178.5700  142.8950 C   0  0  0  0  0  2  0  0  0  0  0  0
  185.8260  178.8380  146.1940 C   0  0  0  0  0  0  0  0  0  0  0  0
  186.9050  177.9710  145.9790 C   0  0  0  0  0  0  0  0  0  0  0  0
  187.8510  177.7680  146.9750 O   0  0  0  0  0  1  0  0  0  0  0  0
  186.0830  177.5040  143.7470 C   0  0  0  0  0  3  0  0  0  0  0  0
  184.8770  179.0360  145.1860 C   0  0  0  0  0  3  0  0  0  0  0  0
  185.0080  178.3730  143.9600 C   0  0  0  0  0  0  0  0  0  0  0  0
  185.6920  179.4840  147.3780 F   0  0  0  0  0  0  0  0  0  0  0  0
  187.0320  177.3050  144.7550 C   0  0  0  0  0  3  0  0  0  0  0  0
  184.1730  179.1870  139.1570 C   0  0  0  0  0  2  0  0  0  0  0  0
  185.4690  178.3770  139.0100 C   0  0  0  0  0  2  0  0  0  0  0  0
  185.8270  178.1030  137.5500 C   0  0  2  0  0  3  0  0  0  0  0  0
  184.7300  177.3270  136.8440 C   0  0  0  0  0  1  0  0  0  0  0  0
  187.1580  177.3710  137.4250 C   0  0  0  0  0  2  0  0  0  0  0  0
  189.5440  177.7650  136.5930 N   0  0  0  0  0  2  0  0  0  0  0  0
  188.2940  178.2840  137.0620 C   0  0  0  0  0  0  0  0  0  0  0  0
  188.1540  179.5330  137.1490 O   0  0  0  0  0  0  0  0  0  0  0  0
  190.0060  176.4090  136.6860 C   0  0  0  0  0  0  0  0  0  0  0  0
  191.1080  174.4950  137.8450 N   0  0  0  0  0  2  0  0  0  0  0  0
  189.9290  175.6540  135.5860 C   0  0  0  0  0  3  0  0  0  0  0  0
  190.3460  174.2150  135.5690 C   0  0  0  0  0  2  0  0  0  0  0  0
  190.4600  175.8040  138.0100 C   0  0  1  0  0  3  0  0  0  0  0  0
  190.2980  173.6480  136.9780 C   0  0  0  0  0  2  0  0  0  0  0  0
  191.4300  176.7450  138.7150 C   0  0  0  0  0  2  0  0  0  0  0  0
  190.9240  177.1190  140.0680 C   0  0  0  0  0  0  0  0  0  0  0  0
  190.0000  177.7860  142.5970 C   0  0  0  0  0  3  0  0  0  0  0  0
  191.3680  177.7350  142.3190 C   0  0  0  0  0  3  0  0  0  0  0  0
  189.0880  177.4940  141.5810 C   0  0  0  0  0  3  0  0  0  0  0  0
  191.7980  177.4050  141.0720 N   0  0  0  0  0  0  0  0  0  0  0  0
  189.5490  177.1580  140.3070 C   0  0  0  0  0  3  0  0  0  0  0  0
  1 12  1  0  0  0  0
  2  7  2  0  0  0  0
  2  4  1  0  0  0  0
  3 11  1  0  0  0  0
  3  6  2  0  0  0  0
  4  8  2  0  0  0  0
  5  2  1  0  0  0  0
  6  9  1  0  0  0  0
  7  3  1  0  0  0  0
  8  6  1  0  0  0  0
  9  1  1  6  0  0  0
 10  9  1  0  0  0  0
 11 10  1  0  0  0  0
 12 13  1  1  0  0  0
 12 14  1  0  0  0  0
 14 20  1  0  0  0  0
 15 21  1  0  0  0  0
 16 15  1  0  0  0  0
 16 17  1  0  0  0  0
 18 20  2  0  0  0  0
 18 22  1  0  0  0  0
 19 15  2  0  0  0  0
 20 19  1  0  0  0  0
 22 16  2  0  0  0  0
 23  1  1  0  0  0  0
 24 23  1  0  0  0  0
 25 26  1  1  0  0  0
 25 24  1  0  0  0  0
 27 25  1  0  0  0  0
 28 31  1  0  0  0  0
 28 29  1  0  0  0  0
 29 30  2  0  0  0  0
 29 27  1  0  0  0  0
 31 35  1  0  0  0  0
 32 35  1  0  0  0  0
 33 31  2  0  0  0  0
 34 33  1  0  0  0  0
 34 36  1  0  0  0  0
 35 37  1  6  0  0  0
 36 32  1  0  0  0  0
 37 38  1  0  0  0  0
 38 43  2  0  0  0  0
 38 42  1  0  0  0  0
 40 39  1  0  0  0  0
 41 39  2  0  0  0  0
 42 40  2  0  0  0  0
 43 41  1  0  0  0  0
M  END
>  <MODEL>
8

>  <REMARK>
 VINA RESULT:      -8.2      2.674      7.832
  Name = 
  12 active torsions:
  status: ('A' for Active; 'I' for Inactive)
    1  A    between atoms: C_1  and  C_34
    2  A    between atoms: C_1  and  C_35
    3  A    between atoms: C_2  and  C_6
    4  A    between atoms: C_2  and  C_13
    5  A    between atoms: N_3  and  C_4
    6  A    between atoms: C_6  and  C_12
    7  A    between atoms: N_8  and  C_27
    8  A    between atoms: N_8  and  C_30
    9  A    between atoms: N_8  and  C_34
   10  A    between atoms: C_11  and  C_14
   11  A    between atoms: C_13  and  C_27
   12  A    between atoms: C_14  and  C_41
                            x       y       z     vdW  Elec       q    Type
                         _______ _______ _______ _____ _____    ______ ____

>  <TORSDO>
F 12

$$$$
=
 OpenBabel11052416433D

 43 47  0  0  1  0  0  0  0  0999 V2000
  189.8710  176.6680  142.0020 N   0  0  0  0  0  0  0  0  0  0  0  0
  192.0470  175.7880  146.5820 C   0  0  0  0  0  0  0  0  0  0  0  0
  191.3260  177.4640  145.0260 C   0  0  0  0  0  0  0  0  0  0  0  0
  192.1280  174.8610  145.5250 C   0  0  0  0  0  3  0  0  0  0  0  0
  192.3940  175.3670  147.9640 C   0  0  0  0  0  1  0  0  0  0  0  0
  191.3760  176.5600  144.0030 C   0  0  0  0  0  0  0  0  0  0  0  0
  191.6470  177.1110  146.3350 C   0  0  0  0  0  3  0  0  0  0  0  0
  191.7970  175.2460  144.2160 C   0  0  0  0  0  3  0  0  0  0  0  0
  191.0280  177.2440  142.7200 C   0  0  2  0  0  3  0  0  0  0  0  0
  190.7440  178.6960  143.1680 C   0  0  0  0  0  2  0  0  0  0  0  0
  190.9560  178.7140  144.5800 O   0  0  0  0  0  0  0  0  0  0  0  0
  188.6150  177.3490  142.3580 C   0  0  1  0  0  3  0  0  0  0  0  0
  187.9040  177.6870  141.2010 O   0  0  0  0  0  1  0  0  0  0  0  0
  187.7350  176.4550  143.2280 C   0  0  0  0  0  2  0  0  0  0  0  0
  185.3940  178.6330  145.2570 C   0  0  0  0  0  0  0  0  0  0  0  0
  186.0480  178.6620  146.4960 C   0  0  0  0  0  0  0  0  0  0  0  0
  185.5050  179.3710  147.5590 O   0  0  0  0  0  1  0  0  0  0  0  0
  187.8080  177.2590  145.5970 C   0  0  0  0  0  3  0  0  0  0  0  0
  185.9480  177.9180  144.1910 C   0  0  0  0  0  3  0  0  0  0  0  0
  187.1570  177.2340  144.3590 C   0  0  0  0  0  0  0  0  0  0  0  0
  184.2220  179.2930  145.0860 F   0  0  0  0  0  0  0  0  0  0  0  0
  187.2550  177.9740  146.6640 C   0  0  0  0  0  3  0  0  0  0  0  0
  190.0870  176.5600  140.5430 C   0  0  0  0  0  2  0  0  0  0  0  0
  191.4080  177.1760  140.0610 C   0  0  0  0  0  2  0  0  0  0  0  0
  191.5640  177.1160  138.5420 C   0  0  2  0  0  3  0  0  0  0  0  0
  190.2390  177.3490  137.8370 C   0  0  0  0  0  1  0  0  0  0  0  0
  192.1790  175.7970  138.0900 C   0  0  0  0  0  2  0  0  0  0  0  0
  192.6440  175.4380  135.6010 N   0  0  0  0  0  2  0  0  0  0  0  0
  193.0520  175.9460  136.8770 C   0  0  0  0  0  0  0  0  0  0  0  0
  194.1590  176.5400  136.9640 O   0  0  0  0  0  0  0  0  0  0  0  0
  191.5850  174.5050  135.3410 C   0  0  0  0  0  0  0  0  0  0  0  0
  190.6400  172.2120  135.0700 N   0  0  0  0  0  2  0  0  0  0  0  0
  190.4100  174.9990  134.9390 C   0  0  0  0  0  3  0  0  0  0  0  0
  189.2210  174.1270  134.6720 C   0  0  0  0  0  2  0  0  0  0  0  0
  191.7420  173.0140  135.6190 C   0  0  1  0  0  3  0  0  0  0  0  0
  189.3630  172.8170  135.4280 C   0  0  0  0  0  2  0  0  0  0  0  0
  193.0560  172.5040  135.0370 C   0  0  0  0  0  2  0  0  0  0  0  0
  193.8810  171.8360  136.0850 C   0  0  0  0  0  0  0  0  0  0  0  0
  195.3870  170.5790  138.0470 C   0  0  0  0  0  3  0  0  0  0  0  0
  194.5830  169.8440  137.1730 C   0  0  0  0  0  3  0  0  0  0  0  0
  195.4290  171.9690  137.9260 C   0  0  0  0  0  3  0  0  0  0  0  0
  193.8530  170.4810  136.2190 N   0  0  0  0  0  0  0  0  0  0  0  0
  194.6730  172.6060  136.9400 C   0  0  0  0  0  3  0  0  0  0  0  0
  1 12  1  0  0  0  0
  2  5  1  0  0  0  0
  3  7  2  0  0  0  0
  4  2  2  0  0  0  0
  6  8  2  0  0  0  0
  6  3  1  0  0  0  0
  7  2  1  0  0  0  0
  8  4  1  0  0  0  0
  9  1  1  1  0  0  0
  9 10  1  0  0  0  0
  9  6  1  0  0  0  0
 10 11  1  0  0  0  0
 11  3  1  0  0  0  0
 12 13  1  6  0  0  0
 12 14  1  0  0  0  0
 14 20  1  0  0  0  0
 15 16  1  0  0  0  0
 16 22  2  0  0  0  0
 16 17  1  0  0  0  0
 18 22  1  0  0  0  0
 19 20  1  0  0  0  0
 19 15  2  0  0  0  0
 20 18  2  0  0  0  0
 21 15  1  0  0  0  0
 23  1  1  0  0  0  0
 24 23  1  0  0  0  0
 25 26  1  6  0  0  0
 25 24  1  0  0  0  0
 27 25  1  0  0  0  0
 28 29  1  0  0  0  0
 29 30  2  0  0  0  0
 29 27  1  0  0  0  0
 31 28  1  0  0  0  0
 31 35  1  0  0  0  0
 32 36  1  0  0  0  0
 32 35  1  0  0  0  0
 33 31  2  0  0  0  0
 34 33  1  0  0  0  0
 34 36  1  0  0  0  0
 35 37  1  6  0  0  0
 37 38  1  0  0  0  0
 38 42  2  0  0  0  0
 38 43  1  0  0  0  0
 40 39  2  0  0  0  0
 41 39  1  0  0  0  0
 42 40  1  0  0  0  0
 43 41  2  0  0  0  0
M  END
>  <MODEL>
9

>  <REMARK>
 VINA RESULT:      -8.2      4.107      6.074
  Name = 
  12 active torsions:
  status: ('A' for Active; 'I' for Inactive)
    1  A    between atoms: C_1  and  C_34
    2  A    between atoms: C_1  and  C_35
    3  A    between atoms: C_2  and  C_6
    4  A    between atoms: C_2  and  C_13
    5  A    between atoms: N_3  and  C_4
    6  A    between atoms: C_6  and  C_12
    7  A    between atoms: N_8  and  C_27
    8  A    between atoms: N_8  and  C_30
    9  A    between atoms: N_8  and  C_34
   10  A    between atoms: C_11  and  C_14
   11  A    between atoms: C_13  and  C_27
   12  A    between atoms: C_14  and  C_41
                            x       y       z     vdW  Elec       q    Type
                         _______ _______ _______ _____ _____    ______ ____

>  <TORSDO>
F 12

$$$$
