=
 OpenBabel11052416463D

 32 34  0  0  1  0  0  0  0  0999 V2000
  187.6150  178.0420  142.4620 N   0  0  2  0  0  0  0  0  0  0  0  0
  184.1680  179.0330  145.8290 C   0  0  0  0  0  2  0  0  0  0  0  0
  185.1920  178.4940  146.8370 C   0  0  0  0  0  2  0  0  0  0  0  0
  187.1740  178.0180  140.0380 C   0  0  2  0  0  3  0  0  0  0  0  0
  185.2410  178.0280  141.6720 C   0  0  0  0  0  2  0  0  0  0  0  0
  185.0270  178.8920  139.4610 F   0  0  0  0  0  0  0  0  0  0  0  0
  184.3860  178.3610  144.4730 C   0  0  0  0  0  2  0  0  0  0  0  0
  186.2250  177.7030  142.8210 C   0  0  2  0  0  3  0  0  0  0  0  0
  185.8640  178.4620  144.0880 C   0  0  2  0  0  3  0  0  0  0  0  0
  188.1200  177.6860  144.9080 C   0  0  0  0  0  0  0  0  0  0  0  0
  185.9170  178.7550  140.5100 C   0  0  2  0  0  3  0  0  0  0  0  0
  186.5060  178.7160  146.3750 O   0  0  0  0  0  0  0  0  0  0  0  0
  186.6690  177.8900  145.2470 C   0  0  1  0  0  3  0  0  0  0  0  0
  188.9000  177.2160  145.8470 C   0  0  0  0  0  0  0  0  0  0  0  0
  187.9220  177.3600  141.2050 C   0  0  0  0  0  2  0  0  0  0  0  0
  188.5990  177.5890  143.4680 C   0  0  2  0  0  3  0  0  0  0  0  0
  189.6840  176.7510  146.7770 C   0  0  0  0  0  3  0  0  0  0  0  0
  189.4680  179.5130  137.5960 O   0  0  0  0  0  0  0  0  0  0  0  0
  188.7170  178.6510  138.1220 C   0  0  0  0  0  0  0  0  0  0  0  0
  188.0500  178.9560  139.3500 N   0  0  0  0  0  2  0  0  0  0  0  0
  188.5130  177.3430  137.4330 C   0  0  0  0  0  2  0  0  0  0  0  0
  189.8540  176.7510  137.0390 C   0  0  0  0  0  2  0  0  0  0  0  0
  190.2500  175.7070  138.0200 C   0  0  0  0  0  0  0  0  0  0  0  0
  190.6030  176.0670  139.3140 O   0  0  0  0  0  1  0  0  0  0  0  0
  190.2360  174.4930  137.6870 O   0  0  0  0  0  0  0  0  0  0  0  0
  191.9160  175.3620  145.7170 O   0  0  0  0  0  0  0  0  0  0  0  0
  191.4540  176.7680  146.5400 P   0  0  1  0  0  0  0  0  0  0  0  0
  191.8290  177.9820  145.7180 O   0  0  0  0  0  1  0  0  0  0  0  0
  192.2140  176.8380  148.0540 O   0  0  0  0  0  0  0  0  0  0  0  0
  192.9020  175.6300  148.1820 C   0  0  0  0  0  1  0  0  0  0  0  0
  189.8840  178.4020  143.3140 C   0  0  0  0  0  2  0  0  0  0  0  0
  190.9590  177.5770  142.6320 C   0  0  0  0  0  1  0  0  0  0  0  0
  1 15  1  6  0  0  0
  1  8  1  0  0  0  0
  1 16  1  0  0  0  0
  2  3  1  0  0  0  0
  4 20  1  1  0  0  0
  4 11  1  0  0  0  0
  4 15  1  0  0  0  0
  7  2  1  0  0  0  0
  8  5  1  6  0  0  0
  8  9  1  0  0  0  0
  9  7  1  1  0  0  0
  9 13  1  0  0  0  0
 10 14  2  0  0  0  0
 11  6  1  6  0  0  0
 11  5  1  0  0  0  0
 12  3  1  0  0  0  0
 13 10  1  6  0  0  0
 13 12  1  0  0  0  0
 14 17  2  0  0  0  0
 16 31  1  1  0  0  0
 16 10  1  0  0  0  0
 18 19  2  0  0  0  0
 19 20  1  0  0  0  0
 21 19  1  0  0  0  0
 22 21  1  0  0  0  0
 22 23  1  0  0  0  0
 23 24  1  0  0  0  0
 25 23  2  0  0  0  0
 27 26  2  6  0  0  0
 27 17  1  0  0  0  0
 27 29  1  0  0  0  0
 28 27  1  0  0  0  0
 29 30  1  0  0  0  0
 32 31  1  0  0  0  0
M  END
>  <MODEL>
1

>  <REMARK>
 VINA RESULT:      -7.8      0.000      0.000
  Name = 
  7 active torsions:
  status: ('A' for Active; 'I' for Inactive)
    1  A    between atoms: C_1  and  C_10
    2  A    between atoms: C_6  and  C_31
    3  A    between atoms: C_8  and  N_23
    4  A    between atoms: C_10  and  C_24
    5  A    between atoms: P_11  and  O_18
    6  A    between atoms: P_11  and  C_32
    7  A    between atoms: C_19  and  C_24
                            x       y       z     vdW  Elec       q    Type
                         _______ _______ _______ _____ _____    ______ ____

>  <TORSDO>
F 7

$$$$
=
 OpenBabel11052416463D

 32 34  0  0  1  0  0  0  0  0999 V2000
  187.7240  178.0220  142.4700 N   0  0  2  0  0  0  0  0  0  0  0  0
  184.2300  178.9950  145.7930 C   0  0  0  0  0  2  0  0  0  0  0  0
  185.2420  178.4550  146.8140 C   0  0  0  0  0  2  0  0  0  0  0  0
  187.3150  178.0050  140.0400 C   0  0  2  0  0  3  0  0  0  0  0  0
  185.3610  178.0060  141.6480 C   0  0  0  0  0  2  0  0  0  0  0  0
  185.1740  178.8750  139.4370 F   0  0  0  0  0  0  0  0  0  0  0  0
  184.4680  178.3280  144.4380 C   0  0  0  0  0  2  0  0  0  0  0  0
  186.3300  177.6790  142.8090 C   0  0  2  0  0  3  0  0  0  0  0  0
  185.9500  178.4340  144.0730 C   0  0  2  0  0  3  0  0  0  0  0  0
  188.1970  177.6600  144.9210 C   0  0  0  0  0  0  0  0  0  0  0  0
  186.0500  178.7370  140.4980 C   0  0  2  0  0  3  0  0  0  0  0  0
  186.5620  178.6810  146.3700 O   0  0  0  0  0  0  0  0  0  0  0  0
  186.7410  177.8590  145.2420 C   0  0  1  0  0  3  0  0  0  0  0  0
  188.9660  177.1880  145.8690 C   0  0  0  0  0  0  0  0  0  0  0  0
  188.0490  177.3450  141.2150 C   0  0  0  0  0  2  0  0  0  0  0  0
  188.6950  177.5680  143.4870 C   0  0  2  0  0  3  0  0  0  0  0  0
  189.7380  176.7220  146.8080 C   0  0  0  0  0  3  0  0  0  0  0  0
  189.3480  179.6790  137.4850 O   0  0  0  0  0  0  0  0  0  0  0  0
  188.5700  178.8290  137.9900 C   0  0  0  0  0  0  0  0  0  0  0  0
  188.1980  178.9470  139.3670 N   0  0  0  0  0  2  0  0  0  0  0  0
  188.0250  177.7360  137.1310 C   0  0  0  0  0  2  0  0  0  0  0  0
  186.7290  178.1860  136.4830 C   0  0  0  0  0  2  0  0  0  0  0  0
  185.7290  177.0880  136.5470 C   0  0  0  0  0  0  0  0  0  0  0  0
  186.0510  175.8890  137.1690 O   0  0  0  0  0  1  0  0  0  0  0  0
  184.5780  177.2560  136.0650 O   0  0  0  0  0  0  0  0  0  0  0  0
  192.0000  175.2940  145.8690 O   0  0  0  0  0  1  0  0  0  0  0  0
  191.5110  176.7440  146.5940 P   0  0  1  0  0  0  0  0  0  0  0  0
  191.8860  177.9070  145.7030 O   0  0  0  0  0  0  0  0  0  0  0  0
  192.2480  176.9180  148.1110 O   0  0  0  0  0  0  0  0  0  0  0  0
  192.8250  175.6770  148.3900 C   0  0  0  0  0  1  0  0  0  0  0  0
  189.9810  178.3850  143.3530 C   0  0  0  0  0  2  0  0  0  0  0  0
  191.0680  177.5630  142.6880 C   0  0  0  0  0  1  0  0  0  0  0  0
  1 15  1  6  0  0  0
  1  8  1  0  0  0  0
  1 16  1  0  0  0  0
  2  3  1  0  0  0  0
  4 20  1  1  0  0  0
  4 11  1  0  0  0  0
  4 15  1  0  0  0  0
  7  2  1  0  0  0  0
  8  5  1  6  0  0  0
  8  9  1  0  0  0  0
  9  7  1  1  0  0  0
  9 13  1  0  0  0  0
 10 14  2  0  0  0  0
 11  6  1  6  0  0  0
 11  5  1  0  0  0  0
 12  3  1  0  0  0  0
 13 10  1  6  0  0  0
 13 12  1  0  0  0  0
 14 17  2  0  0  0  0
 16 31  1  1  0  0  0
 16 10  1  0  0  0  0
 18 19  2  0  0  0  0
 19 20  1  0  0  0  0
 21 19  1  0  0  0  0
 22 23  1  0  0  0  0
 22 21  1  0  0  0  0
 23 24  1  0  0  0  0
 25 23  2  0  0  0  0
 26 27  1  0  0  0  0
 27 28  2  6  0  0  0
 27 17  1  0  0  0  0
 27 29  1  0  0  0  0
 29 30  1  0  0  0  0
 32 31  1  0  0  0  0
M  END
>  <MODEL>
2

>  <REMARK>
 VINA RESULT:      -7.6      1.430      1.813
  Name = 
  7 active torsions:
  status: ('A' for Active; 'I' for Inactive)
    1  A    between atoms: C_1  and  C_10
    2  A    between atoms: C_6  and  C_31
    3  A    between atoms: C_8  and  N_23
    4  A    between atoms: C_10  and  C_24
    5  A    between atoms: P_11  and  O_18
    6  A    between atoms: P_11  and  C_32
    7  A    between atoms: C_19  and  C_24
                            x       y       z     vdW  Elec       q    Type
                         _______ _______ _______ _____ _____    ______ ____

>  <TORSDO>
F 7

$$$$
=
 OpenBabel11052416463D

 32 34  0  0  1  0  0  0  0  0999 V2000
  185.9200  178.3470  143.3470 N   0  0  2  0  0  0  0  0  0  0  0  0
  188.9570  177.2020  139.6500 C   0  0  0  0  0  2  0  0  0  0  0  0
  190.0370  177.1370  140.7390 C   0  0  0  0  0  2  0  0  0  0  0  0
  183.6460  179.2340  143.0070 C   0  0  2  0  0  3  0  0  0  0  0  0
  185.2790  179.1730  141.0730 C   0  0  0  0  0  2  0  0  0  0  0  0
  182.9210  179.1230  140.7340 F   0  0  0  0  0  0  0  0  0  0  0  0
  187.8700  178.1930  140.0690 C   0  0  0  0  0  2  0  0  0  0  0  0
  186.4270  178.8780  142.0670 C   0  0  2  0  0  3  0  0  0  0  0  0
  187.4080  177.8690  141.4910 C   0  0  2  0  0  3  0  0  0  0  0  0
  188.3290  177.7870  143.8380 C   0  0  0  0  0  0  0  0  0  0  0  0
  183.9200  178.7080  141.5940 C   0  0  2  0  0  3  0  0  0  0  0  0
  189.4720  176.7650  141.9760 O   0  0  0  0  0  0  0  0  0  0  0  0
  188.6520  177.8390  142.3710 C   0  0  1  0  0  3  0  0  0  0  0  0
  189.3330  177.7390  144.6770 C   0  0  0  0  0  0  0  0  0  0  0  0
  184.9260  179.2940  143.8500 C   0  0  0  0  0  2  0  0  0  0  0  0
  186.9720  178.2140  144.3750 C   0  0  2  0  0  3  0  0  0  0  0  0
  190.3270  177.6880  145.5180 C   0  0  0  0  0  3  0  0  0  0  0  0
  180.4770  177.8880  144.2750 O   0  0  0  0  0  0  0  0  0  0  0  0
  181.2620  178.6730  143.6840 C   0  0  0  0  0  0  0  0  0  0  0  0
  182.6620  178.3780  143.6550 N   0  0  0  0  0  2  0  0  0  0  0  0
  180.7100  179.8780  142.9960 C   0  0  0  0  0  2  0  0  0  0  0  0
  179.8920  179.4540  141.7900 C   0  0  0  0  0  2  0  0  0  0  0  0
  179.7150  180.6100  140.8720 C   0  0  0  0  0  0  0  0  0  0  0  0
  178.9570  181.7040  141.2680 O   0  0  0  0  0  1  0  0  0  0  0  0
  180.2800  180.6120  139.7470 O   0  0  0  0  0  0  0  0  0  0  0  0
  189.1990  178.6290  147.9420 O   0  0  0  0  0  1  0  0  0  0  0  0
  190.0180  177.3240  147.2380 P   0  0  1  0  0  0  0  0  0  0  0  0
  189.1640  176.0800  147.3340 O   0  0  0  0  0  0  0  0  0  0  0  0
  191.4990  177.0710  148.0240 O   0  0  0  0  0  0  0  0  0  0  0  0
  192.0390  175.9240  147.4400 C   0  0  0  0  0  1  0  0  0  0  0  0
  186.5160  177.2080  145.4330 C   0  0  0  0  0  2  0  0  0  0  0  0
  186.1230  177.9200  146.7130 C   0  0  0  0  0  1  0  0  0  0  0  0
  1 15  1  1  0  0  0
  1 16  1  0  0  0  0
  2  7  1  0  0  0  0
  2  3  1  0  0  0  0
  3 12  1  0  0  0  0
  4 20  1  1  0  0  0
  4 15  1  0  0  0  0
  5 11  1  0  0  0  0
  8  5  1  6  0  0  0
  8  1  1  0  0  0  0
  9  7  1  6  0  0  0
  9  8  1  0  0  0  0
  9 13  1  0  0  0  0
 10 16  1  0  0  0  0
 10 14  2  0  0  0  0
 11  6  1  6  0  0  0
 11  4  1  0  0  0  0
 13 12  1  6  0  0  0
 13 10  1  0  0  0  0
 14 17  2  0  0  0  0
 16 31  1  1  0  0  0
 17 27  1  0  0  0  0
 19 18  2  0  0  0  0
 20 19  1  0  0  0  0
 21 19  1  0  0  0  0
 22 21  1  0  0  0  0
 23 24  1  0  0  0  0
 23 22  1  0  0  0  0
 25 23  2  0  0  0  0
 27 28  2  1  0  0  0
 27 26  1  0  0  0  0
 27 29  1  0  0  0  0
 30 29  1  0  0  0  0
 31 32  1  0  0  0  0
M  END
>  <MODEL>
3

>  <REMARK>
 VINA RESULT:      -7.5      3.587      6.439
  Name = 
  7 active torsions:
  status: ('A' for Active; 'I' for Inactive)
    1  A    between atoms: C_1  and  C_10
    2  A    between atoms: C_6  and  C_31
    3  A    between atoms: C_8  and  N_23
    4  A    between atoms: C_10  and  C_24
    5  A    between atoms: P_11  and  O_18
    6  A    between atoms: P_11  and  C_32
    7  A    between atoms: C_19  and  C_24
                            x       y       z     vdW  Elec       q    Type
                         _______ _______ _______ _____ _____    ______ ____

>  <TORSDO>
F 7

$$$$
=
 OpenBabel11052416463D

 32 34  0  0  1  0  0  0  0  0999 V2000
  186.7320  178.0570  143.5200 N   0  0  2  0  0  0  0  0  0  0  0  0
  191.0240  177.5980  145.8790 C   0  0  0  0  0  2  0  0  0  0  0  0
  191.5990  177.2900  144.4890 C   0  0  0  0  0  2  0  0  0  0  0  0
  184.5560  178.1570  144.6730 C   0  0  2  0  0  3  0  0  0  0  0  0
  186.6200  177.4100  145.9340 C   0  0  0  0  0  2  0  0  0  0  0  0
  184.7540  178.3970  147.0410 F   0  0  0  0  0  0  0  0  0  0  0  0
  189.5560  177.1710  145.9290 C   0  0  0  0  0  2  0  0  0  0  0  0
  187.3780  177.2780  144.5930 C   0  0  2  0  0  3  0  0  0  0  0  0
  188.8170  177.7540  144.7240 C   0  0  2  0  0  3  0  0  0  0  0  0
  188.8380  177.6140  142.2050 C   0  0  0  0  0  0  0  0  0  0  0  0
  185.4800  178.4260  145.8650 C   0  0  2  0  0  3  0  0  0  0  0  0
  190.8530  177.9460  143.4880 O   0  0  0  0  0  0  0  0  0  0  0  0
  189.5860  177.3320  143.4790 C   0  0  1  0  0  3  0  0  0  0  0  0
  189.4260  177.3040  141.0770 C   0  0  0  0  0  0  0  0  0  0  0  0
  185.3320  177.6370  143.4560 C   0  0  0  0  0  2  0  0  0  0  0  0
  187.3310  177.8180  142.1900 C   0  0  2  0  0  3  0  0  0  0  0  0
  190.0050  177.0020  139.9510 C   0  0  0  0  0  3  0  0  0  0  0  0
  181.9400  180.5160  143.6430 O   0  0  0  0  0  0  0  0  0  0  0  0
  182.4750  179.4160  143.9380 C   0  0  0  0  0  0  0  0  0  0  0  0
  183.8510  179.3840  144.3270 N   0  0  0  0  0  2  0  0  0  0  0  0
  181.6490  178.1720  143.9090 C   0  0  0  0  0  2  0  0  0  0  0  0
  180.1980  178.5210  143.6330 C   0  0  0  0  0  2  0  0  0  0  0  0
  179.8440  178.1310  142.2430 C   0  0  0  0  0  0  0  0  0  0  0  0
  180.1620  178.9700  141.1820 O   0  0  0  0  0  0  0  0  0  0  0  0
  179.2840  177.0250  142.0230 O   0  0  0  0  0  1  0  0  0  0  0  0
  189.0310  179.2460  138.5180 O   0  0  0  0  0  1  0  0  0  0  0  0
  189.3100  177.5790  138.4100 P   0  0  1  0  0  0  0  0  0  0  0  0
  190.2890  177.3010  137.2920 O   0  0  0  0  0  0  0  0  0  0  0  0
  187.8540  176.7600  138.1200 O   0  0  0  0  0  0  0  0  0  0  0  0
  187.2560  177.4280  137.0500 C   0  0  0  0  0  1  0  0  0  0  0  0
  186.9970  178.9940  141.2710 C   0  0  0  0  0  2  0  0  0  0  0  0
  185.8550  178.6350  140.3400 C   0  0  0  0  0  1  0  0  0  0  0  0
  1 15  1  6  0  0  0
  1  8  1  0  0  0  0
  2  7  1  0  0  0  0
  3  2  1  0  0  0  0
  4 20  1  6  0  0  0
  4 11  1  0  0  0  0
  8  9  1  0  0  0  0
  8  5  1  1  0  0  0
  9  7  1  1  0  0  0
 11  5  1  0  0  0  0
 11  6  1  1  0  0  0
 12  3  1  0  0  0  0
 13 10  1  6  0  0  0
 13 12  1  0  0  0  0
 13  9  1  0  0  0  0
 14 10  2  0  0  0  0
 15  4  1  0  0  0  0
 16 31  1  6  0  0  0
 16 10  1  0  0  0  0
 16  1  1  0  0  0  0
 17 14  2  0  0  0  0
 18 19  2  0  0  0  0
 19 20  1  0  0  0  0
 21 19  1  0  0  0  0
 22 21  1  0  0  0  0
 23 22  1  0  0  0  0
 24 23  2  0  0  0  0
 25 23  1  0  0  0  0
 27 28  2  6  0  0  0
 27 26  1  0  0  0  0
 27 17  1  0  0  0  0
 29 27  1  0  0  0  0
 30 29  1  0  0  0  0
 32 31  1  0  0  0  0
M  END
>  <MODEL>
4

>  <REMARK>
 VINA RESULT:      -7.3      3.665      7.483
  Name = 
  7 active torsions:
  status: ('A' for Active; 'I' for Inactive)
    1  A    between atoms: C_1  and  C_10
    2  A    between atoms: C_6  and  C_31
    3  A    between atoms: C_8  and  N_23
    4  A    between atoms: C_10  and  C_24
    5  A    between atoms: P_11  and  O_18
    6  A    between atoms: P_11  and  C_32
    7  A    between atoms: C_19  and  C_24
                            x       y       z     vdW  Elec       q    Type
                         _______ _______ _______ _____ _____    ______ ____

>  <TORSDO>
F 7

$$$$
=
 OpenBabel11052416463D

 32 34  0  0  1  0  0  0  0  0999 V2000
  186.2740  178.0480  143.5530 N   0  0  2  0  0  0  0  0  0  0  0  0
  187.0790  178.9850  138.7910 C   0  0  0  0  0  2  0  0  0  0  0  0
  185.5490  179.0390  138.6840 C   0  0  0  0  0  2  0  0  0  0  0  0
  188.0220  177.2360  145.0880 C   0  0  2  0  0  3  0  0  0  0  0  0
  188.4160  177.1870  142.5880 C   0  0  0  0  0  2  0  0  0  0  0  0
  190.2150  177.3140  144.1460 F   0  0  0  0  0  0  0  0  0  0  0  0
  187.4770  178.0460  139.9300 C   0  0  0  0  0  2  0  0  0  0  0  0
  186.9120  177.4660  142.3570 C   0  0  2  0  0  3  0  0  0  0  0  0
  186.7020  178.4240  141.1940 C   0  0  2  0  0  3  0  0  0  0  0  0
  184.3240  178.5320  142.0280 C   0  0  0  0  0  0  0  0  0  0  0  0
  188.9090  177.7140  143.9350 C   0  0  2  0  0  3  0  0  0  0  0  0
  184.9810  179.4630  139.9030 O   0  0  0  0  0  0  0  0  0  0  0  0
  185.2230  178.4300  140.8280 C   0  0  1  0  0  3  0  0  0  0  0  0
  183.0330  178.5650  141.8150 C   0  0  0  0  0  0  0  0  0  0  0  0
  186.5470  177.1510  144.6750 C   0  0  0  0  0  2  0  0  0  0  0  0
  184.8070  178.1690  143.4240 C   0  0  2  0  0  3  0  0  0  0  0  0
  181.7470  178.6010  141.6120 C   0  0  0  0  0  3  0  0  0  0  0  0
  189.0890  178.7040  148.2770 O   0  0  0  0  0  0  0  0  0  0  0  0
  189.0240  177.8730  147.3340 C   0  0  0  0  0  0  0  0  0  0  0  0
  188.1710  178.1430  146.2170 N   0  0  0  0  0  2  0  0  0  0  0  0
  189.8650  176.6410  147.3870 C   0  0  0  0  0  2  0  0  0  0  0  0
  191.3030  176.9810  147.0450 C   0  0  0  0  0  2  0  0  0  0  0  0
  192.1710  175.7990  147.2900 C   0  0  0  0  0  0  0  0  0  0  0  0
  192.4300  174.9010  146.2620 O   0  0  0  0  0  0  0  0  0  0  0  0
  192.6970  175.6290  148.4210 O   0  0  0  0  0  1  0  0  0  0  0  0
  179.1920  178.1730  142.7620 O   0  0  0  0  0  0  0  0  0  0  0  0
  180.6450  179.0200  142.9540 P   0  0  1  0  0  0  0  0  0  0  0  0
  181.2920  178.6270  144.2640 O   0  0  0  0  0  1  0  0  0  0  0  0
  180.3570  180.6910  142.9300 O   0  0  0  0  0  0  0  0  0  0  0  0
  179.3140  180.8760  142.0210 C   0  0  0  0  0  1  0  0  0  0  0  0
  184.3010  179.2180  144.4150 C   0  0  0  0  0  2  0  0  0  0  0  0
  184.2820  178.6550  145.8230 C   0  0  0  0  0  1  0  0  0  0  0  0
  1 15  1  1  0  0  0
  2  7  1  0  0  0  0
  3  2  1  0  0  0  0
  3 12  1  0  0  0  0
  4 20  1  1  0  0  0
  5 11  1  0  0  0  0
  8  5  1  1  0  0  0
  8  1  1  0  0  0  0
  9  7  1  6  0  0  0
  9  8  1  0  0  0  0
 10 16  1  0  0  0  0
 11  6  1  1  0  0  0
 11  4  1  0  0  0  0
 13 12  1  6  0  0  0
 13  9  1  0  0  0  0
 13 10  1  0  0  0  0
 14 10  2  0  0  0  0
 15  4  1  0  0  0  0
 16  1  1  0  0  0  0
 16 31  1  1  0  0  0
 17 14  2  0  0  0  0
 17 27  1  0  0  0  0
 19 21  1  0  0  0  0
 19 18  2  0  0  0  0
 20 19  1  0  0  0  0
 22 23  1  0  0  0  0
 22 21  1  0  0  0  0
 23 25  1  0  0  0  0
 24 23  2  0  0  0  0
 27 26  2  6  0  0  0
 27 28  1  0  0  0  0
 29 27  1  0  0  0  0
 30 29  1  0  0  0  0
 31 32  1  0  0  0  0
M  END
>  <MODEL>
5

>  <REMARK>
 VINA RESULT:      -7.3      3.836      8.308
  Name = 
  7 active torsions:
  status: ('A' for Active; 'I' for Inactive)
    1  A    between atoms: C_1  and  C_10
    2  A    between atoms: C_6  and  C_31
    3  A    between atoms: C_8  and  N_23
    4  A    between atoms: C_10  and  C_24
    5  A    between atoms: P_11  and  O_18
    6  A    between atoms: P_11  and  C_32
    7  A    between atoms: C_19  and  C_24
                            x       y       z     vdW  Elec       q    Type
                         _______ _______ _______ _____ _____    ______ ____

>  <TORSDO>
F 7

$$$$
=
 OpenBabel11052416463D

 32 34  0  0  1  0  0  0  0  0999 V2000
  189.3140  177.6040  139.7380 N   0  0  2  0  0  0  0  0  0  0  0  0
  189.9580  177.3960  134.8660 C   0  0  0  0  0  2  0  0  0  0  0  0
  188.4260  177.4700  134.7970 C   0  0  0  0  0  2  0  0  0  0  0  0
  191.1000  177.1150  141.3630 C   0  0  2  0  0  3  0  0  0  0  0  0
  191.3990  176.4800  138.9310 C   0  0  0  0  0  2  0  0  0  0  0  0
  193.2580  176.9080  140.3590 F   0  0  0  0  0  0  0  0  0  0  0  0
  190.3780  176.7320  136.1780 C   0  0  0  0  0  2  0  0  0  0  0  0
  189.8930  176.7440  138.6890 C   0  0  2  0  0  3  0  0  0  0  0  0
  189.6600  177.4140  137.3440 C   0  0  2  0  0  3  0  0  0  0  0  0
  187.3180  177.7840  138.2060 C   0  0  0  0  0  0  0  0  0  0  0  0
  191.9540  177.2880  140.1030 C   0  0  2  0  0  3  0  0  0  0  0  0
  187.9150  178.1800  135.9030 O   0  0  0  0  0  0  0  0  0  0  0  0
  188.1690  177.3810  137.0330 C   0  0  1  0  0  3  0  0  0  0  0  0
  186.0210  177.8060  138.0320 C   0  0  0  0  0  0  0  0  0  0  0  0
  189.6100  176.9820  141.0280 C   0  0  0  0  0  2  0  0  0  0  0  0
  187.8460  177.7370  139.6310 C   0  0  2  0  0  3  0  0  0  0  0  0
  184.7300  177.8330  137.8670 C   0  0  0  0  0  3  0  0  0  0  0  0
  191.6810  179.1590  144.3540 O   0  0  0  0  0  0  0  0  0  0  0  0
  191.5150  178.1250  143.6570 C   0  0  0  0  0  0  0  0  0  0  0  0
  191.3130  178.2530  142.2470 N   0  0  0  0  0  2  0  0  0  0  0  0
  191.5680  176.7850  144.3140 C   0  0  0  0  0  2  0  0  0  0  0  0
  190.8020  176.8210  145.6230 C   0  0  0  0  0  2  0  0  0  0  0  0
  191.6860  176.3790  146.7340 C   0  0  0  0  0  0  0  0  0  0  0  0
  191.7280  177.1020  147.9190 O   0  0  0  0  0  1  0  0  0  0  0  0
  192.3730  175.3310  146.6130 O   0  0  0  0  0  0  0  0  0  0  0  0
  184.2830  180.1280  139.4700 O   0  0  0  0  0  1  0  0  0  0  0  0
  183.6900  178.5830  139.1100 P   0  0  1  0  0  0  0  0  0  0  0  0
  182.2800  178.6940  138.5720 O   0  0  0  0  0  0  0  0  0  0  0  0
  183.7030  177.6120  140.5000 O   0  0  0  0  0  0  0  0  0  0  0  0
  183.0890  178.3760  141.4940 C   0  0  0  0  0  1  0  0  0  0  0  0
  187.4020  179.0010  140.3690 C   0  0  0  0  0  2  0  0  0  0  0  0
  186.7390  178.6450  141.6860 C   0  0  0  0  0  1  0  0  0  0  0  0
  1 15  1  1  0  0  0
  2  7  1  0  0  0  0
  3  2  1  0  0  0  0
  3 12  1  0  0  0  0
  4 20  1  1  0  0  0
  5 11  1  0  0  0  0
  8  5  1  1  0  0  0
  8  1  1  0  0  0  0
  9  7  1  6  0  0  0
  9  8  1  0  0  0  0
 10 16  1  0  0  0  0
 11  6  1  1  0  0  0
 11  4  1  0  0  0  0
 13 12  1  6  0  0  0
 13  9  1  0  0  0  0
 13 10  1  0  0  0  0
 14 10  2  0  0  0  0
 15  4  1  0  0  0  0
 16  1  1  0  0  0  0
 16 31  1  6  0  0  0
 17 14  2  0  0  0  0
 17 27  1  0  0  0  0
 19 21  1  0  0  0  0
 19 18  2  0  0  0  0
 20 19  1  0  0  0  0
 21 22  1  0  0  0  0
 22 23  1  0  0  0  0
 23 24  1  0  0  0  0
 25 23  2  0  0  0  0
 27 28  2  6  0  0  0
 27 26  1  0  0  0  0
 27 29  1  0  0  0  0
 29 30  1  0  0  0  0
 31 32  1  0  0  0  0
M  END
>  <MODEL>
6

>  <REMARK>
 VINA RESULT:      -6.9      3.622      8.471
  Name = 
  7 active torsions:
  status: ('A' for Active; 'I' for Inactive)
    1  A    between atoms: C_1  and  C_10
    2  A    between atoms: C_6  and  C_31
    3  A    between atoms: C_8  and  N_23
    4  A    between atoms: C_10  and  C_24
    5  A    between atoms: P_11  and  O_18
    6  A    between atoms: P_11  and  C_32
    7  A    between atoms: C_19  and  C_24
                            x       y       z     vdW  Elec       q    Type
                         _______ _______ _______ _____ _____    ______ ____

>  <TORSDO>
F 7

$$$$
=
 OpenBabel11052416463D

 32 34  0  0  1  0  0  0  0  0999 V2000
  190.0220  176.8700  138.6870 N   0  0  2  0  0  0  0  0  0  0  0  0
  185.4470  178.5710  138.0810 C   0  0  0  0  0  2  0  0  0  0  0  0
  185.4140  178.6350  139.6150 C   0  0  0  0  0  2  0  0  0  0  0  0
  191.3300  175.8260  136.8790 C   0  0  2  0  0  3  0  0  0  0  0  0
  188.8410  176.1860  136.5900 C   0  0  0  0  0  2  0  0  0  0  0  0
  190.3220  176.0650  134.7260 F   0  0  0  0  0  0  0  0  0  0  0  0
  186.4000  177.4610  137.6380 C   0  0  0  0  0  2  0  0  0  0  0  0
  188.7220  176.4930  138.1020 C   0  0  2  0  0  3  0  0  0  0  0  0
  187.7400  177.6250  138.3580 C   0  0  2  0  0  3  0  0  0  0  0  0
  188.6810  177.5880  140.6990 C   0  0  0  0  0  0  0  0  0  0  0  0
  190.2340  176.4890  136.0390 C   0  0  2  0  0  3  0  0  0  0  0  0
  186.7090  178.8540  140.1290 O   0  0  0  0  0  0  0  0  0  0  0  0
  187.4420  177.6860  139.8510 C   0  0  1  0  0  3  0  0  0  0  0  0
  188.5300  177.6500  141.9970 C   0  0  0  0  0  0  0  0  0  0  0  0
  190.9720  175.8040  138.3700 C   0  0  0  0  0  2  0  0  0  0  0  0
  189.9770  177.0050  140.1580 C   0  0  2  0  0  3  0  0  0  0  0  0
  188.3900  177.7140  143.2910 C   0  0  0  0  0  3  0  0  0  0  0  0
  194.8980  176.5780  136.4640 O   0  0  0  0  0  0  0  0  0  0  0  0
  193.8580  175.8890  136.6300 C   0  0  0  0  0  0  0  0  0  0  0  0
  192.5850  176.5390  136.6790 N   0  0  0  0  0  2  0  0  0  0  0  0
  193.9750  174.4040  136.7360 C   0  0  0  0  0  2  0  0  0  0  0  0
  195.3840  174.0250  137.1520 C   0  0  0  0  0  2  0  0  0  0  0  0
  195.4290  173.7950  138.6200 C   0  0  0  0  0  0  0  0  0  0  0  0
  195.8100  174.8220  139.4740 O   0  0  0  0  0  1  0  0  0  0  0  0
  195.0910  172.6780  139.0920 O   0  0  0  0  0  0  0  0  0  0  0  0
  190.7600  179.1960  143.7580 O   0  0  0  0  0  0  0  0  0  0  0  0
  189.8270  177.9050  144.3330 P   0  0  1  0  0  0  0  0  0  0  0  0
  189.3760  178.1970  145.7470 O   0  0  0  0  0  1  0  0  0  0  0  0
  190.7300  176.4700  144.2990 O   0  0  0  0  0  0  0  0  0  0  0  0
  191.6790  176.6020  145.3130 C   0  0  0  0  0  1  0  0  0  0  0  0
  191.1460  177.8770  140.6180 C   0  0  0  0  0  2  0  0  0  0  0  0
  192.1660  177.0470  141.3730 C   0  0  0  0  0  1  0  0  0  0  0  0
  1 15  1  1  0  0  0
  1 16  1  0  0  0  0
  2  3  1  0  0  0  0
  3 12  1  0  0  0  0
  4 20  1  1  0  0  0
  4 15  1  0  0  0  0
  7  2  1  0  0  0  0
  8  5  1  6  0  0  0
  8  9  1  0  0  0  0
  8  1  1  0  0  0  0
  9  7  1  6  0  0  0
  9 13  1  0  0  0  0
 10 14  2  0  0  0  0
 11  6  1  6  0  0  0
 11  5  1  0  0  0  0
 11  4  1  0  0  0  0
 13 12  1  6  0  0  0
 13 10  1  0  0  0  0
 14 17  2  0  0  0  0
 16 31  1  6  0  0  0
 16 10  1  0  0  0  0
 17 27  1  0  0  0  0
 18 19  2  0  0  0  0
 19 20  1  0  0  0  0
 19 21  1  0  0  0  0
 21 22  1  0  0  0  0
 22 23  1  0  0  0  0
 23 25  2  0  0  0  0
 23 24  1  0  0  0  0
 27 26  2  6  0  0  0
 27 28  1  0  0  0  0
 29 27  1  0  0  0  0
 29 30  1  0  0  0  0
 31 32  1  0  0  0  0
M  END
>  <MODEL>
7

>  <REMARK>
 VINA RESULT:      -6.5      3.355      5.389
  Name = 
  7 active torsions:
  status: ('A' for Active; 'I' for Inactive)
    1  A    between atoms: C_1  and  C_10
    2  A    between atoms: C_6  and  C_31
    3  A    between atoms: C_8  and  N_23
    4  A    between atoms: C_10  and  C_24
    5  A    between atoms: P_11  and  O_18
    6  A    between atoms: P_11  and  C_32
    7  A    between atoms: C_19  and  C_24
                            x       y       z     vdW  Elec       q    Type
                         _______ _______ _______ _____ _____    ______ ____

>  <TORSDO>
F 7

$$$$
=
 OpenBabel11052416463D

 32 34  0  0  1  0  0  0  0  0999 V2000
  186.6760  178.1110  144.0230 N   0  0  2  0  0  0  0  0  0  0  0  0
  182.0910  178.4540  142.2740 C   0  0  0  0  0  2  0  0  0  0  0  0
  182.7700  178.5750  140.9020 C   0  0  0  0  0  2  0  0  0  0  0  0
  187.2310  178.3010  146.4160 C   0  0  2  0  0  3  0  0  0  0  0  0
  184.9420  179.0010  145.5920 C   0  0  0  0  0  2  0  0  0  0  0  0
  185.3090  178.2820  147.8340 F   0  0  0  0  0  0  0  0  0  0  0  0
  183.0260  179.0010  143.3540 C   0  0  0  0  0  2  0  0  0  0  0  0
  185.4600  178.9380  144.1350 C   0  0  2  0  0  3  0  0  0  0  0  0
  184.4070  178.3630  143.2010 C   0  0  2  0  0  3  0  0  0  0  0  0
  186.2970  178.2500  141.5330 C   0  0  0  0  0  0  0  0  0  0  0  0
  185.7200  178.0780  146.5300 C   0  0  2  0  0  3  0  0  0  0  0  0
  184.0000  177.8850  140.8950 O   0  0  0  0  0  0  0  0  0  0  0  0
  184.8510  178.5950  141.7620 C   0  0  1  0  0  3  0  0  0  0  0  0
  186.7690  178.3970  140.3220 C   0  0  0  0  0  0  0  0  0  0  0  0
  187.6520  178.6330  144.9790 C   0  0  0  0  0  2  0  0  0  0  0  0
  187.2920  178.1670  142.6810 C   0  0  2  0  0  3  0  0  0  0  0  0
  187.2460  178.5390  139.1180 C   0  0  0  0  0  3  0  0  0  0  0  0
  189.8640  175.8520  147.1490 O   0  0  0  0  0  0  0  0  0  0  0  0
  189.3390  176.9180  146.7360 C   0  0  0  0  0  0  0  0  0  0  0  0
  187.9270  177.1070  146.8750 N   0  0  0  0  0  2  0  0  0  0  0  0
  190.2070  177.9770  146.1410 C   0  0  0  0  0  2  0  0  0  0  0  0
  191.2900  177.3400  145.2910 C   0  0  0  0  0  2  0  0  0  0  0  0
  191.4390  178.0960  144.0190 C   0  0  0  0  0  0  0  0  0  0  0  0
  190.9320  179.3850  143.9120 O   0  0  0  0  0  1  0  0  0  0  0  0
  192.0520  177.5800  143.0490 O   0  0  0  0  0  0  0  0  0  0  0  0
  188.6770  176.2480  138.2570 O   0  0  0  0  0  1  0  0  0  0  0  0
  188.8520  177.8700  138.7130 P   0  0  1  0  0  0  0  0  0  0  0  0
  189.4390  178.6580  137.5640 O   0  0  0  0  0  0  0  0  0  0  0  0
  189.8590  177.9910  140.0720 O   0  0  0  0  0  0  0  0  0  0  0  0
  190.8930  177.0790  139.8520 C   0  0  0  0  0  1  0  0  0  0  0  0
  188.1790  176.9370  142.4840 C   0  0  0  0  0  2  0  0  0  0  0  0
  187.9340  175.9210  143.5820 C   0  0  0  0  0  1  0  0  0  0  0  0
  1  8  1  0  0  0  0
  1 15  1  1  0  0  0
  2  7  1  0  0  0  0
  3  2  1  0  0  0  0
  4 11  1  0  0  0  0
  4 20  1  6  0  0  0
  5 11  1  0  0  0  0
  8  5  1  1  0  0  0
  9  7  1  6  0  0  0
  9  8  1  0  0  0  0
 10 13  1  0  0  0  0
 10 16  1  0  0  0  0
 11  6  1  1  0  0  0
 12  3  1  0  0  0  0
 13 12  1  6  0  0  0
 13  9  1  0  0  0  0
 14 10  2  0  0  0  0
 15  4  1  0  0  0  0
 16 31  1  6  0  0  0
 16  1  1  0  0  0  0
 17 14  2  0  0  0  0
 19 20  1  0  0  0  0
 19 18  2  0  0  0  0
 21 19  1  0  0  0  0
 22 21  1  0  0  0  0
 23 22  1  0  0  0  0
 24 23  1  0  0  0  0
 25 23  2  0  0  0  0
 26 27  1  0  0  0  0
 27 28  2  6  0  0  0
 27 17  1  0  0  0  0
 27 29  1  0  0  0  0
 30 29  1  0  0  0  0
 31 32  1  0  0  0  0
M  END
>  <MODEL>
8

>  <REMARK>
 VINA RESULT:      -6.5      2.972      6.398
  Name = 
  7 active torsions:
  status: ('A' for Active; 'I' for Inactive)
    1  A    between atoms: C_1  and  C_10
    2  A    between atoms: C_6  and  C_31
    3  A    between atoms: C_8  and  N_23
    4  A    between atoms: C_10  and  C_24
    5  A    between atoms: P_11  and  O_18
    6  A    between atoms: P_11  and  C_32
    7  A    between atoms: C_19  and  C_24
                            x       y       z     vdW  Elec       q    Type
                         _______ _______ _______ _____ _____    ______ ____

>  <TORSDO>
F 7

$$$$
=
 OpenBabel11052416463D

 32 34  0  0  1  0  0  0  0  0999 V2000
  183.9390  178.3650  141.9810 N   0  0  2  0  0  0  0  0  0  0  0  0
  179.6130  178.7390  144.2920 C   0  0  0  0  0  2  0  0  0  0  0  0
  179.0410  178.9960  142.8910 C   0  0  0  0  0  2  0  0  0  0  0  0
  186.1060  178.3620  143.1550 C   0  0  2  0  0  3  0  0  0  0  0  0
  184.0080  179.0700  144.3810 C   0  0  0  0  0  2  0  0  0  0  0  0
  185.8940  178.1690  145.5260 F   0  0  0  0  0  0  0  0  0  0  0  0
  181.0650  179.2150  144.3450 C   0  0  0  0  0  2  0  0  0  0  0  0
  183.2580  179.1480  143.0300 C   0  0  2  0  0  3  0  0  0  0  0  0
  181.8350  178.6280  143.1600 C   0  0  2  0  0  3  0  0  0  0  0  0
  181.8320  178.7100  140.6380 C   0  0  0  0  0  0  0  0  0  0  0  0
  185.1800  178.0910  144.3450 C   0  0  2  0  0  3  0  0  0  0  0  0
  179.8170  178.3420  141.9110 O   0  0  0  0  0  0  0  0  0  0  0  0
  181.0630  178.9960  141.8990 C   0  0  1  0  0  3  0  0  0  0  0  0
  181.2450  178.9750  139.4990 C   0  0  0  0  0  0  0  0  0  0  0  0
  185.3250  178.8290  141.9200 C   0  0  0  0  0  2  0  0  0  0  0  0
  183.3450  178.5540  140.6420 C   0  0  2  0  0  3  0  0  0  0  0  0
  180.6670  179.2320  138.3610 C   0  0  0  0  0  3  0  0  0  0  0  0
  188.7660  175.8400  142.9870 O   0  0  0  0  0  0  0  0  0  0  0  0
  188.1830  176.9070  143.3100 C   0  0  0  0  0  0  0  0  0  0  0  0
  186.8530  177.1510  142.8430 N   0  0  0  0  0  2  0  0  0  0  0  0
  188.8810  177.8780  144.2030 C   0  0  0  0  0  2  0  0  0  0  0  0
  189.5100  177.1460  145.3740 C   0  0  0  0  0  2  0  0  0  0  0  0
  190.9900  177.2690  145.3080 C   0  0  0  0  0  0  0  0  0  0  0  0
  191.6090  177.5780  144.1030 O   0  0  0  0  0  0  0  0  0  0  0  0
  191.6800  177.1250  146.3500 O   0  0  0  0  0  1  0  0  0  0  0  0
  183.0610  178.4420  137.0650 O   0  0  0  0  0  1  0  0  0  0  0  0
  181.3950  178.6430  136.8400 P   0  0  1  0  0  0  0  0  0  0  0  0
  180.7690  177.3160  136.4750 O   0  0  0  0  0  0  0  0  0  0  0  0
  181.1020  179.7760  135.6130 O   0  0  0  0  0  0  0  0  0  0  0  0
  180.6180  180.9130  136.2620 C   0  0  0  0  0  1  0  0  0  0  0  0
  183.7250  177.3700  139.7520 C   0  0  0  0  0  2  0  0  0  0  0  0
  182.6810  176.2740  139.8460 C   0  0  0  0  0  1  0  0  0  0  0  0
  1 15  1  6  0  0  0
  1  8  1  0  0  0  0
  2  7  1  0  0  0  0
  3  2  1  0  0  0  0
  4 20  1  6  0  0  0
  4 11  1  0  0  0  0
  8  9  1  0  0  0  0
  8  5  1  1  0  0  0
  9  7  1  1  0  0  0
 10 16  1  0  0  0  0
 11  5  1  0  0  0  0
 11  6  1  1  0  0  0
 12  3  1  0  0  0  0
 13 10  1  6  0  0  0
 13 12  1  0  0  0  0
 13  9  1  0  0  0  0
 14 10  2  0  0  0  0
 15  4  1  0  0  0  0
 16 31  1  6  0  0  0
 16  1  1  0  0  0  0
 17 14  2  0  0  0  0
 18 19  2  0  0  0  0
 19 21  1  0  0  0  0
 20 19  1  0  0  0  0
 21 22  1  0  0  0  0
 23 22  1  0  0  0  0
 23 25  1  0  0  0  0
 24 23  2  0  0  0  0
 27 28  2  6  0  0  0
 27 26  1  0  0  0  0
 27 17  1  0  0  0  0
 29 30  1  0  0  0  0
 29 27  1  0  0  0  0
 31 32  1  0  0  0  0
M  END
>  <MODEL>
9

>  <REMARK>
 VINA RESULT:      -6.5      4.949      8.585
  Name = 
  7 active torsions:
  status: ('A' for Active; 'I' for Inactive)
    1  A    between atoms: C_1  and  C_10
    2  A    between atoms: C_6  and  C_31
    3  A    between atoms: C_8  and  N_23
    4  A    between atoms: C_10  and  C_24
    5  A    between atoms: P_11  and  O_18
    6  A    between atoms: P_11  and  C_32
    7  A    between atoms: C_19  and  C_24
                            x       y       z     vdW  Elec       q    Type
                         _______ _______ _______ _____ _____    ______ ____

>  <TORSDO>
F 7

$$$$
